AV-unprocessed.smi:1602|AV-procd|sdf|6441|dock8
  -GOLD-   22720 7 93D 1   1.00000     0.00000
 Structure written by MMmdl.
 35 36  0  0  0  0  0  0  0  0  2 V2000
  149.3149  140.4514  157.2150 C   0  0  0  0  0  0  0  0  0  0  0  0
  150.7100  141.0069  157.5415 C   0  0  2  0  0  0  0  0  0  0  0  0
  150.9744  142.3999  156.9033 C   0  0  0  0  0  0  0  0  0  0  0  0
  151.5689  143.3966  157.7926 N   0  0  0  0  0  0  0  0  0  0  0  0
  151.3877  144.7667  157.8007 C   0  0  0  0  0  0  0  0  0  0  0  0
  152.1323  145.2745  158.8265 C   0  0  0  0  0  0  0  0  0  0  0  0
  152.7304  144.1238  159.4108 C   0  0  0  0  0  0  0  0  0  0  0  0
  152.3826  143.0032  158.8013 N   0  0  0  0  0  0  0  0  0  0  0  0
  151.7105  140.0419  157.1076 N   0  5  0  0  0  0  0  0  0  0  0  0
  151.7650  139.5629  155.5592 S   0  0  0  0  0  0  0  0  0  0  0  0
  150.6739  140.0889  154.7224 O   0  0  0  0  0  0  0  0  0  0  0  0
  153.1288  139.5946  155.0062 O   0  0  0  0  0  0  0  0  0  0  0  0
  151.3797  137.8919  155.8340 N   0  0  0  0  0  0  0  0  0  0  0  0
  152.2429  137.1592  156.7759 C   0  0  0  0  0  0  0  0  0  0  0  0
  151.6636  135.7728  157.1011 C   0  0  0  0  0  0  0  0  0  0  0  0
  151.4236  135.0468  155.9059 O   0  0  0  0  0  0  0  0  0  0  0  0
  150.4623  135.7006  155.0924 C   0  0  0  0  0  0  0  0  0  0  0  0
  150.9823  137.0816  154.6639 C   0  0  0  0  0  0  0  0  0  0  0  0
  148.5370  141.1585  157.5033 H   0  0  0  0  0  0  0  0  0  0  0  0
  149.1279  139.5219  157.7540 H   0  0  0  0  0  0  0  0  0  0  0  0
  149.1985  140.2424  156.1511 H   0  0  0  0  0  0  0  0  0  0  0  0
  150.7479  141.1370  158.6237 H   0  0  0  0  0  0  0  0  0  0  0  0
  151.6470  142.2785  156.0536 H   0  0  0  0  0  0  0  0  0  0  0  0
  150.0541  142.8102  156.4865 H   0  0  0  0  0  0  0  0  0  0  0  0
  150.7551  145.2599  157.0775 H   0  0  0  0  0  0  0  0  0  0  0  0
  152.2320  146.3093  159.1172 H   0  0  0  0  0  0  0  0  0  0  0  0
  153.3982  144.0684  160.2578 H   0  0  0  0  0  0  0  0  0  0  0  0
  153.2362  137.0593  156.3368 H   0  0  0  0  0  0  0  0  0  0  0  0
  152.3554  137.7306  157.6971 H   0  0  0  0  0  0  0  0  0  0  0  0
  152.3650  135.2119  157.7188 H   0  0  0  0  0  0  0  0  0  0  0  0
  150.7407  135.8647  157.6762 H   0  0  0  0  0  0  0  0  0  0  0  0
  150.2686  135.0867  154.2127 H   0  0  0  0  0  0  0  0  0  0  0  0
  149.5156  135.7928  155.6273 H   0  0  0  0  0  0  0  0  0  0  0  0
  150.2124  137.5926  154.0873 H   0  0  0  0  0  0  0  0  0  0  0  0
  151.8446  136.9674  154.0063 H   0  0  0  0  0  0  0  0  0  0  0  0
  1  2  1  0  0  0  0
  1 19  1  0  0  0  0
  1 20  1  0  0  0  0
  1 21  1  0  0  0  0
  2  3  1  0  0  0  0
  2  9  1  0  0  0  0
  2 22  1  0  0  0  0
  3  4  1  0  0  0  0
  3 23  1  0  0  0  0
  3 24  1  0  0  0  0
  4  8  1  0  0  0  0
  4  5  1  0  0  0  0
  5  6  2  0  0  0  0
  5 25  1  0  0  0  0
  6  7  1  0  0  0  0
  6 26  1  0  0  0  0
  7  8  2  0  0  0  0
  7 27  1  0  0  0  0
  9 10  1  0  0  0  0
 10 11  2  0  0  0  0
 10 12  2  0  0  0  0
 10 13  1  0  0  0  0
 13 18  1  0  0  0  0
 13 14  1  0  0  0  0
 14 15  1  0  0  0  0
 14 28  1  0  0  0  0
 14 29  1  0  0  0  0
 15 16  1  0  0  0  0
 15 30  1  0  0  0  0
 15 31  1  0  0  0  0
 16 17  1  0  0  0  0
 17 18  1  0  0  0  0
 17 32  1  0  0  0  0
 17 33  1  0  0  0  0
 18 34  1  0  0  0  0
 18 35  1  0  0  0  0
M  CHG  1   9  -1
M  END
> <s_m_source_file>
AV-unprocessed.smi

> <i_m_source_file_index>
1602

> <i_lp_mmshare_version>
43012

> <i_f3d_flags>
0

> <s_epik_input>
bjFbY0hdW2NIXVtjSF1uMVtDSDJdW0NAQEhdKFtDSDNdKVtOSF1TKD1PKSg9TylOMltDSDJdW0NIMl1PW0NIMl1bQ0gyXTI=

> <s_epik_cmdline>
J2VwaWtfcHl0aG9uJywgJy1waCcsICc3LjAnLCAnLXRuJywgJzgnLCAnLW1hJywgJzIwMCcsICctbWV0YWxfYmluZGluZycsICctaW1hZScsICc8aW5maWxlLm1hZT4nLCAnLW9tYWUnLCAnPG91dGZpbGUubWFlPic=

> <r_lp_tautomer_probability>
1

> <r_epik_Ionization_Penalty>
1.03144

> <r_epik_Ionization_Penalty_Charging>
1.03142

> <r_epik_Ionization_Penalty_Neutral>
2.21579e-05

> <r_epik_State_Penalty>
1.0826

> <r_epik_Charging_Adjusted_Penalty>
2.11402

> <i_epik_Tot_Q>
-1

> <i_epik_Tot_abs_Q>
1

> <r_epik_Metal_State_Penalty>
0.386234

> <b_epik_Metal_Only>
0

> <s_lp_Force_Field>
OPLS_2005

> <r_lp_Energy>
6.71123

> <b_lp_Chiralities_Consistent>
1

> <s_lp_Variant>
AV-unprocessed.smi:1602-3

> <Gold.Version>
5.8.1

> <Gold.Id.Protein>
6NUR|6NUR_protein|mol2

> <Gold.PLP.Fitness>
43.8924

> <Gold.PLP.PLP>
-34.2417

> <Gold.PLP.part.hbond>
-3.7914

> <Gold.PLP.part.metal>
0.0000

> <Gold.PLP.part.buried>
-5.1120

> <Gold.PLP.part.nonpolar>
-26.1427

> <Gold.PLP.part.repulsive>
0.1548

> <Gold.PLP.ligand.clash>
0.0000

> <Gold.PLP.ligand.torsion>
1.8709

> <Gold.PLP.Chemscore.Hbond>
2.9600

> <Gold.PLP.Chemscore.CHOScore>
0.9952

> <Gold.PLP.Chemscore.Metal>
0.0000

> <Gold.Chemscore.Hbonds>
donor molecule, donor type, donor heavy atom, donor atom, acceptor molecule, acceptor atom, score
      P1  H  7989  7998       L1    11  0.95
      P1  H  7997  8010       L1    12  1.00
      P1  H 10752 10764       L1    16  0.78
      L1  C     5    25       P1  8028  1.00

> <Gold.PLP.Chemscore.Internal.Correction>
1.5270

> <Gold.Rescore>
     Score         DG    S(hbond)    S(metal)    S(lipo)     H(rot)  DE(clash)    DE(int)     intcor
     13.94     -16.77       1.94        0.00      77.50       1.67       0.05       2.78       ----

> <Gold.Chemscore.Fitness>
13.9398

> <Gold.Chemscore.DG>
-16.7683

> <Gold.Chemscore.ZeroCoef>
-5.4800

> <Gold.Chemscore.Hbond>
1.9441

> <Gold.Chemscore.Metal>
0.0000

> <Gold.Chemscore.Lipo>
77.4967

> <Gold.Chemscore.Internal_Hbond>
0.0000

> <Gold.Chemscore.DEClash>
0.0528

> <Gold.Chemscore.DEInternal>
2.7757

> <Gold.Chemscore.Rot>
1.6688

> <Gold.Chemscore.Internal.Correction>
   9.000000E+99

> <Gold.Chemscore.Hbonds>
donor molecule, donor type, donor heavy atom, donor atom, acceptor molecule, acceptor atom, score
      P1  H  7989  7998       L1    11  0.22
      P1  H  7997  8010       L1    12  0.96
      P1  H 10752 10764       L1    16  0.04

> <Gold.Chemscore.Hbond.Weighted>
-6.4934

> <Gold.Chemscore.Metal.Weighted>
-0.0000

> <Gold.Chemscore.Lipo.Weighted>
-9.0671

> <Gold.Chemscore.Internal_Hbond.Weighted>
0.0000

> <Gold.Chemscore.DEClash.Weighted>
0.0528

> <Gold.Chemscore.DEInternal.Weighted>
2.7757

> <Gold.Chemscore.Rot.Weighted>
4.2722

> <Gold.Chemscore.Internal.Correction.Weighted>
   9.000000E+99

> <Gold.Protein.RotatedTorsions>
[ 6907 6896 6895 6894 ] final  -41.62 input  -60.11 | X-H torsion
[ 7974 7965 7964 7962 ] final   39.73 input  175.53 | X-H torsion
[ 8008 7997 7996 7995 ] final   95.31 input   59.86 | X-H torsion
[ 10167 10162 10161 10158 ] final -106.30 input  -65.29 | X-H torsion
[ 10718 10713 10712 10709 ] final  160.23 input   66.30 | X-H torsion
[ 10763 10752 10751 10750 ] final  -46.69 input  -60.55 | X-H torsion
[ 11005 11000 10999 10996 ] final  135.45 input  -57.11 | X-H torsion

> <Gold.Protein.ActiveResidues>
 VAL166  LYS551  ARG553  GLY616  TRP617  ASP618  TYR619  PRO620  LYS621  CYS622 
 ASP623  PHE694  ASN695  SER759  ASP760  ASP761  ALA762  ILE779  LEU786  VAL792 
 PHE793  MET794  SER795  GLU796  ALA797  LYS798  CYS799  TRP800  GLU811  SER814 

> <Gold.Protein.RotatedAtoms>
  150.9646  134.9029  159.7750 H   0  0  0  0  0  0  0  0  0  0  0  0  # atno 6907 bound_to 6896
  152.5168  134.3625  159.9300 H   0  0  0  0  0  0  0  0  0  0  0  0  # atno 6908 bound_to 6896
  151.3636  133.3840  159.2727 H   0  0  0  0  0  0  0  0  0  0  0  0  # atno 6909 bound_to 6896
  146.0961  139.5617  142.9444 H   0  0  0  0  0  0  0  0  0  0  0  0  # atno 7974 bound_to 7965
  156.0675  140.3288  155.7535 H   0  0  0  0  0  0  0  0  0  0  0  0  # atno 8008 bound_to 7997
  155.5358  140.0597  157.2897 H   0  0  0  0  0  0  0  0  0  0  0  0  # atno 8009 bound_to 7997
  154.4513  140.1919  156.0530 H   0  0  0  0  0  0  0  0  0  0  0  0  # atno 8010 bound_to 7997
  140.1892  143.3905  152.1220 H   0  0  0  0  0  0  0  0  0  0  0  0  # atno 10167 bound_to 10162
  157.1532  131.0569  151.2269 H   0  0  0  0  0  0  0  0  0  0  0  0  # atno 10718 bound_to 10713
  154.0491  135.6633  153.4798 H   0  0  0  0  0  0  0  0  0  0  0  0  # atno 10763 bound_to 10752
  153.0471  135.5108  154.7768 H   0  0  0  0  0  0  0  0  0  0  0  0  # atno 10764 bound_to 10752
  154.6769  135.3038  154.9633 H   0  0  0  0  0  0  0  0  0  0  0  0  # atno 10765 bound_to 10752
  139.9980  134.9489  157.0009 H   0  0  0  0  0  0  0  0  0  0  0  0  # atno 11005 bound_to 11000
  145.5945  141.0364  143.2052 LP  0  0  0  0  0  0  0  0  0  0  0  0  # atno 17320 bound_to 7965
  144.7397  139.7485  143.7316 LP  0  0  0  0  0  0  0  0  0  0  0  0  # atno 17321 bound_to 7965
  139.5263  144.7106  151.5218 LP  0  0  0  0  0  0  0  0  0  0  0  0  # atno 17342 bound_to 10162
  140.6467  143.8780  150.6744 LP  0  0  0  0  0  0  0  0  0  0  0  0  # atno 17343 bound_to 10162
  157.4201  130.7433  149.6906 LP  0  0  0  0  0  0  0  0  0  0  0  0  # atno 17370 bound_to 10713
  155.9767  130.4072  150.3763 LP  0  0  0  0  0  0  0  0  0  0  0  0  # atno 17371 bound_to 10713
  140.4781  134.1318  155.7212 LP  0  0  0  0  0  0  0  0  0  0  0  0  # atno 17394 bound_to 11000
  141.1620  133.8775  157.1821 LP  0  0  0  0  0  0  0  0  0  0  0  0  # atno 17395 bound_to 11000

$$$$
