AV-unprocessed.smi:2704|AV-procd|sdf|10442|dock10
  -GOLD-   2272014483D 1   1.00000     0.00000
 Structure written by MMmdl.
 43 44  0  0  0  0  0  0  0  0  1 V2000
  147.3803  137.3034  163.4356 C   0  0  0  0  0  0  0  0  0  0  0  0
  146.6464  136.5152  162.3405 C   0  0  0  0  0  0  0  0  0  0  0  0
  146.2005  135.1212  162.8047 C   0  0  0  0  0  0  0  0  0  0  0  0
  147.4441  136.4548  161.0733 C   0  0  0  0  0  0  0  0  0  0  0  0
  147.6521  135.3025  160.4465 N   0  0  0  0  0  0  0  0  0  0  0  0
  148.4031  135.6738  159.3224 O   0  0  0  0  0  0  0  0  0  0  0  0
  148.5456  137.0182  159.4007 C   0  0  0  0  0  0  0  0  0  0  0  0
  149.3457  137.7190  158.3504 C   0  0  0  0  0  0  0  0  0  0  0  0
  150.7163  138.2275  158.8349 C   0  0  0  0  0  0  0  0  0  0  0  0
  150.7746  139.6837  158.9281 N   0  0  0  0  0  0  0  0  0  0  0  0
  151.7181  140.4709  158.3815 C   0  0  0  0  0  0  0  0  0  0  0  0
  152.6562  140.0157  157.7257 O   0  0  0  0  0  0  0  0  0  0  0  0
  151.6128  141.9970  158.6067 C   0  0  0  0  0  0  0  0  0  0  0  0
  150.4441  142.3081  159.3524 O   0  0  0  0  0  0  0  0  0  0  0  0
  152.8434  142.4896  159.4076 C   0  0  0  0  0  0  0  0  0  0  0  0
  152.9046  144.0226  159.5327 C   0  0  0  0  0  0  0  0  0  0  0  0
  152.8435  144.6981  158.1556 C   0  0  0  0  0  0  0  0  0  0  0  0
  151.5902  144.2618  157.3836 C   0  0  0  0  0  0  0  0  0  0  0  0
  151.5246  142.7299  157.2437 C   0  0  0  0  0  0  0  0  0  0  0  0
  147.9825  137.5573  160.4797 N   0  0  0  0  0  0  0  0  0  0  0  0
  147.6123  138.3150  163.1009 H   0  0  0  0  0  0  0  0  0  0  0  0
  148.3181  136.8206  163.7129 H   0  0  0  0  0  0  0  0  0  0  0  0
  146.7707  137.3853  164.3356 H   0  0  0  0  0  0  0  0  0  0  0  0
  145.7330  137.0711  162.1220 H   0  0  0  0  0  0  0  0  0  0  0  0
  145.6207  134.6174  162.0309 H   0  0  0  0  0  0  0  0  0  0  0  0
  145.5752  135.1856  163.6954 H   0  0  0  0  0  0  0  0  0  0  0  0
  147.0569  134.4915  163.0469 H   0  0  0  0  0  0  0  0  0  0  0  0
  149.4864  137.0334  157.5143 H   0  0  0  0  0  0  0  0  0  0  0  0
  148.7577  138.5536  157.9665 H   0  0  0  0  0  0  0  0  0  0  0  0
  150.9705  137.7687  159.7917 H   0  0  0  0  0  0  0  0  0  0  0  0
  151.4871  137.9086  158.1331 H   0  0  0  0  0  0  0  0  0  0  0  0
  150.0414  140.1379  159.4540 H   0  0  0  0  0  0  0  0  0  0  0  0
  150.5101  141.8879  160.1962 H   0  0  0  0  0  0  0  0  0  0  0  0
  152.8451  142.0423  160.4023 H   0  0  0  0  0  0  0  0  0  0  0  0
  153.7605  142.1512  158.9226 H   0  0  0  0  0  0  0  0  0  0  0  0
  152.0810  144.3783  160.1529 H   0  0  0  0  0  0  0  0  0  0  0  0
  153.8213  144.3135  160.0464 H   0  0  0  0  0  0  0  0  0  0  0  0
  152.8504  145.7823  158.2720 H   0  0  0  0  0  0  0  0  0  0  0  0
  153.7351  144.4421  157.5818 H   0  0  0  0  0  0  0  0  0  0  0  0
  150.6988  144.6267  157.8946 H   0  0  0  0  0  0  0  0  0  0  0  0
  151.5856  144.7225  156.3954 H   0  0  0  0  0  0  0  0  0  0  0  0
  152.3444  142.4132  156.5965 H   0  0  0  0  0  0  0  0  0  0  0  0
  150.6069  142.4502  156.7238 H   0  0  0  0  0  0  0  0  0  0  0  0
  1  2  1  0  0  0  0
  1 21  1  0  0  0  0
  1 22  1  0  0  0  0
  1 23  1  0  0  0  0
  2  3  1  0  0  0  0
  2  4  1  0  0  0  0
  2 24  1  0  0  0  0
  3 25  1  0  0  0  0
  3 26  1  0  0  0  0
  3 27  1  0  0  0  0
  4 20  1  0  0  0  0
  4  5  2  0  0  0  0
  5  6  1  0  0  0  0
  6  7  1  0  0  0  0
  7  8  1  0  0  0  0
  7 20  2  0  0  0  0
  8  9  1  0  0  0  0
  8 28  1  0  0  0  0
  8 29  1  0  0  0  0
  9 10  1  0  0  0  0
  9 30  1  0  0  0  0
  9 31  1  0  0  0  0
 10 11  1  0  0  0  0
 10 32  1  0  0  0  0
 11 12  2  0  0  0  0
 11 13  1  0  0  0  0
 13 19  1  0  0  0  0
 13 14  1  0  0  0  0
 13 15  1  0  0  0  0
 14 33  1  0  0  0  0
 15 16  1  0  0  0  0
 15 34  1  0  0  0  0
 15 35  1  0  0  0  0
 16 17  1  0  0  0  0
 16 36  1  0  0  0  0
 16 37  1  0  0  0  0
 17 18  1  0  0  0  0
 17 38  1  0  0  0  0
 17 39  1  0  0  0  0
 18 19  1  0  0  0  0
 18 40  1  0  0  0  0
 18 41  1  0  0  0  0
 19 42  1  0  0  0  0
 19 43  1  0  0  0  0
M  END
> <s_m_source_file>
AV-unprocessed.smi

> <i_m_source_file_index>
2704

> <i_lp_mmshare_version>
43012

> <i_f3d_flags>
0

> <s_epik_input>
W0NIM11bQ0hdKFtDSDNdKWMxbm9jKG4xKVtDSDJdW0NIMl1bTkhdQyg9TylDMihbT0hdKVtDSDJdW0NIMl1bQ0gyXVtDSDJdW0NIMl0y

> <s_epik_cmdline>
J2VwaWtfcHl0aG9uJywgJy1waCcsICc3LjAnLCAnLXRuJywgJzgnLCAnLW1hJywgJzIwMCcsICctbWV0YWxfYmluZGluZycsICctaW1hZScsICc8aW5maWxlLm1hZT4nLCAnLW9tYWUnLCAnPG91dGZpbGUubWFlPic=

> <r_lp_tautomer_probability>
1

> <r_epik_Ionization_Penalty>
7.72761e-08

> <r_epik_Ionization_Penalty_Charging>
0

> <r_epik_Ionization_Penalty_Neutral>
7.72761e-08

> <r_epik_State_Penalty>
-0

> <r_epik_Charging_Adjusted_Penalty>
0

> <i_epik_Tot_Q>
0

> <i_epik_Tot_abs_Q>
0

> <r_epik_Metal_State_Penalty>
-0

> <b_epik_Metal_Only>
0

> <s_lp_Force_Field>
OPLS_2005

> <r_lp_Energy>
5.6077

> <b_lp_Chiralities_Consistent>
1

> <s_lp_Variant>
AV-unprocessed.smi:2704-1

> <Gold.Version>
5.8.1

> <Gold.Id.Protein>
6NUR|6NUR_protein|mol2

> <Gold.PLP.Fitness>
52.8295

> <Gold.PLP.PLP>
-44.6985

> <Gold.PLP.part.hbond>
-5.0000

> <Gold.PLP.part.metal>
0.0000

> <Gold.PLP.part.buried>
-3.2182

> <Gold.PLP.part.nonpolar>
-36.3973

> <Gold.PLP.part.repulsive>
0.1899

> <Gold.PLP.ligand.clash>
0.0000

> <Gold.PLP.ligand.torsion>
0.6026

> <Gold.PLP.Chemscore.Hbond>
3.0792

> <Gold.PLP.Chemscore.CHOScore>
0.0000

> <Gold.PLP.Chemscore.Metal>
0.0000

> <Gold.Chemscore.Hbonds>
donor molecule, donor type, donor heavy atom, donor atom, acceptor molecule, acceptor atom, score
      P1  H  6931  6943       L1    20  0.58
      P1  H  6934  6947       L1    20  0.67
      P1  H  7997  8008       L1    12  1.00

> <Gold.PLP.Chemscore.Internal.Correction>
0.0987

> <Gold.Rescore>
     Score         DG    S(hbond)    S(metal)    S(lipo)     H(rot)  DE(clash)    DE(int)     intcor
     17.20     -19.24       2.29        0.00     106.95       2.50       0.86       1.18       ----

> <Gold.Chemscore.Fitness>
17.1967

> <Gold.Chemscore.DG>
-19.2353

> <Gold.Chemscore.ZeroCoef>
-5.4800

> <Gold.Chemscore.Hbond>
2.2879

> <Gold.Chemscore.Metal>
0.0000

> <Gold.Chemscore.Lipo>
106.9550

> <Gold.Chemscore.Internal_Hbond>
0.0000

> <Gold.Chemscore.DEClash>
0.8589

> <Gold.Chemscore.DEInternal>
1.1797

> <Gold.Chemscore.Rot>
2.5001

> <Gold.Chemscore.Internal.Correction>
   9.000000E+99

> <Gold.Chemscore.Hbonds>
donor molecule, donor type, donor heavy atom, donor atom, acceptor molecule, acceptor atom, score
      P1  H  6931  6943       L1    20  0.20
      P1  H  6934  6947       L1    20  0.60
      P1  H  7997  8008       L1    12  0.93

> <Gold.Chemscore.Hbond.Weighted>
-7.6417

> <Gold.Chemscore.Metal.Weighted>
-0.0000

> <Gold.Chemscore.Lipo.Weighted>
-12.5137

> <Gold.Chemscore.Internal_Hbond.Weighted>
0.0000

> <Gold.Chemscore.DEClash.Weighted>
0.8589

> <Gold.Chemscore.DEInternal.Weighted>
1.1797

> <Gold.Chemscore.Rot.Weighted>
6.4002

> <Gold.Chemscore.Internal.Correction.Weighted>
   9.000000E+99

> <Gold.Protein.RotatedTorsions>
[ 6907 6896 6895 6894 ] final  -62.26 input  -60.11 | X-H torsion
[ 7974 7965 7964 7962 ] final  176.81 input  175.53 | X-H torsion
[ 8008 7997 7996 7995 ] final  -67.40 input   59.86 | X-H torsion
[ 10167 10162 10161 10158 ] final  -20.26 input  -65.29 | X-H torsion
[ 10718 10713 10712 10709 ] final -178.11 input   66.30 | X-H torsion
[ 10763 10752 10751 10750 ] final  114.73 input  -60.55 | X-H torsion
[ 11005 11000 10999 10996 ] final   39.29 input  -57.11 | X-H torsion

> <Gold.Protein.ActiveResidues>
 VAL166  LYS551  ARG553  GLY616  TRP617  ASP618  TYR619  PRO620  LYS621  CYS622 
 ASP623  PHE694  ASN695  SER759  ASP760  ASP761  ALA762  ILE779  LEU786  VAL792 
 PHE793  MET794  SER795  GLU796  ALA797  LYS798  CYS799  TRP800  GLU811  SER814 

> <Gold.Protein.RotatedAtoms>
  150.7728  134.6594  159.6331 H   0  0  0  0  0  0  0  0  0  0  0  0  # atno 6907 bound_to 6896
  152.3786  134.6621  160.0160 H   0  0  0  0  0  0  0  0  0  0  0  0  # atno 6908 bound_to 6896
  151.6958  133.3274  159.3290 H   0  0  0  0  0  0  0  0  0  0  0  0  # atno 6909 bound_to 6896
  144.7178  140.0153  143.6440 H   0  0  0  0  0  0  0  0  0  0  0  0  # atno 7974 bound_to 7965
  154.4798  140.0893  156.7349 H   0  0  0  0  0  0  0  0  0  0  0  0  # atno 8008 bound_to 7997
  155.4501  140.3457  155.4281 H   0  0  0  0  0  0  0  0  0  0  0  0  # atno 8009 bound_to 7997
  156.1173  140.1464  156.9243 H   0  0  0  0  0  0  0  0  0  0  0  0  # atno 8010 bound_to 7997
  140.7275  143.4739  151.0209 H   0  0  0  0  0  0  0  0  0  0  0  0  # atno 10167 bound_to 10162
  156.8394  130.9681  151.3101 H   0  0  0  0  0  0  0  0  0  0  0  0  # atno 10718 bound_to 10713
  153.5116  135.3616  155.2589 H   0  0  0  0  0  0  0  0  0  0  0  0  # atno 10763 bound_to 10752
  154.8741  135.4024  154.3362 H   0  0  0  0  0  0  0  0  0  0  0  0  # atno 10764 bound_to 10752
  153.4016  135.7075  153.6489 H   0  0  0  0  0  0  0  0  0  0  0  0  # atno 10765 bound_to 10752
  140.2042  134.3833  155.8081 H   0  0  0  0  0  0  0  0  0  0  0  0  # atno 11005 bound_to 11000
  146.0225  139.3263  143.0804 LP  0  0  0  0  0  0  0  0  0  0  0  0  # atno 17320 bound_to 7965
  145.8551  140.9507  143.0729 LP  0  0  0  0  0  0  0  0  0  0  0  0  # atno 17321 bound_to 7965
  139.8433  143.7535  152.3180 LP  0  0  0  0  0  0  0  0  0  0  0  0  # atno 17342 bound_to 10162
  139.7691  144.7482  151.0250 LP  0  0  0  0  0  0  0  0  0  0  0  0  # atno 17343 bound_to 10162
  157.6364  130.8770  149.9366 LP  0  0  0  0  0  0  0  0  0  0  0  0  # atno 17370 bound_to 10713
  156.0889  130.3665  150.0433 LP  0  0  0  0  0  0  0  0  0  0  0  0  # atno 17371 bound_to 10713
  141.2227  133.7109  156.8309 LP  0  0  0  0  0  0  0  0  0  0  0  0  # atno 17394 bound_to 11000
  140.2021  134.8889  157.3180 LP  0  0  0  0  0  0  0  0  0  0  0  0  # atno 17395 bound_to 11000

$$$$
