AV-unprocessed.smi:305|AV-procd|sdf|2281|dock7
  -GOLD-   2262022183D 1   1.00000     0.00000
 Structure written by MMmdl.
 46 48  0  0  0  0  0  0  0  0  2 V2000
  153.1172  129.6731  155.1204 C   0  0  0  0  0  0  0  0  0  0  0  0
  151.7979  128.9003  155.0581 C   0  0  0  0  0  0  0  0  0  0  0  0
  150.7252  129.8252  155.0070 O   0  0  0  0  0  0  0  0  0  0  0  0
  149.4573  129.1930  155.0552 C   0  0  0  0  0  0  0  0  0  0  0  0
  148.4026  130.2288  155.4650 C   0  0  0  0  0  0  0  0  0  0  0  0
  148.8003  131.5826  155.0938 N   0  0  0  0  0  0  0  0  0  0  0  0
  148.3301  132.3309  154.0635 C   0  0  0  0  0  0  0  0  0  0  0  0
  147.3437  131.8353  153.1847 N   0  0  0  0  0  0  0  0  0  0  0  0
  147.1832  130.5050  153.0288 N   0  0  0  0  0  0  0  0  0  0  0  0
  146.2009  130.3812  152.1529 C   0  0  0  0  0  0  0  0  0  0  0  0
  145.7467  129.0073  151.7519 C   0  0  0  0  0  0  0  0  0  0  0  0
  145.7102  131.6421  151.7045 C   0  0  0  0  0  0  0  0  0  0  0  0
  144.6109  131.8970  150.7104 C   0  0  0  0  0  0  0  0  0  0  0  0
  146.4674  132.5525  152.3916 C   0  0  0  0  0  0  0  0  0  0  0  0
  146.4418  134.0475  152.3772 C   0  0  0  0  0  0  0  0  0  0  0  0
  148.8573  133.5529  153.9670 N   0  0  0  0  0  0  0  0  0  0  0  0
  149.7559  133.5791  155.0245 C   0  0  0  0  0  0  0  0  0  0  0  0
  149.7414  132.4068  155.7152 C   0  0  0  0  0  0  0  0  0  0  0  0
  150.5911  132.1321  156.8934 C   0  0  0  0  0  0  0  0  0  0  0  0
  150.5381  131.0502  157.4747 O   0  0  0  0  0  0  0  0  0  0  0  0
  151.3926  133.1980  157.2108 N   0  5  0  0  0  0  0  0  0  0  0  0
  151.4412  134.4028  156.5422 C   0  0  0  0  0  0  0  0  0  0  0  0
  152.1948  135.3114  156.8940 O   0  0  0  0  0  0  0  0  0  0  0  0
  150.6351  134.6110  155.4535 N   0  0  0  0  0  0  0  0  0  0  0  0
  150.6682  135.8804  154.7220 C   0  0  0  0  0  0  0  0  0  0  0  0
  153.9663  128.9909  155.1641 H   0  0  0  0  0  0  0  0  0  0  0  0
  153.1551  130.3123  156.0026 H   0  0  0  0  0  0  0  0  0  0  0  0
  153.2411  130.3060  154.2414 H   0  0  0  0  0  0  0  0  0  0  0  0
  151.7841  128.2585  154.1759 H   0  0  0  0  0  0  0  0  0  0  0  0
  151.7010  128.2595  155.9357 H   0  0  0  0  0  0  0  0  0  0  0  0
  149.2139  128.7676  154.0807 H   0  0  0  0  0  0  0  0  0  0  0  0
  149.4793  128.3723  155.7732 H   0  0  0  0  0  0  0  0  0  0  0  0
  147.4463  129.9926  154.9978 H   0  0  0  0  0  0  0  0  0  0  0  0
  148.2196  130.1908  156.5383 H   0  0  0  0  0  0  0  0  0  0  0  0
  144.6731  128.9872  151.5638 H   0  0  0  0  0  0  0  0  0  0  0  0
  145.9567  128.2726  152.5301 H   0  0  0  0  0  0  0  0  0  0  0  0
  146.2501  128.6818  150.8416 H   0  0  0  0  0  0  0  0  0  0  0  0
  144.7961  132.7947  150.1206 H   0  0  0  0  0  0  0  0  0  0  0  0
  143.6474  132.0274  151.2036 H   0  0  0  0  0  0  0  0  0  0  0  0
  144.5019  131.0730  150.0052 H   0  0  0  0  0  0  0  0  0  0  0  0
  145.5470  134.4220  151.8804 H   0  0  0  0  0  0  0  0  0  0  0  0
  147.3103  134.4431  151.8506 H   0  0  0  0  0  0  0  0  0  0  0  0
  146.4492  134.4476  153.3915 H   0  0  0  0  0  0  0  0  0  0  0  0
  151.6620  136.0544  154.3067 H   0  0  0  0  0  0  0  0  0  0  0  0
  150.4249  136.7115  155.3856 H   0  0  0  0  0  0  0  0  0  0  0  0
  149.9596  135.9081  153.8945 H   0  0  0  0  0  0  0  0  0  0  0  0
  1  2  1  0  0  0  0
  1 26  1  0  0  0  0
  1 27  1  0  0  0  0
  1 28  1  0  0  0  0
  2  3  1  0  0  0  0
  2 29  1  0  0  0  0
  2 30  1  0  0  0  0
  3  4  1  0  0  0  0
  4  5  1  0  0  0  0
  4 31  1  0  0  0  0
  4 32  1  0  0  0  0
  5  6  1  0  0  0  0
  5 33  1  0  0  0  0
  5 34  1  0  0  0  0
  6 18  1  0  0  0  0
  6  7  1  0  0  0  0
  7  8  1  0  0  0  0
  7 16  2  0  0  0  0
  8 14  1  0  0  0  0
  8  9  1  0  0  0  0
  9 10  2  0  0  0  0
 10 11  1  0  0  0  0
 10 12  1  0  0  0  0
 11 35  1  0  0  0  0
 11 36  1  0  0  0  0
 11 37  1  0  0  0  0
 12 13  1  0  0  0  0
 12 14  2  0  0  0  0
 13 38  1  0  0  0  0
 13 39  1  0  0  0  0
 13 40  1  0  0  0  0
 14 15  1  0  0  0  0
 15 41  1  0  0  0  0
 15 42  1  0  0  0  0
 15 43  1  0  0  0  0
 16 17  1  0  0  0  0
 17 24  1  0  0  0  0
 17 18  2  0  0  0  0
 18 19  1  0  0  0  0
 19 20  2  0  0  0  0
 19 21  1  0  0  0  0
 21 22  1  0  0  0  0
 22 23  2  0  0  0  0
 22 24  1  0  0  0  0
 24 25  1  0  0  0  0
 25 44  1  0  0  0  0
 25 45  1  0  0  0  0
 25 46  1  0  0  0  0
M  CHG  1  21  -1
M  END
> <s_m_source_file>
AV-unprocessed.smi

> <i_m_source_file_index>
305

> <i_lp_mmshare_version>
43012

> <i_f3d_flags>
0

> <s_epik_input>
W0NIM11uMWMoPU8pW25IXWMoPU8pYyhjMTIpbihbQ0gyXVtDSDJdT1tDSDJdW0NIM10pYyhuMiktbjNuYyhbQ0gzXSljKFtDSDNdKWMzW0NIM10=

> <s_epik_cmdline>
J2VwaWtfcHl0aG9uJywgJy1waCcsICc3LjAnLCAnLXRuJywgJzgnLCAnLW1hJywgJzIwMCcsICctbWV0YWxfYmluZGluZycsICctaW1hZScsICc8aW5maWxlLm1hZT4nLCAnLW9tYWUnLCAnPG91dGZpbGUubWFlPic=

> <r_lp_tautomer_probability>
1

> <r_epik_Ionization_Penalty>
4

> <r_epik_Ionization_Penalty_Charging>
0.0169474

> <r_epik_Ionization_Penalty_Neutral>
3.98305

> <r_epik_State_Penalty>
3.98062

> <r_epik_Charging_Adjusted_Penalty>
3.99756

> <i_epik_Tot_Q>
-1

> <i_epik_Tot_abs_Q>
1

> <r_epik_Metal_State_Penalty>
0.616488

> <b_epik_Metal_Only>
1

> <s_lp_Force_Field>
OPLS_2005

> <r_lp_Energy>
29.8012

> <b_lp_Chiralities_Consistent>
1

> <s_lp_Variant>
AV-unprocessed.smi:305-2

> <Gold.Version>
5.8.1

> <Gold.Id.Protein>
6NUR|6NUR_protein|mol2

> <Gold.PLP.Fitness>
44.0524

> <Gold.PLP.PLP>
-39.2211

> <Gold.PLP.part.hbond>
-2.0000

> <Gold.PLP.part.metal>
0.0000

> <Gold.PLP.part.buried>
-5.3050

> <Gold.PLP.part.nonpolar>
-32.5775

> <Gold.PLP.part.repulsive>
0.3283

> <Gold.PLP.ligand.clash>
0.4265

> <Gold.PLP.ligand.torsion>
0.7392

> <Gold.PLP.Chemscore.Hbond>
2.0542

> <Gold.PLP.Chemscore.CHOScore>
0.0000

> <Gold.PLP.Chemscore.Metal>
0.0000

> <Gold.Chemscore.Hbonds>
donor molecule, donor type, donor heavy atom, donor atom, acceptor molecule, acceptor atom, score
      P1  H  6896  6907       L1    21  1.41
      P1  H 10752 10765       L1    23  0.71

> <Gold.PLP.Chemscore.Internal.Correction>
0.5737

> <Gold.Rescore>
     Score         DG    S(hbond)    S(metal)    S(lipo)     H(rot)  DE(clash)    DE(int)     intcor
      7.87     -12.47       0.57        0.00      78.86       1.62       0.03       4.57       ----

> <Gold.Chemscore.Fitness>
7.8711

> <Gold.Chemscore.DG>
-12.4729

> <Gold.Chemscore.ZeroCoef>
-5.4800

> <Gold.Chemscore.Hbond>
0.5733

> <Gold.Chemscore.Metal>
0.0000

> <Gold.Chemscore.Lipo>
78.8560

> <Gold.Chemscore.Internal_Hbond>
0.0000

> <Gold.Chemscore.DEClash>
0.0291

> <Gold.Chemscore.DEInternal>
4.5726

> <Gold.Chemscore.Rot>
1.6204

> <Gold.Chemscore.Internal.Correction>
   9.000000E+99

> <Gold.Chemscore.Hbonds>
donor molecule, donor type, donor heavy atom, donor atom, acceptor molecule, acceptor atom, score
      P1  H  6896  6907       L1    21  0.43
      P1  H 10752 10765       L1    23  0.08

> <Gold.Chemscore.Hbond.Weighted>
-1.9149

> <Gold.Chemscore.Metal.Weighted>
-0.0000

> <Gold.Chemscore.Lipo.Weighted>
-9.2262

> <Gold.Chemscore.Internal_Hbond.Weighted>
0.0000

> <Gold.Chemscore.DEClash.Weighted>
0.0291

> <Gold.Chemscore.DEInternal.Weighted>
4.5726

> <Gold.Chemscore.Rot.Weighted>
4.1481

> <Gold.Chemscore.Internal.Correction.Weighted>
   9.000000E+99

> <Gold.Protein.RotatedTorsions>
[ 6907 6896 6895 6894 ] final -172.54 input  -60.11 | X-H torsion
[ 7974 7965 7964 7962 ] final -146.84 input  175.53 | X-H torsion
[ 8008 7997 7996 7995 ] final    1.22 input   59.86 | X-H torsion
[ 10167 10162 10161 10158 ] final  158.10 input  -65.29 | X-H torsion
[ 10718 10713 10712 10709 ] final  -83.96 input   66.30 | X-H torsion
[ 10763 10752 10751 10750 ] final -148.11 input  -60.55 | X-H torsion
[ 11005 11000 10999 10996 ] final  125.14 input  -57.11 | X-H torsion

> <Gold.Protein.ActiveResidues>
 VAL166  LYS551  ARG553  GLY616  TRP617  ASP618  TYR619  PRO620  LYS621  CYS622 
 ASP623  PHE694  ASN695  SER759  ASP760  ASP761  ALA762  ILE779  LEU786  VAL792 
 PHE793  MET794  SER795  GLU796  ALA797  LYS798  CYS799  TRP800  GLU811  SER814 

> <Gold.Protein.RotatedAtoms>
  151.5417  133.3431  159.2936 H   0  0  0  0  0  0  0  0  0  0  0  0  # atno 6907 bound_to 6896
  150.8531  134.7865  159.7036 H   0  0  0  0  0  0  0  0  0  0  0  0  # atno 6908 bound_to 6896
  152.4572  134.5273  159.9852 H   0  0  0  0  0  0  0  0  0  0  0  0  # atno 6909 bound_to 6896
  144.8133  140.5405  143.5628 H   0  0  0  0  0  0  0  0  0  0  0  0  # atno 7974 bound_to 7965
  154.6772  140.2625  155.6945 H   0  0  0  0  0  0  0  0  0  0  0  0  # atno 8008 bound_to 7997
  156.2683  140.2817  156.1226 H   0  0  0  0  0  0  0  0  0  0  0  0  # atno 8009 bound_to 7997
  155.1083  140.0375  157.2707 H   0  0  0  0  0  0  0  0  0  0  0  0  # atno 8010 bound_to 7997
  139.4825  144.4856  151.8382 H   0  0  0  0  0  0  0  0  0  0  0  0  # atno 10167 bound_to 10162
  156.0012  130.4682  150.4337 H   0  0  0  0  0  0  0  0  0  0  0  0  # atno 10718 bound_to 10713
  154.8250  135.3343  154.6922 H   0  0  0  0  0  0  0  0  0  0  0  0  # atno 10763 bound_to 10752
  153.7550  135.6936  153.4942 H   0  0  0  0  0  0  0  0  0  0  0  0  # atno 10764 bound_to 10752
  153.2150  135.4469  155.0374 H   0  0  0  0  0  0  0  0  0  0  0  0  # atno 10765 bound_to 10752
  139.9392  134.9637  156.8514 H   0  0  0  0  0  0  0  0  0  0  0  0  # atno 11005 bound_to 11000
  145.5273  139.1475  143.3519 LP  0  0  0  0  0  0  0  0  0  0  0  0  # atno 17320 bound_to 7965
  146.2434  140.5414  142.8924 LP  0  0  0  0  0  0  0  0  0  0  0  0  # atno 17321 bound_to 7965
  140.4336  144.2082  150.5888 LP  0  0  0  0  0  0  0  0  0  0  0  0  # atno 17342 bound_to 10162
  140.4754  143.2398  151.9030 LP  0  0  0  0  0  0  0  0  0  0  0  0  # atno 17343 bound_to 10162
  157.2383  131.0520  151.2451 LP  0  0  0  0  0  0  0  0  0  0  0  0  # atno 17370 bound_to 10713
  157.3644  130.7148  149.6523 LP  0  0  0  0  0  0  0  0  0  0  0  0  # atno 17371 bound_to 10713
  140.5995  134.0185  155.7531 LP  0  0  0  0  0  0  0  0  0  0  0  0  # atno 17394 bound_to 11000
  141.1019  133.9754  157.3063 LP  0  0  0  0  0  0  0  0  0  0  0  0  # atno 17395 bound_to 11000

$$$$
