AV-unprocessed.smi:244|AV-procd|sdf|1873|dock3
  -GOLD-   2262020513D 1   1.00000     0.00000
 Structure written by MMmdl.
 56 60  0  0  0  0  0  0  0  0  1 V2000
  148.5077  131.6569  154.2318 C   0  0  0  0  0  0  0  0  0  0  0  0
  147.2860  131.8971  153.4777 N   0  0  0  0  0  0  0  0  0  0  0  0
  146.9172  130.6845  152.7482 C   0  0  0  0  0  0  0  0  0  0  0  0
  145.5762  130.8990  152.0302 C   0  0  0  0  0  0  0  0  0  0  0  0
  145.6763  132.0806  151.0480 C   0  0  1  0  0  0  0  0  0  0  0  0
  144.4485  132.3436  150.3644 O   0  0  0  0  0  0  0  0  0  0  0  0
  143.4278  132.9192  151.1757 C   0  0  0  0  0  0  0  0  0  0  0  0
  143.9368  134.2207  151.8100 C   0  0  0  0  0  0  0  0  0  0  0  0
  145.1564  133.9662  152.5655 N   0  0  0  0  0  0  0  0  0  0  0  0
  145.5311  135.0334  153.3034 C   0  0  0  0  0  0  0  0  0  0  0  0
  145.6055  134.8585  154.6454 N   0  0  0  0  0  0  0  0  0  0  0  0
  145.9864  135.8710  155.4298 C   0  0  0  0  0  0  0  0  0  0  0  0
  146.3243  137.1150  155.0829 N   0  0  0  0  0  0  0  0  0  0  0  0
  146.2423  137.2937  153.7330 C   0  0  0  0  0  0  0  0  0  0  0  0
  145.8586  136.3137  152.7754 C   0  0  0  0  0  0  0  0  0  0  0  0
  145.8954  136.8585  151.4975 N   0  0  0  0  0  0  0  0  0  0  0  0
  146.2726  138.0933  151.6899 C   0  0  0  0  0  0  0  0  0  0  0  0
  146.4977  138.4410  153.0029 N   0  0  0  0  0  0  0  0  0  0  0  0
  146.9194  139.7416  153.4993 C   0  0  0  0  0  0  0  0  0  0  0  0
  148.1468  139.6837  154.4421 C   0  0  0  0  0  0  0  0  0  0  0  0
  147.6989  139.2182  155.7040 O   0  0  0  0  0  0  0  0  0  0  0  0
  149.2466  138.7278  153.9289 C   0  0  0  0  0  0  0  0  0  0  0  0
  150.5426  138.8369  154.7516 C   0  0  0  0  0  0  0  0  0  0  0  0
  150.9927  140.1858  154.7821 O   0  0  0  0  0  0  0  0  0  0  0  0
  150.0680  141.0598  155.4175 C   0  0  0  0  0  0  0  0  0  0  0  0
  148.7467  141.0915  154.6291 C   0  0  0  0  0  0  0  0  0  0  0  0
  146.2097  133.3468  151.7551 C   0  0  1  0  0  0  0  0  0  0  0  0
  147.4976  133.0142  152.5540 C   0  0  0  0  0  0  0  0  0  0  0  0
  148.3627  130.8451  154.9454 H   0  0  0  0  0  0  0  0  0  0  0  0
  148.7897  132.5466  154.7963 H   0  0  0  0  0  0  0  0  0  0  0  0
  149.3362  131.3912  153.5739 H   0  0  0  0  0  0  0  0  0  0  0  0
  147.6973  130.4196  152.0326 H   0  0  0  0  0  0  0  0  0  0  0  0
  146.8246  129.8517  153.4463 H   0  0  0  0  0  0  0  0  0  0  0  0
  145.2924  129.9936  151.4935 H   0  0  0  0  0  0  0  0  0  0  0  0
  144.8034  131.0718  152.7790 H   0  0  0  0  0  0  0  0  0  0  0  0
  146.3959  131.7997  150.2780 H   0  0  0  0  0  0  0  0  0  0  0  0
  142.5604  133.1258  150.5488 H   0  0  0  0  0  0  0  0  0  0  0  0
  143.0953  132.2173  151.9399 H   0  0  0  0  0  0  0  0  0  0  0  0
  144.1312  134.9584  151.0304 H   0  0  0  0  0  0  0  0  0  0  0  0
  143.1708  134.6385  152.4650 H   0  0  0  0  0  0  0  0  0  0  0  0
  146.0264  135.6528  156.4868 H   0  0  0  0  0  0  0  0  0  0  0  0
  146.3927  138.7924  150.8748 H   0  0  0  0  0  0  0  0  0  0  0  0
  147.1386  140.3758  152.6394 H   0  0  0  0  0  0  0  0  0  0  0  0
  146.0716  140.2040  154.0070 H   0  0  0  0  0  0  0  0  0  0  0  0
  148.4261  139.2399  156.3072 H   0  0  0  0  0  0  0  0  0  0  0  0
  148.8978  137.6944  153.9315 H   0  0  0  0  0  0  0  0  0  0  0  0
  149.4764  138.9710  152.8906 H   0  0  0  0  0  0  0  0  0  0  0  0
  150.3958  138.4671  155.7675 H   0  0  0  0  0  0  0  0  0  0  0  0
  151.3203  138.2193  154.3019 H   0  0  0  0  0  0  0  0  0  0  0  0
  149.9046  140.7472  156.4502 H   0  0  0  0  0  0  0  0  0  0  0  0
  150.5013  142.0595  155.4559 H   0  0  0  0  0  0  0  0  0  0  0  0
  148.9414  141.5331  153.6507 H   0  0  0  0  0  0  0  0  0  0  0  0
  148.0313  141.7503  155.1233 H   0  0  0  0  0  0  0  0  0  0  0  0
  146.4770  134.0657  150.9797 H   0  0  0  0  0  0  0  0  0  0  0  0
  147.8549  133.8880  153.0997 H   0  0  0  0  0  0  0  0  0  0  0  0
  148.2929  132.7493  151.8556 H   0  0  0  0  0  0  0  0  0  0  0  0
  1  2  1  0  0  0  0
  1 29  1  0  0  0  0
  1 30  1  0  0  0  0
  1 31  1  0  0  0  0
  2 28  1  0  0  0  0
  2  3  1  0  0  0  0
  3  4  1  0  0  0  0
  3 32  1  0  0  0  0
  3 33  1  0  0  0  0
  4  5  1  0  0  0  0
  4 34  1  0  0  0  0
  4 35  1  0  0  0  0
  5 27  1  0  0  0  0
  5  6  1  0  0  0  0
  5 36  1  0  0  0  0
  6  7  1  0  0  0  0
  7  8  1  0  0  0  0
  7 37  1  0  0  0  0
  7 38  1  0  0  0  0
  8  9  1  0  0  0  0
  8 39  1  0  0  0  0
  8 40  1  0  0  0  0
  9 10  1  0  0  0  0
  9 27  1  0  0  0  0
 10 15  1  0  0  0  0
 10 11  2  0  0  0  0
 11 12  1  0  0  0  0
 12 13  2  0  0  0  0
 12 41  1  0  0  0  0
 13 14  1  0  0  0  0
 14 18  1  0  0  0  0
 14 15  2  0  0  0  0
 15 16  1  0  0  0  0
 16 17  2  0  0  0  0
 17 18  1  0  0  0  0
 17 42  1  0  0  0  0
 18 19  1  0  0  0  0
 19 20  1  0  0  0  0
 19 43  1  0  0  0  0
 19 44  1  0  0  0  0
 20 26  1  0  0  0  0
 20 21  1  0  0  0  0
 20 22  1  0  0  0  0
 21 45  1  0  0  0  0
 22 23  1  0  0  0  0
 22 46  1  0  0  0  0
 22 47  1  0  0  0  0
 23 24  1  0  0  0  0
 23 48  1  0  0  0  0
 23 49  1  0  0  0  0
 24 25  1  0  0  0  0
 25 26  1  0  0  0  0
 25 50  1  0  0  0  0
 25 51  1  0  0  0  0
 26 52  1  0  0  0  0
 26 53  1  0  0  0  0
 27 28  1  0  0  0  0
 27 54  1  0  0  0  0
 28 55  1  0  0  0  0
 28 56  1  0  0  0  0
M  END
> <s_m_source_file>
AV-unprocessed.smi

> <i_m_source_file_index>
244

> <i_lp_mmshare_version>
43012

> <i_f3d_flags>
0

> <s_epik_input>
W0NIMl0xW0NIMl1OKFtDSDNdKVtDSDJdW0NAQEhdKFtDQEhdMTIpTihbQ0gyXVtDSDJdTzIpYyhuW2NIXW4zKWMoYzM0KW5bY0hdbjRbQ0gyXUM1KFtPSF0pW0NIMl1bQ0gyXU9bQ0gyXVtDSDJdNQ==

> <s_epik_cmdline>
J2VwaWtfcHl0aG9uJywgJy1waCcsICc3LjAnLCAnLXRuJywgJzgnLCAnLW1hJywgJzIwMCcsICctbWV0YWxfYmluZGluZycsICctaW1hZScsICc8aW5maWxlLm1hZT4nLCAnLW9tYWUnLCAnPG91dGZpbGUubWFlPic=

> <r_lp_tautomer_probability>
1

> <r_epik_Ionization_Penalty>
2.27765

> <r_epik_Ionization_Penalty_Charging>
0

> <r_epik_Ionization_Penalty_Neutral>
2.27765

> <r_epik_State_Penalty>
2.4114

> <r_epik_Charging_Adjusted_Penalty>
2.4114

> <i_epik_Tot_Q>
0

> <i_epik_Tot_abs_Q>
0

> <r_epik_Metal_State_Penalty>
2.39769

> <b_epik_Metal_Only>
0

> <s_lp_Force_Field>
OPLS_2005

> <r_lp_Energy>
50.0311

> <b_lp_Chiralities_Consistent>
1

> <s_lp_Variant>
AV-unprocessed.smi:244-10

> <Gold.Version>
5.8.1

> <Gold.Id.Protein>
6NUR|6NUR_protein|mol2

> <Gold.PLP.Fitness>
41.5244

> <Gold.PLP.PLP>
-38.4863

> <Gold.PLP.part.hbond>
-0.9618

> <Gold.PLP.part.metal>
0.0000

> <Gold.PLP.part.buried>
-1.9702

> <Gold.PLP.part.nonpolar>
-36.5567

> <Gold.PLP.part.repulsive>
0.8656

> <Gold.PLP.ligand.clash>
0.0000

> <Gold.PLP.ligand.torsion>
0.3784

> <Gold.PLP.Chemscore.Hbond>
1.0000

> <Gold.PLP.Chemscore.CHOScore>
0.2193

> <Gold.PLP.Chemscore.Metal>
0.0000

> <Gold.Chemscore.Hbonds>
donor molecule, donor type, donor heavy atom, donor atom, acceptor molecule, acceptor atom, score
      P1  H  7989  7998       L1    24  1.00
      L1  C    17    42       P1 10171  0.20

> <Gold.PLP.Chemscore.Internal.Correction>
0.1370

> <Gold.Rescore>
     Score         DG    S(hbond)    S(metal)    S(lipo)     H(rot)  DE(clash)    DE(int)     intcor
     13.30     -13.86       0.88        0.00      91.60       2.06       0.12       0.44       ----

> <Gold.Chemscore.Fitness>
13.3003

> <Gold.Chemscore.DG>
-13.8559

> <Gold.Chemscore.ZeroCoef>
-5.4800

> <Gold.Chemscore.Hbond>
0.8790

> <Gold.Chemscore.Metal>
0.0000

> <Gold.Chemscore.Lipo>
91.5963

> <Gold.Chemscore.Internal_Hbond>
0.0000

> <Gold.Chemscore.DEClash>
0.1185

> <Gold.Chemscore.DEInternal>
0.4372

> <Gold.Chemscore.Rot>
2.0611

> <Gold.Chemscore.Internal.Correction>
   9.000000E+99

> <Gold.Chemscore.Hbonds>
donor molecule, donor type, donor heavy atom, donor atom, acceptor molecule, acceptor atom, score
      P1  H  7989  7998       L1    24  0.75

> <Gold.Chemscore.Hbond.Weighted>
-2.9357

> <Gold.Chemscore.Metal.Weighted>
-0.0000

> <Gold.Chemscore.Lipo.Weighted>
-10.7168

> <Gold.Chemscore.Internal_Hbond.Weighted>
0.0000

> <Gold.Chemscore.DEClash.Weighted>
0.1185

> <Gold.Chemscore.DEInternal.Weighted>
0.4372

> <Gold.Chemscore.Rot.Weighted>
5.2765

> <Gold.Chemscore.Internal.Correction.Weighted>
   9.000000E+99

> <Gold.Protein.RotatedTorsions>
[ 6907 6896 6895 6894 ] final   66.95 input  -60.11 | X-H torsion
[ 7974 7965 7964 7962 ] final -116.66 input  175.53 | X-H torsion
[ 8008 7997 7996 7995 ] final  176.80 input   59.86 | X-H torsion
[ 10167 10162 10161 10158 ] final  -68.55 input  -65.29 | X-H torsion
[ 10718 10713 10712 10709 ] final   10.55 input   66.30 | X-H torsion
[ 10763 10752 10751 10750 ] final  104.36 input  -60.55 | X-H torsion
[ 11005 11000 10999 10996 ] final   84.11 input  -57.11 | X-H torsion

> <Gold.Protein.ActiveResidues>
 VAL166  LYS551  ARG553  GLY616  TRP617  ASP618  TYR619  PRO620  LYS621  CYS622 
 ASP623  PHE694  ASN695  SER759  ASP760  ASP761  ALA762  ILE779  LEU786  VAL792 
 PHE793  MET794  SER795  GLU796  ALA797  LYS798  CYS799  TRP800  GLU811  SER814 

> <Gold.Protein.RotatedAtoms>
  152.4518  134.5378  159.9829 H   0  0  0  0  0  0  0  0  0  0  0  0  # atno 6907 bound_to 6896
  151.5449  133.3421  159.2950 H   0  0  0  0  0  0  0  0  0  0  0  0  # atno 6908 bound_to 6896
  150.8449  134.7786  159.7025 H   0  0  0  0  0  0  0  0  0  0  0  0  # atno 6909 bound_to 6896
  145.0942  140.8510  143.3964 H   0  0  0  0  0  0  0  0  0  0  0  0  # atno 7974 bound_to 7965
  156.0725  140.1374  156.9811 H   0  0  0  0  0  0  0  0  0  0  0  0  # atno 8008 bound_to 7997
  154.4539  140.0969  156.6752 H   0  0  0  0  0  0  0  0  0  0  0  0  # atno 8009 bound_to 7997
  155.5205  140.3456  155.4408 H   0  0  0  0  0  0  0  0  0  0  0  0  # atno 8010 bound_to 7997
  140.5499  143.2312  151.6931 H   0  0  0  0  0  0  0  0  0  0  0  0  # atno 10167 bound_to 10162
  156.9826  130.6011  149.5678 H   0  0  0  0  0  0  0  0  0  0  0  0  # atno 10718 bound_to 10713
  153.3648  135.3946  155.1745 H   0  0  0  0  0  0  0  0  0  0  0  0  # atno 10763 bound_to 10752
  154.8685  135.3688  154.5053 H   0  0  0  0  0  0  0  0  0  0  0  0  # atno 10764 bound_to 10752
  153.5515  135.7083  153.5649 H   0  0  0  0  0  0  0  0  0  0  0  0  # atno 10765 bound_to 10752
  139.9010  134.8193  156.2400 H   0  0  0  0  0  0  0  0  0  0  0  0  # atno 11005 bound_to 11000
  145.1030  139.2809  143.5676 LP  0  0  0  0  0  0  0  0  0  0  0  0  # atno 17320 bound_to 7965
  146.3531  140.0603  142.8630 LP  0  0  0  0  0  0  0  0  0  0  0  0  # atno 17321 bound_to 7965
  139.5023  144.3835  152.0352 LP  0  0  0  0  0  0  0  0  0  0  0  0  # atno 17342 bound_to 10162
  140.2951  144.3710  150.6077 LP  0  0  0  0  0  0  0  0  0  0  0  0  # atno 17343 bound_to 10162
  156.0238  130.5333  150.8350 LP  0  0  0  0  0  0  0  0  0  0  0  0  # atno 17370 bound_to 10713
  157.5515  131.0944  150.9688 LP  0  0  0  0  0  0  0  0  0  0  0  0  # atno 17371 bound_to 10713
  141.0291  133.6999  156.1398 LP  0  0  0  0  0  0  0  0  0  0  0  0  # atno 17394 bound_to 11000
  140.7123  134.4448  157.5581 LP  0  0  0  0  0  0  0  0  0  0  0  0  # atno 17395 bound_to 11000

$$$$
