AV-unprocessed.smi:898|AV-procd|sdf|4085|dock5
  -GOLD-   22720 1573D 1   1.00000     0.00000
 Structure written by MMmdl.
 33 35  0  0  0  0  0  0  0  0  2 V2000
  152.8297  139.8689  156.4729 O   0  0  0  0  0  0  0  0  0  0  0  0
  151.7608  140.3246  156.0598 C   0  0  0  0  0  0  0  0  0  0  0  0
  150.9817  139.7885  155.0928 N   0  5  0  0  0  0  0  0  0  0  0  0
  150.7793  138.4612  155.0529 C   0  0  0  0  0  0  0  0  0  0  0  0
  151.7793  137.5874  154.8704 N   0  0  0  0  0  0  0  0  0  0  0  0
  151.3542  136.2669  154.8636 N   0  0  0  0  0  0  0  0  0  0  0  0
  150.0364  136.1612  155.0492 C   0  0  0  0  0  0  0  0  0  0  0  0
  149.3366  134.8438  155.0781 C   0  0  0  0  0  0  0  0  0  0  0  0
  150.1180  133.5570  155.2127 C   0  0  0  0  0  0  0  0  0  0  0  0
  149.4193  133.8779  153.9162 C   0  0  0  0  0  0  0  0  0  0  0  0
  149.2051  137.6942  155.2582 S   0  0  0  0  0  0  0  0  0  0  0  0
  151.2698  141.4590  156.5795 N   0  0  0  0  0  0  0  0  0  0  0  0
  151.8878  142.2666  157.6283 C   0  0  2  0  0  0  0  0  0  0  0  0
  151.8099  141.5347  158.9847 C   0  0  0  0  0  0  0  0  0  0  0  0
  152.4932  142.3169  160.1178 C   0  0  0  0  0  0  0  0  0  0  0  0
  151.8483  143.6900  160.3518 C   0  0  0  0  0  0  0  0  0  0  0  0
  151.9921  144.7419  158.8821 S   0  0  0  0  0  0  0  0  0  0  0  0
  151.1952  143.6393  157.6812 C   0  0  0  0  0  0  0  0  0  0  0  0
  148.3893  134.9234  155.6076 H   0  0  0  0  0  0  0  0  0  0  0  0
  151.2040  133.6260  155.2289 H   0  0  0  0  0  0  0  0  0  0  0  0
  149.6905  132.7736  155.8351 H   0  0  0  0  0  0  0  0  0  0  0  0
  148.5242  133.3093  153.6733 H   0  0  0  0  0  0  0  0  0  0  0  0
  150.0458  134.1451  153.0674 H   0  0  0  0  0  0  0  0  0  0  0  0
  150.3912  141.7907  156.2092 H   0  0  0  0  0  0  0  0  0  0  0  0
  152.9363  142.4290  157.3712 H   0  0  0  0  0  0  0  0  0  0  0  0
  150.7676  141.3469  159.2460 H   0  0  0  0  0  0  0  0  0  0  0  0
  152.2827  140.5553  158.9020 H   0  0  0  0  0  0  0  0  0  0  0  0
  152.4412  141.7340  161.0377 H   0  0  0  0  0  0  0  0  0  0  0  0
  153.5534  142.4404  159.8940 H   0  0  0  0  0  0  0  0  0  0  0  0
  150.7940  143.5768  160.6065 H   0  0  0  0  0  0  0  0  0  0  0  0
  152.3281  144.1945  161.1906 H   0  0  0  0  0  0  0  0  0  0  0  0
  151.2276  144.1199  156.7029 H   0  0  0  0  0  0  0  0  0  0  0  0
  150.1435  143.5282  157.9480 H   0  0  0  0  0  0  0  0  0  0  0  0
  1  2  2  0  0  0  0
  2  3  1  0  0  0  0
  2 12  1  0  0  0  0
  3  4  1  0  0  0  0
  4 11  1  0  0  0  0
  4  5  2  0  0  0  0
  5  6  1  0  0  0  0
  6  7  2  0  0  0  0
  7  8  1  0  0  0  0
  7 11  1  0  0  0  0
  8 10  1  0  0  0  0
  8  9  1  0  0  0  0
  8 19  1  0  0  0  0
  9 10  1  0  0  0  0
  9 20  1  0  0  0  0
  9 21  1  0  0  0  0
 10 22  1  0  0  0  0
 10 23  1  0  0  0  0
 12 13  1  0  0  0  0
 12 24  1  0  0  0  0
 13 18  1  0  0  0  0
 13 14  1  0  0  0  0
 13 25  1  0  0  0  0
 14 15  1  0  0  0  0
 14 26  1  0  0  0  0
 14 27  1  0  0  0  0
 15 16  1  0  0  0  0
 15 28  1  0  0  0  0
 15 29  1  0  0  0  0
 16 17  1  0  0  0  0
 16 30  1  0  0  0  0
 16 31  1  0  0  0  0
 17 18  1  0  0  0  0
 18 32  1  0  0  0  0
 18 33  1  0  0  0  0
M  CHG  1   3  -1
M  END
> <s_m_source_file>
AV-unprocessed.smi

> <i_m_source_file_index>
898

> <i_lp_mmshare_version>
43012

> <i_f3d_flags>
0

> <s_epik_input>
W0NIMl0xU1tDSDJdW0NIMl1bQ0gyXVtDQEhdMVtOSF1DKD1PKVtOSF1jMm5uYyhzMilbQ0hdM1tDSDJdW0NIMl0z

> <s_epik_cmdline>
J2VwaWtfcHl0aG9uJywgJy1waCcsICc3LjAnLCAnLXRuJywgJzgnLCAnLW1hJywgJzIwMCcsICctbWV0YWxfYmluZGluZycsICctaW1hZScsICc8aW5maWxlLm1hZT4nLCAnLW9tYWUnLCAnPG91dGZpbGUubWFlPic=

> <r_lp_tautomer_probability>
1

> <r_epik_Ionization_Penalty>
4.71411

> <r_epik_Ionization_Penalty_Charging>
4.5615

> <r_epik_Ionization_Penalty_Neutral>
0.152604

> <r_epik_State_Penalty>
4.56123

> <r_epik_Charging_Adjusted_Penalty>
9.12273

> <i_epik_Tot_Q>
-1

> <i_epik_Tot_abs_Q>
1

> <r_epik_Metal_State_Penalty>
0.850765

> <b_epik_Metal_Only>
1

> <s_lp_Force_Field>
OPLS_2005

> <r_lp_Energy>
0.497958

> <b_lp_Chiralities_Consistent>
1

> <s_lp_Variant>
AV-unprocessed.smi:898-3

> <Gold.Version>
5.8.1

> <Gold.Id.Protein>
6NUR|6NUR_protein|mol2

> <Gold.PLP.Fitness>
39.4736

> <Gold.PLP.PLP>
-33.2571

> <Gold.PLP.part.hbond>
-3.3969

> <Gold.PLP.part.metal>
0.0000

> <Gold.PLP.part.buried>
-1.6419

> <Gold.PLP.part.nonpolar>
-26.2872

> <Gold.PLP.part.repulsive>
0.4053

> <Gold.PLP.ligand.clash>
0.0000

> <Gold.PLP.ligand.torsion>
1.2424

> <Gold.PLP.Chemscore.Hbond>
2.8500

> <Gold.PLP.Chemscore.CHOScore>
0.0000

> <Gold.PLP.Chemscore.Metal>
0.0000

> <Gold.Chemscore.Hbonds>
donor molecule, donor type, donor heavy atom, donor atom, acceptor molecule, acceptor atom, score
      P1  H  7989  7998       L1     3  0.94
      P1  H  7997  8010       L1     1  0.99
      P1  H 10752 10764       L1     6  0.80

> <Gold.PLP.Chemscore.Internal.Correction>
0.1514

> <Gold.Rescore>
     Score         DG    S(hbond)    S(metal)    S(lipo)     H(rot)  DE(clash)    DE(int)     intcor
     16.77     -19.59       2.15        0.00      85.13       1.19       0.54       2.28       ----

> <Gold.Chemscore.Fitness>
16.7686

> <Gold.Chemscore.DG>
-19.5882

> <Gold.Chemscore.ZeroCoef>
-5.4800

> <Gold.Chemscore.Hbond>
2.1549

> <Gold.Chemscore.Metal>
0.0000

> <Gold.Chemscore.Lipo>
85.1294

> <Gold.Chemscore.Internal_Hbond>
0.0000

> <Gold.Chemscore.DEClash>
0.5403

> <Gold.Chemscore.DEInternal>
2.2794

> <Gold.Chemscore.Rot>
1.1911

> <Gold.Chemscore.Internal.Correction>
   9.000000E+99

> <Gold.Chemscore.Hbonds>
donor molecule, donor type, donor heavy atom, donor atom, acceptor molecule, acceptor atom, score
      P1  H  7989  7998       L1     3  0.20
      P1  H  7997  8010       L1     1  0.93
      P1  H 10752 10764       L1     6  0.12

> <Gold.Chemscore.Hbond.Weighted>
-7.1973

> <Gold.Chemscore.Metal.Weighted>
-0.0000

> <Gold.Chemscore.Lipo.Weighted>
-9.9601

> <Gold.Chemscore.Internal_Hbond.Weighted>
0.0000

> <Gold.Chemscore.DEClash.Weighted>
0.5403

> <Gold.Chemscore.DEInternal.Weighted>
2.2794

> <Gold.Chemscore.Rot.Weighted>
3.0492

> <Gold.Chemscore.Internal.Correction.Weighted>
   9.000000E+99

> <Gold.Protein.RotatedTorsions>
[ 6907 6896 6895 6894 ] final  121.98 input  -60.11 | X-H torsion
[ 7974 7965 7964 7962 ] final  154.48 input  175.53 | X-H torsion
[ 8008 7997 7996 7995 ] final   90.63 input   59.86 | X-H torsion
[ 10167 10162 10161 10158 ] final  -31.59 input  -65.29 | X-H torsion
[ 10718 10713 10712 10709 ] final  125.44 input   66.30 | X-H torsion
[ 10763 10752 10751 10750 ] final  -58.99 input  -60.55 | X-H torsion
[ 11005 11000 10999 10996 ] final  -59.64 input  -57.11 | X-H torsion

> <Gold.Protein.ActiveResidues>
 VAL166  LYS551  ARG553  GLY616  TRP617  ASP618  TYR619  PRO620  LYS621  CYS622 
 ASP623  PHE694  ASN695  SER759  ASP760  ASP761  ALA762  ILE779  LEU786  VAL792 
 PHE793  MET794  SER795  GLU796  ALA797  LYS798  CYS799  TRP800  GLU811  SER814 

> <Gold.Protein.RotatedAtoms>
  152.4279  133.7227  159.6541 H   0  0  0  0  0  0  0  0  0  0  0  0  # atno 6907 bound_to 6896
  150.8156  133.8332  159.3168 H   0  0  0  0  0  0  0  0  0  0  0  0  # atno 6908 bound_to 6896
  151.6029  135.1048  160.0116 H   0  0  0  0  0  0  0  0  0  0  0  0  # atno 6909 bound_to 6896
  144.8086  139.6939  143.6151 H   0  0  0  0  0  0  0  0  0  0  0  0  # atno 7974 bound_to 7965
  156.0142  140.3347  155.6972 H   0  0  0  0  0  0  0  0  0  0  0  0  # atno 8008 bound_to 7997
  155.6114  140.0665  157.2722 H   0  0  0  0  0  0  0  0  0  0  0  0  # atno 8009 bound_to 7997
  154.4292  140.1793  156.1264 H   0  0  0  0  0  0  0  0  0  0  0  0  # atno 8010 bound_to 7997
  140.7234  143.3759  151.1691 H   0  0  0  0  0  0  0  0  0  0  0  0  # atno 10167 bound_to 10162
  157.5502  131.1094  150.8714 H   0  0  0  0  0  0  0  0  0  0  0  0  # atno 10718 bound_to 10713
  154.2467  135.6333  153.5226 H   0  0  0  0  0  0  0  0  0  0  0  0  # atno 10763 bound_to 10752
  152.9920  135.5555  154.5851 H   0  0  0  0  0  0  0  0  0  0  0  0  # atno 10764 bound_to 10752
  154.5370  135.2892  155.1105 H   0  0  0  0  0  0  0  0  0  0  0  0  # atno 10765 bound_to 10752
  141.1256  133.6617  156.5102 H   0  0  0  0  0  0  0  0  0  0  0  0  # atno 11005 bound_to 11000
  146.2381  139.5946  142.9510 LP  0  0  0  0  0  0  0  0  0  0  0  0  # atno 17320 bound_to 7965
  145.5378  141.0423  143.2347 LP  0  0  0  0  0  0  0  0  0  0  0  0  # atno 17321 bound_to 7965
  139.7339  143.9030  152.3028 LP  0  0  0  0  0  0  0  0  0  0  0  0  # atno 17342 bound_to 10162
  139.8828  144.7008  150.8858 LP  0  0  0  0  0  0  0  0  0  0  0  0  # atno 17343 bound_to 10162
  156.9241  130.5326  149.5279 LP  0  0  0  0  0  0  0  0  0  0  0  0  # atno 17370 bound_to 10713
  156.0570  130.5630  150.9113 LP  0  0  0  0  0  0  0  0  0  0  0  0  # atno 17371 bound_to 10713
  140.4375  134.7046  157.4974 LP  0  0  0  0  0  0  0  0  0  0  0  0  # atno 17394 bound_to 11000
  140.0252  134.6488  155.9183 LP  0  0  0  0  0  0  0  0  0  0  0  0  # atno 17395 bound_to 11000

$$$$
