AV-unprocessed.smi:347|AV-procd|sdf|2394|dock8
  -GOLD-   2262022323D 1   1.00000     0.00000
 Structure written by MMmdl.
 45 46  0  0  0  0  0  0  0  0  2 V2000
  153.6312  141.1643  160.3939 C   0  0  0  0  0  0  0  0  0  0  0  0
  153.0075  140.5402  159.1930 C   0  0  0  0  0  0  0  0  0  0  0  0
  151.7094  140.3787  158.7975 C   0  0  0  0  0  0  0  0  0  0  0  0
  151.8354  139.7007  157.5559 C   0  0  0  0  0  0  0  0  0  0  0  0
  150.6884  139.3447  156.8019 N   0  0  0  0  0  0  0  0  0  0  0  0
  150.2208  139.9415  155.6925 C   0  0  0  0  0  0  0  0  0  0  0  0
  150.7492  140.8956  155.1218 O   0  0  0  0  0  0  0  0  0  0  0  0
  149.0840  139.3660  155.2745 N   0  0  0  0  0  0  0  0  0  0  0  0
  148.3017  139.7725  154.1088 C   0  0  0  0  0  0  0  0  0  0  0  0
  147.6571  141.1656  154.2467 C   0  0  0  0  0  0  0  0  0  0  0  0
  146.4096  141.2269  155.1636 C   0  0  0  0  0  0  0  0  0  0  0  0
  146.7830  141.2603  156.6621 C   0  0  0  0  0  0  0  0  0  0  0  0
  145.6671  142.5447  154.8672 C   0  0  0  0  0  0  0  0  0  0  0  0
  145.4596  140.1199  154.8582 N   0  3  0  0  0  0  0  0  0  0  0  0
  145.9696  138.7358  154.6429 C   0  0  0  0  0  0  0  0  0  0  0  0
  146.1993  138.0011  155.9825 C   0  0  0  0  0  0  0  0  0  0  0  0
  144.8578  137.9649  153.9046 C   0  0  0  0  0  0  0  0  0  0  0  0
  147.2326  138.7307  153.7422 C   0  0  0  0  0  0  0  0  0  0  0  0
  153.0958  139.4698  157.2227 N   0  0  0  0  0  0  0  0  0  0  0  0
  153.8535  140.0055  158.2709 O   0  0  0  0  0  0  0  0  0  0  0  0
  152.9340  141.8427  160.8859 H   0  0  0  0  0  0  0  0  0  0  0  0
  154.5193  141.7339  160.1196 H   0  0  0  0  0  0  0  0  0  0  0  0
  153.9270  140.4019  161.1146 H   0  0  0  0  0  0  0  0  0  0  0  0
  150.8169  140.6960  159.3157 H   0  0  0  0  0  0  0  0  0  0  0  0
  150.1605  138.5604  157.1545 H   0  0  0  0  0  0  0  0  0  0  0  0
  148.7329  138.5809  155.8034 H   0  0  0  0  0  0  0  0  0  0  0  0
  149.0047  139.8134  153.2744 H   0  0  0  0  0  0  0  0  0  0  0  0
  148.3943  141.9052  154.5617 H   0  0  0  0  0  0  0  0  0  0  0  0
  147.3616  141.4740  153.2424 H   0  0  0  0  0  0  0  0  0  0  0  0
  147.3474  142.1628  156.8998 H   0  0  0  0  0  0  0  0  0  0  0  0
  147.4029  140.4285  156.9792 H   0  0  0  0  0  0  0  0  0  0  0  0
  145.8928  141.2616  157.2920 H   0  0  0  0  0  0  0  0  0  0  0  0
  146.3054  143.4107  155.0477 H   0  0  0  0  0  0  0  0  0  0  0  0
  144.7818  142.6556  155.4951 H   0  0  0  0  0  0  0  0  0  0  0  0
  145.3361  142.5957  153.8290 H   0  0  0  0  0  0  0  0  0  0  0  0
  144.7408  140.0989  155.5674 H   0  0  0  0  0  0  0  0  0  0  0  0
  146.4163  136.9458  155.8129 H   0  0  0  0  0  0  0  0  0  0  0  0
  145.3137  138.0496  156.6171 H   0  0  0  0  0  0  0  0  0  0  0  0
  147.0317  138.3894  156.5596 H   0  0  0  0  0  0  0  0  0  0  0  0
  145.1614  136.9408  153.6834 H   0  0  0  0  0  0  0  0  0  0  0  0
  144.6015  138.4399  152.9565 H   0  0  0  0  0  0  0  0  0  0  0  0
  143.9439  137.9141  154.4983 H   0  0  0  0  0  0  0  0  0  0  0  0
  146.9260  138.9416  152.7164 H   0  0  0  0  0  0  0  0  0  0  0  0
  147.6734  137.7329  153.7098 H   0  0  0  0  0  0  0  0  0  0  0  0
  145.0202  140.3800  153.9868 H   0  0  0  0  0  0  0  0  0  0  0  0
  1  2  1  0  0  0  0
  1 21  1  0  0  0  0
  1 22  1  0  0  0  0
  1 23  1  0  0  0  0
  2 20  1  0  0  0  0
  2  3  2  0  0  0  0
  3  4  1  0  0  0  0
  3 24  1  0  0  0  0
  4  5  1  0  0  0  0
  4 19  2  0  0  0  0
  5  6  1  0  0  0  0
  5 25  1  0  0  0  0
  6  7  2  0  0  0  0
  6  8  1  0  0  0  0
  8  9  1  0  0  0  0
  8 26  1  0  0  0  0
  9 18  1  0  0  0  0
  9 10  1  0  0  0  0
  9 27  1  0  0  0  0
 10 11  1  0  0  0  0
 10 28  1  0  0  0  0
 10 29  1  0  0  0  0
 11 12  1  0  0  0  0
 11 13  1  0  0  0  0
 11 14  1  0  0  0  0
 12 30  1  0  0  0  0
 12 31  1  0  0  0  0
 12 32  1  0  0  0  0
 13 33  1  0  0  0  0
 13 34  1  0  0  0  0
 13 35  1  0  0  0  0
 14 15  1  0  0  0  0
 14 36  1  0  0  0  0
 14 45  1  0  0  0  0
 15 16  1  0  0  0  0
 15 17  1  0  0  0  0
 15 18  1  0  0  0  0
 16 37  1  0  0  0  0
 16 38  1  0  0  0  0
 16 39  1  0  0  0  0
 17 40  1  0  0  0  0
 17 41  1  0  0  0  0
 17 42  1  0  0  0  0
 18 43  1  0  0  0  0
 18 44  1  0  0  0  0
 19 20  1  0  0  0  0
M  CHG  1  14   1
M  END
> <s_m_source_file>
AV-unprocessed.smi

> <i_m_source_file_index>
347

> <i_lp_mmshare_version>
43012

> <i_f3d_flags>
0

> <s_epik_input>
W0NIM11jMVtjSF1jKG5vMSlbTkhdQyg9TylbTkhdW0NIXShbQ0gyXUMyKFtDSDNdKVtDSDNdKVtDSDJdQyhbTkhdMikoW0NIM10pW0NIM10=

> <s_epik_cmdline>
J2VwaWtfcHl0aG9uJywgJy1waCcsICc3LjAnLCAnLXRuJywgJzgnLCAnLW1hJywgJzIwMCcsICctbWV0YWxfYmluZGluZycsICctaW1hZScsICc8aW5maWxlLm1hZT4nLCAnLW9tYWUnLCAnPG91dGZpbGUubWFlPic=

> <r_lp_tautomer_probability>
1

> <r_epik_Ionization_Penalty>
0.000125139

> <r_epik_Ionization_Penalty_Charging>
0.000103024

> <r_epik_Ionization_Penalty_Neutral>
2.21147e-05

> <r_epik_State_Penalty>
-0

> <r_epik_Charging_Adjusted_Penalty>
0.000103024

> <i_epik_Tot_Q>
1

> <i_epik_Tot_abs_Q>
1

> <r_epik_Metal_State_Penalty>
-0

> <b_epik_Metal_Only>
0

> <s_lp_Force_Field>
OPLS_2005

> <r_lp_Energy>
23.9758

> <b_lp_Chiralities_Consistent>
1

> <s_lp_Variant>
AV-unprocessed.smi:347-1

> <Gold.Version>
5.8.1

> <Gold.Id.Protein>
6NUR|6NUR_protein|mol2

> <Gold.PLP.Fitness>
35.6997

> <Gold.PLP.PLP>
-25.4839

> <Gold.PLP.part.hbond>
-3.8513

> <Gold.PLP.part.metal>
0.0000

> <Gold.PLP.part.buried>
-1.8621

> <Gold.PLP.part.nonpolar>
-19.4295

> <Gold.PLP.part.repulsive>
0.0826

> <Gold.PLP.ligand.clash>
0.0000

> <Gold.PLP.ligand.torsion>
0.7898

> <Gold.PLP.Chemscore.Hbond>
3.9264

> <Gold.PLP.Chemscore.CHOScore>
0.0000

> <Gold.PLP.Chemscore.Metal>
0.0000

> <Gold.Chemscore.Hbonds>
donor molecule, donor type, donor heavy atom, donor atom, acceptor molecule, acceptor atom, score
      L1  H    14    45       P1 10175  2.00
      P1  H  7989  7998       L1     7  0.78
      P1  H  7997  8010       L1    20  0.22

> <Gold.PLP.Chemscore.Internal.Correction>
0.0162

> <Gold.Rescore>
     Score         DG    S(hbond)    S(metal)    S(lipo)     H(rot)  DE(clash)    DE(int)     intcor
     17.35     -18.10       2.65        0.00      54.25       1.00       0.04       0.71       ----

> <Gold.Chemscore.Fitness>
17.3462

> <Gold.Chemscore.DG>
-18.1038

> <Gold.Chemscore.ZeroCoef>
-5.4800

> <Gold.Chemscore.Hbond>
2.6458

> <Gold.Chemscore.Metal>
0.0000

> <Gold.Chemscore.Lipo>
54.2455

> <Gold.Chemscore.Internal_Hbond>
0.0000

> <Gold.Chemscore.DEClash>
0.0437

> <Gold.Chemscore.DEInternal>
0.7139

> <Gold.Chemscore.Rot>
1.0000

> <Gold.Chemscore.Internal.Correction>
   9.000000E+99

> <Gold.Chemscore.Hbonds>
donor molecule, donor type, donor heavy atom, donor atom, acceptor molecule, acceptor atom, score
      L1  H    14    45       P1 10175  0.94
      P1  H  7989  7998       L1     7  0.78

> <Gold.Chemscore.Hbond.Weighted>
-8.8371

> <Gold.Chemscore.Metal.Weighted>
-0.0000

> <Gold.Chemscore.Lipo.Weighted>
-6.3467

> <Gold.Chemscore.Internal_Hbond.Weighted>
0.0000

> <Gold.Chemscore.DEClash.Weighted>
0.0437

> <Gold.Chemscore.DEInternal.Weighted>
0.7139

> <Gold.Chemscore.Rot.Weighted>
2.5600

> <Gold.Chemscore.Internal.Correction.Weighted>
   9.000000E+99

> <Gold.Protein.RotatedTorsions>
[ 6907 6896 6895 6894 ] final  -81.62 input  -60.11 | X-H torsion
[ 7974 7965 7964 7962 ] final   69.42 input  175.53 | X-H torsion
[ 8008 7997 7996 7995 ] final    4.92 input   59.86 | X-H torsion
[ 10167 10162 10161 10158 ] final    9.11 input  -65.29 | X-H torsion
[ 10718 10713 10712 10709 ] final -108.80 input   66.30 | X-H torsion
[ 10763 10752 10751 10750 ] final  -93.63 input  -60.55 | X-H torsion
[ 11005 11000 10999 10996 ] final  -10.17 input  -57.11 | X-H torsion

> <Gold.Protein.ActiveResidues>
 VAL166  LYS551  ARG553  GLY616  TRP617  ASP618  TYR619  PRO620  LYS621  CYS622 
 ASP623  PHE694  ASN695  SER759  ASP760  ASP761  ALA762  ILE779  LEU786  VAL792 
 PHE793  MET794  SER795  GLU796  ALA797  LYS798  CYS799  TRP800  GLU811  SER814 

> <Gold.Protein.RotatedAtoms>
  150.6909  134.3789  159.5024 H   0  0  0  0  0  0  0  0  0  0  0  0  # atno 6907 bound_to 6896
  152.1594  134.8922  160.0552 H   0  0  0  0  0  0  0  0  0  0  0  0  # atno 6908 bound_to 6896
  151.9989  133.3783  159.4211 H   0  0  0  0  0  0  0  0  0  0  0  0  # atno 6909 bound_to 6896
  145.7906  139.2932  143.1212 H   0  0  0  0  0  0  0  0  0  0  0  0  # atno 7974 bound_to 7965
  154.7219  140.2713  155.6534 H   0  0  0  0  0  0  0  0  0  0  0  0  # atno 8008 bound_to 7997
  156.2826  140.2733  156.1818 H   0  0  0  0  0  0  0  0  0  0  0  0  # atno 8009 bound_to 7997
  155.0496  140.0371  157.2529 H   0  0  0  0  0  0  0  0  0  0  0  0  # atno 8010 bound_to 7997
  140.6275  143.8069  150.7252 H   0  0  0  0  0  0  0  0  0  0  0  0  # atno 10167 bound_to 10162
  156.0504  130.5731  150.8012 H   0  0  0  0  0  0  0  0  0  0  0  0  # atno 10718 bound_to 10713
  154.6977  135.5187  153.8482 H   0  0  0  0  0  0  0  0  0  0  0  0  # atno 10763 bound_to 10752
  153.0680  135.6591  154.0320 H   0  0  0  0  0  0  0  0  0  0  0  0  # atno 10764 bound_to 10752
  154.0184  135.2996  155.3363 H   0  0  0  0  0  0  0  0  0  0  0  0  # atno 10765 bound_to 10752
  140.7419  133.8663  155.8975 H   0  0  0  0  0  0  0  0  0  0  0  0  # atno 11005 bound_to 11000
  145.9980  140.8545  143.0033 LP  0  0  0  0  0  0  0  0  0  0  0  0  # atno 17320 bound_to 7965
  144.6782  140.2311  143.7355 LP  0  0  0  0  0  0  0  0  0  0  0  0  # atno 17321 bound_to 7965
  140.1673  143.4224  152.2026 LP  0  0  0  0  0  0  0  0  0  0  0  0  # atno 17342 bound_to 10162
  139.5493  144.7324  151.4485 LP  0  0  0  0  0  0  0  0  0  0  0  0  # atno 17343 bound_to 10162
  157.5424  131.0941  150.9809 LP  0  0  0  0  0  0  0  0  0  0  0  0  # atno 17370 bound_to 10713
  157.0088  130.5628  149.5318 LP  0  0  0  0  0  0  0  0  0  0  0  0  # atno 17371 bound_to 10713
  140.9829  134.1382  157.4478 LP  0  0  0  0  0  0  0  0  0  0  0  0  # atno 17394 bound_to 11000
  139.8804  135.0016  156.6078 LP  0  0  0  0  0  0  0  0  0  0  0  0  # atno 17395 bound_to 11000

$$$$
