AV-unprocessed.smi:2816|AV-procd|sdf|10843|dock1
  -GOLD-   2272015283D 1   1.00000     0.00000
 Structure written by MMmdl.
 43 45  0  0  0  0  0  0  0  0  1 V2000
  151.3534  129.9681  155.3189 C   0  0  0  0  0  0  0  0  0  0  0  0
  151.5664  130.3788  156.7863 C   0  0  0  0  0  0  0  0  0  0  0  0
  151.3988  129.1475  157.6953 C   0  0  0  0  0  0  0  0  0  0  0  0
  152.9747  130.9797  156.9500 C   0  0  0  0  0  0  0  0  0  0  0  0
  150.2743  131.6496  157.2126 S   0  0  0  0  0  0  0  0  0  0  0  0
  149.3358  131.0528  158.1764 O   0  0  0  0  0  0  0  0  0  0  0  0
  150.9708  132.8962  157.5681 O   0  0  0  0  0  0  0  0  0  0  0  0
  149.3655  131.9548  155.6960 C   0  0  0  0  0  0  0  0  0  0  0  0
  149.5287  133.1751  155.0099 C   0  0  0  0  0  0  0  0  0  0  0  0
  148.8315  133.3553  153.8009 C   0  0  0  0  0  0  0  0  0  0  0  0
  148.0092  132.3089  153.3193 C   0  0  0  0  0  0  0  0  0  0  0  0
  147.2804  132.3864  152.1235 N   0  0  0  0  0  0  0  0  0  0  0  0
  146.1443  133.2900  151.9804 C   0  0  1  0  0  0  0  0  0  0  0  0
  146.1811  134.1512  150.7124 C   0  0  0  0  0  0  0  0  0  0  0  0
  144.8092  133.8546  150.0909 C   0  0  1  0  0  0  0  0  0  0  0  0
  144.7766  132.4669  149.4390 C   0  0  0  0  0  0  0  0  0  0  0  0
  144.7638  131.5516  150.6614 C   0  0  0  0  0  0  0  0  0  0  0  0
  144.7963  132.5637  151.8204 C   0  0  2  0  0  0  0  0  0  0  0  0
  144.0308  133.6130  151.2516 O   0  0  0  0  0  0  0  0  0  0  0  0
  147.9280  131.1285  154.0895 C   0  0  0  0  0  0  0  0  0  0  0  0
  148.5923  130.9422  155.2492 N   0  0  0  0  0  0  0  0  0  0  0  0
  152.0845  129.2230  155.0036 H   0  0  0  0  0  0  0  0  0  0  0  0
  151.4467  130.8250  154.6510 H   0  0  0  0  0  0  0  0  0  0  0  0
  150.3619  129.5405  155.1666 H   0  0  0  0  0  0  0  0  0  0  0  0
  150.3972  128.7245  157.6132 H   0  0  0  0  0  0  0  0  0  0  0  0
  151.5678  129.3957  158.7430 H   0  0  0  0  0  0  0  0  0  0  0  0
  152.1086  128.3632  157.4304 H   0  0  0  0  0  0  0  0  0  0  0  0
  153.7414  130.2753  156.6261 H   0  0  0  0  0  0  0  0  0  0  0  0
  153.1898  131.2304  157.9879 H   0  0  0  0  0  0  0  0  0  0  0  0
  153.0932  131.8868  156.3567 H   0  0  0  0  0  0  0  0  0  0  0  0
  150.1720  133.9527  155.3939 H   0  0  0  0  0  0  0  0  0  0  0  0
  148.9411  134.2853  153.2641 H   0  0  0  0  0  0  0  0  0  0  0  0
  147.6601  131.9631  151.2887 H   0  0  0  0  0  0  0  0  0  0  0  0
  146.0813  133.9325  152.8595 H   0  0  0  0  0  0  0  0  0  0  0  0
  146.2706  135.2058  150.9751 H   0  0  0  0  0  0  0  0  0  0  0  0
  146.9977  133.9016  150.0331 H   0  0  0  0  0  0  0  0  0  0  0  0
  144.4310  134.6522  149.4512 H   0  0  0  0  0  0  0  0  0  0  0  0
  143.8670  132.3339  148.8521 H   0  0  0  0  0  0  0  0  0  0  0  0
  145.6333  132.2926  148.7872 H   0  0  0  0  0  0  0  0  0  0  0  0
  143.8408  130.9712  150.6874 H   0  0  0  0  0  0  0  0  0  0  0  0
  145.5992  130.8517  150.6774 H   0  0  0  0  0  0  0  0  0  0  0  0
  144.3932  132.1745  152.7557 H   0  0  0  0  0  0  0  0  0  0  0  0
  147.3152  130.3015  153.7612 H   0  0  0  0  0  0  0  0  0  0  0  0
  1  2  1  0  0  0  0
  1 22  1  0  0  0  0
  1 23  1  0  0  0  0
  1 24  1  0  0  0  0
  2  3  1  0  0  0  0
  2  4  1  0  0  0  0
  2  5  1  0  0  0  0
  3 25  1  0  0  0  0
  3 26  1  0  0  0  0
  3 27  1  0  0  0  0
  4 28  1  0  0  0  0
  4 29  1  0  0  0  0
  4 30  1  0  0  0  0
  5  6  2  0  0  0  0
  5  7  2  0  0  0  0
  5  8  1  0  0  0  0
  8 21  1  0  0  0  0
  8  9  2  0  0  0  0
  9 10  1  0  0  0  0
  9 31  1  0  0  0  0
 10 11  2  0  0  0  0
 10 32  1  0  0  0  0
 11 12  1  0  0  0  0
 11 20  1  0  0  0  0
 12 13  1  0  0  0  0
 12 33  1  0  0  0  0
 13 18  1  0  0  0  0
 13 14  1  0  0  0  0
 13 34  1  0  0  0  0
 14 15  1  0  0  0  0
 14 35  1  0  0  0  0
 14 36  1  0  0  0  0
 15 19  1  0  0  0  0
 15 16  1  0  0  0  0
 15 37  1  0  0  0  0
 16 17  1  0  0  0  0
 16 38  1  0  0  0  0
 16 39  1  0  0  0  0
 17 18  1  0  0  0  0
 17 40  1  0  0  0  0
 17 41  1  0  0  0  0
 18 19  1  0  0  0  0
 18 42  1  0  0  0  0
 20 21  2  0  0  0  0
 20 43  1  0  0  0  0
M  END
> <s_m_source_file>
AV-unprocessed.smi

> <i_m_source_file_index>
2816

> <i_lp_mmshare_version>
43012

> <i_f3d_flags>
0

> <s_epik_input>
W0NIM11DKFtDSDNdKShbQ0gzXSlTKD1PKSg9TyljMVtjSF1bY0hdYyhbY0hdbjEpW05IXVtDQEhdKFtDSDJdW0NAQEhdMjMpW0NAQEhdKE8zKVtDSDJdW0NIMl0y

> <s_epik_cmdline>
J2VwaWtfcHl0aG9uJywgJy1waCcsICc3LjAnLCAnLXRuJywgJzgnLCAnLW1hJywgJzIwMCcsICctbWV0YWxfYmluZGluZycsICctaW1hZScsICc8aW5maWxlLm1hZT4nLCAnLW9tYWUnLCAnPG91dGZpbGUubWFlPic=

> <r_lp_tautomer_probability>
1

> <r_epik_Ionization_Penalty>
1.94439e-07

> <r_epik_Ionization_Penalty_Charging>
0

> <r_epik_Ionization_Penalty_Neutral>
1.94439e-07

> <r_epik_State_Penalty>
-0

> <r_epik_Charging_Adjusted_Penalty>
0

> <i_epik_Tot_Q>
0

> <i_epik_Tot_abs_Q>
0

> <r_epik_Metal_State_Penalty>
-0

> <b_epik_Metal_Only>
0

> <s_lp_Force_Field>
OPLS_2005

> <r_lp_Energy>
43.8741

> <b_lp_Chiralities_Consistent>
1

> <s_lp_Variant>
AV-unprocessed.smi:2816-2

> <Gold.Version>
5.8.1

> <Gold.Id.Protein>
6NUR|6NUR_protein|mol2

> <Gold.PLP.Fitness>
39.6657

> <Gold.PLP.PLP>
-35.4623

> <Gold.PLP.part.hbond>
-2.0000

> <Gold.PLP.part.metal>
0.0000

> <Gold.PLP.part.buried>
-4.6747

> <Gold.PLP.part.nonpolar>
-28.2532

> <Gold.PLP.part.repulsive>
0.1560

> <Gold.PLP.ligand.clash>
0.0000

> <Gold.PLP.ligand.torsion>
1.9029

> <Gold.PLP.Chemscore.Hbond>
1.9280

> <Gold.PLP.Chemscore.CHOScore>
0.0000

> <Gold.PLP.Chemscore.Metal>
0.0000

> <Gold.Chemscore.Hbonds>
donor molecule, donor type, donor heavy atom, donor atom, acceptor molecule, acceptor atom, score
      L1  H    12    33       P1 10747  1.00
      P1  H  6896  6908       L1     7  0.86

> <Gold.PLP.Chemscore.Internal.Correction>
2.2251

> <Gold.Rescore>
     Score         DG    S(hbond)    S(metal)    S(lipo)     H(rot)  DE(clash)    DE(int)     intcor
     16.96     -18.89       1.91        0.00      85.03       1.15       0.04       1.89       ----

> <Gold.Chemscore.Fitness>
16.9565

> <Gold.Chemscore.DG>
-18.8861

> <Gold.Chemscore.ZeroCoef>
-5.4800

> <Gold.Chemscore.Hbond>
1.9144

> <Gold.Chemscore.Metal>
0.0000

> <Gold.Chemscore.Lipo>
85.0311

> <Gold.Chemscore.Internal_Hbond>
0.0000

> <Gold.Chemscore.DEClash>
0.0360

> <Gold.Chemscore.DEInternal>
1.8936

> <Gold.Chemscore.Rot>
1.1471

> <Gold.Chemscore.Internal.Correction>
   9.000000E+99

> <Gold.Chemscore.Hbonds>
donor molecule, donor type, donor heavy atom, donor atom, acceptor molecule, acceptor atom, score
      L1  H    12    33       P1 10747  0.94
      P1  H  6896  6908       L1     7  0.86

> <Gold.Chemscore.Hbond.Weighted>
-6.3941

> <Gold.Chemscore.Metal.Weighted>
-0.0000

> <Gold.Chemscore.Lipo.Weighted>
-9.9486

> <Gold.Chemscore.Internal_Hbond.Weighted>
0.0000

> <Gold.Chemscore.DEClash.Weighted>
0.0360

> <Gold.Chemscore.DEInternal.Weighted>
1.8936

> <Gold.Chemscore.Rot.Weighted>
2.9366

> <Gold.Chemscore.Internal.Correction.Weighted>
   9.000000E+99

> <Gold.Protein.RotatedTorsions>
[ 6907 6896 6895 6894 ] final   68.45 input  -60.11 | X-H torsion
[ 7974 7965 7964 7962 ] final  145.94 input  175.53 | X-H torsion
[ 8008 7997 7996 7995 ] final  -95.19 input   59.86 | X-H torsion
[ 10167 10162 10161 10158 ] final   37.81 input  -65.29 | X-H torsion
[ 10718 10713 10712 10709 ] final   70.99 input   66.30 | X-H torsion
[ 10763 10752 10751 10750 ] final  174.61 input  -60.55 | X-H torsion
[ 11005 11000 10999 10996 ] final -173.36 input  -57.11 | X-H torsion

> <Gold.Protein.ActiveResidues>
 VAL166  LYS551  ARG553  GLY616  TRP617  ASP618  TYR619  PRO620  LYS621  CYS622 
 ASP623  PHE694  ASN695  SER759  ASP760  ASP761  ALA762  ILE779  LEU786  VAL792 
 PHE793  MET794  SER795  GLU796  ALA797  LYS798  CYS799  TRP800  GLU811  SER814 

> <Gold.Protein.RotatedAtoms>
  152.4621  134.5161  159.9768 H   0  0  0  0  0  0  0  0  0  0  0  0  # atno 6907 bound_to 6896
  151.5207  133.3461  159.2909 H   0  0  0  0  0  0  0  0  0  0  0  0  # atno 6908 bound_to 6896
  150.8588  134.7964  159.7129 H   0  0  0  0  0  0  0  0  0  0  0  0  # atno 6909 bound_to 6896
  144.8711  139.5844  143.5886 H   0  0  0  0  0  0  0  0  0  0  0  0  # atno 7974 bound_to 7965
  154.7582  140.0482  157.0951 H   0  0  0  0  0  0  0  0  0  0  0  0  # atno 8008 bound_to 7997
  154.9971  140.3120  155.4863 H   0  0  0  0  0  0  0  0  0  0  0  0  # atno 8009 bound_to 7997
  156.2899  140.2208  156.5079 H   0  0  0  0  0  0  0  0  0  0  0  0  # atno 8010 bound_to 7997
  140.3997  144.1741  150.6133 H   0  0  0  0  0  0  0  0  0  0  0  0  # atno 10167 bound_to 10162
  157.6429  130.9506  150.0728 H   0  0  0  0  0  0  0  0  0  0  0  0  # atno 10718 bound_to 10713
  154.4563  135.2766  155.1745 H   0  0  0  0  0  0  0  0  0  0  0  0  # atno 10763 bound_to 10752
  154.3551  135.6141  153.5666 H   0  0  0  0  0  0  0  0  0  0  0  0  # atno 10764 bound_to 10752
  152.9851  135.5821  154.4917 H   0  0  0  0  0  0  0  0  0  0  0  0  # atno 10765 bound_to 10752
  140.4867  134.6024  157.4939 H   0  0  0  0  0  0  0  0  0  0  0  0  # atno 11005 bound_to 11000
  146.2931  139.7197  142.9146 LP  0  0  0  0  0  0  0  0  0  0  0  0  # atno 17320 bound_to 7965
  145.4128  141.0398  143.3007 LP  0  0  0  0  0  0  0  0  0  0  0  0  # atno 17321 bound_to 7965
  140.4753  143.2398  151.9032 LP  0  0  0  0  0  0  0  0  0  0  0  0  # atno 17342 bound_to 10162
  139.4785  144.5327  151.8644 LP  0  0  0  0  0  0  0  0  0  0  0  0  # atno 17343 bound_to 10162
  156.1727  130.3647  149.9143 LP  0  0  0  0  0  0  0  0  0  0  0  0  # atno 17370 bound_to 10713
  156.7115  130.8972  151.3610 LP  0  0  0  0  0  0  0  0  0  0  0  0  # atno 17371 bound_to 10713
  139.9794  134.7162  155.9888 LP  0  0  0  0  0  0  0  0  0  0  0  0  # atno 17394 bound_to 11000
  141.1505  133.6549  156.3997 LP  0  0  0  0  0  0  0  0  0  0  0  0  # atno 17395 bound_to 11000

$$$$
