AV-unprocessed.smi:2890|AV-procd|sdf|11116|dock3
  -GOLD-   2272015583D 1   1.00000     0.00000
 Structure written by MMmdl.
 38 39  0  0  0  0  0  0  0  0  1 V2000
  153.1686  138.6870  154.7244 C   0  0  0  0  0  0  0  0  0  0  0  0
  151.8421  138.8156  155.4809 C   0  0  0  0  0  0  0  0  0  0  0  0
  151.9258  139.8194  156.5981 C   0  0  0  0  0  0  0  0  0  0  0  0
  152.8691  139.6919  157.5165 N   0  0  0  0  0  0  0  0  0  0  0  0
  152.6870  140.7562  158.4040 O   0  0  0  0  0  0  0  0  0  0  0  0
  151.6261  141.4907  157.9826 C   0  0  0  0  0  0  0  0  0  0  0  0
  151.2691  142.6826  158.8079 C   0  0  0  0  0  0  0  0  0  0  0  0
  152.3579  143.7602  158.8094 C   0  0  0  0  0  0  0  0  0  0  0  0
  151.0919  140.9484  156.8456 C   0  0  0  0  0  0  0  0  0  0  0  0
  149.9072  141.4252  156.0439 C   0  0  0  0  0  0  0  0  0  0  0  0
  148.6434  141.3672  156.9017 C   0  0  0  0  0  0  0  0  0  0  0  0
  148.4512  140.4099  157.6503 O   0  0  0  0  0  0  0  0  0  0  0  0
  147.7927  142.3990  156.7853 N   0  0  0  0  0  0  0  0  0  0  0  0
  146.5541  142.5609  157.5399 C   0  0  0  0  0  0  0  0  0  0  0  0
  146.7640  142.7276  158.9915 C   0  0  0  0  0  0  0  0  0  0  0  0
  146.9285  142.8575  160.1292 N   0  0  0  0  0  0  0  0  0  0  0  0
  145.6328  143.6278  156.9268 C   0  0  0  0  0  0  0  0  0  0  0  0
  144.4562  142.6888  157.2246 C   0  0  0  0  0  0  0  0  0  0  0  0
  145.4661  141.5352  157.1725 C   0  0  0  0  0  0  0  0  0  0  0  0
  153.0883  137.9543  153.9214 H   0  0  0  0  0  0  0  0  0  0  0  0
  153.9704  138.3658  155.3900 H   0  0  0  0  0  0  0  0  0  0  0  0
  153.4626  139.6378  154.2789 H   0  0  0  0  0  0  0  0  0  0  0  0
  151.0543  139.0996  154.7821 H   0  0  0  0  0  0  0  0  0  0  0  0
  151.5538  137.8402  155.8731 H   0  0  0  0  0  0  0  0  0  0  0  0
  150.3376  143.1101  158.4361 H   0  0  0  0  0  0  0  0  0  0  0  0
  151.0689  142.3715  159.8333 H   0  0  0  0  0  0  0  0  0  0  0  0
  152.0618  144.6112  159.4231 H   0  0  0  0  0  0  0  0  0  0  0  0
  152.5505  144.1279  157.8010 H   0  0  0  0  0  0  0  0  0  0  0  0
  153.2944  143.3705  159.2092 H   0  0  0  0  0  0  0  0  0  0  0  0
  150.0470  142.4454  155.6855 H   0  0  0  0  0  0  0  0  0  0  0  0
  149.7627  140.8122  155.1534 H   0  0  0  0  0  0  0  0  0  0  0  0
  148.0355  143.1412  156.1455 H   0  0  0  0  0  0  0  0  0  0  0  0
  145.6052  144.5763  157.4644 H   0  0  0  0  0  0  0  0  0  0  0  0
  145.7876  143.7774  155.8564 H   0  0  0  0  0  0  0  0  0  0  0  0
  144.0283  142.8389  158.2174 H   0  0  0  0  0  0  0  0  0  0  0  0
  143.6874  142.6577  156.4518 H   0  0  0  0  0  0  0  0  0  0  0  0
  145.5766  141.1197  156.1691 H   0  0  0  0  0  0  0  0  0  0  0  0
  145.3036  140.7533  157.9152 H   0  0  0  0  0  0  0  0  0  0  0  0
  1  2  1  0  0  0  0
  1 20  1  0  0  0  0
  1 21  1  0  0  0  0
  1 22  1  0  0  0  0
  2  3  1  0  0  0  0
  2 23  1  0  0  0  0
  2 24  1  0  0  0  0
  3  9  1  0  0  0  0
  3  4  2  0  0  0  0
  4  5  1  0  0  0  0
  5  6  1  0  0  0  0
  6  7  1  0  0  0  0
  6  9  2  0  0  0  0
  7  8  1  0  0  0  0
  7 25  1  0  0  0  0
  7 26  1  0  0  0  0
  8 27  1  0  0  0  0
  8 28  1  0  0  0  0
  8 29  1  0  0  0  0
  9 10  1  0  0  0  0
 10 11  1  0  0  0  0
 10 30  1  0  0  0  0
 10 31  1  0  0  0  0
 11 12  2  0  0  0  0
 11 13  1  0  0  0  0
 13 14  1  0  0  0  0
 13 32  1  0  0  0  0
 14 19  1  0  0  0  0
 14 15  1  0  0  0  0
 14 17  1  0  0  0  0
 15 16  3  0  0  0  0
 17 18  1  0  0  0  0
 17 33  1  0  0  0  0
 17 34  1  0  0  0  0
 18 19  1  0  0  0  0
 18 35  1  0  0  0  0
 18 36  1  0  0  0  0
 19 37  1  0  0  0  0
 19 38  1  0  0  0  0
M  END
> <s_m_source_file>
AV-unprocessed.smi

> <i_m_source_file_index>
2890

> <i_lp_mmshare_version>
43012

> <i_f3d_flags>
0

> <s_epik_input>
W0NIM11bQ0gyXWMxbm9jKFtDSDJdW0NIM10pYzFbQ0gyXUMoPU8pW05IXUMyKEMjTilbQ0gyXVtDSDJdW0NIMl0y

> <s_epik_cmdline>
J2VwaWtfcHl0aG9uJywgJy1waCcsICc3LjAnLCAnLXRuJywgJzgnLCAnLW1hJywgJzIwMCcsICctbWV0YWxfYmluZGluZycsICctaW1hZScsICc8aW5maWxlLm1hZT4nLCAnLW9tYWUnLCAnPG91dGZpbGUubWFlPic=

> <r_lp_tautomer_probability>
1

> <r_epik_Ionization_Penalty>
5.40968e-07

> <r_epik_Ionization_Penalty_Charging>
0

> <r_epik_Ionization_Penalty_Neutral>
5.40968e-07

> <r_epik_State_Penalty>
-0

> <r_epik_Charging_Adjusted_Penalty>
0

> <i_epik_Tot_Q>
0

> <i_epik_Tot_abs_Q>
0

> <r_epik_Metal_State_Penalty>
-0

> <b_epik_Metal_Only>
0

> <s_lp_Force_Field>
OPLS_2005

> <r_lp_Energy>
4.95517

> <b_lp_Chiralities_Consistent>
1

> <s_lp_Variant>
AV-unprocessed.smi:2890-1

> <Gold.Version>
5.8.1

> <Gold.Id.Protein>
6NUR|6NUR_protein|mol2

> <Gold.PLP.Fitness>
38.8643

> <Gold.PLP.PLP>
-28.3672

> <Gold.PLP.part.hbond>
-4.4289

> <Gold.PLP.part.metal>
0.0000

> <Gold.PLP.part.buried>
-3.3780

> <Gold.PLP.part.nonpolar>
-22.1727

> <Gold.PLP.part.repulsive>
0.0480

> <Gold.PLP.ligand.clash>
0.0000

> <Gold.PLP.ligand.torsion>
0.4637

> <Gold.PLP.Chemscore.Hbond>
3.7244

> <Gold.PLP.Chemscore.CHOScore>
0.0000

> <Gold.PLP.Chemscore.Metal>
0.0000

> <Gold.Chemscore.Hbonds>
donor molecule, donor type, donor heavy atom, donor atom, acceptor molecule, acceptor atom, score
      L1  H    13    32       P1  8028  1.00
      P1  H  6933  6944       L1    16  0.72
      P1  H  6934  6946       L1    16  0.82
      P1  H  7997  8008       L1     4  1.00

> <Gold.PLP.Chemscore.Internal.Correction>
0.2515

> <Gold.Rescore>
     Score         DG    S(hbond)    S(metal)    S(lipo)     H(rot)  DE(clash)    DE(int)     intcor
     14.74     -15.15       1.77        0.00      69.75       1.72       0.03       0.38       ----

> <Gold.Chemscore.Fitness>
14.7420

> <Gold.Chemscore.DG>
-15.1481

> <Gold.Chemscore.ZeroCoef>
-5.4800

> <Gold.Chemscore.Hbond>
1.7697

> <Gold.Chemscore.Metal>
0.0000

> <Gold.Chemscore.Lipo>
69.7516

> <Gold.Chemscore.Internal_Hbond>
0.0000

> <Gold.Chemscore.DEClash>
0.0251

> <Gold.Chemscore.DEInternal>
0.3810

> <Gold.Chemscore.Rot>
1.7202

> <Gold.Chemscore.Internal.Correction>
   9.000000E+99

> <Gold.Chemscore.Hbonds>
donor molecule, donor type, donor heavy atom, donor atom, acceptor molecule, acceptor atom, score
      L1  H    13    32       P1  8028  0.44
      P1  H  6933  6944       L1    16  0.71
      P1  H  6934  6946       L1    16  0.19
      P1  H  7997  8008       L1     4  0.24

> <Gold.Chemscore.Hbond.Weighted>
-5.9110

> <Gold.Chemscore.Metal.Weighted>
-0.0000

> <Gold.Chemscore.Lipo.Weighted>
-8.1609

> <Gold.Chemscore.Internal_Hbond.Weighted>
0.0000

> <Gold.Chemscore.DEClash.Weighted>
0.0251

> <Gold.Chemscore.DEInternal.Weighted>
0.3810

> <Gold.Chemscore.Rot.Weighted>
4.4037

> <Gold.Chemscore.Internal.Correction.Weighted>
   9.000000E+99

> <Gold.Protein.RotatedTorsions>
[ 6907 6896 6895 6894 ] final -162.51 input  -60.11 | X-H torsion
[ 7974 7965 7964 7962 ] final  -84.06 input  175.53 | X-H torsion
[ 8008 7997 7996 7995 ] final  -73.66 input   59.86 | X-H torsion
[ 10167 10162 10161 10158 ] final   94.19 input  -65.29 | X-H torsion
[ 10718 10713 10712 10709 ] final    0.37 input   66.30 | X-H torsion
[ 10763 10752 10751 10750 ] final   63.28 input  -60.55 | X-H torsion
[ 11005 11000 10999 10996 ] final  -52.45 input  -57.11 | X-H torsion

> <Gold.Protein.ActiveResidues>
 VAL166  LYS551  ARG553  GLY616  TRP617  ASP618  TYR619  PRO620  LYS621  CYS622 
 ASP623  PHE694  ASN695  SER759  ASP760  ASP761  ALA762  ILE779  LEU786  VAL792 
 PHE793  MET794  SER795  GLU796  ALA797  LYS798  CYS799  TRP800  GLU811  SER814 

> <Gold.Protein.RotatedAtoms>
  151.3814  133.3820  159.2710 H   0  0  0  0  0  0  0  0  0  0  0  0  # atno 6907 bound_to 6896
  150.9575  134.8968  159.7720 H   0  0  0  0  0  0  0  0  0  0  0  0  # atno 6908 bound_to 6896
  152.5136  134.3772  159.9391 H   0  0  0  0  0  0  0  0  0  0  0  0  # atno 6909 bound_to 6896
  145.5117  140.9539  143.1704 H   0  0  0  0  0  0  0  0  0  0  0  0  # atno 7974 bound_to 7965
  154.5266  140.0775  156.8269 H   0  0  0  0  0  0  0  0  0  0  0  0  # atno 8008 bound_to 7997
  155.3463  140.3410  155.4221 H   0  0  0  0  0  0  0  0  0  0  0  0  # atno 8009 bound_to 7997
  156.1738  140.1628  156.8387 H   0  0  0  0  0  0  0  0  0  0  0  0  # atno 8010 bound_to 7997
  139.8107  144.6775  150.9644 H   0  0  0  0  0  0  0  0  0  0  0  0  # atno 10167 bound_to 10162
  156.8324  130.5493  149.5685 H   0  0  0  0  0  0  0  0  0  0  0  0  # atno 10718 bound_to 10713
  153.0012  135.5434  154.6327 H   0  0  0  0  0  0  0  0  0  0  0  0  # atno 10763 bound_to 10752
  154.5601  135.2833  155.0929 H   0  0  0  0  0  0  0  0  0  0  0  0  # atno 10764 bound_to 10752
  154.2135  135.6463  153.5175 H   0  0  0  0  0  0  0  0  0  0  0  0  # atno 10765 bound_to 10752
  141.0925  133.6630  156.4026 H   0  0  0  0  0  0  0  0  0  0  0  0  # atno 11005 bound_to 11000
  144.7724  139.6706  143.7189 LP  0  0  0  0  0  0  0  0  0  0  0  0  # atno 17320 bound_to 7965
  146.2162  139.5554  142.9648 LP  0  0  0  0  0  0  0  0  0  0  0  0  # atno 17321 bound_to 7965
  140.7818  143.4188  151.0874 LP  0  0  0  0  0  0  0  0  0  0  0  0  # atno 17342 bound_to 10162
  139.7855  143.8294  152.3144 LP  0  0  0  0  0  0  0  0  0  0  0  0  # atno 17343 bound_to 10162
  156.0927  130.5908  150.9760 LP  0  0  0  0  0  0  0  0  0  0  0  0  # atno 17370 bound_to 10713
  157.6400  131.0911  150.8271 LP  0  0  0  0  0  0  0  0  0  0  0  0  # atno 17371 bound_to 10713
  140.5218  134.6296  157.5321 LP  0  0  0  0  0  0  0  0  0  0  0  0  # atno 17394 bound_to 11000
  139.9754  134.7224  155.9960 LP  0  0  0  0  0  0  0  0  0  0  0  0  # atno 17395 bound_to 11000

$$$$
