AV-unprocessed.smi:2137|AV-procd|sdf|8707|dock8
  -GOLD-   2272011473D 1   1.00000     0.00000
 Structure written by MMmdl.
 50 51  0  0  0  0  0  0  0  0  2 V2000
  146.5078  133.9135  151.0125 C   0  0  0  0  0  0  0  0  0  0  0  0
  146.2543  133.4485  152.4572 C   0  0  1  0  0  0  0  0  0  0  0  0
  147.3561  132.5118  152.9859 C   0  0  0  0  0  0  0  0  0  0  0  0
  148.6402  133.2887  153.3089 C   0  0  0  0  0  0  0  0  0  0  0  0
  148.3505  134.4665  154.2529 C   0  0  0  0  0  0  0  0  0  0  0  0
  147.3131  135.3649  153.6845 N   0  3  2  0  0  0  0  0  0  0  0  0
  147.1240  136.5935  154.4965 C   0  0  0  0  0  0  0  0  0  0  0  0
  146.1154  137.5644  153.8599 C   0  0  0  0  0  0  0  0  0  0  0  0
  146.7027  138.3071  152.6482 C   0  0  0  0  0  0  0  0  0  0  0  0
  147.6656  139.3222  153.0589 N   0  0  0  0  0  0  0  0  0  0  0  0
  147.4894  140.1841  154.0718 C   0  0  0  0  0  0  0  0  0  0  0  0
  146.4876  140.1859  154.7888 O   0  0  0  0  0  0  0  0  0  0  0  0
  148.6274  141.1849  154.3136 C   0  0  0  0  0  0  0  0  0  0  0  0
  149.8245  140.5617  154.8934 N   0  0  0  0  0  0  0  0  0  0  0  0
  150.4223  139.4940  154.2483 C   0  0  0  0  0  0  0  0  0  0  0  0
  151.5152  138.8556  154.7205 C   0  0  0  0  0  0  0  0  0  0  0  0
  152.1430  139.2714  155.9686 C   0  0  0  0  0  0  0  0  0  0  0  0
  153.1255  138.7059  156.4502 O   0  0  0  0  0  0  0  0  0  0  0  0
  151.5236  140.3762  156.5992 N   0  0  0  0  0  0  0  0  0  0  0  0
  152.0839  140.8296  157.8556 C   0  0  0  0  0  0  0  0  0  0  0  0
  150.3686  141.0286  156.1100 C   0  0  0  0  0  0  0  0  0  0  0  0
  149.8372  141.9643  156.7132 O   0  0  0  0  0  0  0  0  0  0  0  0
  146.0431  134.6340  153.4214 C   0  0  0  0  0  0  0  0  0  0  0  0
  147.4074  134.5236  150.9317 H   0  0  0  0  0  0  0  0  0  0  0  0
  145.6731  134.5096  150.6428 H   0  0  0  0  0  0  0  0  0  0  0  0
  146.6229  133.0618  150.3414 H   0  0  0  0  0  0  0  0  0  0  0  0
  145.3261  132.8759  152.4357 H   0  0  0  0  0  0  0  0  0  0  0  0
  147.0025  132.0182  153.8921 H   0  0  0  0  0  0  0  0  0  0  0  0
  147.5632  131.7176  152.2675 H   0  0  0  0  0  0  0  0  0  0  0  0
  149.3722  132.6205  153.7635 H   0  0  0  0  0  0  0  0  0  0  0  0
  149.0948  133.6573  152.3887 H   0  0  0  0  0  0  0  0  0  0  0  0
  148.0217  134.0991  155.2266 H   0  0  0  0  0  0  0  0  0  0  0  0
  149.2741  135.0229  154.4185 H   0  0  0  0  0  0  0  0  0  0  0  0
  146.8220  136.3268  155.5103 H   0  0  0  0  0  0  0  0  0  0  0  0
  148.0777  137.1155  154.5876 H   0  0  0  0  0  0  0  0  0  0  0  0
  145.2267  137.0128  153.5501 H   0  0  0  0  0  0  0  0  0  0  0  0
  145.7821  138.2945  154.5967 H   0  0  0  0  0  0  0  0  0  0  0  0
  147.1738  137.6044  151.9588 H   0  0  0  0  0  0  0  0  0  0  0  0
  145.9064  138.8021  152.0917 H   0  0  0  0  0  0  0  0  0  0  0  0
  148.5219  139.3840  152.5268 H   0  0  0  0  0  0  0  0  0  0  0  0
  148.8735  141.6551  153.3607 H   0  0  0  0  0  0  0  0  0  0  0  0
  148.2817  141.9931  154.9610 H   0  0  0  0  0  0  0  0  0  0  0  0
  149.9916  139.1449  153.3210 H   0  0  0  0  0  0  0  0  0  0  0  0
  151.9284  138.0235  154.1692 H   0  0  0  0  0  0  0  0  0  0  0  0
  151.8592  141.8865  158.0041 H   0  0  0  0  0  0  0  0  0  0  0  0
  153.1688  140.7188  157.8248 H   0  0  0  0  0  0  0  0  0  0  0  0
  151.6411  140.2141  158.6397 H   0  0  0  0  0  0  0  0  0  0  0  0
  145.2907  135.3035  153.0063 H   0  0  0  0  0  0  0  0  0  0  0  0
  145.6410  134.2705  154.3685 H   0  0  0  0  0  0  0  0  0  0  0  0
  147.6673  135.6687  152.7886 H   0  0  0  0  0  0  0  0  0  0  0  0
  1  2  1  0  0  0  0
  1 24  1  0  0  0  0
  1 25  1  0  0  0  0
  1 26  1  0  0  0  0
  2 23  1  0  0  0  0
  2  3  1  0  0  0  0
  2 27  1  0  0  0  0
  3  4  1  0  0  0  0
  3 28  1  0  0  0  0
  3 29  1  0  0  0  0
  4  5  1  0  0  0  0
  4 30  1  0  0  0  0
  4 31  1  0  0  0  0
  5  6  1  0  0  0  0
  5 32  1  0  0  0  0
  5 33  1  0  0  0  0
  6  7  1  0  0  0  0
  6 23  1  0  0  0  0
  6 50  1  0  0  0  0
  7  8  1  0  0  0  0
  7 34  1  0  0  0  0
  7 35  1  0  0  0  0
  8  9  1  0  0  0  0
  8 36  1  0  0  0  0
  8 37  1  0  0  0  0
  9 10  1  0  0  0  0
  9 38  1  0  0  0  0
  9 39  1  0  0  0  0
 10 11  1  0  0  0  0
 10 40  1  0  0  0  0
 11 12  2  0  0  0  0
 11 13  1  0  0  0  0
 13 14  1  0  0  0  0
 13 41  1  0  0  0  0
 13 42  1  0  0  0  0
 14 21  1  0  0  0  0
 14 15  1  0  0  0  0
 15 16  2  0  0  0  0
 15 43  1  0  0  0  0
 16 17  1  0  0  0  0
 16 44  1  0  0  0  0
 17 18  2  0  0  0  0
 17 19  1  0  0  0  0
 19 20  1  0  0  0  0
 19 21  1  0  0  0  0
 20 45  1  0  0  0  0
 20 46  1  0  0  0  0
 20 47  1  0  0  0  0
 21 22  2  0  0  0  0
 23 48  1  0  0  0  0
 23 49  1  0  0  0  0
M  CHG  1   6   1
M  END
> <s_m_source_file>
AV-unprocessed.smi

> <i_m_source_file_index>
2137

> <i_lp_mmshare_version>
43012

> <i_f3d_flags>
0

> <s_epik_input>
W0NIM11bQ0BASF0xW0NIMl1bQ0gyXVtDSDJdTihbQ0gyXTEpW0NIMl1bQ0gyXVtDSDJdW05IXUMoPU8pW0NIMl1uMltjSF1bY0hdYyg9TyluKFtDSDNdKWMyPU8=

> <s_epik_cmdline>
J2VwaWtfcHl0aG9uJywgJy1waCcsICc3LjAnLCAnLXRuJywgJzgnLCAnLW1hJywgJzIwMCcsICctbWV0YWxfYmluZGluZycsICctaW1hZScsICc8aW5maWxlLm1hZT4nLCAnLW9tYWUnLCAnPG91dGZpbGUubWFlPic=

> <r_lp_tautomer_probability>
1

> <r_epik_Ionization_Penalty>
0.000384839

> <r_epik_Ionization_Penalty_Charging>
0.000384812

> <r_epik_Ionization_Penalty_Neutral>
2.6907e-08

> <r_epik_State_Penalty>
0.000235226

> <r_epik_Charging_Adjusted_Penalty>
0.000620038

> <i_epik_Tot_Q>
1

> <i_epik_Tot_abs_Q>
1

> <r_epik_Metal_State_Penalty>
-0

> <b_epik_Metal_Only>
0

> <s_lp_Force_Field>
OPLS_2005

> <r_lp_Energy>
27.4749

> <b_lp_Chiralities_Consistent>
1

> <s_lp_Variant>
AV-unprocessed.smi:2137-2

> <Gold.Version>
5.8.1

> <Gold.Id.Protein>
6NUR|6NUR_protein|mol2

> <Gold.PLP.Fitness>
51.6684

> <Gold.PLP.PLP>
-37.3490

> <Gold.PLP.part.hbond>
-3.0000

> <Gold.PLP.part.metal>
0.0000

> <Gold.PLP.part.buried>
0.1649

> <Gold.PLP.part.nonpolar>
-33.9672

> <Gold.PLP.part.repulsive>
0.6932

> <Gold.PLP.ligand.clash>
0.0000

> <Gold.PLP.ligand.torsion>
0.3572

> <Gold.PLP.Chemscore.Hbond>
4.0000

> <Gold.PLP.Chemscore.CHOScore>
1.0000

> <Gold.PLP.Chemscore.Metal>
0.0000

> <Gold.Chemscore.Hbonds>
donor molecule, donor type, donor heavy atom, donor atom, acceptor molecule, acceptor atom, score
      L1  H     6    50       P1  7948  1.98
      L1  H    10    40       P1  7957  1.00
      P1  H  7997  8010       L1    18  1.00
      L1  C    15    43       P1  7957  1.00

> <Gold.PLP.Chemscore.Internal.Correction>
0.0339

> <Gold.Rescore>
     Score         DG    S(hbond)    S(metal)    S(lipo)     H(rot)  DE(clash)    DE(int)     intcor
     14.00     -17.28       2.81        0.00      70.36       2.27       0.56       2.72       ----

> <Gold.Chemscore.Fitness>
14.0038

> <Gold.Chemscore.DG>
-17.2833

> <Gold.Chemscore.ZeroCoef>
-5.4800

> <Gold.Chemscore.Hbond>
2.8126

> <Gold.Chemscore.Metal>
0.0000

> <Gold.Chemscore.Lipo>
70.3631

> <Gold.Chemscore.Internal_Hbond>
0.0000

> <Gold.Chemscore.DEClash>
0.5557

> <Gold.Chemscore.DEInternal>
2.7238

> <Gold.Chemscore.Rot>
2.2748

> <Gold.Chemscore.Internal.Correction>
   9.000000E+99

> <Gold.Chemscore.Hbonds>
donor molecule, donor type, donor heavy atom, donor atom, acceptor molecule, acceptor atom, score
      L1  H     6    50       P1  7948  0.94
      L1  H    10    40       P1  7957  0.98
      P1  H  7997  8010       L1    18  0.34

> <Gold.Chemscore.Hbond.Weighted>
-9.3942

> <Gold.Chemscore.Metal.Weighted>
-0.0000

> <Gold.Chemscore.Lipo.Weighted>
-8.2325

> <Gold.Chemscore.Internal_Hbond.Weighted>
0.0000

> <Gold.Chemscore.DEClash.Weighted>
0.5557

> <Gold.Chemscore.DEInternal.Weighted>
2.7238

> <Gold.Chemscore.Rot.Weighted>
5.8234

> <Gold.Chemscore.Internal.Correction.Weighted>
   9.000000E+99

> <Gold.Protein.RotatedTorsions>
[ 6907 6896 6895 6894 ] final -161.14 input  -60.11 | X-H torsion
[ 7974 7965 7964 7962 ] final   37.15 input  175.53 | X-H torsion
[ 8008 7997 7996 7995 ] final   69.02 input   59.86 | X-H torsion
[ 10167 10162 10161 10158 ] final  -55.43 input  -65.29 | X-H torsion
[ 10718 10713 10712 10709 ] final -147.69 input   66.30 | X-H torsion
[ 10763 10752 10751 10750 ] final  -26.40 input  -60.55 | X-H torsion
[ 11005 11000 10999 10996 ] final  -36.02 input  -57.11 | X-H torsion

> <Gold.Protein.ActiveResidues>
 VAL166  LYS551  ARG553  GLY616  TRP617  ASP618  TYR619  PRO620  LYS621  CYS622 
 ASP623  PHE694  ASN695  SER759  ASP760  ASP761  ALA762  ILE779  LEU786  VAL792 
 PHE793  MET794  SER795  GLU796  ALA797  LYS798  CYS799  TRP800  GLU811  SER814 

> <Gold.Protein.RotatedAtoms>
  151.3600  133.3893  159.2688 H   0  0  0  0  0  0  0  0  0  0  0  0  # atno 6907 bound_to 6896
  150.9733  134.9103  159.7811 H   0  0  0  0  0  0  0  0  0  0  0  0  # atno 6908 bound_to 6896
  152.5192  134.3562  159.9321 H   0  0  0  0  0  0  0  0  0  0  0  0  # atno 6909 bound_to 6896
  146.1158  139.5929  142.9322 H   0  0  0  0  0  0  0  0  0  0  0  0  # atno 7974 bound_to 7965
  155.7172  140.3493  155.5000 H   0  0  0  0  0  0  0  0  0  0  0  0  # atno 8008 bound_to 7997
  155.9303  140.1083  157.1159 H   0  0  0  0  0  0  0  0  0  0  0  0  # atno 8009 bound_to 7997
  154.4084  140.1232  156.4780 H   0  0  0  0  0  0  0  0  0  0  0  0  # atno 8010 bound_to 7997
  140.6375  143.2490  151.5079 H   0  0  0  0  0  0  0  0  0  0  0  0  # atno 10167 bound_to 10162
  156.4107  130.7980  151.2197 H   0  0  0  0  0  0  0  0  0  0  0  0  # atno 10718 bound_to 10713
  153.7154  135.6948  153.5026 H   0  0  0  0  0  0  0  0  0  0  0  0  # atno 10763 bound_to 10752
  153.2242  135.4359  155.0522 H   0  0  0  0  0  0  0  0  0  0  0  0  # atno 10764 bound_to 10752
  154.8301  135.3468  154.6689 H   0  0  0  0  0  0  0  0  0  0  0  0  # atno 10765 bound_to 10752
  140.9842  133.7040  156.1736 H   0  0  0  0  0  0  0  0  0  0  0  0  # atno 11005 bound_to 11000
  145.5569  141.0408  143.2248 LP  0  0  0  0  0  0  0  0  0  0  0  0  # atno 17320 bound_to 7965
  144.7552  139.7092  143.7257 LP  0  0  0  0  0  0  0  0  0  0  0  0  # atno 17321 bound_to 7965
  139.5585  144.2216  152.1652 LP  0  0  0  0  0  0  0  0  0  0  0  0  # atno 17342 bound_to 10162
  140.1477  144.5144  150.6706 LP  0  0  0  0  0  0  0  0  0  0  0  0  # atno 17343 bound_to 10162
  157.7507  131.0258  150.3936 LP  0  0  0  0  0  0  0  0  0  0  0  0  # atno 17370 bound_to 10713
  156.4234  130.3957  149.6809 LP  0  0  0  0  0  0  0  0  0  0  0  0  # atno 17371 bound_to 10713
  140.7140  134.4431  157.5580 LP  0  0  0  0  0  0  0  0  0  0  0  0  # atno 17394 bound_to 11000
  139.8963  134.8662  156.2093 LP  0  0  0  0  0  0  0  0  0  0  0  0  # atno 17395 bound_to 11000

$$$$
