AV-unprocessed.smi:2226|AV-procd|sdf|9007|dock2
  -GOLD-   2272012213D 1   1.00000     0.00000
 Structure written by MMmdl.
 41 43  0  0  0  0  0  0  0  0  3 V2000
  145.9940  142.1557  155.1453 C   0  0  0  0  0  0  0  0  0  0  0  0
  146.0527  140.9556  154.2771 N   0  3  2  0  0  0  0  0  0  0  0  0
  146.1411  139.6646  155.0021 C   0  0  2  0  0  0  0  0  0  0  0  0
  147.5223  139.4960  155.6852 C   0  0  0  0  0  0  0  0  0  0  0  0
  148.7209  139.7206  154.7434 C   0  0  0  0  0  0  0  0  0  0  0  0
  148.5096  140.9137  153.7917 C   0  0  0  0  0  0  0  0  0  0  0  0
  147.0776  141.0099  153.2062 C   0  0  1  0  0  0  0  0  0  0  0  0
  146.7406  139.9444  152.1368 C   0  0  0  0  0  0  0  0  0  0  0  0
  146.5282  138.5178  152.6990 C   0  0  2  0  0  0  0  0  0  0  0  0
  145.7999  137.7142  151.7171 N   0  0  0  0  0  0  0  0  0  0  0  0
  145.5502  136.3982  151.8080 C   0  0  0  0  0  0  0  0  0  0  0  0
  145.9133  135.6944  152.7508 O   0  0  0  0  0  0  0  0  0  0  0  0
  144.8596  135.9510  150.7478 N   0  0  0  0  0  0  0  0  0  0  0  0
  144.4409  134.6163  150.5413 C   0  0  0  0  0  0  0  0  0  0  0  0
  144.5412  133.9748  149.3781 N   0  3  0  0  0  0  0  0  0  0  0  0
  144.0435  132.7045  149.5316 C   0  0  0  0  0  0  0  0  0  0  0  0
  143.6407  132.6170  150.8427 C   0  0  0  0  0  0  0  0  0  0  0  0
  143.8841  133.8114  151.4905 O   0  0  0  0  0  0  0  0  0  0  0  0
  145.7500  138.5210  154.0369 C   0  0  0  0  0  0  0  0  0  0  0  0
  146.9068  142.2938  155.7243 H   0  0  0  0  0  0  0  0  0  0  0  0
  145.1605  142.0784  155.8438 H   0  0  0  0  0  0  0  0  0  0  0  0
  145.8375  143.0518  154.5441 H   0  0  0  0  0  0  0  0  0  0  0  0
  145.3881  139.6736  155.7917 H   0  0  0  0  0  0  0  0  0  0  0  0
  147.5951  140.2060  156.5093 H   0  0  0  0  0  0  0  0  0  0  0  0
  147.5960  138.5107  156.1467 H   0  0  0  0  0  0  0  0  0  0  0  0
  149.6210  139.8856  155.3364 H   0  0  0  0  0  0  0  0  0  0  0  0
  148.9340  138.8174  154.1783 H   0  0  0  0  0  0  0  0  0  0  0  0
  148.7273  141.8318  154.3382 H   0  0  0  0  0  0  0  0  0  0  0  0
  149.2437  140.8772  152.9864 H   0  0  0  0  0  0  0  0  0  0  0  0
  146.9935  141.9796  152.7132 H   0  0  0  0  0  0  0  0  0  0  0  0
  145.8237  140.2628  151.6374 H   0  0  0  0  0  0  0  0  0  0  0  0
  147.5082  139.9303  151.3621 H   0  0  0  0  0  0  0  0  0  0  0  0
  147.5022  138.0675  152.8692 H   0  0  0  0  0  0  0  0  0  0  0  0
  145.4588  138.2034  150.9022 H   0  0  0  0  0  0  0  0  0  0  0  0
  144.9143  134.3260  148.5049 H   0  0  0  0  0  0  0  0  0  0  0  0
  144.0257  132.0032  148.7096 H   0  0  0  0  0  0  0  0  0  0  0  0
  143.1923  131.8325  151.4351 H   0  0  0  0  0  0  0  0  0  0  0  0
  145.8555  137.5551  154.5328 H   0  0  0  0  0  0  0  0  0  0  0  0
  144.6853  138.6267  153.8212 H   0  0  0  0  0  0  0  0  0  0  0  0
  145.1613  140.9425  153.8024 H   0  0  0  0  0  0  0  0  0  0  0  0
  144.6132  136.6171  150.0306 H   0  0  0  0  0  0  0  0  0  0  0  0
  1  2  1  0  0  0  0
  1 20  1  0  0  0  0
  1 21  1  0  0  0  0
  1 22  1  0  0  0  0
  2  7  1  0  0  0  0
  2  3  1  0  0  0  0
  2 40  1  0  0  0  0
  3 19  1  0  0  0  0
  3  4  1  0  0  0  0
  3 23  1  0  0  0  0
  4  5  1  0  0  0  0
  4 24  1  0  0  0  0
  4 25  1  0  0  0  0
  5  6  1  0  0  0  0
  5 26  1  0  0  0  0
  5 27  1  0  0  0  0
  6  7  1  0  0  0  0
  6 28  1  0  0  0  0
  6 29  1  0  0  0  0
  7  8  1  0  0  0  0
  7 30  1  0  0  0  0
  8  9  1  0  0  0  0
  8 31  1  0  0  0  0
  8 32  1  0  0  0  0
  9 10  1  0  0  0  0
  9 19  1  0  0  0  0
  9 33  1  0  0  0  0
 10 34  1  0  0  0  0
 10 11  1  0  0  0  0
 11 13  1  0  0  0  0
 11 12  2  0  0  0  0
 13 14  1  0  0  0  0
 13 41  1  0  0  0  0
 14 18  1  0  0  0  0
 14 15  2  0  0  0  0
 15 35  1  0  0  0  0
 15 16  1  0  0  0  0
 16 36  1  0  0  0  0
 16 17  2  0  0  0  0
 17 37  1  0  0  0  0
 17 18  1  0  0  0  0
 19 38  1  0  0  0  0
 19 39  1  0  0  0  0
M  CHG  1   2   1
M  CHG  1  15   1
M  END
> <s_m_source_file>
AV-unprocessed.smi

> <i_m_source_file_index>
2226

> <i_lp_mmshare_version>
43012

> <i_f3d_flags>
0

> <s_epik_input>
W0NIMl0xW0NIMl1bQ0gyXVtDQEhdKE4oW0NIM10pW0NIXTEyKVtDSDJdW0NASF0oW0NIMl0yKVtOSF1DKD1PKVtOSF1jM25bY0hdW2NIXW8z

> <s_epik_cmdline>
J2VwaWtfcHl0aG9uJywgJy1waCcsICc3LjAnLCAnLXRuJywgJzgnLCAnLW1hJywgJzIwMCcsICctbWV0YWxfYmluZGluZycsICctaW1hZScsICc8aW5maWxlLm1hZT4nLCAnLW9tYWUnLCAnPG91dGZpbGUubWFlPic=

> <r_epik_Ionization_Penalty>
6.92532

> <r_epik_Ionization_Penalty_Charging>
6.82059

> <r_epik_Ionization_Penalty_Neutral>
0.104727

> <r_epik_State_Penalty>
2.17671

> <r_epik_Charging_Adjusted_Penalty>
8.99731

> <i_epik_Tot_Q>
2

> <i_epik_Tot_abs_Q>
2

> <r_epik_Metal_State_Penalty>
2.20618

> <b_epik_Metal_Only>
0

> <s_lp_Force_Field>
OPLS_2005

> <r_lp_Energy>
46.5098

> <b_lp_Chiralities_Consistent>
1

> <s_lp_Variant>
AV-unprocessed.smi:2226-7

> <Gold.Version>
5.8.1

> <Gold.Id.Protein>
6NUR|6NUR_protein|mol2

> <Gold.PLP.Fitness>
43.8283

> <Gold.PLP.PLP>
-30.6633

> <Gold.PLP.part.hbond>
-3.7710

> <Gold.PLP.part.metal>
0.0000

> <Gold.PLP.part.buried>
-2.6235

> <Gold.PLP.part.nonpolar>
-25.8835

> <Gold.PLP.part.repulsive>
0.4972

> <Gold.PLP.ligand.clash>
0.0000

> <Gold.PLP.ligand.torsion>
0.3873

> <Gold.PLP.Chemscore.Hbond>
4.6446

> <Gold.PLP.Chemscore.CHOScore>
0.0000

> <Gold.PLP.Chemscore.Metal>
0.0000

> <Gold.Chemscore.Hbonds>
donor molecule, donor type, donor heavy atom, donor atom, acceptor molecule, acceptor atom, score
      L1  H     2    40       P1 10175  2.00
      L1  H    10    34       P1 10171  0.91
      L1  H    13    41       P1 10171  0.69
      L1  H    15    35       P1  7921  1.00

> <Gold.PLP.Chemscore.Internal.Correction>
0.0060

> <Gold.Rescore>
     Score         DG    S(hbond)    S(metal)    S(lipo)     H(rot)  DE(clash)    DE(int)     intcor
     20.80     -22.66       3.53        0.00      67.78       1.00       1.38       0.47       ----

> <Gold.Chemscore.Fitness>
20.8024

> <Gold.Chemscore.DG>
-22.6567

> <Gold.Chemscore.ZeroCoef>
-5.4800

> <Gold.Chemscore.Hbond>
3.5347

> <Gold.Chemscore.Metal>
0.0000

> <Gold.Chemscore.Lipo>
67.7847

> <Gold.Chemscore.Internal_Hbond>
0.0000

> <Gold.Chemscore.DEClash>
1.3817

> <Gold.Chemscore.DEInternal>
0.4725

> <Gold.Chemscore.Rot>
1.0000

> <Gold.Chemscore.Internal.Correction>
   9.000000E+99

> <Gold.Chemscore.Hbonds>
donor molecule, donor type, donor heavy atom, donor atom, acceptor molecule, acceptor atom, score
      L1  H     2    40       P1 10175  0.80
      L1  H    10    34       P1 10171  0.88
      L1  H    13    41       P1 10171  0.68
      L1  H    15    35       P1  7921  0.92

> <Gold.Chemscore.Hbond.Weighted>
-11.8059

> <Gold.Chemscore.Metal.Weighted>
-0.0000

> <Gold.Chemscore.Lipo.Weighted>
-7.9308

> <Gold.Chemscore.Internal_Hbond.Weighted>
0.0000

> <Gold.Chemscore.DEClash.Weighted>
1.3817

> <Gold.Chemscore.DEInternal.Weighted>
0.4725

> <Gold.Chemscore.Rot.Weighted>
2.5600

> <Gold.Chemscore.Internal.Correction.Weighted>
   9.000000E+99

> <Gold.Protein.RotatedTorsions>
[ 6907 6896 6895 6894 ] final   46.56 input  -60.11 | X-H torsion
[ 7974 7965 7964 7962 ] final  -25.19 input  175.53 | X-H torsion
[ 8008 7997 7996 7995 ] final   72.21 input   59.86 | X-H torsion
[ 10167 10162 10161 10158 ] final   94.52 input  -65.29 | X-H torsion
[ 10718 10713 10712 10709 ] final  -46.73 input   66.30 | X-H torsion
[ 10763 10752 10751 10750 ] final   28.25 input  -60.55 | X-H torsion
[ 11005 11000 10999 10996 ] final -108.63 input  -57.11 | X-H torsion

> <Gold.Protein.ActiveResidues>
 VAL166  LYS551  ARG553  GLY616  TRP617  ASP618  TYR619  PRO620  LYS621  CYS622 
 ASP623  PHE694  ASN695  SER759  ASP760  ASP761  ALA762  ILE779  LEU786  VAL792 
 PHE793  MET794  SER795  GLU796  ALA797  LYS798  CYS799  TRP800  GLU811  SER814 

> <Gold.Protein.RotatedAtoms>
  152.2579  134.8065  160.0435 H   0  0  0  0  0  0  0  0  0  0  0  0  # atno 6907 bound_to 6896
  151.8722  133.3473  159.3747 H   0  0  0  0  0  0  0  0  0  0  0  0  # atno 6908 bound_to 6896
  150.7106  134.5028  159.5614 H   0  0  0  0  0  0  0  0  0  0  0  0  # atno 6909 bound_to 6896
  146.1507  140.4853  142.8612 H   0  0  0  0  0  0  0  0  0  0  0  0  # atno 7974 bound_to 7965
  155.7654  140.3485  155.5219 H   0  0  0  0  0  0  0  0  0  0  0  0  # atno 8008 bound_to 7997
  155.8873  140.1012  157.1464 H   0  0  0  0  0  0  0  0  0  0  0  0  # atno 8009 bound_to 7997
  154.4030  140.1311  156.4259 H   0  0  0  0  0  0  0  0  0  0  0  0  # atno 8010 bound_to 7997
  139.8075  144.6787  150.9683 H   0  0  0  0  0  0  0  0  0  0  0  0  # atno 10167 bound_to 10162
  156.2154  130.4163  149.9060 H   0  0  0  0  0  0  0  0  0  0  0  0  # atno 10718 bound_to 10713
  153.0503  135.6517  154.0710 H   0  0  0  0  0  0  0  0  0  0  0  0  # atno 10763 bound_to 10752
  154.0399  135.2904  155.3358 H   0  0  0  0  0  0  0  0  0  0  0  0  # atno 10764 bound_to 10752
  154.6788  135.5328  153.8301 H   0  0  0  0  0  0  0  0  0  0  0  0  # atno 10765 bound_to 10752
  141.0891  133.9086  157.2117 H   0  0  0  0  0  0  0  0  0  0  0  0  # atno 11005 bound_to 11000
  144.7900  140.6013  143.6548 LP  0  0  0  0  0  0  0  0  0  0  0  0  # atno 17320 bound_to 7965
  145.4830  139.1494  143.3751 LP  0  0  0  0  0  0  0  0  0  0  0  0  # atno 17321 bound_to 7965
  140.7819  143.4218  151.0829 LP  0  0  0  0  0  0  0  0  0  0  0  0  # atno 17342 bound_to 10162
  139.7887  143.8250  152.3148 LP  0  0  0  0  0  0  0  0  0  0  0  0  # atno 17343 bound_to 10162
  156.6725  130.8826  151.3564 LP  0  0  0  0  0  0  0  0  0  0  0  0  # atno 17370 bound_to 10713
  157.7060  130.9386  150.0934 LP  0  0  0  0  0  0  0  0  0  0  0  0  # atno 17371 bound_to 10713
  139.9714  135.0127  156.9521 LP  0  0  0  0  0  0  0  0  0  0  0  0  # atno 17394 bound_to 11000
  140.5293  134.0829  155.7312 LP  0  0  0  0  0  0  0  0  0  0  0  0  # atno 17395 bound_to 11000

$$$$
