AV-unprocessed.smi:193|AV-procd|sdf|1515|dock2
  -GOLD-   2262019353D 1   1.00000     0.00000
 Structure written by MMmdl.
 61 65  0  0  0  0  0  0  0  0  1 V2000
  150.4328  140.3366  156.3321 C   0  0  0  0  0  0  0  0  0  0  0  0
  151.1934  140.6277  157.6351 C   0  0  1  0  0  0  0  0  0  0  0  0
  152.4203  139.6954  157.7296 C   0  0  0  0  0  0  0  0  0  0  0  0
  152.9907  139.5707  159.0721 N   0  0  0  0  0  0  0  0  0  0  0  0
  153.5945  138.3991  159.4110 C   0  0  0  0  0  0  0  0  0  0  0  0
  153.3680  137.8769  160.6464 N   0  0  0  0  0  0  0  0  0  0  0  0
  153.9400  136.7281  161.0164 C   0  0  0  0  0  0  0  0  0  0  0  0
  154.7650  135.9453  160.3201 N   0  0  0  0  0  0  0  0  0  0  0  0
  155.0019  136.4590  159.0797 C   0  0  0  0  0  0  0  0  0  0  0  0
  154.4618  137.6653  158.5465 C   0  0  0  0  0  0  0  0  0  0  0  0
  154.9434  137.8590  157.2556 N   0  0  0  0  0  0  0  0  0  0  0  0
  155.7132  136.8288  157.0380 C   0  0  0  0  0  0  0  0  0  0  0  0
  155.8142  135.9425  158.0851 N   0  0  0  0  0  0  0  0  0  0  0  0
  156.6110  134.7255  158.1213 C   0  0  0  0  0  0  0  0  0  0  0  0
  155.7708  133.4337  158.2791 C   0  0  0  0  0  0  0  0  0  0  0  0
  156.6296  132.3315  158.0399 O   0  0  0  0  0  0  0  0  0  0  0  0
  155.1669  133.2852  159.6930 C   0  0  0  0  0  0  0  0  0  0  0  0
  154.1780  132.1094  159.7794 C   0  0  0  0  0  0  0  0  0  0  0  0
  153.1645  132.2468  158.7906 O   0  0  0  0  0  0  0  0  0  0  0  0
  153.6798  132.2105  157.4652 C   0  0  0  0  0  0  0  0  0  0  0  0
  154.6340  133.3969  157.2383 C   0  0  0  0  0  0  0  0  0  0  0  0
  152.7819  140.5996  160.0919 C   0  0  0  0  0  0  0  0  0  0  0  0
  153.0724  142.0135  159.5709 C   0  0  0  0  0  0  0  0  0  0  0  0
  151.8637  142.6190  159.0195 N   0  0  0  0  0  0  0  0  0  0  0  0
  152.0712  144.0585  158.9357 C   0  0  1  0  0  0  0  0  0  0  0  0
  150.9503  144.9606  159.4027 C   0  0  0  0  0  0  0  0  0  0  0  0
  152.2132  144.8504  160.2233 C   0  0  1  0  0  0  0  0  0  0  0  0
  152.1776  144.2012  161.5936 C   0  0  0  0  0  0  0  0  0  0  0  0
  151.5932  142.1196  157.6723 C   0  0  0  0  0  0  0  0  0  0  0  0
  151.0568  140.5265  155.4582 H   0  0  0  0  0  0  0  0  0  0  0  0
  149.5415  140.9590  156.2472 H   0  0  0  0  0  0  0  0  0  0  0  0
  150.1069  139.2969  156.2891 H   0  0  0  0  0  0  0  0  0  0  0  0
  150.5028  140.4115  158.4518 H   0  0  0  0  0  0  0  0  0  0  0  0
  152.1153  138.7014  157.3996 H   0  0  0  0  0  0  0  0  0  0  0  0
  153.1964  140.0276  157.0394 H   0  0  0  0  0  0  0  0  0  0  0  0
  153.7047  136.3892  162.0147 H   0  0  0  0  0  0  0  0  0  0  0  0
  156.2415  136.6912  156.1058 H   0  0  0  0  0  0  0  0  0  0  0  0
  157.1986  134.6786  157.2035 H   0  0  0  0  0  0  0  0  0  0  0  0
  157.3306  134.8127  158.9368 H   0  0  0  0  0  0  0  0  0  0  0  0
  156.6886  131.8197  158.8324 H   0  0  0  0  0  0  0  0  0  0  0  0
  155.9498  133.1599  160.4419 H   0  0  0  0  0  0  0  0  0  0  0  0
  154.6374  134.2022  159.9549 H   0  0  0  0  0  0  0  0  0  0  0  0
  154.6919  131.1544  159.6595 H   0  0  0  0  0  0  0  0  0  0  0  0
  153.7076  132.0913  160.7625 H   0  0  0  0  0  0  0  0  0  0  0  0
  154.1827  131.2592  157.2846 H   0  0  0  0  0  0  0  0  0  0  0  0
  152.8468  132.2632  156.7641 H   0  0  0  0  0  0  0  0  0  0  0  0
  154.0565  134.3203  157.3021 H   0  0  0  0  0  0  0  0  0  0  0  0
  155.0412  133.3620  156.2270 H   0  0  0  0  0  0  0  0  0  0  0  0
  151.7755  140.5249  160.5060 H   0  0  0  0  0  0  0  0  0  0  0  0
  153.4646  140.4292  160.9250 H   0  0  0  0  0  0  0  0  0  0  0  0
  153.3849  142.6113  160.4284 H   0  0  0  0  0  0  0  0  0  0  0  0
  153.9040  142.0328  158.8646 H   0  0  0  0  0  0  0  0  0  0  0  0
  152.6459  144.4435  158.0946 H   0  0  0  0  0  0  0  0  0  0  0  0
  150.7885  145.8849  158.8521 H   0  0  0  0  0  0  0  0  0  0  0  0
  150.0497  144.4917  159.7952 H   0  0  0  0  0  0  0  0  0  0  0  0
  152.8888  145.7020  160.1720 H   0  0  0  0  0  0  0  0  0  0  0  0
  151.4521  143.3878  161.6252 H   0  0  0  0  0  0  0  0  0  0  0  0
  151.8993  144.9380  162.3469 H   0  0  0  0  0  0  0  0  0  0  0  0
  153.1602  143.8017  161.8446 H   0  0  0  0  0  0  0  0  0  0  0  0
  152.4427  142.3079  157.0136 H   0  0  0  0  0  0  0  0  0  0  0  0
  150.7632  142.7038  157.2724 H   0  0  0  0  0  0  0  0  0  0  0  0
  1  2  1  0  0  0  0
  1 30  1  0  0  0  0
  1 31  1  0  0  0  0
  1 32  1  0  0  0  0
  2 29  1  0  0  0  0
  2  3  1  0  0  0  0
  2 33  1  0  0  0  0
  3  4  1  0  0  0  0
  3 34  1  0  0  0  0
  3 35  1  0  0  0  0
  4  5  1  0  0  0  0
  4 22  1  0  0  0  0
  5 10  1  0  0  0  0
  5  6  2  0  0  0  0
  6  7  1  0  0  0  0
  7  8  2  0  0  0  0
  7 36  1  0  0  0  0
  8  9  1  0  0  0  0
  9 13  1  0  0  0  0
  9 10  2  0  0  0  0
 10 11  1  0  0  0  0
 11 12  2  0  0  0  0
 12 13  1  0  0  0  0
 12 37  1  0  0  0  0
 13 14  1  0  0  0  0
 14 15  1  0  0  0  0
 14 38  1  0  0  0  0
 14 39  1  0  0  0  0
 15 21  1  0  0  0  0
 15 16  1  0  0  0  0
 15 17  1  0  0  0  0
 16 40  1  0  0  0  0
 17 18  1  0  0  0  0
 17 41  1  0  0  0  0
 17 42  1  0  0  0  0
 18 19  1  0  0  0  0
 18 43  1  0  0  0  0
 18 44  1  0  0  0  0
 19 20  1  0  0  0  0
 20 21  1  0  0  0  0
 20 45  1  0  0  0  0
 20 46  1  0  0  0  0
 21 47  1  0  0  0  0
 21 48  1  0  0  0  0
 22 23  1  0  0  0  0
 22 49  1  0  0  0  0
 22 50  1  0  0  0  0
 23 24  1  0  0  0  0
 23 51  1  0  0  0  0
 23 52  1  0  0  0  0
 24 25  1  0  0  0  0
 24 29  1  0  0  0  0
 25 27  1  0  0  0  0
 25 26  1  0  0  0  0
 25 53  1  0  0  0  0
 26 27  1  0  0  0  0
 26 54  1  0  0  0  0
 26 55  1  0  0  0  0
 27 28  1  0  0  0  0
 27 56  1  0  0  0  0
 28 57  1  0  0  0  0
 28 58  1  0  0  0  0
 28 59  1  0  0  0  0
 29 60  1  0  0  0  0
 29 61  1  0  0  0  0
M  END
> <s_m_source_file>
AV-unprocessed.smi

> <i_m_source_file_index>
193

> <i_lp_mmshare_version>
43012

> <i_f3d_flags>
0

> <s_epik_input>
W0NIM11bQ0BASF0xW0NIMl1bQ0BIXTFOKFtDSDJdMilbQ0gyXVtDSDJdTihbQ0gyXVtDQEhdMltDSDNdKWMobltjSF1uMyljKGMzNCluW2NIXW40W0NIMl1DNShbT0hdKVtDSDJdW0NIMl1PW0NIMl1bQ0gyXTU=

> <s_epik_cmdline>
J2VwaWtfcHl0aG9uJywgJy1waCcsICc3LjAnLCAnLXRuJywgJzgnLCAnLW1hJywgJzIwMCcsICctbWV0YWxfYmluZGluZycsICctaW1hZScsICc8aW5maWxlLm1hZT4nLCAnLW9tYWUnLCAnPG91dGZpbGUubWFlPic=

> <r_lp_tautomer_probability>
1

> <r_epik_Ionization_Penalty>
1.45227

> <r_epik_Ionization_Penalty_Charging>
0

> <r_epik_Ionization_Penalty_Neutral>
1.45227

> <r_epik_State_Penalty>
2.02377

> <r_epik_Charging_Adjusted_Penalty>
2.02377

> <i_epik_Tot_Q>
0

> <i_epik_Tot_abs_Q>
0

> <r_epik_Metal_State_Penalty>
2.01937

> <b_epik_Metal_Only>
0

> <s_lp_Force_Field>
OPLS_2005

> <r_lp_Energy>
52.058

> <b_lp_Chiralities_Consistent>
1

> <s_lp_Variant>
AV-unprocessed.smi:193-20

> <Gold.Version>
5.8.1

> <Gold.Id.Protein>
6NUR|6NUR_protein|mol2

> <Gold.PLP.Fitness>
42.1975

> <Gold.PLP.PLP>
-39.8083

> <Gold.PLP.part.hbond>
-2.0000

> <Gold.PLP.part.metal>
0.0000

> <Gold.PLP.part.buried>
-6.5292

> <Gold.PLP.part.nonpolar>
-30.6995

> <Gold.PLP.part.repulsive>
0.0000

> <Gold.PLP.ligand.clash>
0.0000

> <Gold.PLP.ligand.torsion>
1.3318

> <Gold.PLP.Chemscore.Hbond>
1.2852

> <Gold.PLP.Chemscore.CHOScore>
0.0000

> <Gold.PLP.Chemscore.Metal>
0.0000

> <Gold.Chemscore.Hbonds>
donor molecule, donor type, donor heavy atom, donor atom, acceptor molecule, acceptor atom, score
      P1  H  6896  6907       L1    19  1.00
      P1  H  7997  8010       L1    11  0.30

> <Gold.PLP.Chemscore.Internal.Correction>
1.1972

> <Gold.Rescore>
     Score         DG    S(hbond)    S(metal)    S(lipo)     H(rot)  DE(clash)    DE(int)     intcor
     13.83     -16.56       0.98        0.00     108.47       1.91       0.03       2.71       ----

> <Gold.Chemscore.Fitness>
13.8288

> <Gold.Chemscore.DG>
-16.5634

> <Gold.Chemscore.ZeroCoef>
-5.4800

> <Gold.Chemscore.Hbond>
0.9803

> <Gold.Chemscore.Metal>
0.0000

> <Gold.Chemscore.Lipo>
108.4661

> <Gold.Chemscore.Internal_Hbond>
0.0000

> <Gold.Chemscore.DEClash>
0.0270

> <Gold.Chemscore.DEInternal>
2.7077

> <Gold.Chemscore.Rot>
1.9068

> <Gold.Chemscore.Internal.Correction>
   9.000000E+99

> <Gold.Chemscore.Hbonds>
donor molecule, donor type, donor heavy atom, donor atom, acceptor molecule, acceptor atom, score
      P1  H  6896  6907       L1    19  0.72
      P1  H  7997  8010       L1    11  0.07

> <Gold.Chemscore.Hbond.Weighted>
-3.2743

> <Gold.Chemscore.Metal.Weighted>
-0.0000

> <Gold.Chemscore.Lipo.Weighted>
-12.6905

> <Gold.Chemscore.Internal_Hbond.Weighted>
0.0000

> <Gold.Chemscore.DEClash.Weighted>
0.0270

> <Gold.Chemscore.DEInternal.Weighted>
2.7077

> <Gold.Chemscore.Rot.Weighted>
4.8814

> <Gold.Chemscore.Internal.Correction.Weighted>
   9.000000E+99

> <Gold.Protein.RotatedTorsions>
[ 6907 6896 6895 6894 ] final  165.17 input  -60.11 | X-H torsion
[ 7974 7965 7964 7962 ] final  -29.35 input  175.53 | X-H torsion
[ 8008 7997 7996 7995 ] final    7.28 input   59.86 | X-H torsion
[ 10167 10162 10161 10158 ] final  -60.34 input  -65.29 | X-H torsion
[ 10718 10713 10712 10709 ] final  -12.07 input   66.30 | X-H torsion
[ 10763 10752 10751 10750 ] final -120.46 input  -60.55 | X-H torsion
[ 11005 11000 10999 10996 ] final   88.67 input  -57.11 | X-H torsion

> <Gold.Protein.ActiveResidues>
 VAL166  LYS551  ARG553  GLY616  TRP617  ASP618  TYR619  PRO620  LYS621  CYS622 
 ASP623  PHE694  ASN695  SER759  ASP760  ASP761  ALA762  ILE779  LEU786  VAL792 
 PHE793  MET794  SER795  GLU796  ALA797  LYS798  CYS799  TRP800  GLU811  SER814 

> <Gold.Protein.RotatedAtoms>
  151.8985  133.3532  159.3822 H   0  0  0  0  0  0  0  0  0  0  0  0  # atno 6907 bound_to 6896
  150.7086  134.4852  159.5498 H   0  0  0  0  0  0  0  0  0  0  0  0  # atno 6908 bound_to 6896
  152.2436  134.8204  160.0507 H   0  0  0  0  0  0  0  0  0  0  0  0  # atno 6909 bound_to 6896
  146.1223  140.5401  142.8730 H   0  0  0  0  0  0  0  0  0  0  0  0  # atno 7974 bound_to 7965
  154.7519  140.2768  155.6286 H   0  0  0  0  0  0  0  0  0  0  0  0  # atno 8008 bound_to 7997
  156.2897  140.2677  156.2201 H   0  0  0  0  0  0  0  0  0  0  0  0  # atno 8009 bound_to 7997
  155.0127  140.0372  157.2395 H   0  0  0  0  0  0  0  0  0  0  0  0  # atno 8010 bound_to 7997
  140.6077  143.2378  151.5782 H   0  0  0  0  0  0  0  0  0  0  0  0  # atno 10167 bound_to 10162
  156.6499  130.4952  149.6065 H   0  0  0  0  0  0  0  0  0  0  0  0  # atno 10718 bound_to 10713
  154.8644  135.4202  154.2463 H   0  0  0  0  0  0  0  0  0  0  0  0  # atno 10763 bound_to 10752
  153.3418  135.6994  153.6866 H   0  0  0  0  0  0  0  0  0  0  0  0  # atno 10764 bound_to 10752
  153.5841  135.3567  155.2859 H   0  0  0  0  0  0  0  0  0  0  0  0  # atno 10765 bound_to 10752
  139.8891  134.8503  156.3034 H   0  0  0  0  0  0  0  0  0  0  0  0  # atno 11005 bound_to 11000
  144.7608  140.5418  143.6736 LP  0  0  0  0  0  0  0  0  0  0  0  0  # atno 17320 bound_to 7965
  145.5441  139.1475  143.3431 LP  0  0  0  0  0  0  0  0  0  0  0  0  # atno 17321 bound_to 7965
  139.5338  144.2841  152.1206 LP  0  0  0  0  0  0  0  0  0  0  0  0  # atno 17342 bound_to 10162
  140.2034  144.4635  150.6420 LP  0  0  0  0  0  0  0  0  0  0  0  0  # atno 17343 bound_to 10162
  156.2092  130.6668  151.1251 LP  0  0  0  0  0  0  0  0  0  0  0  0  # atno 17370 bound_to 10713
  157.7144  131.0717  150.6382 LP  0  0  0  0  0  0  0  0  0  0  0  0  # atno 17371 bound_to 10713
  140.9898  133.7215  156.0797 LP  0  0  0  0  0  0  0  0  0  0  0  0  # atno 17394 bound_to 11000
  140.7640  134.3908  157.5520 LP  0  0  0  0  0  0  0  0  0  0  0  0  # atno 17395 bound_to 11000

$$$$
