AV-unprocessed.smi:2108|AV-procd|sdf|8605|dock10
  -GOLD-   2272011343D 1   1.00000     0.00000
 Structure written by MMmdl.
 34 35  0  0  0  0  0  0  0  0  2 V2000
  154.5592  137.2340  157.6637 O   0  0  0  0  0  0  0  0  0  0  0  0
  153.4270  138.0822  158.0708 S   0  0  0  0  0  0  0  0  0  0  0  0
  152.5488  137.5856  159.1431 O   0  0  0  0  0  0  0  0  0  0  0  0
  153.8383  139.6419  158.2284 N   0  5  0  0  0  0  0  0  0  0  0  0
  152.8835  140.5637  158.8176 C   0  0  0  0  0  0  0  0  0  0  0  0
  153.6272  141.6128  159.6718 C   0  0  0  0  0  0  0  0  0  0  0  0
  152.9183  142.9605  159.7631 C   0  0  0  0  0  0  0  0  0  0  0  0
  152.5934  143.6843  158.5927 C   0  0  0  0  0  0  0  0  0  0  0  0
  151.9316  144.9201  158.7249 C   0  0  0  0  0  0  0  0  0  0  0  0
  151.6132  145.3851  160.0151 C   0  0  0  0  0  0  0  0  0  0  0  0
  151.9721  144.5894  161.1208 C   0  0  0  0  0  0  0  0  0  0  0  0
  152.6061  143.4031  161.0059 N   0  0  0  0  0  0  0  0  0  0  0  0
  152.4144  138.2577  156.6703 N   0  0  0  0  0  0  0  0  0  0  0  0
  153.0666  138.5966  155.3890 C   0  0  0  0  0  0  0  0  0  0  0  0
  152.0811  138.4791  154.2155 C   0  0  0  0  0  0  0  0  0  0  0  0
  150.9269  139.2660  154.4651 O   0  0  0  0  0  0  0  0  0  0  0  0
  150.2338  138.8122  155.6171 C   0  0  0  0  0  0  0  0  0  0  0  0
  151.1265  138.9465  156.8614 C   0  0  0  0  0  0  0  0  0  0  0  0
  152.3017  141.0777  158.0518 H   0  0  0  0  0  0  0  0  0  0  0  0
  152.1598  140.0413  159.4444 H   0  0  0  0  0  0  0  0  0  0  0  0
  153.7731  141.2288  160.6826 H   0  0  0  0  0  0  0  0  0  0  0  0
  154.6271  141.7756  159.2660 H   0  0  0  0  0  0  0  0  0  0  0  0
  152.8510  143.3020  157.6157 H   0  0  0  0  0  0  0  0  0  0  0  0
  151.6721  145.5007  157.8522 H   0  0  0  0  0  0  0  0  0  0  0  0
  151.1054  146.3281  160.1541 H   0  0  0  0  0  0  0  0  0  0  0  0
  151.7420  144.9137  162.1247 H   0  0  0  0  0  0  0  0  0  0  0  0
  153.4530  139.6146  155.4505 H   0  0  0  0  0  0  0  0  0  0  0  0
  153.9211  137.9447  155.2105 H   0  0  0  0  0  0  0  0  0  0  0  0
  152.5525  138.8280  153.2966 H   0  0  0  0  0  0  0  0  0  0  0  0
  151.7992  137.4380  154.0502 H   0  0  0  0  0  0  0  0  0  0  0  0
  149.3292  139.4074  155.7416 H   0  0  0  0  0  0  0  0  0  0  0  0
  149.9145  137.7778  155.4795 H   0  0  0  0  0  0  0  0  0  0  0  0
  150.6073  138.5319  157.7252 H   0  0  0  0  0  0  0  0  0  0  0  0
  151.3189  139.9983  157.0762 H   0  0  0  0  0  0  0  0  0  0  0  0
  1  2  2  0  0  0  0
  2  3  2  0  0  0  0
  2  4  1  0  0  0  0
  2 13  1  0  0  0  0
  4  5  1  0  0  0  0
  5  6  1  0  0  0  0
  5 19  1  0  0  0  0
  5 20  1  0  0  0  0
  6  7  1  0  0  0  0
  6 21  1  0  0  0  0
  6 22  1  0  0  0  0
  7 12  1  0  0  0  0
  7  8  2  0  0  0  0
  8  9  1  0  0  0  0
  8 23  1  0  0  0  0
  9 10  2  0  0  0  0
  9 24  1  0  0  0  0
 10 11  1  0  0  0  0
 10 25  1  0  0  0  0
 11 12  2  0  0  0  0
 11 26  1  0  0  0  0
 13 18  1  0  0  0  0
 13 14  1  0  0  0  0
 14 15  1  0  0  0  0
 14 27  1  0  0  0  0
 14 28  1  0  0  0  0
 15 16  1  0  0  0  0
 15 29  1  0  0  0  0
 15 30  1  0  0  0  0
 16 17  1  0  0  0  0
 17 18  1  0  0  0  0
 17 31  1  0  0  0  0
 17 32  1  0  0  0  0
 18 33  1  0  0  0  0
 18 34  1  0  0  0  0
M  CHG  1   4  -1
M  END
> <s_m_source_file>
AV-unprocessed.smi

> <i_m_source_file_index>
2108

> <i_lp_mmshare_version>
43012

> <i_f3d_flags>
0

> <s_epik_input>
W0NIMl0xW0NIMl1PW0NIMl1bQ0gyXU4xUyg9TykoPU8pW05IXVtDSDJdW0NIMl1jMltjSF1bY0hdW2NIXVtjSF1uMg==

> <s_epik_cmdline>
J2VwaWtfcHl0aG9uJywgJy1waCcsICc3LjAnLCAnLXRuJywgJzgnLCAnLW1hJywgJzIwMCcsICctbWV0YWxfYmluZGluZycsICctaW1hZScsICc8aW5maWxlLm1hZT4nLCAnLW9tYWUnLCAnPG91dGZpbGUubWFlPic=

> <r_epik_Ionization_Penalty>
1.27779

> <r_epik_Ionization_Penalty_Charging>
1.20871

> <r_epik_Ionization_Penalty_Neutral>
0.0690773

> <r_epik_State_Penalty>
1.64557

> <r_epik_Charging_Adjusted_Penalty>
2.85428

> <i_epik_Tot_Q>
-1

> <i_epik_Tot_abs_Q>
1

> <r_epik_Metal_State_Penalty>
0.643506

> <b_epik_Metal_Only>
0

> <s_lp_Force_Field>
OPLS_2005

> <r_lp_Energy>
7.47044

> <b_lp_Chiralities_Consistent>
1

> <s_lp_Variant>
AV-unprocessed.smi:2108-2

> <Gold.Version>
5.8.1

> <Gold.Id.Protein>
6NUR|6NUR_protein|mol2

> <Gold.PLP.Fitness>
46.2104

> <Gold.PLP.PLP>
-37.9222

> <Gold.PLP.part.hbond>
-2.0000

> <Gold.PLP.part.metal>
0.0000

> <Gold.PLP.part.buried>
-5.0153

> <Gold.PLP.part.nonpolar>
-31.1181

> <Gold.PLP.part.repulsive>
0.2287

> <Gold.PLP.ligand.clash>
0.0000

> <Gold.PLP.ligand.torsion>
1.1169

> <Gold.PLP.Chemscore.Hbond>
3.0000

> <Gold.PLP.Chemscore.CHOScore>
0.0000

> <Gold.PLP.Chemscore.Metal>
0.0000

> <Gold.Chemscore.Hbonds>
donor molecule, donor type, donor heavy atom, donor atom, acceptor molecule, acceptor atom, score
      P1  H  7989  7998       L1    16  0.70
      P1  H  7997  8009       L1     4  1.79

> <Gold.PLP.Chemscore.Internal.Correction>
1.5221

> <Gold.Rescore>
     Score         DG    S(hbond)    S(metal)    S(lipo)     H(rot)  DE(clash)    DE(int)     intcor
     16.81     -18.47       1.51        0.00     102.17       1.56       0.28       1.38       ----

> <Gold.Chemscore.Fitness>
16.8109

> <Gold.Chemscore.DG>
-18.4727

> <Gold.Chemscore.ZeroCoef>
-5.4800

> <Gold.Chemscore.Hbond>
1.5089

> <Gold.Chemscore.Metal>
0.0000

> <Gold.Chemscore.Lipo>
102.1743

> <Gold.Chemscore.Internal_Hbond>
0.0000

> <Gold.Chemscore.DEClash>
0.2822

> <Gold.Chemscore.DEInternal>
1.3796

> <Gold.Chemscore.Rot>
1.5630

> <Gold.Chemscore.Internal.Correction>
   9.000000E+99

> <Gold.Chemscore.Hbonds>
donor molecule, donor type, donor heavy atom, donor atom, acceptor molecule, acceptor atom, score
      P1  H  7989  7998       L1    16  0.07
      P1  H  7997  8009       L1     4  0.53

> <Gold.Chemscore.Hbond.Weighted>
-5.0396

> <Gold.Chemscore.Metal.Weighted>
-0.0000

> <Gold.Chemscore.Lipo.Weighted>
-11.9544

> <Gold.Chemscore.Internal_Hbond.Weighted>
0.0000

> <Gold.Chemscore.DEClash.Weighted>
0.2822

> <Gold.Chemscore.DEInternal.Weighted>
1.3796

> <Gold.Chemscore.Rot.Weighted>
4.0013

> <Gold.Chemscore.Internal.Correction.Weighted>
   9.000000E+99

> <Gold.Protein.RotatedTorsions>
[ 6907 6896 6895 6894 ] final  177.71 input  -60.11 | X-H torsion
[ 7974 7965 7964 7962 ] final  129.22 input  175.53 | X-H torsion
[ 8008 7997 7996 7995 ] final  158.33 input   59.86 | X-H torsion
[ 10167 10162 10161 10158 ] final -116.37 input  -65.29 | X-H torsion
[ 10718 10713 10712 10709 ] final    1.89 input   66.30 | X-H torsion
[ 10763 10752 10751 10750 ] final -177.72 input  -60.55 | X-H torsion
[ 11005 11000 10999 10996 ] final   40.81 input  -57.11 | X-H torsion

> <Gold.Protein.ActiveResidues>
 VAL166  LYS551  ARG553  GLY616  TRP617  ASP618  TYR619  PRO620  LYS621  CYS622 
 ASP623  PHE694  ASN695  SER759  ASP760  ASP761  ALA762  ILE779  LEU786  VAL792 
 PHE793  MET794  SER795  GLU796  ALA797  LYS798  CYS799  TRP800  GLU811  SER814 

> <Gold.Protein.RotatedAtoms>
  151.6995  133.3311  159.3262 H   0  0  0  0  0  0  0  0  0  0  0  0  # atno 6907 bound_to 6896
  150.7742  134.6628  159.6358 H   0  0  0  0  0  0  0  0  0  0  0  0  # atno 6908 bound_to 6896
  152.3778  134.6640  160.0205 H   0  0  0  0  0  0  0  0  0  0  0  0  # atno 6909 bound_to 6896
  145.0310  139.4046  143.5150 H   0  0  0  0  0  0  0  0  0  0  0  0  # atno 7974 bound_to 7965
  156.2309  140.1861  156.7244 H   0  0  0  0  0  0  0  0  0  0  0  0  # atno 8008 bound_to 7997
  154.6021  140.0634  156.9410 H   0  0  0  0  0  0  0  0  0  0  0  0  # atno 8009 bound_to 7997
  155.2156  140.3303  155.4325 H   0  0  0  0  0  0  0  0  0  0  0  0  # atno 8010 bound_to 7997
  140.0800  143.4797  152.1931 H   0  0  0  0  0  0  0  0  0  0  0  0  # atno 10167 bound_to 10162
  156.8549  130.5566  149.5667 H   0  0  0  0  0  0  0  0  0  0  0  0  # atno 10718 bound_to 10713
  154.5566  135.2817  155.0959 H   0  0  0  0  0  0  0  0  0  0  0  0  # atno 10763 bound_to 10752
  154.2384  135.6361  153.5202 H   0  0  0  0  0  0  0  0  0  0  0  0  # atno 10764 bound_to 10752
  153.0017  135.5554  154.6148 H   0  0  0  0  0  0  0  0  0  0  0  0  # atno 10765 bound_to 10752
  140.1895  134.4004  155.8154 H   0  0  0  0  0  0  0  0  0  0  0  0  # atno 11005 bound_to 11000
  146.3498  139.9860  142.8690 LP  0  0  0  0  0  0  0  0  0  0  0  0  # atno 17320 bound_to 7965
  145.1770  140.9749  143.4288 LP  0  0  0  0  0  0  0  0  0  0  0  0  # atno 17321 bound_to 7965
  139.5785  144.7499  151.3701 LP  0  0  0  0  0  0  0  0  0  0  0  0  # atno 17342 bound_to 10162
  140.7083  143.7458  150.7520 LP  0  0  0  0  0  0  0  0  0  0  0  0  # atno 17343 bound_to 10162
  156.0808  130.5819  150.9559 LP  0  0  0  0  0  0  0  0  0  0  0  0  # atno 17370 bound_to 10713
  157.6283  131.0923  150.8491 LP  0  0  0  0  0  0  0  0  0  0  0  0  # atno 17371 bound_to 10713
  141.2226  133.7039  156.8071 LP  0  0  0  0  0  0  0  0  0  0  0  0  # atno 17394 bound_to 11000
  140.2176  134.8781  157.3342 LP  0  0  0  0  0  0  0  0  0  0  0  0  # atno 17395 bound_to 11000

$$$$
