AV-unprocessed.smi:730|AV-procd|sdf|3525|dock7
  -GOLD-   22720 0523D 1   1.00000     0.00000
 Structure written by MMmdl.
 40 41  0  0  0  0  0  0  0  0  1 V2000
  144.5651  136.1431  161.6088 C   0  0  0  0  0  0  0  0  0  0  0  0
  144.9360  134.7068  161.1886 C   0  0  0  0  0  0  0  0  0  0  0  0
  146.4691  134.5672  161.2373 C   0  0  0  0  0  0  0  0  0  0  0  0
  144.3057  133.7283  162.1973 C   0  0  0  0  0  0  0  0  0  0  0  0
  144.4372  134.4091  159.8018 C   0  0  0  0  0  0  0  0  0  0  0  0
  145.0567  134.0595  158.6323 C   0  0  0  0  0  0  0  0  0  0  0  0
  143.9784  133.9320  157.7175 C   0  0  0  0  0  0  0  0  0  0  0  0
  144.2101  133.5748  156.3646 N   0  0  0  0  0  0  0  0  0  0  0  0
  145.2597  133.9133  155.5968 C   0  0  0  0  0  0  0  0  0  0  0  0
  146.2007  134.6227  155.9537 O   0  0  0  0  0  0  0  0  0  0  0  0
  145.1612  133.3757  154.3724 N   0  0  0  0  0  0  0  0  0  0  0  0
  146.1372  133.5475  153.2981 C   0  0  1  0  0  0  0  0  0  0  0  0
  146.5850  132.1787  152.7507 C   0  0  0  0  0  0  0  0  0  0  0  0
  145.7769  131.9660  151.4719 C   0  0  0  0  0  0  0  0  0  0  0  0
  145.6582  133.3679  150.8841 C   0  0  0  0  0  0  0  0  0  0  0  0
  145.4967  134.2884  152.1018 C   0  0  2  0  0  0  0  0  0  0  0  0
  146.1276  135.5289  151.8594 O   0  0  0  0  0  0  0  0  0  0  0  0
  142.8033  134.1816  158.2721 N   0  0  0  0  0  0  0  0  0  0  0  0
  143.0905  134.4880  159.6068 O   0  0  0  0  0  0  0  0  0  0  0  0
  144.9245  136.3699  162.6132 H   0  0  0  0  0  0  0  0  0  0  0  0
  143.4846  136.2922  161.6081 H   0  0  0  0  0  0  0  0  0  0  0  0
  145.0002  136.8809  160.9332 H   0  0  0  0  0  0  0  0  0  0  0  0
  146.9511  135.2517  160.5382 H   0  0  0  0  0  0  0  0  0  0  0  0
  146.7870  133.5566  160.9776 H   0  0  0  0  0  0  0  0  0  0  0  0
  146.8584  134.7847  162.2325 H   0  0  0  0  0  0  0  0  0  0  0  0
  144.6427  133.9323  163.2143 H   0  0  0  0  0  0  0  0  0  0  0  0
  144.5672  132.6944  161.9688 H   0  0  0  0  0  0  0  0  0  0  0  0
  143.2175  133.8003  162.1911 H   0  0  0  0  0  0  0  0  0  0  0  0
  146.1132  133.9174  158.4602 H   0  0  0  0  0  0  0  0  0  0  0  0
  143.5046  132.9926  155.9386 H   0  0  0  0  0  0  0  0  0  0  0  0
  144.3550  132.8046  154.1655 H   0  0  0  0  0  0  0  0  0  0  0  0
  147.0036  134.0934  153.6783 H   0  0  0  0  0  0  0  0  0  0  0  0
  147.6452  132.2246  152.4982 H   0  0  0  0  0  0  0  0  0  0  0  0
  146.4619  131.3597  153.4607 H   0  0  0  0  0  0  0  0  0  0  0  0
  146.2497  131.2611  150.7876 H   0  0  0  0  0  0  0  0  0  0  0  0
  144.7862  131.5824  151.7189 H   0  0  0  0  0  0  0  0  0  0  0  0
  146.5794  133.6030  150.3480 H   0  0  0  0  0  0  0  0  0  0  0  0
  144.8337  133.4597  150.1764 H   0  0  0  0  0  0  0  0  0  0  0  0
  144.4350  134.4683  152.2791 H   0  0  0  0  0  0  0  0  0  0  0  0
  147.0616  135.4110  151.9416 H   0  0  0  0  0  0  0  0  0  0  0  0
  1  2  1  0  0  0  0
  1 20  1  0  0  0  0
  1 21  1  0  0  0  0
  1 22  1  0  0  0  0
  2  3  1  0  0  0  0
  2  4  1  0  0  0  0
  2  5  1  0  0  0  0
  3 23  1  0  0  0  0
  3 24  1  0  0  0  0
  3 25  1  0  0  0  0
  4 26  1  0  0  0  0
  4 27  1  0  0  0  0
  4 28  1  0  0  0  0
  5 19  1  0  0  0  0
  5  6  2  0  0  0  0
  6  7  1  0  0  0  0
  6 29  1  0  0  0  0
  7  8  1  0  0  0  0
  7 18  2  0  0  0  0
  8  9  1  0  0  0  0
  8 30  1  0  0  0  0
  9 10  2  0  0  0  0
  9 11  1  0  0  0  0
 11 12  1  0  0  0  0
 11 31  1  0  0  0  0
 12 16  1  0  0  0  0
 12 13  1  0  0  0  0
 12 32  1  0  0  0  0
 13 14  1  0  0  0  0
 13 33  1  0  0  0  0
 13 34  1  0  0  0  0
 14 15  1  0  0  0  0
 14 35  1  0  0  0  0
 14 36  1  0  0  0  0
 15 16  1  0  0  0  0
 15 37  1  0  0  0  0
 15 38  1  0  0  0  0
 16 17  1  0  0  0  0
 16 39  1  0  0  0  0
 17 40  1  0  0  0  0
 18 19  1  0  0  0  0
M  END
> <s_m_source_file>
AV-unprocessed.smi

> <i_m_source_file_index>
730

> <i_lp_mmshare_version>
43012

> <i_f3d_flags>
0

> <s_epik_input>
W0NIM11DKFtDSDNdKShbQ0gzXSljMVtjSF1jKG5vMSlbTkhdQyg9TylbTkhdW0NAQEhdMltDSDJdW0NIMl1bQ0gyXVtDQEhdMltPSF0=

> <s_epik_cmdline>
J2VwaWtfcHl0aG9uJywgJy1waCcsICc3LjAnLCAnLXRuJywgJzgnLCAnLW1hJywgJzIwMCcsICctbWV0YWxfYmluZGluZycsICctaW1hZScsICc8aW5maWxlLm1hZT4nLCAnLW9tYWUnLCAnPG91dGZpbGUubWFlPic=

> <r_lp_tautomer_probability>
1

> <r_epik_Ionization_Penalty>
2.23071e-05

> <r_epik_Ionization_Penalty_Charging>
0

> <r_epik_Ionization_Penalty_Neutral>
2.23071e-05

> <r_epik_State_Penalty>
-0

> <r_epik_Charging_Adjusted_Penalty>
0

> <i_epik_Tot_Q>
0

> <i_epik_Tot_abs_Q>
0

> <r_epik_Metal_State_Penalty>
-0

> <b_epik_Metal_Only>
0

> <s_lp_Force_Field>
OPLS_2005

> <r_lp_Energy>
16.5613

> <b_lp_Chiralities_Consistent>
1

> <s_lp_Variant>
AV-unprocessed.smi:730-4

> <Gold.Version>
5.8.1

> <Gold.Id.Protein>
6NUR|6NUR_protein|mol2

> <Gold.PLP.Fitness>
31.2564

> <Gold.PLP.PLP>
-20.1805

> <Gold.PLP.part.hbond>
-4.0000

> <Gold.PLP.part.metal>
0.0000

> <Gold.PLP.part.buried>
-4.0850

> <Gold.PLP.part.nonpolar>
-12.5072

> <Gold.PLP.part.repulsive>
0.0542

> <Gold.PLP.ligand.clash>
0.0000

> <Gold.PLP.ligand.torsion>
0.2704

> <Gold.PLP.Chemscore.Hbond>
3.8700

> <Gold.PLP.Chemscore.CHOScore>
0.0000

> <Gold.PLP.Chemscore.Metal>
0.0000

> <Gold.Chemscore.Hbonds>
donor molecule, donor type, donor heavy atom, donor atom, acceptor molecule, acceptor atom, score
      L1  H     8    30       P1 10957  1.00
      L1  H    11    31       P1 10957  0.91
      L1  H    17    40       P1  7948  0.98
      P1  H 11000 11005       L1    18  1.00

> <Gold.PLP.Chemscore.Internal.Correction>
0.0068

> <Gold.Rescore>
     Score         DG    S(hbond)    S(metal)    S(lipo)     H(rot)  DE(clash)    DE(int)     intcor
     17.69     -18.68       3.54        0.00      49.20       1.71       0.00       0.99       ----

> <Gold.Chemscore.Fitness>
17.6905

> <Gold.Chemscore.DG>
-18.6785

> <Gold.Chemscore.ZeroCoef>
-5.4800

> <Gold.Chemscore.Hbond>
3.5409

> <Gold.Chemscore.Metal>
0.0000

> <Gold.Chemscore.Lipo>
49.1976

> <Gold.Chemscore.Internal_Hbond>
0.0000

> <Gold.Chemscore.DEClash>
0.0000

> <Gold.Chemscore.DEInternal>
0.9881

> <Gold.Chemscore.Rot>
1.7125

> <Gold.Chemscore.Internal.Correction>
   9.000000E+99

> <Gold.Chemscore.Hbonds>
donor molecule, donor type, donor heavy atom, donor atom, acceptor molecule, acceptor atom, score
      L1  H     8    30       P1 10957  1.00
      L1  H    11    31       P1 10957  0.75
      L1  H    17    40       P1  7948  0.87
      P1  H 11000 11005       L1    18  0.98

> <Gold.Chemscore.Hbond.Weighted>
-11.8265

> <Gold.Chemscore.Metal.Weighted>
-0.0000

> <Gold.Chemscore.Lipo.Weighted>
-5.7561

> <Gold.Chemscore.Internal_Hbond.Weighted>
0.0000

> <Gold.Chemscore.DEClash.Weighted>
0.0000

> <Gold.Chemscore.DEInternal.Weighted>
0.9881

> <Gold.Chemscore.Rot.Weighted>
4.3841

> <Gold.Chemscore.Internal.Correction.Weighted>
   9.000000E+99

> <Gold.Protein.RotatedTorsions>
[ 6907 6896 6895 6894 ] final   94.62 input  -60.11 | X-H torsion
[ 7974 7965 7964 7962 ] final  163.43 input  175.53 | X-H torsion
[ 8008 7997 7996 7995 ] final   15.40 input   59.86 | X-H torsion
[ 10167 10162 10161 10158 ] final   28.74 input  -65.29 | X-H torsion
[ 10718 10713 10712 10709 ] final   16.42 input   66.30 | X-H torsion
[ 10763 10752 10751 10750 ] final  -52.40 input  -60.55 | X-H torsion
[ 11005 11000 10999 10996 ] final -116.72 input  -57.11 | X-H torsion

> <Gold.Protein.ActiveResidues>
 VAL166  LYS551  ARG553  GLY616  TRP617  ASP618  TYR619  PRO620  LYS621  CYS622 
 ASP623  PHE694  ASN695  SER759  ASP760  ASP761  ALA762  ILE779  LEU786  VAL792 
 PHE793  MET794  SER795  GLU796  ALA797  LYS798  CYS799  TRP800  GLU811  SER814 

> <Gold.Protein.RotatedAtoms>
  152.5448  134.1166  159.8380 H   0  0  0  0  0  0  0  0  0  0  0  0  # atno 6907 bound_to 6896
  151.1227  133.5085  159.2609 H   0  0  0  0  0  0  0  0  0  0  0  0  # atno 6908 bound_to 6896
  151.1762  135.0350  159.8827 H   0  0  0  0  0  0  0  0  0  0  0  0  # atno 6909 bound_to 6896
  144.7590  139.8181  143.6339 H   0  0  0  0  0  0  0  0  0  0  0  0  # atno 7974 bound_to 7965
  154.8621  140.2946  155.5532 H   0  0  0  0  0  0  0  0  0  0  0  0  # atno 8008 bound_to 7997
  156.3020  140.2476  156.3530 H   0  0  0  0  0  0  0  0  0  0  0  0  # atno 8009 bound_to 7997
  154.8907  140.0394  157.1826 H   0  0  0  0  0  0  0  0  0  0  0  0  # atno 8010 bound_to 7997
  140.4826  144.0592  150.6270 H   0  0  0  0  0  0  0  0  0  0  0  0  # atno 10167 bound_to 10162
  157.0676  130.6334  149.5799 H   0  0  0  0  0  0  0  0  0  0  0  0  # atno 10718 bound_to 10713
  154.1421  135.6503  153.4944 H   0  0  0  0  0  0  0  0  0  0  0  0  # atno 10763 bound_to 10752
  153.0163  135.5318  154.6894 H   0  0  0  0  0  0  0  0  0  0  0  0  # atno 10764 bound_to 10752
  154.6158  135.2959  155.0352 H   0  0  0  0  0  0  0  0  0  0  0  0  # atno 10765 bound_to 10752
  141.0403  133.9846  157.3005 H   0  0  0  0  0  0  0  0  0  0  0  0  # atno 11005 bound_to 11000
  146.1633  139.4755  142.9974 LP  0  0  0  0  0  0  0  0  0  0  0  0  # atno 17320 bound_to 7965
  145.6682  141.0223  143.1672 LP  0  0  0  0  0  0  0  0  0  0  0  0  # atno 17321 bound_to 7965
  140.3838  143.2788  152.0139 LP  0  0  0  0  0  0  0  0  0  0  0  0  # atno 17342 bound_to 10162
  139.4836  144.6133  151.7393 LP  0  0  0  0  0  0  0  0  0  0  0  0  # atno 17343 bound_to 10162
  155.9960  130.5028  150.7480 LP  0  0  0  0  0  0  0  0  0  0  0  0  # atno 17370 bound_to 10713
  157.4904  131.0910  151.0433 LP  0  0  0  0  0  0  0  0  0  0  0  0  # atno 17371 bound_to 10713
  139.9271  135.0201  156.8271 LP  0  0  0  0  0  0  0  0  0  0  0  0  # atno 17394 bound_to 11000
  140.6247  133.9961  155.7634 LP  0  0  0  0  0  0  0  0  0  0  0  0  # atno 17395 bound_to 11000

$$$$
