AV-unprocessed.smi:1648|AV-procd|sdf|6629|dock9
  -GOLD-   22720 7333D 1   1.00000     0.00000
 Structure written by MMmdl.
 42 42  0  0  0  0  0  0  0  0  2 V2000
  148.2651  137.3430  155.4814 C   0  0  0  0  0  0  0  0  0  0  0  0
  148.4742  135.8277  155.5037 C   0  0  0  0  0  0  0  0  0  0  0  0
  147.7136  135.1230  156.1632 O   0  0  0  0  0  0  0  0  0  0  0  0
  149.4899  135.2925  154.8042 N   0  0  0  0  0  0  0  0  0  0  0  0
  149.8518  133.8762  154.7000 C   0  0  2  0  0  0  0  0  0  0  0  0
  148.6452  133.1022  154.1356 C   0  0  0  0  0  0  0  0  0  0  0  0
  148.2522  132.0691  154.6802 O   0  0  0  0  0  0  0  0  0  0  0  0
  148.0824  133.6061  153.0259 N   0  0  0  0  0  0  0  0  0  0  0  0
  146.9479  133.0221  152.3173 C   0  0  1  0  0  0  0  0  0  0  0  0
  145.8385  132.6881  153.3272 C   0  0  0  0  0  0  0  0  0  0  0  0
  146.4814  133.9729  151.1932 C   0  0  0  0  0  0  0  0  0  0  0  0
  145.3140  133.4702  150.4637 N   0  0  0  0  0  0  0  0  0  0  0  0
  145.2491  132.3711  149.6459 C   0  0  0  0  0  0  0  0  0  0  0  0
  143.9558  132.2951  149.1962 C   0  0  0  0  0  0  0  0  0  0  0  0
  143.2861  133.3470  149.7616 N   0  3  0  0  0  0  0  0  0  0  0  0
  144.1133  134.0592  150.5337 C   0  0  0  0  0  0  0  0  0  0  0  0
  150.2018  133.3438  156.1215 C   0  0  0  0  0  0  0  0  0  0  0  0
  151.2928  134.1960  156.7998 C   0  0  0  0  0  0  0  0  0  0  0  0
  150.6449  131.8653  156.1236 C   0  0  0  0  0  0  0  0  0  0  0  0
  149.1235  137.8570  155.9142 H   0  0  0  0  0  0  0  0  0  0  0  0
  147.3839  137.6166  156.0627 H   0  0  0  0  0  0  0  0  0  0  0  0
  148.1166  137.7014  154.4626 H   0  0  0  0  0  0  0  0  0  0  0  0
  150.0883  135.9366  154.3073 H   0  0  0  0  0  0  0  0  0  0  0  0
  150.7188  133.7503  154.0494 H   0  0  0  0  0  0  0  0  0  0  0  0
  148.4697  134.4573  152.6445 H   0  0  0  0  0  0  0  0  0  0  0  0
  147.2699  132.0810  151.8672 H   0  0  0  0  0  0  0  0  0  0  0  0
  145.0038  132.1748  152.8498 H   0  0  0  0  0  0  0  0  0  0  0  0
  145.4490  133.5891  153.8020 H   0  0  0  0  0  0  0  0  0  0  0  0
  146.2116  132.0321  154.1145 H   0  0  0  0  0  0  0  0  0  0  0  0
  146.2251  134.9518  151.6014 H   0  0  0  0  0  0  0  0  0  0  0  0
  147.2779  134.1342  150.4651 H   0  0  0  0  0  0  0  0  0  0  0  0
  146.1052  131.7421  149.4484 H   0  0  0  0  0  0  0  0  0  0  0  0
  143.4745  131.5887  148.5354 H   0  0  0  0  0  0  0  0  0  0  0  0
  143.8615  134.9376  151.1012 H   0  0  0  0  0  0  0  0  0  0  0  0
  149.3098  133.4140  156.7469 H   0  0  0  0  0  0  0  0  0  0  0  0
  152.2126  134.1981  156.2142 H   0  0  0  0  0  0  0  0  0  0  0  0
  151.5325  133.8099  157.7910 H   0  0  0  0  0  0  0  0  0  0  0  0
  150.9807  135.2321  156.9321 H   0  0  0  0  0  0  0  0  0  0  0  0
  151.5071  131.7112  155.4741 H   0  0  0  0  0  0  0  0  0  0  0  0
  149.8520  131.1954  155.7909 H   0  0  0  0  0  0  0  0  0  0  0  0
  150.9257  131.5424  157.1265 H   0  0  0  0  0  0  0  0  0  0  0  0
  142.3056  133.5559  149.6195 H   0  0  0  0  0  0  0  0  0  0  0  0
  1  2  1  0  0  0  0
  1 20  1  0  0  0  0
  1 21  1  0  0  0  0
  1 22  1  0  0  0  0
  2  3  2  0  0  0  0
  2  4  1  0  0  0  0
  4  5  1  0  0  0  0
  4 23  1  0  0  0  0
  5  6  1  0  0  0  0
  5 17  1  0  0  0  0
  5 24  1  0  0  0  0
  6  7  2  0  0  0  0
  6  8  1  0  0  0  0
  8  9  1  0  0  0  0
  8 25  1  0  0  0  0
  9 10  1  0  0  0  0
  9 11  1  0  0  0  0
  9 26  1  0  0  0  0
 10 27  1  0  0  0  0
 10 28  1  0  0  0  0
 10 29  1  0  0  0  0
 11 12  1  0  0  0  0
 11 30  1  0  0  0  0
 11 31  1  0  0  0  0
 12 16  1  0  0  0  0
 12 13  1  0  0  0  0
 13 14  2  0  0  0  0
 13 32  1  0  0  0  0
 14 15  1  0  0  0  0
 14 33  1  0  0  0  0
 15 16  2  0  0  0  0
 15 42  1  0  0  0  0
 16 34  1  0  0  0  0
 17 18  1  0  0  0  0
 17 19  1  0  0  0  0
 17 35  1  0  0  0  0
 18 36  1  0  0  0  0
 18 37  1  0  0  0  0
 18 38  1  0  0  0  0
 19 39  1  0  0  0  0
 19 40  1  0  0  0  0
 19 41  1  0  0  0  0
M  CHG  1  15   1
M  END
> <s_m_source_file>
AV-unprocessed.smi

> <i_m_source_file_index>
1648

> <i_lp_mmshare_version>
43012

> <i_f3d_flags>
0

> <s_epik_input>
W0NIM11DKD1PKVtOSF1bQ0BASF0oW0NIXShbQ0gzXSlbQ0gzXSlDKD1PKVtOSF1bQ0BIXShbQ0gzXSlbQ0gyXW4xW2NIXVtjSF1uW2NIXTE=

> <s_epik_cmdline>
J2VwaWtfcHl0aG9uJywgJy1waCcsICc3LjAnLCAnLXRuJywgJzgnLCAnLW1hJywgJzIwMCcsICctbWV0YWxfYmluZGluZycsICctaW1hZScsICc8aW5maWxlLm1hZT4nLCAnLW9tYWUnLCAnPG91dGZpbGUubWFlPic=

> <r_lp_tautomer_probability>
1

> <r_epik_Ionization_Penalty>
0.251562

> <r_epik_Ionization_Penalty_Charging>
0

> <r_epik_Ionization_Penalty_Neutral>
0.251562

> <r_epik_State_Penalty>
0.242926

> <r_epik_Charging_Adjusted_Penalty>
0.242926

> <i_epik_Tot_Q>
1

> <i_epik_Tot_abs_Q>
1

> <r_epik_Metal_State_Penalty>
0.53388

> <b_epik_Metal_Only>
0

> <s_lp_Force_Field>
OPLS_2005

> <r_lp_Energy>
11.8238

> <b_lp_Chiralities_Consistent>
1

> <s_lp_Variant>
AV-unprocessed.smi:1648-3

> <Gold.Version>
5.8.1

> <Gold.Id.Protein>
6NUR|6NUR_protein|mol2

> <Gold.PLP.Fitness>
37.6147

> <Gold.PLP.PLP>
-30.4041

> <Gold.PLP.part.hbond>
-2.6515

> <Gold.PLP.part.metal>
0.0000

> <Gold.PLP.part.buried>
-4.3657

> <Gold.PLP.part.nonpolar>
-22.8023

> <Gold.PLP.part.repulsive>
0.1561

> <Gold.PLP.ligand.clash>
0.0000

> <Gold.PLP.ligand.torsion>
0.4018

> <Gold.PLP.Chemscore.Hbond>
2.6500

> <Gold.PLP.Chemscore.CHOScore>
0.0000

> <Gold.PLP.Chemscore.Metal>
0.0000

> <Gold.Chemscore.Hbonds>
donor molecule, donor type, donor heavy atom, donor atom, acceptor molecule, acceptor atom, score
      L1  H     8    25       P1  7948  0.80
      L1  H    15    42       P1 10186  2.00

> <Gold.PLP.Chemscore.Internal.Correction>
0.0642

> <Gold.Rescore>
     Score         DG    S(hbond)    S(metal)    S(lipo)     H(rot)  DE(clash)    DE(int)     intcor
      5.82      -9.60       1.03        0.00      63.11       2.61       0.06       3.72       ----

> <Gold.Chemscore.Fitness>
5.8215

> <Gold.Chemscore.DG>
-9.5986

> <Gold.Chemscore.ZeroCoef>
-5.4800

> <Gold.Chemscore.Hbond>
1.0256

> <Gold.Chemscore.Metal>
0.0000

> <Gold.Chemscore.Lipo>
63.1083

> <Gold.Chemscore.Internal_Hbond>
0.0000

> <Gold.Chemscore.DEClash>
0.0575

> <Gold.Chemscore.DEInternal>
3.7196

> <Gold.Chemscore.Rot>
2.6135

> <Gold.Chemscore.Internal.Correction>
   9.000000E+99

> <Gold.Chemscore.Hbonds>
donor molecule, donor type, donor heavy atom, donor atom, acceptor molecule, acceptor atom, score
      L1  H     8    25       P1  7948  0.12
      L1  H    15    42       P1 10186  0.95

> <Gold.Chemscore.Hbond.Weighted>
-3.4255

> <Gold.Chemscore.Metal.Weighted>
-0.0000

> <Gold.Chemscore.Lipo.Weighted>
-7.3837

> <Gold.Chemscore.Internal_Hbond.Weighted>
0.0000

> <Gold.Chemscore.DEClash.Weighted>
0.0575

> <Gold.Chemscore.DEInternal.Weighted>
3.7196

> <Gold.Chemscore.Rot.Weighted>
6.6906

> <Gold.Chemscore.Internal.Correction.Weighted>
   9.000000E+99

> <Gold.Protein.RotatedTorsions>
[ 6907 6896 6895 6894 ] final   31.38 input  -60.11 | X-H torsion
[ 7974 7965 7964 7962 ] final  -93.82 input  175.53 | X-H torsion
[ 8008 7997 7996 7995 ] final  112.74 input   59.86 | X-H torsion
[ 10167 10162 10161 10158 ] final  -91.59 input  -65.29 | X-H torsion
[ 10718 10713 10712 10709 ] final  160.65 input   66.30 | X-H torsion
[ 10763 10752 10751 10750 ] final    4.26 input  -60.55 | X-H torsion
[ 11005 11000 10999 10996 ] final  155.43 input  -57.11 | X-H torsion

> <Gold.Protein.ActiveResidues>
 VAL166  LYS551  ARG553  GLY616  TRP617  ASP618  TYR619  PRO620  LYS621  CYS622 
 ASP623  PHE694  ASN695  SER759  ASP760  ASP761  ALA762  ILE779  LEU786  VAL792 
 PHE793  MET794  SER795  GLU796  ALA797  LYS798  CYS799  TRP800  GLU811  SER814 

> <Gold.Protein.RotatedAtoms>
  152.0594  134.9604  160.0574 H   0  0  0  0  0  0  0  0  0  0  0  0  # atno 6907 bound_to 6896
  152.0973  133.4226  159.4579 H   0  0  0  0  0  0  0  0  0  0  0  0  # atno 6908 bound_to 6896
  150.6838  134.2721  159.4636 H   0  0  0  0  0  0  0  0  0  0  0  0  # atno 6909 bound_to 6896
  145.3815  140.9518  143.2391 H   0  0  0  0  0  0  0  0  0  0  0  0  # atno 7974 bound_to 7965
  156.2212  140.2993  155.9957 H   0  0  0  0  0  0  0  0  0  0  0  0  # atno 8008 bound_to 7997
  155.2476  140.0425  157.3000 H   0  0  0  0  0  0  0  0  0  0  0  0  # atno 8009 bound_to 7997
  154.5844  140.2384  155.8017 H   0  0  0  0  0  0  0  0  0  0  0  0  # atno 8010 bound_to 7997
  140.3434  143.2930  151.9809 H   0  0  0  0  0  0  0  0  0  0  0  0  # atno 10167 bound_to 10162
  157.1475  131.0556  151.2296 H   0  0  0  0  0  0  0  0  0  0  0  0  # atno 10718 bound_to 10713
  153.2733  135.6934  153.7458 H   0  0  0  0  0  0  0  0  0  0  0  0  # atno 10763 bound_to 10752
  153.6473  135.3383  155.3090 H   0  0  0  0  0  0  0  0  0  0  0  0  # atno 10764 bound_to 10752
  154.8471  135.4446  154.1763 H   0  0  0  0  0  0  0  0  0  0  0  0  # atno 10765 bound_to 10752
  140.1580  134.8629  157.2539 H   0  0  0  0  0  0  0  0  0  0  0  0  # atno 11005 bound_to 11000
  144.8504  139.5331  143.6859 LP  0  0  0  0  0  0  0  0  0  0  0  0  # atno 17320 bound_to 7965
  146.2840  139.6953  142.9209 LP  0  0  0  0  0  0  0  0  0  0  0  0  # atno 17321 bound_to 7965
  139.4837  144.6138  151.7385 LP  0  0  0  0  0  0  0  0  0  0  0  0  # atno 17342 bound_to 10162
  140.5288  144.0764  150.6046 LP  0  0  0  0  0  0  0  0  0  0  0  0  # atno 17343 bound_to 10162
  157.4251  130.7459  149.6944 LP  0  0  0  0  0  0  0  0  0  0  0  0  # atno 17370 bound_to 10713
  155.9777  130.4060  150.3697 LP  0  0  0  0  0  0  0  0  0  0  0  0  # atno 17371 bound_to 10713
  140.2523  134.3668  155.7437 LP  0  0  0  0  0  0  0  0  0  0  0  0  # atno 17394 bound_to 11000
  141.2206  133.7324  156.8955 LP  0  0  0  0  0  0  0  0  0  0  0  0  # atno 17395 bound_to 11000

$$$$
