AV-unprocessed.smi:678|AV-procd|sdf|3317|dock8
  -GOLD-   22720 0283D 1   1.00000     0.00000
 Structure written by MMmdl.
 50 51  0  0  0  0  0  0  0  0  1 V2000
  151.7259  141.8864  157.8943 C   0  0  0  0  0  0  0  0  0  0  0  0
  151.1140  141.2079  156.6812 C   0  0  0  0  0  0  0  0  0  0  0  0
  150.0331  141.7230  156.0558 C   0  0  0  0  0  0  0  0  0  0  0  0
  149.4573  141.0719  154.9046 C   0  0  0  0  0  0  0  0  0  0  0  0
  150.0270  139.9405  154.4670 C   0  0  0  0  0  0  0  0  0  0  0  0
  151.1572  139.3853  155.0963 N   0  0  0  0  0  0  0  0  0  0  0  0
  151.6809  138.1327  154.5201 C   0  0  0  0  0  0  0  0  0  0  0  0
  151.1560  136.8528  155.1929 C   0  0  0  0  0  0  0  0  0  0  0  0
  151.9620  136.0400  155.6441 O   0  0  0  0  0  0  0  0  0  0  0  0
  149.8278  136.6549  155.2255 N   0  0  0  0  0  0  0  0  0  0  0  0
  149.1638  135.4339  155.6653 C   0  0  0  0  0  0  0  0  0  0  0  0
  148.9473  134.4705  154.4850 C   0  0  2  0  0  0  0  0  0  0  0  0
  147.4557  134.2878  154.1301 C   0  0  0  0  0  0  0  0  0  0  0  0
  147.2648  133.3358  153.0405 N   0  0  0  0  0  0  0  0  0  0  0  0
  145.8552  133.1436  152.6943 C   0  0  0  0  0  0  0  0  0  0  0  0
  145.4567  133.5127  151.2480 C   0  0  0  0  0  0  0  0  0  0  0  0
  143.9405  133.3708  151.0544 C   0  0  0  0  0  0  0  0  0  0  0  0
  146.2151  132.6752  150.2052 C   0  0  0  0  0  0  0  0  0  0  0  0
  147.8935  132.0706  153.4034 C   0  0  0  0  0  0  0  0  0  0  0  0
  149.3767  132.2483  153.7709 C   0  0  0  0  0  0  0  0  0  0  0  0
  149.4982  133.2010  154.8231 O   0  0  0  0  0  0  0  0  0  0  0  0
  151.7334  139.9596  156.1976 C   0  0  0  0  0  0  0  0  0  0  0  0
  152.7084  139.4500  156.7525 O   0  0  0  0  0  0  0  0  0  0  0  0
  151.1845  142.7953  158.1591 H   0  0  0  0  0  0  0  0  0  0  0  0
  152.7633  142.1583  157.6961 H   0  0  0  0  0  0  0  0  0  0  0  0
  151.7039  141.2187  158.7562 H   0  0  0  0  0  0  0  0  0  0  0  0
  149.5862  142.6377  156.4179 H   0  0  0  0  0  0  0  0  0  0  0  0
  148.5870  141.4811  154.4124 H   0  0  0  0  0  0  0  0  0  0  0  0
  149.6535  139.3851  153.6184 H   0  0  0  0  0  0  0  0  0  0  0  0
  151.4285  138.0887  153.4594 H   0  0  0  0  0  0  0  0  0  0  0  0
  152.7716  138.1126  154.5469 H   0  0  0  0  0  0  0  0  0  0  0  0
  149.2352  137.3795  154.8473 H   0  0  0  0  0  0  0  0  0  0  0  0
  149.7380  134.9475  156.4556 H   0  0  0  0  0  0  0  0  0  0  0  0
  148.2039  135.7074  156.1040 H   0  0  0  0  0  0  0  0  0  0  0  0
  149.4810  134.8579  153.6148 H   0  0  0  0  0  0  0  0  0  0  0  0
  146.9068  133.9566  155.0131 H   0  0  0  0  0  0  0  0  0  0  0  0
  147.0442  135.2560  153.8501 H   0  0  0  0  0  0  0  0  0  0  0  0
  145.5955  132.0961  152.8552 H   0  0  0  0  0  0  0  0  0  0  0  0
  145.2352  133.7116  153.3897 H   0  0  0  0  0  0  0  0  0  0  0  0
  145.6895  134.5621  151.0731 H   0  0  0  0  0  0  0  0  0  0  0  0
  143.6160  132.3402  151.2010 H   0  0  0  0  0  0  0  0  0  0  0  0
  143.6427  133.6743  150.0504 H   0  0  0  0  0  0  0  0  0  0  0  0
  143.3941  133.9964  151.7609 H   0  0  0  0  0  0  0  0  0  0  0  0
  146.0253  131.6099  150.3385 H   0  0  0  0  0  0  0  0  0  0  0  0
  147.2917  132.8340  150.2747 H   0  0  0  0  0  0  0  0  0  0  0  0
  145.9141  132.9436  149.1923 H   0  0  0  0  0  0  0  0  0  0  0  0
  147.3658  131.6248  154.2481 H   0  0  0  0  0  0  0  0  0  0  0  0
  147.8098  131.3644  152.5765 H   0  0  0  0  0  0  0  0  0  0  0  0
  149.8024  131.2997  154.0972 H   0  0  0  0  0  0  0  0  0  0  0  0
  149.9525  132.5770  152.9045 H   0  0  0  0  0  0  0  0  0  0  0  0
  1  2  1  0  0  0  0
  1 24  1  0  0  0  0
  1 25  1  0  0  0  0
  1 26  1  0  0  0  0
  2 22  1  0  0  0  0
  2  3  2  0  0  0  0
  3  4  1  0  0  0  0
  3 27  1  0  0  0  0
  4  5  2  0  0  0  0
  4 28  1  0  0  0  0
  5  6  1  0  0  0  0
  5 29  1  0  0  0  0
  6  7  1  0  0  0  0
  6 22  1  0  0  0  0
  7  8  1  0  0  0  0
  7 30  1  0  0  0  0
  7 31  1  0  0  0  0
  8  9  2  0  0  0  0
  8 10  1  0  0  0  0
 10 11  1  0  0  0  0
 10 32  1  0  0  0  0
 11 12  1  0  0  0  0
 11 33  1  0  0  0  0
 11 34  1  0  0  0  0
 12 21  1  0  0  0  0
 12 13  1  0  0  0  0
 12 35  1  0  0  0  0
 13 14  1  0  0  0  0
 13 36  1  0  0  0  0
 13 37  1  0  0  0  0
 14 15  1  0  0  0  0
 14 19  1  0  0  0  0
 15 16  1  0  0  0  0
 15 38  1  0  0  0  0
 15 39  1  0  0  0  0
 16 17  1  0  0  0  0
 16 18  1  0  0  0  0
 16 40  1  0  0  0  0
 17 41  1  0  0  0  0
 17 42  1  0  0  0  0
 17 43  1  0  0  0  0
 18 44  1  0  0  0  0
 18 45  1  0  0  0  0
 18 46  1  0  0  0  0
 19 20  1  0  0  0  0
 19 47  1  0  0  0  0
 19 48  1  0  0  0  0
 20 21  1  0  0  0  0
 20 49  1  0  0  0  0
 20 50  1  0  0  0  0
 22 23  2  0  0  0  0
M  END
> <s_m_source_file>
AV-unprocessed.smi

> <i_m_source_file_index>
678

> <i_lp_mmshare_version>
43012

> <i_f3d_flags>
0

> <s_epik_input>
W0NIM11jMVtjSF1bY0hdW2NIXW4oYzE9TylbQ0gyXUMoPU8pW05IXVtDSDJdW0NAQEhdMltDSDJdTihbQ0gyXVtDSDJdTzIpW0NIMl1bQ0hdKFtDSDNdKVtDSDNd

> <s_epik_cmdline>
J2VwaWtfcHl0aG9uJywgJy1waCcsICc3LjAnLCAnLXRuJywgJzgnLCAnLW1hJywgJzIwMCcsICctbWV0YWxfYmluZGluZycsICctaW1hZScsICc8aW5maWxlLm1hZT4nLCAnLW9tYWUnLCAnPG91dGZpbGUubWFlPic=

> <r_lp_tautomer_probability>
1

> <r_epik_Ionization_Penalty>
1.11669

> <r_epik_Ionization_Penalty_Charging>
7.32459e-07

> <r_epik_Ionization_Penalty_Neutral>
1.11669

> <r_epik_State_Penalty>
1.17516

> <r_epik_Charging_Adjusted_Penalty>
1.17516

> <i_epik_Tot_Q>
0

> <i_epik_Tot_abs_Q>
0

> <r_epik_Metal_State_Penalty>
1.17513

> <b_epik_Metal_Only>
0

> <s_lp_Force_Field>
OPLS_2005

> <r_lp_Energy>
32.9221

> <b_lp_Chiralities_Consistent>
1

> <s_lp_Variant>
AV-unprocessed.smi:678-5

> <Gold.Version>
5.8.1

> <Gold.Id.Protein>
6NUR|6NUR_protein|mol2

> <Gold.PLP.Fitness>
45.9434

> <Gold.PLP.PLP>
-40.9705

> <Gold.PLP.part.hbond>
-2.0000

> <Gold.PLP.part.metal>
0.0000

> <Gold.PLP.part.buried>
-0.9810

> <Gold.PLP.part.nonpolar>
-37.5401

> <Gold.PLP.part.repulsive>
0.2622

> <Gold.PLP.ligand.clash>
0.0000

> <Gold.PLP.ligand.torsion>
2.0279

> <Gold.PLP.Chemscore.Hbond>
2.0000

> <Gold.PLP.Chemscore.CHOScore>
0.9897

> <Gold.PLP.Chemscore.Metal>
0.0000

> <Gold.Chemscore.Hbonds>
donor molecule, donor type, donor heavy atom, donor atom, acceptor molecule, acceptor atom, score
      P1  H  7997  8008       L1    23  1.00
      P1  H 10752 10763       L1     9  0.70
      L1  C     5    29       P1  7957  0.96

> <Gold.PLP.Chemscore.Internal.Correction>
0.0595

> <Gold.Rescore>
     Score         DG    S(hbond)    S(metal)    S(lipo)     H(rot)  DE(clash)    DE(int)     intcor
     16.35     -18.57       1.99        0.00      95.00       1.82       0.26       1.96       ----

> <Gold.Chemscore.Fitness>
16.3516

> <Gold.Chemscore.DG>
-18.5730

> <Gold.Chemscore.ZeroCoef>
-5.4800

> <Gold.Chemscore.Hbond>
1.9906

> <Gold.Chemscore.Metal>
0.0000

> <Gold.Chemscore.Lipo>
94.9971

> <Gold.Chemscore.Internal_Hbond>
0.0000

> <Gold.Chemscore.DEClash>
0.2595

> <Gold.Chemscore.DEInternal>
1.9619

> <Gold.Chemscore.Rot>
1.8243

> <Gold.Chemscore.Internal.Correction>
   9.000000E+99

> <Gold.Chemscore.Hbonds>
donor molecule, donor type, donor heavy atom, donor atom, acceptor molecule, acceptor atom, score
      P1  H  7997  8008       L1    23  0.98
      P1  H 10752 10763       L1     9  0.68

> <Gold.Chemscore.Hbond.Weighted>
-6.6486

> <Gold.Chemscore.Metal.Weighted>
-0.0000

> <Gold.Chemscore.Lipo.Weighted>
-11.1147

> <Gold.Chemscore.Internal_Hbond.Weighted>
0.0000

> <Gold.Chemscore.DEClash.Weighted>
0.2595

> <Gold.Chemscore.DEInternal.Weighted>
1.9619

> <Gold.Chemscore.Rot.Weighted>
4.6703

> <Gold.Chemscore.Internal.Correction.Weighted>
   9.000000E+99

> <Gold.Protein.RotatedTorsions>
[ 6907 6896 6895 6894 ] final  100.90 input  -60.11 | X-H torsion
[ 7974 7965 7964 7962 ] final   30.55 input  175.53 | X-H torsion
[ 8008 7997 7996 7995 ] final  -51.40 input   59.86 | X-H torsion
[ 10167 10162 10161 10158 ] final  -32.43 input  -65.29 | X-H torsion
[ 10718 10713 10712 10709 ] final  112.82 input   66.30 | X-H torsion
[ 10763 10752 10751 10750 ] final   76.49 input  -60.55 | X-H torsion
[ 11005 11000 10999 10996 ] final   33.05 input  -57.11 | X-H torsion

> <Gold.Protein.ActiveResidues>
 VAL166  LYS551  ARG553  GLY616  TRP617  ASP618  TYR619  PRO620  LYS621  CYS622 
 ASP623  PHE694  ASN695  SER759  ASP760  ASP761  ALA762  ILE779  LEU786  VAL792 
 PHE793  MET794  SER795  GLU796  ALA797  LYS798  CYS799  TRP800  GLU811  SER814 

> <Gold.Protein.RotatedAtoms>
  152.5362  134.0207  159.7980 H   0  0  0  0  0  0  0  0  0  0  0  0  # atno 6907 bound_to 6896
  151.0394  133.5712  159.2660 H   0  0  0  0  0  0  0  0  0  0  0  0  # atno 6908 bound_to 6896
  151.2687  135.0685  159.9179 H   0  0  0  0  0  0  0  0  0  0  0  0  # atno 6909 bound_to 6896
  146.1605  139.6773  142.9037 H   0  0  0  0  0  0  0  0  0  0  0  0  # atno 7974 bound_to 7965
  154.4082  140.1249  156.4823 H   0  0  0  0  0  0  0  0  0  0  0  0  # atno 8008 bound_to 7997
  155.7072  140.3494  155.4939 H   0  0  0  0  0  0  0  0  0  0  0  0  # atno 8009 bound_to 7997
  155.9332  140.1073  157.1105 H   0  0  0  0  0  0  0  0  0  0  0  0  # atno 8010 bound_to 7997
  140.7221  143.3695  151.1805 H   0  0  0  0  0  0  0  0  0  0  0  0  # atno 10167 bound_to 10162
  157.6372  131.0974  150.6950 H   0  0  0  0  0  0  0  0  0  0  0  0  # atno 10718 bound_to 10713
  153.0729  135.4949  154.8344 H   0  0  0  0  0  0  0  0  0  0  0  0  # atno 10763 bound_to 10752
  154.7048  135.3008  154.9289 H   0  0  0  0  0  0  0  0  0  0  0  0  # atno 10764 bound_to 10752
  154.0002  135.6767  153.4811 H   0  0  0  0  0  0  0  0  0  0  0  0  # atno 10765 bound_to 10752
  140.2671  134.3125  155.7839 H   0  0  0  0  0  0  0  0  0  0  0  0  # atno 11005 bound_to 11000
  145.4601  141.0432  143.2756 LP  0  0  0  0  0  0  0  0  0  0  0  0  # atno 17320 bound_to 7965
  144.8020  139.6123  143.7067 LP  0  0  0  0  0  0  0  0  0  0  0  0  # atno 17321 bound_to 7965
  139.7264  143.9142  152.3004 LP  0  0  0  0  0  0  0  0  0  0  0  0  # atno 17342 bound_to 10162
  139.8916  144.6962  150.8764 LP  0  0  0  0  0  0  0  0  0  0  0  0  # atno 17343 bound_to 10162
  156.7280  130.4701  149.5506 LP  0  0  0  0  0  0  0  0  0  0  0  0  # atno 17370 bound_to 10713
  156.1621  130.6381  151.0732 LP  0  0  0  0  0  0  0  0  0  0  0  0  # atno 17371 bound_to 10713
  141.2182  133.7444  156.9277 LP  0  0  0  0  0  0  0  0  0  0  0  0  # atno 17394 bound_to 11000
  140.1409  134.9294  157.2465 LP  0  0  0  0  0  0  0  0  0  0  0  0  # atno 17395 bound_to 11000

$$$$
