AV-unprocessed.smi:1433|AV-procd|sdf|5842|dock6
  -GOLD-   22720 5503D 1   1.00000     0.00000
 Structure written by MMmdl.
 45 46  0  0  0  0  0  0  0  0  2 V2000
  147.9592  141.6298  154.1938 C   0  0  0  0  0  0  0  0  0  0  0  0
  148.5356  140.2743  154.6161 C   0  0  1  0  0  0  0  0  0  0  0  0
  148.2007  139.1624  153.5991 C   0  0  0  0  0  0  0  0  0  0  0  0
  148.8255  137.8678  153.9872 N   0  3  2  0  0  0  0  0  0  0  0  0
  148.1845  137.1548  155.1463 C   0  0  2  0  0  0  0  0  0  0  0  0
  148.9841  135.8934  155.5539 C   0  0  0  0  0  0  0  0  0  0  0  0
  146.7046  136.7755  154.8529 C   0  0  0  0  0  0  0  0  0  0  0  0
  146.4638  136.4274  153.4554 N   0  0  0  0  0  0  0  0  0  0  0  0
  145.2980  135.9763  152.9656 C   0  0  0  0  0  0  0  0  0  0  0  0
  144.2955  135.8054  153.6592 O   0  0  0  0  0  0  0  0  0  0  0  0
  145.2600  135.6551  151.4705 C   0  0  0  0  0  0  0  0  0  0  0  0
  145.1100  134.2300  151.2364 N   0  0  0  0  0  0  0  0  0  0  0  0
  143.9498  133.5104  151.0373 C   0  0  0  0  0  0  0  0  0  0  0  0
  144.3064  132.2042  150.8604 C   0  0  0  0  0  0  0  0  0  0  0  0
  145.7251  132.2235  150.9693 C   0  0  0  0  0  0  0  0  0  0  0  0
  146.2028  133.4366  151.1953 N   0  0  0  0  0  0  0  0  0  0  0  0
  150.2929  138.0915  154.1046 C   0  0  0  0  0  0  0  0  0  0  0  0
  150.6075  139.2129  155.1183 C   0  0  1  0  0  0  0  0  0  0  0  0
  152.1096  139.5038  155.2052 C   0  0  0  0  0  0  0  0  0  0  0  0
  149.9514  140.4075  154.7037 O   0  0  0  0  0  0  0  0  0  0  0  0
  146.8721  141.5881  154.1218 H   0  0  0  0  0  0  0  0  0  0  0  0
  148.3477  141.9397  153.2232 H   0  0  0  0  0  0  0  0  0  0  0  0
  148.2142  142.4045  154.9173 H   0  0  0  0  0  0  0  0  0  0  0  0
  148.1344  140.0257  155.5994 H   0  0  0  0  0  0  0  0  0  0  0  0
  147.1287  139.0824  153.4379 H   0  0  0  0  0  0  0  0  0  0  0  0
  148.6014  139.4463  152.6247 H   0  0  0  0  0  0  0  0  0  0  0  0
  148.1894  137.8258  156.0044 H   0  0  0  0  0  0  0  0  0  0  0  0
  148.4802  135.3191  156.3307 H   0  0  0  0  0  0  0  0  0  0  0  0
  149.9583  136.1402  155.9733 H   0  0  0  0  0  0  0  0  0  0  0  0
  149.1367  135.2283  154.7034 H   0  0  0  0  0  0  0  0  0  0  0  0
  146.3756  135.9212  155.4420 H   0  0  0  0  0  0  0  0  0  0  0  0
  146.0476  137.6058  155.1139 H   0  0  0  0  0  0  0  0  0  0  0  0
  147.2353  136.5425  152.8139 H   0  0  0  0  0  0  0  0  0  0  0  0
  144.4280  136.1809  151.0002 H   0  0  0  0  0  0  0  0  0  0  0  0
  146.1731  136.0050  150.9864 H   0  0  0  0  0  0  0  0  0  0  0  0
  142.9779  133.9819  151.0373 H   0  0  0  0  0  0  0  0  0  0  0  0
  143.6540  131.3629  150.6798 H   0  0  0  0  0  0  0  0  0  0  0  0
  146.4171  131.3979  150.8914 H   0  0  0  0  0  0  0  0  0  0  0  0
  150.8376  137.1793  154.3385 H   0  0  0  0  0  0  0  0  0  0  0  0
  150.6658  138.3889  153.1233 H   0  0  0  0  0  0  0  0  0  0  0  0
  150.2570  138.9361  156.1133 H   0  0  0  0  0  0  0  0  0  0  0  0
  152.6612  138.6234  155.5359 H   0  0  0  0  0  0  0  0  0  0  0  0
  152.3105  140.3066  155.9150 H   0  0  0  0  0  0  0  0  0  0  0  0
  152.5106  139.8070  154.2375 H   0  0  0  0  0  0  0  0  0  0  0  0
  148.7009  137.2496  153.1981 H   0  0  0  0  0  0  0  0  0  0  0  0
  1  2  1  0  0  0  0
  1 21  1  0  0  0  0
  1 22  1  0  0  0  0
  1 23  1  0  0  0  0
  2 20  1  0  0  0  0
  2  3  1  0  0  0  0
  2 24  1  0  0  0  0
  3  4  1  0  0  0  0
  3 25  1  0  0  0  0
  3 26  1  0  0  0  0
  4  5  1  0  0  0  0
  4 17  1  0  0  0  0
  4 45  1  0  0  0  0
  5  6  1  0  0  0  0
  5  7  1  0  0  0  0
  5 27  1  0  0  0  0
  6 28  1  0  0  0  0
  6 29  1  0  0  0  0
  6 30  1  0  0  0  0
  7  8  1  0  0  0  0
  7 31  1  0  0  0  0
  7 32  1  0  0  0  0
  8  9  1  0  0  0  0
  8 33  1  0  0  0  0
  9 10  2  0  0  0  0
  9 11  1  0  0  0  0
 11 12  1  0  0  0  0
 11 34  1  0  0  0  0
 11 35  1  0  0  0  0
 12 16  1  0  0  0  0
 12 13  1  0  0  0  0
 13 14  2  0  0  0  0
 13 36  1  0  0  0  0
 14 15  1  0  0  0  0
 14 37  1  0  0  0  0
 15 16  2  0  0  0  0
 15 38  1  0  0  0  0
 17 18  1  0  0  0  0
 17 39  1  0  0  0  0
 17 40  1  0  0  0  0
 18 19  1  0  0  0  0
 18 20  1  0  0  0  0
 18 41  1  0  0  0  0
 19 42  1  0  0  0  0
 19 43  1  0  0  0  0
 19 44  1  0  0  0  0
M  CHG  1   4   1
M  END
> <s_m_source_file>
AV-unprocessed.smi

> <i_m_source_file_index>
1433

> <i_lp_mmshare_version>
43012

> <i_f3d_flags>
0

> <s_epik_input>
W0NIM11bQ0BASF0xW0NIMl1OKFtDSDJdW0NASF0oTzEpW0NIM10pW0NASF0oW0NIM10pW0NIMl1bTkhdQyg9TylbQ0gyXW4yW2NIXVtjSF1bY0hdbjI=

> <s_epik_cmdline>
J2VwaWtfcHl0aG9uJywgJy1waCcsICc3LjAnLCAnLXRuJywgJzgnLCAnLW1hJywgJzIwMCcsICctbWV0YWxfYmluZGluZycsICctaW1hZScsICc8aW5maWxlLm1hZT4nLCAnLW9tYWUnLCAnPG91dGZpbGUubWFlPic=

> <r_lp_tautomer_probability>
1

> <r_epik_Ionization_Penalty>
0.748405

> <r_epik_Ionization_Penalty_Charging>
0.748396

> <r_epik_Ionization_Penalty_Neutral>
8.54426e-06

> <r_epik_State_Penalty>
0.775162

> <r_epik_Charging_Adjusted_Penalty>
1.52356

> <i_epik_Tot_Q>
1

> <i_epik_Tot_abs_Q>
1

> <r_epik_Metal_State_Penalty>
0.775167

> <b_epik_Metal_Only>
0

> <s_lp_Force_Field>
OPLS_2005

> <r_lp_Energy>
22.2422

> <b_lp_Chiralities_Consistent>
1

> <s_lp_Variant>
AV-unprocessed.smi:1433-8

> <Gold.Version>
5.8.1

> <Gold.Id.Protein>
6NUR|6NUR_protein|mol2

> <Gold.PLP.Fitness>
50.7475

> <Gold.PLP.PLP>
-34.3666

> <Gold.PLP.part.hbond>
-3.0000

> <Gold.PLP.part.metal>
0.0000

> <Gold.PLP.part.buried>
-2.9398

> <Gold.PLP.part.nonpolar>
-29.6907

> <Gold.PLP.part.repulsive>
0.3648

> <Gold.PLP.ligand.clash>
0.0000

> <Gold.PLP.ligand.torsion>
0.8333

> <Gold.PLP.Chemscore.Hbond>
4.0000

> <Gold.PLP.Chemscore.CHOScore>
1.9921

> <Gold.PLP.Chemscore.Metal>
0.0000

> <Gold.Chemscore.Hbonds>
donor molecule, donor type, donor heavy atom, donor atom, acceptor molecule, acceptor atom, score
      L1  H     4    45       P1  7948  2.00
      L1  H     8    33       P1  7948  1.00
      P1  H  7989  7998       L1    20  0.37
      L1  C    13    36       P1 10186  1.00
      L1  C    15    38       P1 10747  0.62

> <Gold.PLP.Chemscore.Internal.Correction>
0.0711

> <Gold.Rescore>
     Score         DG    S(hbond)    S(metal)    S(lipo)     H(rot)  DE(clash)    DE(int)     intcor
     17.88     -19.14       2.72        0.00      79.93       1.87       0.61       0.65       ----

> <Gold.Chemscore.Fitness>
17.8800

> <Gold.Chemscore.DG>
-19.1443

> <Gold.Chemscore.ZeroCoef>
-5.4800

> <Gold.Chemscore.Hbond>
2.7210

> <Gold.Chemscore.Metal>
0.0000

> <Gold.Chemscore.Lipo>
79.9344

> <Gold.Chemscore.Internal_Hbond>
0.0000

> <Gold.Chemscore.DEClash>
0.6143

> <Gold.Chemscore.DEInternal>
0.6500

> <Gold.Chemscore.Rot>
1.8657

> <Gold.Chemscore.Internal.Correction>
   9.000000E+99

> <Gold.Chemscore.Hbonds>
donor molecule, donor type, donor heavy atom, donor atom, acceptor molecule, acceptor atom, score
      L1  H     4    45       P1  7948  1.00
      L1  H     8    33       P1  7948  0.97
      P1  H  7989  7998       L1    20  0.02

> <Gold.Chemscore.Hbond.Weighted>
-9.0881

> <Gold.Chemscore.Metal.Weighted>
-0.0000

> <Gold.Chemscore.Lipo.Weighted>
-9.3523

> <Gold.Chemscore.Internal_Hbond.Weighted>
0.0000

> <Gold.Chemscore.DEClash.Weighted>
0.6143

> <Gold.Chemscore.DEInternal.Weighted>
0.6500

> <Gold.Chemscore.Rot.Weighted>
4.7761

> <Gold.Chemscore.Internal.Correction.Weighted>
   9.000000E+99

> <Gold.Protein.RotatedTorsions>
[ 6907 6896 6895 6894 ] final  143.76 input  -60.11 | X-H torsion
[ 7974 7965 7964 7962 ] final   83.63 input  175.53 | X-H torsion
[ 8008 7997 7996 7995 ] final -154.95 input   59.86 | X-H torsion
[ 10167 10162 10161 10158 ] final -156.75 input  -65.29 | X-H torsion
[ 10718 10713 10712 10709 ] final -174.52 input   66.30 | X-H torsion
[ 10763 10752 10751 10750 ] final    8.09 input  -60.55 | X-H torsion
[ 11005 11000 10999 10996 ] final -155.11 input  -57.11 | X-H torsion

> <Gold.Protein.ActiveResidues>
 VAL166  LYS551  ARG553  GLY616  TRP617  ASP618  TYR619  PRO620  LYS621  CYS622 
 ASP623  PHE694  ASN695  SER759  ASP760  ASP761  ALA762  ILE779  LEU786  VAL792 
 PHE793  MET794  SER795  GLU796  ALA797  LYS798  CYS799  TRP800  GLU811  SER814 

> <Gold.Protein.RotatedAtoms>
  152.2023  133.4850  159.5064 H   0  0  0  0  0  0  0  0  0  0  0  0  # atno 6907 bound_to 6896
  150.6972  134.1575  159.4172 H   0  0  0  0  0  0  0  0  0  0  0  0  # atno 6908 bound_to 6896
  151.9492  135.0177  160.0591 H   0  0  0  0  0  0  0  0  0  0  0  0  # atno 6909 bound_to 6896
  145.6094  139.2366  143.2201 H   0  0  0  0  0  0  0  0  0  0  0  0  # atno 7974 bound_to 7965
  155.6943  140.0759  157.2435 H   0  0  0  0  0  0  0  0  0  0  0  0  # atno 8008 bound_to 7997
  154.4083  140.1659  156.2174 H   0  0  0  0  0  0  0  0  0  0  0  0  # atno 8009 bound_to 7997
  155.9424  140.3383  155.6341 H   0  0  0  0  0  0  0  0  0  0  0  0  # atno 8010 bound_to 7997
  139.6825  143.9556  152.2344 H   0  0  0  0  0  0  0  0  0  0  0  0  # atno 10167 bound_to 10162
  156.7864  130.9502  151.3120 H   0  0  0  0  0  0  0  0  0  0  0  0  # atno 10718 bound_to 10713
  153.2289  135.6890  153.7912 H   0  0  0  0  0  0  0  0  0  0  0  0  # atno 10763 bound_to 10752
  153.7084  135.3286  155.3241 H   0  0  0  0  0  0  0  0  0  0  0  0  # atno 10764 bound_to 10752
  154.8305  135.4584  154.1167 H   0  0  0  0  0  0  0  0  0  0  0  0  # atno 10765 bound_to 10752
  140.6901  134.4051  157.5220 H   0  0  0  0  0  0  0  0  0  0  0  0  # atno 11005 bound_to 11000
  146.1516  140.6917  142.9319 LP  0  0  0  0  0  0  0  0  0  0  0  0  # atno 17320 bound_to 7965
  144.7276  140.4573  143.6961 LP  0  0  0  0  0  0  0  0  0  0  0  0  # atno 17321 bound_to 7965
  139.9350  144.6717  150.8324 LP  0  0  0  0  0  0  0  0  0  0  0  0  # atno 17342 bound_to 10162
  140.7657  143.3282  151.2468 LP  0  0  0  0  0  0  0  0  0  0  0  0  # atno 17343 bound_to 10162
  157.6622  130.8976  149.9854 LP  0  0  0  0  0  0  0  0  0  0  0  0  # atno 17370 bound_to 10713
  156.1186  130.3647  149.9925 LP  0  0  0  0  0  0  0  0  0  0  0  0  # atno 17371 bound_to 10713
  139.8926  134.8751  156.2263 LP  0  0  0  0  0  0  0  0  0  0  0  0  # atno 17394 bound_to 11000
  141.0249  133.7021  156.1330 LP  0  0  0  0  0  0  0  0  0  0  0  0  # atno 17395 bound_to 11000

$$$$
