AV-unprocessed.smi:385|AV-procd|sdf|2472|dock2
  -GOLD-   2262022413D 1   1.00000     0.00000
 Structure written by MMmdl.
 38 39  0  0  0  0  0  0  0  0  3 V2000
  148.7156  141.5530  153.7283 O   0  0  0  0  0  0  0  0  0  0  0  0
  148.2899  140.5859  154.3597 C   0  0  0  0  0  0  0  0  0  0  0  0
  148.4090  140.4674  155.6910 N   0  0  0  0  0  0  0  0  0  0  0  0
  149.0409  141.4467  156.5713 C   0  0  0  0  0  0  0  0  0  0  0  0
  150.5287  141.6901  156.2433 C   0  0  0  0  0  0  0  0  0  0  0  0
  151.2280  142.6124  157.2270 C   0  0  0  0  0  0  0  0  0  0  0  0
  152.1122  142.1248  158.2144 C   0  0  0  0  0  0  0  0  0  0  0  0
  152.7355  143.0361  159.0919 C   0  0  0  0  0  0  0  0  0  0  0  0
  152.4623  144.4137  158.9640 C   0  0  0  0  0  0  0  0  0  0  0  0
  151.5700  144.8456  157.9614 C   0  0  0  0  0  0  0  0  0  0  0  0
  150.9923  143.9414  157.1399 N   0  3  0  0  0  0  0  0  0  0  0  0
  147.5682  139.4443  153.6320 C   0  0  0  0  0  0  0  0  0  0  0  0
  147.2617  139.8215  152.1676 C   0  0  0  0  0  0  0  0  0  0  0  0
  146.4913  138.6962  151.4562 C   0  0  0  0  0  0  0  0  0  0  0  0
  145.2519  138.3642  152.1917 N   0  3  0  0  0  0  0  0  0  0  0  0
  145.5032  137.9644  153.5935 C   0  0  0  0  0  0  0  0  0  0  0  0
  146.2545  139.0727  154.3512 C   0  0  0  0  0  0  0  0  0  0  0  0
  148.0365  139.6367  156.1283 H   0  0  0  0  0  0  0  0  0  0  0  0
  148.4900  142.3808  156.4592 H   0  0  0  0  0  0  0  0  0  0  0  0
  148.9252  141.1461  157.6138 H   0  0  0  0  0  0  0  0  0  0  0  0
  151.0583  140.7372  156.2115 H   0  0  0  0  0  0  0  0  0  0  0  0
  150.6196  142.1140  155.2425 H   0  0  0  0  0  0  0  0  0  0  0  0
  152.3133  141.0664  158.2972 H   0  0  0  0  0  0  0  0  0  0  0  0
  153.4149  142.6822  159.8537 H   0  0  0  0  0  0  0  0  0  0  0  0
  152.9291  145.1281  159.6265 H   0  0  0  0  0  0  0  0  0  0  0  0
  151.3023  145.8787  157.7930 H   0  0  0  0  0  0  0  0  0  0  0  0
  148.2182  138.5673  153.6309 H   0  0  0  0  0  0  0  0  0  0  0  0
  146.6728  140.7395  152.1273 H   0  0  0  0  0  0  0  0  0  0  0  0
  148.1884  140.0260  151.6297 H   0  0  0  0  0  0  0  0  0  0  0  0
  146.2326  138.9979  150.4410 H   0  0  0  0  0  0  0  0  0  0  0  0
  147.1122  137.8029  151.3748 H   0  0  0  0  0  0  0  0  0  0  0  0
  144.6514  139.1766  152.1917 H   0  0  0  0  0  0  0  0  0  0  0  0
  144.5502  137.7528  154.0791 H   0  0  0  0  0  0  0  0  0  0  0  0
  146.0794  137.0383  153.6056 H   0  0  0  0  0  0  0  0  0  0  0  0
  146.4635  138.7419  155.3696 H   0  0  0  0  0  0  0  0  0  0  0  0
  145.6092  139.9487  154.4379 H   0  0  0  0  0  0  0  0  0  0  0  0
  144.7788  137.6098  151.7146 H   0  0  0  0  0  0  0  0  0  0  0  0
  150.3495  144.2767  156.4218 H   0  0  0  0  0  0  0  0  0  0  0  0
  1  2  2  0  0  0  0
  2  3  1  0  0  0  0
  2 12  1  0  0  0  0
  3  4  1  0  0  0  0
  3 18  1  0  0  0  0
  4  5  1  0  0  0  0
  4 19  1  0  0  0  0
  4 20  1  0  0  0  0
  5  6  1  0  0  0  0
  5 21  1  0  0  0  0
  5 22  1  0  0  0  0
  6 11  1  0  0  0  0
  6  7  2  0  0  0  0
  7  8  1  0  0  0  0
  7 23  1  0  0  0  0
  8  9  2  0  0  0  0
  8 24  1  0  0  0  0
  9 10  1  0  0  0  0
  9 25  1  0  0  0  0
 10 11  2  0  0  0  0
 10 26  1  0  0  0  0
 11 38  1  0  0  0  0
 12 17  1  0  0  0  0
 12 13  1  0  0  0  0
 12 27  1  0  0  0  0
 13 14  1  0  0  0  0
 13 28  1  0  0  0  0
 13 29  1  0  0  0  0
 14 15  1  0  0  0  0
 14 30  1  0  0  0  0
 14 31  1  0  0  0  0
 15 16  1  0  0  0  0
 15 32  1  0  0  0  0
 15 37  1  0  0  0  0
 16 17  1  0  0  0  0
 16 33  1  0  0  0  0
 16 34  1  0  0  0  0
 17 35  1  0  0  0  0
 17 36  1  0  0  0  0
M  CHG  1  11   1
M  CHG  1  15   1
M  END
> <s_m_source_file>
AV-unprocessed.smi

> <i_m_source_file_index>
385

> <i_lp_mmshare_version>
43012

> <i_f3d_flags>
0

> <s_epik_input>
W0NIMl0xW0NIMl1bTkhdW0NIMl1bQ0gyXVtDSF0xQyg9TylbTkhdW0NIMl1bQ0gyXWMyW2NIXVtjSF1bY0hdW2NIXW4y

> <s_epik_cmdline>
J2VwaWtfcHl0aG9uJywgJy1waCcsICc3LjAnLCAnLXRuJywgJzgnLCAnLW1hJywgJzIwMCcsICctbWV0YWxfYmluZGluZycsICctaW1hZScsICc8aW5maWxlLm1hZT4nLCAnLW9tYWUnLCAnPG91dGZpbGUubWFlPic=

> <r_epik_Ionization_Penalty>
1.95053

> <r_epik_Ionization_Penalty_Charging>
1.95053

> <r_epik_Ionization_Penalty_Neutral>
3.30626e-08

> <r_epik_State_Penalty>
2.07441

> <r_epik_Charging_Adjusted_Penalty>
4.02494

> <i_epik_Tot_Q>
2

> <i_epik_Tot_abs_Q>
2

> <r_epik_Metal_State_Penalty>
2.09624

> <b_epik_Metal_Only>
0

> <s_lp_Force_Field>
OPLS_2005

> <r_lp_Energy>
22.1472

> <b_lp_Chiralities_Consistent>
1

> <s_lp_Variant>
AV-unprocessed.smi:385-2

> <Gold.Version>
5.8.1

> <Gold.Id.Protein>
6NUR|6NUR_protein|mol2

> <Gold.PLP.Fitness>
48.5224

> <Gold.PLP.PLP>
-35.1511

> <Gold.PLP.part.hbond>
-4.0000

> <Gold.PLP.part.metal>
0.0000

> <Gold.PLP.part.buried>
-0.0632

> <Gold.PLP.part.nonpolar>
-31.7428

> <Gold.PLP.part.repulsive>
0.2687

> <Gold.PLP.ligand.clash>
0.0000

> <Gold.PLP.ligand.torsion>
0.4623

> <Gold.PLP.Chemscore.Hbond>
4.7616

> <Gold.PLP.Chemscore.CHOScore>
0.0000

> <Gold.PLP.Chemscore.Metal>
0.0000

> <Gold.Chemscore.Hbonds>
donor molecule, donor type, donor heavy atom, donor atom, acceptor molecule, acceptor atom, score
      L1  H    11    38       P1  8028  2.00
      L1  H    15    32       P1 10175  2.00
      L1  H    15    37       P1 10171  0.02
      P1  H  8011  8017       L1     1  0.70

> <Gold.PLP.Chemscore.Internal.Correction>
0.0112

> <Gold.Rescore>
     Score         DG    S(hbond)    S(metal)    S(lipo)     H(rot)  DE(clash)    DE(int)     intcor
     20.58     -22.76       2.82        0.00     103.77       1.67       1.88       0.30       ----

> <Gold.Chemscore.Fitness>
20.5826

> <Gold.Chemscore.DG>
-22.7644

> <Gold.Chemscore.ZeroCoef>
-5.4800

> <Gold.Chemscore.Hbond>
2.8205

> <Gold.Chemscore.Metal>
0.0000

> <Gold.Chemscore.Lipo>
103.7705

> <Gold.Chemscore.Internal_Hbond>
0.0000

> <Gold.Chemscore.DEClash>
1.8820

> <Gold.Chemscore.DEInternal>
0.2998

> <Gold.Chemscore.Rot>
1.6708

> <Gold.Chemscore.Internal.Correction>
   9.000000E+99

> <Gold.Chemscore.Hbonds>
donor molecule, donor type, donor heavy atom, donor atom, acceptor molecule, acceptor atom, score
      L1  H    11    38       P1  8028  0.99
      L1  H    15    32       P1 10175  0.99
      L1  H    15    37       P1 10171  0.03
      P1  H  8011  8017       L1     1  0.69

> <Gold.Chemscore.Hbond.Weighted>
-9.4204

> <Gold.Chemscore.Metal.Weighted>
-0.0000

> <Gold.Chemscore.Lipo.Weighted>
-12.1411

> <Gold.Chemscore.Internal_Hbond.Weighted>
0.0000

> <Gold.Chemscore.DEClash.Weighted>
1.8820

> <Gold.Chemscore.DEInternal.Weighted>
0.2998

> <Gold.Chemscore.Rot.Weighted>
4.2772

> <Gold.Chemscore.Internal.Correction.Weighted>
   9.000000E+99

> <Gold.Protein.RotatedTorsions>
[ 6907 6896 6895 6894 ] final   52.96 input  -60.11 | X-H torsion
[ 7974 7965 7964 7962 ] final -100.85 input  175.53 | X-H torsion
[ 8008 7997 7996 7995 ] final   -0.54 input   59.86 | X-H torsion
[ 10167 10162 10161 10158 ] final -103.65 input  -65.29 | X-H torsion
[ 10718 10713 10712 10709 ] final   27.20 input   66.30 | X-H torsion
[ 10763 10752 10751 10750 ] final  -55.97 input  -60.55 | X-H torsion
[ 11005 11000 10999 10996 ] final -139.09 input  -57.11 | X-H torsion

> <Gold.Protein.ActiveResidues>
 VAL166  LYS551  ARG553  GLY616  TRP617  ASP618  TYR619  PRO620  LYS621  CYS622 
 ASP623  PHE694  ASN695  SER759  ASP760  ASP761  ALA762  ILE779  LEU786  VAL792 
 PHE793  MET794  SER795  GLU796  ALA797  LYS798  CYS799  TRP800  GLU811  SER814 

> <Gold.Protein.RotatedAtoms>
  152.3288  134.7286  160.0294 H   0  0  0  0  0  0  0  0  0  0  0  0  # atno 6907 bound_to 6896
  151.7710  133.3336  159.3452 H   0  0  0  0  0  0  0  0  0  0  0  0  # atno 6908 bound_to 6896
  150.7411  134.5950  159.6051 H   0  0  0  0  0  0  0  0  0  0  0  0  # atno 6909 bound_to 6896
  145.2892  140.9348  143.2887 H   0  0  0  0  0  0  0  0  0  0  0  0  # atno 7974 bound_to 7965
  154.6569  140.2581  155.7152 H   0  0  0  0  0  0  0  0  0  0  0  0  # atno 8008 bound_to 7997
  156.2601  140.2856  156.0947 H   0  0  0  0  0  0  0  0  0  0  0  0  # atno 8009 bound_to 7997
  155.1367  140.0379  157.2778 H   0  0  0  0  0  0  0  0  0  0  0  0  # atno 8010 bound_to 7997
  140.2177  143.3699  152.0996 H   0  0  0  0  0  0  0  0  0  0  0  0  # atno 10167 bound_to 10162
  157.2170  130.6961  149.6253 H   0  0  0  0  0  0  0  0  0  0  0  0  # atno 10718 bound_to 10713
  154.1992  135.6414  153.5082 H   0  0  0  0  0  0  0  0  0  0  0  0  # atno 10763 bound_to 10752
  153.0016  135.5447  154.6334 H   0  0  0  0  0  0  0  0  0  0  0  0  # atno 10764 bound_to 10752
  154.5742  135.2919  155.0770 H   0  0  0  0  0  0  0  0  0  0  0  0  # atno 10765 bound_to 10752
  140.8553  134.2235  157.4738 H   0  0  0  0  0  0  0  0  0  0  0  0  # atno 11005 bound_to 11000
  144.9187  139.4438  143.6551 LP  0  0  0  0  0  0  0  0  0  0  0  0  # atno 17320 bound_to 7965
  146.3190  139.8035  142.8960 LP  0  0  0  0  0  0  0  0  0  0  0  0  # atno 17321 bound_to 7965
  139.5156  144.6965  151.5616 LP  0  0  0  0  0  0  0  0  0  0  0  0  # atno 17342 bound_to 10162
  140.6277  143.9136  150.6579 LP  0  0  0  0  0  0  0  0  0  0  0  0  # atno 17343 bound_to 10162
  155.9685  130.4532  150.5804 LP  0  0  0  0  0  0  0  0  0  0  0  0  # atno 17370 bound_to 10713
  157.3615  131.0750  151.1633 LP  0  0  0  0  0  0  0  0  0  0  0  0  # atno 17371 bound_to 10713
  139.8705  134.9703  156.4697 LP  0  0  0  0  0  0  0  0  0  0  0  0  # atno 17394 bound_to 11000
  140.8744  133.7964  155.9399 LP  0  0  0  0  0  0  0  0  0  0  0  0  # atno 17395 bound_to 11000

$$$$
