AV-unprocessed.smi:2391|AV-procd|sdf|9482|dock10
  -GOLD-   2272013113D 1   1.00000     0.00000
 Structure written by MMmdl.
 35 36  0  0  0  0  0  0  0  0  1 V2000
  152.7846  140.2578  156.7434 O   0  0  0  0  0  0  0  0  0  0  0  0
  151.9086  140.4165  157.5938 C   0  0  0  0  0  0  0  0  0  0  0  0
  150.6364  139.9958  157.4849 N   0  0  0  0  0  0  0  0  0  0  0  0
  150.0331  139.3039  156.4019 C   0  0  0  0  0  0  0  0  0  0  0  0
  150.6336  139.5133  155.1421 C   0  0  0  0  0  0  0  0  0  0  0  0
  150.0881  138.8562  154.0260 C   0  0  0  0  0  0  0  0  0  0  0  0
  148.9725  138.0307  154.2471 C   0  0  0  0  0  0  0  0  0  0  0  0
  148.4291  137.8598  155.4715 N   0  0  0  0  0  0  0  0  0  0  0  0
  148.9539  138.4879  156.5294 N   0  0  0  0  0  0  0  0  0  0  0  0
  152.1107  141.0451  158.7611 N   0  0  0  0  0  0  0  0  0  0  0  0
  153.3768  141.6185  159.2233 C   0  0  1  0  0  0  0  0  0  0  0  0
  153.1615  143.1015  159.6238 C   0  0  0  0  0  0  0  0  0  0  0  0
  151.8405  143.3747  160.3548 C   0  0  0  0  0  0  0  0  0  0  0  0
  151.6519  144.8890  160.2626 C   0  0  0  0  0  0  0  0  0  0  0  0
  152.3291  145.3133  158.9535 C   0  0  0  0  0  0  0  0  0  0  0  0
  153.1077  144.0897  158.4501 C   0  0  0  0  0  0  0  0  0  0  0  0
  153.9300  140.7354  160.3650 C   0  0  0  0  0  0  0  0  0  0  0  0
  153.5589  139.4684  160.1749 F   0  0  0  0  0  0  0  0  0  0  0  0
  155.2615  140.7675  160.3946 F   0  0  0  0  0  0  0  0  0  0  0  0
  153.4609  141.1446  161.5445 F   0  0  0  0  0  0  0  0  0  0  0  0
  150.0284  140.1955  158.2652 H   0  0  0  0  0  0  0  0  0  0  0  0
  151.4917  140.1601  155.0306 H   0  0  0  0  0  0  0  0  0  0  0  0
  150.5086  138.9799  153.0391 H   0  0  0  0  0  0  0  0  0  0  0  0
  148.5078  137.4983  153.4305 H   0  0  0  0  0  0  0  0  0  0  0  0
  151.3289  141.1242  159.3947 H   0  0  0  0  0  0  0  0  0  0  0  0
  154.1065  141.5908  158.4119 H   0  0  0  0  0  0  0  0  0  0  0  0
  153.9731  143.4100  160.2850 H   0  0  0  0  0  0  0  0  0  0  0  0
  151.0195  142.8723  159.8409 H   0  0  0  0  0  0  0  0  0  0  0  0
  151.8478  143.0252  161.3877 H   0  0  0  0  0  0  0  0  0  0  0  0
  150.6001  145.1742  160.2985 H   0  0  0  0  0  0  0  0  0  0  0  0
  152.1514  145.3710  161.1040 H   0  0  0  0  0  0  0  0  0  0  0  0
  151.5943  145.6300  158.2123 H   0  0  0  0  0  0  0  0  0  0  0  0
  152.9974  146.1571  159.1297 H   0  0  0  0  0  0  0  0  0  0  0  0
  154.1014  144.3626  158.0940 H   0  0  0  0  0  0  0  0  0  0  0  0
  152.5700  143.6433  157.6124 H   0  0  0  0  0  0  0  0  0  0  0  0
  1  2  2  0  0  0  0
  2  3  1  0  0  0  0
  2 10  1  0  0  0  0
  3  4  1  0  0  0  0
  3 21  1  0  0  0  0
  4  9  1  0  0  0  0
  4  5  2  0  0  0  0
  5  6  1  0  0  0  0
  5 22  1  0  0  0  0
  6  7  2  0  0  0  0
  6 23  1  0  0  0  0
  7  8  1  0  0  0  0
  7 24  1  0  0  0  0
  8  9  2  0  0  0  0
 10 11  1  0  0  0  0
 10 25  1  0  0  0  0
 11 12  1  0  0  0  0
 11 17  1  0  0  0  0
 11 26  1  0  0  0  0
 12 16  1  0  0  0  0
 12 13  1  0  0  0  0
 12 27  1  0  0  0  0
 13 14  1  0  0  0  0
 13 28  1  0  0  0  0
 13 29  1  0  0  0  0
 14 15  1  0  0  0  0
 14 30  1  0  0  0  0
 14 31  1  0  0  0  0
 15 16  1  0  0  0  0
 15 32  1  0  0  0  0
 15 33  1  0  0  0  0
 16 34  1  0  0  0  0
 16 35  1  0  0  0  0
 17 18  1  0  0  0  0
 17 19  1  0  0  0  0
 17 20  1  0  0  0  0
M  END
> <s_m_source_file>
AV-unprocessed.smi

> <i_m_source_file_index>
2391

> <i_lp_mmshare_version>
43012

> <i_f3d_flags>
0

> <s_epik_input>
W0NIMl0xW0NIMl1bQ0gyXVtDSDJdW0NIXTFbQ0BIXShDKEYpKEYpRilbTkhdQyg9TylbTkhdYzJbY0hdW2NIXVtjSF1ubjI=

> <s_epik_cmdline>
J2VwaWtfcHl0aG9uJywgJy1waCcsICc3LjAnLCAnLXRuJywgJzgnLCAnLW1hJywgJzIwMCcsICctbWV0YWxfYmluZGluZycsICctaW1hZScsICc8aW5maWxlLm1hZT4nLCAnLW9tYWUnLCAnPG91dGZpbGUubWFlPic=

> <r_lp_tautomer_probability>
1

> <r_epik_Ionization_Penalty>
0.00359591

> <r_epik_Ionization_Penalty_Charging>
0

> <r_epik_Ionization_Penalty_Neutral>
0.00359591

> <r_epik_State_Penalty>
0.0123658

> <r_epik_Charging_Adjusted_Penalty>
0.0123658

> <i_epik_Tot_Q>
0

> <i_epik_Tot_abs_Q>
0

> <r_epik_Metal_State_Penalty>
0.0410426

> <b_epik_Metal_Only>
0

> <s_lp_Force_Field>
OPLS_2005

> <r_lp_Energy>
31.4034

> <b_lp_Chiralities_Consistent>
1

> <s_lp_Variant>
AV-unprocessed.smi:2391-2

> <Gold.Version>
5.8.1

> <Gold.Id.Protein>
6NUR|6NUR_protein|mol2

> <Gold.PLP.Fitness>
41.4928

> <Gold.PLP.PLP>
-38.5552

> <Gold.PLP.part.hbond>
-1.0000

> <Gold.PLP.part.metal>
0.0000

> <Gold.PLP.part.buried>
-1.9369

> <Gold.PLP.part.nonpolar>
-34.7171

> <Gold.PLP.part.repulsive>
0.2364

> <Gold.PLP.ligand.clash>
0.0000

> <Gold.PLP.ligand.torsion>
1.6473

> <Gold.PLP.Chemscore.Hbond>
1.0000

> <Gold.PLP.Chemscore.CHOScore>
0.9819

> <Gold.PLP.Chemscore.Metal>
0.0000

> <Gold.Chemscore.Hbonds>
donor molecule, donor type, donor heavy atom, donor atom, acceptor molecule, acceptor atom, score
      P1  H  7997  8010       L1     1  1.00
      L1  C     7    24       P1  7948  1.00

> <Gold.PLP.Chemscore.Internal.Correction>
0.2866

> <Gold.Rescore>
     Score         DG    S(hbond)    S(metal)    S(lipo)     H(rot)  DE(clash)    DE(int)     intcor
     13.86     -16.89       0.98        0.00      98.55       1.33       0.03       3.00       ----

> <Gold.Chemscore.Fitness>
13.8592

> <Gold.Chemscore.DG>
-16.8938

> <Gold.Chemscore.ZeroCoef>
-5.4800

> <Gold.Chemscore.Hbond>
0.9848

> <Gold.Chemscore.Metal>
0.0000

> <Gold.Chemscore.Lipo>
98.5504

> <Gold.Chemscore.Internal_Hbond>
0.0000

> <Gold.Chemscore.DEClash>
0.0346

> <Gold.Chemscore.DEInternal>
3.0000

> <Gold.Chemscore.Rot>
1.3304

> <Gold.Chemscore.Internal.Correction>
   9.000000E+99

> <Gold.Chemscore.Hbonds>
donor molecule, donor type, donor heavy atom, donor atom, acceptor molecule, acceptor atom, score
      P1  H  7997  8010       L1     1  0.93

> <Gold.Chemscore.Hbond.Weighted>
-3.2891

> <Gold.Chemscore.Metal.Weighted>
-0.0000

> <Gold.Chemscore.Lipo.Weighted>
-11.5304

> <Gold.Chemscore.Internal_Hbond.Weighted>
0.0000

> <Gold.Chemscore.DEClash.Weighted>
0.0346

> <Gold.Chemscore.DEInternal.Weighted>
3.0000

> <Gold.Chemscore.Rot.Weighted>
3.4057

> <Gold.Chemscore.Internal.Correction.Weighted>
   9.000000E+99

> <Gold.Protein.RotatedTorsions>
[ 6907 6896 6895 6894 ] final -124.81 input  -60.11 | X-H torsion
[ 7974 7965 7964 7962 ] final  -48.25 input  175.53 | X-H torsion
[ 8008 7997 7996 7995 ] final   65.08 input   59.86 | X-H torsion
[ 10167 10162 10161 10158 ] final   92.21 input  -65.29 | X-H torsion
[ 10718 10713 10712 10709 ] final  -52.24 input   66.30 | X-H torsion
[ 10763 10752 10751 10750 ] final   75.10 input  -60.55 | X-H torsion
[ 11005 11000 10999 10996 ] final  152.05 input  -57.11 | X-H torsion

> <Gold.Protein.ActiveResidues>
 VAL166  LYS551  ARG553  GLY616  TRP617  ASP618  TYR619  PRO620  LYS621  CYS622 
 ASP623  PHE694  ASN695  SER759  ASP760  ASP761  ALA762  ILE779  LEU786  VAL792 
 PHE793  MET794  SER795  GLU796  ALA797  LYS798  CYS799  TRP800  GLU811  SER814 

> <Gold.Protein.RotatedAtoms>
  150.8805  133.7379  159.2933 H   0  0  0  0  0  0  0  0  0  0  0  0  # atno 6907 bound_to 6896
  151.4962  135.1058  159.9826 H   0  0  0  0  0  0  0  0  0  0  0  0  # atno 6908 bound_to 6896
  152.4756  133.8085  159.7046 H   0  0  0  0  0  0  0  0  0  0  0  0  # atno 6909 bound_to 6896
  145.9531  140.7553  142.9495 H   0  0  0  0  0  0  0  0  0  0  0  0  # atno 7974 bound_to 7965
  155.6562  140.3497  155.4766 H   0  0  0  0  0  0  0  0  0  0  0  0  # atno 8008 bound_to 7997
  155.9807  140.1174  157.0752 H   0  0  0  0  0  0  0  0  0  0  0  0  # atno 8009 bound_to 7997
  154.4191  140.1139  156.5417 H   0  0  0  0  0  0  0  0  0  0  0  0  # atno 8010 bound_to 7997
  139.8299  144.6692  150.9413 H   0  0  0  0  0  0  0  0  0  0  0  0  # atno 10167 bound_to 10162
  156.1639  130.4149  149.9751 H   0  0  0  0  0  0  0  0  0  0  0  0  # atno 10718 bound_to 10713
  153.0631  135.5001  154.8139 H   0  0  0  0  0  0  0  0  0  0  0  0  # atno 10763 bound_to 10752
  154.6913  135.2985  154.9477 H   0  0  0  0  0  0  0  0  0  0  0  0  # atno 10764 bound_to 10752
  154.0231  135.6739  153.4827 H   0  0  0  0  0  0  0  0  0  0  0  0  # atno 10765 bound_to 10752
  140.1273  134.8825  157.2155 H   0  0  0  0  0  0  0  0  0  0  0  0  # atno 11005 bound_to 11000
  144.6799  140.2467  143.7337 LP  0  0  0  0  0  0  0  0  0  0  0  0  # atno 17320 bound_to 7965
  145.8144  139.2016  143.1974 LP  0  0  0  0  0  0  0  0  0  0  0  0  # atno 17321 bound_to 7965
  140.7807  143.4011  151.1148 LP  0  0  0  0  0  0  0  0  0  0  0  0  # atno 17342 bound_to 10162
  139.7665  143.8557  152.3111 LP  0  0  0  0  0  0  0  0  0  0  0  0  # atno 17343 bound_to 10162
  156.7572  130.9137  151.3640 LP  0  0  0  0  0  0  0  0  0  0  0  0  # atno 17370 bound_to 10713
  157.6753  130.9088  150.0135 LP  0  0  0  0  0  0  0  0  0  0  0  0  # atno 17371 bound_to 10713
  140.2888  134.3265  155.7321 LP  0  0  0  0  0  0  0  0  0  0  0  0  # atno 17394 bound_to 11000
  141.2163  133.7522  156.9472 LP  0  0  0  0  0  0  0  0  0  0  0  0  # atno 17395 bound_to 11000

$$$$
