AV-unprocessed.smi:2424|AV-procd|sdf|9572|dock7
  -GOLD-   2272013203D 1   1.00000     0.00000
 Structure written by MMmdl.
 49 50  0  0  0  0  0  0  0  0  2 V2000
  149.3871  137.3994  158.2106 C   0  0  0  0  0  0  0  0  0  0  0  0
  148.3163  137.2198  157.1205 C   0  0  0  0  0  0  0  0  0  0  0  0
  148.6091  137.8512  155.7374 C   0  0  0  0  0  0  0  0  0  0  0  0
  149.9038  137.1777  155.1976 C   0  0  0  0  0  0  0  0  0  0  0  0
  149.8784  135.6420  155.0753 C   0  0  0  0  0  0  0  0  0  0  0  0
  147.4210  137.9269  154.7298 C   0  0  2  0  0  0  0  0  0  0  0  0
  147.4451  136.9248  153.6693 N   0  0  0  0  0  0  0  0  0  0  0  0
  146.4074  136.1445  153.3400 C   0  0  0  0  0  0  0  0  0  0  0  0
  145.3149  136.2049  153.9033 O   0  0  0  0  0  0  0  0  0  0  0  0
  146.7367  135.3106  152.3379 N   0  0  0  0  0  0  0  0  0  0  0  0
  145.9461  134.3394  151.7102 C   0  0  0  0  0  0  0  0  0  0  0  0
  144.9766  134.7132  150.8019 C   0  0  0  0  0  0  0  0  0  0  0  0
  144.1237  133.9330  150.1033 N   0  5  0  0  0  0  0  0  0  0  0  0
  144.1909  132.5831  150.2866 C   0  0  0  0  0  0  0  0  0  0  0  0
  143.4454  131.8103  149.6860 O   0  0  0  0  0  0  0  0  0  0  0  0
  145.1878  132.0416  151.2323 C   0  0  0  0  0  0  0  0  0  0  0  0
  145.2616  130.5372  151.4323 C   0  0  0  0  0  0  0  0  0  0  0  0
  146.0111  132.8900  151.8978 C   0  0  0  0  0  0  0  0  0  0  0  0
  147.9217  139.2951  154.2559 C   0  0  1  0  0  0  0  0  0  0  0  0
  146.8995  140.3253  153.7927 C   0  0  0  0  0  0  0  0  0  0  0  0
  148.5451  139.4037  155.6571 C   0  0  2  0  0  0  0  0  0  0  0  0
  149.8183  140.0294  155.6879 O   0  0  0  0  0  0  0  0  0  0  0  0
  149.7890  141.3908  155.2971 C   0  0  0  0  0  0  0  0  0  0  0  0
  149.1132  136.8372  159.1035 H   0  0  0  0  0  0  0  0  0  0  0  0
  149.4847  138.4417  158.5136 H   0  0  0  0  0  0  0  0  0  0  0  0
  150.3651  137.0406  157.8924 H   0  0  0  0  0  0  0  0  0  0  0  0
  148.1626  136.1472  157.0010 H   0  0  0  0  0  0  0  0  0  0  0  0
  147.3788  137.6111  157.5180 H   0  0  0  0  0  0  0  0  0  0  0  0
  150.1460  137.5803  154.2136 H   0  0  0  0  0  0  0  0  0  0  0  0
  150.7556  137.4402  155.8245 H   0  0  0  0  0  0  0  0  0  0  0  0
  150.8567  135.2734  154.7668 H   0  0  0  0  0  0  0  0  0  0  0  0
  149.1638  135.3051  154.3248 H   0  0  0  0  0  0  0  0  0  0  0  0
  149.6322  135.1522  156.0158 H   0  0  0  0  0  0  0  0  0  0  0  0
  146.4408  138.0326  155.1967 H   0  0  0  0  0  0  0  0  0  0  0  0
  148.3092  136.8138  153.1595 H   0  0  0  0  0  0  0  0  0  0  0  0
  147.6790  135.3830  151.9831 H   0  0  0  0  0  0  0  0  0  0  0  0
  144.8692  135.8023  150.6085 H   0  0  0  0  0  0  0  0  0  0  0  0
  146.0382  130.2682  152.1490 H   0  0  0  0  0  0  0  0  0  0  0  0
  145.4863  130.0381  150.4892 H   0  0  0  0  0  0  0  0  0  0  0  0
  144.3110  130.1558  151.8064 H   0  0  0  0  0  0  0  0  0  0  0  0
  146.7258  132.4579  152.5791 H   0  0  0  0  0  0  0  0  0  0  0  0
  148.7091  139.1740  153.5096 H   0  0  0  0  0  0  0  0  0  0  0  0
  146.1587  140.5280  154.5665 H   0  0  0  0  0  0  0  0  0  0  0  0
  146.3648  139.9755  152.9097 H   0  0  0  0  0  0  0  0  0  0  0  0
  147.3737  141.2711  153.5334 H   0  0  0  0  0  0  0  0  0  0  0  0
  147.8554  139.8318  156.3866 H   0  0  0  0  0  0  0  0  0  0  0  0
  150.7856  141.8197  155.4015 H   0  0  0  0  0  0  0  0  0  0  0  0
  149.1078  141.9683  155.9233 H   0  0  0  0  0  0  0  0  0  0  0  0
  149.4884  141.4998  154.2558 H   0  0  0  0  0  0  0  0  0  0  0  0
  1  2  1  0  0  0  0
  1 24  1  0  0  0  0
  1 25  1  0  0  0  0
  1 26  1  0  0  0  0
  2  3  1  0  0  0  0
  2 27  1  0  0  0  0
  2 28  1  0  0  0  0
  3 21  1  0  0  0  0
  3  4  1  0  0  0  0
  3  6  1  0  0  0  0
  4  5  1  0  0  0  0
  4 29  1  0  0  0  0
  4 30  1  0  0  0  0
  5 31  1  0  0  0  0
  5 32  1  0  0  0  0
  5 33  1  0  0  0  0
  6  7  1  0  0  0  0
  6 19  1  0  0  0  0
  6 34  1  0  0  0  0
  7  8  1  0  0  0  0
  7 35  1  0  0  0  0
  8  9  2  0  0  0  0
  8 10  1  0  0  0  0
 10 11  1  0  0  0  0
 10 36  1  0  0  0  0
 11 18  1  0  0  0  0
 11 12  2  0  0  0  0
 12 13  1  0  0  0  0
 12 37  1  0  0  0  0
 13 14  1  0  0  0  0
 14 15  2  0  0  0  0
 14 16  1  0  0  0  0
 16 17  1  0  0  0  0
 16 18  2  0  0  0  0
 17 38  1  0  0  0  0
 17 39  1  0  0  0  0
 17 40  1  0  0  0  0
 18 41  1  0  0  0  0
 19 20  1  0  0  0  0
 19 21  1  0  0  0  0
 19 42  1  0  0  0  0
 20 43  1  0  0  0  0
 20 44  1  0  0  0  0
 20 45  1  0  0  0  0
 21 22  1  0  0  0  0
 21 46  1  0  0  0  0
 22 23  1  0  0  0  0
 23 47  1  0  0  0  0
 23 48  1  0  0  0  0
 23 49  1  0  0  0  0
M  CHG  1  13  -1
M  END
> <s_m_source_file>
AV-unprocessed.smi

> <i_m_source_file_index>
2424

> <i_lp_mmshare_version>
43012

> <i_f3d_flags>
0

> <s_epik_input>
W0NIM11PW0NAQEhdMVtDQEhdKFtDSDNdKVtDQEBIXShDMShbQ0gyXVtDSDNdKVtDSDJdW0NIM10pW05IXUMoPU8pW05IXWMyW2NIXVtuSF1jKD1PKWMoW0NIM10pW2NIXTI=

> <s_epik_cmdline>
J2VwaWtfcHl0aG9uJywgJy1waCcsICc3LjAnLCAnLXRuJywgJzgnLCAnLW1hJywgJzIwMCcsICctbWV0YWxfYmluZGluZycsICctaW1hZScsICc8aW5maWxlLm1hZT4nLCAnLW9tYWUnLCAnPG91dGZpbGUubWFlPic=

> <r_lp_tautomer_probability>
1

> <r_epik_Ionization_Penalty>
7.6122

> <r_epik_Ionization_Penalty_Charging>
1.53843

> <r_epik_Ionization_Penalty_Neutral>
6.07377

> <r_epik_State_Penalty>
6.07371

> <r_epik_Charging_Adjusted_Penalty>
7.61214

> <i_epik_Tot_Q>
-1

> <i_epik_Tot_abs_Q>
1

> <r_epik_Metal_State_Penalty>
2.02136

> <b_epik_Metal_Only>
1

> <s_lp_Force_Field>
OPLS_2005

> <r_lp_Energy>
40.6297

> <b_lp_Chiralities_Consistent>
1

> <s_lp_Variant>
AV-unprocessed.smi:2424-14

> <Gold.Version>
5.8.1

> <Gold.Id.Protein>
6NUR|6NUR_protein|mol2

> <Gold.PLP.Fitness>
34.6566

> <Gold.PLP.PLP>
-27.6968

> <Gold.PLP.part.hbond>
-2.2842

> <Gold.PLP.part.metal>
0.0000

> <Gold.PLP.part.buried>
-5.6740

> <Gold.PLP.part.nonpolar>
-21.7451

> <Gold.PLP.part.repulsive>
1.2762

> <Gold.PLP.ligand.clash>
0.0000

> <Gold.PLP.ligand.torsion>
0.9979

> <Gold.PLP.Chemscore.Hbond>
2.7986

> <Gold.PLP.Chemscore.CHOScore>
0.0000

> <Gold.PLP.Chemscore.Metal>
0.0000

> <Gold.Chemscore.Hbonds>
donor molecule, donor type, donor heavy atom, donor atom, acceptor molecule, acceptor atom, score
      L1  H     7    35       P1  7948  0.90
      L1  H    10    36       P1  7948  0.92
      P1  H 10785 10796       L1    15  1.00

> <Gold.PLP.Chemscore.Internal.Correction>
0.5597

> <Gold.Rescore>
     Score         DG    S(hbond)    S(metal)    S(lipo)     H(rot)  DE(clash)    DE(int)     intcor
     17.29     -18.76       2.83        0.00      65.97       1.52       0.44       1.03       ----

> <Gold.Chemscore.Fitness>
17.2921

> <Gold.Chemscore.DG>
-18.7601

> <Gold.Chemscore.ZeroCoef>
-5.4800

> <Gold.Chemscore.Hbond>
2.8304

> <Gold.Chemscore.Metal>
0.0000

> <Gold.Chemscore.Lipo>
65.9714

> <Gold.Chemscore.Internal_Hbond>
0.0000

> <Gold.Chemscore.DEClash>
0.4402

> <Gold.Chemscore.DEInternal>
1.0277

> <Gold.Chemscore.Rot>
1.5204

> <Gold.Chemscore.Internal.Correction>
   9.000000E+99

> <Gold.Chemscore.Hbonds>
donor molecule, donor type, donor heavy atom, donor atom, acceptor molecule, acceptor atom, score
      L1  H     7    35       P1  7948  0.85
      L1  H    10    36       P1  7948  0.81
      P1  H 10785 10796       L1    15  0.96

> <Gold.Chemscore.Hbond.Weighted>
-9.4537

> <Gold.Chemscore.Metal.Weighted>
-0.0000

> <Gold.Chemscore.Lipo.Weighted>
-7.7187

> <Gold.Chemscore.Internal_Hbond.Weighted>
0.0000

> <Gold.Chemscore.DEClash.Weighted>
0.4402

> <Gold.Chemscore.DEInternal.Weighted>
1.0277

> <Gold.Chemscore.Rot.Weighted>
3.8922

> <Gold.Chemscore.Internal.Correction.Weighted>
   9.000000E+99

> <Gold.Protein.RotatedTorsions>
[ 6907 6896 6895 6894 ] final  145.16 input  -60.11 | X-H torsion
[ 7974 7965 7964 7962 ] final  110.95 input  175.53 | X-H torsion
[ 8008 7997 7996 7995 ] final   44.42 input   59.86 | X-H torsion
[ 10167 10162 10161 10158 ] final -110.80 input  -65.29 | X-H torsion
[ 10718 10713 10712 10709 ] final  112.46 input   66.30 | X-H torsion
[ 10763 10752 10751 10750 ] final  148.15 input  -60.55 | X-H torsion
[ 11005 11000 10999 10996 ] final   85.30 input  -57.11 | X-H torsion

> <Gold.Protein.ActiveResidues>
 VAL166  LYS551  ARG553  GLY616  TRP617  ASP618  TYR619  PRO620  LYS621  CYS622 
 ASP623  PHE694  ASN695  SER759  ASP760  ASP761  ALA762  ILE779  LEU786  VAL792 
 PHE793  MET794  SER795  GLU796  ALA797  LYS798  CYS799  TRP800  GLU811  SER814 

> <Gold.Protein.RotatedAtoms>
  152.1845  133.4730  159.4974 H   0  0  0  0  0  0  0  0  0  0  0  0  # atno 6907 bound_to 6896
  150.6940  134.1792  159.4251 H   0  0  0  0  0  0  0  0  0  0  0  0  # atno 6908 bound_to 6896
  151.9704  135.0079  160.0603 H   0  0  0  0  0  0  0  0  0  0  0  0  # atno 6909 bound_to 6896
  145.2485  139.2749  143.4080 H   0  0  0  0  0  0  0  0  0  0  0  0  # atno 7974 bound_to 7965
  155.3191  140.3396  155.4241 H   0  0  0  0  0  0  0  0  0  0  0  0  # atno 8008 bound_to 7997
  156.1918  140.1700  156.8114 H   0  0  0  0  0  0  0  0  0  0  0  0  # atno 8009 bound_to 7997
  154.5451  140.0717  156.8559 H   0  0  0  0  0  0  0  0  0  0  0  0  # atno 8010 bound_to 7997
  140.1405  143.4283  152.1565 H   0  0  0  0  0  0  0  0  0  0  0  0  # atno 10167 bound_to 10162
  157.6391  131.0968  150.6898 H   0  0  0  0  0  0  0  0  0  0  0  0  # atno 10718 bound_to 10713
  154.0501  135.2882  155.3342 H   0  0  0  0  0  0  0  0  0  0  0  0  # atno 10763 bound_to 10752
  154.6874  135.5240  153.8349 H   0  0  0  0  0  0  0  0  0  0  0  0  # atno 10764 bound_to 10752
  153.0564  135.6597  154.0698 H   0  0  0  0  0  0  0  0  0  0  0  0  # atno 10765 bound_to 10752
  139.8975  134.8277  156.2564 H   0  0  0  0  0  0  0  0  0  0  0  0  # atno 11005 bound_to 11000
  146.3309  140.2868  142.8613 LP  0  0  0  0  0  0  0  0  0  0  0  0  # atno 17320 bound_to 7965
  144.9525  140.8192  143.5563 LP  0  0  0  0  0  0  0  0  0  0  0  0  # atno 17321 bound_to 7965
  139.5474  144.7310  151.4540 LP  0  0  0  0  0  0  0  0  0  0  0  0  # atno 17342 bound_to 10162
  140.6763  143.8182  150.7063 LP  0  0  0  0  0  0  0  0  0  0  0  0  # atno 17343 bound_to 10162
  156.7225  130.4685  149.5519 LP  0  0  0  0  0  0  0  0  0  0  0  0  # atno 17370 bound_to 10713
  156.1656  130.6403  151.0774 LP  0  0  0  0  0  0  0  0  0  0  0  0  # atno 17371 bound_to 10713
  141.0191  133.7051  156.1238 LP  0  0  0  0  0  0  0  0  0  0  0  0  # atno 17394 bound_to 11000
  140.7259  134.4307  157.5570 LP  0  0  0  0  0  0  0  0  0  0  0  0  # atno 17395 bound_to 11000

$$$$
