AV-unprocessed.smi:2244|AV-procd|sdf|9073|dock2
  -GOLD-   2272012273D 1   1.00000     0.00000
 Structure written by MMmdl.
 49 51  0  0  0  0  0  0  0  0  1 V2000
  146.6140  128.2740  154.5128 C   0  0  0  0  0  0  0  0  0  0  0  0
  148.0603  128.5807  154.0632 C   0  0  0  0  0  0  0  0  0  0  0  0
  149.0136  127.9055  155.0710 C   0  0  0  0  0  0  0  0  0  0  0  0
  148.2509  127.9596  152.6636 C   0  0  0  0  0  0  0  0  0  0  0  0
  148.3501  130.0913  154.0062 C   0  0  0  0  0  0  0  0  0  0  0  0
  147.6460  130.9840  153.1674 C   0  0  0  0  0  0  0  0  0  0  0  0
  148.0038  132.3421  153.2099 C   0  0  0  0  0  0  0  0  0  0  0  0
  149.0389  132.7415  154.0794 C   0  0  0  0  0  0  0  0  0  0  0  0
  149.3336  134.1365  154.0577 N   0  0  0  0  0  0  0  0  0  0  0  0
  150.0651  134.9097  154.8887 C   0  0  0  0  0  0  0  0  0  0  0  0
  150.6224  134.4287  155.8740 O   0  0  0  0  0  0  0  0  0  0  0  0
  150.1430  136.2135  154.5754 N   0  0  0  0  0  0  0  0  0  0  0  0
  150.8746  137.2276  155.3267 C   0  0  1  0  0  0  0  0  0  0  0  0
  152.1208  137.6890  154.5534 C   0  0  0  0  0  0  0  0  0  0  0  0
  152.7920  138.8740  155.2652 C   0  0  0  0  0  0  0  0  0  0  0  0
  151.8573  139.9343  155.4346 O   0  0  0  0  0  0  0  0  0  0  0  0
  150.7488  139.5792  156.2558 C   0  0  1  0  0  0  0  0  0  0  0  0
  149.8912  140.8141  156.4490 C   0  0  0  0  0  0  0  0  0  0  0  0
  150.2935  141.8900  157.4303 C   0  0  0  0  0  0  0  0  0  0  0  0
  149.0996  141.0130  157.7205 C   0  0  0  0  0  0  0  0  0  0  0  0
  149.9629  138.4353  155.5888 C   0  0  0  0  0  0  0  0  0  0  0  0
  149.6714  131.8259  154.8570 N   0  0  0  0  0  0  0  0  0  0  0  0
  149.3364  130.5333  154.8235 N   0  0  0  0  0  0  0  0  0  0  0  0
  146.4293  127.1996  154.5424 H   0  0  0  0  0  0  0  0  0  0  0  0
  145.8803  128.7043  153.8301 H   0  0  0  0  0  0  0  0  0  0  0  0
  146.4119  128.6589  155.5130 H   0  0  0  0  0  0  0  0  0  0  0  0
  148.8997  128.3303  156.0690 H   0  0  0  0  0  0  0  0  0  0  0  0
  150.0584  128.0231  154.7820 H   0  0  0  0  0  0  0  0  0  0  0  0
  148.8203  126.8348  155.1457 H   0  0  0  0  0  0  0  0  0  0  0  0
  148.0322  126.8912  152.6695 H   0  0  0  0  0  0  0  0  0  0  0  0
  149.2741  128.0747  152.3043 H   0  0  0  0  0  0  0  0  0  0  0  0
  147.5914  128.4263  151.9312 H   0  0  0  0  0  0  0  0  0  0  0  0
  146.8548  130.6652  152.5068 H   0  0  0  0  0  0  0  0  0  0  0  0
  147.4905  133.0593  152.5858 H   0  0  0  0  0  0  0  0  0  0  0  0
  148.9169  134.6361  153.2857 H   0  0  0  0  0  0  0  0  0  0  0  0
  149.6557  136.5262  153.7472 H   0  0  0  0  0  0  0  0  0  0  0  0
  151.1823  136.8149  156.2895 H   0  0  0  0  0  0  0  0  0  0  0  0
  152.8306  136.8681  154.4476 H   0  0  0  0  0  0  0  0  0  0  0  0
  151.8397  137.9910  153.5434 H   0  0  0  0  0  0  0  0  0  0  0  0
  153.1929  138.5699  156.2332 H   0  0  0  0  0  0  0  0  0  0  0  0
  153.6326  139.2375  154.6740 H   0  0  0  0  0  0  0  0  0  0  0  0
  151.1147  139.2545  157.2317 H   0  0  0  0  0  0  0  0  0  0  0  0
  149.4130  141.1617  155.5353 H   0  0  0  0  0  0  0  0  0  0  0  0
  151.1919  141.7268  158.0219 H   0  0  0  0  0  0  0  0  0  0  0  0
  150.1031  142.9231  157.1469 H   0  0  0  0  0  0  0  0  0  0  0  0
  148.1122  141.4610  157.6319 H   0  0  0  0  0  0  0  0  0  0  0  0
  149.2040  140.2663  158.5050 H   0  0  0  0  0  0  0  0  0  0  0  0
  149.5378  138.7885  154.6477 H   0  0  0  0  0  0  0  0  0  0  0  0
  149.1227  138.1408  156.2192 H   0  0  0  0  0  0  0  0  0  0  0  0
  1  2  1  0  0  0  0
  1 24  1  0  0  0  0
  1 25  1  0  0  0  0
  1 26  1  0  0  0  0
  2  3  1  0  0  0  0
  2  4  1  0  0  0  0
  2  5  1  0  0  0  0
  3 27  1  0  0  0  0
  3 28  1  0  0  0  0
  3 29  1  0  0  0  0
  4 30  1  0  0  0  0
  4 31  1  0  0  0  0
  4 32  1  0  0  0  0
  5 23  1  0  0  0  0
  5  6  2  0  0  0  0
  6  7  1  0  0  0  0
  6 33  1  0  0  0  0
  7  8  2  0  0  0  0
  7 34  1  0  0  0  0
  8  9  1  0  0  0  0
  8 22  1  0  0  0  0
  9 10  1  0  0  0  0
  9 35  1  0  0  0  0
 10 11  2  0  0  0  0
 10 12  1  0  0  0  0
 12 13  1  0  0  0  0
 12 36  1  0  0  0  0
 13 21  1  0  0  0  0
 13 14  1  0  0  0  0
 13 37  1  0  0  0  0
 14 15  1  0  0  0  0
 14 38  1  0  0  0  0
 14 39  1  0  0  0  0
 15 16  1  0  0  0  0
 15 40  1  0  0  0  0
 15 41  1  0  0  0  0
 16 17  1  0  0  0  0
 17 18  1  0  0  0  0
 17 21  1  0  0  0  0
 17 42  1  0  0  0  0
 18 20  1  0  0  0  0
 18 19  1  0  0  0  0
 18 43  1  0  0  0  0
 19 20  1  0  0  0  0
 19 44  1  0  0  0  0
 19 45  1  0  0  0  0
 20 46  1  0  0  0  0
 20 47  1  0  0  0  0
 21 48  1  0  0  0  0
 21 49  1  0  0  0  0
 22 23  2  0  0  0  0
M  END
> <s_m_source_file>
AV-unprocessed.smi

> <i_m_source_file_index>
2244

> <i_lp_mmshare_version>
43012

> <i_f3d_flags>
0

> <s_epik_input>
W0NIM11DKFtDSDNdKShbQ0gzXSljMVtjSF1bY0hdYyhubjEpW05IXUMoPU8pW05IXVtDQEBIXTJbQ0gyXVtDSDJdT1tDQEhdKFtDSDJdMilbQ0hdM1tDSDJdW0NIMl0z

> <s_epik_cmdline>
J2VwaWtfcHl0aG9uJywgJy1waCcsICc3LjAnLCAnLXRuJywgJzgnLCAnLW1hJywgJzIwMCcsICctbWV0YWxfYmluZGluZycsICctaW1hZScsICc8aW5maWxlLm1hZT4nLCAnLW9tYWUnLCAnPG91dGZpbGUubWFlPic=

> <r_lp_tautomer_probability>
1

> <r_epik_Ionization_Penalty>
0.011369

> <r_epik_Ionization_Penalty_Charging>
0

> <r_epik_Ionization_Penalty_Neutral>
0.011369

> <r_epik_State_Penalty>
0.00456331

> <r_epik_Charging_Adjusted_Penalty>
0.00456331

> <i_epik_Tot_Q>
0

> <i_epik_Tot_abs_Q>
0

> <r_epik_Metal_State_Penalty>
-0

> <b_epik_Metal_Only>
0

> <s_lp_Force_Field>
OPLS_2005

> <r_lp_Energy>
27.405

> <b_lp_Chiralities_Consistent>
1

> <s_lp_Variant>
AV-unprocessed.smi:2244-2

> <Gold.Version>
5.8.1

> <Gold.Id.Protein>
6NUR|6NUR_protein|mol2

> <Gold.PLP.Fitness>
41.8794

> <Gold.PLP.PLP>
-34.4650

> <Gold.PLP.part.hbond>
-4.0000

> <Gold.PLP.part.metal>
0.0000

> <Gold.PLP.part.buried>
-2.0683

> <Gold.PLP.part.nonpolar>
-28.9088

> <Gold.PLP.part.repulsive>
0.2170

> <Gold.PLP.ligand.clash>
0.0000

> <Gold.PLP.ligand.torsion>
0.6916

> <Gold.PLP.Chemscore.Hbond>
2.5720

> <Gold.PLP.Chemscore.CHOScore>
0.0000

> <Gold.PLP.Chemscore.Metal>
0.0000

> <Gold.Chemscore.Hbonds>
donor molecule, donor type, donor heavy atom, donor atom, acceptor molecule, acceptor atom, score
      L1  H     9    35       P1  7948  0.72
      L1  H    12    36       P1  7948  1.00
      P1  H  7989  7998       L1    16  0.63

> <Gold.PLP.Chemscore.Internal.Correction>
1.0818

> <Gold.Rescore>
     Score         DG    S(hbond)    S(metal)    S(lipo)     H(rot)  DE(clash)    DE(int)     intcor
     12.17     -14.38       0.87        0.00      79.57       1.30       0.34       1.87       ----

> <Gold.Chemscore.Fitness>
12.1750

> <Gold.Chemscore.DG>
-14.3811

> <Gold.Chemscore.ZeroCoef>
-5.4800

> <Gold.Chemscore.Hbond>
0.8740

> <Gold.Chemscore.Metal>
0.0000

> <Gold.Chemscore.Lipo>
79.5740

> <Gold.Chemscore.Internal_Hbond>
0.0000

> <Gold.Chemscore.DEClash>
0.3353

> <Gold.Chemscore.DEInternal>
1.8709

> <Gold.Chemscore.Rot>
1.3002

> <Gold.Chemscore.Internal.Correction>
   9.000000E+99

> <Gold.Chemscore.Hbonds>
donor molecule, donor type, donor heavy atom, donor atom, acceptor molecule, acceptor atom, score
      L1  H     9    35       P1  7948  0.11
      L1  H    12    36       P1  7948  0.55
      P1  H  7989  7998       L1    16  0.33

> <Gold.Chemscore.Hbond.Weighted>
-2.9193

> <Gold.Chemscore.Metal.Weighted>
-0.0000

> <Gold.Chemscore.Lipo.Weighted>
-9.3102

> <Gold.Chemscore.Internal_Hbond.Weighted>
0.0000

> <Gold.Chemscore.DEClash.Weighted>
0.3353

> <Gold.Chemscore.DEInternal.Weighted>
1.8709

> <Gold.Chemscore.Rot.Weighted>
3.3284

> <Gold.Chemscore.Internal.Correction.Weighted>
   9.000000E+99

> <Gold.Protein.RotatedTorsions>
[ 6907 6896 6895 6894 ] final  -12.53 input  -60.11 | X-H torsion
[ 7974 7965 7964 7962 ] final   14.85 input  175.53 | X-H torsion
[ 8008 7997 7996 7995 ] final   60.98 input   59.86 | X-H torsion
[ 10167 10162 10161 10158 ] final  134.51 input  -65.29 | X-H torsion
[ 10718 10713 10712 10709 ] final  -14.15 input   66.30 | X-H torsion
[ 10763 10752 10751 10750 ] final   85.36 input  -60.55 | X-H torsion
[ 11005 11000 10999 10996 ] final  109.53 input  -57.11 | X-H torsion

> <Gold.Protein.ActiveResidues>
 VAL166  LYS551  ARG553  GLY616  TRP617  ASP618  TYR619  PRO620  LYS621  CYS622 
 ASP623  PHE694  ASN695  SER759  ASP760  ASP761  ALA762  ILE779  LEU786  VAL792 
 PHE793  MET794  SER795  GLU796  ALA797  LYS798  CYS799  TRP800  GLU811  SER814 

> <Gold.Protein.RotatedAtoms>
  151.3692  135.0919  159.9459 H   0  0  0  0  0  0  0  0  0  0  0  0  # atno 6907 bound_to 6896
  152.5140  133.9182  159.7532 H   0  0  0  0  0  0  0  0  0  0  0  0  # atno 6908 bound_to 6896
  150.9592  133.6409  159.2786 H   0  0  0  0  0  0  0  0  0  0  0  0  # atno 6909 bound_to 6896
  146.2294  139.8981  142.8544 H   0  0  0  0  0  0  0  0  0  0  0  0  # atno 7974 bound_to 7965
  155.5910  140.3493  155.4566 H   0  0  0  0  0  0  0  0  0  0  0  0  # atno 8008 bound_to 7997
  156.0301  140.1272  157.0292 H   0  0  0  0  0  0  0  0  0  0  0  0  # atno 8009 bound_to 7997
  154.4349  140.1045  156.6073 H   0  0  0  0  0  0  0  0  0  0  0  0  # atno 8010 bound_to 7997
  139.5253  144.6564  151.5149 H   0  0  0  0  0  0  0  0  0  0  0  0  # atno 10167 bound_to 10162
  156.6201  130.4873  149.6168 H   0  0  0  0  0  0  0  0  0  0  0  0  # atno 10718 bound_to 10713
  153.1467  135.4620  154.9577 H   0  0  0  0  0  0  0  0  0  0  0  0  # atno 10763 bound_to 10752
  154.7792  135.3183  154.8028 H   0  0  0  0  0  0  0  0  0  0  0  0  # atno 10764 bound_to 10752
  153.8541  135.6919  153.4843 H   0  0  0  0  0  0  0  0  0  0  0  0  # atno 10765 bound_to 10752
  139.8864  134.9460  156.6140 H   0  0  0  0  0  0  0  0  0  0  0  0  # atno 11005 bound_to 11000
  145.2350  140.9988  143.3968 LP  0  0  0  0  0  0  0  0  0  0  0  0  # atno 17320 bound_to 7965
  144.9498  139.4095  143.6408 LP  0  0  0  0  0  0  0  0  0  0  0  0  # atno 17321 bound_to 7965
  140.6391  143.8924  150.6675 LP  0  0  0  0  0  0  0  0  0  0  0  0  # atno 17342 bound_to 10162
  140.2253  143.3777  152.1610 LP  0  0  0  0  0  0  0  0  0  0  0  0  # atno 17343 bound_to 10162
  156.2319  130.6799  151.1471 LP  0  0  0  0  0  0  0  0  0  0  0  0  # atno 17370 bound_to 10713
  157.7230  131.0669  150.6055 LP  0  0  0  0  0  0  0  0  0  0  0  0  # atno 17371 bound_to 10713
  140.7790  133.8676  155.8552 LP  0  0  0  0  0  0  0  0  0  0  0  0  # atno 17394 bound_to 11000
  140.9777  134.1447  157.4522 LP  0  0  0  0  0  0  0  0  0  0  0  0  # atno 17395 bound_to 11000

$$$$
