AV-unprocessed.smi:240|AV-procd|sdf|1832|dock8
  -GOLD-   2262020433D 1   1.00000     0.00000
 Structure written by MMmdl.
 55 59  0  0  0  0  0  0  0  0  1 V2000
  151.6454  136.7630  154.1087 O   0  0  0  0  0  0  0  0  0  0  0  0
  151.3273  137.5032  155.2689 C   0  0  2  0  0  0  0  0  0  0  0  0
  151.6656  136.7254  156.5405 C   0  0  0  0  0  0  0  0  0  0  0  0
  150.7981  137.3687  157.6281 C   0  0  0  0  0  0  0  0  0  0  0  0
  149.6227  138.0443  156.9030 C   0  0  0  0  0  0  0  0  0  0  0  0
  149.8198  137.7618  155.4018 C   0  0  1  0  0  0  0  0  0  0  0  0
  149.2130  138.8119  154.4216 C   0  0  2  0  0  0  0  0  0  0  0  0
  149.8008  140.2365  154.5932 C   0  0  0  0  0  0  0  0  0  0  0  0
  149.2074  141.1348  153.6625 O   0  0  0  0  0  0  0  0  0  0  0  0
  147.8047  141.2512  153.8569 C   0  0  0  0  0  0  0  0  0  0  0  0
  147.1561  139.8816  153.6202 C   0  0  0  0  0  0  0  0  0  0  0  0
  147.7468  138.8819  154.5024 N   0  0  0  0  0  0  0  0  0  0  0  0
  147.0641  137.7172  154.4240 C   0  0  0  0  0  0  0  0  0  0  0  0
  147.0658  136.9297  155.5275 N   0  0  0  0  0  0  0  0  0  0  0  0
  146.4123  135.7642  155.5177 C   0  0  0  0  0  0  0  0  0  0  0  0
  145.7018  135.2131  154.5312 N   0  0  0  0  0  0  0  0  0  0  0  0
  145.6865  136.0111  153.4247 C   0  0  0  0  0  0  0  0  0  0  0  0
  146.3355  137.2701  153.2850 C   0  0  0  0  0  0  0  0  0  0  0  0
  146.0930  137.7893  152.0192 N   0  0  0  0  0  0  0  0  0  0  0  0
  145.3457  136.8880  151.4429 C   0  0  0  0  0  0  0  0  0  0  0  0
  145.0451  135.7906  152.2182 N   0  0  0  0  0  0  0  0  0  0  0  0
  144.2367  134.6437  151.8315 C   0  0  0  0  0  0  0  0  0  0  0  0
  144.9249  133.2753  152.0696 C   0  0  2  0  0  0  0  0  0  0  0  0
  144.9995  133.0293  153.4620 O   0  0  0  0  0  0  0  0  0  0  0  0
  146.3254  133.1641  151.4655 C   0  0  0  0  0  0  0  0  0  0  0  0
  146.0602  132.4909  150.1280 C   0  0  0  0  0  0  0  0  0  0  0  0
  145.0761  131.5292  150.4648 O   0  0  0  0  0  0  0  0  0  0  0  0
  144.1610  132.1287  151.3752 C   0  0  0  0  0  0  0  0  0  0  0  0
  150.8409  136.4749  153.7053 H   0  0  0  0  0  0  0  0  0  0  0  0
  151.8929  138.4340  155.2708 H   0  0  0  0  0  0  0  0  0  0  0  0
  151.3796  135.6787  156.4260 H   0  0  0  0  0  0  0  0  0  0  0  0
  152.7290  136.7531  156.7803 H   0  0  0  0  0  0  0  0  0  0  0  0
  150.4580  136.6297  158.3540 H   0  0  0  0  0  0  0  0  0  0  0  0
  151.3739  138.1183  158.1717 H   0  0  0  0  0  0  0  0  0  0  0  0
  148.6636  137.6609  157.2520 H   0  0  0  0  0  0  0  0  0  0  0  0
  149.6335  139.1115  157.1187 H   0  0  0  0  0  0  0  0  0  0  0  0
  149.3417  136.8003  155.2079 H   0  0  0  0  0  0  0  0  0  0  0  0
  149.4674  138.4962  153.4097 H   0  0  0  0  0  0  0  0  0  0  0  0
  149.6561  140.6192  155.6034 H   0  0  0  0  0  0  0  0  0  0  0  0
  150.8727  140.2406  154.4021 H   0  0  0  0  0  0  0  0  0  0  0  0
  147.5889  141.6197  154.8610 H   0  0  0  0  0  0  0  0  0  0  0  0
  147.4070  141.9828  153.1535 H   0  0  0  0  0  0  0  0  0  0  0  0
  146.0811  139.9489  153.7951 H   0  0  0  0  0  0  0  0  0  0  0  0
  147.2950  139.5802  152.5808 H   0  0  0  0  0  0  0  0  0  0  0  0
  146.4652  135.1917  156.4320 H   0  0  0  0  0  0  0  0  0  0  0  0
  144.9856  137.0021  150.4307 H   0  0  0  0  0  0  0  0  0  0  0  0
  143.2967  134.6916  152.3830 H   0  0  0  0  0  0  0  0  0  0  0  0
  143.9744  134.7525  150.7783 H   0  0  0  0  0  0  0  0  0  0  0  0
  144.2755  132.4727  153.7056 H   0  0  0  0  0  0  0  0  0  0  0  0
  146.8548  134.1102  151.3651 H   0  0  0  0  0  0  0  0  0  0  0  0
  146.9535  132.5048  152.0668 H   0  0  0  0  0  0  0  0  0  0  0  0
  145.6569  133.1992  149.4025 H   0  0  0  0  0  0  0  0  0  0  0  0
  146.9506  132.0263  149.7041 H   0  0  0  0  0  0  0  0  0  0  0  0
  143.7900  131.3769  152.0733 H   0  0  0  0  0  0  0  0  0  0  0  0
  143.3031  132.5027  150.8151 H   0  0  0  0  0  0  0  0  0  0  0  0
  1  2  1  0  0  0  0
  1 29  1  0  0  0  0
  2  6  1  0  0  0  0
  2  3  1  0  0  0  0
  2 30  1  0  0  0  0
  3  4  1  0  0  0  0
  3 31  1  0  0  0  0
  3 32  1  0  0  0  0
  4  5  1  0  0  0  0
  4 33  1  0  0  0  0
  4 34  1  0  0  0  0
  5  6  1  0  0  0  0
  5 35  1  0  0  0  0
  5 36  1  0  0  0  0
  6  7  1  0  0  0  0
  6 37  1  0  0  0  0
  7 12  1  0  0  0  0
  7  8  1  0  0  0  0
  7 38  1  0  0  0  0
  8  9  1  0  0  0  0
  8 39  1  0  0  0  0
  8 40  1  0  0  0  0
  9 10  1  0  0  0  0
 10 11  1  0  0  0  0
 10 41  1  0  0  0  0
 10 42  1  0  0  0  0
 11 12  1  0  0  0  0
 11 43  1  0  0  0  0
 11 44  1  0  0  0  0
 12 13  1  0  0  0  0
 13 18  1  0  0  0  0
 13 14  2  0  0  0  0
 14 15  1  0  0  0  0
 15 16  2  0  0  0  0
 15 45  1  0  0  0  0
 16 17  1  0  0  0  0
 17 21  1  0  0  0  0
 17 18  2  0  0  0  0
 18 19  1  0  0  0  0
 19 20  2  0  0  0  0
 20 21  1  0  0  0  0
 20 46  1  0  0  0  0
 21 22  1  0  0  0  0
 22 23  1  0  0  0  0
 22 47  1  0  0  0  0
 22 48  1  0  0  0  0
 23 28  1  0  0  0  0
 23 24  1  0  0  0  0
 23 25  1  0  0  0  0
 24 49  1  0  0  0  0
 25 26  1  0  0  0  0
 25 50  1  0  0  0  0
 25 51  1  0  0  0  0
 26 27  1  0  0  0  0
 26 52  1  0  0  0  0
 26 53  1  0  0  0  0
 27 28  1  0  0  0  0
 28 54  1  0  0  0  0
 28 55  1  0  0  0  0
M  END
> <s_m_source_file>
AV-unprocessed.smi

> <i_m_source_file_index>
240

> <i_lp_mmshare_version>
43012

> <i_f3d_flags>
0

> <s_epik_input>
W09IXVtDQEBIXTFbQ0gyXVtDSDJdW0NIMl1bQ0BIXTFbQ0BASF0yW0NIMl1PW0NIMl1bQ0gyXU4yYyhuW2NIXW4zKWMoYzM0KW5bY0hdbjRbQ0gyXVtDQEBdNShbT0hdKVtDSDJdW0NIMl1PW0NIMl01

> <s_epik_cmdline>
J2VwaWtfcHl0aG9uJywgJy1waCcsICc3LjAnLCAnLXRuJywgJzgnLCAnLW1hJywgJzIwMCcsICctbWV0YWxfYmluZGluZycsICctaW1hZScsICc8aW5maWxlLm1hZT4nLCAnLW9tYWUnLCAnPG91dGZpbGUubWFlPic=

> <r_lp_tautomer_probability>
1

> <r_epik_Ionization_Penalty>
0.000130618

> <r_epik_Ionization_Penalty_Charging>
0

> <r_epik_Ionization_Penalty_Neutral>
0.000130618

> <r_epik_State_Penalty>
-0

> <r_epik_Charging_Adjusted_Penalty>
0

> <i_epik_Tot_Q>
0

> <i_epik_Tot_abs_Q>
0

> <r_epik_Metal_State_Penalty>
-0

> <b_epik_Metal_Only>
0

> <s_lp_Force_Field>
OPLS_2005

> <r_lp_Energy>
62.3789

> <b_lp_Chiralities_Consistent>
1

> <s_lp_Variant>
AV-unprocessed.smi:240-9

> <Gold.Version>
5.8.1

> <Gold.Id.Protein>
6NUR|6NUR_protein|mol2

> <Gold.PLP.Fitness>
43.0338

> <Gold.PLP.PLP>
-32.5257

> <Gold.PLP.part.hbond>
-5.0000

> <Gold.PLP.part.metal>
0.0000

> <Gold.PLP.part.buried>
-4.9095

> <Gold.PLP.part.nonpolar>
-27.2914

> <Gold.PLP.part.repulsive>
3.2093

> <Gold.PLP.ligand.clash>
0.0000

> <Gold.PLP.ligand.torsion>
0.7325

> <Gold.PLP.Chemscore.Hbond>
3.0371

> <Gold.PLP.Chemscore.CHOScore>
0.8865

> <Gold.PLP.Chemscore.Metal>
0.0000

> <Gold.Chemscore.Hbonds>
donor molecule, donor type, donor heavy atom, donor atom, acceptor molecule, acceptor atom, score
      L1  H     1    29       P1  7949  0.06
      L1  H    24    49       P1 10957  0.96
      P1  H  8011  8017       L1     9  0.96
      P1  H 10752 10765       L1     1  1.00
      L1  C    20    46       P1 10171  0.88

> <Gold.PLP.Chemscore.Internal.Correction>
0.2019

> <Gold.Rescore>
     Score         DG    S(hbond)    S(metal)    S(lipo)     H(rot)  DE(clash)    DE(int)     intcor
      9.96     -13.94       2.30        0.00      72.29       3.00       0.45       3.53       ----

> <Gold.Chemscore.Fitness>
9.9606

> <Gold.Chemscore.DG>
-13.9363

> <Gold.Chemscore.ZeroCoef>
-5.4800

> <Gold.Chemscore.Hbond>
2.3019

> <Gold.Chemscore.Metal>
0.0000

> <Gold.Chemscore.Lipo>
72.2895

> <Gold.Chemscore.Internal_Hbond>
0.0000

> <Gold.Chemscore.DEClash>
0.4471

> <Gold.Chemscore.DEInternal>
3.5286

> <Gold.Chemscore.Rot>
3.0039

> <Gold.Chemscore.Internal.Correction>
   9.000000E+99

> <Gold.Chemscore.Hbonds>
donor molecule, donor type, donor heavy atom, donor atom, acceptor molecule, acceptor atom, score
      L1  H     1    29       P1  7949  0.01
      L1  H    24    49       P1 10957  0.32
      P1  H  8011  8017       L1     9  0.68
      P1  H 10752 10765       L1     1  0.91

> <Gold.Chemscore.Hbond.Weighted>
-7.6883

> <Gold.Chemscore.Metal.Weighted>
-0.0000

> <Gold.Chemscore.Lipo.Weighted>
-8.4579

> <Gold.Chemscore.Internal_Hbond.Weighted>
0.0000

> <Gold.Chemscore.DEClash.Weighted>
0.4471

> <Gold.Chemscore.DEInternal.Weighted>
3.5286

> <Gold.Chemscore.Rot.Weighted>
7.6899

> <Gold.Chemscore.Internal.Correction.Weighted>
   9.000000E+99

> <Gold.Protein.RotatedTorsions>
[ 6907 6896 6895 6894 ] final  154.84 input  -60.11 | X-H torsion
[ 7974 7965 7964 7962 ] final  165.46 input  175.53 | X-H torsion
[ 8008 7997 7996 7995 ] final  169.53 input   59.86 | X-H torsion
[ 10167 10162 10161 10158 ] final   26.66 input  -65.29 | X-H torsion
[ 10718 10713 10712 10709 ] final   25.54 input   66.30 | X-H torsion
[ 10763 10752 10751 10750 ] final  158.95 input  -60.55 | X-H torsion
[ 11005 11000 10999 10996 ] final -102.06 input  -57.11 | X-H torsion

> <Gold.Protein.ActiveResidues>
 VAL166  LYS551  ARG553  GLY616  TRP617  ASP618  TYR619  PRO620  LYS621  CYS622 
 ASP623  PHE694  ASN695  SER759  ASP760  ASP761  ALA762  ILE779  LEU786  VAL792 
 PHE793  MET794  SER795  GLU796  ALA797  LYS798  CYS799  TRP800  GLU811  SER814 

> <Gold.Protein.RotatedAtoms>
  152.0528  133.4026  159.4383 H   0  0  0  0  0  0  0  0  0  0  0  0  # atno 6907 bound_to 6896
  150.6869  134.3289  159.4828 H   0  0  0  0  0  0  0  0  0  0  0  0  # atno 6908 bound_to 6896
  152.1101  134.9280  160.0617 H   0  0  0  0  0  0  0  0  0  0  0  0  # atno 6909 bound_to 6896
  144.7502  139.8473  143.6369 H   0  0  0  0  0  0  0  0  0  0  0  0  # atno 7974 bound_to 7965
  156.1449  140.1562  156.8862 H   0  0  0  0  0  0  0  0  0  0  0  0  # atno 8008 bound_to 7997
  154.5019  140.0823  156.7854 H   0  0  0  0  0  0  0  0  0  0  0  0  # atno 8009 bound_to 7997
  155.4008  140.3414  155.4259 H   0  0  0  0  0  0  0  0  0  0  0  0  # atno 8010 bound_to 7997
  140.5004  144.0324  150.6330 H   0  0  0  0  0  0  0  0  0  0  0  0  # atno 10167 bound_to 10162
  157.1947  130.6862  149.6164 H   0  0  0  0  0  0  0  0  0  0  0  0  # atno 10718 bound_to 10713
  154.2241  135.2781  155.2914 H   0  0  0  0  0  0  0  0  0  0  0  0  # atno 10763 bound_to 10752
  154.5678  135.5628  153.7070 H   0  0  0  0  0  0  0  0  0  0  0  0  # atno 10764 bound_to 10752
  153.0035  135.6314  154.2381 H   0  0  0  0  0  0  0  0  0  0  0  0  # atno 10765 bound_to 10752
  141.1205  133.8528  157.1311 H   0  0  0  0  0  0  0  0  0  0  0  0  # atno 11005 bound_to 11000
  146.1441  139.4505  143.0090 LP  0  0  0  0  0  0  0  0  0  0  0  0  # atno 17320 bound_to 7965
  145.6973  141.0146  143.1523 LP  0  0  0  0  0  0  0  0  0  0  0  0  # atno 17321 bound_to 7965
  140.3619  143.2903  152.0375 LP  0  0  0  0  0  0  0  0  0  0  0  0  # atno 17342 bound_to 10162
  139.4871  144.6297  151.7095 LP  0  0  0  0  0  0  0  0  0  0  0  0  # atno 17343 bound_to 10162
  155.9707  130.4603  150.6067 LP  0  0  0  0  0  0  0  0  0  0  0  0  # atno 17370 bound_to 10713
  157.3826  131.0783  151.1464 LP  0  0  0  0  0  0  0  0  0  0  0  0  # atno 17371 bound_to 10713
  140.0159  134.9968  157.0491 LP  0  0  0  0  0  0  0  0  0  0  0  0  # atno 17394 bound_to 11000
  140.4521  134.1571  155.7182 LP  0  0  0  0  0  0  0  0  0  0  0  0  # atno 17395 bound_to 11000

$$$$
