AV-unprocessed.smi:2001|AV-procd|sdf|8102|dock7
  -GOLD-   2272010323D 1   1.00000     0.00000
 Structure written by MMmdl.
 50 51  0  0  0  0  0  0  0  0  1 V2000
  154.1579  128.7560  154.5595 C   0  0  0  0  0  0  0  0  0  0  0  0
  153.2697  129.6531  155.2028 O   0  0  0  0  0  0  0  0  0  0  0  0
  151.9298  129.4962  154.7682 C   0  0  0  0  0  0  0  0  0  0  0  0
  150.9970  130.1641  155.7897 C   0  0  0  0  0  0  0  0  0  0  0  0
  150.4102  131.3985  155.2586 N   0  0  0  0  0  0  0  0  0  0  0  0
  150.8371  132.5486  155.9018 N   0  0  0  0  0  0  0  0  0  0  0  0
  150.3883  133.7048  155.5325 C   0  0  0  0  0  0  0  0  0  0  0  0
  150.8150  134.9641  156.2032 C   0  0  0  0  0  0  0  0  0  0  0  0
  151.1980  134.9795  157.3743 O   0  0  0  0  0  0  0  0  0  0  0  0
  150.7568  136.0712  155.4414 N   0  0  0  0  0  0  0  0  0  0  0  0
  151.1441  137.4085  155.8724 C   0  0  0  0  0  0  0  0  0  0  0  0
  151.6174  138.2575  154.6786 C   0  0  0  0  0  0  0  0  0  0  0  0
  151.1169  139.6307  154.6580 N   0  0  0  0  0  0  0  0  0  0  0  0
  151.3245  140.3258  155.9260 C   0  0  0  0  0  0  0  0  0  0  0  0
  150.7715  141.7636  155.8916 C   0  0  2  0  0  0  0  0  0  0  0  0
  150.9126  142.4729  157.2424 C   0  0  0  0  0  0  0  0  0  0  0  0
  149.3889  141.7231  155.5498 O   0  0  0  0  0  0  0  0  0  0  0  0
  149.1376  141.0960  154.2954 C   0  0  2  0  0  0  0  0  0  0  0  0
  147.6273  141.1239  154.0379 C   0  0  0  0  0  0  0  0  0  0  0  0
  149.6958  139.6603  154.3302 C   0  0  0  0  0  0  0  0  0  0  0  0
  149.4380  133.8192  154.4389 C   0  0  0  0  0  0  0  0  0  0  0  0
  149.0377  132.6893  153.8156 C   0  0  0  0  0  0  0  0  0  0  0  0
  149.5302  131.3695  154.2129 C   0  0  0  0  0  0  0  0  0  0  0  0
  149.1866  130.3273  153.6559 O   0  0  0  0  0  0  0  0  0  0  0  0
  155.1697  128.9111  154.9339 H   0  0  0  0  0  0  0  0  0  0  0  0
  154.1699  128.9189  153.4809 H   0  0  0  0  0  0  0  0  0  0  0  0
  153.8823  127.7189  154.7547 H   0  0  0  0  0  0  0  0  0  0  0  0
  151.8003  129.9547  153.7863 H   0  0  0  0  0  0  0  0  0  0  0  0
  151.6927  128.4354  154.6716 H   0  0  0  0  0  0  0  0  0  0  0  0
  150.2127  129.4678  156.0922 H   0  0  0  0  0  0  0  0  0  0  0  0
  151.5569  130.3826  156.7010 H   0  0  0  0  0  0  0  0  0  0  0  0
  150.4295  135.9746  154.4907 H   0  0  0  0  0  0  0  0  0  0  0  0
  150.2740  137.8596  156.3480 H   0  0  0  0  0  0  0  0  0  0  0  0
  151.9229  137.3512  156.6348 H   0  0  0  0  0  0  0  0  0  0  0  0
  152.7078  138.2874  154.7029 H   0  0  0  0  0  0  0  0  0  0  0  0
  151.3533  137.7549  153.7466 H   0  0  0  0  0  0  0  0  0  0  0  0
  150.8458  139.7701  156.7339 H   0  0  0  0  0  0  0  0  0  0  0  0
  152.3871  140.3690  156.1623 H   0  0  0  0  0  0  0  0  0  0  0  0
  151.3059  142.3415  155.1354 H   0  0  0  0  0  0  0  0  0  0  0  0
  151.9577  142.5326  157.5475 H   0  0  0  0  0  0  0  0  0  0  0  0
  150.3646  141.9460  158.0238 H   0  0  0  0  0  0  0  0  0  0  0  0
  150.5234  143.4899  157.1903 H   0  0  0  0  0  0  0  0  0  0  0  0
  149.6384  141.6638  153.5093 H   0  0  0  0  0  0  0  0  0  0  0  0
  147.3843  140.6660  153.0787 H   0  0  0  0  0  0  0  0  0  0  0  0
  147.2537  142.1480  154.0210 H   0  0  0  0  0  0  0  0  0  0  0  0
  147.0847  140.5840  154.8145 H   0  0  0  0  0  0  0  0  0  0  0  0
  149.5321  139.1881  153.3606 H   0  0  0  0  0  0  0  0  0  0  0  0
  149.1376  139.0720  155.0605 H   0  0  0  0  0  0  0  0  0  0  0  0
  149.0580  134.7803  154.1241 H   0  0  0  0  0  0  0  0  0  0  0  0
  148.3334  132.7599  152.9996 H   0  0  0  0  0  0  0  0  0  0  0  0
  1  2  1  0  0  0  0
  1 25  1  0  0  0  0
  1 26  1  0  0  0  0
  1 27  1  0  0  0  0
  2  3  1  0  0  0  0
  3  4  1  0  0  0  0
  3 28  1  0  0  0  0
  3 29  1  0  0  0  0
  4  5  1  0  0  0  0
  4 30  1  0  0  0  0
  4 31  1  0  0  0  0
  5 23  1  0  0  0  0
  5  6  1  0  0  0  0
  6  7  2  0  0  0  0
  7  8  1  0  0  0  0
  7 21  1  0  0  0  0
  8  9  2  0  0  0  0
  8 10  1  0  0  0  0
 10 11  1  0  0  0  0
 10 32  1  0  0  0  0
 11 12  1  0  0  0  0
 11 33  1  0  0  0  0
 11 34  1  0  0  0  0
 12 13  1  0  0  0  0
 12 35  1  0  0  0  0
 12 36  1  0  0  0  0
 13 20  1  0  0  0  0
 13 14  1  0  0  0  0
 14 15  1  0  0  0  0
 14 37  1  0  0  0  0
 14 38  1  0  0  0  0
 15 16  1  0  0  0  0
 15 17  1  0  0  0  0
 15 39  1  0  0  0  0
 16 40  1  0  0  0  0
 16 41  1  0  0  0  0
 16 42  1  0  0  0  0
 17 18  1  0  0  0  0
 18 19  1  0  0  0  0
 18 20  1  0  0  0  0
 18 43  1  0  0  0  0
 19 44  1  0  0  0  0
 19 45  1  0  0  0  0
 19 46  1  0  0  0  0
 20 47  1  0  0  0  0
 20 48  1  0  0  0  0
 21 22  2  0  0  0  0
 21 49  1  0  0  0  0
 22 23  1  0  0  0  0
 22 50  1  0  0  0  0
 23 24  2  0  0  0  0
M  END
> <s_m_source_file>
AV-unprocessed.smi

> <i_m_source_file_index>
2001

> <i_lp_mmshare_version>
43012

> <i_f3d_flags>
0

> <s_epik_input>
W0NIM11PW0NIMl1bQ0gyXW4xbmMoW2NIXVtjSF1jMT1PKUMoPU8pW05IXVtDSDJdW0NIMl1OMltDSDJdW0NAQEhdKFtDSDNdKU9bQ0BASF0oW0NIM10pW0NIMl0y

> <s_epik_cmdline>
J2VwaWtfcHl0aG9uJywgJy1waCcsICc3LjAnLCAnLXRuJywgJzgnLCAnLW1hJywgJzIwMCcsICctbWV0YWxfYmluZGluZycsICctaW1hZScsICc8aW5maWxlLm1hZT4nLCAnLW9tYWUnLCAnPG91dGZpbGUubWFlPic=

> <r_lp_tautomer_probability>
1

> <r_epik_Ionization_Penalty>
0.206669

> <r_epik_Ionization_Penalty_Charging>
5.55992e-09

> <r_epik_Ionization_Penalty_Neutral>
0.206669

> <r_epik_State_Penalty>
0.196651

> <r_epik_Charging_Adjusted_Penalty>
0.196651

> <i_epik_Tot_Q>
0

> <i_epik_Tot_abs_Q>
0

> <r_epik_Metal_State_Penalty>
0.198372

> <b_epik_Metal_Only>
0

> <s_lp_Force_Field>
OPLS_2005

> <r_lp_Energy>
38.6275

> <b_lp_Chiralities_Consistent>
1

> <s_lp_Variant>
AV-unprocessed.smi:2001-1

> <Gold.Version>
5.8.1

> <Gold.Id.Protein>
6NUR|6NUR_protein|mol2

> <Gold.PLP.Fitness>
45.8746

> <Gold.PLP.PLP>
-45.2184

> <Gold.PLP.part.hbond>
-2.0000

> <Gold.PLP.part.metal>
0.0000

> <Gold.PLP.part.buried>
-7.8929

> <Gold.PLP.part.nonpolar>
-36.8071

> <Gold.PLP.part.repulsive>
1.0555

> <Gold.PLP.ligand.clash>
0.0000

> <Gold.PLP.ligand.torsion>
1.3096

> <Gold.PLP.Chemscore.Hbond>
1.0772

> <Gold.PLP.Chemscore.CHOScore>
0.0000

> <Gold.PLP.Chemscore.Metal>
0.0000

> <Gold.Chemscore.Hbonds>
donor molecule, donor type, donor heavy atom, donor atom, acceptor molecule, acceptor atom, score
      P1  H  6896  6907       L1     9  0.10
      P1  H  7989  7998       L1    13  0.85

> <Gold.PLP.Chemscore.Internal.Correction>
0.0437

> <Gold.Rescore>
     Score         DG    S(hbond)    S(metal)    S(lipo)     H(rot)  DE(clash)    DE(int)     intcor
     10.12     -11.52       0.20        0.00      89.61       2.00       0.08       1.32       ----

> <Gold.Chemscore.Fitness>
10.1187

> <Gold.Chemscore.DG>
-11.5213

> <Gold.Chemscore.ZeroCoef>
-5.4800

> <Gold.Chemscore.Hbond>
0.2042

> <Gold.Chemscore.Metal>
0.0000

> <Gold.Chemscore.Lipo>
89.6108

> <Gold.Chemscore.Internal_Hbond>
0.0000

> <Gold.Chemscore.DEClash>
0.0779

> <Gold.Chemscore.DEInternal>
1.3247

> <Gold.Chemscore.Rot>
2.0020

> <Gold.Chemscore.Internal.Correction>
   9.000000E+99

> <Gold.Chemscore.Hbonds>
donor molecule, donor type, donor heavy atom, donor atom, acceptor molecule, acceptor atom, score
      P1  H  6896  6907       L1     9  0.11
      P1  H  7989  7998       L1    13  0.05

> <Gold.Chemscore.Hbond.Weighted>
-0.6820

> <Gold.Chemscore.Metal.Weighted>
-0.0000

> <Gold.Chemscore.Lipo.Weighted>
-10.4845

> <Gold.Chemscore.Internal_Hbond.Weighted>
0.0000

> <Gold.Chemscore.DEClash.Weighted>
0.0779

> <Gold.Chemscore.DEInternal.Weighted>
1.3247

> <Gold.Chemscore.Rot.Weighted>
5.1252

> <Gold.Chemscore.Internal.Correction.Weighted>
   9.000000E+99

> <Gold.Protein.RotatedTorsions>
[ 6907 6896 6895 6894 ] final  -84.84 input  -60.11 | X-H torsion
[ 7974 7965 7964 7962 ] final  -58.71 input  175.53 | X-H torsion
[ 8008 7997 7996 7995 ] final  -32.58 input   59.86 | X-H torsion
[ 10167 10162 10161 10158 ] final  -21.26 input  -65.29 | X-H torsion
[ 10718 10713 10712 10709 ] final  -25.47 input   66.30 | X-H torsion
[ 10763 10752 10751 10750 ] final  125.93 input  -60.55 | X-H torsion
[ 11005 11000 10999 10996 ] final   82.43 input  -57.11 | X-H torsion

> <Gold.Protein.ActiveResidues>
 VAL166  LYS551  ARG553  GLY616  TRP617  ASP618  TYR619  PRO620  LYS621  CYS622 
 ASP623  PHE694  ASN695  SER759  ASP760  ASP761  ALA762  ILE779  LEU786  VAL792 
 PHE793  MET794  SER795  GLU796  ALA797  LYS798  CYS799  TRP800  GLU811  SER814 

> <Gold.Protein.RotatedAtoms>
  150.6874  134.3297  159.4821 H   0  0  0  0  0  0  0  0  0  0  0  0  # atno 6907 bound_to 6896
  152.1163  134.9236  160.0574 H   0  0  0  0  0  0  0  0  0  0  0  0  # atno 6908 bound_to 6896
  152.0459  133.3963  159.4393 H   0  0  0  0  0  0  0  0  0  0  0  0  # atno 6909 bound_to 6896
  145.8361  140.8448  143.0058 H   0  0  0  0  0  0  0  0  0  0  0  0  # atno 7974 bound_to 7965
  154.4175  140.1733  156.1750 H   0  0  0  0  0  0  0  0  0  0  0  0  # atno 8008 bound_to 7997
  155.9729  140.3384  155.6568 H   0  0  0  0  0  0  0  0  0  0  0  0  # atno 8009 bound_to 7997
  155.6601  140.0700  157.2547 H   0  0  0  0  0  0  0  0  0  0  0  0  # atno 8010 bound_to 7997
  140.7281  143.4645  151.0333 H   0  0  0  0  0  0  0  0  0  0  0  0  # atno 10167 bound_to 10162
  156.4640  130.4510  149.6911 H   0  0  0  0  0  0  0  0  0  0  0  0  # atno 10718 bound_to 10713
  153.6851  135.3308  155.3188 H   0  0  0  0  0  0  0  0  0  0  0  0  # atno 10763 bound_to 10752
  154.8455  135.4418  154.1566 H   0  0  0  0  0  0  0  0  0  0  0  0  # atno 10764 bound_to 10752
  153.2592  135.6989  153.7673 H   0  0  0  0  0  0  0  0  0  0  0  0  # atno 10765 bound_to 10752
  139.9064  134.8071  156.2174 H   0  0  0  0  0  0  0  0  0  0  0  0  # atno 11005 bound_to 11000
  144.6736  140.0744  143.7472 LP  0  0  0  0  0  0  0  0  0  0  0  0  # atno 17320 bound_to 7965
  145.9517  139.2738  143.1208 LP  0  0  0  0  0  0  0  0  0  0  0  0  # atno 17321 bound_to 7965
  139.8332  143.7663  152.3180 LP  0  0  0  0  0  0  0  0  0  0  0  0  # atno 17342 bound_to 10162
  139.7786  144.7452  151.0121 LP  0  0  0  0  0  0  0  0  0  0  0  0  # atno 17343 bound_to 10162
  156.3687  130.7519  151.2500 LP  0  0  0  0  0  0  0  0  0  0  0  0  # atno 17370 bound_to 10713
  157.7496  131.0329  150.4248 LP  0  0  0  0  0  0  0  0  0  0  0  0  # atno 17371 bound_to 10713
  141.0427  133.6929  156.1627 LP  0  0  0  0  0  0  0  0  0  0  0  0  # atno 17394 bound_to 11000
  140.6931  134.4645  157.5588 LP  0  0  0  0  0  0  0  0  0  0  0  0  # atno 17395 bound_to 11000

$$$$
