AV-unprocessed.smi:3020|AV-procd|sdf|11497|dock2
  -GOLD-   2272016433D 1   1.00000     0.00000
 Structure written by MMmdl.
 28 29  0  0  0  0  0  0  0  0  1 V2000
  153.7600  139.0892  158.3765 O   0  0  0  0  0  0  0  0  0  0  0  0
  152.8452  139.9011  158.5148 C   0  0  0  0  0  0  0  0  0  0  0  0
  152.8505  140.8353  159.7249 C   0  0  0  0  0  0  0  0  0  0  0  0
  151.7752  141.7555  159.6141 O   0  0  0  0  0  0  0  0  0  0  0  0
  152.0050  142.9518  160.3374 C   0  0  0  0  0  0  0  0  0  0  0  0
  151.2462  144.0805  159.6733 C   0  0  0  0  0  0  0  0  0  0  0  0
  151.9163  144.9561  158.6388 C   0  0  0  0  0  0  0  0  0  0  0  0
  151.5786  145.5196  159.9957 C   0  0  0  0  0  0  0  0  0  0  0  0
  151.8197  140.0526  157.6556 N   0  0  0  0  0  0  0  0  0  0  0  0
  151.5625  139.3320  156.4602 C   0  0  0  0  0  0  0  0  0  0  0  0
  152.1829  138.0641  156.3617 C   0  0  0  0  0  0  0  0  0  0  0  0
  152.0330  137.2601  155.2858 N   0  0  0  0  0  0  0  0  0  0  0  0
  151.2508  137.7256  154.2887 C   0  0  0  0  0  0  0  0  0  0  0  0
  150.6244  138.9853  154.3694 C   0  0  0  0  0  0  0  0  0  0  0  0
  150.7788  139.7840  155.4478 N   0  0  0  0  0  0  0  0  0  0  0  0
  152.7551  140.2509  160.6416 H   0  0  0  0  0  0  0  0  0  0  0  0
  153.8045  141.3636  159.7612 H   0  0  0  0  0  0  0  0  0  0  0  0
  151.6577  142.8477  161.3663 H   0  0  0  0  0  0  0  0  0  0  0  0
  153.0708  143.1859  160.3631 H   0  0  0  0  0  0  0  0  0  0  0  0
  150.1920  143.8641  159.5095 H   0  0  0  0  0  0  0  0  0  0  0  0
  152.9656  144.7695  158.4189 H   0  0  0  0  0  0  0  0  0  0  0  0
  151.3142  145.2834  157.7934 H   0  0  0  0  0  0  0  0  0  0  0  0
  150.7521  146.2248  160.0553 H   0  0  0  0  0  0  0  0  0  0  0  0
  152.4041  145.7101  160.6788 H   0  0  0  0  0  0  0  0  0  0  0  0
  151.1406  140.7607  157.8942 H   0  0  0  0  0  0  0  0  0  0  0  0
  152.8095  137.6869  157.1570 H   0  0  0  0  0  0  0  0  0  0  0  0
  151.1235  137.0915  153.4238 H   0  0  0  0  0  0  0  0  0  0  0  0
  149.9995  139.3529  153.5691 H   0  0  0  0  0  0  0  0  0  0  0  0
  1  2  2  0  0  0  0
  2  3  1  0  0  0  0
  2  9  1  0  0  0  0
  3  4  1  0  0  0  0
  3 16  1  0  0  0  0
  3 17  1  0  0  0  0
  4  5  1  0  0  0  0
  5  6  1  0  0  0  0
  5 18  1  0  0  0  0
  5 19  1  0  0  0  0
  6  8  1  0  0  0  0
  6  7  1  0  0  0  0
  6 20  1  0  0  0  0
  7  8  1  0  0  0  0
  7 21  1  0  0  0  0
  7 22  1  0  0  0  0
  8 23  1  0  0  0  0
  8 24  1  0  0  0  0
  9 10  1  0  0  0  0
  9 25  1  0  0  0  0
 10 15  1  0  0  0  0
 10 11  2  0  0  0  0
 11 12  1  0  0  0  0
 11 26  1  0  0  0  0
 12 13  2  0  0  0  0
 13 14  1  0  0  0  0
 13 27  1  0  0  0  0
 14 15  2  0  0  0  0
 14 28  1  0  0  0  0
M  END
> <s_m_source_file>
AV-unprocessed.smi

> <i_m_source_file_index>
3020

> <i_lp_mmshare_version>
43012

> <i_f3d_flags>
0

> <s_epik_input>
W0NIMl0xW0NIMl1bQ0hdMVtDSDJdT1tDSDJdQyg9TylbTkhdYzJbY0hdbltjSF1bY0hdbjI=

> <s_epik_cmdline>
J2VwaWtfcHl0aG9uJywgJy1waCcsICc3LjAnLCAnLXRuJywgJzgnLCAnLW1hJywgJzIwMCcsICctbWV0YWxfYmluZGluZycsICctaW1hZScsICc8aW5maWxlLm1hZT4nLCAnLW9tYWUnLCAnPG91dGZpbGUubWFlPic=

> <r_lp_tautomer_probability>
1

> <r_epik_Ionization_Penalty>
2.93955e-06

> <r_epik_Ionization_Penalty_Charging>
0

> <r_epik_Ionization_Penalty_Neutral>
2.93955e-06

> <r_epik_State_Penalty>
-0

> <r_epik_Charging_Adjusted_Penalty>
0

> <i_epik_Tot_Q>
0

> <i_epik_Tot_abs_Q>
0

> <r_epik_Metal_State_Penalty>
-0

> <b_epik_Metal_Only>
0

> <s_lp_Force_Field>
OPLS_2005

> <r_lp_Energy>
21.027

> <b_lp_Chiralities_Consistent>
1

> <s_lp_Variant>
AV-unprocessed.smi:3020-1

> <Gold.Version>
5.8.1

> <Gold.Id.Protein>
6NUR|6NUR_protein|mol2

> <Gold.PLP.Fitness>
43.9164

> <Gold.PLP.PLP>
-33.0657

> <Gold.PLP.part.hbond>
-2.0790

> <Gold.PLP.part.metal>
0.0000

> <Gold.PLP.part.buried>
-4.4912

> <Gold.PLP.part.nonpolar>
-27.0534

> <Gold.PLP.part.repulsive>
0.1565

> <Gold.PLP.ligand.clash>
0.0000

> <Gold.PLP.ligand.torsion>
0.7033

> <Gold.PLP.Chemscore.Hbond>
1.8882

> <Gold.PLP.Chemscore.CHOScore>
2.0132

> <Gold.PLP.Chemscore.Metal>
0.0000

> <Gold.Chemscore.Hbonds>
donor molecule, donor type, donor heavy atom, donor atom, acceptor molecule, acceptor atom, score
      P1  H  7997  8009       L1     1  1.00
      P1  H 10752 10763       L1    12  0.88
      L1  C    13    27       P1  7949  1.00
      L1  C    14    28       P1  7957  1.00

> <Gold.PLP.Chemscore.Internal.Correction>
0.5531

> <Gold.Rescore>
     Score         DG    S(hbond)    S(metal)    S(lipo)     H(rot)  DE(clash)    DE(int)     intcor
     12.29     -14.48       1.38        0.00      75.81       1.75       0.02       2.16       ----

> <Gold.Chemscore.Fitness>
12.2944

> <Gold.Chemscore.DG>
-14.4778

> <Gold.Chemscore.ZeroCoef>
-5.4800

> <Gold.Chemscore.Hbond>
1.3787

> <Gold.Chemscore.Metal>
0.0000

> <Gold.Chemscore.Lipo>
75.8090

> <Gold.Chemscore.Internal_Hbond>
0.0000

> <Gold.Chemscore.DEClash>
0.0246

> <Gold.Chemscore.DEInternal>
2.1587

> <Gold.Chemscore.Rot>
1.7487

> <Gold.Chemscore.Internal.Correction>
   9.000000E+99

> <Gold.Chemscore.Hbonds>
donor molecule, donor type, donor heavy atom, donor atom, acceptor molecule, acceptor atom, score
      P1  H  7997  8009       L1     1  0.43
      P1  H 10752 10763       L1    12  0.61

> <Gold.Chemscore.Hbond.Weighted>
-4.6048

> <Gold.Chemscore.Metal.Weighted>
-0.0000

> <Gold.Chemscore.Lipo.Weighted>
-8.8697

> <Gold.Chemscore.Internal_Hbond.Weighted>
0.0000

> <Gold.Chemscore.DEClash.Weighted>
0.0246

> <Gold.Chemscore.DEInternal.Weighted>
2.1587

> <Gold.Chemscore.Rot.Weighted>
4.4767

> <Gold.Chemscore.Internal.Correction.Weighted>
   9.000000E+99

> <Gold.Protein.RotatedTorsions>
[ 6907 6896 6895 6894 ] final  -35.76 input  -60.11 | X-H torsion
[ 7974 7965 7964 7962 ] final -100.50 input  175.53 | X-H torsion
[ 8008 7997 7996 7995 ] final  124.19 input   59.86 | X-H torsion
[ 10167 10162 10161 10158 ] final  -49.21 input  -65.29 | X-H torsion
[ 10718 10713 10712 10709 ] final    3.31 input   66.30 | X-H torsion
[ 10763 10752 10751 10750 ] final   65.08 input  -60.55 | X-H torsion
[ 11005 11000 10999 10996 ] final   69.53 input  -57.11 | X-H torsion

> <Gold.Protein.ActiveResidues>
 VAL166  LYS551  ARG553  GLY616  TRP617  ASP618  TYR619  PRO620  LYS621  CYS622 
 ASP623  PHE694  ASN695  SER759  ASP760  ASP761  ALA762  ILE779  LEU786  VAL792 
 PHE793  MET794  SER795  GLU796  ALA797  LYS798  CYS799  TRP800  GLU811  SER814 

> <Gold.Protein.RotatedAtoms>
  151.0358  134.9572  159.8134 H   0  0  0  0  0  0  0  0  0  0  0  0  # atno 6907 bound_to 6896
  152.5354  134.2722  159.8986 H   0  0  0  0  0  0  0  0  0  0  0  0  # atno 6908 bound_to 6896
  151.2733  133.4202  159.2656 H   0  0  0  0  0  0  0  0  0  0  0  0  # atno 6909 bound_to 6896
  145.2937  140.9359  143.2863 H   0  0  0  0  0  0  0  0  0  0  0  0  # atno 7974 bound_to 7965
  156.2793  140.2745  156.1748 H   0  0  0  0  0  0  0  0  0  0  0  0  # atno 8008 bound_to 7997
  155.0617  140.0386  157.2597 H   0  0  0  0  0  0  0  0  0  0  0  0  # atno 8009 bound_to 7997
  154.7112  140.2669  155.6633 H   0  0  0  0  0  0  0  0  0  0  0  0  # atno 8010 bound_to 7997
  140.6696  143.2707  151.4182 H   0  0  0  0  0  0  0  0  0  0  0  0  # atno 10167 bound_to 10162
  156.8760  130.5636  149.5655 H   0  0  0  0  0  0  0  0  0  0  0  0  # atno 10718 bound_to 10713
  153.0082  135.5370  154.6611 H   0  0  0  0  0  0  0  0  0  0  0  0  # atno 10763 bound_to 10752
  154.5819  135.2851  155.0726 H   0  0  0  0  0  0  0  0  0  0  0  0  # atno 10764 bound_to 10752
  154.1851  135.6509  153.5097 H   0  0  0  0  0  0  0  0  0  0  0  0  # atno 10765 bound_to 10752
  139.9648  134.6999  156.0568 H   0  0  0  0  0  0  0  0  0  0  0  0  # atno 11005 bound_to 11000
  144.9151  139.4480  143.6568 LP  0  0  0  0  0  0  0  0  0  0  0  0  # atno 17320 bound_to 7965
  146.3176  139.7981  142.8971 LP  0  0  0  0  0  0  0  0  0  0  0  0  # atno 17321 bound_to 7965
  139.5958  144.1400  152.2142 LP  0  0  0  0  0  0  0  0  0  0  0  0  # atno 17342 bound_to 10162
  140.0769  144.5733  150.7150 LP  0  0  0  0  0  0  0  0  0  0  0  0  # atno 17343 bound_to 10162
  156.0702  130.5736  150.9368 LP  0  0  0  0  0  0  0  0  0  0  0  0  # atno 17370 bound_to 10713
  157.6168  131.0932  150.8695 LP  0  0  0  0  0  0  0  0  0  0  0  0  # atno 17371 bound_to 10713
  141.1327  133.6582  156.3509 LP  0  0  0  0  0  0  0  0  0  0  0  0  # atno 17394 bound_to 11000
  140.5420  134.6111  157.5382 LP  0  0  0  0  0  0  0  0  0  0  0  0  # atno 17395 bound_to 11000

$$$$
