AV-unprocessed.smi:136|AV-procd|sdf|1174|dock4
  -GOLD-   2262018323D 1   1.00000     0.00000
 Structure written by MMmdl.
 54 58  0  0  0  0  0  0  0  0  1 V2000
  151.7034  136.8964  152.9725 O   0  0  0  0  0  0  0  0  0  0  0  0
  150.5535  136.4815  153.1293 C   0  0  0  0  0  0  0  0  0  0  0  0
  149.6112  137.1872  154.1274 C   0  0  0  0  0  0  0  0  0  0  0  0
  150.0205  138.5714  154.4512 N   0  0  0  0  0  0  0  0  0  0  0  0
  150.1393  139.5121  153.3981 C   0  0  0  0  0  0  0  0  0  0  0  0
  149.9013  139.1982  152.2309 O   0  0  0  0  0  0  0  0  0  0  0  0
  150.5663  140.8496  153.7937 C   0  0  0  0  0  0  0  0  0  0  0  0
  150.7111  141.8054  152.8603 F   0  0  0  0  0  0  0  0  0  0  0  0
  150.8226  141.1433  155.0850 C   0  0  0  0  0  0  0  0  0  0  0  0
  150.7006  140.2150  156.1027 N   0  0  0  0  0  0  0  0  0  0  0  0
  151.0141  140.5752  157.5376 C   0  0  1  0  0  0  0  0  0  0  0  0
  152.3987  141.2262  157.6294 C   0  0  0  0  0  0  0  0  0  0  0  0
  152.0549  142.6987  157.5658 C   0  0  0  0  0  0  0  0  0  0  0  0
  150.7285  142.7353  158.3161 C   0  0  0  0  0  0  0  0  0  0  0  0
  150.0769  141.5105  157.9893 O   0  0  0  0  0  0  0  0  0  0  0  0
  150.3088  138.8932  155.7991 C   0  0  0  0  0  0  0  0  0  0  0  0
  150.2314  138.0394  156.6855 O   0  0  0  0  0  0  0  0  0  0  0  0
  150.0761  135.4205  152.4408 N   0  0  0  0  0  0  0  0  0  0  0  0
  148.7753  135.0374  152.4835 N   0  0  0  0  0  0  0  0  0  0  0  0
  148.5638  134.1191  151.6152 C   0  0  0  0  0  0  0  0  0  0  0  0
  147.2525  133.4744  151.3816 C   0  0  0  0  0  0  0  0  0  0  0  0
  147.1778  132.3353  150.5477 C   0  0  0  0  0  0  0  0  0  0  0  0
  145.9305  131.7204  150.3246 C   0  0  0  0  0  0  0  0  0  0  0  0
  144.7675  132.2382  150.9294 C   0  0  0  0  0  0  0  0  0  0  0  0
  143.2425  131.4809  150.6510 Cl  0  0  0  0  0  0  0  0  0  0  0  0
  144.8477  133.3732  151.7609 C   0  0  0  0  0  0  0  0  0  0  0  0
  146.0895  133.9972  151.9912 C   0  0  0  0  0  0  0  0  0  0  0  0
  149.7757  133.7402  150.8329 C   0  0  0  0  0  0  0  0  0  0  0  0
  150.8430  134.6418  151.4590 C   0  0  2  0  0  0  0  0  0  0  0  0
  151.9858  133.8649  152.0490 C   0  0  0  0  0  0  0  0  0  0  0  0
  153.3389  133.8390  151.8388 C   0  0  0  0  0  0  0  0  0  0  0  0
  153.8701  132.8770  152.7411 C   0  0  0  0  0  0  0  0  0  0  0  0
  152.8037  132.3887  153.4400 C   0  0  0  0  0  0  0  0  0  0  0  0
  151.6493  132.9819  153.0319 O   0  0  0  0  0  0  0  0  0  0  0  0
  148.5978  137.1615  153.7239 H   0  0  0  0  0  0  0  0  0  0  0  0
  149.5494  136.5922  155.0401 H   0  0  0  0  0  0  0  0  0  0  0  0
  151.1418  142.1483  155.3183 H   0  0  0  0  0  0  0  0  0  0  0  0
  150.9175  139.6535  158.1138 H   0  0  0  0  0  0  0  0  0  0  0  0
  152.8364  140.9775  158.5969 H   0  0  0  0  0  0  0  0  0  0  0  0
  153.0718  140.8899  156.8396 H   0  0  0  0  0  0  0  0  0  0  0  0
  152.8164  143.3371  158.0141 H   0  0  0  0  0  0  0  0  0  0  0  0
  151.9141  143.0097  156.5299 H   0  0  0  0  0  0  0  0  0  0  0  0
  150.9030  142.7616  159.3926 H   0  0  0  0  0  0  0  0  0  0  0  0
  150.1172  143.5976  158.0497 H   0  0  0  0  0  0  0  0  0  0  0  0
  148.0578  131.9232  150.0752 H   0  0  0  0  0  0  0  0  0  0  0  0
  145.8676  130.8500  149.6882 H   0  0  0  0  0  0  0  0  0  0  0  0
  143.9551  133.7674  152.2243 H   0  0  0  0  0  0  0  0  0  0  0  0
  146.1243  134.8655  152.6323 H   0  0  0  0  0  0  0  0  0  0  0  0
  150.0059  132.6807  150.9546 H   0  0  0  0  0  0  0  0  0  0  0  0
  149.6441  133.9514  149.7711 H   0  0  0  0  0  0  0  0  0  0  0  0
  151.2279  135.3250  150.6997 H   0  0  0  0  0  0  0  0  0  0  0  0
  153.8801  134.4383  151.1214 H   0  0  0  0  0  0  0  0  0  0  0  0
  154.9014  132.5808  152.8642 H   0  0  0  0  0  0  0  0  0  0  0  0
  152.6932  131.6539  154.2238 H   0  0  0  0  0  0  0  0  0  0  0  0
  1  2  2  0  0  0  0
  2  3  1  0  0  0  0
  2 18  1  0  0  0  0
  3  4  1  0  0  0  0
  3 35  1  0  0  0  0
  3 36  1  0  0  0  0
  4 16  1  0  0  0  0
  4  5  1  0  0  0  0
  5  6  2  0  0  0  0
  5  7  1  0  0  0  0
  7  8  1  0  0  0  0
  7  9  2  0  0  0  0
  9 10  1  0  0  0  0
  9 37  1  0  0  0  0
 10 11  1  0  0  0  0
 10 16  1  0  0  0  0
 11 15  1  0  0  0  0
 11 12  1  0  0  0  0
 11 38  1  0  0  0  0
 12 13  1  0  0  0  0
 12 39  1  0  0  0  0
 12 40  1  0  0  0  0
 13 14  1  0  0  0  0
 13 41  1  0  0  0  0
 13 42  1  0  0  0  0
 14 15  1  0  0  0  0
 14 43  1  0  0  0  0
 14 44  1  0  0  0  0
 16 17  2  0  0  0  0
 18 29  1  0  0  0  0
 18 19  1  0  0  0  0
 19 20  2  0  0  0  0
 20 21  1  0  0  0  0
 20 28  1  0  0  0  0
 21 27  1  0  0  0  0
 21 22  2  0  0  0  0
 22 23  1  0  0  0  0
 22 45  1  0  0  0  0
 23 24  2  0  0  0  0
 23 46  1  0  0  0  0
 24 25  1  0  0  0  0
 24 26  1  0  0  0  0
 26 27  2  0  0  0  0
 26 47  1  0  0  0  0
 27 48  1  0  0  0  0
 28 29  1  0  0  0  0
 28 49  1  0  0  0  0
 28 50  1  0  0  0  0
 29 30  1  0  0  0  0
 29 51  1  0  0  0  0
 30 34  1  0  0  0  0
 30 31  2  0  0  0  0
 31 32  1  0  0  0  0
 31 52  1  0  0  0  0
 32 33  2  0  0  0  0
 32 53  1  0  0  0  0
 33 34  1  0  0  0  0
 33 54  1  0  0  0  0
M  END
> <s_m_source_file>
AV-unprocessed.smi

> <i_m_source_file_index>
136

> <i_lp_mmshare_version>
43012

> <i_f3d_flags>
0

> <s_epik_input>
bzFbY0hdW2NIXVtjSF1jMVtDQEBIXTJbQ0gyXUMoYzNbY0hdW2NIXWMoQ2wpW2NIXVtjSF0zKT1OTjJDKD1PKVtDSDJdbjRjKD1PKWMoRilbY0hdbihjND1PKVtDQEBIXTVbQ0gyXVtDSDJdW0NIMl1PNQ==

> <s_epik_cmdline>
J2VwaWtfcHl0aG9uJywgJy1waCcsICc3LjAnLCAnLXRuJywgJzgnLCAnLW1hJywgJzIwMCcsICctbWV0YWxfYmluZGluZycsICctaW1hZScsICc8aW5maWxlLm1hZT4nLCAnLW9tYWUnLCAnPG91dGZpbGUubWFlPic=

> <r_lp_tautomer_probability>
1

> <r_epik_Ionization_Penalty>
2.55467e-08

> <r_epik_Ionization_Penalty_Charging>
4.85705e-09

> <r_epik_Ionization_Penalty_Neutral>
2.06897e-08

> <r_epik_State_Penalty>
-0

> <r_epik_Charging_Adjusted_Penalty>
4.85705e-09

> <i_epik_Tot_Q>
0

> <i_epik_Tot_abs_Q>
0

> <r_epik_Metal_State_Penalty>
-0

> <b_epik_Metal_Only>
0

> <s_epik_Chemistry_Notes>
This compound has an imine and may undergo hydrolysis. This compound contains an acetal/aminal-like group ( X-CH(R)-Y where X, Y are N, S, or O) that may be acid/base labile, releasing an aldehyde.

> <s_lp_Force_Field>
OPLS_2005

> <r_lp_Energy>
39.5424

> <b_lp_Chiralities_Consistent>
1

> <s_lp_Variant>
AV-unprocessed.smi:136-4

> <Gold.Version>
5.8.1

> <Gold.Id.Protein>
6NUR|6NUR_protein|mol2

> <Gold.PLP.Fitness>
50.6757

> <Gold.PLP.PLP>
-48.5035

> <Gold.PLP.part.hbond>
-1.0036

> <Gold.PLP.part.metal>
0.0000

> <Gold.PLP.part.buried>
-4.1666

> <Gold.PLP.part.nonpolar>
-49.0063

> <Gold.PLP.part.repulsive>
5.1767

> <Gold.PLP.ligand.clash>
0.0000

> <Gold.PLP.ligand.torsion>
0.4456

> <Gold.PLP.Chemscore.Hbond>
1.0000

> <Gold.PLP.Chemscore.CHOScore>
0.0000

> <Gold.PLP.Chemscore.Metal>
0.0000

> <Gold.Chemscore.Hbonds>
donor molecule, donor type, donor heavy atom, donor atom, acceptor molecule, acceptor atom, score
      P1  H 10752 10763       L1     1  0.99

> <Gold.PLP.Chemscore.Internal.Correction>
0.0633

> <Gold.Rescore>
     Score         DG    S(hbond)    S(metal)    S(lipo)     H(rot)  DE(clash)    DE(int)     intcor
     14.48     -17.34       0.89        0.00     115.44       1.81       0.89       1.96       ----

> <Gold.Chemscore.Fitness>
14.4833

> <Gold.Chemscore.DG>
-17.3364

> <Gold.Chemscore.ZeroCoef>
-5.4800

> <Gold.Chemscore.Hbond>
0.8899

> <Gold.Chemscore.Metal>
0.0000

> <Gold.Chemscore.Lipo>
115.4405

> <Gold.Chemscore.Internal_Hbond>
0.0000

> <Gold.Chemscore.DEClash>
0.8934

> <Gold.Chemscore.DEInternal>
1.9597

> <Gold.Chemscore.Rot>
1.8056

> <Gold.Chemscore.Internal.Correction>
   9.000000E+99

> <Gold.Chemscore.Hbonds>
donor molecule, donor type, donor heavy atom, donor atom, acceptor molecule, acceptor atom, score
      P1  H 10752 10763       L1     1  0.79

> <Gold.Chemscore.Hbond.Weighted>
-2.9722

> <Gold.Chemscore.Metal.Weighted>
-0.0000

> <Gold.Chemscore.Lipo.Weighted>
-13.5065

> <Gold.Chemscore.Internal_Hbond.Weighted>
0.0000

> <Gold.Chemscore.DEClash.Weighted>
0.8934

> <Gold.Chemscore.DEInternal.Weighted>
1.9597

> <Gold.Chemscore.Rot.Weighted>
4.6223

> <Gold.Chemscore.Internal.Correction.Weighted>
   9.000000E+99

> <Gold.Protein.RotatedTorsions>
[ 6907 6896 6895 6894 ] final   51.95 input  -60.11 | X-H torsion
[ 7974 7965 7964 7962 ] final  -29.21 input  175.53 | X-H torsion
[ 8008 7997 7996 7995 ] final  153.69 input   59.86 | X-H torsion
[ 10167 10162 10161 10158 ] final    6.15 input  -65.29 | X-H torsion
[ 10718 10713 10712 10709 ] final  133.48 input   66.30 | X-H torsion
[ 10763 10752 10751 10750 ] final   15.41 input  -60.55 | X-H torsion
[ 11005 11000 10999 10996 ] final -171.54 input  -57.11 | X-H torsion

> <Gold.Protein.ActiveResidues>
 VAL166  LYS551  ARG553  GLY616  TRP617  ASP618  TYR619  PRO620  LYS621  CYS622 
 ASP623  PHE694  ASN695  SER759  ASP760  ASP761  ALA762  ILE779  LEU786  VAL792 
 PHE793  MET794  SER795  GLU796  ALA797  LYS798  CYS799  TRP800  GLU811  SER814 

> <Gold.Protein.RotatedAtoms>
  152.3181  134.7414  160.0320 H   0  0  0  0  0  0  0  0  0  0  0  0  # atno 6907 bound_to 6896
  151.7872  133.3350  159.3496 H   0  0  0  0  0  0  0  0  0  0  0  0  # atno 6908 bound_to 6896
  150.7355  134.5807  159.5982 H   0  0  0  0  0  0  0  0  0  0  0  0  # atno 6909 bound_to 6896
  146.1233  140.5382  142.8726 H   0  0  0  0  0  0  0  0  0  0  0  0  # atno 7974 bound_to 7965
  156.2569  140.1987  156.6530 H   0  0  0  0  0  0  0  0  0  0  0  0  # atno 8008 bound_to 7997
  154.6522  140.0570  156.9993 H   0  0  0  0  0  0  0  0  0  0  0  0  # atno 8009 bound_to 7997
  155.1401  140.3242  155.4457 H   0  0  0  0  0  0  0  0  0  0  0  0  # atno 8010 bound_to 7997
  140.6443  143.7699  150.7475 H   0  0  0  0  0  0  0  0  0  0  0  0  # atno 10167 bound_to 10162
  157.4769  131.1083  150.9732 H   0  0  0  0  0  0  0  0  0  0  0  0  # atno 10718 bound_to 10713
  153.1528  135.6781  153.8857 H   0  0  0  0  0  0  0  0  0  0  0  0  # atno 10763 bound_to 10752
  153.8278  135.3121  155.3417 H   0  0  0  0  0  0  0  0  0  0  0  0  # atno 10764 bound_to 10752
  154.7875  135.4854  154.0065 H   0  0  0  0  0  0  0  0  0  0  0  0  # atno 10765 bound_to 10752
  140.5071  134.5838  157.5007 H   0  0  0  0  0  0  0  0  0  0  0  0  # atno 11005 bound_to 11000
  144.7618  140.5439  143.6730 LP  0  0  0  0  0  0  0  0  0  0  0  0  # atno 17320 bound_to 7965
  145.5419  139.1475  143.3442 LP  0  0  0  0  0  0  0  0  0  0  0  0  # atno 17321 bound_to 7965
  140.1337  143.4503  152.2238 LP  0  0  0  0  0  0  0  0  0  0  0  0  # atno 17342 bound_to 10162
  139.5653  144.7431  151.4039 LP  0  0  0  0  0  0  0  0  0  0  0  0  # atno 17343 bound_to 10162
  157.0478  130.5775  149.5365 LP  0  0  0  0  0  0  0  0  0  0  0  0  # atno 17370 bound_to 10713
  156.0101  130.5192  150.7961 LP  0  0  0  0  0  0  0  0  0  0  0  0  # atno 17371 bound_to 10713
  139.9680  134.7340  156.0099 LP  0  0  0  0  0  0  0  0  0  0  0  0  # atno 17394 bound_to 11000
  141.1405  133.6566  156.3716 LP  0  0  0  0  0  0  0  0  0  0  0  0  # atno 17395 bound_to 11000

$$$$
