AV-unprocessed.smi:72|AV-procd|sdf|695|dock10
  -GOLD-   2262017 13D 1   1.00000     0.00000
 Structure written by MMmdl.
 30 31  0  0  0  0  0  0  0  0  2 V2000
  149.6297  134.2872  155.9548 N   0  0  0  0  0  0  0  0  0  0  0  0
  149.9080  135.5776  155.5546 C   0  0  0  0  0  0  0  0  0  0  0  0
  148.8534  136.4710  155.4861 N   0  3  0  0  0  0  0  0  0  0  0  0
  148.9560  137.7575  155.1252 C   0  0  0  0  0  0  0  0  0  0  0  0
  150.1416  138.2422  154.8176 N   0  0  0  0  0  0  0  0  0  0  0  0
  150.3089  139.6796  154.4092 C   0  0  2  0  0  0  0  0  0  0  0  0
  151.0927  140.3093  155.3774 O   0  0  0  0  0  0  0  0  0  0  0  0
  150.4855  141.5328  155.7809 C   0  0  2  0  0  0  0  0  0  0  0  0
  150.9158  141.8797  157.2144 C   0  0  0  0  0  0  0  0  0  0  0  0
  150.2771  143.0651  157.6370 O   0  0  0  0  0  0  0  0  0  0  0  0
  148.9954  141.2202  155.6453 C   0  0  1  0  0  0  0  0  0  0  0  0
  148.1867  142.3795  155.5870 O   0  0  0  0  0  0  0  0  0  0  0  0
  148.9435  140.3832  154.3723 C   0  0  1  0  0  0  0  0  0  0  0  0
  148.8141  141.1711  153.2034 O   0  0  0  0  0  0  0  0  0  0  0  0
  151.2785  137.3951  154.8270 C   0  0  0  0  0  0  0  0  0  0  0  0
  152.3811  137.8286  154.4949 O   0  0  0  0  0  0  0  0  0  0  0  0
  151.0710  136.0650  155.2203 N   0  0  0  0  0  0  0  0  0  0  0  0
  150.8411  139.6725  153.4560 H   0  0  0  0  0  0  0  0  0  0  0  0
  150.7615  142.3230  155.0793 H   0  0  0  0  0  0  0  0  0  0  0  0
  148.6732  140.6066  156.4879 H   0  0  0  0  0  0  0  0  0  0  0  0
  148.1227  139.6647  154.3952 H   0  0  0  0  0  0  0  0  0  0  0  0
  150.3345  133.5669  156.0292 H   0  0  0  0  0  0  0  0  0  0  0  0
  148.7075  133.9593  156.2035 H   0  0  0  0  0  0  0  0  0  0  0  0
  148.0666  138.3741  155.0866 H   0  0  0  0  0  0  0  0  0  0  0  0
  150.6165  141.0860  157.8994 H   0  0  0  0  0  0  0  0  0  0  0  0
  151.9984  141.9828  157.2915 H   0  0  0  0  0  0  0  0  0  0  0  0
  149.9266  143.5063  156.8783 H   0  0  0  0  0  0  0  0  0  0  0  0
  148.7345  143.1214  155.3806 H   0  0  0  0  0  0  0  0  0  0  0  0
  148.5337  140.6157  152.4916 H   0  0  0  0  0  0  0  0  0  0  0  0
  147.9366  136.1227  155.7280 H   0  0  0  0  0  0  0  0  0  0  0  0
  1  2  1  0  0  0  0
  1 22  1  0  0  0  0
  1 23  1  0  0  0  0
  2 17  2  0  0  0  0
  2  3  1  0  0  0  0
  3  4  2  0  0  0  0
  3 30  1  0  0  0  0
  4  5  1  0  0  0  0
  4 24  1  0  0  0  0
  5  6  1  0  0  0  0
  5 15  1  0  0  0  0
  6 18  1  0  0  0  0
  6 13  1  0  0  0  0
  6  7  1  0  0  0  0
  7  8  1  0  0  0  0
  8 19  1  0  0  0  0
  8  9  1  0  0  0  0
  8 11  1  0  0  0  0
  9 10  1  0  0  0  0
  9 25  1  0  0  0  0
  9 26  1  0  0  0  0
 10 27  1  0  0  0  0
 11 20  1  0  0  0  0
 11 12  1  0  0  0  0
 11 13  1  0  0  0  0
 12 28  1  0  0  0  0
 13 21  1  0  0  0  0
 13 14  1  0  0  0  0
 14 29  1  0  0  0  0
 15 16  2  0  0  0  0
 15 17  1  0  0  0  0
M  CHG  1   3   1
M  END
> <s_m_source_file>
AV-unprocessed.smi

> <i_m_source_file_index>
72

> <i_lp_mmshare_version>
43012

> <i_f3d_flags>
0

> <s_epik_input>
W05IMl1jMW5bY0hdbihjKD1PKW4xKVtDQEBIXTJPW0NASF0oW0NIMl1bT0hdKVtDQEBIXShbT0hdKVtDQEhdMltPSF0=

> <s_epik_cmdline>
J2VwaWtfcHl0aG9uJywgJy1waCcsICc3LjAnLCAnLXRuJywgJzgnLCAnLW1hJywgJzIwMCcsICctbWV0YWxfYmluZGluZycsICctaW1hZScsICc8aW5maWxlLm1hZT4nLCAnLW9tYWUnLCAnPG91dGZpbGUubWFlPic=

> <r_lp_tautomer_probability>
4.77166e-05

> <r_epik_Ionization_Penalty>
0.104979

> <r_epik_Ionization_Penalty_Charging>
0.0999619

> <r_epik_Ionization_Penalty_Neutral>
0.00501745

> <r_epik_State_Penalty>
2.51541

> <r_epik_Charging_Adjusted_Penalty>
2.61537

> <i_epik_Tot_Q>
1

> <i_epik_Tot_abs_Q>
1

> <r_epik_Metal_State_Penalty>
3.53763

> <b_epik_Metal_Only>
0

> <s_epik_Chemistry_Notes>
This compound contains an acetal/aminal-like group ( X-CH(R)-Y where X, Y are N, S, or O) that may be acid/base labile, releasing an aldehyde.

> <s_lp_Force_Field>
OPLS_2005

> <r_lp_Energy>
34.3488

> <b_lp_Chiralities_Consistent>
1

> <s_lp_Variant>
AV-unprocessed.smi:72-33

> <Gold.Version>
5.8.1

> <Gold.Id.Protein>
6NUR|6NUR_protein|mol2

> <Gold.PLP.Fitness>
40.4856

> <Gold.PLP.PLP>
-27.4999

> <Gold.PLP.part.hbond>
-6.8389

> <Gold.PLP.part.metal>
0.0000

> <Gold.PLP.part.buried>
-3.5900

> <Gold.PLP.part.nonpolar>
-18.2993

> <Gold.PLP.part.repulsive>
0.2979

> <Gold.PLP.ligand.clash>
0.6719

> <Gold.PLP.ligand.torsion>
0.0447

> <Gold.PLP.Chemscore.Hbond>
4.5760

> <Gold.PLP.Chemscore.CHOScore>
0.0000

> <Gold.PLP.Chemscore.Metal>
0.0000

> <Gold.Chemscore.Hbonds>
donor molecule, donor type, donor heavy atom, donor atom, acceptor molecule, acceptor atom, score
      L1  H    10    27       P1  8028  1.00
      L1  H    12    28       P1  8028  0.83
      L1  H    14    29       P1  7957  0.50
      P1  H  8011  8017       L1    14  1.00
      P1  H 10752 10763       L1    17  0.64

> <Gold.PLP.Chemscore.Internal.Correction>
0.0190

> <Gold.Rescore>
     Score         DG    S(hbond)    S(metal)    S(lipo)     H(rot)  DE(clash)    DE(int)     intcor
      8.47     -10.93       3.81        0.00      27.19       4.08       1.25       1.21       ----

> <Gold.Chemscore.Fitness>
8.4692

> <Gold.Chemscore.DG>
-10.9311

> <Gold.Chemscore.ZeroCoef>
-5.4800

> <Gold.Chemscore.Hbond>
3.8055

> <Gold.Chemscore.Metal>
0.0000

> <Gold.Chemscore.Lipo>
27.1904

> <Gold.Chemscore.Internal_Hbond>
0.0000

> <Gold.Chemscore.DEClash>
1.2470

> <Gold.Chemscore.DEInternal>
1.2149

> <Gold.Chemscore.Rot>
4.0783

> <Gold.Chemscore.Internal.Correction>
   9.000000E+99

> <Gold.Chemscore.Hbonds>
donor molecule, donor type, donor heavy atom, donor atom, acceptor molecule, acceptor atom, score
      L1  H    10    27       P1  8028  0.96
      L1  H    12    28       P1  8028  0.82
      L1  H    14    29       P1  7957  0.50
      P1  H  8011  8017       L1    14  0.29
      P1  H 10752 10763       L1    17  0.05

> <Gold.Chemscore.Hbond.Weighted>
-12.7102

> <Gold.Chemscore.Metal.Weighted>
-0.0000

> <Gold.Chemscore.Lipo.Weighted>
-3.1813

> <Gold.Chemscore.Internal_Hbond.Weighted>
0.0000

> <Gold.Chemscore.DEClash.Weighted>
1.2470

> <Gold.Chemscore.DEInternal.Weighted>
1.2149

> <Gold.Chemscore.Rot.Weighted>
10.4404

> <Gold.Chemscore.Internal.Correction.Weighted>
   9.000000E+99

> <Gold.Protein.RotatedTorsions>
[ 6907 6896 6895 6894 ] final  122.23 input  -60.11 | X-H torsion
[ 7974 7965 7964 7962 ] final  114.53 input  175.53 | X-H torsion
[ 8008 7997 7996 7995 ] final  135.93 input   59.86 | X-H torsion
[ 10167 10162 10161 10158 ] final  -77.99 input  -65.29 | X-H torsion
[ 10718 10713 10712 10709 ] final  -49.10 input   66.30 | X-H torsion
[ 10763 10752 10751 10750 ] final   73.76 input  -60.55 | X-H torsion
[ 11005 11000 10999 10996 ] final -101.56 input  -57.11 | X-H torsion

> <Gold.Protein.ActiveResidues>
 VAL166  LYS551  ARG553  GLY616  TRP617  ASP618  TYR619  PRO620  LYS621  CYS622 
 ASP623  PHE694  ASN695  SER759  ASP760  ASP761  ALA762  ILE779  LEU786  VAL792 
 PHE793  MET794  SER795  GLU796  ALA797  LYS798  CYS799  TRP800  GLU811  SER814 

> <Gold.Protein.RotatedAtoms>
  152.4259  133.7194  159.6524 H   0  0  0  0  0  0  0  0  0  0  0  0  # atno 6907 bound_to 6896
  150.8136  133.8367  159.3177 H   0  0  0  0  0  0  0  0  0  0  0  0  # atno 6908 bound_to 6896
  151.6070  135.1045  160.0124 H   0  0  0  0  0  0  0  0  0  0  0  0  # atno 6909 bound_to 6896
  145.2032  139.2942  143.4307 H   0  0  0  0  0  0  0  0  0  0  0  0  # atno 7974 bound_to 7965
  156.3004  140.2458  156.3662 H   0  0  0  0  0  0  0  0  0  0  0  0  # atno 8008 bound_to 7997
  154.8831  140.0412  157.1813 H   0  0  0  0  0  0  0  0  0  0  0  0  # atno 8009 bound_to 7997
  154.8675  140.2930  155.5505 H   0  0  0  0  0  0  0  0  0  0  0  0  # atno 8010 bound_to 7997
  140.4722  143.2424  151.8188 H   0  0  0  0  0  0  0  0  0  0  0  0  # atno 10167 bound_to 10162
  156.1925  130.4153  149.9352 H   0  0  0  0  0  0  0  0  0  0  0  0  # atno 10718 bound_to 10713
  153.0542  135.5051  154.7941 H   0  0  0  0  0  0  0  0  0  0  0  0  # atno 10763 bound_to 10752
  154.6780  135.2963  154.9655 H   0  0  0  0  0  0  0  0  0  0  0  0  # atno 10764 bound_to 10752
  154.0450  135.6711  153.4847 H   0  0  0  0  0  0  0  0  0  0  0  0  # atno 10765 bound_to 10752
  141.1226  133.8488  157.1247 H   0  0  0  0  0  0  0  0  0  0  0  0  # atno 11005 bound_to 11000
  146.3413  140.2284  142.8593 LP  0  0  0  0  0  0  0  0  0  0  0  0  # atno 17320 bound_to 7965
  144.9927  140.8561  143.5329 LP  0  0  0  0  0  0  0  0  0  0  0  0  # atno 17321 bound_to 7965
  139.4820  144.4878  151.9224 LP  0  0  0  0  0  0  0  0  0  0  0  0  # atno 17342 bound_to 10162
  140.3963  144.2551  150.5896 LP  0  0  0  0  0  0  0  0  0  0  0  0  # atno 17343 bound_to 10162
  156.7087  130.8961  151.3607 LP  0  0  0  0  0  0  0  0  0  0  0  0  # atno 17370 bound_to 10713
  157.6938  130.9260  150.0586 LP  0  0  0  0  0  0  0  0  0  0  0  0  # atno 17371 bound_to 10713
  140.0195  134.9952  157.0563 LP  0  0  0  0  0  0  0  0  0  0  0  0  # atno 17394 bound_to 11000
  140.4463  134.1629  155.7177 LP  0  0  0  0  0  0  0  0  0  0  0  0  # atno 17395 bound_to 11000

$$$$
