AV-unprocessed.smi:2442|AV-procd|sdf|9629|dock8
  -GOLD-   2272013263D 1   1.00000     0.00000
 Structure written by MMmdl.
 47 48  0  0  0  0  0  0  0  0  2 V2000
  147.0398  140.6015  153.2624 C   0  0  0  0  0  0  0  0  0  0  0  0
  147.9525  139.5414  153.5023 O   0  0  0  0  0  0  0  0  0  0  0  0
  148.1138  139.1991  154.8766 C   0  0  2  0  0  0  0  0  0  0  0  0
  148.5553  140.4259  155.7043 C   0  0  0  0  0  0  0  0  0  0  0  0
  149.9538  140.9179  155.2959 C   0  0  0  0  0  0  0  0  0  0  0  0
  150.9921  139.7897  155.3947 C   0  0  0  0  0  0  0  0  0  0  0  0
  150.5667  138.5660  154.5683 C   0  0  0  0  0  0  0  0  0  0  0  0
  149.1642  138.0722  154.9827 C   0  0  2  0  0  0  0  0  0  0  0  0
  148.7498  136.9238  154.1807 N   0  0  0  0  0  0  0  0  0  0  0  0
  148.2406  135.7843  154.6682 C   0  0  0  0  0  0  0  0  0  0  0  0
  148.0689  135.5610  155.8667 O   0  0  0  0  0  0  0  0  0  0  0  0
  147.9393  134.9153  153.6944 N   0  0  0  0  0  0  0  0  0  0  0  0
  147.3701  133.5938  153.9218 C   0  0  0  0  0  0  0  0  0  0  0  0
  147.2983  132.7978  152.6117 C   0  0  0  0  0  0  0  0  0  0  0  0
  146.0404  133.1171  151.8178 C   0  0  0  0  0  0  0  0  0  0  0  0
  145.7700  134.4612  151.4746 C   0  0  0  0  0  0  0  0  0  0  0  0
  144.6049  134.7725  150.7463 C   0  0  0  0  0  0  0  0  0  0  0  0
  143.7581  133.7863  150.3831 N   0  3  0  0  0  0  0  0  0  0  0  0
  143.9734  132.4888  150.6888 C   0  0  0  0  0  0  0  0  0  0  0  0
  145.1219  132.1105  151.4189 C   0  0  0  0  0  0  0  0  0  0  0  0
  145.3397  130.6460  151.7550 C   0  0  0  0  0  0  0  0  0  0  0  0
  146.9528  140.7678  152.1889 H   0  0  0  0  0  0  0  0  0  0  0  0
  147.3716  141.5358  153.7138 H   0  0  0  0  0  0  0  0  0  0  0  0
  146.0464  140.3615  153.6430 H   0  0  0  0  0  0  0  0  0  0  0  0
  147.1675  138.8210  155.2681 H   0  0  0  0  0  0  0  0  0  0  0  0
  147.8342  141.2379  155.6183 H   0  0  0  0  0  0  0  0  0  0  0  0
  148.5698  140.1549  156.7607 H   0  0  0  0  0  0  0  0  0  0  0  0
  149.9248  141.3008  154.2749 H   0  0  0  0  0  0  0  0  0  0  0  0
  150.2531  141.7528  155.9298 H   0  0  0  0  0  0  0  0  0  0  0  0
  151.9647  140.1479  155.0560 H   0  0  0  0  0  0  0  0  0  0  0  0
  151.1165  139.4989  156.4386 H   0  0  0  0  0  0  0  0  0  0  0  0
  150.5736  138.8220  153.5079 H   0  0  0  0  0  0  0  0  0  0  0  0
  151.3012  137.7703  154.6970 H   0  0  0  0  0  0  0  0  0  0  0  0
  149.2072  137.7616  156.0288 H   0  0  0  0  0  0  0  0  0  0  0  0
  148.8589  137.0107  153.1808 H   0  0  0  0  0  0  0  0  0  0  0  0
  148.1189  135.1842  152.7380 H   0  0  0  0  0  0  0  0  0  0  0  0
  147.9828  133.0676  154.6549 H   0  0  0  0  0  0  0  0  0  0  0  0
  146.3695  133.6883  154.3480 H   0  0  0  0  0  0  0  0  0  0  0  0
  148.1671  133.0310  151.9943 H   0  0  0  0  0  0  0  0  0  0  0  0
  147.3590  131.7282  152.8131 H   0  0  0  0  0  0  0  0  0  0  0  0
  146.4479  135.2492  151.7698 H   0  0  0  0  0  0  0  0  0  0  0  0
  144.3265  135.7726  150.4471 H   0  0  0  0  0  0  0  0  0  0  0  0
  143.2205  131.7958  150.3416 H   0  0  0  0  0  0  0  0  0  0  0  0
  144.4711  130.0455  151.4826 H   0  0  0  0  0  0  0  0  0  0  0  0
  145.5131  130.5148  152.8232 H   0  0  0  0  0  0  0  0  0  0  0  0
  146.2007  130.2550  151.2123 H   0  0  0  0  0  0  0  0  0  0  0  0
  142.9194  134.0314  149.8561 H   0  0  0  0  0  0  0  0  0  0  0  0
  1  2  1  0  0  0  0
  1 22  1  0  0  0  0
  1 23  1  0  0  0  0
  1 24  1  0  0  0  0
  2  3  1  0  0  0  0
  3  8  1  0  0  0  0
  3  4  1  0  0  0  0
  3 25  1  0  0  0  0
  4  5  1  0  0  0  0
  4 26  1  0  0  0  0
  4 27  1  0  0  0  0
  5  6  1  0  0  0  0
  5 28  1  0  0  0  0
  5 29  1  0  0  0  0
  6  7  1  0  0  0  0
  6 30  1  0  0  0  0
  6 31  1  0  0  0  0
  7  8  1  0  0  0  0
  7 32  1  0  0  0  0
  7 33  1  0  0  0  0
  8  9  1  0  0  0  0
  8 34  1  0  0  0  0
  9 10  1  0  0  0  0
  9 35  1  0  0  0  0
 10 11  2  0  0  0  0
 10 12  1  0  0  0  0
 12 13  1  0  0  0  0
 12 36  1  0  0  0  0
 13 14  1  0  0  0  0
 13 37  1  0  0  0  0
 13 38  1  0  0  0  0
 14 15  1  0  0  0  0
 14 39  1  0  0  0  0
 14 40  1  0  0  0  0
 15 20  1  0  0  0  0
 15 16  2  0  0  0  0
 16 17  1  0  0  0  0
 16 41  1  0  0  0  0
 17 18  2  0  0  0  0
 17 42  1  0  0  0  0
 18 19  1  0  0  0  0
 18 47  1  0  0  0  0
 19 20  2  0  0  0  0
 19 43  1  0  0  0  0
 20 21  1  0  0  0  0
 21 44  1  0  0  0  0
 21 45  1  0  0  0  0
 21 46  1  0  0  0  0
M  CHG  1  18   1
M  END
> <s_m_source_file>
AV-unprocessed.smi

> <i_m_source_file_index>
2442

> <i_lp_mmshare_version>
43012

> <i_f3d_flags>
0

> <s_epik_input>
W0NIM11PW0NAQEhdMVtDSDJdW0NIMl1bQ0gyXVtDSDJdW0NASF0xW05IXUMoPU8pW05IXVtDSDJdW0NIMl1jMltjSF1bY0hdbltjSF1jMltDSDNd

> <s_epik_cmdline>
J2VwaWtfcHl0aG9uJywgJy1waCcsICc3LjAnLCAnLXRuJywgJzgnLCAnLW1hJywgJzIwMCcsICctbWV0YWxfYmluZGluZycsICctaW1hZScsICc8aW5maWxlLm1hZT4nLCAnLW9tYWUnLCAnPG91dGZpbGUubWFlPic=

> <r_epik_Ionization_Penalty>
1.07145

> <r_epik_Ionization_Penalty_Charging>
1.0714

> <r_epik_Ionization_Penalty_Neutral>
4.9109e-05

> <r_epik_State_Penalty>
1.12601

> <r_epik_Charging_Adjusted_Penalty>
2.19741

> <i_epik_Tot_Q>
1

> <i_epik_Tot_abs_Q>
1

> <r_epik_Metal_State_Penalty>
1.2173

> <b_epik_Metal_Only>
0

> <s_lp_Force_Field>
OPLS_2005

> <r_lp_Energy>
16.8817

> <b_lp_Chiralities_Consistent>
1

> <s_lp_Variant>
AV-unprocessed.smi:2442-7

> <Gold.Version>
5.8.1

> <Gold.Id.Protein>
6NUR|6NUR_protein|mol2

> <Gold.PLP.Fitness>
43.8882

> <Gold.PLP.PLP>
-33.1267

> <Gold.PLP.part.hbond>
-2.3518

> <Gold.PLP.part.metal>
0.0000

> <Gold.PLP.part.buried>
-4.0363

> <Gold.PLP.part.nonpolar>
-28.1788

> <Gold.PLP.part.repulsive>
1.8482

> <Gold.PLP.ligand.clash>
0.0000

> <Gold.PLP.ligand.torsion>
0.3429

> <Gold.PLP.Chemscore.Hbond>
3.7920

> <Gold.PLP.Chemscore.CHOScore>
0.0000

> <Gold.PLP.Chemscore.Metal>
0.0000

> <Gold.Chemscore.Hbonds>
donor molecule, donor type, donor heavy atom, donor atom, acceptor molecule, acceptor atom, score
      L1  H     9    35       P1  7948  0.87
      L1  H    12    36       P1  7948  0.86
      L1  H    18    47       P1 10186  2.00

> <Gold.PLP.Chemscore.Internal.Correction>
0.0712

> <Gold.Rescore>
     Score         DG    S(hbond)    S(metal)    S(lipo)     H(rot)  DE(clash)    DE(int)     intcor
     19.66     -20.26       2.83        0.00      83.19       1.72       0.24       0.35       ----

> <Gold.Chemscore.Fitness>
19.6587

> <Gold.Chemscore.DG>
-20.2578

> <Gold.Chemscore.ZeroCoef>
-5.4800

> <Gold.Chemscore.Hbond>
2.8319

> <Gold.Chemscore.Metal>
0.0000

> <Gold.Chemscore.Lipo>
83.1943

> <Gold.Chemscore.Internal_Hbond>
0.0000

> <Gold.Chemscore.DEClash>
0.2450

> <Gold.Chemscore.DEInternal>
0.3541

> <Gold.Chemscore.Rot>
1.7244

> <Gold.Chemscore.Internal.Correction>
   9.000000E+99

> <Gold.Chemscore.Hbonds>
donor molecule, donor type, donor heavy atom, donor atom, acceptor molecule, acceptor atom, score
      L1  H     9    35       P1  7948  0.81
      L1  H    12    36       P1  7948  0.80
      L1  H    18    47       P1 10186  0.97

> <Gold.Chemscore.Hbond.Weighted>
-9.4585

> <Gold.Chemscore.Metal.Weighted>
-0.0000

> <Gold.Chemscore.Lipo.Weighted>
-9.7337

> <Gold.Chemscore.Internal_Hbond.Weighted>
0.0000

> <Gold.Chemscore.DEClash.Weighted>
0.2450

> <Gold.Chemscore.DEInternal.Weighted>
0.3541

> <Gold.Chemscore.Rot.Weighted>
4.4145

> <Gold.Chemscore.Internal.Correction.Weighted>
   9.000000E+99

> <Gold.Protein.RotatedTorsions>
[ 6907 6896 6895 6894 ] final   66.03 input  -60.11 | X-H torsion
[ 7974 7965 7964 7962 ] final -135.35 input  175.53 | X-H torsion
[ 8008 7997 7996 7995 ] final  128.85 input   59.86 | X-H torsion
[ 10167 10162 10161 10158 ] final  -96.26 input  -65.29 | X-H torsion
[ 10718 10713 10712 10709 ] final -140.09 input   66.30 | X-H torsion
[ 10763 10752 10751 10750 ] final -143.97 input  -60.55 | X-H torsion
[ 11005 11000 10999 10996 ] final   39.96 input  -57.11 | X-H torsion

> <Gold.Protein.ActiveResidues>
 VAL166  LYS551  ARG553  GLY616  TRP617  ASP618  TYR619  PRO620  LYS621  CYS622 
 ASP623  PHE694  ASN695  SER759  ASP760  ASP761  ALA762  ILE779  LEU786  VAL792 
 PHE793  MET794  SER795  GLU796  ALA797  LYS798  CYS799  TRP800  GLU811  SER814 

> <Gold.Protein.RotatedAtoms>
  152.4451  134.5511  159.9866 H   0  0  0  0  0  0  0  0  0  0  0  0  # atno 6907 bound_to 6896
  151.5598  133.3399  159.2977 H   0  0  0  0  0  0  0  0  0  0  0  0  # atno 6908 bound_to 6896
  150.8365  134.7673  159.6961 H   0  0  0  0  0  0  0  0  0  0  0  0  # atno 6909 bound_to 6896
  144.9022  140.6786  143.5078 H   0  0  0  0  0  0  0  0  0  0  0  0  # atno 7974 bound_to 7965
  156.2924  140.2635  156.2502 H   0  0  0  0  0  0  0  0  0  0  0  0  # atno 8008 bound_to 7997
  154.9890  140.0389  157.2329 H   0  0  0  0  0  0  0  0  0  0  0  0  # atno 8009 bound_to 7997
  154.7703  140.2777  155.6148 H   0  0  0  0  0  0  0  0  0  0  0  0  # atno 8010 bound_to 7997
  140.2956  143.3194  152.0301 H   0  0  0  0  0  0  0  0  0  0  0  0  # atno 10167 bound_to 10162
  156.3183  130.7520  151.1612 H   0  0  0  0  0  0  0  0  0  0  0  0  # atno 10718 bound_to 10713
  154.8448  135.3453  154.6272 H   0  0  0  0  0  0  0  0  0  0  0  0  # atno 10763 bound_to 10752
  153.6881  135.6976  153.5102 H   0  0  0  0  0  0  0  0  0  0  0  0  # atno 10764 bound_to 10752
  153.2616  135.4321  155.0855 H   0  0  0  0  0  0  0  0  0  0  0  0  # atno 10765 bound_to 10752
  140.1977  134.3908  155.8112 H   0  0  0  0  0  0  0  0  0  0  0  0  # atno 11005 bound_to 11000
  145.3597  139.1685  143.4390 LP  0  0  0  0  0  0  0  0  0  0  0  0  # atno 17320 bound_to 7965
  146.3114  140.3658  142.8669 LP  0  0  0  0  0  0  0  0  0  0  0  0  # atno 17321 bound_to 7965
  139.4927  144.6493  151.6710 LP  0  0  0  0  0  0  0  0  0  0  0  0  # atno 17342 bound_to 10162
  140.5695  144.0133  150.6209 LP  0  0  0  0  0  0  0  0  0  0  0  0  # atno 17343 bound_to 10162
  157.7406  131.0514  150.5153 LP  0  0  0  0  0  0  0  0  0  0  0  0  # atno 17370 bound_to 10713
  156.5302  130.4183  149.6205 LP  0  0  0  0  0  0  0  0  0  0  0  0  # atno 17371 bound_to 10713
  141.2227  133.7078  156.8205 LP  0  0  0  0  0  0  0  0  0  0  0  0  # atno 17394 bound_to 11000
  140.2088  134.8842  157.3252 LP  0  0  0  0  0  0  0  0  0  0  0  0  # atno 17395 bound_to 11000

$$$$
