AV-unprocessed.smi:3230|AV-procd|sdf|12329|dock6
  -GOLD-   2272018183D 1   1.00000     0.00000
 Structure written by MMmdl.
 40 40  0  0  0  0  0  0  0  0  1 V2000
  146.3056  140.3300  154.9435 C   0  0  0  0  0  0  0  0  0  0  0  0
  147.3577  140.5695  156.0371 C   0  0  0  0  0  0  0  0  0  0  0  0
  148.5025  141.5322  155.6273 C   0  0  0  0  0  0  0  0  0  0  0  0
  149.2489  141.0270  154.3662 C   0  0  0  0  0  0  0  0  0  0  0  0
  149.9638  139.6788  154.5425 C   0  0  0  0  0  0  0  0  0  0  0  0
  149.4729  141.8354  156.8039 C   0  0  2  0  0  0  0  0  0  0  0  0
  150.5060  142.6911  156.3538 O   0  0  0  0  0  0  0  0  0  0  0  0
  150.1125  140.5677  157.4154 C   0  0  0  0  0  0  0  0  0  0  0  0
  151.0177  140.8830  158.5159 N   0  0  0  0  0  0  0  0  0  0  0  0
  152.2823  140.4467  158.6268 C   0  0  0  0  0  0  0  0  0  0  0  0
  152.8175  139.7052  157.8024 O   0  0  0  0  0  0  0  0  0  0  0  0
  153.0645  140.9171  159.8539 C   0  0  0  0  0  0  0  0  0  0  0  0
  152.6672  142.3232  160.2123 C   0  0  0  0  0  0  0  0  0  0  0  0
  152.7675  143.4986  159.4170 C   0  0  0  0  0  0  0  0  0  0  0  0
  152.2676  144.4795  160.2249 C   0  0  0  0  0  0  0  0  0  0  0  0
  152.0664  145.9445  160.0395 C   0  0  0  0  0  0  0  0  0  0  0  0
  151.8939  143.9568  161.4212 O   0  0  0  0  0  0  0  0  0  0  0  0
  152.1552  142.5822  161.4056 N   0  0  0  0  0  0  0  0  0  0  0  0
  145.4817  139.7308  155.3314 H   0  0  0  0  0  0  0  0  0  0  0  0
  146.7162  139.7948  154.0881 H   0  0  0  0  0  0  0  0  0  0  0  0
  145.8874  141.2711  154.5853 H   0  0  0  0  0  0  0  0  0  0  0  0
  146.8287  140.9705  156.9006 H   0  0  0  0  0  0  0  0  0  0  0  0
  147.7700  139.6127  156.3596 H   0  0  0  0  0  0  0  0  0  0  0  0
  148.0360  142.4807  155.3567 H   0  0  0  0  0  0  0  0  0  0  0  0
  148.5645  140.9700  153.5193 H   0  0  0  0  0  0  0  0  0  0  0  0
  150.0105  141.7501  154.0791 H   0  0  0  0  0  0  0  0  0  0  0  0
  150.5698  139.4508  153.6656 H   0  0  0  0  0  0  0  0  0  0  0  0
  149.2617  138.8554  154.6690 H   0  0  0  0  0  0  0  0  0  0  0  0
  150.6279  139.6941  155.4071 H   0  0  0  0  0  0  0  0  0  0  0  0
  148.9234  142.3574  157.5857 H   0  0  0  0  0  0  0  0  0  0  0  0
  150.1111  143.4519  155.9559 H   0  0  0  0  0  0  0  0  0  0  0  0
  149.3367  139.8994  157.7929 H   0  0  0  0  0  0  0  0  0  0  0  0
  150.6607  139.9995  156.6635 H   0  0  0  0  0  0  0  0  0  0  0  0
  150.6574  141.4861  159.2415 H   0  0  0  0  0  0  0  0  0  0  0  0
  152.8958  140.2387  160.6917 H   0  0  0  0  0  0  0  0  0  0  0  0
  154.1308  140.8709  159.6303 H   0  0  0  0  0  0  0  0  0  0  0  0
  153.1430  143.6027  158.4099 H   0  0  0  0  0  0  0  0  0  0  0  0
  152.5680  146.2949  159.1374 H   0  0  0  0  0  0  0  0  0  0  0  0
  152.4673  146.5015  160.8865 H   0  0  0  0  0  0  0  0  0  0  0  0
  151.0057  146.1794  159.9500 H   0  0  0  0  0  0  0  0  0  0  0  0
  1  2  1  0  0  0  0
  1 19  1  0  0  0  0
  1 20  1  0  0  0  0
  1 21  1  0  0  0  0
  2  3  1  0  0  0  0
  2 22  1  0  0  0  0
  2 23  1  0  0  0  0
  3  4  1  0  0  0  0
  3  6  1  0  0  0  0
  3 24  1  0  0  0  0
  4  5  1  0  0  0  0
  4 25  1  0  0  0  0
  4 26  1  0  0  0  0
  5 27  1  0  0  0  0
  5 28  1  0  0  0  0
  5 29  1  0  0  0  0
  6  7  1  0  0  0  0
  6  8  1  0  0  0  0
  6 30  1  0  0  0  0
  7 31  1  0  0  0  0
  8  9  1  0  0  0  0
  8 32  1  0  0  0  0
  8 33  1  0  0  0  0
  9 10  1  0  0  0  0
  9 34  1  0  0  0  0
 10 11  2  0  0  0  0
 10 12  1  0  0  0  0
 12 13  1  0  0  0  0
 12 35  1  0  0  0  0
 12 36  1  0  0  0  0
 13 18  2  0  0  0  0
 13 14  1  0  0  0  0
 14 15  2  0  0  0  0
 14 37  1  0  0  0  0
 15 16  1  0  0  0  0
 15 17  1  0  0  0  0
 16 38  1  0  0  0  0
 16 39  1  0  0  0  0
 16 40  1  0  0  0  0
 17 18  1  0  0  0  0
M  END
> <s_m_source_file>
AV-unprocessed.smi

> <i_m_source_file_index>
3230

> <i_lp_mmshare_version>
43012

> <i_f3d_flags>
0

> <s_epik_input>
W0NIM11bQ0gyXVtDSF0oW0NIMl1bQ0gzXSlbQ0BIXShbT0hdKVtDSDJdW05IXUMoPU8pW0NIMl1jMVtjSF1jKFtDSDNdKW9uMQ==

> <s_epik_cmdline>
J2VwaWtfcHl0aG9uJywgJy1waCcsICc3LjAnLCAnLXRuJywgJzgnLCAnLW1hJywgJzIwMCcsICctbWV0YWxfYmluZGluZycsICctaW1hZScsICc8aW5maWxlLm1hZT4nLCAnLW9tYWUnLCAnPG91dGZpbGUubWFlPic=

> <r_lp_tautomer_probability>
1

> <r_epik_Ionization_Penalty>
2.40054e-07

> <r_epik_Ionization_Penalty_Charging>
0

> <r_epik_Ionization_Penalty_Neutral>
2.40054e-07

> <r_epik_State_Penalty>
-0

> <r_epik_Charging_Adjusted_Penalty>
0

> <i_epik_Tot_Q>
0

> <i_epik_Tot_abs_Q>
0

> <r_epik_Metal_State_Penalty>
-0

> <b_epik_Metal_Only>
0

> <s_lp_Force_Field>
OPLS_2005

> <r_lp_Energy>
9.05643

> <b_lp_Chiralities_Consistent>
1

> <s_lp_Variant>
AV-unprocessed.smi:3230-1

> <Gold.Version>
5.8.1

> <Gold.Id.Protein>
6NUR|6NUR_protein|mol2

> <Gold.PLP.Fitness>
42.1513

> <Gold.PLP.PLP>
-36.3826

> <Gold.PLP.part.hbond>
-2.7317

> <Gold.PLP.part.metal>
0.0000

> <Gold.PLP.part.buried>
-5.3518

> <Gold.PLP.part.nonpolar>
-28.5909

> <Gold.PLP.part.repulsive>
0.4136

> <Gold.PLP.ligand.clash>
0.0000

> <Gold.PLP.ligand.torsion>
0.4408

> <Gold.PLP.Chemscore.Hbond>
2.1359

> <Gold.PLP.Chemscore.CHOScore>
0.0000

> <Gold.PLP.Chemscore.Metal>
0.0000

> <Gold.Chemscore.Hbonds>
donor molecule, donor type, donor heavy atom, donor atom, acceptor molecule, acceptor atom, score
      L1  H     7    31       P1  8028  1.00
      P1  H  6933  6945       L1    18  0.03
      P1  H  7997  8009       L1    11  1.00

> <Gold.PLP.Chemscore.Internal.Correction>
0.2426

> <Gold.Rescore>
     Score         DG    S(hbond)    S(metal)    S(lipo)     H(rot)  DE(clash)    DE(int)     intcor
     15.21     -15.72       2.00        0.00      86.77       2.57       0.01       0.50       ----

> <Gold.Chemscore.Fitness>
15.2123

> <Gold.Chemscore.DG>
-15.7178

> <Gold.Chemscore.ZeroCoef>
-5.4800

> <Gold.Chemscore.Hbond>
1.9966

> <Gold.Chemscore.Metal>
0.0000

> <Gold.Chemscore.Lipo>
86.7718

> <Gold.Chemscore.Internal_Hbond>
0.0000

> <Gold.Chemscore.DEClash>
0.0098

> <Gold.Chemscore.DEInternal>
0.4957

> <Gold.Chemscore.Rot>
2.5715

> <Gold.Chemscore.Internal.Correction>
   9.000000E+99

> <Gold.Chemscore.Hbonds>
donor molecule, donor type, donor heavy atom, donor atom, acceptor molecule, acceptor atom, score
      L1  H     7    31       P1  8028  0.99
      P1  H  6933  6945       L1    18  0.02
      P1  H  7997  8009       L1    11  0.98

> <Gold.Chemscore.Hbond.Weighted>
-6.6686

> <Gold.Chemscore.Metal.Weighted>
-0.0000

> <Gold.Chemscore.Lipo.Weighted>
-10.1523

> <Gold.Chemscore.Internal_Hbond.Weighted>
0.0000

> <Gold.Chemscore.DEClash.Weighted>
0.0098

> <Gold.Chemscore.DEInternal.Weighted>
0.4957

> <Gold.Chemscore.Rot.Weighted>
6.5831

> <Gold.Chemscore.Internal.Correction.Weighted>
   9.000000E+99

> <Gold.Protein.RotatedTorsions>
[ 6907 6896 6895 6894 ] final  -35.68 input  -60.11 | X-H torsion
[ 7974 7965 7964 7962 ] final  117.87 input  175.53 | X-H torsion
[ 8008 7997 7996 7995 ] final  158.44 input   59.86 | X-H torsion
[ 10167 10162 10161 10158 ] final -136.90 input  -65.29 | X-H torsion
[ 10718 10713 10712 10709 ] final  167.02 input   66.30 | X-H torsion
[ 10763 10752 10751 10750 ] final   85.44 input  -60.55 | X-H torsion
[ 11005 11000 10999 10996 ] final   43.55 input  -57.11 | X-H torsion

> <Gold.Protein.ActiveResidues>
 VAL166  LYS551  ARG553  GLY616  TRP617  ASP618  TYR619  PRO620  LYS621  CYS622 
 ASP623  PHE694  ASN695  SER759  ASP760  ASP761  ALA762  ILE779  LEU786  VAL792 
 PHE793  MET794  SER795  GLU796  ALA797  LYS798  CYS799  TRP800  GLU811  SER814 

> <Gold.Protein.RotatedAtoms>
  151.0367  134.9578  159.8139 H   0  0  0  0  0  0  0  0  0  0  0  0  # atno 6907 bound_to 6896
  152.5356  134.2711  159.8982 H   0  0  0  0  0  0  0  0  0  0  0  0  # atno 6908 bound_to 6896
  151.2722  133.4207  159.2656 H   0  0  0  0  0  0  0  0  0  0  0  0  # atno 6909 bound_to 6896
  145.1621  139.3149  143.4511 H   0  0  0  0  0  0  0  0  0  0  0  0  # atno 7974 bound_to 7965
  156.2302  140.1858  156.7261 H   0  0  0  0  0  0  0  0  0  0  0  0  # atno 8008 bound_to 7997
  154.6010  140.0636  156.9396 H   0  0  0  0  0  0  0  0  0  0  0  0  # atno 8009 bound_to 7997
  155.2175  140.3305  155.4322 H   0  0  0  0  0  0  0  0  0  0  0  0  # atno 8010 bound_to 7997
  139.8631  143.7052  152.2648 H   0  0  0  0  0  0  0  0  0  0  0  0  # atno 10167 bound_to 10162
  157.0575  131.0330  151.2659 H   0  0  0  0  0  0  0  0  0  0  0  0  # atno 10718 bound_to 10713
  153.1475  135.4617  154.9588 H   0  0  0  0  0  0  0  0  0  0  0  0  # atno 10763 bound_to 10752
  154.7798  135.3185  154.8016 H   0  0  0  0  0  0  0  0  0  0  0  0  # atno 10764 bound_to 10752
  153.8527  135.6920  153.4845 H   0  0  0  0  0  0  0  0  0  0  0  0  # atno 10765 bound_to 10752
  140.1635  134.4312  155.8302 H   0  0  0  0  0  0  0  0  0  0  0  0  # atno 11005 bound_to 11000
  146.3481  140.1736  142.8589 LP  0  0  0  0  0  0  0  0  0  0  0  0  # atno 17320 bound_to 7965
  145.0320  140.8878  143.5104 LP  0  0  0  0  0  0  0  0  0  0  0  0  # atno 17321 bound_to 7965
  139.7355  144.7572  151.0735 LP  0  0  0  0  0  0  0  0  0  0  0  0  # atno 17342 bound_to 10162
  140.7772  143.5036  150.9740 LP  0  0  0  0  0  0  0  0  0  0  0  0  # atno 17343 bound_to 10162
  157.4981  130.7863  149.7576 LP  0  0  0  0  0  0  0  0  0  0  0  0  # atno 17370 bound_to 10713
  155.9988  130.3892  150.2686 LP  0  0  0  0  0  0  0  0  0  0  0  0  # atno 17371 bound_to 10713
  141.2211  133.6924  156.7636 LP  0  0  0  0  0  0  0  0  0  0  0  0  # atno 17394 bound_to 11000
  140.2462  134.8576  157.3622 LP  0  0  0  0  0  0  0  0  0  0  0  0  # atno 17395 bound_to 11000

$$$$
