AV-unprocessed.smi:1815|AV-procd|sdf|7357|dock2
  -GOLD-   22720 9 13D 1   1.00000     0.00000
 Structure written by MMmdl.
 38 39  0  0  0  0  0  0  0  0  2 V2000
  151.6919  138.0340  154.3952 C   0  0  0  0  0  0  0  0  0  0  0  0
  150.4710  138.8797  154.7722 C   0  0  2  0  0  0  0  0  0  0  0  0
  149.2924  138.6565  153.8078 C   0  0  0  0  0  0  0  0  0  0  0  0
  148.1631  139.5220  154.1190 N   0  0  0  0  0  0  0  0  0  0  0  0
  147.0367  139.2602  153.2224 C   0  0  0  0  0  0  0  0  0  0  0  0
  146.1728  138.0353  153.5833 C   0  0  0  0  0  0  0  0  0  0  0  0
  146.4565  136.8920  152.7207 N   0  0  0  0  0  0  0  0  0  0  0  0
  145.5513  136.1931  152.0214 C   0  0  0  0  0  0  0  0  0  0  0  0
  144.3574  136.4961  152.0851 O   0  0  0  0  0  0  0  0  0  0  0  0
  146.0850  135.1876  151.2907 N   0  5  0  0  0  0  0  0  0  0  0  0
  145.3221  134.1434  150.9291 C   0  0  0  0  0  0  0  0  0  0  0  0
  145.7792  133.1299  150.1849 N   0  0  0  0  0  0  0  0  0  0  0  0
  144.8162  132.1534  149.9246 C   0  0  0  0  0  0  0  0  0  0  0  0
  143.5942  132.4345  150.4755 C   0  0  0  0  0  0  0  0  0  0  0  0
  143.6167  133.9435  151.3427 S   0  0  0  0  0  0  0  0  0  0  0  0
  148.6026  140.9143  154.0781 C   0  0  0  0  0  0  0  0  0  0  0  0
  149.8060  141.1855  155.0030 C   0  0  1  0  0  0  0  0  0  0  0  0
  149.4302  141.2167  156.4942 C   0  0  0  0  0  0  0  0  0  0  0  0
  150.8558  140.2530  154.7392 O   0  0  0  0  0  0  0  0  0  0  0  0
  151.4548  136.9702  154.4188 H   0  0  0  0  0  0  0  0  0  0  0  0
  152.5141  138.2065  155.0899 H   0  0  0  0  0  0  0  0  0  0  0  0
  152.0455  138.2767  153.3928 H   0  0  0  0  0  0  0  0  0  0  0  0
  150.1682  138.6122  155.7851 H   0  0  0  0  0  0  0  0  0  0  0  0
  149.6201  138.8325  152.7819 H   0  0  0  0  0  0  0  0  0  0  0  0
  148.9804  137.6127  153.8603 H   0  0  0  0  0  0  0  0  0  0  0  0
  146.3992  140.1438  153.1692 H   0  0  0  0  0  0  0  0  0  0  0  0
  147.4174  139.1124  152.2108 H   0  0  0  0  0  0  0  0  0  0  0  0
  146.3316  137.7359  154.6186 H   0  0  0  0  0  0  0  0  0  0  0  0
  145.1159  138.2957  153.5111 H   0  0  0  0  0  0  0  0  0  0  0  0
  147.4229  136.6133  152.6360 H   0  0  0  0  0  0  0  0  0  0  0  0
  145.0882  131.2901  149.3358 H   0  0  0  0  0  0  0  0  0  0  0  0
  142.6876  131.8509  150.4240 H   0  0  0  0  0  0  0  0  0  0  0  0
  148.8778  141.1757  153.0552 H   0  0  0  0  0  0  0  0  0  0  0  0
  147.7873  141.5806  154.3578 H   0  0  0  0  0  0  0  0  0  0  0  0
  150.2025  142.1705  154.7552 H   0  0  0  0  0  0  0  0  0  0  0  0
  148.7098  142.0100  156.6945 H   0  0  0  0  0  0  0  0  0  0  0  0
  150.3079  141.4031  157.1131 H   0  0  0  0  0  0  0  0  0  0  0  0
  148.9805  140.2802  156.8236 H   0  0  0  0  0  0  0  0  0  0  0  0
  1  2  1  0  0  0  0
  1 20  1  0  0  0  0
  1 21  1  0  0  0  0
  1 22  1  0  0  0  0
  2 19  1  0  0  0  0
  2  3  1  0  0  0  0
  2 23  1  0  0  0  0
  3  4  1  0  0  0  0
  3 24  1  0  0  0  0
  3 25  1  0  0  0  0
  4  5  1  0  0  0  0
  4 16  1  0  0  0  0
  5  6  1  0  0  0  0
  5 26  1  0  0  0  0
  5 27  1  0  0  0  0
  6  7  1  0  0  0  0
  6 28  1  0  0  0  0
  6 29  1  0  0  0  0
  7  8  1  0  0  0  0
  7 30  1  0  0  0  0
  8  9  2  0  0  0  0
  8 10  1  0  0  0  0
 10 11  1  0  0  0  0
 11 15  1  0  0  0  0
 11 12  2  0  0  0  0
 12 13  1  0  0  0  0
 13 14  2  0  0  0  0
 13 31  1  0  0  0  0
 14 15  1  0  0  0  0
 14 32  1  0  0  0  0
 16 17  1  0  0  0  0
 16 33  1  0  0  0  0
 16 34  1  0  0  0  0
 17 18  1  0  0  0  0
 17 19  1  0  0  0  0
 17 35  1  0  0  0  0
 18 36  1  0  0  0  0
 18 37  1  0  0  0  0
 18 38  1  0  0  0  0
M  CHG  1  10  -1
M  END
> <s_m_source_file>
AV-unprocessed.smi

> <i_m_source_file_index>
1815

> <i_lp_mmshare_version>
43012

> <i_f3d_flags>
0

> <s_epik_input>
W0NIM11bQ0BASF0xW0NIMl1OKFtDSDJdW0NASF0oTzEpW0NIM10pW0NIMl1bQ0gyXVtOSF1DKD1PKVtOSF1jMm5bY0hdW2NIXXMy

> <s_epik_cmdline>
J2VwaWtfcHl0aG9uJywgJy1waCcsICc3LjAnLCAnLXRuJywgJzgnLCAnLW1hJywgJzIwMCcsICctbWV0YWxfYmluZGluZycsICctaW1hZScsICc8aW5maWxlLm1hZT4nLCAnLW9tYWUnLCAnPG91dGZpbGUubWFlPic=

> <r_lp_tautomer_probability>
0.999

> <r_epik_Ionization_Penalty>
7.22374

> <r_epik_Ionization_Penalty_Charging>
5.82415

> <r_epik_Ionization_Penalty_Neutral>
1.39959

> <r_epik_State_Penalty>
6.03347

> <r_epik_Charging_Adjusted_Penalty>
11.8576

> <i_epik_Tot_Q>
-1

> <i_epik_Tot_abs_Q>
1

> <r_epik_Metal_State_Penalty>
2.01024

> <b_epik_Metal_Only>
1

> <s_lp_Force_Field>
OPLS_2005

> <r_lp_Energy>
21.2187

> <b_lp_Chiralities_Consistent>
1

> <s_lp_Variant>
AV-unprocessed.smi:1815-8

> <Gold.Version>
5.8.1

> <Gold.Id.Protein>
6NUR|6NUR_protein|mol2

> <Gold.PLP.Fitness>
40.3761

> <Gold.PLP.PLP>
-32.6182

> <Gold.PLP.part.hbond>
-2.0000

> <Gold.PLP.part.metal>
0.0000

> <Gold.PLP.part.buried>
-2.9391

> <Gold.PLP.part.nonpolar>
-28.2377

> <Gold.PLP.part.repulsive>
0.8229

> <Gold.PLP.ligand.clash>
0.0000

> <Gold.PLP.ligand.torsion>
0.6643

> <Gold.PLP.Chemscore.Hbond>
2.0000

> <Gold.PLP.Chemscore.CHOScore>
1.0000

> <Gold.PLP.Chemscore.Metal>
0.0000

> <Gold.Chemscore.Hbonds>
donor molecule, donor type, donor heavy atom, donor atom, acceptor molecule, acceptor atom, score
      L1  H     7    30       P1  7948  1.00
      P1  H  7989  7998       L1    19  1.00
      L1  C    14    32       P1 10952  0.98

> <Gold.PLP.Chemscore.Internal.Correction>
0.0865

> <Gold.Rescore>
     Score         DG    S(hbond)    S(metal)    S(lipo)     H(rot)  DE(clash)    DE(int)     intcor
     14.11     -16.36       1.78        0.00      76.51       1.57       0.10       2.14       ----

> <Gold.Chemscore.Fitness>
14.1082

> <Gold.Chemscore.DG>
-16.3562

> <Gold.Chemscore.ZeroCoef>
-5.4800

> <Gold.Chemscore.Hbond>
1.7778

> <Gold.Chemscore.Metal>
0.0000

> <Gold.Chemscore.Lipo>
76.5082

> <Gold.Chemscore.Internal_Hbond>
0.0000

> <Gold.Chemscore.DEClash>
0.1038

> <Gold.Chemscore.DEInternal>
2.1442

> <Gold.Chemscore.Rot>
1.5676

> <Gold.Chemscore.Internal.Correction>
   9.000000E+99

> <Gold.Chemscore.Hbonds>
donor molecule, donor type, donor heavy atom, donor atom, acceptor molecule, acceptor atom, score
      L1  H     7    30       P1  7948  0.99
      P1  H  7989  7998       L1    19  0.43

> <Gold.Chemscore.Hbond.Weighted>
-5.9378

> <Gold.Chemscore.Metal.Weighted>
-0.0000

> <Gold.Chemscore.Lipo.Weighted>
-8.9515

> <Gold.Chemscore.Internal_Hbond.Weighted>
0.0000

> <Gold.Chemscore.DEClash.Weighted>
0.1038

> <Gold.Chemscore.DEInternal.Weighted>
2.1442

> <Gold.Chemscore.Rot.Weighted>
4.0130

> <Gold.Chemscore.Internal.Correction.Weighted>
   9.000000E+99

> <Gold.Protein.RotatedTorsions>
[ 6907 6896 6895 6894 ] final  -91.63 input  -60.11 | X-H torsion
[ 7974 7965 7964 7962 ] final  -45.41 input  175.53 | X-H torsion
[ 8008 7997 7996 7995 ] final  122.43 input   59.86 | X-H torsion
[ 10167 10162 10161 10158 ] final    1.66 input  -65.29 | X-H torsion
[ 10718 10713 10712 10709 ] final   36.42 input   66.30 | X-H torsion
[ 10763 10752 10751 10750 ] final   37.49 input  -60.55 | X-H torsion
[ 11005 11000 10999 10996 ] final  -58.00 input  -57.11 | X-H torsion

> <Gold.Protein.ActiveResidues>
 VAL166  LYS551  ARG553  GLY616  TRP617  ASP618  TYR619  PRO620  LYS621  CYS622 
 ASP623  PHE694  ASN695  SER759  ASP760  ASP761  ALA762  ILE779  LEU786  VAL792 
 PHE793  MET794  SER795  GLU796  ALA797  LYS798  CYS799  TRP800  GLU811  SER814 

> <Gold.Protein.RotatedAtoms>
  150.6895  134.2247  159.4410 H   0  0  0  0  0  0  0  0  0  0  0  0  # atno 6907 bound_to 6896
  152.0202  134.9825  160.0579 H   0  0  0  0  0  0  0  0  0  0  0  0  # atno 6908 bound_to 6896
  152.1405  133.4426  159.4801 H   0  0  0  0  0  0  0  0  0  0  0  0  # atno 6909 bound_to 6896
  145.9824  140.7270  142.9357 H   0  0  0  0  0  0  0  0  0  0  0  0  # atno 7974 bound_to 7965
  156.2727  140.2786  156.1467 H   0  0  0  0  0  0  0  0  0  0  0  0  # atno 8008 bound_to 7997
  155.0897  140.0388  157.2682 H   0  0  0  0  0  0  0  0  0  0  0  0  # atno 8009 bound_to 7997
  154.6899  140.2627  155.6829 H   0  0  0  0  0  0  0  0  0  0  0  0  # atno 8010 bound_to 7997
  140.6672  143.7147  150.7850 H   0  0  0  0  0  0  0  0  0  0  0  0  # atno 10167 bound_to 10162
  157.3346  130.7516  149.6870 H   0  0  0  0  0  0  0  0  0  0  0  0  # atno 10718 bound_to 10713
  153.0035  135.6276  154.2154 H   0  0  0  0  0  0  0  0  0  0  0  0  # atno 10763 bound_to 10752
  154.1897  135.2809  155.3027 H   0  0  0  0  0  0  0  0  0  0  0  0  # atno 10764 bound_to 10752
  154.5769  135.5659  153.7208 H   0  0  0  0  0  0  0  0  0  0  0  0  # atno 10765 bound_to 10752
  141.1189  133.6611  156.4854 H   0  0  0  0  0  0  0  0  0  0  0  0  # atno 11005 bound_to 11000
  144.6865  140.2930  143.7275 LP  0  0  0  0  0  0  0  0  0  0  0  0  # atno 17320 bound_to 7965
  145.7750  139.1871  143.2190 LP  0  0  0  0  0  0  0  0  0  0  0  0  # atno 17321 bound_to 7965
  140.0826  143.4954  152.2522 LP  0  0  0  0  0  0  0  0  0  0  0  0  # atno 17342 bound_to 10162
  139.5925  144.7555  151.3365 LP  0  0  0  0  0  0  0  0  0  0  0  0  # atno 17343 bound_to 10162
  155.9700  130.4185  150.4331 LP  0  0  0  0  0  0  0  0  0  0  0  0  # atno 17370 bound_to 10713
  157.2369  131.0517  151.2459 LP  0  0  0  0  0  0  0  0  0  0  0  0  # atno 17371 bound_to 10713
  140.4566  134.6879  157.5065 LP  0  0  0  0  0  0  0  0  0  0  0  0  # atno 17394 bound_to 11000
  140.0130  134.6661  155.9351 LP  0  0  0  0  0  0  0  0  0  0  0  0  # atno 17395 bound_to 11000

$$$$
