AV-unprocessed.smi:489|AV-procd|sdf|2702|dock9
  -GOLD-   2262023143D 1   1.00000     0.00000
 Structure written by MMmdl.
 42 43  0  0  0  0  0  0  0  0  1 V2000
  148.9769  138.6269  154.9671 C   0  0  0  0  0  0  0  0  0  0  0  0
  149.0255  137.4409  155.8924 C   0  0  0  0  0  0  0  0  0  0  0  0
  149.4285  136.3235  155.3830 N   0  0  0  0  0  0  0  0  0  0  0  0
  149.5135  135.1742  156.1450 N   0  0  0  0  0  0  0  0  0  0  0  0
  150.0067  134.0015  155.4081 C   0  0  0  0  0  0  0  0  0  0  0  0
  148.8731  133.1988  154.7531 C   0  0  0  0  0  0  0  0  0  0  0  0
  148.5640  132.0992  155.2192 O   0  0  0  0  0  0  0  0  0  0  0  0
  148.2962  133.7928  153.6832 N   0  0  0  0  0  0  0  0  0  0  0  0
  147.2627  133.4047  152.8993 C   0  0  0  0  0  0  0  0  0  0  0  0
  146.7338  132.3060  153.0605 O   0  0  0  0  0  0  0  0  0  0  0  0
  146.8593  134.2640  151.9443 N   0  0  0  0  0  0  0  0  0  0  0  0
  145.8515  133.9846  150.9255 C   0  0  0  0  0  0  0  0  0  0  0  0
  144.4757  133.6614  151.5470 C   0  0  0  0  0  0  0  0  0  0  0  0
  144.0001  132.3701  150.8798 C   0  0  0  0  0  0  0  0  0  0  0  0
  145.2880  131.6334  150.5264 C   0  0  0  0  0  0  0  0  0  0  0  0
  146.2485  132.7452  150.1026 C   0  0  0  0  0  0  0  0  0  0  0  0
  149.1714  135.0898  157.4632 C   0  0  0  0  0  0  0  0  0  0  0  0
  149.2413  134.0369  158.0992 O   0  0  0  0  0  0  0  0  0  0  0  0
  148.7231  136.3612  158.0358 C   0  0  0  0  0  0  0  0  0  0  0  0
  148.3751  136.3215  159.4194 C   0  0  0  0  0  0  0  0  0  0  0  0
  148.0792  136.3057  160.5386 N   0  0  0  0  0  0  0  0  0  0  0  0
  148.6466  137.4987  157.3006 C   0  0  0  0  0  0  0  0  0  0  0  0
  148.1868  138.8433  157.8473 C   0  0  0  0  0  0  0  0  0  0  0  0
  147.9526  138.9800  154.8461 H   0  0  0  0  0  0  0  0  0  0  0  0
  149.3613  138.3853  153.9751 H   0  0  0  0  0  0  0  0  0  0  0  0
  149.5748  139.4497  155.3589 H   0  0  0  0  0  0  0  0  0  0  0  0
  150.7316  134.3174  154.6551 H   0  0  0  0  0  0  0  0  0  0  0  0
  150.5512  133.3310  156.0753 H   0  0  0  0  0  0  0  0  0  0  0  0
  148.7024  134.6804  153.4252 H   0  0  0  0  0  0  0  0  0  0  0  0
  147.2874  135.1788  151.9226 H   0  0  0  0  0  0  0  0  0  0  0  0
  145.7730  134.8433  150.2562 H   0  0  0  0  0  0  0  0  0  0  0  0
  144.5683  133.4905  152.6207 H   0  0  0  0  0  0  0  0  0  0  0  0
  143.7633  134.4758  151.4124 H   0  0  0  0  0  0  0  0  0  0  0  0
  143.3416  131.7842  151.5216 H   0  0  0  0  0  0  0  0  0  0  0  0
  143.4517  132.6080  149.9673 H   0  0  0  0  0  0  0  0  0  0  0  0
  145.6771  131.1277  151.4112 H   0  0  0  0  0  0  0  0  0  0  0  0
  145.1440  130.8831  149.7485 H   0  0  0  0  0  0  0  0  0  0  0  0
  146.1033  132.9578  149.0424 H   0  0  0  0  0  0  0  0  0  0  0  0
  147.2926  132.4554  150.2300 H   0  0  0  0  0  0  0  0  0  0  0  0
  147.8584  138.7773  158.8839 H   0  0  0  0  0  0  0  0  0  0  0  0
  147.3494  139.2300  157.2658 H   0  0  0  0  0  0  0  0  0  0  0  0
  148.9997  139.5687  157.8049 H   0  0  0  0  0  0  0  0  0  0  0  0
  1  2  1  0  0  0  0
  1 24  1  0  0  0  0
  1 25  1  0  0  0  0
  1 26  1  0  0  0  0
  2 22  1  0  0  0  0
  2  3  2  0  0  0  0
  3  4  1  0  0  0  0
  4  5  1  0  0  0  0
  4 17  1  0  0  0  0
  5  6  1  0  0  0  0
  5 27  1  0  0  0  0
  5 28  1  0  0  0  0
  6  7  2  0  0  0  0
  6  8  1  0  0  0  0
  8  9  1  0  0  0  0
  8 29  1  0  0  0  0
  9 10  2  0  0  0  0
  9 11  1  0  0  0  0
 11 12  1  0  0  0  0
 11 30  1  0  0  0  0
 12 16  1  0  0  0  0
 12 13  1  0  0  0  0
 12 31  1  0  0  0  0
 13 14  1  0  0  0  0
 13 32  1  0  0  0  0
 13 33  1  0  0  0  0
 14 15  1  0  0  0  0
 14 34  1  0  0  0  0
 14 35  1  0  0  0  0
 15 16  1  0  0  0  0
 15 36  1  0  0  0  0
 15 37  1  0  0  0  0
 16 38  1  0  0  0  0
 16 39  1  0  0  0  0
 17 18  2  0  0  0  0
 17 19  1  0  0  0  0
 19 20  1  0  0  0  0
 19 22  2  0  0  0  0
 20 21  3  0  0  0  0
 22 23  1  0  0  0  0
 23 40  1  0  0  0  0
 23 41  1  0  0  0  0
 23 42  1  0  0  0  0
M  END
> <s_m_source_file>
AV-unprocessed.smi

> <i_m_source_file_index>
489

> <i_lp_mmshare_version>
43012

> <i_f3d_flags>
0

> <s_epik_input>
TiNDYyhjMVtDSDNdKWMoPU8pbihuYzFbQ0gzXSlbQ0gyXUMoPU8pW05IXUMoPU8pW05IXVtDSF0yW0NIMl1bQ0gyXVtDSDJdW0NIMl0y

> <s_epik_cmdline>
J2VwaWtfcHl0aG9uJywgJy1waCcsICc3LjAnLCAnLXRuJywgJzgnLCAnLW1hJywgJzIwMCcsICctbWV0YWxfYmluZGluZycsICctaW1hZScsICc8aW5maWxlLm1hZT4nLCAnLW9tYWUnLCAnPG91dGZpbGUubWFlPic=

> <r_lp_tautomer_probability>
1

> <r_epik_Ionization_Penalty>
3.28905e-05

> <r_epik_Ionization_Penalty_Charging>
1.69167e-11

> <r_epik_Ionization_Penalty_Neutral>
3.28905e-05

> <r_epik_State_Penalty>
-0

> <r_epik_Charging_Adjusted_Penalty>
1.69167e-11

> <i_epik_Tot_Q>
0

> <i_epik_Tot_abs_Q>
0

> <r_epik_Metal_State_Penalty>
-0

> <b_epik_Metal_Only>
0

> <s_lp_Force_Field>
OPLS_2005

> <r_lp_Energy>
37.6869

> <b_lp_Chiralities_Consistent>
1

> <s_lp_Variant>
AV-unprocessed.smi:489-1

> <Gold.Version>
5.8.1

> <Gold.Id.Protein>
6NUR|6NUR_protein|mol2

> <Gold.PLP.Fitness>
42.3592

> <Gold.PLP.PLP>
-32.0449

> <Gold.PLP.part.hbond>
-5.0000

> <Gold.PLP.part.metal>
0.0000

> <Gold.PLP.part.buried>
-6.1450

> <Gold.PLP.part.nonpolar>
-21.7985

> <Gold.PLP.part.repulsive>
0.3052

> <Gold.PLP.ligand.clash>
0.0000

> <Gold.PLP.ligand.torsion>
0.5224

> <Gold.PLP.Chemscore.Hbond>
3.7817

> <Gold.PLP.Chemscore.CHOScore>
0.0000

> <Gold.PLP.Chemscore.Metal>
0.0000

> <Gold.Chemscore.Hbonds>
donor molecule, donor type, donor heavy atom, donor atom, acceptor molecule, acceptor atom, score
      L1  H     8    29       P1  7948  0.59
      L1  H    11    30       P1  7948  0.93
      P1  H  6896  6908       L1    18  1.00

> <Gold.PLP.Chemscore.Internal.Correction>
0.0139

> <Gold.Rescore>
     Score         DG    S(hbond)    S(metal)    S(lipo)     H(rot)  DE(clash)    DE(int)     intcor
     16.19     -20.05       3.72        0.00      53.53       1.61       0.07       3.79       ----

> <Gold.Chemscore.Fitness>
16.1886

> <Gold.Chemscore.DG>
-20.0507

> <Gold.Chemscore.ZeroCoef>
-5.4800

> <Gold.Chemscore.Hbond>
3.7232

> <Gold.Chemscore.Metal>
0.0000

> <Gold.Chemscore.Lipo>
53.5263

> <Gold.Chemscore.Internal_Hbond>
0.0000

> <Gold.Chemscore.DEClash>
0.0727

> <Gold.Chemscore.DEInternal>
3.7894

> <Gold.Chemscore.Rot>
1.6122

> <Gold.Chemscore.Internal.Correction>
   9.000000E+99

> <Gold.Chemscore.Hbonds>
donor molecule, donor type, donor heavy atom, donor atom, acceptor molecule, acceptor atom, score
      L1  H     8    29       P1  7948  0.23
      L1  H    11    30       P1  7948  0.87
      P1  H  6896  6908       L1    18  0.78

> <Gold.Chemscore.Hbond.Weighted>
-12.4354

> <Gold.Chemscore.Metal.Weighted>
-0.0000

> <Gold.Chemscore.Lipo.Weighted>
-6.2626

> <Gold.Chemscore.Internal_Hbond.Weighted>
0.0000

> <Gold.Chemscore.DEClash.Weighted>
0.0727

> <Gold.Chemscore.DEInternal.Weighted>
3.7894

> <Gold.Chemscore.Rot.Weighted>
4.1272

> <Gold.Chemscore.Internal.Correction.Weighted>
   9.000000E+99

> <Gold.Protein.RotatedTorsions>
[ 6907 6896 6895 6894 ] final  139.37 input  -60.11 | X-H torsion
[ 7974 7965 7964 7962 ] final   84.10 input  175.53 | X-H torsion
[ 8008 7997 7996 7995 ] final  -93.11 input   59.86 | X-H torsion
[ 10167 10162 10161 10158 ] final  154.80 input  -65.29 | X-H torsion
[ 10718 10713 10712 10709 ] final   85.38 input   66.30 | X-H torsion
[ 10763 10752 10751 10750 ] final -176.04 input  -60.55 | X-H torsion
[ 11005 11000 10999 10996 ] final   50.24 input  -57.11 | X-H torsion

> <Gold.Protein.ActiveResidues>
 VAL166  LYS551  ARG553  GLY616  TRP617  ASP618  TYR619  PRO620  LYS621  CYS622 
 ASP623  PHE694  ASN695  SER759  ASP760  ASP761  ALA762  ILE779  LEU786  VAL792 
 PHE793  MET794  SER795  GLU796  ALA797  LYS798  CYS799  TRP800  GLU811  SER814 

> <Gold.Protein.RotatedAtoms>
  152.2557  133.5253  159.5351 H   0  0  0  0  0  0  0  0  0  0  0  0  # atno 6907 bound_to 6896
  150.7108  134.0899  159.3937 H   0  0  0  0  0  0  0  0  0  0  0  0  # atno 6908 bound_to 6896
  151.8818  135.0451  160.0540 H   0  0  0  0  0  0  0  0  0  0  0  0  # atno 6909 bound_to 6896
  145.6031  139.2355  143.2234 H   0  0  0  0  0  0  0  0  0  0  0  0  # atno 7974 bound_to 7965
  154.7315  140.0502  157.0730 H   0  0  0  0  0  0  0  0  0  0  0  0  # atno 8008 bound_to 7997
  155.0296  140.3156  155.4744 H   0  0  0  0  0  0  0  0  0  0  0  0  # atno 8009 bound_to 7997
  156.2842  140.2152  156.5416 H   0  0  0  0  0  0  0  0  0  0  0  0  # atno 8010 bound_to 7997
  139.4822  144.5155  151.7958 H   0  0  0  0  0  0  0  0  0  0  0  0  # atno 10167 bound_to 10162
  157.6913  131.0172  150.2813 H   0  0  0  0  0  0  0  0  0  0  0  0  # atno 10718 bound_to 10713
  154.5771  135.2833  155.0770 H   0  0  0  0  0  0  0  0  0  0  0  0  # atno 10763 bound_to 10752
  154.2120  135.6406  153.5122 H   0  0  0  0  0  0  0  0  0  0  0  0  # atno 10764 bound_to 10752
  153.0076  135.5494  154.6413 H   0  0  0  0  0  0  0  0  0  0  0  0  # atno 10765 bound_to 10752
  140.1034  134.5051  155.8742 H   0  0  0  0  0  0  0  0  0  0  0  0  # atno 11005 bound_to 11000
  146.1561  140.6856  142.9299 LP  0  0  0  0  0  0  0  0  0  0  0  0  # atno 17320 bound_to 7965
  144.7301  140.4646  143.6944 LP  0  0  0  0  0  0  0  0  0  0  0  0  # atno 17321 bound_to 7965
  140.4663  144.1651  150.5912 LP  0  0  0  0  0  0  0  0  0  0  0  0  # atno 17342 bound_to 10162
  140.4431  143.2518  151.9447 LP  0  0  0  0  0  0  0  0  0  0  0  0  # atno 17343 bound_to 10162
  156.3359  130.3807  149.7450 LP  0  0  0  0  0  0  0  0  0  0  0  0  # atno 17370 bound_to 10713
  156.4975  130.8113  151.3119 LP  0  0  0  0  0  0  0  0  0  0  0  0  # atno 17371 bound_to 10713
  141.2112  133.6703  156.6563 LP  0  0  0  0  0  0  0  0  0  0  0  0  # atno 17394 bound_to 11000
  140.3189  134.8024  157.4236 LP  0  0  0  0  0  0  0  0  0  0  0  0  # atno 17395 bound_to 11000

$$$$
