AV-unprocessed.smi:2893|AV-procd|sdf|11123|dock3
  -GOLD-   2272015593D 1   1.00000     0.00000
 Structure written by MMmdl.
 37 39  0  0  0  0  0  0  0  0  1 V2000
  156.7353  134.0196  158.4132 C   0  0  0  0  0  0  0  0  0  0  0  0
  155.5849  134.1926  157.4127 C   0  0  0  0  0  0  0  0  0  0  0  0
  154.9544  135.5007  157.5419 N   0  0  0  0  0  0  0  0  0  0  0  0
  154.3895  135.9833  158.6622 C   0  0  0  0  0  0  0  0  0  0  0  0
  154.3310  135.3485  159.7161 O   0  0  0  0  0  0  0  0  0  0  0  0
  153.7774  137.3540  158.5506 C   0  0  0  0  0  0  0  0  0  0  0  0
  153.2355  137.9835  159.6922 C   0  0  0  0  0  0  0  0  0  0  0  0
  152.6889  139.2687  159.5359 C   0  0  0  0  0  0  0  0  0  0  0  0
  152.7251  139.8442  158.2519 C   0  0  0  0  0  0  0  0  0  0  0  0
  152.1865  141.1254  158.0683 N   0  0  0  0  0  0  0  0  0  0  0  0
  151.6657  141.8860  159.2004 C   0  0  1  0  0  0  0  0  0  0  0  0
  152.7622  142.5735  160.0176 C   0  0  0  0  0  0  0  0  0  0  0  0
  152.2739  144.0291  160.0400 C   0  0  1  0  0  0  0  0  0  0  0  0
  152.5002  144.7197  158.6891 C   0  0  0  0  0  0  0  0  0  0  0  0
  151.4359  144.0544  157.8189 C   0  0  0  0  0  0  0  0  0  0  0  0
  150.7739  143.0825  158.8112 C   0  0  2  0  0  0  0  0  0  0  0  0
  150.8683  143.8450  160.0026 O   0  0  0  0  0  0  0  0  0  0  0  0
  153.2618  139.1913  157.1923 N   0  0  0  0  0  0  0  0  0  0  0  0
  153.7826  137.9687  157.3405 N   0  0  0  0  0  0  0  0  0  0  0  0
  157.2192  133.0516  158.2824 H   0  0  0  0  0  0  0  0  0  0  0  0
  156.3789  134.0743  159.4422 H   0  0  0  0  0  0  0  0  0  0  0  0
  157.4938  134.7913  158.2790 H   0  0  0  0  0  0  0  0  0  0  0  0
  155.9656  134.0977  156.3956 H   0  0  0  0  0  0  0  0  0  0  0  0
  154.8456  133.4006  157.5428 H   0  0  0  0  0  0  0  0  0  0  0  0
  154.9454  136.0891  156.7208 H   0  0  0  0  0  0  0  0  0  0  0  0
  153.2337  137.5026  160.6596 H   0  0  0  0  0  0  0  0  0  0  0  0
  152.2600  139.7938  160.3768 H   0  0  0  0  0  0  0  0  0  0  0  0
  151.9072  141.4063  157.1396 H   0  0  0  0  0  0  0  0  0  0  0  0
  151.1112  141.2177  159.8609 H   0  0  0  0  0  0  0  0  0  0  0  0
  152.7974  142.1586  161.0255 H   0  0  0  0  0  0  0  0  0  0  0  0
  153.7586  142.4846  159.5818 H   0  0  0  0  0  0  0  0  0  0  0  0
  152.6307  144.6032  160.8955 H   0  0  0  0  0  0  0  0  0  0  0  0
  152.3171  145.7923  158.7640 H   0  0  0  0  0  0  0  0  0  0  0  0
  153.5119  144.5709  158.3102 H   0  0  0  0  0  0  0  0  0  0  0  0
  150.7154  144.7954  157.4710 H   0  0  0  0  0  0  0  0  0  0  0  0
  151.8520  143.5560  156.9432 H   0  0  0  0  0  0  0  0  0  0  0  0
  149.7542  142.8062  158.5418 H   0  0  0  0  0  0  0  0  0  0  0  0
  1  2  1  0  0  0  0
  1 20  1  0  0  0  0
  1 21  1  0  0  0  0
  1 22  1  0  0  0  0
  2  3  1  0  0  0  0
  2 23  1  0  0  0  0
  2 24  1  0  0  0  0
  3  4  1  0  0  0  0
  3 25  1  0  0  0  0
  4  5  2  0  0  0  0
  4  6  1  0  0  0  0
  6 19  1  0  0  0  0
  6  7  2  0  0  0  0
  7  8  1  0  0  0  0
  7 26  1  0  0  0  0
  8  9  2  0  0  0  0
  8 27  1  0  0  0  0
  9 10  1  0  0  0  0
  9 18  1  0  0  0  0
 10 11  1  0  0  0  0
 10 28  1  0  0  0  0
 11 16  1  0  0  0  0
 11 12  1  0  0  0  0
 11 29  1  0  0  0  0
 12 13  1  0  0  0  0
 12 30  1  0  0  0  0
 12 31  1  0  0  0  0
 13 17  1  0  0  0  0
 13 14  1  0  0  0  0
 13 32  1  0  0  0  0
 14 15  1  0  0  0  0
 14 33  1  0  0  0  0
 14 34  1  0  0  0  0
 15 16  1  0  0  0  0
 15 35  1  0  0  0  0
 15 36  1  0  0  0  0
 16 17  1  0  0  0  0
 16 37  1  0  0  0  0
 18 19  2  0  0  0  0
M  END
> <s_m_source_file>
AV-unprocessed.smi

> <i_m_source_file_index>
2893

> <i_lp_mmshare_version>
43012

> <i_f3d_flags>
0

> <s_epik_input>
W0NIM11bQ0gyXVtOSF1DKD1PKWMxW2NIXVtjSF1jKG5uMSlbTkhdW0NASF0oW0NIMl1bQ0BASF0yMylbQ0BASF0oTzMpW0NIMl1bQ0gyXTI=

> <s_epik_cmdline>
J2VwaWtfcHl0aG9uJywgJy1waCcsICc3LjAnLCAnLXRuJywgJzgnLCAnLW1hJywgJzIwMCcsICctbWV0YWxfYmluZGluZycsICctaW1hZScsICc8aW5maWxlLm1hZT4nLCAnLW9tYWUnLCAnPG91dGZpbGUubWFlPic=

> <r_lp_tautomer_probability>
1

> <r_epik_Ionization_Penalty>
0.00432031

> <r_epik_Ionization_Penalty_Charging>
0

> <r_epik_Ionization_Penalty_Neutral>
0.00432031

> <r_epik_State_Penalty>
-0

> <r_epik_Charging_Adjusted_Penalty>
0

> <i_epik_Tot_Q>
0

> <i_epik_Tot_abs_Q>
0

> <r_epik_Metal_State_Penalty>
-0

> <b_epik_Metal_Only>
0

> <s_lp_Force_Field>
OPLS_2005

> <r_lp_Energy>
51.8171

> <b_lp_Chiralities_Consistent>
1

> <s_lp_Variant>
AV-unprocessed.smi:2893-2

> <Gold.Version>
5.8.1

> <Gold.Id.Protein>
6NUR|6NUR_protein|mol2

> <Gold.PLP.Fitness>
35.7827

> <Gold.PLP.PLP>
-30.2803

> <Gold.PLP.part.hbond>
-2.9955

> <Gold.PLP.part.metal>
0.0000

> <Gold.PLP.part.buried>
-3.8274

> <Gold.PLP.part.nonpolar>
-24.0488

> <Gold.PLP.part.repulsive>
0.2953

> <Gold.PLP.ligand.clash>
0.0000

> <Gold.PLP.ligand.torsion>
0.2575

> <Gold.PLP.Chemscore.Hbond>
2.0000

> <Gold.PLP.Chemscore.CHOScore>
0.0000

> <Gold.PLP.Chemscore.Metal>
0.0000

> <Gold.Chemscore.Hbonds>
donor molecule, donor type, donor heavy atom, donor atom, acceptor molecule, acceptor atom, score
      P1  H  6896  6907       L1     5  0.98
      P1  H  7997  8009       L1    18  0.96

> <Gold.PLP.Chemscore.Internal.Correction>
0.0174

> <Gold.Rescore>
     Score         DG    S(hbond)    S(metal)    S(lipo)     H(rot)  DE(clash)    DE(int)     intcor
     17.07     -17.42       1.55        0.00      84.08       1.21       0.00       0.35       ----

> <Gold.Chemscore.Fitness>
17.0734

> <Gold.Chemscore.DG>
-17.4204

> <Gold.Chemscore.ZeroCoef>
-5.4800

> <Gold.Chemscore.Hbond>
1.5541

> <Gold.Chemscore.Metal>
0.0000

> <Gold.Chemscore.Lipo>
84.0786

> <Gold.Chemscore.Internal_Hbond>
0.0000

> <Gold.Chemscore.DEClash>
0.0000

> <Gold.Chemscore.DEInternal>
0.3470

> <Gold.Chemscore.Rot>
1.2061

> <Gold.Chemscore.Internal.Correction>
   9.000000E+99

> <Gold.Chemscore.Hbonds>
donor molecule, donor type, donor heavy atom, donor atom, acceptor molecule, acceptor atom, score
      P1  H  6896  6907       L1     5  0.74
      P1  H  7997  8009       L1    18  0.25

> <Gold.Chemscore.Hbond.Weighted>
-5.1909

> <Gold.Chemscore.Metal.Weighted>
-0.0000

> <Gold.Chemscore.Lipo.Weighted>
-9.8372

> <Gold.Chemscore.Internal_Hbond.Weighted>
0.0000

> <Gold.Chemscore.DEClash.Weighted>
0.0000

> <Gold.Chemscore.DEInternal.Weighted>
0.3470

> <Gold.Chemscore.Rot.Weighted>
3.0876

> <Gold.Chemscore.Internal.Correction.Weighted>
   9.000000E+99

> <Gold.Protein.RotatedTorsions>
[ 6907 6896 6895 6894 ] final   86.41 input  -60.11 | X-H torsion
[ 7974 7965 7964 7962 ] final   83.80 input  175.53 | X-H torsion
[ 8008 7997 7996 7995 ] final  175.05 input   59.86 | X-H torsion
[ 10167 10162 10161 10158 ] final  149.11 input  -65.29 | X-H torsion
[ 10718 10713 10712 10709 ] final  177.36 input   66.30 | X-H torsion
[ 10763 10752 10751 10750 ] final   -9.27 input  -60.55 | X-H torsion
[ 11005 11000 10999 10996 ] final   60.40 input  -57.11 | X-H torsion

> <Gold.Protein.ActiveResidues>
 VAL166  LYS551  ARG553  GLY616  TRP617  ASP618  TYR619  PRO620  LYS621  CYS622 
 ASP623  PHE694  ASN695  SER759  ASP760  ASP761  ALA762  ILE779  LEU786  VAL792 
 PHE793  MET794  SER795  GLU796  ALA797  LYS798  CYS799  TRP800  GLU811  SER814 

> <Gold.Protein.RotatedAtoms>
  152.5394  134.2435  159.8871 H   0  0  0  0  0  0  0  0  0  0  0  0  # atno 6907 bound_to 6896
  151.2402  133.4397  159.2614 H   0  0  0  0  0  0  0  0  0  0  0  0  # atno 6908 bound_to 6896
  151.0634  134.9765  159.8328 H   0  0  0  0  0  0  0  0  0  0  0  0  # atno 6909 bound_to 6896
  145.6071  139.2362  143.2213 H   0  0  0  0  0  0  0  0  0  0  0  0  # atno 7974 bound_to 7965
  156.0911  140.1419  156.9590 H   0  0  0  0  0  0  0  0  0  0  0  0  # atno 8008 bound_to 7997
  154.4642  140.0932  156.7024 H   0  0  0  0  0  0  0  0  0  0  0  0  # atno 8009 bound_to 7997
  155.4918  140.3448  155.4358 H   0  0  0  0  0  0  0  0  0  0  0  0  # atno 8010 bound_to 7997
  139.4866  144.5627  151.7201 H   0  0  0  0  0  0  0  0  0  0  0  0  # atno 10167 bound_to 10162
  156.9066  130.9896  151.3027 H   0  0  0  0  0  0  0  0  0  0  0  0  # atno 10718 bound_to 10713
  153.4523  135.7015  153.6101 H   0  0  0  0  0  0  0  0  0  0  0  0  # atno 10763 bound_to 10752
  153.4430  135.3776  155.2239 H   0  0  0  0  0  0  0  0  0  0  0  0  # atno 10764 bound_to 10752
  154.8728  135.3978  154.3938 H   0  0  0  0  0  0  0  0  0  0  0  0  # atno 10765 bound_to 10752
  140.0235  134.6118  155.9606 H   0  0  0  0  0  0  0  0  0  0  0  0  # atno 11005 bound_to 11000
  146.1532  140.6895  142.9312 LP  0  0  0  0  0  0  0  0  0  0  0  0  # atno 17320 bound_to 7965
  144.7285  140.4600  143.6955 LP  0  0  0  0  0  0  0  0  0  0  0  0  # atno 17321 bound_to 7965
  140.5200  144.0893  150.6020 LP  0  0  0  0  0  0  0  0  0  0  0  0  # atno 17342 bound_to 10162
  140.3848  143.2783  152.0129 LP  0  0  0  0  0  0  0  0  0  0  0  0  # atno 17343 bound_to 10162
  157.5994  130.8501  149.8778 LP  0  0  0  0  0  0  0  0  0  0  0  0  # atno 17370 bound_to 10713
  156.0556  130.3709  150.1099 LP  0  0  0  0  0  0  0  0  0  0  0  0  # atno 17371 bound_to 10713
  141.1788  133.6543  156.4936 LP  0  0  0  0  0  0  0  0  0  0  0  0  # atno 17394 bound_to 11000
  140.4347  134.7070  157.4960 LP  0  0  0  0  0  0  0  0  0  0  0  0  # atno 17395 bound_to 11000

$$$$
