AV-unprocessed.smi:3337|AV-procd|sdf|12863|dock10
  -GOLD-   2272019263D 1   1.00000     0.00000
 Structure written by MMmdl.
 46 47  0  0  0  0  0  0  0  0  2 V2000
  144.7021  133.9102  150.5326 C   0  0  0  0  0  0  0  0  0  0  0  0
  145.6502  134.6816  151.4617 C   0  0  2  0  0  0  0  0  0  0  0  0
  145.4114  134.3187  152.9370 C   0  0  0  0  0  0  0  0  0  0  0  0
  146.3566  135.1167  153.8505 C   0  0  2  0  0  0  0  0  0  0  0  0
  146.1200  134.7861  155.3308 C   0  0  0  0  0  0  0  0  0  0  0  0
  146.2087  136.6267  153.5809 C   0  0  0  0  0  0  0  0  0  0  0  0
  146.4495  136.9491  152.1507 N   0  3  2  0  0  0  0  0  0  0  0  0
  146.4482  138.4123  151.8983 C   0  0  0  0  0  0  0  0  0  0  0  0
  147.0703  139.2092  153.0613 C   0  0  0  0  0  0  0  0  0  0  0  0
  148.4953  138.9329  153.1991 N   0  0  0  0  0  0  0  0  0  0  0  0
  149.0776  138.4429  154.3054 C   0  0  0  0  0  0  0  0  0  0  0  0
  148.4445  138.1548  155.3219 O   0  0  0  0  0  0  0  0  0  0  0  0
  150.6016  138.2538  154.2499 C   0  0  2  0  0  0  0  0  0  0  0  0
  151.0280  136.7970  154.5216 C   0  0  0  0  0  0  0  0  0  0  0  0
  151.2600  139.1948  155.1475 N   0  0  0  0  0  0  0  0  0  0  0  0
  152.2094  138.9867  156.0625 C   0  0  0  0  0  0  0  0  0  0  0  0
  152.6154  140.0882  156.6782 N   0  0  0  0  0  0  0  0  0  0  0  0
  151.8270  141.0069  156.0454 C   0  0  0  0  0  0  0  0  0  0  0  0
  151.0055  140.5268  155.1120 N   0  0  0  0  0  0  0  0  0  0  0  0
  145.5200  136.2035  151.2608 C   0  0  0  0  0  0  0  0  0  0  0  0
  143.6593  134.1544  150.7375 H   0  0  0  0  0  0  0  0  0  0  0  0
  144.8218  132.8332  150.6549 H   0  0  0  0  0  0  0  0  0  0  0  0
  144.8995  134.1455  149.4864 H   0  0  0  0  0  0  0  0  0  0  0  0
  146.6700  134.3924  151.2025 H   0  0  0  0  0  0  0  0  0  0  0  0
  144.3743  134.5256  153.2059 H   0  0  0  0  0  0  0  0  0  0  0  0
  145.5637  133.2489  153.0863 H   0  0  0  0  0  0  0  0  0  0  0  0
  147.3814  134.8292  153.6102 H   0  0  0  0  0  0  0  0  0  0  0  0
  145.1109  135.0583  155.6424 H   0  0  0  0  0  0  0  0  0  0  0  0
  146.8217  135.3226  155.9701 H   0  0  0  0  0  0  0  0  0  0  0  0
  146.2511  133.7206  155.5214 H   0  0  0  0  0  0  0  0  0  0  0  0
  145.2130  136.9694  153.8679 H   0  0  0  0  0  0  0  0  0  0  0  0
  146.9221  137.1710  154.2011 H   0  0  0  0  0  0  0  0  0  0  0  0
  146.9596  138.6194  150.9570 H   0  0  0  0  0  0  0  0  0  0  0  0
  145.4209  138.7568  151.7698 H   0  0  0  0  0  0  0  0  0  0  0  0
  146.9486  140.2782  152.8845 H   0  0  0  0  0  0  0  0  0  0  0  0
  146.5743  138.9941  154.0081 H   0  0  0  0  0  0  0  0  0  0  0  0
  149.0834  139.1451  152.4058 H   0  0  0  0  0  0  0  0  0  0  0  0
  150.9251  138.4985  153.2365 H   0  0  0  0  0  0  0  0  0  0  0  0
  150.5648  136.1128  153.8100 H   0  0  0  0  0  0  0  0  0  0  0  0
  150.7519  136.4673  155.5241 H   0  0  0  0  0  0  0  0  0  0  0  0
  152.1084  136.6859  154.4249 H   0  0  0  0  0  0  0  0  0  0  0  0
  152.6147  138.0097  156.2807 H   0  0  0  0  0  0  0  0  0  0  0  0
  151.8646  142.0617  156.2749 H   0  0  0  0  0  0  0  0  0  0  0  0
  145.7277  136.4414  150.2181 H   0  0  0  0  0  0  0  0  0  0  0  0
  144.4951  136.5233  151.4570 H   0  0  0  0  0  0  0  0  0  0  0  0
  147.3828  136.6233  151.9435 H   0  0  0  0  0  0  0  0  0  0  0  0
  1  2  1  0  0  0  0
  1 21  1  0  0  0  0
  1 22  1  0  0  0  0
  1 23  1  0  0  0  0
  2 20  1  0  0  0  0
  2  3  1  0  0  0  0
  2 24  1  0  0  0  0
  3  4  1  0  0  0  0
  3 25  1  0  0  0  0
  3 26  1  0  0  0  0
  4  5  1  0  0  0  0
  4  6  1  0  0  0  0
  4 27  1  0  0  0  0
  5 28  1  0  0  0  0
  5 29  1  0  0  0  0
  5 30  1  0  0  0  0
  6  7  1  0  0  0  0
  6 31  1  0  0  0  0
  6 32  1  0  0  0  0
  7  8  1  0  0  0  0
  7 20  1  0  0  0  0
  7 46  1  0  0  0  0
  8  9  1  0  0  0  0
  8 33  1  0  0  0  0
  8 34  1  0  0  0  0
  9 10  1  0  0  0  0
  9 35  1  0  0  0  0
  9 36  1  0  0  0  0
 10 11  1  0  0  0  0
 10 37  1  0  0  0  0
 11 12  2  0  0  0  0
 11 13  1  0  0  0  0
 13 14  1  0  0  0  0
 13 15  1  0  0  0  0
 13 38  1  0  0  0  0
 14 39  1  0  0  0  0
 14 40  1  0  0  0  0
 14 41  1  0  0  0  0
 15 19  1  0  0  0  0
 15 16  1  0  0  0  0
 16 17  2  0  0  0  0
 16 42  1  0  0  0  0
 17 18  1  0  0  0  0
 18 19  2  0  0  0  0
 18 43  1  0  0  0  0
 20 44  1  0  0  0  0
 20 45  1  0  0  0  0
M  CHG  1   7   1
M  END
> <s_m_source_file>
AV-unprocessed.smi

> <i_m_source_file_index>
3337

> <i_lp_mmshare_version>
43012

> <i_f3d_flags>
0

> <s_epik_input>
W0NIM11bQ0BASF0xW0NIMl1bQ0BASF0oW0NIM10pW0NIMl1OKFtDSDJdMSlbQ0gyXVtDSDJdW05IXUMoPU8pW0NASF0oW0NIM10pbjJbY0hdbltjSF1uMg==

> <s_epik_cmdline>
J2VwaWtfcHl0aG9uJywgJy1waCcsICc3LjAnLCAnLXRuJywgJzgnLCAnLW1hJywgJzIwMCcsICctbWV0YWxfYmluZGluZycsICctaW1hZScsICc8aW5maWxlLm1hZT4nLCAnLW9tYWUnLCAnPG91dGZpbGUubWFlPic=

> <r_lp_tautomer_probability>
1

> <r_epik_Ionization_Penalty>
0.00175613

> <r_epik_Ionization_Penalty_Charging>
0.00174812

> <r_epik_Ionization_Penalty_Neutral>
8.01354e-06

> <r_epik_State_Penalty>
0.00118332

> <r_epik_Charging_Adjusted_Penalty>
0.00293143

> <i_epik_Tot_Q>
1

> <i_epik_Tot_abs_Q>
1

> <r_epik_Metal_State_Penalty>
-0

> <b_epik_Metal_Only>
0

> <s_lp_Force_Field>
OPLS_2005

> <r_lp_Energy>
22.1479

> <b_lp_Chiralities_Consistent>
1

> <s_lp_Variant>
AV-unprocessed.smi:3337-3

> <Gold.Version>
5.8.1

> <Gold.Id.Protein>
6NUR|6NUR_protein|mol2

> <Gold.PLP.Fitness>
47.6115

> <Gold.PLP.PLP>
-33.3370

> <Gold.PLP.part.hbond>
-5.0000

> <Gold.PLP.part.metal>
0.0000

> <Gold.PLP.part.buried>
-3.4684

> <Gold.PLP.part.nonpolar>
-25.5133

> <Gold.PLP.part.repulsive>
0.2322

> <Gold.PLP.ligand.clash>
0.0000

> <Gold.PLP.ligand.torsion>
0.3831

> <Gold.PLP.Chemscore.Hbond>
4.9760

> <Gold.PLP.Chemscore.CHOScore>
0.0000

> <Gold.PLP.Chemscore.Metal>
0.0000

> <Gold.Chemscore.Hbonds>
donor molecule, donor type, donor heavy atom, donor atom, acceptor molecule, acceptor atom, score
      L1  H     7    46       P1  7948  2.00
      L1  H    10    37       P1  7957  1.00
      P1  H  7989  7998       L1    19  0.93
      P1  H  7997  8009       L1    17  0.91

> <Gold.PLP.Chemscore.Internal.Correction>
0.1128

> <Gold.Rescore>
     Score         DG    S(hbond)    S(metal)    S(lipo)     H(rot)  DE(clash)    DE(int)     intcor
     13.26     -14.03       2.49        0.00      57.15       2.51       0.37       0.41       ----

> <Gold.Chemscore.Fitness>
13.2572

> <Gold.Chemscore.DG>
-14.0343

> <Gold.Chemscore.ZeroCoef>
-5.4800

> <Gold.Chemscore.Hbond>
2.4853

> <Gold.Chemscore.Metal>
0.0000

> <Gold.Chemscore.Lipo>
57.1492

> <Gold.Chemscore.Internal_Hbond>
0.0000

> <Gold.Chemscore.DEClash>
0.3668

> <Gold.Chemscore.DEInternal>
0.4103

> <Gold.Chemscore.Rot>
2.5129

> <Gold.Chemscore.Internal.Correction>
   9.000000E+99

> <Gold.Chemscore.Hbonds>
donor molecule, donor type, donor heavy atom, donor atom, acceptor molecule, acceptor atom, score
      L1  H     7    46       P1  7948  0.99
      L1  H    10    37       P1  7957  0.97
      P1  H  7989  7998       L1    19  0.15
      P1  H  7997  8009       L1    17  0.63

> <Gold.Chemscore.Hbond.Weighted>
-8.3009

> <Gold.Chemscore.Metal.Weighted>
-0.0000

> <Gold.Chemscore.Lipo.Weighted>
-6.6865

> <Gold.Chemscore.Internal_Hbond.Weighted>
0.0000

> <Gold.Chemscore.DEClash.Weighted>
0.3668

> <Gold.Chemscore.DEInternal.Weighted>
0.4103

> <Gold.Chemscore.Rot.Weighted>
6.4331

> <Gold.Chemscore.Internal.Correction.Weighted>
   9.000000E+99

> <Gold.Protein.RotatedTorsions>
[ 6907 6896 6895 6894 ] final   -3.28 input  -60.11 | X-H torsion
[ 7974 7965 7964 7962 ] final  -30.34 input  175.53 | X-H torsion
[ 8008 7997 7996 7995 ] final  172.00 input   59.86 | X-H torsion
[ 10167 10162 10161 10158 ] final  -63.26 input  -65.29 | X-H torsion
[ 10718 10713 10712 10709 ] final   98.56 input   66.30 | X-H torsion
[ 10763 10752 10751 10750 ] final -129.48 input  -60.55 | X-H torsion
[ 11005 11000 10999 10996 ] final  -89.77 input  -57.11 | X-H torsion

> <Gold.Protein.ActiveResidues>
 VAL166  LYS551  ARG553  GLY616  TRP617  ASP618  TYR619  PRO620  LYS621  CYS622 
 ASP623  PHE694  ASN695  SER759  ASP760  ASP761  ALA762  ILE779  LEU786  VAL792 
 PHE793  MET794  SER795  GLU796  ALA797  LYS798  CYS799  TRP800  GLU811  SER814 

> <Gold.Protein.RotatedAtoms>
  151.5164  135.1066  159.9866 H   0  0  0  0  0  0  0  0  0  0  0  0  # atno 6907 bound_to 6896
  152.4639  133.7878  159.6896 H   0  0  0  0  0  0  0  0  0  0  0  0  # atno 6908 bound_to 6896
  150.8614  133.7574  159.3016 H   0  0  0  0  0  0  0  0  0  0  0  0  # atno 6909 bound_to 6896
  146.1150  140.5528  142.8761 H   0  0  0  0  0  0  0  0  0  0  0  0  # atno 7974 bound_to 7965
  156.1217  140.1497  156.9194 H   0  0  0  0  0  0  0  0  0  0  0  0  # atno 8008 bound_to 7997
  154.4841  140.0870  156.7487 H   0  0  0  0  0  0  0  0  0  0  0  0  # atno 8009 bound_to 7997
  155.4416  140.3431  155.4293 H   0  0  0  0  0  0  0  0  0  0  0  0  # atno 8010 bound_to 7997
  140.5883  143.2337  151.6194 H   0  0  0  0  0  0  0  0  0  0  0  0  # atno 10167 bound_to 10162
  157.6893  131.0643  150.4814 H   0  0  0  0  0  0  0  0  0  0  0  0  # atno 10718 bound_to 10713
  154.8757  135.3894  154.3926 H   0  0  0  0  0  0  0  0  0  0  0  0  # atno 10763 bound_to 10752
  153.4660  135.7029  153.6027 H   0  0  0  0  0  0  0  0  0  0  0  0  # atno 10764 bound_to 10752
  153.4505  135.3835  155.2249 H   0  0  0  0  0  0  0  0  0  0  0  0  # atno 10765 bound_to 10752
  141.1578  133.7651  156.9642 H   0  0  0  0  0  0  0  0  0  0  0  0  # atno 11005 bound_to 11000
  144.7545  140.5273  143.6778 LP  0  0  0  0  0  0  0  0  0  0  0  0  # atno 17320 bound_to 7965
  145.5585  139.1478  143.3354 LP  0  0  0  0  0  0  0  0  0  0  0  0  # atno 17321 bound_to 7965
  139.5211  144.3202  152.0917 LP  0  0  0  0  0  0  0  0  0  0  0  0  # atno 17342 bound_to 10162
  140.2362  144.4317  150.6279 LP  0  0  0  0  0  0  0  0  0  0  0  0  # atno 17343 bound_to 10162
  156.5146  130.4147  149.6283 LP  0  0  0  0  0  0  0  0  0  0  0  0  # atno 17370 bound_to 10713
  156.3210  130.7280  151.2192 LP  0  0  0  0  0  0  0  0  0  0  0  0  # atno 17371 bound_to 10713
  140.1172  134.9440  157.2151 LP  0  0  0  0  0  0  0  0  0  0  0  0  # atno 17394 bound_to 11000
  140.3118  134.3015  155.7265 LP  0  0  0  0  0  0  0  0  0  0  0  0  # atno 17395 bound_to 11000

$$$$
