AV-unprocessed.smi:1709|AV-procd|sdf|6896|dock9
  -GOLD-   22720 8103D 1   1.00000     0.00000
 Structure written by MMmdl.
 43 45  0  0  0  0  0  0  0  0  2 V2000
  149.8460  138.5729  154.2382 C   0  0  0  0  0  0  0  0  0  0  0  0
  148.7950  139.6665  154.1316 C   0  0  0  0  0  0  0  0  0  0  0  0
  149.0681  140.9370  154.6817 C   0  0  0  0  0  0  0  0  0  0  0  0
  148.0997  141.9499  154.5837 C   0  0  0  0  0  0  0  0  0  0  0  0
  146.8911  141.6471  153.9354 C   0  0  0  0  0  0  0  0  0  0  0  0
  146.6226  140.4358  153.4063 N   0  0  0  0  0  0  0  0  0  0  0  0
  147.5457  139.4432  153.4915 C   0  0  0  0  0  0  0  0  0  0  0  0
  147.3478  138.1320  152.9565 N   0  0  0  0  0  0  0  0  0  0  0  0
  146.2406  137.3715  152.8185 C   0  0  0  0  0  0  0  0  0  0  0  0
  145.1416  137.7778  153.1923 O   0  0  0  0  0  0  0  0  0  0  0  0
  146.4134  136.1614  152.2631 N   0  0  0  0  0  0  0  0  0  0  0  0
  145.3702  135.1644  152.0510 C   0  0  1  0  0  0  0  0  0  0  0  0
  144.5780  135.3965  150.7521 C   0  0  0  0  0  0  0  0  0  0  0  0
  144.3158  133.9912  150.1756 C   0  0  0  0  0  0  0  0  0  0  0  0
  144.8475  133.0509  151.1805 N   0  3  1  0  0  0  0  0  0  0  0  0
  145.2374  131.7057  150.7048 C   0  0  0  0  0  0  0  0  0  0  0  0
  145.6870  130.8516  151.9071 C   0  0  0  0  0  0  0  0  0  0  0  0
  146.7835  131.5564  152.7318 C   0  0  0  0  0  0  0  0  0  0  0  0
  146.3572  132.9859  153.1180 C   0  0  0  0  0  0  0  0  0  0  0  0
  145.9457  133.7599  151.8542 C   0  0  2  0  0  0  0  0  0  0  0  0
  150.7409  138.9303  154.7485 H   0  0  0  0  0  0  0  0  0  0  0  0
  150.1418  138.2280  153.2469 H   0  0  0  0  0  0  0  0  0  0  0  0
  149.4570  137.7231  154.8001 H   0  0  0  0  0  0  0  0  0  0  0  0
  150.0089  141.1368  155.1732 H   0  0  0  0  0  0  0  0  0  0  0  0
  148.2794  142.9324  154.9943 H   0  0  0  0  0  0  0  0  0  0  0  0
  146.1193  142.3961  153.8372 H   0  0  0  0  0  0  0  0  0  0  0  0
  148.1862  137.7100  152.5845 H   0  0  0  0  0  0  0  0  0  0  0  0
  147.3507  135.9097  151.9808 H   0  0  0  0  0  0  0  0  0  0  0  0
  144.6668  135.1577  152.8864 H   0  0  0  0  0  0  0  0  0  0  0  0
  143.6499  135.9337  150.9499 H   0  0  0  0  0  0  0  0  0  0  0  0
  145.1506  135.9875  150.0351 H   0  0  0  0  0  0  0  0  0  0  0  0
  143.2569  133.8059  149.9946 H   0  0  0  0  0  0  0  0  0  0  0  0
  144.8477  133.8705  149.2305 H   0  0  0  0  0  0  0  0  0  0  0  0
  144.3910  131.2348  150.2038 H   0  0  0  0  0  0  0  0  0  0  0  0
  146.0419  131.7886  149.9724 H   0  0  0  0  0  0  0  0  0  0  0  0
  144.8276  130.6531  152.5492 H   0  0  0  0  0  0  0  0  0  0  0  0
  146.0440  129.8804  151.5634 H   0  0  0  0  0  0  0  0  0  0  0  0
  147.0119  130.9774  153.6271 H   0  0  0  0  0  0  0  0  0  0  0  0
  147.7042  131.5984  152.1486 H   0  0  0  0  0  0  0  0  0  0  0  0
  145.5269  132.9494  153.8247 H   0  0  0  0  0  0  0  0  0  0  0  0
  147.1784  133.4928  153.6249 H   0  0  0  0  0  0  0  0  0  0  0  0
  146.7957  133.8143  151.1695 H   0  0  0  0  0  0  0  0  0  0  0  0
  144.1215  132.9286  151.8720 H   0  0  0  0  0  0  0  0  0  0  0  0
  1  2  1  0  0  0  0
  1 21  1  0  0  0  0
  1 22  1  0  0  0  0
  1 23  1  0  0  0  0
  2  7  1  0  0  0  0
  2  3  2  0  0  0  0
  3  4  1  0  0  0  0
  3 24  1  0  0  0  0
  4  5  2  0  0  0  0
  4 25  1  0  0  0  0
  5  6  1  0  0  0  0
  5 26  1  0  0  0  0
  6  7  2  0  0  0  0
  7  8  1  0  0  0  0
  8  9  1  0  0  0  0
  8 27  1  0  0  0  0
  9 10  2  0  0  0  0
  9 11  1  0  0  0  0
 11 12  1  0  0  0  0
 11 28  1  0  0  0  0
 12 20  1  0  0  0  0
 12 13  1  0  0  0  0
 12 29  1  0  0  0  0
 13 14  1  0  0  0  0
 13 30  1  0  0  0  0
 13 31  1  0  0  0  0
 14 15  1  0  0  0  0
 14 32  1  0  0  0  0
 14 33  1  0  0  0  0
 15 20  1  0  0  0  0
 15 16  1  0  0  0  0
 15 43  1  0  0  0  0
 16 17  1  0  0  0  0
 16 34  1  0  0  0  0
 16 35  1  0  0  0  0
 17 18  1  0  0  0  0
 17 36  1  0  0  0  0
 17 37  1  0  0  0  0
 18 19  1  0  0  0  0
 18 38  1  0  0  0  0
 18 39  1  0  0  0  0
 19 20  1  0  0  0  0
 19 40  1  0  0  0  0
 19 41  1  0  0  0  0
 20 42  1  0  0  0  0
M  CHG  1  15   1
M  END
> <s_m_source_file>
AV-unprocessed.smi

> <i_m_source_file_index>
1709

> <i_lp_mmshare_version>
43012

> <i_f3d_flags>
0

> <s_epik_input>
W0NIM11jMVtjSF1bY0hdW2NIXW5jMVtOSF1DKD1PKVtOSF1bQ0BIXShbQ0gyXVtDSDJdMilbQ0BASF0oTjIzKVtDSDJdW0NIMl1bQ0gyXVtDSDJdMw==

> <s_epik_cmdline>
J2VwaWtfcHl0aG9uJywgJy1waCcsICc3LjAnLCAnLXRuJywgJzgnLCAnLW1hJywgJzIwMCcsICctbWV0YWxfYmluZGluZycsICctaW1hZScsICc8aW5maWxlLm1hZT4nLCAnLW9tYWUnLCAnPG91dGZpbGUubWFlPic=

> <r_epik_Ionization_Penalty>
0.00101524

> <r_epik_Ionization_Penalty_Charging>
0.000974069

> <r_epik_Ionization_Penalty_Neutral>
4.11757e-05

> <r_epik_State_Penalty>
0.000633842

> <r_epik_Charging_Adjusted_Penalty>
0.00160791

> <i_epik_Tot_Q>
1

> <i_epik_Tot_abs_Q>
1

> <r_epik_Metal_State_Penalty>
-0

> <b_epik_Metal_Only>
0

> <s_lp_Force_Field>
OPLS_2005

> <r_lp_Energy>
38.4546

> <b_lp_Chiralities_Consistent>
1

> <s_lp_Variant>
AV-unprocessed.smi:1709-6

> <Gold.Version>
5.8.1

> <Gold.Id.Protein>
6NUR|6NUR_protein|mol2

> <Gold.PLP.Fitness>
38.1801

> <Gold.PLP.PLP>
-33.3392

> <Gold.PLP.part.hbond>
-2.0000

> <Gold.PLP.part.metal>
0.0000

> <Gold.PLP.part.buried>
-0.9874

> <Gold.PLP.part.nonpolar>
-31.8433

> <Gold.PLP.part.repulsive>
1.4263

> <Gold.PLP.ligand.clash>
0.0000

> <Gold.PLP.ligand.torsion>
0.5244

> <Gold.PLP.Chemscore.Hbond>
1.9600

> <Gold.PLP.Chemscore.CHOScore>
0.0000

> <Gold.PLP.Chemscore.Metal>
0.0000

> <Gold.Chemscore.Hbonds>
donor molecule, donor type, donor heavy atom, donor atom, acceptor molecule, acceptor atom, score
      L1  H     8    27       P1  7948  0.96
      L1  H    11    28       P1  7948  1.00

> <Gold.PLP.Chemscore.Internal.Correction>
0.0096

> <Gold.Rescore>
     Score         DG    S(hbond)    S(metal)    S(lipo)     H(rot)  DE(clash)    DE(int)     intcor
     17.53     -18.91       1.88        0.00      83.08       1.00       0.08       1.30       ----

> <Gold.Chemscore.Fitness>
17.5278

> <Gold.Chemscore.DG>
-18.9066

> <Gold.Chemscore.ZeroCoef>
-5.4800

> <Gold.Chemscore.Hbond>
1.8763

> <Gold.Chemscore.Metal>
0.0000

> <Gold.Chemscore.Lipo>
83.0753

> <Gold.Chemscore.Internal_Hbond>
0.0000

> <Gold.Chemscore.DEClash>
0.0811

> <Gold.Chemscore.DEInternal>
1.2977

> <Gold.Chemscore.Rot>
1.0000

> <Gold.Chemscore.Internal.Correction>
   9.000000E+99

> <Gold.Chemscore.Hbonds>
donor molecule, donor type, donor heavy atom, donor atom, acceptor molecule, acceptor atom, score
      L1  H     8    27       P1  7948  0.92
      L1  H    11    28       P1  7948  0.96

> <Gold.Chemscore.Hbond.Weighted>
-6.2668

> <Gold.Chemscore.Metal.Weighted>
-0.0000

> <Gold.Chemscore.Lipo.Weighted>
-9.7198

> <Gold.Chemscore.Internal_Hbond.Weighted>
0.0000

> <Gold.Chemscore.DEClash.Weighted>
0.0811

> <Gold.Chemscore.DEInternal.Weighted>
1.2977

> <Gold.Chemscore.Rot.Weighted>
2.5600

> <Gold.Chemscore.Internal.Correction.Weighted>
   9.000000E+99

> <Gold.Protein.RotatedTorsions>
[ 6907 6896 6895 6894 ] final   65.99 input  -60.11 | X-H torsion
[ 7974 7965 7964 7962 ] final  -48.73 input  175.53 | X-H torsion
[ 8008 7997 7996 7995 ] final  -67.66 input   59.86 | X-H torsion
[ 10167 10162 10161 10158 ] final  136.58 input  -65.29 | X-H torsion
[ 10718 10713 10712 10709 ] final   13.46 input   66.30 | X-H torsion
[ 10763 10752 10751 10750 ] final  147.89 input  -60.55 | X-H torsion
[ 11005 11000 10999 10996 ] final  162.15 input  -57.11 | X-H torsion

> <Gold.Protein.ActiveResidues>
 VAL166  LYS551  ARG553  GLY616  TRP617  ASP618  TYR619  PRO620  LYS621  CYS622 
 ASP623  PHE694  ASN695  SER759  ASP760  ASP761  ALA762  ILE779  LEU786  VAL792 
 PHE793  MET794  SER795  GLU796  ALA797  LYS798  CYS799  TRP800  GLU811  SER814 

> <Gold.Protein.RotatedAtoms>
  152.4448  134.5517  159.9868 H   0  0  0  0  0  0  0  0  0  0  0  0  # atno 6907 bound_to 6896
  151.5605  133.3398  159.2978 H   0  0  0  0  0  0  0  0  0  0  0  0  # atno 6908 bound_to 6896
  150.8362  134.7669  159.6958 H   0  0  0  0  0  0  0  0  0  0  0  0  # atno 6909 bound_to 6896
  145.9481  140.7599  142.9518 H   0  0  0  0  0  0  0  0  0  0  0  0  # atno 7974 bound_to 7965
  154.4815  140.0888  156.7387 H   0  0  0  0  0  0  0  0  0  0  0  0  # atno 8008 bound_to 7997
  155.4459  140.3455  155.4277 H   0  0  0  0  0  0  0  0  0  0  0  0  # atno 8009 bound_to 7997
  156.1198  140.1471  156.9209 H   0  0  0  0  0  0  0  0  0  0  0  0  # atno 8010 bound_to 7997
  139.5174  144.6456  151.5447 H   0  0  0  0  0  0  0  0  0  0  0  0  # atno 10167 bound_to 10162
  157.0249  130.6169  149.5726 H   0  0  0  0  0  0  0  0  0  0  0  0  # atno 10718 bound_to 10713
  154.0458  135.2886  155.3348 H   0  0  0  0  0  0  0  0  0  0  0  0  # atno 10763 bound_to 10752
  154.6900  135.5230  153.8383 H   0  0  0  0  0  0  0  0  0  0  0  0  # atno 10764 bound_to 10752
  153.0581  135.6603  154.0658 H   0  0  0  0  0  0  0  0  0  0  0  0  # atno 10765 bound_to 10752
  140.2229  134.8183  157.3238 H   0  0  0  0  0  0  0  0  0  0  0  0  # atno 11005 bound_to 11000
  144.6791  140.2389  143.7346 LP  0  0  0  0  0  0  0  0  0  0  0  0  # atno 17320 bound_to 7965
  145.8209  139.2043  143.1939 LP  0  0  0  0  0  0  0  0  0  0  0  0  # atno 17321 bound_to 7965
  140.6240  143.9204  150.6549 LP  0  0  0  0  0  0  0  0  0  0  0  0  # atno 17342 bound_to 10162
  140.2486  143.3610  152.1425 LP  0  0  0  0  0  0  0  0  0  0  0  0  # atno 17343 bound_to 10162
  156.0089  130.5179  150.7924 LP  0  0  0  0  0  0  0  0  0  0  0  0  # atno 17370 bound_to 10713
  157.5221  131.0932  151.0064 LP  0  0  0  0  0  0  0  0  0  0  0  0  # atno 17371 bound_to 10713
  140.1831  134.4465  155.7760 LP  0  0  0  0  0  0  0  0  0  0  0  0  # atno 17394 bound_to 11000
  141.2222  133.6993  156.7902 LP  0  0  0  0  0  0  0  0  0  0  0  0  # atno 17395 bound_to 11000

$$$$
