AV-unprocessed.smi:3122|AV-procd|sdf|11896|dock6
  -GOLD-   2272017283D 1   1.00000     0.00000
 Structure written by MMmdl.
 30 31  0  0  0  0  0  0  0  0  2 V2000
  152.8808  142.3952  160.5310 C   0  0  0  0  0  0  0  0  0  0  0  0
  153.3854  141.0729  159.9365 C   0  0  0  0  0  0  0  0  0  0  0  0
  154.9132  141.0500  159.7812 C   0  0  0  0  0  0  0  0  0  0  0  0
  152.6884  140.7463  158.6532 C   0  0  0  0  0  0  0  0  0  0  0  0
  152.9570  139.7416  157.8143 N   0  0  0  0  0  0  0  0  0  0  0  0
  152.1008  139.9007  156.7488 N   0  0  0  0  0  0  0  0  0  0  0  0
  151.4105  141.0162  157.0004 C   0  0  0  0  0  0  0  0  0  0  0  0
  150.3079  141.6115  156.1856 C   0  0  2  0  0  0  0  0  0  0  0  0
  148.9826  141.6946  156.9664 C   0  0  0  0  0  0  0  0  0  0  0  0
  147.9095  142.1986  156.0871 N   0  3  0  0  0  0  0  0  0  0  0  0
  147.7890  141.3855  154.8605 C   0  0  0  0  0  0  0  0  0  0  0  0
  149.1490  141.3000  154.1453 C   0  0  0  0  0  0  0  0  0  0  0  0
  150.1302  140.7835  155.0386 O   0  0  0  0  0  0  0  0  0  0  0  0
  151.7310  141.5914  158.1884 O   0  0  0  0  0  0  0  0  0  0  0  0
  151.8042  142.3640  160.7009 H   0  0  0  0  0  0  0  0  0  0  0  0
  153.0886  143.2337  159.8652 H   0  0  0  0  0  0  0  0  0  0  0  0
  153.3601  142.6036  161.4878 H   0  0  0  0  0  0  0  0  0  0  0  0
  153.1281  140.2852  160.6459 H   0  0  0  0  0  0  0  0  0  0  0  0
  155.2556  140.0801  159.4189 H   0  0  0  0  0  0  0  0  0  0  0  0
  155.4073  141.2389  160.7346 H   0  0  0  0  0  0  0  0  0  0  0  0
  155.2532  141.8086  159.0753 H   0  0  0  0  0  0  0  0  0  0  0  0
  150.6210  142.6075  155.8667 H   0  0  0  0  0  0  0  0  0  0  0  0
  148.7008  140.7104  157.3441 H   0  0  0  0  0  0  0  0  0  0  0  0
  149.0826  142.3541  157.8291 H   0  0  0  0  0  0  0  0  0  0  0  0
  147.0314  142.1864  156.5866 H   0  0  0  0  0  0  0  0  0  0  0  0
  147.4393  140.3868  155.1250 H   0  0  0  0  0  0  0  0  0  0  0  0
  147.0378  141.8271  154.2055 H   0  0  0  0  0  0  0  0  0  0  0  0
  149.0779  140.6415  153.2795 H   0  0  0  0  0  0  0  0  0  0  0  0
  149.4574  142.2795  153.7763 H   0  0  0  0  0  0  0  0  0  0  0  0
  148.1252  143.1498  155.8242 H   0  0  0  0  0  0  0  0  0  0  0  0
  1  2  1  0  0  0  0
  1 15  1  0  0  0  0
  1 16  1  0  0  0  0
  1 17  1  0  0  0  0
  2  3  1  0  0  0  0
  2  4  1  0  0  0  0
  2 18  1  0  0  0  0
  3 19  1  0  0  0  0
  3 20  1  0  0  0  0
  3 21  1  0  0  0  0
  4 14  1  0  0  0  0
  4  5  2  0  0  0  0
  5  6  1  0  0  0  0
  6  7  2  0  0  0  0
  7  8  1  0  0  0  0
  7 14  1  0  0  0  0
  8 13  1  0  0  0  0
  8  9  1  0  0  0  0
  8 22  1  0  0  0  0
  9 10  1  0  0  0  0
  9 23  1  0  0  0  0
  9 24  1  0  0  0  0
 10 11  1  0  0  0  0
 10 25  1  0  0  0  0
 10 30  1  0  0  0  0
 11 12  1  0  0  0  0
 11 26  1  0  0  0  0
 11 27  1  0  0  0  0
 12 13  1  0  0  0  0
 12 28  1  0  0  0  0
 12 29  1  0  0  0  0
M  CHG  1  10   1
M  END
> <s_m_source_file>
AV-unprocessed.smi

> <i_m_source_file_index>
3122

> <i_lp_mmshare_version>
43012

> <i_f3d_flags>
0

> <s_epik_input>
W0NIM11bQ0hdKFtDSDNdKWMxbm5jKG8xKVtDQEBIXTJbQ0gyXVtOSF1bQ0gyXVtDSDJdTzI=

> <s_epik_cmdline>
J2VwaWtfcHl0aG9uJywgJy1waCcsICc3LjAnLCAnLXRuJywgJzgnLCAnLW1hJywgJzIwMCcsICctbWV0YWxfYmluZGluZycsICctaW1hZScsICc8aW5maWxlLm1hZT4nLCAnLW9tYWUnLCAnPG91dGZpbGUubWFlPic=

> <r_lp_tautomer_probability>
1

> <r_epik_Ionization_Penalty>
0.0380945

> <r_epik_Ionization_Penalty_Charging>
0.0380945

> <r_epik_Ionization_Penalty_Neutral>
3.26791e-13

> <r_epik_State_Penalty>
0.0319257

> <r_epik_Charging_Adjusted_Penalty>
0.0700202

> <i_epik_Tot_Q>
1

> <i_epik_Tot_abs_Q>
1

> <r_epik_Metal_State_Penalty>
0.0319257

> <b_epik_Metal_Only>
0

> <s_lp_Force_Field>
OPLS_2005

> <r_lp_Energy>
10.6056

> <b_lp_Chiralities_Consistent>
1

> <s_lp_Variant>
AV-unprocessed.smi:3122-1

> <Gold.Version>
5.8.1

> <Gold.Id.Protein>
6NUR|6NUR_protein|mol2

> <Gold.PLP.Fitness>
35.8314

> <Gold.PLP.PLP>
-25.8799

> <Gold.PLP.part.hbond>
-3.2603

> <Gold.PLP.part.metal>
0.0000

> <Gold.PLP.part.buried>
-1.0311

> <Gold.PLP.part.nonpolar>
-20.6210

> <Gold.PLP.part.repulsive>
0.1372

> <Gold.PLP.ligand.clash>
0.0000

> <Gold.PLP.ligand.torsion>
0.1344

> <Gold.PLP.Chemscore.Hbond>
3.3746

> <Gold.PLP.Chemscore.CHOScore>
0.0000

> <Gold.PLP.Chemscore.Metal>
0.0000

> <Gold.Chemscore.Hbonds>
donor molecule, donor type, donor heavy atom, donor atom, acceptor molecule, acceptor atom, score
      L1  H    10    30       P1  8028  2.00
      P1  H  7989  7998       L1    13  0.29
      P1  H  7997  8010       L1     5  1.00

> <Gold.PLP.Chemscore.Internal.Correction>
0.0966

> <Gold.Rescore>
     Score         DG    S(hbond)    S(metal)    S(lipo)     H(rot)  DE(clash)    DE(int)     intcor
     12.21     -12.78       1.17        0.00      56.61       1.26       0.02       0.54       ----

> <Gold.Chemscore.Fitness>
12.2124

> <Gold.Chemscore.DG>
-12.7760

> <Gold.Chemscore.ZeroCoef>
-5.4800

> <Gold.Chemscore.Hbond>
1.1690

> <Gold.Chemscore.Metal>
0.0000

> <Gold.Chemscore.Lipo>
56.6132

> <Gold.Chemscore.Internal_Hbond>
0.0000

> <Gold.Chemscore.DEClash>
0.0203

> <Gold.Chemscore.DEInternal>
0.5433

> <Gold.Chemscore.Rot>
1.2625

> <Gold.Chemscore.Internal.Correction>
   9.000000E+99

> <Gold.Chemscore.Hbonds>
donor molecule, donor type, donor heavy atom, donor atom, acceptor molecule, acceptor atom, score
      L1  H    10    30       P1  8028  0.74
      P1  H  7989  7998       L1    13  0.01
      P1  H  7997  8010       L1     5  0.18

> <Gold.Chemscore.Hbond.Weighted>
-3.9043

> <Gold.Chemscore.Metal.Weighted>
-0.0000

> <Gold.Chemscore.Lipo.Weighted>
-6.6237

> <Gold.Chemscore.Internal_Hbond.Weighted>
0.0000

> <Gold.Chemscore.DEClash.Weighted>
0.0203

> <Gold.Chemscore.DEInternal.Weighted>
0.5433

> <Gold.Chemscore.Rot.Weighted>
3.2320

> <Gold.Chemscore.Internal.Correction.Weighted>
   9.000000E+99

> <Gold.Protein.RotatedTorsions>
[ 6907 6896 6895 6894 ] final  105.25 input  -60.11 | X-H torsion
[ 7974 7965 7964 7962 ] final  177.41 input  175.53 | X-H torsion
[ 8008 7997 7996 7995 ] final   36.38 input   59.86 | X-H torsion
[ 10167 10162 10161 10158 ] final  -56.84 input  -65.29 | X-H torsion
[ 10718 10713 10712 10709 ] final  -45.91 input   66.30 | X-H torsion
[ 10763 10752 10751 10750 ] final  -27.60 input  -60.55 | X-H torsion
[ 11005 11000 10999 10996 ] final  157.73 input  -57.11 | X-H torsion

> <Gold.Protein.ActiveResidues>
 VAL166  LYS551  ARG553  GLY616  TRP617  ASP618  TYR619  PRO620  LYS621  CYS622 
 ASP623  PHE694  ASN695  SER759  ASP760  ASP761  ALA762  ILE779  LEU786  VAL792 
 PHE793  MET794  SER795  GLU796  ALA797  LYS798  CYS799  TRP800  GLU811  SER814 

> <Gold.Protein.RotatedAtoms>
  152.5237  133.9556  159.7692 H   0  0  0  0  0  0  0  0  0  0  0  0  # atno 6907 bound_to 6896
  150.9857  133.6192  159.2723 H   0  0  0  0  0  0  0  0  0  0  0  0  # atno 6908 bound_to 6896
  151.3353  135.0857  159.9405 H   0  0  0  0  0  0  0  0  0  0  0  0  # atno 6909 bound_to 6896
  144.7169  140.0243  143.6439 H   0  0  0  0  0  0  0  0  0  0  0  0  # atno 7974 bound_to 7965
  155.1865  140.3304  155.4366 H   0  0  0  0  0  0  0  0  0  0  0  0  # atno 8008 bound_to 7997
  156.2458  140.1918  156.6910 H   0  0  0  0  0  0  0  0  0  0  0  0  # atno 8009 bound_to 7997
  154.6235  140.0592  156.9630 H   0  0  0  0  0  0  0  0  0  0  0  0  # atno 8010 bound_to 7997
  140.6294  143.2452  151.5281 H   0  0  0  0  0  0  0  0  0  0  0  0  # atno 10167 bound_to 10162
  156.2236  130.4168  149.8962 H   0  0  0  0  0  0  0  0  0  0  0  0  # atno 10718 bound_to 10713
  153.7347  135.6936  153.4981 H   0  0  0  0  0  0  0  0  0  0  0  0  # atno 10763 bound_to 10752
  153.2111  135.4402  155.0379 H   0  0  0  0  0  0  0  0  0  0  0  0  # atno 10764 bound_to 10752
  154.8241  135.3437  154.6875 H   0  0  0  0  0  0  0  0  0  0  0  0  # atno 10765 bound_to 10752
  140.1797  134.8484  157.2788 H   0  0  0  0  0  0  0  0  0  0  0  0  # atno 11005 bound_to 11000
  146.0155  139.3206  143.0844 LP  0  0  0  0  0  0  0  0  0  0  0  0  # atno 17320 bound_to 7965
  145.8631  140.9464  143.0689 LP  0  0  0  0  0  0  0  0  0  0  0  0  # atno 17321 bound_to 7965
  139.5510  144.2397  152.1529 LP  0  0  0  0  0  0  0  0  0  0  0  0  # atno 17342 bound_to 10162
  140.1636  144.5002  150.6618 LP  0  0  0  0  0  0  0  0  0  0  0  0  # atno 17343 bound_to 10162
  156.6600  130.8778  151.3546 LP  0  0  0  0  0  0  0  0  0  0  0  0  # atno 17370 bound_to 10713
  157.7099  130.9428  150.1055 LP  0  0  0  0  0  0  0  0  0  0  0  0  # atno 17371 bound_to 10713
  140.2281  134.3942  155.7534 LP  0  0  0  0  0  0  0  0  0  0  0  0  # atno 17394 bound_to 11000
  141.2222  133.7201  156.8598 LP  0  0  0  0  0  0  0  0  0  0  0  0  # atno 17395 bound_to 11000

$$$$
