AV-unprocessed.smi:1777|AV-procd|sdf|7177|dock3
  -GOLD-   22720 8413D 1   1.00000     0.00000
 Structure written by MMmdl.
 37 38  0  0  0  0  0  0  0  0  1 V2000
  144.3130  136.3358  152.2718 O   0  0  0  0  0  0  0  0  0  0  0  0
  145.5392  136.2309  152.2475 C   0  0  0  0  0  0  0  0  0  0  0  0
  146.3710  137.1532  152.7530 N   0  0  0  0  0  0  0  0  0  0  0  0
  145.9710  138.4027  153.3989 C   0  0  0  0  0  0  0  0  0  0  0  0
  147.0728  139.4916  153.3597 C   0  0  0  0  0  0  0  0  0  0  0  0
  147.3297  139.7605  151.9930 O   0  0  0  0  0  0  0  0  0  0  0  0
  146.6634  140.8068  154.0714 C   0  0  0  0  0  0  0  0  0  0  0  0
  147.8084  141.8324  154.1512 C   0  0  0  0  0  0  0  0  0  0  0  0
  149.0609  141.2281  154.7996 C   0  0  0  0  0  0  0  0  0  0  0  0
  149.5106  139.9679  154.0484 C   0  0  0  0  0  0  0  0  0  0  0  0
  148.3772  138.9290  153.9746 C   0  0  0  0  0  0  0  0  0  0  0  0
  146.2231  135.2125  151.6978 N   0  0  0  0  0  0  0  0  0  0  0  0
  145.7209  134.0471  151.0574 C   0  0  0  0  0  0  0  0  0  0  0  0
  144.3241  133.9375  150.8951 C   0  0  0  0  0  0  0  0  0  0  0  0
  143.8023  132.7988  150.2496 C   0  0  0  0  0  0  0  0  0  0  0  0
  144.5728  131.8025  149.7651 N   0  0  0  0  0  0  0  0  0  0  0  0
  145.9103  131.9157  149.9078 C   0  0  0  0  0  0  0  0  0  0  0  0
  146.5343  133.0112  150.5375 C   0  0  0  0  0  0  0  0  0  0  0  0
  147.3640  136.9884  152.6756 H   0  0  0  0  0  0  0  0  0  0  0  0
  145.0603  138.7838  152.9339 H   0  0  0  0  0  0  0  0  0  0  0  0
  145.6989  138.1794  154.4312 H   0  0  0  0  0  0  0  0  0  0  0  0
  148.2504  139.6232  151.8306 H   0  0  0  0  0  0  0  0  0  0  0  0
  145.8124  141.2686  153.5698 H   0  0  0  0  0  0  0  0  0  0  0  0
  146.3298  140.5749  155.0838 H   0  0  0  0  0  0  0  0  0  0  0  0
  148.0516  142.1926  153.1509 H   0  0  0  0  0  0  0  0  0  0  0  0
  147.4825  142.7042  154.7191 H   0  0  0  0  0  0  0  0  0  0  0  0
  149.8665  141.9629  154.8112 H   0  0  0  0  0  0  0  0  0  0  0  0
  148.8520  140.9803  155.8411 H   0  0  0  0  0  0  0  0  0  0  0  0
  149.8363  140.2358  153.0426 H   0  0  0  0  0  0  0  0  0  0  0  0
  150.3784  139.5325  154.5444 H   0  0  0  0  0  0  0  0  0  0  0  0
  148.1720  138.5730  154.9850 H   0  0  0  0  0  0  0  0  0  0  0  0
  148.7150  138.0571  153.4125 H   0  0  0  0  0  0  0  0  0  0  0  0
  147.2274  135.3116  151.6852 H   0  0  0  0  0  0  0  0  0  0  0  0
  143.6599  134.7064  151.2623 H   0  0  0  0  0  0  0  0  0  0  0  0
  142.7364  132.6867  150.1180 H   0  0  0  0  0  0  0  0  0  0  0  0
  146.5037  131.1099  149.5015 H   0  0  0  0  0  0  0  0  0  0  0  0
  147.6112  133.0383  150.5965 H   0  0  0  0  0  0  0  0  0  0  0  0
  1  2  2  0  0  0  0
  2  3  1  0  0  0  0
  2 12  1  0  0  0  0
  3  4  1  0  0  0  0
  3 19  1  0  0  0  0
  4  5  1  0  0  0  0
  4 20  1  0  0  0  0
  4 21  1  0  0  0  0
  5 11  1  0  0  0  0
  5  6  1  0  0  0  0
  5  7  1  0  0  0  0
  6 22  1  0  0  0  0
  7  8  1  0  0  0  0
  7 23  1  0  0  0  0
  7 24  1  0  0  0  0
  8  9  1  0  0  0  0
  8 25  1  0  0  0  0
  8 26  1  0  0  0  0
  9 10  1  0  0  0  0
  9 27  1  0  0  0  0
  9 28  1  0  0  0  0
 10 11  1  0  0  0  0
 10 29  1  0  0  0  0
 10 30  1  0  0  0  0
 11 31  1  0  0  0  0
 11 32  1  0  0  0  0
 12 13  1  0  0  0  0
 12 33  1  0  0  0  0
 13 18  1  0  0  0  0
 13 14  2  0  0  0  0
 14 15  1  0  0  0  0
 14 34  1  0  0  0  0
 15 16  2  0  0  0  0
 15 35  1  0  0  0  0
 16 17  1  0  0  0  0
 17 18  2  0  0  0  0
 17 36  1  0  0  0  0
 18 37  1  0  0  0  0
M  END
> <s_m_source_file>
AV-unprocessed.smi

> <i_m_source_file_index>
1777

> <i_lp_mmshare_version>
43012

> <i_f3d_flags>
0

> <s_epik_input>
W2NIXTFbY0hdbltjSF1bY0hdYzFbTkhdQyg9TylbTkhdW0NIMl1DMihbT0hdKVtDSDJdW0NIMl1bQ0gyXVtDSDJdW0NIMl0y

> <s_epik_cmdline>
J2VwaWtfcHl0aG9uJywgJy1waCcsICc3LjAnLCAnLXRuJywgJzgnLCAnLW1hJywgJzIwMCcsICctbWV0YWxfYmluZGluZycsICctaW1hZScsICc8aW5maWxlLm1hZT4nLCAnLW9tYWUnLCAnPG91dGZpbGUubWFlPic=

> <r_epik_Ionization_Penalty>
0.127626

> <r_epik_Ionization_Penalty_Charging>
0

> <r_epik_Ionization_Penalty_Neutral>
0.127626

> <r_epik_State_Penalty>
0.11702

> <r_epik_Charging_Adjusted_Penalty>
0.11702

> <i_epik_Tot_Q>
0

> <i_epik_Tot_abs_Q>
0

> <r_epik_Metal_State_Penalty>
0.0961027

> <b_epik_Metal_Only>
0

> <s_lp_Force_Field>
OPLS_2005

> <r_lp_Energy>
19.312

> <b_lp_Chiralities_Consistent>
1

> <s_lp_Variant>
AV-unprocessed.smi:1777-1

> <Gold.Version>
5.8.1

> <Gold.Id.Protein>
6NUR|6NUR_protein|mol2

> <Gold.PLP.Fitness>
47.8994

> <Gold.PLP.PLP>
-33.7412

> <Gold.PLP.part.hbond>
-3.4355

> <Gold.PLP.part.metal>
0.0000

> <Gold.PLP.part.buried>
-2.5495

> <Gold.PLP.part.nonpolar>
-29.3389

> <Gold.PLP.part.repulsive>
0.4007

> <Gold.PLP.ligand.clash>
0.0000

> <Gold.PLP.ligand.torsion>
0.1755

> <Gold.PLP.Chemscore.Hbond>
3.0645

> <Gold.PLP.Chemscore.CHOScore>
1.7694

> <Gold.PLP.Chemscore.Metal>
0.0000

> <Gold.Chemscore.Hbonds>
donor molecule, donor type, donor heavy atom, donor atom, acceptor molecule, acceptor atom, score
      L1  H     3    19       P1  7948  1.00
      L1  H     6    22       P1  7957  1.00
      L1  H    12    33       P1  7948  1.00
      P1  H 10785 10796       L1    16  0.07
      L1  C    15    35       P1 10186  1.00
      L1  C    17    36       P1 10747  0.70

> <Gold.PLP.Chemscore.Internal.Correction>
0.0074

> <Gold.Rescore>
     Score         DG    S(hbond)    S(metal)    S(lipo)     H(rot)  DE(clash)    DE(int)     intcor
     18.81     -20.78       2.95        0.00      84.54       1.74       0.36       1.62       ----

> <Gold.Chemscore.Fitness>
18.8057

> <Gold.Chemscore.DG>
-20.7802

> <Gold.Chemscore.ZeroCoef>
-5.4800

> <Gold.Chemscore.Hbond>
2.9512

> <Gold.Chemscore.Metal>
0.0000

> <Gold.Chemscore.Lipo>
84.5374

> <Gold.Chemscore.Internal_Hbond>
0.0000

> <Gold.Chemscore.DEClash>
0.3574

> <Gold.Chemscore.DEInternal>
1.6171

> <Gold.Chemscore.Rot>
1.7374

> <Gold.Chemscore.Internal.Correction>
   9.000000E+99

> <Gold.Chemscore.Hbonds>
donor molecule, donor type, donor heavy atom, donor atom, acceptor molecule, acceptor atom, score
      L1  H     3    19       P1  7948  0.97
      L1  H     6    22       P1  7957  0.89
      L1  H    12    33       P1  7948  0.96
      P1  H 10785 10796       L1    16  0.06

> <Gold.Chemscore.Hbond.Weighted>
-9.8571

> <Gold.Chemscore.Metal.Weighted>
-0.0000

> <Gold.Chemscore.Lipo.Weighted>
-9.8909

> <Gold.Chemscore.Internal_Hbond.Weighted>
0.0000

> <Gold.Chemscore.DEClash.Weighted>
0.3574

> <Gold.Chemscore.DEInternal.Weighted>
1.6171

> <Gold.Chemscore.Rot.Weighted>
4.4478

> <Gold.Chemscore.Internal.Correction.Weighted>
   9.000000E+99

> <Gold.Protein.RotatedTorsions>
[ 6907 6896 6895 6894 ] final -176.24 input  -60.11 | X-H torsion
[ 7974 7965 7964 7962 ] final  -61.19 input  175.53 | X-H torsion
[ 8008 7997 7996 7995 ] final -114.34 input   59.86 | X-H torsion
[ 10167 10162 10161 10158 ] final  -99.37 input  -65.29 | X-H torsion
[ 10718 10713 10712 10709 ] final  -48.82 input   66.30 | X-H torsion
[ 10763 10752 10751 10750 ] final  173.07 input  -60.55 | X-H torsion
[ 11005 11000 10999 10996 ] final    4.93 input  -57.11 | X-H torsion

> <Gold.Protein.ActiveResidues>
 VAL166  LYS551  ARG553  GLY616  TRP617  ASP618  TYR619  PRO620  LYS621  CYS622 
 ASP623  PHE694  ASN695  SER759  ASP760  ASP761  ALA762  ILE779  LEU786  VAL792 
 PHE793  MET794  SER795  GLU796  ALA797  LYS798  CYS799  TRP800  GLU811  SER814 

> <Gold.Protein.RotatedAtoms>
  151.6016  133.3356  159.3048 H   0  0  0  0  0  0  0  0  0  0  0  0  # atno 6907 bound_to 6896
  150.8205  134.7413  159.6779 H   0  0  0  0  0  0  0  0  0  0  0  0  # atno 6908 bound_to 6896
  152.4298  134.5804  159.9998 H   0  0  0  0  0  0  0  0  0  0  0  0  # atno 6909 bound_to 6896
  145.8065  140.8624  143.0204 H   0  0  0  0  0  0  0  0  0  0  0  0  # atno 7974 bound_to 7965
  155.0348  140.0392  157.2487 H   0  0  0  0  0  0  0  0  0  0  0  0  # atno 8008 bound_to 7997
  154.7266  140.2722  155.6470 H   0  0  0  0  0  0  0  0  0  0  0  0  # atno 8009 bound_to 7997
  156.2830  140.2692  156.1953 H   0  0  0  0  0  0  0  0  0  0  0  0  # atno 8010 bound_to 7997
  140.2632  143.3394  152.0606 H   0  0  0  0  0  0  0  0  0  0  0  0  # atno 10167 bound_to 10162
  156.1952  130.4154  149.9316 H   0  0  0  0  0  0  0  0  0  0  0  0  # atno 10718 bound_to 10713
  154.4349  135.2760  155.1887 H   0  0  0  0  0  0  0  0  0  0  0  0  # atno 10763 bound_to 10752
  154.3778  135.6094  153.5778 H   0  0  0  0  0  0  0  0  0  0  0  0  # atno 10764 bound_to 10752
  152.9838  135.5873  154.4667 H   0  0  0  0  0  0  0  0  0  0  0  0  # atno 10765 bound_to 10752
  140.5764  134.0054  155.8029 H   0  0  0  0  0  0  0  0  0  0  0  0  # atno 11005 bound_to 11000
  144.6762  140.0334  143.7482 LP  0  0  0  0  0  0  0  0  0  0  0  0  # atno 17320 bound_to 7965
  145.9823  139.2950  143.1035 LP  0  0  0  0  0  0  0  0  0  0  0  0  # atno 17321 bound_to 7965
  139.5010  144.6705  151.6253 LP  0  0  0  0  0  0  0  0  0  0  0  0  # atno 17342 bound_to 10162
  140.5949  143.9713  150.6348 LP  0  0  0  0  0  0  0  0  0  0  0  0  # atno 17343 bound_to 10162
  156.7044  130.8945  151.3603 LP  0  0  0  0  0  0  0  0  0  0  0  0  # atno 17370 bound_to 10713
  157.6953  130.9275  150.0627 LP  0  0  0  0  0  0  0  0  0  0  0  0  # atno 17371 bound_to 10713
  141.1024  133.9748  157.3056 LP  0  0  0  0  0  0  0  0  0  0  0  0  # atno 17394 bound_to 11000
  139.9337  135.0198  156.8487 LP  0  0  0  0  0  0  0  0  0  0  0  0  # atno 17395 bound_to 11000

$$$$
