AV-unprocessed.smi:670|AV-procd|sdf|3267|dock2
  -GOLD-   22720 0223D 1   1.00000     0.00000
 Structure written by MMmdl.
 44 45  0  0  0  0  0  0  0  0  2 V2000
  152.2164  141.1391  159.4012 C   0  0  0  0  0  0  0  0  0  0  0  0
  152.0850  140.7216  157.9286 C   0  0  2  0  0  0  0  0  0  0  0  0
  151.0629  141.5994  157.1789 C   0  0  0  0  0  0  0  0  0  0  0  0
  150.9697  141.2148  155.6938 C   0  0  0  0  0  0  0  0  0  0  0  0
  150.6424  139.7239  155.5221 C   0  0  0  0  0  0  0  0  0  0  0  0
  151.6535  138.8391  156.2708 C   0  0  0  0  0  0  0  0  0  0  0  0
  151.7584  139.2187  157.7596 C   0  0  2  0  0  0  0  0  0  0  0  0
  150.5091  138.9199  158.3720 O   0  0  0  0  0  0  0  0  0  0  0  0
  150.4003  137.5952  158.8705 C   0  0  0  0  0  0  0  0  0  0  0  0
  148.9145  137.2446  159.0325 C   0  0  0  0  0  0  0  0  0  0  0  0
  148.6969  136.3237  160.1420 N   0  0  0  0  0  0  0  0  0  0  0  0
  147.8509  136.5246  161.1635 C   0  0  0  0  0  0  0  0  0  0  0  0
  147.1520  137.5318  161.2785 O   0  0  0  0  0  0  0  0  0  0  0  0
  147.7696  135.4047  162.2067 C   0  0  0  0  0  0  0  0  0  0  0  0
  146.4236  134.8229  162.2879 N   0  0  0  0  0  0  0  0  0  0  0  0
  145.3843  135.7945  162.6194 N   0  5  0  0  0  0  0  0  0  0  0  0
  144.0915  135.3818  162.6973 C   0  0  0  0  0  0  0  0  0  0  0  0
  143.1633  136.1438  162.9577 O   0  0  0  0  0  0  0  0  0  0  0  0
  143.8069  133.9760  162.4629 C   0  0  0  0  0  0  0  0  0  0  0  0
  144.7878  133.0984  162.1737 C   0  0  0  0  0  0  0  0  0  0  0  0
  146.1868  133.4970  162.0735 C   0  0  0  0  0  0  0  0  0  0  0  0
  147.0866  132.6986  161.8131 O   0  0  0  0  0  0  0  0  0  0  0  0
  151.2656  141.0502  159.9265 H   0  0  0  0  0  0  0  0  0  0  0  0
  152.5421  142.1761  159.4857 H   0  0  0  0  0  0  0  0  0  0  0  0
  152.9470  140.5206  159.9231 H   0  0  0  0  0  0  0  0  0  0  0  0
  153.0591  140.8920  157.4674 H   0  0  0  0  0  0  0  0  0  0  0  0
  150.0807  141.5027  157.6437 H   0  0  0  0  0  0  0  0  0  0  0  0
  151.3405  142.6505  157.2651 H   0  0  0  0  0  0  0  0  0  0  0  0
  150.2088  141.8207  155.2012 H   0  0  0  0  0  0  0  0  0  0  0  0
  151.9141  141.4414  155.1977 H   0  0  0  0  0  0  0  0  0  0  0  0
  149.6363  139.5265  155.8945 H   0  0  0  0  0  0  0  0  0  0  0  0
  150.6344  139.4647  154.4633 H   0  0  0  0  0  0  0  0  0  0  0  0
  151.3734  137.7897  156.1730 H   0  0  0  0  0  0  0  0  0  0  0  0
  152.6338  138.9387  155.8028 H   0  0  0  0  0  0  0  0  0  0  0  0
  152.5603  138.6238  158.2020 H   0  0  0  0  0  0  0  0  0  0  0  0
  150.8709  136.9051  158.1690 H   0  0  0  0  0  0  0  0  0  0  0  0
  150.9212  137.4931  159.8232 H   0  0  0  0  0  0  0  0  0  0  0  0
  148.3359  138.1501  159.2162 H   0  0  0  0  0  0  0  0  0  0  0  0
  148.5275  136.8100  158.1096 H   0  0  0  0  0  0  0  0  0  0  0  0
  149.2339  135.4681  160.1399 H   0  0  0  0  0  0  0  0  0  0  0  0
  148.5013  134.6326  161.9628 H   0  0  0  0  0  0  0  0  0  0  0  0
  148.0790  135.7972  163.1775 H   0  0  0  0  0  0  0  0  0  0  0  0
  142.7863  133.6274  162.5237 H   0  0  0  0  0  0  0  0  0  0  0  0
  144.5301  132.0629  162.0079 H   0  0  0  0  0  0  0  0  0  0  0  0
  1  2  1  0  0  0  0
  1 23  1  0  0  0  0
  1 24  1  0  0  0  0
  1 25  1  0  0  0  0
  2  7  1  0  0  0  0
  2  3  1  0  0  0  0
  2 26  1  0  0  0  0
  3  4  1  0  0  0  0
  3 27  1  0  0  0  0
  3 28  1  0  0  0  0
  4  5  1  0  0  0  0
  4 29  1  0  0  0  0
  4 30  1  0  0  0  0
  5  6  1  0  0  0  0
  5 31  1  0  0  0  0
  5 32  1  0  0  0  0
  6  7  1  0  0  0  0
  6 33  1  0  0  0  0
  6 34  1  0  0  0  0
  7  8  1  0  0  0  0
  7 35  1  0  0  0  0
  8  9  1  0  0  0  0
  9 10  1  0  0  0  0
  9 36  1  0  0  0  0
  9 37  1  0  0  0  0
 10 11  1  0  0  0  0
 10 38  1  0  0  0  0
 10 39  1  0  0  0  0
 11 12  1  0  0  0  0
 11 40  1  0  0  0  0
 12 13  2  0  0  0  0
 12 14  1  0  0  0  0
 14 41  1  0  0  0  0
 14 42  1  0  0  0  0
 14 15  1  0  0  0  0
 15 16  1  0  0  0  0
 15 21  1  0  0  0  0
 16 17  1  0  0  0  0
 17 18  2  0  0  0  0
 17 19  1  0  0  0  0
 19 43  1  0  0  0  0
 19 20  2  0  0  0  0
 20 44  1  0  0  0  0
 20 21  1  0  0  0  0
 21 22  2  0  0  0  0
M  CHG  1  16  -1
M  END
> <s_m_source_file>
AV-unprocessed.smi

> <i_m_source_file_index>
670

> <i_lp_mmshare_version>
43012

> <i_f3d_flags>
0

> <s_epik_input>
W0NIM11bQ0BASF0xW0NIMl1bQ0gyXVtDSDJdW0NIMl1bQ0BIXTFPW0NIMl1bQ0gyXVtOSF1DKD1PKVtDSDJdbjJbbkhdYyg9TylbY0hdW2NIXWMyPU8=

> <s_epik_cmdline>
J2VwaWtfcHl0aG9uJywgJy1waCcsICc3LjAnLCAnLXRuJywgJzgnLCAnLW1hJywgJzIwMCcsICctbWV0YWxfYmluZGluZycsICctaW1hZScsICc8aW5maWxlLm1hZT4nLCAnLW9tYWUnLCAnPG91dGZpbGUubWFlPic=

> <r_lp_tautomer_probability>
1

> <r_epik_Ionization_Penalty>
0.0975638

> <r_epik_Ionization_Penalty_Charging>
0.0975637

> <r_epik_Ionization_Penalty_Neutral>
2.78599e-08

> <r_epik_State_Penalty>
0.0343507

> <r_epik_Charging_Adjusted_Penalty>
0.131914

> <i_epik_Tot_Q>
-1

> <i_epik_Tot_abs_Q>
1

> <r_epik_Metal_State_Penalty>
0.0343507

> <b_epik_Metal_Only>
0

> <s_lp_Force_Field>
OPLS_2005

> <r_lp_Energy>
29.4365

> <b_lp_Chiralities_Consistent>
1

> <s_lp_Variant>
AV-unprocessed.smi:670-3

> <Gold.Version>
5.8.1

> <Gold.Id.Protein>
6NUR|6NUR_protein|mol2

> <Gold.PLP.Fitness>
40.6560

> <Gold.PLP.PLP>
-38.8770

> <Gold.PLP.part.hbond>
-1.9422

> <Gold.PLP.part.metal>
0.0000

> <Gold.PLP.part.buried>
-4.9443

> <Gold.PLP.part.nonpolar>
-30.5582

> <Gold.PLP.part.repulsive>
0.2918

> <Gold.PLP.ligand.clash>
0.0000

> <Gold.PLP.ligand.torsion>
0.6791

> <Gold.PLP.Chemscore.Hbond>
1.0235

> <Gold.PLP.Chemscore.CHOScore>
0.0000

> <Gold.PLP.Chemscore.Metal>
0.0000

> <Gold.Chemscore.Hbonds>
donor molecule, donor type, donor heavy atom, donor atom, acceptor molecule, acceptor atom, score
      P1  H  6934  6947       L1    13  0.99

> <Gold.PLP.Chemscore.Internal.Correction>
0.0669

> <Gold.Rescore>
     Score         DG    S(hbond)    S(metal)    S(lipo)     H(rot)  DE(clash)    DE(int)     intcor
      9.28     -11.19       0.97        0.00      74.65       2.45       0.02       1.89       ----

> <Gold.Chemscore.Fitness>
9.2845

> <Gold.Chemscore.DG>
-11.1948

> <Gold.Chemscore.ZeroCoef>
-5.4800

> <Gold.Chemscore.Hbond>
0.9731

> <Gold.Chemscore.Metal>
0.0000

> <Gold.Chemscore.Lipo>
74.6507

> <Gold.Chemscore.Internal_Hbond>
0.0000

> <Gold.Chemscore.DEClash>
0.0164

> <Gold.Chemscore.DEInternal>
1.8939

> <Gold.Chemscore.Rot>
2.4490

> <Gold.Chemscore.Internal.Correction>
   9.000000E+99

> <Gold.Chemscore.Hbonds>
donor molecule, donor type, donor heavy atom, donor atom, acceptor molecule, acceptor atom, score
      P1  H  6934  6947       L1    13  0.90

> <Gold.Chemscore.Hbond.Weighted>
-3.2501

> <Gold.Chemscore.Metal.Weighted>
-0.0000

> <Gold.Chemscore.Lipo.Weighted>
-8.7341

> <Gold.Chemscore.Internal_Hbond.Weighted>
0.0000

> <Gold.Chemscore.DEClash.Weighted>
0.0164

> <Gold.Chemscore.DEInternal.Weighted>
1.8939

> <Gold.Chemscore.Rot.Weighted>
6.2694

> <Gold.Chemscore.Internal.Correction.Weighted>
   9.000000E+99

> <Gold.Protein.RotatedTorsions>
[ 6907 6896 6895 6894 ] final  162.93 input  -60.11 | X-H torsion
[ 7974 7965 7964 7962 ] final  124.84 input  175.53 | X-H torsion
[ 8008 7997 7996 7995 ] final  126.94 input   59.86 | X-H torsion
[ 10167 10162 10161 10158 ] final  138.73 input  -65.29 | X-H torsion
[ 10718 10713 10712 10709 ] final -157.01 input   66.30 | X-H torsion
[ 10763 10752 10751 10750 ] final  121.84 input  -60.55 | X-H torsion
[ 11005 11000 10999 10996 ] final  -15.34 input  -57.11 | X-H torsion

> <Gold.Protein.ActiveResidues>
 VAL166  LYS551  ARG553  GLY616  TRP617  ASP618  TYR619  PRO620  LYS621  CYS622 
 ASP623  PHE694  ASN695  SER759  ASP760  ASP761  ALA762  ILE779  LEU786  VAL792 
 PHE793  MET794  SER795  GLU796  ALA797  LYS798  CYS799  TRP800  GLU811  SER814 

> <Gold.Protein.RotatedAtoms>
  151.9330  133.3616  159.3937 H   0  0  0  0  0  0  0  0  0  0  0  0  # atno 6907 bound_to 6896
  150.7013  134.4518  159.5349 H   0  0  0  0  0  0  0  0  0  0  0  0  # atno 6908 bound_to 6896
  152.2161  134.8456  160.0542 H   0  0  0  0  0  0  0  0  0  0  0  0  # atno 6909 bound_to 6896
  145.0798  139.3666  143.4915 H   0  0  0  0  0  0  0  0  0  0  0  0  # atno 7974 bound_to 7965
  156.2877  140.2681  156.2192 H   0  0  0  0  0  0  0  0  0  0  0  0  # atno 8008 bound_to 7997
  155.0185  140.0386  157.2446 H   0  0  0  0  0  0  0  0  0  0  0  0  # atno 8009 bound_to 7997
  154.7456  140.2733  155.6341 H   0  0  0  0  0  0  0  0  0  0  0  0  # atno 8010 bound_to 7997
  139.5101  144.6336  151.5754 H   0  0  0  0  0  0  0  0  0  0  0  0  # atno 10167 bound_to 10162
  156.5343  130.8535  151.2727 H   0  0  0  0  0  0  0  0  0  0  0  0  # atno 10718 bound_to 10713
  153.6204  135.3414  155.3009 H   0  0  0  0  0  0  0  0  0  0  0  0  # atno 10763 bound_to 10752
  154.8601  135.4271  154.2213 H   0  0  0  0  0  0  0  0  0  0  0  0  # atno 10764 bound_to 10752
  153.3085  135.7030  153.7210 H   0  0  0  0  0  0  0  0  0  0  0  0  # atno 10765 bound_to 10752
  140.7956  133.8254  155.9421 H   0  0  0  0  0  0  0  0  0  0  0  0  # atno 11005 bound_to 11000
  146.3531  140.0583  142.8631 LP  0  0  0  0  0  0  0  0  0  0  0  0  # atno 17320 bound_to 7965
  145.1192  140.9452  143.4610 LP  0  0  0  0  0  0  0  0  0  0  0  0  # atno 17321 bound_to 7965
  140.6077  143.9493  150.6431 LP  0  0  0  0  0  0  0  0  0  0  0  0  # atno 17342 bound_to 10162
  140.2726  143.3445  152.1224 LP  0  0  0  0  0  0  0  0  0  0  0  0  # atno 17343 bound_to 10162
  157.7416  130.9874  150.2459 LP  0  0  0  0  0  0  0  0  0  0  0  0  # atno 17370 bound_to 10713
  156.3030  130.3761  149.7732 LP  0  0  0  0  0  0  0  0  0  0  0  0  # atno 17371 bound_to 10713
  140.9346  134.1978  157.4840 LP  0  0  0  0  0  0  0  0  0  0  0  0  # atno 17394 bound_to 11000
  139.8726  134.9847  156.5250 LP  0  0  0  0  0  0  0  0  0  0  0  0  # atno 17395 bound_to 11000

$$$$
