AV-unprocessed.smi:3314|AV-procd|sdf|12739|dock3
  -GOLD-   2272019 83D 1   1.00000     0.00000
 Structure written by MMmdl.
 38 39  0  0  0  0  0  0  0  0  2 V2000
  154.0557  141.0330  161.0141 C   0  0  0  0  0  0  0  0  0  0  0  0
  153.0854  141.7321  160.0839 C   0  0  0  0  0  0  0  0  0  0  0  0
  153.0718  143.1820  159.9900 C   0  0  0  0  0  0  0  0  0  0  0  0
  152.2004  143.7833  159.1629 C   0  0  0  0  0  0  0  0  0  0  0  0
  152.1157  145.2865  158.9968 C   0  0  0  0  0  0  0  0  0  0  0  0
  151.3127  143.0371  158.3971 N   0  0  0  0  0  0  0  0  0  0  0  0
  151.2701  141.6321  158.4239 C   0  0  0  0  0  0  0  0  0  0  0  0
  150.4703  140.8861  157.7187 N   0  0  0  0  0  0  0  0  0  0  0  0
  149.5258  141.4115  156.8406 C   0  0  0  0  0  0  0  0  0  0  0  0
  148.4067  141.8710  157.0863 O   0  0  0  0  0  0  0  0  0  0  0  0
  150.0324  141.3890  155.3821 C   0  0  2  0  0  0  0  0  0  0  0  0
  148.9962  140.9055  154.3384 C   0  0  0  0  0  0  0  0  0  0  0  0
  148.7541  139.4474  154.4548 N   0  3  1  0  0  0  0  0  0  0  0  0
  147.7307  138.9618  153.5051 C   0  0  0  0  0  0  0  0  0  0  0  0
  150.0246  138.6940  154.3597 C   0  0  0  0  0  0  0  0  0  0  0  0
  151.0232  139.1946  155.4152 C   0  0  0  0  0  0  0  0  0  0  0  0
  151.2208  140.5993  155.2599 O   0  0  0  0  0  0  0  0  0  0  0  0
  152.2223  141.0100  159.3312 C   0  0  0  0  0  0  0  0  0  0  0  0
  154.6704  141.7515  161.5568 H   0  0  0  0  0  0  0  0  0  0  0  0
  154.7176  140.3771  160.4482 H   0  0  0  0  0  0  0  0  0  0  0  0
  153.5142  140.4299  161.7432 H   0  0  0  0  0  0  0  0  0  0  0  0
  153.7579  143.7737  160.5786 H   0  0  0  0  0  0  0  0  0  0  0  0
  153.0663  145.6793  158.6351 H   0  0  0  0  0  0  0  0  0  0  0  0
  151.8913  145.7596  159.9530 H   0  0  0  0  0  0  0  0  0  0  0  0
  151.3383  145.5692  158.2859 H   0  0  0  0  0  0  0  0  0  0  0  0
  150.3034  142.4164  155.1359 H   0  0  0  0  0  0  0  0  0  0  0  0
  148.0563  141.4484  154.4496 H   0  0  0  0  0  0  0  0  0  0  0  0
  149.3620  141.1281  153.3347 H   0  0  0  0  0  0  0  0  0  0  0  0
  148.0527  139.1053  152.4728 H   0  0  0  0  0  0  0  0  0  0  0  0
  146.7905  139.4951  153.6479 H   0  0  0  0  0  0  0  0  0  0  0  0
  147.5370  137.8997  153.6587 H   0  0  0  0  0  0  0  0  0  0  0  0
  149.8353  137.6298  154.5048 H   0  0  0  0  0  0  0  0  0  0  0  0
  150.4469  138.8124  153.3606 H   0  0  0  0  0  0  0  0  0  0  0  0
  150.6785  138.9550  156.4217 H   0  0  0  0  0  0  0  0  0  0  0  0
  151.9821  138.6919  155.2895 H   0  0  0  0  0  0  0  0  0  0  0  0
  152.2622  139.9341  159.4265 H   0  0  0  0  0  0  0  0  0  0  0  0
  150.6937  143.5649  157.7986 H   0  0  0  0  0  0  0  0  0  0  0  0
  148.3880  139.2864  155.3826 H   0  0  0  0  0  0  0  0  0  0  0  0
  1  2  1  0  0  0  0
  1 19  1  0  0  0  0
  1 20  1  0  0  0  0
  1 21  1  0  0  0  0
  2 18  2  0  0  0  0
  2  3  1  0  0  0  0
  3  4  2  0  0  0  0
  3 22  1  0  0  0  0
  4  5  1  0  0  0  0
  4  6  1  0  0  0  0
  5 23  1  0  0  0  0
  5 24  1  0  0  0  0
  5 25  1  0  0  0  0
  6  7  1  0  0  0  0
  6 37  1  0  0  0  0
  7  8  2  0  0  0  0
  7 18  1  0  0  0  0
  8  9  1  0  0  0  0
  9 10  2  0  0  0  0
  9 11  1  0  0  0  0
 11 17  1  0  0  0  0
 11 12  1  0  0  0  0
 11 26  1  0  0  0  0
 12 13  1  0  0  0  0
 12 27  1  0  0  0  0
 12 28  1  0  0  0  0
 13 14  1  0  0  0  0
 13 15  1  0  0  0  0
 13 38  1  0  0  0  0
 14 29  1  0  0  0  0
 14 30  1  0  0  0  0
 14 31  1  0  0  0  0
 15 16  1  0  0  0  0
 15 32  1  0  0  0  0
 15 33  1  0  0  0  0
 16 17  1  0  0  0  0
 16 34  1  0  0  0  0
 16 35  1  0  0  0  0
 18 36  1  0  0  0  0
M  CHG  1  13   1
M  END
> <s_m_source_file>
AV-unprocessed.smi

> <i_m_source_file_index>
3314

> <i_lp_mmshare_version>
43012

> <i_f3d_flags>
0

> <s_epik_input>
W0NIM11jMVtjSF1jKFtDSDNdKW5jKFtjSF0xKVtOSF1DKD1PKVtDQEBIXTJbQ0gyXU4oW0NIM10pW0NIMl1bQ0gyXU8y

> <s_epik_cmdline>
J2VwaWtfcHl0aG9uJywgJy1waCcsICc3LjAnLCAnLXRuJywgJzgnLCAnLW1hJywgJzIwMCcsICctbWV0YWxfYmluZGluZycsICctaW1hZScsICc8aW5maWxlLm1hZT4nLCAnLW9tYWUnLCAnPG91dGZpbGUubWFlPic=

> <r_epik_Ionization_Penalty>
0.519783

> <r_epik_Ionization_Penalty_Charging>
0.519783

> <r_epik_Ionization_Penalty_Neutral>
1.74183e-13

> <r_epik_State_Penalty>
2.39351

> <r_epik_Charging_Adjusted_Penalty>
2.91329

> <i_epik_Tot_Q>
1

> <i_epik_Tot_abs_Q>
1

> <r_epik_Metal_State_Penalty>
2.41924

> <b_epik_Metal_Only>
0

> <s_lp_Force_Field>
OPLS_2005

> <r_lp_Energy>
32.167

> <b_lp_Chiralities_Consistent>
1

> <s_lp_Variant>
AV-unprocessed.smi:3314-9

> <Gold.Version>
5.8.1

> <Gold.Id.Protein>
6NUR|6NUR_protein|mol2

> <Gold.PLP.Fitness>
40.5045

> <Gold.PLP.PLP>
-39.8899

> <Gold.PLP.part.hbond>
-1.0000

> <Gold.PLP.part.metal>
0.0000

> <Gold.PLP.part.buried>
-4.3012

> <Gold.PLP.part.nonpolar>
-34.5869

> <Gold.PLP.part.repulsive>
0.2935

> <Gold.PLP.ligand.clash>
0.0000

> <Gold.PLP.ligand.torsion>
1.0472

> <Gold.PLP.Chemscore.Hbond>
0.8960

> <Gold.PLP.Chemscore.CHOScore>
0.0000

> <Gold.PLP.Chemscore.Metal>
0.0000

> <Gold.Chemscore.Hbonds>
donor molecule, donor type, donor heavy atom, donor atom, acceptor molecule, acceptor atom, score
      P1  H  7989  7998       L1    17  0.88

> <Gold.PLP.Chemscore.Internal.Correction>
0.0210

> <Gold.Rescore>
     Score         DG    S(hbond)    S(metal)    S(lipo)     H(rot)  DE(clash)    DE(int)     intcor
     14.43     -16.67       0.70        0.00      97.54       1.00       0.00       2.25       ----

> <Gold.Chemscore.Fitness>
14.4255

> <Gold.Chemscore.DG>
-16.6737

> <Gold.Chemscore.ZeroCoef>
-5.4800

> <Gold.Chemscore.Hbond>
0.7012

> <Gold.Chemscore.Metal>
0.0000

> <Gold.Chemscore.Lipo>
97.5368

> <Gold.Chemscore.Internal_Hbond>
0.0000

> <Gold.Chemscore.DEClash>
0.0000

> <Gold.Chemscore.DEInternal>
2.2481

> <Gold.Chemscore.Rot>
1.0000

> <Gold.Chemscore.Internal.Correction>
   9.000000E+99

> <Gold.Chemscore.Hbonds>
donor molecule, donor type, donor heavy atom, donor atom, acceptor molecule, acceptor atom, score
      P1  H  7989  7998       L1    17  0.16

> <Gold.Chemscore.Hbond.Weighted>
-2.3419

> <Gold.Chemscore.Metal.Weighted>
-0.0000

> <Gold.Chemscore.Lipo.Weighted>
-11.4118

> <Gold.Chemscore.Internal_Hbond.Weighted>
0.0000

> <Gold.Chemscore.DEClash.Weighted>
0.0000

> <Gold.Chemscore.DEInternal.Weighted>
2.2481

> <Gold.Chemscore.Rot.Weighted>
2.5600

> <Gold.Chemscore.Internal.Correction.Weighted>
   9.000000E+99

> <Gold.Protein.RotatedTorsions>
[ 6907 6896 6895 6894 ] final   81.22 input  -60.11 | X-H torsion
[ 7974 7965 7964 7962 ] final  158.70 input  175.53 | X-H torsion
[ 8008 7997 7996 7995 ] final   42.60 input   59.86 | X-H torsion
[ 10167 10162 10161 10158 ] final  -88.80 input  -65.29 | X-H torsion
[ 10718 10713 10712 10709 ] final   99.73 input   66.30 | X-H torsion
[ 10763 10752 10751 10750 ] final   90.81 input  -60.55 | X-H torsion
[ 11005 11000 10999 10996 ] final  143.06 input  -57.11 | X-H torsion

> <Gold.Protein.ActiveResidues>
 VAL166  LYS551  ARG553  GLY616  TRP617  ASP618  TYR619  PRO620  LYS621  CYS622 
 ASP623  PHE694  ASN695  SER759  ASP760  ASP761  ALA762  ILE779  LEU786  VAL792 
 PHE793  MET794  SER795  GLU796  ALA797  LYS798  CYS799  TRP800  GLU811  SER814 

> <Gold.Protein.RotatedAtoms>
  152.5261  134.3238  159.9157 H   0  0  0  0  0  0  0  0  0  0  0  0  # atno 6907 bound_to 6896
  151.3187  133.4043  159.2660 H   0  0  0  0  0  0  0  0  0  0  0  0  # atno 6908 bound_to 6896
  150.9977  134.9314  159.7993 H   0  0  0  0  0  0  0  0  0  0  0  0  # atno 6909 bound_to 6896
  144.7831  139.7514  143.6252 H   0  0  0  0  0  0  0  0  0  0  0  0  # atno 7974 bound_to 7965
  155.2888  140.3377  155.4253 H   0  0  0  0  0  0  0  0  0  0  0  0  # atno 8008 bound_to 7997
  156.2055  140.1749  156.7848 H   0  0  0  0  0  0  0  0  0  0  0  0  # atno 8009 bound_to 7997
  154.5615  140.0686  156.8811 H   0  0  0  0  0  0  0  0  0  0  0  0  # atno 8010 bound_to 7997
  140.3711  143.2794  151.9499 H   0  0  0  0  0  0  0  0  0  0  0  0  # atno 10167 bound_to 10162
  157.6870  131.0678  150.4992 H   0  0  0  0  0  0  0  0  0  0  0  0  # atno 10718 bound_to 10713
  153.2015  135.4420  155.0272 H   0  0  0  0  0  0  0  0  0  0  0  0  # atno 10763 bound_to 10752
  154.8149  135.3311  154.7205 H   0  0  0  0  0  0  0  0  0  0  0  0  # atno 10764 bound_to 10752
  153.7650  135.6989  153.4973 H   0  0  0  0  0  0  0  0  0  0  0  0  # atno 10765 bound_to 10752
  140.0525  134.9248  157.1042 H   0  0  0  0  0  0  0  0  0  0  0  0  # atno 11005 bound_to 11000
  146.2049  139.5368  142.9719 LP  0  0  0  0  0  0  0  0  0  0  0  0  # atno 17320 bound_to 7965
  145.5995  141.0357  143.2026 LP  0  0  0  0  0  0  0  0  0  0  0  0  # atno 17321 bound_to 7965
  139.4803  144.5906  151.7779 LP  0  0  0  0  0  0  0  0  0  0  0  0  # atno 17342 bound_to 10162
  140.5032  144.1137  150.5976 LP  0  0  0  0  0  0  0  0  0  0  0  0  # atno 17343 bound_to 10162
  156.5315  130.4186  149.6199 LP  0  0  0  0  0  0  0  0  0  0  0  0  # atno 17370 bound_to 10713
  156.3065  130.7205  151.2089 LP  0  0  0  0  0  0  0  0  0  0  0  0  # atno 17371 bound_to 10713
  140.3895  134.2200  155.7167 LP  0  0  0  0  0  0  0  0  0  0  0  0  # atno 17394 bound_to 11000
  141.1937  133.8145  157.0789 LP  0  0  0  0  0  0  0  0  0  0  0  0  # atno 17395 bound_to 11000

$$$$
