AV-unprocessed.smi:618|AV-procd|sdf|3081|dock1
  -GOLD-   22720 0 03D 1   1.00000     0.00000
 Structure written by MMmdl.
 41 43  0  0  0  0  0  0  0  0  2 V2000
  152.4524  134.5323  154.4496 O   0  0  0  0  0  0  0  0  0  0  0  0
  151.5731  134.9471  153.6950 C   0  0  0  0  0  0  0  0  0  0  0  0
  150.6247  134.1621  153.1647 N   0  0  0  0  0  0  0  0  0  0  0  0
  150.4959  132.7266  153.3963 C   0  0  0  0  0  0  0  0  0  0  0  0
  149.3595  132.1098  152.5611 C   0  0  1  0  0  0  0  0  0  0  0  0
  149.0394  130.6642  153.0115 C   0  0  0  0  0  0  0  0  0  0  0  0
  147.8751  130.1846  152.2443 N   0  3  1  0  0  0  0  0  0  0  0  0
  147.3914  128.8146  152.4874 C   0  0  0  0  0  0  0  0  0  0  0  0
  145.9132  128.8353  152.0484 C   0  0  0  0  0  0  0  0  0  0  0  0
  145.5901  130.3082  151.7355 C   0  0  0  0  0  0  0  0  0  0  0  0
  146.7184  131.0631  152.4304 C   0  0  2  0  0  0  0  0  0  0  0  0
  147.0724  132.4677  151.9272 C   0  0  0  0  0  0  0  0  0  0  0  0
  148.1889  132.9258  152.6911 O   0  0  0  0  0  0  0  0  0  0  0  0
  151.4161  136.2260  153.3130 N   0  0  0  0  0  0  0  0  0  0  0  0
  152.2114  137.3526  153.6558 C   0  0  0  0  0  0  0  0  0  0  0  0
  153.3726  137.2903  154.4639 C   0  0  0  0  0  0  0  0  0  0  0  0
  154.0874  138.4764  154.7188 C   0  0  0  0  0  0  0  0  0  0  0  0
  153.6216  139.6781  154.1513 C   0  0  0  0  0  0  0  0  0  0  0  0
  152.5253  139.7498  153.3673 N   0  0  0  0  0  0  0  0  0  0  0  0
  151.8454  138.6086  153.1265 C   0  0  0  0  0  0  0  0  0  0  0  0
  149.9429  134.5879  152.5537 H   0  0  0  0  0  0  0  0  0  0  0  0
  151.4447  132.2672  153.1183 H   0  0  0  0  0  0  0  0  0  0  0  0
  150.3526  132.5147  154.4574 H   0  0  0  0  0  0  0  0  0  0  0  0
  149.6606  132.0961  151.5118 H   0  0  0  0  0  0  0  0  0  0  0  0
  149.8915  130.0071  152.8342 H   0  0  0  0  0  0  0  0  0  0  0  0
  148.8192  130.6324  154.0799 H   0  0  0  0  0  0  0  0  0  0  0  0
  147.9833  128.0859  151.9328 H   0  0  0  0  0  0  0  0  0  0  0  0
  147.4643  128.5755  153.5494 H   0  0  0  0  0  0  0  0  0  0  0  0
  145.7430  128.2059  151.1742 H   0  0  0  0  0  0  0  0  0  0  0  0
  145.2775  128.4601  152.8517 H   0  0  0  0  0  0  0  0  0  0  0  0
  145.6309  130.4770  150.6584 H   0  0  0  0  0  0  0  0  0  0  0  0
  144.6026  130.6095  152.0871 H   0  0  0  0  0  0  0  0  0  0  0  0
  146.4880  131.1163  153.4970 H   0  0  0  0  0  0  0  0  0  0  0  0
  147.3143  132.4652  150.8632 H   0  0  0  0  0  0  0  0  0  0  0  0
  146.2344  133.1498  152.0713 H   0  0  0  0  0  0  0  0  0  0  0  0
  150.5966  136.4282  152.7592 H   0  0  0  0  0  0  0  0  0  0  0  0
  153.7348  136.3625  154.8786 H   0  0  0  0  0  0  0  0  0  0  0  0
  154.9764  138.4638  155.3317 H   0  0  0  0  0  0  0  0  0  0  0  0
  154.1472  140.6050  154.3271 H   0  0  0  0  0  0  0  0  0  0  0  0
  150.9753  138.7038  152.4934 H   0  0  0  0  0  0  0  0  0  0  0  0
  148.1170  130.2329  151.2647 H   0  0  0  0  0  0  0  0  0  0  0  0
  1  2  2  0  0  0  0
  2  3  1  0  0  0  0
  2 14  1  0  0  0  0
  3  4  1  0  0  0  0
  3 21  1  0  0  0  0
  4  5  1  0  0  0  0
  4 22  1  0  0  0  0
  4 23  1  0  0  0  0
  5 13  1  0  0  0  0
  5  6  1  0  0  0  0
  5 24  1  0  0  0  0
  6  7  1  0  0  0  0
  6 25  1  0  0  0  0
  6 26  1  0  0  0  0
  7 11  1  0  0  0  0
  7  8  1  0  0  0  0
  7 41  1  0  0  0  0
  8  9  1  0  0  0  0
  8 27  1  0  0  0  0
  8 28  1  0  0  0  0
  9 10  1  0  0  0  0
  9 29  1  0  0  0  0
  9 30  1  0  0  0  0
 10 11  1  0  0  0  0
 10 31  1  0  0  0  0
 10 32  1  0  0  0  0
 11 12  1  0  0  0  0
 11 33  1  0  0  0  0
 12 13  1  0  0  0  0
 12 34  1  0  0  0  0
 12 35  1  0  0  0  0
 14 15  1  0  0  0  0
 14 36  1  0  0  0  0
 15 20  1  0  0  0  0
 15 16  2  0  0  0  0
 16 17  1  0  0  0  0
 16 37  1  0  0  0  0
 17 18  2  0  0  0  0
 17 38  1  0  0  0  0
 18 19  1  0  0  0  0
 18 39  1  0  0  0  0
 19 20  2  0  0  0  0
 20 40  1  0  0  0  0
M  CHG  1   7   1
M  END
> <s_m_source_file>
AV-unprocessed.smi

> <i_m_source_file_index>
618

> <i_lp_mmshare_version>
43012

> <i_f3d_flags>
0

> <s_epik_input>
W2NIXTFuW2NIXVtjSF1bY0hdYzFbTkhdQyg9TylbTkhdW0NIMl1bQ0BIXShbQ0gyXTIpT1tDSDJdW0NAQEhdKE4yMylbQ0gyXVtDSDJdW0NIMl0z

> <s_epik_cmdline>
J2VwaWtfcHl0aG9uJywgJy1waCcsICc3LjAnLCAnLXRuJywgJzgnLCAnLW1hJywgJzIwMCcsICctbWV0YWxfYmluZGluZycsICctaW1hZScsICc8aW5maWxlLm1hZT4nLCAnLW9tYWUnLCAnPG91dGZpbGUubWFlPic=

> <r_epik_Ionization_Penalty>
0.111044

> <r_epik_Ionization_Penalty_Charging>
0.10673

> <r_epik_Ionization_Penalty_Neutral>
0.00431361

> <r_epik_State_Penalty>
0.0978747

> <r_epik_Charging_Adjusted_Penalty>
0.204605

> <i_epik_Tot_Q>
1

> <i_epik_Tot_abs_Q>
1

> <r_epik_Metal_State_Penalty>
0.0947591

> <b_epik_Metal_Only>
0

> <s_lp_Force_Field>
OPLS_2005

> <r_lp_Energy>
39.3215

> <b_lp_Chiralities_Consistent>
1

> <s_lp_Variant>
AV-unprocessed.smi:618-8

> <Gold.Version>
5.8.1

> <Gold.Id.Protein>
6NUR|6NUR_protein|mol2

> <Gold.PLP.Fitness>
54.4929

> <Gold.PLP.PLP>
-38.3464

> <Gold.PLP.part.hbond>
-5.7891

> <Gold.PLP.part.metal>
0.0000

> <Gold.PLP.part.buried>
-2.0693

> <Gold.PLP.part.nonpolar>
-29.5612

> <Gold.PLP.part.repulsive>
0.3796

> <Gold.PLP.ligand.clash>
0.0000

> <Gold.PLP.ligand.torsion>
0.0819

> <Gold.PLP.Chemscore.Hbond>
4.4936

> <Gold.PLP.Chemscore.CHOScore>
0.9424

> <Gold.PLP.Chemscore.Metal>
0.0000

> <Gold.Chemscore.Hbonds>
donor molecule, donor type, donor heavy atom, donor atom, acceptor molecule, acceptor atom, score
      L1  H     7    41       P1 10747  0.68
      P1  H  7989  7998       L1    19  0.05
      L1  C    20    40       P1  7949  0.03
      L1  C    20    40       P1  7957  0.37

> <Gold.PLP.Chemscore.Internal.Correction>
0.0022

> <Gold.Rescore>
     Score         DG    S(hbond)    S(metal)    S(lipo)     H(rot)  DE(clash)    DE(int)     intcor
     17.94     -19.28       2.12        0.00      85.06       1.27       0.02       1.32       ----

> <Gold.Chemscore.Fitness>
17.9374

> <Gold.Chemscore.DG>
-19.2848

> <Gold.Chemscore.ZeroCoef>
-5.4800

> <Gold.Chemscore.Hbond>
2.1236

> <Gold.Chemscore.Metal>
0.0000

> <Gold.Chemscore.Lipo>
85.0570

> <Gold.Chemscore.Internal_Hbond>
0.0000

> <Gold.Chemscore.DEClash>
0.0235

> <Gold.Chemscore.DEInternal>
1.3238

> <Gold.Chemscore.Rot>
1.2656

> <Gold.Chemscore.Internal.Correction>
   9.000000E+99

> <Gold.Chemscore.Hbonds>
donor molecule, donor type, donor heavy atom, donor atom, acceptor molecule, acceptor atom, score
      L1  H     7    41       P1 10747  0.66
      P1  H  7989  7998       L1    19  0.05

> <Gold.Chemscore.Hbond.Weighted>
-7.0930

> <Gold.Chemscore.Metal.Weighted>
-0.0000

> <Gold.Chemscore.Lipo.Weighted>
-9.9517

> <Gold.Chemscore.Internal_Hbond.Weighted>
0.0000

> <Gold.Chemscore.DEClash.Weighted>
0.0235

> <Gold.Chemscore.DEInternal.Weighted>
1.3238

> <Gold.Chemscore.Rot.Weighted>
3.2399

> <Gold.Chemscore.Internal.Correction.Weighted>
   9.000000E+99

> <Gold.Protein.RotatedTorsions>
[ 6907 6896 6895 6894 ] final  -76.72 input  -60.11 | X-H torsion
[ 7974 7965 7964 7962 ] final -176.07 input  175.53 | X-H torsion
[ 8008 7997 7996 7995 ] final  -94.68 input   59.86 | X-H torsion
[ 10167 10162 10161 10158 ] final  -18.50 input  -65.29 | X-H torsion
[ 10718 10713 10712 10709 ] final -117.77 input   66.30 | X-H torsion
[ 10763 10752 10751 10750 ] final -169.27 input  -60.55 | X-H torsion
[ 11005 11000 10999 10996 ] final -120.36 input  -57.11 | X-H torsion

> <Gold.Protein.ActiveResidues>
 VAL166  LYS551  ARG553  GLY616  TRP617  ASP618  TYR619  PRO620  LYS621  CYS622 
 ASP623  PHE694  ASN695  SER759  ASP760  ASP761  ALA762  ILE779  LEU786  VAL792 
 PHE793  MET794  SER795  GLU796  ALA797  LYS798  CYS799  TRP800  GLU811  SER814 

> <Gold.Protein.RotatedAtoms>
  150.7019  134.4529  159.5344 H   0  0  0  0  0  0  0  0  0  0  0  0  # atno 6907 bound_to 6896
  152.2218  134.8402  160.0494 H   0  0  0  0  0  0  0  0  0  0  0  0  # atno 6908 bound_to 6896
  151.9250  133.3560  159.3947 H   0  0  0  0  0  0  0  0  0  0  0  0  # atno 6909 bound_to 6896
  144.7127  140.1226  143.6404 H   0  0  0  0  0  0  0  0  0  0  0  0  # atno 7974 bound_to 7965
  154.7515  140.0487  157.0897 H   0  0  0  0  0  0  0  0  0  0  0  0  # atno 8008 bound_to 7997
  155.0051  140.3129  155.4832 H   0  0  0  0  0  0  0  0  0  0  0  0  # atno 8009 bound_to 7997
  156.2886  140.2194  156.5163 H   0  0  0  0  0  0  0  0  0  0  0  0  # atno 8010 bound_to 7997
  140.7259  143.4910  150.9991 H   0  0  0  0  0  0  0  0  0  0  0  0  # atno 10167 bound_to 10162
  156.1058  130.6209  150.9207 H   0  0  0  0  0  0  0  0  0  0  0  0  # atno 10718 bound_to 10713
  154.6541  135.2915  154.9950 H   0  0  0  0  0  0  0  0  0  0  0  0  # atno 10763 bound_to 10752
  154.1033  135.6573  153.4876 H   0  0  0  0  0  0  0  0  0  0  0  0  # atno 10764 bound_to 10752
  153.0392  135.5247  154.7462 H   0  0  0  0  0  0  0  0  0  0  0  0  # atno 10765 bound_to 10752
  141.0149  134.0210  157.3363 H   0  0  0  0  0  0  0  0  0  0  0  0  # atno 11005 bound_to 11000
  145.9358  139.2636  143.1298 LP  0  0  0  0  0  0  0  0  0  0  0  0  # atno 17320 bound_to 7965
  145.9476  140.8933  143.0276 LP  0  0  0  0  0  0  0  0  0  0  0  0  # atno 17321 bound_to 7965
  139.8615  143.7309  152.3173 LP  0  0  0  0  0  0  0  0  0  0  0  0  # atno 17342 bound_to 10162
  139.7526  144.7530  151.0484 LP  0  0  0  0  0  0  0  0  0  0  0  0  # atno 17343 bound_to 10162
  157.6234  131.0928  150.8579 LP  0  0  0  0  0  0  0  0  0  0  0  0  # atno 17370 bound_to 10713
  156.8698  130.5142  149.5297 LP  0  0  0  0  0  0  0  0  0  0  0  0  # atno 17371 bound_to 10713
  139.9111  135.0190  156.7695 LP  0  0  0  0  0  0  0  0  0  0  0  0  # atno 17394 bound_to 11000
  140.6671  133.9592  155.7836 LP  0  0  0  0  0  0  0  0  0  0  0  0  # atno 17395 bound_to 11000

$$$$
