AV-unprocessed.smi:2217|AV-procd|sdf|8972|dock8
  -GOLD-   2272012183D 1   1.00000     0.00000
 Structure written by MMmdl.
 45 48  0  0  0  0  0  0  0  0  1 V2000
  151.1080  143.0696  157.6881 C   0  0  0  0  0  0  0  0  0  0  0  0
  151.9167  142.7706  158.9329 C   0  0  0  0  0  0  0  0  0  0  0  0
  152.5428  141.5233  159.1147 C   0  0  0  0  0  0  0  0  0  0  0  0
  153.2866  141.3026  160.2898 C   0  0  0  0  0  0  0  0  0  0  0  0
  153.3869  142.3275  161.2580 C   0  0  0  0  0  0  0  0  0  0  0  0
  154.1736  141.9876  162.3981 N   0  0  0  0  0  0  0  0  0  0  0  0
  154.3901  142.6384  163.5614 C   0  0  0  0  0  0  0  0  0  0  0  0
  153.8657  143.7279  163.7864 O   0  0  0  0  0  0  0  0  0  0  0  0
  155.2007  142.0296  164.4407 N   0  0  0  0  0  0  0  0  0  0  0  0
  155.5340  142.5449  165.7632 C   0  0  2  0  0  0  0  0  0  0  0  0
  156.4879  143.7481  165.6973 C   0  0  1  0  0  0  0  0  0  0  0  0
  156.0157  145.1016  166.1528 C   0  0  0  0  0  0  0  0  0  0  0  0
  156.5044  145.1627  167.6027 C   0  0  0  0  0  0  0  0  0  0  0  0
  156.6834  143.7993  167.9804 O   0  0  0  0  0  0  0  0  0  0  0  0
  157.2358  143.1125  166.8598 C   0  0  1  0  0  0  0  0  0  0  0  0
  156.6231  141.7392  166.5103 C   0  0  0  0  0  0  0  0  0  0  0  0
  157.5388  140.7946  165.7261 C   0  0  0  0  0  0  0  0  0  0  0  0
  158.2970  139.9677  166.7645 C   0  0  0  0  0  0  0  0  0  0  0  0
  157.3755  139.9095  167.9863 C   0  0  0  0  0  0  0  0  0  0  0  0
  156.2005  140.8429  167.6719 C   0  0  0  0  0  0  0  0  0  0  0  0
  152.7797  143.5270  161.0696 N   0  0  0  0  0  0  0  0  0  0  0  0
  152.0676  143.7394  159.9431 C   0  0  0  0  0  0  0  0  0  0  0  0
  150.9460  142.1684  157.0961 H   0  0  0  0  0  0  0  0  0  0  0  0
  151.6292  143.7986  157.0674 H   0  0  0  0  0  0  0  0  0  0  0  0
  150.1340  143.4795  157.9568 H   0  0  0  0  0  0  0  0  0  0  0  0
  152.4591  140.7466  158.3687 H   0  0  0  0  0  0  0  0  0  0  0  0
  153.7753  140.3509  160.4419 H   0  0  0  0  0  0  0  0  0  0  0  0
  154.6930  141.1272  162.3014 H   0  0  0  0  0  0  0  0  0  0  0  0
  155.5951  141.1362  164.1810 H   0  0  0  0  0  0  0  0  0  0  0  0
  154.6665  142.7474  166.3957 H   0  0  0  0  0  0  0  0  0  0  0  0
  157.0934  143.7563  164.7888 H   0  0  0  0  0  0  0  0  0  0  0  0
  156.4293  145.9141  165.5549 H   0  0  0  0  0  0  0  0  0  0  0  0
  154.9283  145.1702  166.1068 H   0  0  0  0  0  0  0  0  0  0  0  0
  157.4650  145.6765  167.6615 H   0  0  0  0  0  0  0  0  0  0  0  0
  155.8031  145.6736  168.2624 H   0  0  0  0  0  0  0  0  0  0  0  0
  158.3217  143.1907  166.7894 H   0  0  0  0  0  0  0  0  0  0  0  0
  156.9515  140.1176  165.1048 H   0  0  0  0  0  0  0  0  0  0  0  0
  158.2206  141.3250  165.0606 H   0  0  0  0  0  0  0  0  0  0  0  0
  158.5547  138.9768  166.3893 H   0  0  0  0  0  0  0  0  0  0  0  0
  159.2270  140.4715  167.0311 H   0  0  0  0  0  0  0  0  0  0  0  0
  157.0248  138.8949  168.1779 H   0  0  0  0  0  0  0  0  0  0  0  0
  157.9094  140.2463  168.8757 H   0  0  0  0  0  0  0  0  0  0  0  0
  155.9005  141.4101  168.5532 H   0  0  0  0  0  0  0  0  0  0  0  0
  155.3352  140.2470  167.3790 H   0  0  0  0  0  0  0  0  0  0  0  0
  151.6072  144.7118  159.8461 H   0  0  0  0  0  0  0  0  0  0  0  0
  1  2  1  0  0  0  0
  1 23  1  0  0  0  0
  1 24  1  0  0  0  0
  1 25  1  0  0  0  0
  2 22  1  0  0  0  0
  2  3  2  0  0  0  0
  3  4  1  0  0  0  0
  3 26  1  0  0  0  0
  4  5  2  0  0  0  0
  4 27  1  0  0  0  0
  5  6  1  0  0  0  0
  5 21  1  0  0  0  0
  6  7  1  0  0  0  0
  6 28  1  0  0  0  0
  7  8  2  0  0  0  0
  7  9  1  0  0  0  0
  9 10  1  0  0  0  0
  9 29  1  0  0  0  0
 10 16  1  0  0  0  0
 10 11  1  0  0  0  0
 10 30  1  0  0  0  0
 11 15  1  0  0  0  0
 11 12  1  0  0  0  0
 11 31  1  0  0  0  0
 12 13  1  0  0  0  0
 12 32  1  0  0  0  0
 12 33  1  0  0  0  0
 13 14  1  0  0  0  0
 13 34  1  0  0  0  0
 13 35  1  0  0  0  0
 14 15  1  0  0  0  0
 15 16  1  0  0  0  0
 15 36  1  0  0  0  0
 16 20  1  0  0  0  0
 16 17  1  0  0  0  0
 17 18  1  0  0  0  0
 17 37  1  0  0  0  0
 17 38  1  0  0  0  0
 18 19  1  0  0  0  0
 18 39  1  0  0  0  0
 18 40  1  0  0  0  0
 19 20  1  0  0  0  0
 19 41  1  0  0  0  0
 19 42  1  0  0  0  0
 20 43  1  0  0  0  0
 20 44  1  0  0  0  0
 21 22  2  0  0  0  0
 22 45  1  0  0  0  0
M  END
> <s_m_source_file>
AV-unprocessed.smi

> <i_m_source_file_index>
2217

> <i_lp_mmshare_version>
43012

> <i_f3d_flags>
0

> <s_epik_input>
W0NIM11jMVtjSF1bY0hdYyhuW2NIXTEpW05IXUMoPU8pW05IXVtDQEBIXTJbQ0BASF0oW0NIMl1bQ0gyXU8zKVtDQEhdM0MyNFtDSDJdW0NIMl1bQ0gyXVtDSDJdNA==

> <s_epik_cmdline>
J2VwaWtfcHl0aG9uJywgJy1waCcsICc3LjAnLCAnLXRuJywgJzgnLCAnLW1hJywgJzIwMCcsICctbWV0YWxfYmluZGluZycsICctaW1hZScsICc8aW5maWxlLm1hZT4nLCAnLW9tYWUnLCAnPG91dGZpbGUubWFlPic=

> <r_lp_tautomer_probability>
1

> <r_epik_Ionization_Penalty>
6.14796e-05

> <r_epik_Ionization_Penalty_Charging>
0

> <r_epik_Ionization_Penalty_Neutral>
6.14796e-05

> <r_epik_State_Penalty>
-0

> <r_epik_Charging_Adjusted_Penalty>
0

> <i_epik_Tot_Q>
0

> <i_epik_Tot_abs_Q>
0

> <r_epik_Metal_State_Penalty>
-0

> <b_epik_Metal_Only>
0

> <s_lp_Force_Field>
OPLS_2005

> <r_lp_Energy>
58.5561

> <b_lp_Chiralities_Consistent>
1

> <s_lp_Variant>
AV-unprocessed.smi:2217-5

> <Gold.Version>
5.8.1

> <Gold.Id.Protein>
6NUR|6NUR_protein|mol2

> <Gold.PLP.Fitness>
40.5495

> <Gold.PLP.PLP>
-40.5834

> <Gold.PLP.part.hbond>
-2.2408

> <Gold.PLP.part.metal>
0.0000

> <Gold.PLP.part.buried>
-4.5250

> <Gold.PLP.part.nonpolar>
-33.2952

> <Gold.PLP.part.repulsive>
0.3621

> <Gold.PLP.ligand.clash>
0.0000

> <Gold.PLP.ligand.torsion>
0.1090

> <Gold.PLP.Chemscore.Hbond>
0.0000

> <Gold.PLP.Chemscore.CHOScore>
0.0000

> <Gold.PLP.Chemscore.Metal>
0.0000

> <Gold.PLP.Chemscore.Internal.Correction>
0.1842

> <Gold.Rescore>
     Score         DG    S(hbond)    S(metal)    S(lipo)     H(rot)  DE(clash)    DE(int)     intcor
     13.60     -15.68       0.00        0.00     109.10       1.00       0.89       1.20       ----

> <Gold.Chemscore.Fitness>
13.5973

> <Gold.Chemscore.DG>
-15.6843

> <Gold.Chemscore.ZeroCoef>
-5.4800

> <Gold.Chemscore.Hbond>
0.0000

> <Gold.Chemscore.Metal>
0.0000

> <Gold.Chemscore.Lipo>
109.0968

> <Gold.Chemscore.Internal_Hbond>
0.0000

> <Gold.Chemscore.DEClash>
0.8853

> <Gold.Chemscore.DEInternal>
1.2017

> <Gold.Chemscore.Rot>
1.0000

> <Gold.Chemscore.Internal.Correction>
   9.000000E+99

> <Gold.Chemscore.Hbond.Weighted>
-0.0000

> <Gold.Chemscore.Metal.Weighted>
-0.0000

> <Gold.Chemscore.Lipo.Weighted>
-12.7643

> <Gold.Chemscore.Internal_Hbond.Weighted>
0.0000

> <Gold.Chemscore.DEClash.Weighted>
0.8853

> <Gold.Chemscore.DEInternal.Weighted>
1.2017

> <Gold.Chemscore.Rot.Weighted>
2.5600

> <Gold.Chemscore.Internal.Correction.Weighted>
   9.000000E+99

> <Gold.Protein.RotatedTorsions>
[ 6907 6896 6895 6894 ] final -179.69 input  -60.11 | X-H torsion
[ 7974 7965 7964 7962 ] final -154.62 input  175.53 | X-H torsion
[ 8008 7997 7996 7995 ] final  122.81 input   59.86 | X-H torsion
[ 10167 10162 10161 10158 ] final   36.79 input  -65.29 | X-H torsion
[ 10718 10713 10712 10709 ] final  -41.99 input   66.30 | X-H torsion
[ 10763 10752 10751 10750 ] final -129.19 input  -60.55 | X-H torsion
[ 11005 11000 10999 10996 ] final   22.94 input  -57.11 | X-H torsion

> <Gold.Protein.ActiveResidues>
 VAL166  LYS551  ARG553  GLY616  TRP617  ASP618  TYR619  PRO620  LYS621  CYS622 
 ASP623  PHE694  ASN695  SER759  ASP760  ASP761  ALA762  ILE779  LEU786  VAL792 
 PHE793  MET794  SER795  GLU796  ALA797  LYS798  CYS799  TRP800  GLU811  SER814 

> <Gold.Protein.RotatedAtoms>
  151.6576  133.3318  159.3166 H   0  0  0  0  0  0  0  0  0  0  0  0  # atno 6907 bound_to 6896
  150.7929  134.6971  159.6538 H   0  0  0  0  0  0  0  0  0  0  0  0  # atno 6908 bound_to 6896
  152.4012  134.6287  160.0121 H   0  0  0  0  0  0  0  0  0  0  0  0  # atno 6909 bound_to 6896
  144.7680  140.4362  143.5928 H   0  0  0  0  0  0  0  0  0  0  0  0  # atno 7974 bound_to 7965
  156.2742  140.2777  156.1528 H   0  0  0  0  0  0  0  0  0  0  0  0  # atno 8008 bound_to 7997
  155.0836  140.0388  157.2664 H   0  0  0  0  0  0  0  0  0  0  0  0  # atno 8009 bound_to 7997
  154.6945  140.2636  155.6786 H   0  0  0  0  0  0  0  0  0  0  0  0  # atno 8010 bound_to 7997
  140.4094  144.1614  150.6138 H   0  0  0  0  0  0  0  0  0  0  0  0  # atno 10167 bound_to 10162
  156.2644  130.4200  149.8507 H   0  0  0  0  0  0  0  0  0  0  0  0  # atno 10718 bound_to 10713
  154.8757  135.3903  154.3879 H   0  0  0  0  0  0  0  0  0  0  0  0  # atno 10763 bound_to 10752
  153.4618  135.7029  153.6051 H   0  0  0  0  0  0  0  0  0  0  0  0  # atno 10764 bound_to 10752
  153.4546  135.3826  155.2272 H   0  0  0  0  0  0  0  0  0  0  0  0  # atno 10765 bound_to 10752
  140.3751  134.1981  155.7665 H   0  0  0  0  0  0  0  0  0  0  0  0  # atno 11005 bound_to 11000
  145.6410  139.1550  143.2915 LP  0  0  0  0  0  0  0  0  0  0  0  0  # atno 17320 bound_to 7965
  146.1804  140.6507  142.9192 LP  0  0  0  0  0  0  0  0  0  0  0  0  # atno 17321 bound_to 7965
  140.4654  143.2433  151.9162 LP  0  0  0  0  0  0  0  0  0  0  0  0  # atno 17342 bound_to 10162
  139.4783  144.5424  151.8508 LP  0  0  0  0  0  0  0  0  0  0  0  0  # atno 17343 bound_to 10162
  156.6011  130.8547  151.3432 LP  0  0  0  0  0  0  0  0  0  0  0  0  # atno 17370 bound_to 10713
  157.7262  130.9626  150.1646 LP  0  0  0  0  0  0  0  0  0  0  0  0  # atno 17371 bound_to 10713
  141.1942  133.8134  157.0768 LP  0  0  0  0  0  0  0  0  0  0  0  0  # atno 17394 bound_to 11000
  140.0521  134.9800  157.1156 LP  0  0  0  0  0  0  0  0  0  0  0  0  # atno 17395 bound_to 11000

$$$$
