AV-unprocessed.smi:959|AV-procd|sdf|4269|dock5
  -GOLD-   22720 2173D 1   1.00000     0.00000
 Structure written by MMmdl.
 33 34  0  0  0  0  0  0  0  0  2 V2000
  152.3779  143.9811  159.2734 C   0  0  0  0  0  0  0  0  0  0  0  0
  152.2541  142.7108  160.1279 C   0  0  0  0  0  0  0  0  0  0  0  0
  153.0126  142.8512  161.4593 C   0  0  0  0  0  0  0  0  0  0  0  0
  152.6803  141.5387  159.3676 N   0  0  0  0  0  0  0  0  0  0  0  0
  153.7754  140.7767  159.5389 C   0  0  0  0  0  0  0  0  0  0  0  0
  153.9135  139.7752  158.6731 N   0  0  0  0  0  0  0  0  0  0  0  0
  152.8243  139.8891  157.8380 N   0  0  0  0  0  0  0  0  0  0  0  0
  152.1420  140.9585  158.2691 C   0  0  0  0  0  0  0  0  0  0  0  0
  150.8773  141.4349  157.6075 C   0  0  2  0  0  0  0  0  0  0  0  0
  149.6694  140.5561  157.9829 C   0  0  0  0  0  0  0  0  0  0  0  0
  148.3983  141.0575  157.2806 C   0  0  0  0  0  0  0  0  0  0  0  0
  148.6104  141.1517  155.7605 C   0  0  0  0  0  0  0  0  0  0  0  0
  149.7741  142.0095  155.4475 N   0  3  0  0  0  0  0  0  0  0  0  0
  151.0275  141.5341  156.0744 C   0  0  0  0  0  0  0  0  0  0  0  0
  152.0230  144.8562  159.8187 H   0  0  0  0  0  0  0  0  0  0  0  0
  151.7902  143.9031  158.3585 H   0  0  0  0  0  0  0  0  0  0  0  0
  153.4141  144.1655  158.9876 H   0  0  0  0  0  0  0  0  0  0  0  0
  151.2057  142.5696  160.3899 H   0  0  0  0  0  0  0  0  0  0  0  0
  152.6028  143.6680  162.0543 H   0  0  0  0  0  0  0  0  0  0  0  0
  154.0707  143.0636  161.3031 H   0  0  0  0  0  0  0  0  0  0  0  0
  152.9351  141.9420  162.0566 H   0  0  0  0  0  0  0  0  0  0  0  0
  154.4975  140.9519  160.3225 H   0  0  0  0  0  0  0  0  0  0  0  0
  150.6631  142.4440  157.9559 H   0  0  0  0  0  0  0  0  0  0  0  0
  149.8578  139.5202  157.6968 H   0  0  0  0  0  0  0  0  0  0  0  0
  149.5228  140.5588  159.0638 H   0  0  0  0  0  0  0  0  0  0  0  0
  147.5638  140.3911  157.5006 H   0  0  0  0  0  0  0  0  0  0  0  0
  148.1242  142.0372  157.6743 H   0  0  0  0  0  0  0  0  0  0  0  0
  148.7707  140.1594  155.3367 H   0  0  0  0  0  0  0  0  0  0  0  0
  147.7240  141.5650  155.2789 H   0  0  0  0  0  0  0  0  0  0  0  0
  149.8994  142.0389  154.4456 H   0  0  0  0  0  0  0  0  0  0  0  0
  151.8328  142.2226  155.8154 H   0  0  0  0  0  0  0  0  0  0  0  0
  151.2871  140.5644  155.6468 H   0  0  0  0  0  0  0  0  0  0  0  0
  149.5824  142.9440  155.7795 H   0  0  0  0  0  0  0  0  0  0  0  0
  1  2  1  0  0  0  0
  1 15  1  0  0  0  0
  1 16  1  0  0  0  0
  1 17  1  0  0  0  0
  2  3  1  0  0  0  0
  2  4  1  0  0  0  0
  2 18  1  0  0  0  0
  3 19  1  0  0  0  0
  3 20  1  0  0  0  0
  3 21  1  0  0  0  0
  4  8  1  0  0  0  0
  4  5  1  0  0  0  0
  5  6  2  0  0  0  0
  5 22  1  0  0  0  0
  6  7  1  0  0  0  0
  7  8  2  0  0  0  0
  8  9  1  0  0  0  0
  9 14  1  0  0  0  0
  9 10  1  0  0  0  0
  9 23  1  0  0  0  0
 10 11  1  0  0  0  0
 10 24  1  0  0  0  0
 10 25  1  0  0  0  0
 11 12  1  0  0  0  0
 11 26  1  0  0  0  0
 11 27  1  0  0  0  0
 12 13  1  0  0  0  0
 12 28  1  0  0  0  0
 12 29  1  0  0  0  0
 13 14  1  0  0  0  0
 13 30  1  0  0  0  0
 13 33  1  0  0  0  0
 14 31  1  0  0  0  0
 14 32  1  0  0  0  0
M  CHG  1  13   1
M  END
> <s_m_source_file>
AV-unprocessed.smi

> <i_m_source_file_index>
959

> <i_lp_mmshare_version>
43012

> <i_f3d_flags>
0

> <s_epik_input>
W0NIM11bQ0hdKFtDSDNdKW4xW2NIXW5uYzFbQ0BASF0yW0NIMl1bQ0gyXVtDSDJdW05IXVtDSDJdMg==

> <s_epik_cmdline>
J2VwaWtfcHl0aG9uJywgJy1waCcsICc3LjAnLCAnLXRuJywgJzgnLCAnLW1hJywgJzIwMCcsICctbWV0YWxfYmluZGluZycsICctaW1hZScsICc8aW5maWxlLm1hZT4nLCAnLW9tYWUnLCAnPG91dGZpbGUubWFlPic=

> <r_lp_tautomer_probability>
1

> <r_epik_Ionization_Penalty>
0.000442722

> <r_epik_Ionization_Penalty_Charging>
0.000426856

> <r_epik_Ionization_Penalty_Neutral>
1.58656e-05

> <r_epik_State_Penalty>
-0

> <r_epik_Charging_Adjusted_Penalty>
0.000426856

> <i_epik_Tot_Q>
1

> <i_epik_Tot_abs_Q>
1

> <r_epik_Metal_State_Penalty>
-0

> <b_epik_Metal_Only>
0

> <s_lp_Force_Field>
OPLS_2005

> <r_lp_Energy>
20.311

> <b_lp_Chiralities_Consistent>
1

> <s_lp_Variant>
AV-unprocessed.smi:959-1

> <Gold.Version>
5.8.1

> <Gold.Id.Protein>
6NUR|6NUR_protein|mol2

> <Gold.PLP.Fitness>
37.2362

> <Gold.PLP.PLP>
-29.9267

> <Gold.PLP.part.hbond>
-3.0000

> <Gold.PLP.part.metal>
0.0000

> <Gold.PLP.part.buried>
-4.3885

> <Gold.PLP.part.nonpolar>
-22.4621

> <Gold.PLP.part.repulsive>
0.1859

> <Gold.PLP.ligand.clash>
0.0000

> <Gold.PLP.ligand.torsion>
0.5850

> <Gold.PLP.Chemscore.Hbond>
2.8024

> <Gold.PLP.Chemscore.CHOScore>
0.0000

> <Gold.PLP.Chemscore.Metal>
0.0000

> <Gold.Chemscore.Hbonds>
donor molecule, donor type, donor heavy atom, donor atom, acceptor molecule, acceptor atom, score
      L1  H    13    33       P1  8028  2.00
      P1  H  7997  8010       L1     6  0.60

> <Gold.PLP.Chemscore.Internal.Correction>
0.0722

> <Gold.Rescore>
     Score         DG    S(hbond)    S(metal)    S(lipo)     H(rot)  DE(clash)    DE(int)     intcor
     12.94     -13.70       1.29        0.00      60.60       1.24       0.03       0.73       ----

> <Gold.Chemscore.Fitness>
12.9414

> <Gold.Chemscore.DG>
-13.7008

> <Gold.Chemscore.ZeroCoef>
-5.4800

> <Gold.Chemscore.Hbond>
1.2857

> <Gold.Chemscore.Metal>
0.0000

> <Gold.Chemscore.Lipo>
60.5985

> <Gold.Chemscore.Internal_Hbond>
0.0000

> <Gold.Chemscore.DEClash>
0.0339

> <Gold.Chemscore.DEInternal>
0.7256

> <Gold.Chemscore.Rot>
1.2357

> <Gold.Chemscore.Internal.Correction>
   9.000000E+99

> <Gold.Chemscore.Hbonds>
donor molecule, donor type, donor heavy atom, donor atom, acceptor molecule, acceptor atom, score
      L1  H    13    33       P1  8028  0.98
      P1  H  7997  8010       L1     6  0.04

> <Gold.Chemscore.Hbond.Weighted>
-4.2942

> <Gold.Chemscore.Metal.Weighted>
-0.0000

> <Gold.Chemscore.Lipo.Weighted>
-7.0900

> <Gold.Chemscore.Internal_Hbond.Weighted>
0.0000

> <Gold.Chemscore.DEClash.Weighted>
0.0339

> <Gold.Chemscore.DEInternal.Weighted>
0.7256

> <Gold.Chemscore.Rot.Weighted>
3.1634

> <Gold.Chemscore.Internal.Correction.Weighted>
   9.000000E+99

> <Gold.Protein.RotatedTorsions>
[ 6907 6896 6895 6894 ] final   54.23 input  -60.11 | X-H torsion
[ 7974 7965 7964 7962 ] final  -23.92 input  175.53 | X-H torsion
[ 8008 7997 7996 7995 ] final    2.43 input   59.86 | X-H torsion
[ 10167 10162 10161 10158 ] final  145.96 input  -65.29 | X-H torsion
[ 10718 10713 10712 10709 ] final  149.74 input   66.30 | X-H torsion
[ 10763 10752 10751 10750 ] final  -87.00 input  -60.55 | X-H torsion
[ 11005 11000 10999 10996 ] final  -96.31 input  -57.11 | X-H torsion

> <Gold.Protein.ActiveResidues>
 VAL166  LYS551  ARG553  GLY616  TRP617  ASP618  TYR619  PRO620  LYS621  CYS622 
 ASP623  PHE694  ASN695  SER759  ASP760  ASP761  ALA762  ILE779  LEU786  VAL792 
 PHE793  MET794  SER795  GLU796  ALA797  LYS798  CYS799  TRP800  GLU811  SER814 

> <Gold.Protein.RotatedAtoms>
  152.3418  134.7125  160.0261 H   0  0  0  0  0  0  0  0  0  0  0  0  # atno 6907 bound_to 6896
  151.7507  133.3322  159.3399 H   0  0  0  0  0  0  0  0  0  0  0  0  # atno 6908 bound_to 6896
  150.7484  134.6127  159.6139 H   0  0  0  0  0  0  0  0  0  0  0  0  # atno 6909 bound_to 6896
  146.1587  140.4681  142.8581 H   0  0  0  0  0  0  0  0  0  0  0  0  # atno 7974 bound_to 7965
  154.6916  140.2654  155.6807 H   0  0  0  0  0  0  0  0  0  0  0  0  # atno 8008 bound_to 7997
  156.2734  140.2790  156.1419 H   0  0  0  0  0  0  0  0  0  0  0  0  # atno 8009 bound_to 7997
  155.0889  140.0373  157.2652 H   0  0  0  0  0  0  0  0  0  0  0  0  # atno 8010 bound_to 7997
  139.4916  144.5864  151.6769 H   0  0  0  0  0  0  0  0  0  0  0  0  # atno 10167 bound_to 10162
  157.2923  131.0855  151.1452 H   0  0  0  0  0  0  0  0  0  0  0  0  # atno 10718 bound_to 10713
  154.6287  135.5429  153.7656 H   0  0  0  0  0  0  0  0  0  0  0  0  # atno 10763 bound_to 10752
  153.0274  135.6430  154.1333 H   0  0  0  0  0  0  0  0  0  0  0  0  # atno 10764 bound_to 10752
  154.1264  135.2917  155.3176 H   0  0  0  0  0  0  0  0  0  0  0  0  # atno 10765 bound_to 10752
  141.1415  133.8089  157.0554 H   0  0  0  0  0  0  0  0  0  0  0  0  # atno 11005 bound_to 11000
  144.7997  140.6190  143.6486 LP  0  0  0  0  0  0  0  0  0  0  0  0  # atno 17320 bound_to 7965
  145.4644  139.1509  143.3848 LP  0  0  0  0  0  0  0  0  0  0  0  0  # atno 17321 bound_to 7965
  140.5481  144.0469  150.6115 LP  0  0  0  0  0  0  0  0  0  0  0  0  # atno 17342 bound_to 10162
  140.3514  143.2961  152.0482 LP  0  0  0  0  0  0  0  0  0  0  0  0  # atno 17343 bound_to 10162
  157.2844  130.6765  149.6082 LP  0  0  0  0  0  0  0  0  0  0  0  0  # atno 17370 bound_to 10713
  155.9667  130.4440  150.5443 LP  0  0  0  0  0  0  0  0  0  0  0  0  # atno 17371 bound_to 10713
  140.0605  134.9757  157.1296 LP  0  0  0  0  0  0  0  0  0  0  0  0  # atno 17394 bound_to 11000
  140.3856  134.2240  155.7168 LP  0  0  0  0  0  0  0  0  0  0  0  0  # atno 17395 bound_to 11000

$$$$
