AV-unprocessed.smi:313|AV-procd|sdf|2309|dock4
  -GOLD-   2262022203D 1   1.00000     0.00000
 Structure written by MMmdl.
 50 51  0  0  0  0  0  0  0  0  1 V2000
  153.4657  141.8152  160.3741 C   0  0  0  0  0  0  0  0  0  0  0  0
  152.4281  142.9132  160.6507 C   0  0  0  0  0  0  0  0  0  0  0  0
  152.1782  143.8452  159.4502 C   0  0  2  0  0  0  0  0  0  0  0  0
  151.8427  145.2748  159.9036 C   0  0  0  0  0  0  0  0  0  0  0  0
  151.0984  143.3177  158.6196 N   0  0  0  0  0  0  0  0  0  0  0  0
  151.1013  142.1286  157.9978 C   0  0  0  0  0  0  0  0  0  0  0  0
  152.0394  141.3324  158.0645 O   0  0  0  0  0  0  0  0  0  0  0  0
  149.8370  141.7859  157.1932 C   0  0  2  0  0  0  0  0  0  0  0  0
  148.6187  142.0043  158.1053 C   0  0  0  0  0  0  0  0  0  0  0  0
  149.8470  140.3832  156.7810 N   0  0  0  0  0  0  0  0  0  0  0  0
  150.6917  139.8432  155.8862 C   0  0  0  0  0  0  0  0  0  0  0  0
  151.5769  140.4815  155.3161 O   0  0  0  0  0  0  0  0  0  0  0  0
  150.5381  138.3674  155.6582 C   0  0  0  0  0  0  0  0  0  0  0  0
  149.5301  137.6168  156.3017 C   0  0  0  0  0  0  0  0  0  0  0  0
  149.4182  136.2406  156.0261 C   0  0  0  0  0  0  0  0  0  0  0  0
  150.3119  135.6446  155.1053 C   0  0  0  0  0  0  0  0  0  0  0  0
  150.2138  134.2673  154.8104 N   0  0  0  0  0  0  0  0  0  0  0  0
  150.5375  133.3625  155.9109 C   0  0  0  0  0  0  0  0  0  0  0  0
  150.6884  131.9212  155.3945 C   0  0  0  0  0  0  0  0  0  0  0  0
  149.5132  131.5359  154.6896 O   0  0  0  0  0  0  0  0  0  0  0  0
  149.2821  132.3632  153.5544 C   0  0  0  0  0  0  0  0  0  0  0  0
  149.0772  133.8183  154.0082 C   0  0  0  0  0  0  0  0  0  0  0  0
  151.2777  136.3680  154.4871 N   0  0  0  0  0  0  0  0  0  0  0  0
  151.3798  137.6877  154.7522 C   0  0  0  0  0  0  0  0  0  0  0  0
  153.6407  141.2152  161.2672 H   0  0  0  0  0  0  0  0  0  0  0  0
  154.4207  142.2450  160.0710 H   0  0  0  0  0  0  0  0  0  0  0  0
  153.1361  141.1399  159.5841 H   0  0  0  0  0  0  0  0  0  0  0  0
  151.4903  142.4519  160.9631 H   0  0  0  0  0  0  0  0  0  0  0  0
  152.7697  143.5075  161.4992 H   0  0  0  0  0  0  0  0  0  0  0  0
  153.0969  143.8823  158.8616 H   0  0  0  0  0  0  0  0  0  0  0  0
  152.6457  145.6922  160.5115 H   0  0  0  0  0  0  0  0  0  0  0  0
  150.9289  145.2988  160.4982 H   0  0  0  0  0  0  0  0  0  0  0  0
  151.7015  145.9379  159.0495 H   0  0  0  0  0  0  0  0  0  0  0  0
  150.2831  143.9033  158.5114 H   0  0  0  0  0  0  0  0  0  0  0  0
  149.7590  142.4317  156.3162 H   0  0  0  0  0  0  0  0  0  0  0  0
  148.5540  143.0410  158.4389 H   0  0  0  0  0  0  0  0  0  0  0  0
  148.6559  141.3705  158.9929 H   0  0  0  0  0  0  0  0  0  0  0  0
  147.6924  141.7762  157.5770 H   0  0  0  0  0  0  0  0  0  0  0  0
  149.1744  139.7754  157.2250 H   0  0  0  0  0  0  0  0  0  0  0  0
  148.8448  138.0783  156.9977 H   0  0  0  0  0  0  0  0  0  0  0  0
  148.6595  135.6604  156.5296 H   0  0  0  0  0  0  0  0  0  0  0  0
  151.4565  133.6540  156.4171 H   0  0  0  0  0  0  0  0  0  0  0  0
  149.7384  133.4113  156.6518 H   0  0  0  0  0  0  0  0  0  0  0  0
  151.5612  131.8301  154.7460 H   0  0  0  0  0  0  0  0  0  0  0  0
  150.8406  131.2380  156.2300 H   0  0  0  0  0  0  0  0  0  0  0  0
  150.1187  132.2866  152.8581 H   0  0  0  0  0  0  0  0  0  0  0  0
  148.3967  132.0058  153.0289 H   0  0  0  0  0  0  0  0  0  0  0  0
  148.1636  133.8992  154.5987 H   0  0  0  0  0  0  0  0  0  0  0  0
  148.9578  134.4564  153.1316 H   0  0  0  0  0  0  0  0  0  0  0  0
  152.1633  138.2106  154.2234 H   0  0  0  0  0  0  0  0  0  0  0  0
  1  2  1  0  0  0  0
  1 25  1  0  0  0  0
  1 26  1  0  0  0  0
  1 27  1  0  0  0  0
  2  3  1  0  0  0  0
  2 28  1  0  0  0  0
  2 29  1  0  0  0  0
  3  4  1  0  0  0  0
  3  5  1  0  0  0  0
  3 30  1  0  0  0  0
  4 31  1  0  0  0  0
  4 32  1  0  0  0  0
  4 33  1  0  0  0  0
  5  6  1  0  0  0  0
  5 34  1  0  0  0  0
  6  7  2  0  0  0  0
  6  8  1  0  0  0  0
  8  9  1  0  0  0  0
  8 10  1  0  0  0  0
  8 35  1  0  0  0  0
  9 36  1  0  0  0  0
  9 37  1  0  0  0  0
  9 38  1  0  0  0  0
 10 11  1  0  0  0  0
 10 39  1  0  0  0  0
 11 12  2  0  0  0  0
 11 13  1  0  0  0  0
 13 24  1  0  0  0  0
 13 14  2  0  0  0  0
 14 15  1  0  0  0  0
 14 40  1  0  0  0  0
 15 16  2  0  0  0  0
 15 41  1  0  0  0  0
 16 17  1  0  0  0  0
 16 23  1  0  0  0  0
 17 22  1  0  0  0  0
 17 18  1  0  0  0  0
 18 19  1  0  0  0  0
 18 42  1  0  0  0  0
 18 43  1  0  0  0  0
 19 20  1  0  0  0  0
 19 44  1  0  0  0  0
 19 45  1  0  0  0  0
 20 21  1  0  0  0  0
 21 22  1  0  0  0  0
 21 46  1  0  0  0  0
 21 47  1  0  0  0  0
 22 48  1  0  0  0  0
 22 49  1  0  0  0  0
 23 24  2  0  0  0  0
 24 50  1  0  0  0  0
M  END
> <s_m_source_file>
AV-unprocessed.smi

> <i_m_source_file_index>
313

> <i_lp_mmshare_version>
43012

> <i_f3d_flags>
0

> <s_epik_input>
W0NIM11bQ0gyXVtDQEhdKFtDSDNdKVtOSF1DKD1PKVtDQEhdKFtDSDNdKVtOSF1DKD1PKWMxW2NIXVtjSF1jKG5bY0hdMSlOMltDSDJdW0NIMl1PW0NIMl1bQ0gyXTI=

> <s_epik_cmdline>
J2VwaWtfcHl0aG9uJywgJy1waCcsICc3LjAnLCAnLXRuJywgJzgnLCAnLW1hJywgJzIwMCcsICctbWV0YWxfYmluZGluZycsICctaW1hZScsICc8aW5maWxlLm1hZT4nLCAnLW9tYWUnLCAnPG91dGZpbGUubWFlPic=

> <r_lp_tautomer_probability>
1

> <r_epik_Ionization_Penalty>
9.96442e-06

> <r_epik_Ionization_Penalty_Charging>
0

> <r_epik_Ionization_Penalty_Neutral>
9.96442e-06

> <r_epik_State_Penalty>
-0

> <r_epik_Charging_Adjusted_Penalty>
0

> <i_epik_Tot_Q>
0

> <i_epik_Tot_abs_Q>
0

> <r_epik_Metal_State_Penalty>
-0

> <b_epik_Metal_Only>
0

> <s_lp_Force_Field>
OPLS_2005

> <r_lp_Energy>
19.8546

> <b_lp_Chiralities_Consistent>
1

> <s_lp_Variant>
AV-unprocessed.smi:313-1

> <Gold.Version>
5.8.1

> <Gold.Id.Protein>
6NUR|6NUR_protein|mol2

> <Gold.PLP.Fitness>
47.1612

> <Gold.PLP.PLP>
-42.8219

> <Gold.PLP.part.hbond>
-2.0000

> <Gold.PLP.part.metal>
0.0000

> <Gold.PLP.part.buried>
-7.4941

> <Gold.PLP.part.nonpolar>
-34.7721

> <Gold.PLP.part.repulsive>
0.4530

> <Gold.PLP.ligand.clash>
0.0000

> <Gold.PLP.ligand.torsion>
0.8046

> <Gold.PLP.Chemscore.Hbond>
1.8480

> <Gold.PLP.Chemscore.CHOScore>
0.0000

> <Gold.PLP.Chemscore.Metal>
0.0000

> <Gold.Chemscore.Hbonds>
donor molecule, donor type, donor heavy atom, donor atom, acceptor molecule, acceptor atom, score
      P1  H  7989  7998       L1    12  0.83
      P1  H 10752 10765       L1    23  1.00

> <Gold.PLP.Chemscore.Internal.Correction>
0.4046

> <Gold.Rescore>
     Score         DG    S(hbond)    S(metal)    S(lipo)     H(rot)  DE(clash)    DE(int)     intcor
     13.52     -17.32       1.67        0.00      92.59       1.79       0.02       3.77       ----

> <Gold.Chemscore.Fitness>
13.5191

> <Gold.Chemscore.DG>
-17.3154

> <Gold.Chemscore.ZeroCoef>
-5.4800

> <Gold.Chemscore.Hbond>
1.6712

> <Gold.Chemscore.Metal>
0.0000

> <Gold.Chemscore.Lipo>
92.5901

> <Gold.Chemscore.Internal_Hbond>
0.0000

> <Gold.Chemscore.DEClash>
0.0234

> <Gold.Chemscore.DEInternal>
3.7729

> <Gold.Chemscore.Rot>
1.7888

> <Gold.Chemscore.Internal.Correction>
   9.000000E+99

> <Gold.Chemscore.Hbonds>
donor molecule, donor type, donor heavy atom, donor atom, acceptor molecule, acceptor atom, score
      P1  H  7989  7998       L1    12  0.81
      P1  H 10752 10765       L1    23  0.69

> <Gold.Chemscore.Hbond.Weighted>
-5.5816

> <Gold.Chemscore.Metal.Weighted>
-0.0000

> <Gold.Chemscore.Lipo.Weighted>
-10.8330

> <Gold.Chemscore.Internal_Hbond.Weighted>
0.0000

> <Gold.Chemscore.DEClash.Weighted>
0.0234

> <Gold.Chemscore.DEInternal.Weighted>
3.7729

> <Gold.Chemscore.Rot.Weighted>
4.5793

> <Gold.Chemscore.Internal.Correction.Weighted>
   9.000000E+99

> <Gold.Protein.RotatedTorsions>
[ 6907 6896 6895 6894 ] final   39.85 input  -60.11 | X-H torsion
[ 7974 7965 7964 7962 ] final -152.86 input  175.53 | X-H torsion
[ 8008 7997 7996 7995 ] final   75.25 input   59.86 | X-H torsion
[ 10167 10162 10161 10158 ] final  104.43 input  -65.29 | X-H torsion
[ 10718 10713 10712 10709 ] final  -17.29 input   66.30 | X-H torsion
[ 10763 10752 10751 10750 ] final  171.88 input  -60.55 | X-H torsion
[ 11005 11000 10999 10996 ] final   96.20 input  -57.11 | X-H torsion

> <Gold.Protein.ActiveResidues>
 VAL166  LYS551  ARG553  GLY616  TRP617  ASP618  TYR619  PRO620  LYS621  CYS622 
 ASP623  PHE694  ASN695  SER759  ASP760  ASP761  ALA762  ILE779  LEU786  VAL792 
 PHE793  MET794  SER795  GLU796  ALA797  LYS798  CYS799  TRP800  GLU811  SER814 

> <Gold.Protein.RotatedAtoms>
  152.1750  134.8802  160.0531 H   0  0  0  0  0  0  0  0  0  0  0  0  # atno 6907 bound_to 6896
  151.9748  133.3733  159.4093 H   0  0  0  0  0  0  0  0  0  0  0  0  # atno 6908 bound_to 6896
  150.6908  134.4024  159.5169 H   0  0  0  0  0  0  0  0  0  0  0  0  # atno 6909 bound_to 6896
  144.7771  140.4604  143.5865 H   0  0  0  0  0  0  0  0  0  0  0  0  # atno 7974 bound_to 7965
  155.8102  140.3473  155.5453 H   0  0  0  0  0  0  0  0  0  0  0  0  # atno 8008 bound_to 7997
  155.8449  140.0947  157.1732 H   0  0  0  0  0  0  0  0  0  0  0  0  # atno 8009 bound_to 7997
  154.4006  140.1387  156.3761 H   0  0  0  0  0  0  0  0  0  0  0  0  # atno 8010 bound_to 7997
  139.7178  144.7064  151.0921 H   0  0  0  0  0  0  0  0  0  0  0  0  # atno 10167 bound_to 10162
  156.5756  130.4761  149.6343 H   0  0  0  0  0  0  0  0  0  0  0  0  # atno 10718 bound_to 10713
  154.4181  135.2757  155.1993 H   0  0  0  0  0  0  0  0  0  0  0  0  # atno 10763 bound_to 10752
  154.3950  135.6057  153.5868 H   0  0  0  0  0  0  0  0  0  0  0  0  # atno 10764 bound_to 10752
  152.9832  135.5912  154.4473 H   0  0  0  0  0  0  0  0  0  0  0  0  # atno 10765 bound_to 10752
  139.8783  134.8938  156.4123 H   0  0  0  0  0  0  0  0  0  0  0  0  # atno 11005 bound_to 11000
  145.6155  139.1518  143.3052 LP  0  0  0  0  0  0  0  0  0  0  0  0  # atno 17320 bound_to 7965
  146.1957  140.6268  142.9125 LP  0  0  0  0  0  0  0  0  0  0  0  0  # atno 17321 bound_to 7965
  140.7747  143.5206  150.9541 LP  0  0  0  0  0  0  0  0  0  0  0  0  # atno 17342 bound_to 10162
  139.8893  143.6974  152.3147 LP  0  0  0  0  0  0  0  0  0  0  0  0  # atno 17343 bound_to 10162
  156.2676  130.6998  151.1786 LP  0  0  0  0  0  0  0  0  0  0  0  0  # atno 17370 bound_to 10713
  157.7338  131.0587  150.5557 LP  0  0  0  0  0  0  0  0  0  0  0  0  # atno 17371 bound_to 10713
  140.9191  133.7657  155.9885 LP  0  0  0  0  0  0  0  0  0  0  0  0  # atno 17394 bound_to 11000
  140.8459  134.3011  157.5295 LP  0  0  0  0  0  0  0  0  0  0  0  0  # atno 17395 bound_to 11000

$$$$
