AV-unprocessed.smi:2895|AV-procd|sdf|11128|dock9
  -GOLD-   2272016 03D 1   1.00000     0.00000
 Structure written by MMmdl.
 53 56  0  0  0  0  0  0  0  0  2 V2000
  149.7714  138.6660  153.8538 O   0  0  0  0  0  0  0  0  0  0  0  0
  149.0065  139.1455  154.6915 C   0  0  0  0  0  0  0  0  0  0  0  0
  147.6721  139.0196  154.5919 N   0  0  0  0  0  0  0  0  0  0  0  0
  146.9679  138.3345  153.5139 C   0  0  0  0  0  0  0  0  0  0  0  0
  145.5690  137.8694  153.9517 C   0  0  0  0  0  0  0  0  0  0  0  0
  144.9835  136.8440  153.0005 C   0  0  0  0  0  0  0  0  0  0  0  0
  145.6628  136.4922  151.8159 C   0  0  0  0  0  0  0  0  0  0  0  0
  145.0776  135.5323  150.9659 C   0  0  0  0  0  0  0  0  0  0  0  0
  143.8971  134.9307  151.2282 N   0  0  0  0  0  0  0  0  0  0  0  0
  143.2529  135.2729  152.3645 C   0  0  0  0  0  0  0  0  0  0  0  0
  143.7510  136.2194  153.2822 C   0  0  0  0  0  0  0  0  0  0  0  0
  149.4366  139.8067  155.7966 N   0  0  0  0  0  0  0  0  0  0  0  0
  148.6047  140.2475  156.9281 C   0  0  0  0  0  0  0  0  0  0  0  0
  148.5162  141.7887  156.9298 C   0  0  0  0  0  0  0  0  0  0  0  0
  149.8614  142.4337  156.9376 N   0  3  0  0  0  0  0  0  0  0  0  0
  150.4994  142.4611  158.2890 C   0  0  2  0  0  0  0  0  0  0  0  0
  149.8150  143.4237  159.2912 C   0  0  0  0  0  0  0  0  0  0  0  0
  150.9919  144.2432  159.8538 C   0  0  2  0  0  0  0  0  0  0  0  0
  151.4332  145.2672  158.7944 C   0  0  0  0  0  0  0  0  0  0  0  0
  152.0997  144.3786  157.7292 C   0  0  0  0  0  0  0  0  0  0  0  0
  151.9665  142.9608  158.3267 C   0  0  1  0  0  0  0  0  0  0  0  0
  152.1396  143.2419  159.8156 C   0  0  0  0  0  0  0  0  0  0  0  0
  150.7299  141.8873  155.8556 C   0  0  0  0  0  0  0  0  0  0  0  0
  150.7967  140.3486  155.8945 C   0  0  0  0  0  0  0  0  0  0  0  0
  147.1027  139.4206  155.3229 H   0  0  0  0  0  0  0  0  0  0  0  0
  146.9011  138.9852  152.6401 H   0  0  0  0  0  0  0  0  0  0  0  0
  147.5669  137.4740  153.2151 H   0  0  0  0  0  0  0  0  0  0  0  0
  145.6137  137.4438  154.9552 H   0  0  0  0  0  0  0  0  0  0  0  0
  144.8860  138.7181  154.0083 H   0  0  0  0  0  0  0  0  0  0  0  0
  146.6106  136.9444  151.5629 H   0  0  0  0  0  0  0  0  0  0  0  0
  145.5718  135.2397  150.0513 H   0  0  0  0  0  0  0  0  0  0  0  0
  142.3113  134.7773  152.5490 H   0  0  0  0  0  0  0  0  0  0  0  0
  143.1971  136.4572  154.1786 H   0  0  0  0  0  0  0  0  0  0  0  0
  147.5963  139.8350  156.9248 H   0  0  0  0  0  0  0  0  0  0  0  0
  149.0538  139.8901  157.8552 H   0  0  0  0  0  0  0  0  0  0  0  0
  147.9951  142.1140  156.0285 H   0  0  0  0  0  0  0  0  0  0  0  0
  147.9034  142.1287  157.7639 H   0  0  0  0  0  0  0  0  0  0  0  0
  150.4785  141.4525  158.7039 H   0  0  0  0  0  0  0  0  0  0  0  0
  149.0721  144.0759  158.8303 H   0  0  0  0  0  0  0  0  0  0  0  0
  149.3164  142.8592  160.0802 H   0  0  0  0  0  0  0  0  0  0  0  0
  150.7938  144.6843  160.8313 H   0  0  0  0  0  0  0  0  0  0  0  0
  150.5972  145.8427  158.3953 H   0  0  0  0  0  0  0  0  0  0  0  0
  152.1541  145.9716  159.2118 H   0  0  0  0  0  0  0  0  0  0  0  0
  151.6267  144.4759  156.7520 H   0  0  0  0  0  0  0  0  0  0  0  0
  153.1498  144.6499  157.6138 H   0  0  0  0  0  0  0  0  0  0  0  0
  152.6890  142.2464  157.9311 H   0  0  0  0  0  0  0  0  0  0  0  0
  153.1071  143.6825  160.0638 H   0  0  0  0  0  0  0  0  0  0  0  0
  151.9733  142.3670  160.4468 H   0  0  0  0  0  0  0  0  0  0  0  0
  150.3056  142.1976  154.8997 H   0  0  0  0  0  0  0  0  0  0  0  0
  151.7293  142.3184  155.8778 H   0  0  0  0  0  0  0  0  0  0  0  0
  151.2544  140.0078  156.8240 H   0  0  0  0  0  0  0  0  0  0  0  0
  151.4530  139.9912  155.1000 H   0  0  0  0  0  0  0  0  0  0  0  0
  149.7108  143.4053  156.7057 H   0  0  0  0  0  0  0  0  0  0  0  0
  1  2  2  0  0  0  0
  2  3  1  0  0  0  0
  2 12  1  0  0  0  0
  3  4  1  0  0  0  0
  3 25  1  0  0  0  0
  4  5  1  0  0  0  0
  4 26  1  0  0  0  0
  4 27  1  0  0  0  0
  5  6  1  0  0  0  0
  5 28  1  0  0  0  0
  5 29  1  0  0  0  0
  6 11  1  0  0  0  0
  6  7  2  0  0  0  0
  7  8  1  0  0  0  0
  7 30  1  0  0  0  0
  8  9  2  0  0  0  0
  8 31  1  0  0  0  0
  9 10  1  0  0  0  0
 10 11  2  0  0  0  0
 10 32  1  0  0  0  0
 11 33  1  0  0  0  0
 12 24  1  0  0  0  0
 12 13  1  0  0  0  0
 13 14  1  0  0  0  0
 13 34  1  0  0  0  0
 13 35  1  0  0  0  0
 14 15  1  0  0  0  0
 14 36  1  0  0  0  0
 14 37  1  0  0  0  0
 15 16  1  0  0  0  0
 15 23  1  0  0  0  0
 15 53  1  0  0  0  0
 16 21  1  0  0  0  0
 16 17  1  0  0  0  0
 16 38  1  0  0  0  0
 17 18  1  0  0  0  0
 17 39  1  0  0  0  0
 17 40  1  0  0  0  0
 18 22  1  0  0  0  0
 18 19  1  0  0  0  0
 18 41  1  0  0  0  0
 19 20  1  0  0  0  0
 19 42  1  0  0  0  0
 19 43  1  0  0  0  0
 20 21  1  0  0  0  0
 20 44  1  0  0  0  0
 20 45  1  0  0  0  0
 21 22  1  0  0  0  0
 21 46  1  0  0  0  0
 22 47  1  0  0  0  0
 22 48  1  0  0  0  0
 23 24  1  0  0  0  0
 23 49  1  0  0  0  0
 23 50  1  0  0  0  0
 24 51  1  0  0  0  0
 24 52  1  0  0  0  0
M  CHG  1  15   1
M  END
> <s_m_source_file>
AV-unprocessed.smi

> <i_m_source_file_index>
2895

> <i_lp_mmshare_version>
43012

> <i_f3d_flags>
0

> <s_epik_input>
W0NIMl0xW0NIMl1bQ0BASF0oW0NIMl0yKVtDQEBIXShbQ0gyXVtDQEhdMTIpTihbQ0gyXVtDSDJdMylbQ0gyXVtDSDJdTjNDKD1PKVtOSF1bQ0gyXVtDSDJdYzRbY0hdW2NIXW5bY0hdW2NIXTQ=

> <s_epik_cmdline>
J2VwaWtfcHl0aG9uJywgJy1waCcsICc3LjAnLCAnLXRuJywgJzgnLCAnLW1hJywgJzIwMCcsICctbWV0YWxfYmluZGluZycsICctaW1hZScsICc8aW5maWxlLm1hZT4nLCAnLW9tYWUnLCAnPG91dGZpbGUubWFlPic=

> <r_epik_Ionization_Penalty>
0.0566172

> <r_epik_Ionization_Penalty_Charging>
0.00262064

> <r_epik_Ionization_Penalty_Neutral>
0.0539965

> <r_epik_State_Penalty>
0.0463959

> <r_epik_Charging_Adjusted_Penalty>
0.0490165

> <i_epik_Tot_Q>
1

> <i_epik_Tot_abs_Q>
1

> <r_epik_Metal_State_Penalty>
0.0424856

> <b_epik_Metal_Only>
0

> <s_lp_Force_Field>
OPLS_2005

> <r_lp_Energy>
99.7754

> <b_lp_Chiralities_Consistent>
1

> <s_lp_Variant>
AV-unprocessed.smi:2895-1

> <Gold.Version>
5.8.1

> <Gold.Id.Protein>
6NUR|6NUR_protein|mol2

> <Gold.PLP.Fitness>
47.6800

> <Gold.PLP.PLP>
-39.6246

> <Gold.PLP.part.hbond>
-1.0000

> <Gold.PLP.part.metal>
0.0000

> <Gold.PLP.part.buried>
-6.1072

> <Gold.PLP.part.nonpolar>
-34.3651

> <Gold.PLP.part.repulsive>
1.5545

> <Gold.PLP.ligand.clash>
0.0000

> <Gold.PLP.ligand.torsion>
0.5220

> <Gold.PLP.Chemscore.Hbond>
2.0000

> <Gold.PLP.Chemscore.CHOScore>
1.0000

> <Gold.PLP.Chemscore.Metal>
0.0000

> <Gold.Chemscore.Hbonds>
donor molecule, donor type, donor heavy atom, donor atom, acceptor molecule, acceptor atom, score
      L1  H    15    53       P1  8028  2.00
      L1  C     8    31       P1  7921  1.00

> <Gold.PLP.Chemscore.Internal.Correction>
0.0994

> <Gold.Rescore>
     Score         DG    S(hbond)    S(metal)    S(lipo)     H(rot)  DE(clash)    DE(int)     intcor
     18.63     -19.37       0.95        0.00     121.57       1.37       0.19       0.55       ----

> <Gold.Chemscore.Fitness>
18.6278

> <Gold.Chemscore.DG>
-19.3738

> <Gold.Chemscore.ZeroCoef>
-5.4800

> <Gold.Chemscore.Hbond>
0.9536

> <Gold.Chemscore.Metal>
0.0000

> <Gold.Chemscore.Lipo>
121.5707

> <Gold.Chemscore.Internal_Hbond>
0.0000

> <Gold.Chemscore.DEClash>
0.1945

> <Gold.Chemscore.DEInternal>
0.5515

> <Gold.Chemscore.Rot>
1.3731

> <Gold.Chemscore.Internal.Correction>
   9.000000E+99

> <Gold.Chemscore.Hbonds>
donor molecule, donor type, donor heavy atom, donor atom, acceptor molecule, acceptor atom, score
      L1  H    15    53       P1  8028  0.95

> <Gold.Chemscore.Hbond.Weighted>
-3.1852

> <Gold.Chemscore.Metal.Weighted>
-0.0000

> <Gold.Chemscore.Lipo.Weighted>
-14.2238

> <Gold.Chemscore.Internal_Hbond.Weighted>
0.0000

> <Gold.Chemscore.DEClash.Weighted>
0.1945

> <Gold.Chemscore.DEInternal.Weighted>
0.5515

> <Gold.Chemscore.Rot.Weighted>
3.5152

> <Gold.Chemscore.Internal.Correction.Weighted>
   9.000000E+99

> <Gold.Protein.RotatedTorsions>
[ 6907 6896 6895 6894 ] final  102.09 input  -60.11 | X-H torsion
[ 7974 7965 7964 7962 ] final    6.95 input  175.53 | X-H torsion
[ 8008 7997 7996 7995 ] final   33.50 input   59.86 | X-H torsion
[ 10167 10162 10161 10158 ] final  -40.44 input  -65.29 | X-H torsion
[ 10718 10713 10712 10709 ] final -118.19 input   66.30 | X-H torsion
[ 10763 10752 10751 10750 ] final -150.57 input  -60.55 | X-H torsion
[ 11005 11000 10999 10996 ] final  -44.77 input  -57.11 | X-H torsion

> <Gold.Protein.ActiveResidues>
 VAL166  LYS551  ARG553  GLY616  TRP617  ASP618  TYR619  PRO620  LYS621  CYS622 
 ASP623  PHE694  ASN695  SER759  ASP760  ASP761  ALA762  ILE779  LEU786  VAL792 
 PHE793  MET794  SER795  GLU796  ALA797  LYS798  CYS799  TRP800  GLU811  SER814 

> <Gold.Protein.RotatedAtoms>
  152.5333  134.0027  159.7901 H   0  0  0  0  0  0  0  0  0  0  0  0  # atno 6907 bound_to 6896
  151.0243  133.5840  159.2675 H   0  0  0  0  0  0  0  0  0  0  0  0  # atno 6908 bound_to 6896
  151.2868  135.0737  159.9243 H   0  0  0  0  0  0  0  0  0  0  0  0  # atno 6909 bound_to 6896
  146.2431  140.0157  142.8402 H   0  0  0  0  0  0  0  0  0  0  0  0  # atno 7974 bound_to 7965
  155.1397  140.3265  155.4455 H   0  0  0  0  0  0  0  0  0  0  0  0  # atno 8008 bound_to 7997
  156.2609  140.1996  156.6462 H   0  0  0  0  0  0  0  0  0  0  0  0  # atno 8009 bound_to 7997
  154.6552  140.0554  156.9987 H   0  0  0  0  0  0  0  0  0  0  0  0  # atno 8010 bound_to 7997
  140.7034  143.3153  151.2925 H   0  0  0  0  0  0  0  0  0  0  0  0  # atno 10167 bound_to 10162
  156.1088  130.6232  150.9260 H   0  0  0  0  0  0  0  0  0  0  0  0  # atno 10718 bound_to 10713
  154.8111  135.3281  154.7302 H   0  0  0  0  0  0  0  0  0  0  0  0  # atno 10763 bound_to 10752
  153.7951  135.6908  153.4869 H   0  0  0  0  0  0  0  0  0  0  0  0  # atno 10764 bound_to 10752
  153.1891  135.4558  155.0072 H   0  0  0  0  0  0  0  0  0  0  0  0  # atno 10765 bound_to 10752
  141.0472  133.6756  156.2919 H   0  0  0  0  0  0  0  0  0  0  0  0  # atno 11005 bound_to 11000
  145.1287  140.9505  143.4557 LP  0  0  0  0  0  0  0  0  0  0  0  0  # atno 17320 bound_to 7965
  145.0409  139.3261  143.5977 LP  0  0  0  0  0  0  0  0  0  0  0  0  # atno 17321 bound_to 7965
  139.6590  144.0224  152.2679 LP  0  0  0  0  0  0  0  0  0  0  0  0  # atno 17342 bound_to 10162
  139.9785  144.6444  150.7922 LP  0  0  0  0  0  0  0  0  0  0  0  0  # atno 17343 bound_to 10162
  157.6268  131.0925  150.8519 LP  0  0  0  0  0  0  0  0  0  0  0  0  # atno 17370 bound_to 10713
  156.8633  130.5121  149.5302 LP  0  0  0  0  0  0  0  0  0  0  0  0  # atno 17371 bound_to 10713
  140.6124  134.5445  157.5535 LP  0  0  0  0  0  0  0  0  0  0  0  0  # atno 17394 bound_to 11000
  139.9321  134.7944  156.0902 LP  0  0  0  0  0  0  0  0  0  0  0  0  # atno 17395 bound_to 11000

$$$$
