AV-unprocessed.smi:181|AV-procd|sdf|1454|dock2
  -GOLD-   2262019253D 1   1.00000     0.00000
 Structure written by MMmdl.
 50 53  0  0  0  0  0  0  0  0  1 V2000
  151.7110  144.0376  158.1306 C   0  0  0  0  0  0  0  0  0  0  0  0
  151.4377  142.5636  157.8079 C   0  0  0  0  0  0  0  0  0  0  0  0
  152.2285  141.6423  158.6272 N   0  0  0  0  0  0  0  0  0  0  0  0
  152.2219  140.3317  158.2659 C   0  0  0  0  0  0  0  0  0  0  0  0
  152.5301  139.3785  159.1828 N   0  0  0  0  0  0  0  0  0  0  0  0
  152.5291  138.0867  158.8426 C   0  0  0  0  0  0  0  0  0  0  0  0
  152.2479  137.5359  157.6606 N   0  0  0  0  0  0  0  0  0  0  0  0
  151.9237  138.4857  156.7377 C   0  0  0  0  0  0  0  0  0  0  0  0
  151.8894  139.8927  156.9531 C   0  0  0  0  0  0  0  0  0  0  0  0
  151.5076  140.5401  155.7838 N   0  0  0  0  0  0  0  0  0  0  0  0
  151.3394  139.5731  154.9241 C   0  0  0  0  0  0  0  0  0  0  0  0
  151.5569  138.3056  155.4154 N   0  0  0  0  0  0  0  0  0  0  0  0
  151.4338  137.0549  154.6820 C   0  0  0  0  0  0  0  0  0  0  0  0
  150.2182  136.1910  155.1029 C   0  0  0  0  0  0  0  0  0  0  0  0
  149.0434  136.8553  154.6711 O   0  0  0  0  0  0  0  0  0  0  0  0
  150.2390  134.7816  154.4707 C   0  0  0  0  0  0  0  0  0  0  0  0
  149.1505  133.8659  155.0591 C   0  0  0  0  0  0  0  0  0  0  0  0
  149.2724  133.8060  156.4749 O   0  0  0  0  0  0  0  0  0  0  0  0
  149.0754  135.0697  157.0971 C   0  0  0  0  0  0  0  0  0  0  0  0
  150.1635  136.0567  156.6381 C   0  0  0  0  0  0  0  0  0  0  0  0
  153.1589  142.1662  159.6427 C   0  0  1  0  0  0  0  0  0  0  0  0
  152.4836  142.4810  160.9924 C   0  0  0  0  0  0  0  0  0  0  0  0
  153.5812  142.2412  162.0396 C   0  0  0  0  0  0  0  0  0  0  0  0
  154.5276  141.3649  161.3743 N   0  0  0  0  0  0  0  0  0  0  0  0
  154.3238  141.2690  160.0607 C   0  0  0  0  0  0  0  0  0  0  0  0
  154.9786  140.5751  159.2857 O   0  0  0  0  0  0  0  0  0  0  0  0
  151.1581  144.6889  157.4539 H   0  0  0  0  0  0  0  0  0  0  0  0
  152.7705  144.2738  158.0281 H   0  0  0  0  0  0  0  0  0  0  0  0
  151.4027  144.2875  159.1454 H   0  0  0  0  0  0  0  0  0  0  0  0
  150.3800  142.3453  157.9584 H   0  0  0  0  0  0  0  0  0  0  0  0
  151.6216  142.4083  156.7451 H   0  0  0  0  0  0  0  0  0  0  0  0
  152.7897  137.3959  159.6306 H   0  0  0  0  0  0  0  0  0  0  0  0
  151.0394  139.7583  153.9031 H   0  0  0  0  0  0  0  0  0  0  0  0
  151.3670  137.2975  153.6206 H   0  0  0  0  0  0  0  0  0  0  0  0
  152.3605  136.4924  154.8047 H   0  0  0  0  0  0  0  0  0  0  0  0
  148.8997  136.6515  153.7597 H   0  0  0  0  0  0  0  0  0  0  0  0
  150.1196  134.8379  153.3882 H   0  0  0  0  0  0  0  0  0  0  0  0
  151.2121  134.3221  154.6492 H   0  0  0  0  0  0  0  0  0  0  0  0
  148.1536  134.2130  154.7833 H   0  0  0  0  0  0  0  0  0  0  0  0
  149.2549  132.8586  154.6558 H   0  0  0  0  0  0  0  0  0  0  0  0
  148.0777  135.4491  156.8706 H   0  0  0  0  0  0  0  0  0  0  0  0
  149.1242  134.9389  158.1781 H   0  0  0  0  0  0  0  0  0  0  0  0
  151.1271  135.6987  157.0034 H   0  0  0  0  0  0  0  0  0  0  0  0
  150.0048  137.0311  157.1024 H   0  0  0  0  0  0  0  0  0  0  0  0
  153.6067  143.0846  159.2597 H   0  0  0  0  0  0  0  0  0  0  0  0
  152.0955  143.4993  161.0304 H   0  0  0  0  0  0  0  0  0  0  0  0
  151.6486  141.8112  161.1999 H   0  0  0  0  0  0  0  0  0  0  0  0
  154.0826  143.1725  162.3054 H   0  0  0  0  0  0  0  0  0  0  0  0
  153.1892  141.7872  162.9501 H   0  0  0  0  0  0  0  0  0  0  0  0
  155.2452  140.8591  161.8731 H   0  0  0  0  0  0  0  0  0  0  0  0
  1  2  1  0  0  0  0
  1 27  1  0  0  0  0
  1 28  1  0  0  0  0
  1 29  1  0  0  0  0
  2  3  1  0  0  0  0
  2 30  1  0  0  0  0
  2 31  1  0  0  0  0
  3  4  1  0  0  0  0
  3 21  1  0  0  0  0
  4  9  1  0  0  0  0
  4  5  2  0  0  0  0
  5  6  1  0  0  0  0
  6  7  2  0  0  0  0
  6 32  1  0  0  0  0
  7  8  1  0  0  0  0
  8 12  1  0  0  0  0
  8  9  2  0  0  0  0
  9 10  1  0  0  0  0
 10 11  2  0  0  0  0
 11 12  1  0  0  0  0
 11 33  1  0  0  0  0
 12 13  1  0  0  0  0
 13 14  1  0  0  0  0
 13 34  1  0  0  0  0
 13 35  1  0  0  0  0
 14 20  1  0  0  0  0
 14 15  1  0  0  0  0
 14 16  1  0  0  0  0
 15 36  1  0  0  0  0
 16 17  1  0  0  0  0
 16 37  1  0  0  0  0
 16 38  1  0  0  0  0
 17 18  1  0  0  0  0
 17 39  1  0  0  0  0
 17 40  1  0  0  0  0
 18 19  1  0  0  0  0
 19 20  1  0  0  0  0
 19 41  1  0  0  0  0
 19 42  1  0  0  0  0
 20 43  1  0  0  0  0
 20 44  1  0  0  0  0
 21 25  1  0  0  0  0
 21 22  1  0  0  0  0
 21 45  1  0  0  0  0
 22 23  1  0  0  0  0
 22 46  1  0  0  0  0
 22 47  1  0  0  0  0
 23 24  1  0  0  0  0
 23 48  1  0  0  0  0
 23 49  1  0  0  0  0
 24 25  1  0  0  0  0
 24 50  1  0  0  0  0
 25 26  2  0  0  0  0
M  END
> <s_m_source_file>
AV-unprocessed.smi

> <i_m_source_file_index>
181

> <i_lp_mmshare_version>
43012

> <i_f3d_flags>
0

> <s_epik_input>
Tz1DMVtOSF1bQ0gyXVtDSDJdW0NASF0xTihbQ0gyXVtDSDNdKWMobltjSF1uMiljKGMyMyluW2NIXW4zW0NIMl1DNChbT0hdKVtDSDJdW0NIMl1PW0NIMl1bQ0gyXTQ=

> <s_epik_cmdline>
J2VwaWtfcHl0aG9uJywgJy1waCcsICc3LjAnLCAnLXRuJywgJzgnLCAnLW1hJywgJzIwMCcsICctbWV0YWxfYmluZGluZycsICctaW1hZScsICc8aW5maWxlLm1hZT4nLCAnLW9tYWUnLCAnPG91dGZpbGUubWFlPic=

> <r_lp_tautomer_probability>
1

> <r_epik_Ionization_Penalty>
0.000985257

> <r_epik_Ionization_Penalty_Charging>
0

> <r_epik_Ionization_Penalty_Neutral>
0.000985257

> <r_epik_State_Penalty>
0.000517047

> <r_epik_Charging_Adjusted_Penalty>
0.000517047

> <i_epik_Tot_Q>
0

> <i_epik_Tot_abs_Q>
0

> <r_epik_Metal_State_Penalty>
-0

> <b_epik_Metal_Only>
0

> <s_lp_Force_Field>
OPLS_2005

> <r_lp_Energy>
36.1044

> <b_lp_Chiralities_Consistent>
1

> <s_lp_Variant>
AV-unprocessed.smi:181-2

> <Gold.Version>
5.8.1

> <Gold.Id.Protein>
6NUR|6NUR_protein|mol2

> <Gold.PLP.Fitness>
47.0169

> <Gold.PLP.PLP>
-43.4123

> <Gold.PLP.part.hbond>
-3.6807

> <Gold.PLP.part.metal>
0.0000

> <Gold.PLP.part.buried>
-1.7971

> <Gold.PLP.part.nonpolar>
-36.8347

> <Gold.PLP.part.repulsive>
0.0000

> <Gold.PLP.ligand.clash>
0.0037

> <Gold.PLP.ligand.torsion>
1.0563

> <Gold.PLP.Chemscore.Hbond>
1.7410

> <Gold.PLP.Chemscore.CHOScore>
0.0000

> <Gold.PLP.Chemscore.Metal>
0.0000

> <Gold.Chemscore.Hbonds>
donor molecule, donor type, donor heavy atom, donor atom, acceptor molecule, acceptor atom, score
      L1  H    15    36       P1  7948  1.00
      P1  H  7997  8008       L1    26  0.74

> <Gold.PLP.Chemscore.Internal.Correction>
0.4981

> <Gold.Rescore>
     Score         DG    S(hbond)    S(metal)    S(lipo)     H(rot)  DE(clash)    DE(int)     intcor
      5.12     -15.48       1.81        0.00      88.30       2.49       1.30       9.06       ----

> <Gold.Chemscore.Fitness>
5.1249

> <Gold.Chemscore.DG>
-15.4800

> <Gold.Chemscore.ZeroCoef>
-5.4800

> <Gold.Chemscore.Hbond>
1.8090

> <Gold.Chemscore.Metal>
0.0000

> <Gold.Chemscore.Lipo>
88.3025

> <Gold.Chemscore.Internal_Hbond>
0.0000

> <Gold.Chemscore.DEClash>
1.2964

> <Gold.Chemscore.DEInternal>
9.0587

> <Gold.Chemscore.Rot>
2.4897

> <Gold.Chemscore.Internal.Correction>
   9.000000E+99

> <Gold.Chemscore.Hbonds>
donor molecule, donor type, donor heavy atom, donor atom, acceptor molecule, acceptor atom, score
      L1  H    15    36       P1  7948  0.99
      P1  H  7997  8008       L1    26  0.69

> <Gold.Chemscore.Hbond.Weighted>
-6.0421

> <Gold.Chemscore.Metal.Weighted>
-0.0000

> <Gold.Chemscore.Lipo.Weighted>
-10.3314

> <Gold.Chemscore.Internal_Hbond.Weighted>
0.0000

> <Gold.Chemscore.DEClash.Weighted>
1.2964

> <Gold.Chemscore.DEInternal.Weighted>
9.0587

> <Gold.Chemscore.Rot.Weighted>
6.3735

> <Gold.Chemscore.Internal.Correction.Weighted>
   9.000000E+99

> <Gold.Protein.RotatedTorsions>
[ 6907 6896 6895 6894 ] final  132.93 input  -60.11 | X-H torsion
[ 7974 7965 7964 7962 ] final -155.88 input  175.53 | X-H torsion
[ 8008 7997 7996 7995 ] final -124.94 input   59.86 | X-H torsion
[ 10167 10162 10161 10158 ] final  -42.26 input  -65.29 | X-H torsion
[ 10718 10713 10712 10709 ] final  -91.05 input   66.30 | X-H torsion
[ 10763 10752 10751 10750 ] final  -89.95 input  -60.55 | X-H torsion
[ 11005 11000 10999 10996 ] final -136.92 input  -57.11 | X-H torsion

> <Gold.Protein.ActiveResidues>
 VAL166  LYS551  ARG553  GLY616  TRP617  ASP618  TYR619  PRO620  LYS621  CYS622 
 ASP623  PHE694  ASN695  SER759  ASP760  ASP761  ALA762  ILE779  LEU786  VAL792 
 PHE793  MET794  SER795  GLU796  ALA797  LYS798  CYS799  TRP800  GLU811  SER814 

> <Gold.Protein.RotatedAtoms>
  152.3273  133.5919  159.5785 H   0  0  0  0  0  0  0  0  0  0  0  0  # atno 6907 bound_to 6896
  150.7403  133.9921  159.3619 H   0  0  0  0  0  0  0  0  0  0  0  0  # atno 6908 bound_to 6896
  151.7800  135.0765  160.0423 H   0  0  0  0  0  0  0  0  0  0  0  0  # atno 6909 bound_to 6896
  144.7619  140.4187  143.5970 H   0  0  0  0  0  0  0  0  0  0  0  0  # atno 7974 bound_to 7965
  155.2050  140.0417  157.2924 H   0  0  0  0  0  0  0  0  0  0  0  0  # atno 8008 bound_to 7997
  154.6049  140.2462  155.7715 H   0  0  0  0  0  0  0  0  0  0  0  0  # atno 8009 bound_to 7997
  156.2344  140.2927  156.0282 H   0  0  0  0  0  0  0  0  0  0  0  0  # atno 8010 bound_to 7997
  140.6975  143.3048  151.3183 H   0  0  0  0  0  0  0  0  0  0  0  0  # atno 10167 bound_to 10162
  155.9991  130.4933  150.5416 H   0  0  0  0  0  0  0  0  0  0  0  0  # atno 10718 bound_to 10713
  154.6607  135.5322  153.8014 H   0  0  0  0  0  0  0  0  0  0  0  0  # atno 10763 bound_to 10752
  153.0440  135.6505  154.0876 H   0  0  0  0  0  0  0  0  0  0  0  0  # atno 10764 bound_to 10752
  154.0785  135.2949  155.3275 H   0  0  0  0  0  0  0  0  0  0  0  0  # atno 10765 bound_to 10752
  140.8759  134.1992  157.4622 H   0  0  0  0  0  0  0  0  0  0  0  0  # atno 11005 bound_to 11000
  145.6593  139.1578  143.2817 LP  0  0  0  0  0  0  0  0  0  0  0  0  # atno 17320 bound_to 7965
  146.1690  140.6675  142.9242 LP  0  0  0  0  0  0  0  0  0  0  0  0  # atno 17321 bound_to 7965
  139.6449  144.0469  152.2583 LP  0  0  0  0  0  0  0  0  0  0  0  0  # atno 17342 bound_to 10162
  139.9987  144.6309  150.7749 LP  0  0  0  0  0  0  0  0  0  0  0  0  # atno 17343 bound_to 10162
  157.3351  131.0706  151.1831 LP  0  0  0  0  0  0  0  0  0  0  0  0  # atno 17370 bound_to 10713
  157.2698  130.6699  149.6014 LP  0  0  0  0  0  0  0  0  0  0  0  0  # atno 17371 bound_to 10713
  139.8715  134.9795  156.5041 LP  0  0  0  0  0  0  0  0  0  0  0  0  # atno 17394 bound_to 11000
  140.8518  133.8126  155.9176 LP  0  0  0  0  0  0  0  0  0  0  0  0  # atno 17395 bound_to 11000

$$$$
