AV-unprocessed.smi:142|AV-procd|sdf|1189|dock7
  -GOLD-   2262018343D 1   1.00000     0.00000
 Structure written by MMmdl.
 52 55  0  0  0  0  0  0  0  0  1 V2000
  152.4789  138.5625  156.4998 C   0  0  0  0  0  0  0  0  0  0  0  0
  151.8017  138.7613  157.8626 C   0  0  2  0  0  0  0  0  0  0  0  0
  150.5245  138.0505  157.8739 N   0  0  0  0  0  0  0  0  0  0  0  0
  150.1626  137.1247  158.7750 C   0  0  0  0  0  0  0  0  0  0  0  0
  150.8977  136.7538  159.6914 O   0  0  0  0  0  0  0  0  0  0  0  0
  148.7550  136.5343  158.6007 C   0  0  0  0  0  0  0  0  0  0  0  0
  148.4981  135.3726  159.4794 N   0  0  0  0  0  0  0  0  0  0  0  0
  148.3819  135.5933  160.8742 C   0  0  0  0  0  0  0  0  0  0  0  0
  148.4743  136.7257  161.3510 O   0  0  0  0  0  0  0  0  0  0  0  0
  148.1586  134.4012  161.6843 C   0  0  0  0  0  0  0  0  0  0  0  0
  148.0302  134.5171  163.0169 F   0  0  0  0  0  0  0  0  0  0  0  0
  148.0808  133.1796  161.1171 C   0  0  0  0  0  0  0  0  0  0  0  0
  148.2025  132.9781  159.7538 N   0  0  0  0  0  0  0  0  0  0  0  0
  148.1323  131.5983  159.1348 C   0  0  2  0  0  0  0  0  0  0  0  0
  147.7928  130.5423  160.2024 C   0  0  0  0  0  0  0  0  0  0  0  0
  148.8543  129.4854  159.9730 C   0  0  0  0  0  0  0  0  0  0  0  0
  150.0170  130.3183  159.4545 C   0  0  0  0  0  0  0  0  0  0  0  0
  149.3775  131.2542  158.5966 O   0  0  0  0  0  0  0  0  0  0  0  0
  148.4188  134.0831  158.9020 C   0  0  0  0  0  0  0  0  0  0  0  0
  148.5392  133.9228  157.6854 O   0  0  0  0  0  0  0  0  0  0  0  0
  151.6711  140.2455  158.1950 C   0  0  0  0  0  0  0  0  0  0  0  0
  150.9232  141.0827  157.3398 C   0  0  0  0  0  0  0  0  0  0  0  0
  150.7785  142.4534  157.6281 C   0  0  0  0  0  0  0  0  0  0  0  0
  151.3796  143.0009  158.7792 C   0  0  0  0  0  0  0  0  0  0  0  0
  151.2376  144.3727  159.0748 C   0  0  0  0  0  0  0  0  0  0  0  0
  151.8419  144.9123  160.2271 C   0  0  0  0  0  0  0  0  0  0  0  0
  152.5893  144.0836  161.0860 C   0  0  0  0  0  0  0  0  0  0  0  0
  152.7328  142.7127  160.7968 C   0  0  0  0  0  0  0  0  0  0  0  0
  152.1295  142.1669  159.6449 C   0  0  0  0  0  0  0  0  0  0  0  0
  152.2689  140.7951  159.3525 C   0  0  0  0  0  0  0  0  0  0  0  0
  153.4691  139.0189  156.4844 H   0  0  0  0  0  0  0  0  0  0  0  0
  151.8939  139.0117  155.6965 H   0  0  0  0  0  0  0  0  0  0  0  0
  152.6025  137.5035  156.2710 H   0  0  0  0  0  0  0  0  0  0  0  0
  152.4434  138.3036  158.6181 H   0  0  0  0  0  0  0  0  0  0  0  0
  149.8612  138.2942  157.1528 H   0  0  0  0  0  0  0  0  0  0  0  0
  148.0170  137.3187  158.7778 H   0  0  0  0  0  0  0  0  0  0  0  0
  148.6195  136.2774  157.5492 H   0  0  0  0  0  0  0  0  0  0  0  0
  147.9191  132.3383  161.7733 H   0  0  0  0  0  0  0  0  0  0  0  0
  147.4009  131.6698  158.3276 H   0  0  0  0  0  0  0  0  0  0  0  0
  147.8928  130.9704  161.2010 H   0  0  0  0  0  0  0  0  0  0  0  0
  146.7764  130.1689  160.0757 H   0  0  0  0  0  0  0  0  0  0  0  0
  149.0999  128.9225  160.8738 H   0  0  0  0  0  0  0  0  0  0  0  0
  148.5258  128.7824  159.2064 H   0  0  0  0  0  0  0  0  0  0  0  0
  150.5167  130.8381  160.2731 H   0  0  0  0  0  0  0  0  0  0  0  0
  150.7581  129.7248  158.9190 H   0  0  0  0  0  0  0  0  0  0  0  0
  150.4564  140.6741  156.4555 H   0  0  0  0  0  0  0  0  0  0  0  0
  150.2040  143.0807  156.9622 H   0  0  0  0  0  0  0  0  0  0  0  0
  150.6660  145.0157  158.4212 H   0  0  0  0  0  0  0  0  0  0  0  0
  151.7327  145.9631  160.4515 H   0  0  0  0  0  0  0  0  0  0  0  0
  153.0531  144.4994  161.9683 H   0  0  0  0  0  0  0  0  0  0  0  0
  153.3077  142.0841  161.4613 H   0  0  0  0  0  0  0  0  0  0  0  0
  152.8363  140.1655  160.0225 H   0  0  0  0  0  0  0  0  0  0  0  0
  1  2  1  0  0  0  0
  1 31  1  0  0  0  0
  1 32  1  0  0  0  0
  1 33  1  0  0  0  0
  2  3  1  0  0  0  0
  2 21  1  0  0  0  0
  2 34  1  0  0  0  0
  3  4  1  0  0  0  0
  3 35  1  0  0  0  0
  4  5  2  0  0  0  0
  4  6  1  0  0  0  0
  6  7  1  0  0  0  0
  6 36  1  0  0  0  0
  6 37  1  0  0  0  0
  7 19  1  0  0  0  0
  7  8  1  0  0  0  0
  8  9  2  0  0  0  0
  8 10  1  0  0  0  0
 10 11  1  0  0  0  0
 10 12  2  0  0  0  0
 12 13  1  0  0  0  0
 12 38  1  0  0  0  0
 13 14  1  0  0  0  0
 13 19  1  0  0  0  0
 14 18  1  0  0  0  0
 14 15  1  0  0  0  0
 14 39  1  0  0  0  0
 15 16  1  0  0  0  0
 15 40  1  0  0  0  0
 15 41  1  0  0  0  0
 16 17  1  0  0  0  0
 16 42  1  0  0  0  0
 16 43  1  0  0  0  0
 17 18  1  0  0  0  0
 17 44  1  0  0  0  0
 17 45  1  0  0  0  0
 19 20  2  0  0  0  0
 21 30  1  0  0  0  0
 21 22  2  0  0  0  0
 22 23  1  0  0  0  0
 22 46  1  0  0  0  0
 23 24  2  0  0  0  0
 23 47  1  0  0  0  0
 24 29  1  0  0  0  0
 24 25  1  0  0  0  0
 25 26  2  0  0  0  0
 25 48  1  0  0  0  0
 26 27  1  0  0  0  0
 26 49  1  0  0  0  0
 27 28  2  0  0  0  0
 27 50  1  0  0  0  0
 28 29  1  0  0  0  0
 28 51  1  0  0  0  0
 29 30  2  0  0  0  0
 30 52  1  0  0  0  0
M  END
> <s_m_source_file>
AV-unprocessed.smi

> <i_m_source_file_index>
142

> <i_lp_mmshare_version>
43012

> <i_f3d_flags>
0

> <s_epik_input>
W2NIXTFbY0hdW2NIXVtjSF1jKGMxMilbY0hdYyhbY0hdW2NIXTIpW0NASF0oW0NIM10pW05IXUMoPU8pW0NIMl1uM2MoPU8pYyhGKVtjSF1uKGMzPU8pW0NAQEhdNFtDSDJdW0NIMl1bQ0gyXU80

> <s_epik_cmdline>
J2VwaWtfcHl0aG9uJywgJy1waCcsICc3LjAnLCAnLXRuJywgJzgnLCAnLW1hJywgJzIwMCcsICctbWV0YWxfYmluZGluZycsICctaW1hZScsICc8aW5maWxlLm1hZT4nLCAnLW9tYWUnLCAnPG91dGZpbGUubWFlPic=

> <r_lp_tautomer_probability>
1

> <r_epik_Ionization_Penalty>
3.35688e-08

> <r_epik_Ionization_Penalty_Charging>
3.59856e-09

> <r_epik_Ionization_Penalty_Neutral>
2.99702e-08

> <r_epik_State_Penalty>
-0

> <r_epik_Charging_Adjusted_Penalty>
3.59856e-09

> <i_epik_Tot_Q>
0

> <i_epik_Tot_abs_Q>
0

> <r_epik_Metal_State_Penalty>
-0

> <b_epik_Metal_Only>
0

> <s_epik_Chemistry_Notes>
This compound contains an acetal/aminal-like group ( X-CH(R)-Y where X, Y are N, S, or O) that may be acid/base labile, releasing an aldehyde.

> <s_lp_Force_Field>
OPLS_2005

> <r_lp_Energy>
31.3548

> <b_lp_Chiralities_Consistent>
1

> <s_lp_Variant>
AV-unprocessed.smi:142-1

> <Gold.Version>
5.8.1

> <Gold.Id.Protein>
6NUR|6NUR_protein|mol2

> <Gold.PLP.Fitness>
63.7918

> <Gold.PLP.PLP>
-56.3982

> <Gold.PLP.part.hbond>
-2.8469

> <Gold.PLP.part.metal>
0.0000

> <Gold.PLP.part.buried>
-6.4333

> <Gold.PLP.part.nonpolar>
-47.3893

> <Gold.PLP.part.repulsive>
0.0509

> <Gold.PLP.ligand.clash>
0.0000

> <Gold.PLP.ligand.torsion>
0.3012

> <Gold.PLP.Chemscore.Hbond>
2.6480

> <Gold.PLP.Chemscore.CHOScore>
0.0000

> <Gold.PLP.Chemscore.Metal>
0.0000

> <Gold.Chemscore.Hbonds>
donor molecule, donor type, donor heavy atom, donor atom, acceptor molecule, acceptor atom, score
      P1  H  6896  6909       L1     5  1.00
      P1  H  6931  6943       L1     9  1.00

> <Gold.PLP.Chemscore.Internal.Correction>
0.0520

> <Gold.Rescore>
     Score         DG    S(hbond)    S(metal)    S(lipo)     H(rot)  DE(clash)    DE(int)     intcor
     23.90     -25.34       2.68        0.00     137.43       2.02       0.11       1.33       ----

> <Gold.Chemscore.Fitness>
23.8955

> <Gold.Chemscore.DG>
-25.3375

> <Gold.Chemscore.ZeroCoef>
-5.4800

> <Gold.Chemscore.Hbond>
2.6777

> <Gold.Chemscore.Metal>
0.0000

> <Gold.Chemscore.Lipo>
137.4265

> <Gold.Chemscore.Internal_Hbond>
0.0000

> <Gold.Chemscore.DEClash>
0.1077

> <Gold.Chemscore.DEInternal>
1.3342

> <Gold.Chemscore.Rot>
2.0175

> <Gold.Chemscore.Internal.Correction>
   9.000000E+99

> <Gold.Chemscore.Hbonds>
donor molecule, donor type, donor heavy atom, donor atom, acceptor molecule, acceptor atom, score
      P1  H  6896  6909       L1     5  0.81
      P1  H  6931  6943       L1     9  1.00

> <Gold.Chemscore.Hbond.Weighted>
-8.9434

> <Gold.Chemscore.Metal.Weighted>
-0.0000

> <Gold.Chemscore.Lipo.Weighted>
-16.0789

> <Gold.Chemscore.Internal_Hbond.Weighted>
0.0000

> <Gold.Chemscore.DEClash.Weighted>
0.1077

> <Gold.Chemscore.DEInternal.Weighted>
1.3342

> <Gold.Chemscore.Rot.Weighted>
5.1648

> <Gold.Chemscore.Internal.Correction.Weighted>
   9.000000E+99

> <Gold.Protein.RotatedTorsions>
[ 6907 6896 6895 6894 ] final   82.61 input  -60.11 | X-H torsion
[ 7974 7965 7964 7962 ] final  123.26 input  175.53 | X-H torsion
[ 8008 7997 7996 7995 ] final  173.27 input   59.86 | X-H torsion
[ 10167 10162 10161 10158 ] final   48.47 input  -65.29 | X-H torsion
[ 10718 10713 10712 10709 ] final -110.26 input   66.30 | X-H torsion
[ 10763 10752 10751 10750 ] final  -36.60 input  -60.55 | X-H torsion
[ 11005 11000 10999 10996 ] final   18.45 input  -57.11 | X-H torsion

> <Gold.Protein.ActiveResidues>
 VAL166  LYS551  ARG553  GLY616  TRP617  ASP618  TYR619  PRO620  LYS621  CYS622 
 ASP623  PHE694  ASN695  SER759  ASP760  ASP761  ALA762  ILE779  LEU786  VAL792 
 PHE793  MET794  SER795  GLU796  ALA797  LYS798  CYS799  TRP800  GLU811  SER814 

> <Gold.Protein.RotatedAtoms>
  152.5304  134.3023  159.9082 H   0  0  0  0  0  0  0  0  0  0  0  0  # atno 6907 bound_to 6896
  151.2974  133.4131  159.2645 H   0  0  0  0  0  0  0  0  0  0  0  0  # atno 6908 bound_to 6896
  151.0149  134.9441  159.8084 H   0  0  0  0  0  0  0  0  0  0  0  0  # atno 6909 bound_to 6896
  145.0979  139.3539  143.4827 H   0  0  0  0  0  0  0  0  0  0  0  0  # atno 7974 bound_to 7965
  156.1092  140.1464  156.9361 H   0  0  0  0  0  0  0  0  0  0  0  0  # atno 8008 bound_to 7997
  154.4755  140.0896  156.7295 H   0  0  0  0  0  0  0  0  0  0  0  0  # atno 8009 bound_to 7997
  155.4625  140.3439  155.4317 H   0  0  0  0  0  0  0  0  0  0  0  0  # atno 8010 bound_to 7997
  140.2929  144.3025  150.6236 H   0  0  0  0  0  0  0  0  0  0  0  0  # atno 10167 bound_to 10162
  156.0581  130.5806  150.8213 H   0  0  0  0  0  0  0  0  0  0  0  0  # atno 10718 bound_to 10713
  153.8824  135.6820  153.4766 H   0  0  0  0  0  0  0  0  0  0  0  0  # atno 10763 bound_to 10752
  153.1226  135.4733  154.9218 H   0  0  0  0  0  0  0  0  0  0  0  0  # atno 10764 bound_to 10752
  154.7662  135.3225  154.8233 H   0  0  0  0  0  0  0  0  0  0  0  0  # atno 10765 bound_to 10752
  140.4247  134.1482  155.7675 H   0  0  0  0  0  0  0  0  0  0  0  0  # atno 11005 bound_to 11000
  146.3530  140.0843  142.8616 LP  0  0  0  0  0  0  0  0  0  0  0  0  # atno 17320 bound_to 7965
  145.0989  140.9333  143.4724 LP  0  0  0  0  0  0  0  0  0  0  0  0  # atno 17321 bound_to 7965
  140.5717  143.2180  151.7588 LP  0  0  0  0  0  0  0  0  0  0  0  0  # atno 17342 bound_to 10162
  139.4933  144.4207  151.9980 LP  0  0  0  0  0  0  0  0  0  0  0  0  # atno 17343 bound_to 10162
  157.5568  131.0945  150.9616 LP  0  0  0  0  0  0  0  0  0  0  0  0  # atno 17370 bound_to 10713
  156.9863  130.5546  149.5300 LP  0  0  0  0  0  0  0  0  0  0  0  0  # atno 17371 bound_to 10713
  141.1770  133.8494  157.1388 LP  0  0  0  0  0  0  0  0  0  0  0  0  # atno 17394 bound_to 11000
  140.0176  134.9960  157.0525 LP  0  0  0  0  0  0  0  0  0  0  0  0  # atno 17395 bound_to 11000

$$$$
