AV-unprocessed.smi:3228|AV-procd|sdf|12326|dock9
  -GOLD-   2272018173D 1   1.00000     0.00000
 Structure written by MMmdl.
 30 31  0  0  0  0  0  0  0  0  2 V2000
  151.3019  140.5445  155.4044 O   0  0  0  0  0  0  0  0  0  0  0  0
  150.6368  141.5813  155.4654 C   0  0  0  0  0  0  0  0  0  0  0  0
  150.7885  142.4100  156.5067 N   0  0  0  0  0  0  0  0  0  0  0  0
  151.6991  142.1972  157.6251 C   0  0  0  0  0  0  0  0  0  0  0  0
  151.2715  143.0248  158.8502 C   0  0  1  0  0  0  0  0  0  0  0  0
  152.0838  142.7287  160.1196 C   0  0  0  0  0  0  0  0  0  0  0  0
  152.0246  144.0035  160.9753 C   0  0  0  0  0  0  0  0  0  0  0  0
  151.3906  145.0889  160.0947 C   0  0  0  0  0  0  0  0  0  0  0  0
  151.4427  144.5359  158.6685 C   0  0  2  0  0  0  0  0  0  0  0  0
  150.4299  145.0982  157.8600 O   0  0  0  0  0  0  0  0  0  0  0  0
  149.7258  142.0054  154.5600 N   0  5  0  0  0  0  0  0  0  0  0  0
  148.9498  141.1153  153.9207 C   0  0  0  0  0  0  0  0  0  0  0  0
  149.2160  139.8044  153.8907 N   0  0  0  0  0  0  0  0  0  0  0  0
  148.2738  139.0626  153.1759 C   0  0  0  0  0  0  0  0  0  0  0  0
  147.2614  139.8254  152.6571 C   0  0  0  0  0  0  0  0  0  0  0  0
  147.4630  141.5085  153.0525 S   0  0  0  0  0  0  0  0  0  0  0  0
  150.2263  143.2481  156.5231 H   0  0  0  0  0  0  0  0  0  0  0  0
  151.7233  141.1351  157.8746 H   0  0  0  0  0  0  0  0  0  0  0  0
  152.7091  142.4775  157.3223 H   0  0  0  0  0  0  0  0  0  0  0  0
  150.2214  142.8205  159.0684 H   0  0  0  0  0  0  0  0  0  0  0  0
  151.7039  141.8566  160.6533 H   0  0  0  0  0  0  0  0  0  0  0  0
  153.1226  142.5205  159.8587 H   0  0  0  0  0  0  0  0  0  0  0  0
  151.4328  143.8476  161.8778 H   0  0  0  0  0  0  0  0  0  0  0  0
  153.0278  144.2931  161.2899 H   0  0  0  0  0  0  0  0  0  0  0  0
  150.3539  145.2341  160.4026 H   0  0  0  0  0  0  0  0  0  0  0  0
  151.8968  146.0504  160.1852 H   0  0  0  0  0  0  0  0  0  0  0  0
  152.4173  144.7523  158.2283 H   0  0  0  0  0  0  0  0  0  0  0  0
  150.4931  144.7216  156.9957 H   0  0  0  0  0  0  0  0  0  0  0  0
  148.4019  137.9939  153.0882 H   0  0  0  0  0  0  0  0  0  0  0  0
  146.4142  139.5033  152.0709 H   0  0  0  0  0  0  0  0  0  0  0  0
  1  2  2  0  0  0  0
  2  3  1  0  0  0  0
  2 11  1  0  0  0  0
  3  4  1  0  0  0  0
  3 17  1  0  0  0  0
  4  5  1  0  0  0  0
  4 18  1  0  0  0  0
  4 19  1  0  0  0  0
  5  9  1  0  0  0  0
  5  6  1  0  0  0  0
  5 20  1  0  0  0  0
  6  7  1  0  0  0  0
  6 21  1  0  0  0  0
  6 22  1  0  0  0  0
  7  8  1  0  0  0  0
  7 23  1  0  0  0  0
  7 24  1  0  0  0  0
  8  9  1  0  0  0  0
  8 25  1  0  0  0  0
  8 26  1  0  0  0  0
  9 10  1  0  0  0  0
  9 27  1  0  0  0  0
 10 28  1  0  0  0  0
 11 12  1  0  0  0  0
 12 16  1  0  0  0  0
 12 13  2  0  0  0  0
 13 14  1  0  0  0  0
 14 15  2  0  0  0  0
 14 29  1  0  0  0  0
 15 16  1  0  0  0  0
 15 30  1  0  0  0  0
M  CHG  1  11  -1
M  END
> <s_m_source_file>
AV-unprocessed.smi

> <i_m_source_file_index>
3228

> <i_lp_mmshare_version>
43012

> <i_f3d_flags>
0

> <s_epik_input>
czFbY0hdW2NIXW5jMVtOSF1DKD1PKVtOSF1bQ0gyXVtDQEBIXTJbQ0gyXVtDSDJdW0NIMl1bQ0BIXTJbT0hd

> <s_epik_cmdline>
J2VwaWtfcHl0aG9uJywgJy1waCcsICc3LjAnLCAnLXRuJywgJzgnLCAnLW1hJywgJzIwMCcsICctbWV0YWxfYmluZGluZycsICctaW1hZScsICc8aW5maWxlLm1hZT4nLCAnLW9tYWUnLCAnPG91dGZpbGUubWFlPic=

> <r_lp_tautomer_probability>
0.999

> <r_epik_Ionization_Penalty>
8.49756

> <r_epik_Ionization_Penalty_Charging>
6.79645

> <r_epik_Ionization_Penalty_Neutral>
1.70111

> <r_epik_State_Penalty>
6.79662

> <r_epik_Charging_Adjusted_Penalty>
13.5931

> <i_epik_Tot_Q>
-1

> <i_epik_Tot_abs_Q>
1

> <r_epik_Metal_State_Penalty>
2.71629

> <b_epik_Metal_Only>
1

> <s_lp_Force_Field>
OPLS_2005

> <r_lp_Energy>
17.8369

> <b_lp_Chiralities_Consistent>
1

> <s_lp_Variant>
AV-unprocessed.smi:3228-8

> <Gold.Version>
5.8.1

> <Gold.Id.Protein>
6NUR|6NUR_protein|mol2

> <Gold.PLP.Fitness>
45.2365

> <Gold.PLP.PLP>
-33.2133

> <Gold.PLP.part.hbond>
-4.9396

> <Gold.PLP.part.metal>
0.0000

> <Gold.PLP.part.buried>
-1.7160

> <Gold.PLP.part.nonpolar>
-26.9842

> <Gold.PLP.part.repulsive>
2.4939

> <Gold.PLP.ligand.clash>
0.0000

> <Gold.PLP.ligand.torsion>
0.4918

> <Gold.PLP.Chemscore.Hbond>
2.3571

> <Gold.PLP.Chemscore.CHOScore>
1.9692

> <Gold.PLP.Chemscore.Metal>
0.0000

> <Gold.Chemscore.Hbonds>
donor molecule, donor type, donor heavy atom, donor atom, acceptor molecule, acceptor atom, score
      L1  H     3    17       P1  8028  0.67
      L1  H    10    28       P1  8028  0.41
      P1  H  7989  7998       L1     1  0.43
      L1  C    14    29       P1  7948  1.00
      L1  C    15    30       P1 10175  0.03

> <Gold.PLP.Chemscore.Internal.Correction>
0.0279

> <Gold.Rescore>
     Score         DG    S(hbond)    S(metal)    S(lipo)     H(rot)  DE(clash)    DE(int)     intcor
     12.13     -14.72       1.14        0.00      87.00       1.85       0.67       1.92       ----

> <Gold.Chemscore.Fitness>
12.1342

> <Gold.Chemscore.DG>
-14.7239

> <Gold.Chemscore.ZeroCoef>
-5.4800

> <Gold.Chemscore.Hbond>
1.1367

> <Gold.Chemscore.Metal>
0.0000

> <Gold.Chemscore.Lipo>
86.9961

> <Gold.Chemscore.Internal_Hbond>
0.0000

> <Gold.Chemscore.DEClash>
0.6731

> <Gold.Chemscore.DEInternal>
1.9166

> <Gold.Chemscore.Rot>
1.8481

> <Gold.Chemscore.Internal.Correction>
   9.000000E+99

> <Gold.Chemscore.Hbonds>
donor molecule, donor type, donor heavy atom, donor atom, acceptor molecule, acceptor atom, score
      L1  H     3    17       P1  8028  0.65
      L1  H    10    28       P1  8028  0.25
      P1  H  7989  7998       L1     1  0.02

> <Gold.Chemscore.Hbond.Weighted>
-3.7966

> <Gold.Chemscore.Metal.Weighted>
-0.0000

> <Gold.Chemscore.Lipo.Weighted>
-10.1785

> <Gold.Chemscore.Internal_Hbond.Weighted>
0.0000

> <Gold.Chemscore.DEClash.Weighted>
0.6731

> <Gold.Chemscore.DEInternal.Weighted>
1.9166

> <Gold.Chemscore.Rot.Weighted>
4.7313

> <Gold.Chemscore.Internal.Correction.Weighted>
   9.000000E+99

> <Gold.Protein.RotatedTorsions>
[ 6907 6896 6895 6894 ] final -166.74 input  -60.11 | X-H torsion
[ 7974 7965 7964 7962 ] final  -52.98 input  175.53 | X-H torsion
[ 8008 7997 7996 7995 ] final   81.02 input   59.86 | X-H torsion
[ 10167 10162 10161 10158 ] final   27.65 input  -65.29 | X-H torsion
[ 10718 10713 10712 10709 ] final   80.58 input   66.30 | X-H torsion
[ 10763 10752 10751 10750 ] final  105.77 input  -60.55 | X-H torsion
[ 11005 11000 10999 10996 ] final  -42.71 input  -57.11 | X-H torsion

> <Gold.Protein.ActiveResidues>
 VAL166  LYS551  ARG553  GLY616  TRP617  ASP618  TYR619  PRO620  LYS621  CYS622 
 ASP623  PHE694  ASN695  SER759  ASP760  ASP761  ALA762  ILE779  LEU786  VAL792 
 PHE793  MET794  SER795  GLU796  ALA797  LYS798  CYS799  TRP800  GLU811  SER814 

> <Gold.Protein.RotatedAtoms>
  151.4484  133.3624  159.2791 H   0  0  0  0  0  0  0  0  0  0  0  0  # atno 6907 bound_to 6896
  150.9108  134.8526  159.7434 H   0  0  0  0  0  0  0  0  0  0  0  0  # atno 6908 bound_to 6896
  152.4931  134.4414  159.9596 H   0  0  0  0  0  0  0  0  0  0  0  0  # atno 6909 bound_to 6896
  145.9020  140.7986  142.9738 H   0  0  0  0  0  0  0  0  0  0  0  0  # atno 7974 bound_to 7965
  155.8914  140.3438  155.5959 H   0  0  0  0  0  0  0  0  0  0  0  0  # atno 8008 bound_to 7997
  155.7606  140.0832  157.2176 H   0  0  0  0  0  0  0  0  0  0  0  0  # atno 8009 bound_to 7997
  154.4034  140.1536  156.2816 H   0  0  0  0  0  0  0  0  0  0  0  0  # atno 8010 bound_to 7997
  140.4920  144.0451  150.6301 H   0  0  0  0  0  0  0  0  0  0  0  0  # atno 10167 bound_to 10162
  157.6810  130.9965  150.2100 H   0  0  0  0  0  0  0  0  0  0  0  0  # atno 10718 bound_to 10713
  153.3839  135.3899  155.1876 H   0  0  0  0  0  0  0  0  0  0  0  0  # atno 10763 bound_to 10752
  154.8711  135.3732  154.4822 H   0  0  0  0  0  0  0  0  0  0  0  0  # atno 10764 bound_to 10752
  153.5302  135.7086  153.5748 H   0  0  0  0  0  0  0  0  0  0  0  0  # atno 10765 bound_to 10752
  141.0334  133.6810  156.2632 H   0  0  0  0  0  0  0  0  0  0  0  0  # atno 11005 bound_to 11000
  144.6736  140.1691  143.7416 LP  0  0  0  0  0  0  0  0  0  0  0  0  # atno 17320 bound_to 7965
  145.8779  139.2307  143.1622 LP  0  0  0  0  0  0  0  0  0  0  0  0  # atno 17321 bound_to 7965
  140.3723  143.2848  152.0264 LP  0  0  0  0  0  0  0  0  0  0  0  0  # atno 17342 bound_to 10162
  139.4853  144.6220  151.7237 LP  0  0  0  0  0  0  0  0  0  0  0  0  # atno 17343 bound_to 10162
  156.2773  130.3729  149.7971 LP  0  0  0  0  0  0  0  0  0  0  0  0  # atno 17370 bound_to 10713
  156.5670  130.8408  151.3345 LP  0  0  0  0  0  0  0  0  0  0  0  0  # atno 17371 bound_to 10713
  140.6365  134.5210  157.5565 LP  0  0  0  0  0  0  0  0  0  0  0  0  # atno 17394 bound_to 11000
  139.9224  134.8123  156.1172 LP  0  0  0  0  0  0  0  0  0  0  0  0  # atno 17395 bound_to 11000

$$$$
