AV-unprocessed.smi:2913|AV-procd|sdf|11184|dock9
  -GOLD-   2272016 73D 1   1.00000     0.00000
 Structure written by MMmdl.
 41 42  0  0  0  0  0  0  0  0  1 V2000
  151.2781  144.6883  160.5755 C   0  0  0  0  0  0  0  0  0  0  0  0
  152.1980  143.5518  160.9904 C   0  0  0  0  0  0  0  0  0  0  0  0
  152.7984  143.5815  162.2011 C   0  0  0  0  0  0  0  0  0  0  0  0
  153.6968  142.5233  162.6663 C   0  0  0  0  0  0  0  0  0  0  0  0
  154.2355  142.5574  163.7731 O   0  0  0  0  0  0  0  0  0  0  0  0
  153.8996  141.4995  161.7924 N   0  0  0  0  0  0  0  0  0  0  0  0
  154.7917  140.3959  162.1581 C   0  0  0  0  0  0  0  0  0  0  0  0
  153.2817  141.4560  160.5312 C   0  0  0  0  0  0  0  0  0  0  0  0
  152.4422  142.4237  160.1003 C   0  0  0  0  0  0  0  0  0  0  0  0
  151.8116  142.4252  158.8444 N   0  0  0  0  0  0  0  0  0  0  0  0
  151.3155  141.3960  158.1324 C   0  0  0  0  0  0  0  0  0  0  0  0
  151.2909  140.2181  158.4881 O   0  0  0  0  0  0  0  0  0  0  0  0
  150.8182  141.8264  156.9640 N   0  0  0  0  0  0  0  0  0  0  0  0
  150.1487  141.0030  155.9594 C   0  0  2  0  0  0  0  0  0  0  0  0
  149.1843  140.0407  156.6702 C   0  0  0  0  0  0  0  0  0  0  0  0
  151.2106  140.2644  155.1211 C   0  0  1  0  0  0  0  0  0  0  0  0
  152.1843  139.4080  155.9322 C   0  0  0  0  0  0  0  0  0  0  0  0
  152.6478  138.4093  154.8973 C   0  0  0  0  0  0  0  0  0  0  0  0
  151.3620  138.1500  154.1186 C   0  0  0  0  0  0  0  0  0  0  0  0
  150.5886  139.3424  154.2270 O   0  0  0  0  0  0  0  0  0  0  0  0
  151.1898  145.4433  161.3575 H   0  0  0  0  0  0  0  0  0  0  0  0
  150.2784  144.3087  160.3621 H   0  0  0  0  0  0  0  0  0  0  0  0
  151.6601  145.1772  159.6788 H   0  0  0  0  0  0  0  0  0  0  0  0
  152.6159  144.4166  162.8619 H   0  0  0  0  0  0  0  0  0  0  0  0
  154.8694  139.6366  161.3794 H   0  0  0  0  0  0  0  0  0  0  0  0
  154.4348  139.8983  163.0608 H   0  0  0  0  0  0  0  0  0  0  0  0
  155.7994  140.7669  162.3504 H   0  0  0  0  0  0  0  0  0  0  0  0
  153.5551  140.5890  159.9520 H   0  0  0  0  0  0  0  0  0  0  0  0
  151.7047  143.3402  158.4318 H   0  0  0  0  0  0  0  0  0  0  0  0
  150.8816  142.8133  156.7626 H   0  0  0  0  0  0  0  0  0  0  0  0
  149.5597  141.6297  155.2878 H   0  0  0  0  0  0  0  0  0  0  0  0
  148.6226  139.4402  155.9548 H   0  0  0  0  0  0  0  0  0  0  0  0
  148.4589  140.5882  157.2730 H   0  0  0  0  0  0  0  0  0  0  0  0
  149.7192  139.3578  157.3310 H   0  0  0  0  0  0  0  0  0  0  0  0
  151.7784  140.9757  154.5185 H   0  0  0  0  0  0  0  0  0  0  0  0
  153.0035  139.9842  156.3630 H   0  0  0  0  0  0  0  0  0  0  0  0
  151.6640  138.8919  156.7407 H   0  0  0  0  0  0  0  0  0  0  0  0
  153.3969  138.8641  154.2473 H   0  0  0  0  0  0  0  0  0  0  0  0
  153.0743  137.5048  155.3316 H   0  0  0  0  0  0  0  0  0  0  0  0
  151.5537  137.8933  153.0767 H   0  0  0  0  0  0  0  0  0  0  0  0
  150.8001  137.3319  154.5709 H   0  0  0  0  0  0  0  0  0  0  0  0
  1  2  1  0  0  0  0
  1 21  1  0  0  0  0
  1 22  1  0  0  0  0
  1 23  1  0  0  0  0
  2  9  1  0  0  0  0
  2  3  2  0  0  0  0
  3  4  1  0  0  0  0
  3 24  1  0  0  0  0
  4  5  2  0  0  0  0
  4  6  1  0  0  0  0
  6  7  1  0  0  0  0
  6  8  1  0  0  0  0
  7 25  1  0  0  0  0
  7 26  1  0  0  0  0
  7 27  1  0  0  0  0
  8  9  2  0  0  0  0
  8 28  1  0  0  0  0
  9 10  1  0  0  0  0
 10 11  1  0  0  0  0
 10 29  1  0  0  0  0
 11 12  2  0  0  0  0
 11 13  1  0  0  0  0
 13 14  1  0  0  0  0
 13 30  1  0  0  0  0
 14 15  1  0  0  0  0
 14 16  1  0  0  0  0
 14 31  1  0  0  0  0
 15 32  1  0  0  0  0
 15 33  1  0  0  0  0
 15 34  1  0  0  0  0
 16 20  1  0  0  0  0
 16 17  1  0  0  0  0
 16 35  1  0  0  0  0
 17 18  1  0  0  0  0
 17 36  1  0  0  0  0
 17 37  1  0  0  0  0
 18 19  1  0  0  0  0
 18 38  1  0  0  0  0
 18 39  1  0  0  0  0
 19 20  1  0  0  0  0
 19 40  1  0  0  0  0
 19 41  1  0  0  0  0
M  END
> <s_m_source_file>
AV-unprocessed.smi

> <i_m_source_file_index>
2913

> <i_lp_mmshare_version>
43012

> <i_f3d_flags>
0

> <s_epik_input>
W0NIM11jMVtjSF1jKD1PKW4oW0NIM10pW2NIXWMxW05IXUMoPU8pW05IXVtDQEhdKFtDSDNdKVtDQEBIXTJbQ0gyXVtDSDJdW0NIMl1PMg==

> <s_epik_cmdline>
J2VwaWtfcHl0aG9uJywgJy1waCcsICc3LjAnLCAnLXRuJywgJzgnLCAnLW1hJywgJzIwMCcsICctbWV0YWxfYmluZGluZycsICctaW1hZScsICc8aW5maWxlLm1hZT4nLCAnLW9tYWUnLCAnPG91dGZpbGUubWFlPic=

> <r_lp_tautomer_probability>
1

> <r_epik_Ionization_Penalty>
2.72039e-05

> <r_epik_Ionization_Penalty_Charging>
8.03976e-06

> <r_epik_Ionization_Penalty_Neutral>
1.91642e-05

> <r_epik_State_Penalty>
-0

> <r_epik_Charging_Adjusted_Penalty>
8.03976e-06

> <i_epik_Tot_Q>
0

> <i_epik_Tot_abs_Q>
0

> <r_epik_Metal_State_Penalty>
-0

> <b_epik_Metal_Only>
0

> <s_lp_Force_Field>
OPLS_2005

> <r_lp_Energy>
32.0319

> <b_lp_Chiralities_Consistent>
1

> <s_lp_Variant>
AV-unprocessed.smi:2913-3

> <Gold.Version>
5.8.1

> <Gold.Id.Protein>
6NUR|6NUR_protein|mol2

> <Gold.PLP.Fitness>
44.4005

> <Gold.PLP.PLP>
-45.4970

> <Gold.PLP.part.hbond>
-1.8475

> <Gold.PLP.part.metal>
0.0000

> <Gold.PLP.part.buried>
-3.1074

> <Gold.PLP.part.nonpolar>
-39.2846

> <Gold.PLP.part.repulsive>
0.3265

> <Gold.PLP.ligand.clash>
0.0000

> <Gold.PLP.ligand.torsion>
0.5544

> <Gold.PLP.Chemscore.Hbond>
0.0000

> <Gold.PLP.Chemscore.CHOScore>
0.0000

> <Gold.PLP.Chemscore.Metal>
0.0000

> <Gold.PLP.Chemscore.Internal.Correction>
0.0123

> <Gold.Rescore>
     Score         DG    S(hbond)    S(metal)    S(lipo)     H(rot)  DE(clash)    DE(int)     intcor
     10.90     -14.20       0.00        0.00     100.97       1.21       0.02       3.28       ----

> <Gold.Chemscore.Fitness>
10.8966

> <Gold.Chemscore.DG>
-14.1957

> <Gold.Chemscore.ZeroCoef>
-5.4800

> <Gold.Chemscore.Hbond>
0.0000

> <Gold.Chemscore.Metal>
0.0000

> <Gold.Chemscore.Lipo>
100.9716

> <Gold.Chemscore.Internal_Hbond>
0.0000

> <Gold.Chemscore.DEClash>
0.0183

> <Gold.Chemscore.DEInternal>
3.2808

> <Gold.Chemscore.Rot>
1.2101

> <Gold.Chemscore.Internal.Correction>
   9.000000E+99

> <Gold.Chemscore.Hbond.Weighted>
-0.0000

> <Gold.Chemscore.Metal.Weighted>
-0.0000

> <Gold.Chemscore.Lipo.Weighted>
-11.8137

> <Gold.Chemscore.Internal_Hbond.Weighted>
0.0000

> <Gold.Chemscore.DEClash.Weighted>
0.0183

> <Gold.Chemscore.DEInternal.Weighted>
3.2808

> <Gold.Chemscore.Rot.Weighted>
3.0979

> <Gold.Chemscore.Internal.Correction.Weighted>
   9.000000E+99

> <Gold.Protein.RotatedTorsions>
[ 6907 6896 6895 6894 ] final  144.94 input  -60.11 | X-H torsion
[ 7974 7965 7964 7962 ] final   68.65 input  175.53 | X-H torsion
[ 8008 7997 7996 7995 ] final   18.97 input   59.86 | X-H torsion
[ 10167 10162 10161 10158 ] final -122.35 input  -65.29 | X-H torsion
[ 10718 10713 10712 10709 ] final  142.30 input   66.30 | X-H torsion
[ 10763 10752 10751 10750 ] final -118.39 input  -60.55 | X-H torsion
[ 11005 11000 10999 10996 ] final  -15.24 input  -57.11 | X-H torsion

> <Gold.Protein.ActiveResidues>
 VAL166  LYS551  ARG553  GLY616  TRP617  ASP618  TYR619  PRO620  LYS621  CYS622 
 ASP623  PHE694  ASN695  SER759  ASP760  ASP761  ALA762  ILE779  LEU786  VAL792 
 PHE793  MET794  SER795  GLU796  ALA797  LYS798  CYS799  TRP800  GLU811  SER814 

> <Gold.Protein.RotatedAtoms>
  152.1873  133.4748  159.4989 H   0  0  0  0  0  0  0  0  0  0  0  0  # atno 6907 bound_to 6896
  150.6945  134.1757  159.4238 H   0  0  0  0  0  0  0  0  0  0  0  0  # atno 6908 bound_to 6896
  151.9671  135.0095  160.0601 H   0  0  0  0  0  0  0  0  0  0  0  0  # atno 6909 bound_to 6896
  145.8001  139.2977  143.1160 H   0  0  0  0  0  0  0  0  0  0  0  0  # atno 7974 bound_to 7965
  154.9139  140.3018  155.5251 H   0  0  0  0  0  0  0  0  0  0  0  0  # atno 8008 bound_to 7997
  156.3013  140.2384  156.4117 H   0  0  0  0  0  0  0  0  0  0  0  0  # atno 8009 bound_to 7997
  154.8398  140.0414  157.1522 H   0  0  0  0  0  0  0  0  0  0  0  0  # atno 8010 bound_to 7997
  140.0152  143.5401  152.2245 H   0  0  0  0  0  0  0  0  0  0  0  0  # atno 10167 bound_to 10162
  157.3821  131.0993  151.0728 H   0  0  0  0  0  0  0  0  0  0  0  0  # atno 10718 bound_to 10713
  154.8586  135.4275  154.2131 H   0  0  0  0  0  0  0  0  0  0  0  0  # atno 10763 bound_to 10752
  153.3152  135.6978  153.7085 H   0  0  0  0  0  0  0  0  0  0  0  0  # atno 10764 bound_to 10752
  153.6162  135.3510  155.2969 H   0  0  0  0  0  0  0  0  0  0  0  0  # atno 10765 bound_to 10752
  140.7946  133.8261  155.9412 H   0  0  0  0  0  0  0  0  0  0  0  0  # atno 11005 bound_to 11000
  145.9887  140.8621  143.0077 LP  0  0  0  0  0  0  0  0  0  0  0  0  # atno 17320 bound_to 7965
  144.6770  140.2184  143.7369 LP  0  0  0  0  0  0  0  0  0  0  0  0  # atno 17321 bound_to 7965
  139.6178  144.7623  151.2808 LP  0  0  0  0  0  0  0  0  0  0  0  0  # atno 17342 bound_to 10162
  140.7365  143.6705  150.8086 LP  0  0  0  0  0  0  0  0  0  0  0  0  # atno 17343 bound_to 10162
  157.1793  130.6302  149.5666 LP  0  0  0  0  0  0  0  0  0  0  0  0  # atno 17370 bound_to 10713
  155.9778  130.4759  150.6617 LP  0  0  0  0  0  0  0  0  0  0  0  0  # atno 17371 bound_to 10713
  140.9355  134.1967  157.4834 LP  0  0  0  0  0  0  0  0  0  0  0  0  # atno 17394 bound_to 11000
  139.8727  134.9850  156.5265 LP  0  0  0  0  0  0  0  0  0  0  0  0  # atno 17395 bound_to 11000

$$$$
