AV-unprocessed.smi:790|AV-procd|sdf|3741|dock10
  -GOLD-   22720 1173D 1   1.00000     0.00000
 Structure written by MMmdl.
 38 40  0  0  0  0  0  0  0  0  1 V2000
  145.5000  137.5330  154.1536 O   0  0  0  0  0  0  0  0  0  0  0  0
  146.4963  137.0988  153.5758 C   0  0  0  0  0  0  0  0  0  0  0  0
  147.6557  137.7603  153.4204 N   0  0  0  0  0  0  0  0  0  0  0  0
  148.0069  139.0522  153.8972 C   0  0  0  0  0  0  0  0  0  0  0  0
  149.2905  139.4003  154.3836 C   0  0  0  0  0  0  0  0  0  0  0  0
  149.5196  140.7224  154.8108 C   0  0  0  0  0  0  0  0  0  0  0  0
  148.4620  141.6487  154.7299 C   0  0  0  0  0  0  0  0  0  0  0  0
  147.2380  141.3345  154.2556 N   0  0  0  0  0  0  0  0  0  0  0  0
  147.0258  140.0652  153.8471 C   0  0  0  0  0  0  0  0  0  0  0  0
  146.5504  135.8873  153.0042 N   0  0  0  0  0  0  0  0  0  0  0  0
  145.4512  134.9218  152.9614 C   0  0  1  0  0  0  0  0  0  0  0  0
  144.3100  135.4525  152.0666 C   0  0  2  0  0  0  0  0  0  0  0  0
  143.0337  134.6371  152.3429 C   0  0  0  0  0  0  0  0  0  0  0  0
  143.3608  133.2769  151.6978 C   0  0  0  0  0  0  0  0  0  0  0  0
  144.7802  133.4949  151.1362 C   0  0  1  0  0  0  0  0  0  0  0  0
  144.7064  134.9477  150.6844 C   0  0  0  0  0  0  0  0  0  0  0  0
  145.7939  133.5488  152.3058 C   0  0  1  0  0  0  0  0  0  0  0  0
  147.2591  133.3513  151.8538 C   0  0  0  0  0  0  0  0  0  0  0  0
  147.5575  131.9759  151.7370 O   0  0  0  0  0  0  0  0  0  0  0  0
  148.3531  137.3065  152.8486 H   0  0  0  0  0  0  0  0  0  0  0  0
  150.1020  138.6906  154.4242 H   0  0  0  0  0  0  0  0  0  0  0  0
  150.4869  141.0208  155.1877 H   0  0  0  0  0  0  0  0  0  0  0  0
  148.6048  142.6705  155.0490 H   0  0  0  0  0  0  0  0  0  0  0  0
  146.0359  139.8505  153.4717 H   0  0  0  0  0  0  0  0  0  0  0  0
  147.4094  135.6141  152.5500 H   0  0  0  0  0  0  0  0  0  0  0  0
  145.0771  134.7732  153.9763 H   0  0  0  0  0  0  0  0  0  0  0  0
  144.1533  136.5296  152.1371 H   0  0  0  0  0  0  0  0  0  0  0  0
  142.8130  134.5527  153.4075 H   0  0  0  0  0  0  0  0  0  0  0  0
  142.1692  135.0928  151.8582 H   0  0  0  0  0  0  0  0  0  0  0  0
  143.3170  132.4547  152.4131 H   0  0  0  0  0  0  0  0  0  0  0  0
  142.6564  133.0560  150.8948 H   0  0  0  0  0  0  0  0  0  0  0  0
  145.0405  132.7849  150.3507 H   0  0  0  0  0  0  0  0  0  0  0  0
  143.9441  135.1258  149.9238 H   0  0  0  0  0  0  0  0  0  0  0  0
  145.6588  135.3461  150.3320 H   0  0  0  0  0  0  0  0  0  0  0  0
  145.5683  132.7552  153.0202 H   0  0  0  0  0  0  0  0  0  0  0  0
  147.4561  133.8421  150.9006 H   0  0  0  0  0  0  0  0  0  0  0  0
  147.9460  133.7733  152.5872 H   0  0  0  0  0  0  0  0  0  0  0  0
  147.9022  131.8152  150.8719 H   0  0  0  0  0  0  0  0  0  0  0  0
  1  2  2  0  0  0  0
  2  3  1  0  0  0  0
  2 10  1  0  0  0  0
  3  4  1  0  0  0  0
  3 20  1  0  0  0  0
  4  9  1  0  0  0  0
  4  5  2  0  0  0  0
  5  6  1  0  0  0  0
  5 21  1  0  0  0  0
  6  7  2  0  0  0  0
  6 22  1  0  0  0  0
  7  8  1  0  0  0  0
  7 23  1  0  0  0  0
  8  9  2  0  0  0  0
  9 24  1  0  0  0  0
 10 11  1  0  0  0  0
 10 25  1  0  0  0  0
 11 17  1  0  0  0  0
 11 12  1  0  0  0  0
 11 26  1  0  0  0  0
 12 16  1  0  0  0  0
 12 13  1  0  0  0  0
 12 27  1  0  0  0  0
 13 14  1  0  0  0  0
 13 28  1  0  0  0  0
 13 29  1  0  0  0  0
 14 15  1  0  0  0  0
 14 30  1  0  0  0  0
 14 31  1  0  0  0  0
 15 16  1  0  0  0  0
 15 17  1  0  0  0  0
 15 32  1  0  0  0  0
 16 33  1  0  0  0  0
 16 34  1  0  0  0  0
 17 18  1  0  0  0  0
 17 35  1  0  0  0  0
 18 19  1  0  0  0  0
 18 36  1  0  0  0  0
 18 37  1  0  0  0  0
 19 38  1  0  0  0  0
M  END
> <s_m_source_file>
AV-unprocessed.smi

> <i_m_source_file_index>
790

> <i_lp_mmshare_version>
43012

> <i_f3d_flags>
0

> <s_epik_input>
W0NIMl0xW0NIMl1bQ0BASF0oW0NIMl0yKVtDQEBIXShbQ0gyXVtPSF0pW0NAQEhdKFtDQEhdMTIpW05IXUMoPU8pW05IXWMzW2NIXVtjSF1bY0hdbltjSF0z

> <s_epik_cmdline>
J2VwaWtfcHl0aG9uJywgJy1waCcsICc3LjAnLCAnLXRuJywgJzgnLCAnLW1hJywgJzIwMCcsICctbWV0YWxfYmluZGluZycsICctaW1hZScsICc8aW5maWxlLm1hZT4nLCAnLW9tYWUnLCAnPG91dGZpbGUubWFlPic=

> <r_epik_Ionization_Penalty>
0.00497582

> <r_epik_Ionization_Penalty_Charging>
0

> <r_epik_Ionization_Penalty_Neutral>
0.00497582

> <r_epik_State_Penalty>
0.00358602

> <r_epik_Charging_Adjusted_Penalty>
0.00358602

> <i_epik_Tot_Q>
0

> <i_epik_Tot_abs_Q>
0

> <r_epik_Metal_State_Penalty>
-0

> <b_epik_Metal_Only>
0

> <s_lp_Force_Field>
OPLS_2005

> <r_lp_Energy>
53.2312

> <b_lp_Chiralities_Consistent>
1

> <s_lp_Variant>
AV-unprocessed.smi:790-2

> <Gold.Version>
5.8.1

> <Gold.Id.Protein>
6NUR|6NUR_protein|mol2

> <Gold.PLP.Fitness>
44.8513

> <Gold.PLP.PLP>
-31.3402

> <Gold.PLP.part.hbond>
-3.0000

> <Gold.PLP.part.metal>
0.0000

> <Gold.PLP.part.buried>
-3.4355

> <Gold.PLP.part.nonpolar>
-25.6945

> <Gold.PLP.part.repulsive>
0.3108

> <Gold.PLP.ligand.clash>
0.0000

> <Gold.PLP.ligand.torsion>
0.5541

> <Gold.PLP.Chemscore.Hbond>
2.8800

> <Gold.PLP.Chemscore.CHOScore>
1.9891

> <Gold.PLP.Chemscore.Metal>
0.0000

> <Gold.Chemscore.Hbonds>
donor molecule, donor type, donor heavy atom, donor atom, acceptor molecule, acceptor atom, score
      L1  H     3    20       P1  7948  1.00
      L1  H    10    25       P1  7948  0.91
      L1  H    19    38       P1 10747  0.70
      L1  C     7    23       P1  8028  1.00
      L1  C     9    24       P1 10175  0.75

> <Gold.PLP.Chemscore.Internal.Correction>
0.0122

> <Gold.Rescore>
     Score         DG    S(hbond)    S(metal)    S(lipo)     H(rot)  DE(clash)    DE(int)     intcor
     17.53     -19.51       2.88        0.00      76.75       1.78       0.22       1.76       ----

> <Gold.Chemscore.Fitness>
17.5283

> <Gold.Chemscore.DG>
-19.5104

> <Gold.Chemscore.ZeroCoef>
-5.4800

> <Gold.Chemscore.Hbond>
2.8751

> <Gold.Chemscore.Metal>
0.0000

> <Gold.Chemscore.Lipo>
76.7535

> <Gold.Chemscore.Internal_Hbond>
0.0000

> <Gold.Chemscore.DEClash>
0.2250

> <Gold.Chemscore.DEInternal>
1.7571

> <Gold.Chemscore.Rot>
1.7783

> <Gold.Chemscore.Internal.Correction>
   9.000000E+99

> <Gold.Chemscore.Hbonds>
donor molecule, donor type, donor heavy atom, donor atom, acceptor molecule, acceptor atom, score
      L1  H     3    20       P1  7948  0.96
      L1  H    10    25       P1  7948  0.88
      L1  H    19    38       P1 10747  0.67

> <Gold.Chemscore.Hbond.Weighted>
-9.6028

> <Gold.Chemscore.Metal.Weighted>
-0.0000

> <Gold.Chemscore.Lipo.Weighted>
-8.9802

> <Gold.Chemscore.Internal_Hbond.Weighted>
0.0000

> <Gold.Chemscore.DEClash.Weighted>
0.2250

> <Gold.Chemscore.DEInternal.Weighted>
1.7571

> <Gold.Chemscore.Rot.Weighted>
4.5525

> <Gold.Chemscore.Internal.Correction.Weighted>
   9.000000E+99

> <Gold.Protein.RotatedTorsions>
[ 6907 6896 6895 6894 ] final  134.05 input  -60.11 | X-H torsion
[ 7974 7965 7964 7962 ] final -167.72 input  175.53 | X-H torsion
[ 8008 7997 7996 7995 ] final   51.98 input   59.86 | X-H torsion
[ 10167 10162 10161 10158 ] final  -43.75 input  -65.29 | X-H torsion
[ 10718 10713 10712 10709 ] final -179.52 input   66.30 | X-H torsion
[ 10763 10752 10751 10750 ] final  -95.63 input  -60.55 | X-H torsion
[ 11005 11000 10999 10996 ] final  166.88 input  -57.11 | X-H torsion

> <Gold.Protein.ActiveResidues>
 VAL166  LYS551  ARG553  GLY616  TRP617  ASP618  TYR619  PRO620  LYS621  CYS622 
 ASP623  PHE694  ASN695  SER759  ASP760  ASP761  ALA762  ILE779  LEU786  VAL792 
 PHE793  MET794  SER795  GLU796  ALA797  LYS798  CYS799  TRP800  GLU811  SER814 

> <Gold.Protein.RotatedAtoms>
  152.3154  133.5797  159.5708 H   0  0  0  0  0  0  0  0  0  0  0  0  # atno 6907 bound_to 6896
  150.7344  134.0090  159.3672 H   0  0  0  0  0  0  0  0  0  0  0  0  # atno 6908 bound_to 6896
  151.7980  135.0717  160.0447 H   0  0  0  0  0  0  0  0  0  0  0  0  # atno 6909 bound_to 6896
  144.7217  140.2477  143.6283 H   0  0  0  0  0  0  0  0  0  0  0  0  # atno 7974 bound_to 7965
  155.4442  140.3455  155.4293 H   0  0  0  0  0  0  0  0  0  0  0  0  # atno 8008 bound_to 7997
  156.1260  140.1500  156.9166 H   0  0  0  0  0  0  0  0  0  0  0  0  # atno 8009 bound_to 7997
  154.4858  140.0856  156.7463 H   0  0  0  0  0  0  0  0  0  0  0  0  # atno 8010 bound_to 7997
  140.6922  143.2966  151.3397 H   0  0  0  0  0  0  0  0  0  0  0  0  # atno 10167 bound_to 10162
  156.8603  130.9749  151.3084 H   0  0  0  0  0  0  0  0  0  0  0  0  # atno 10718 bound_to 10713
  154.7166  135.5113  153.8747 H   0  0  0  0  0  0  0  0  0  0  0  0  # atno 10763 bound_to 10752
  153.0826  135.6636  154.0024 H   0  0  0  0  0  0  0  0  0  0  0  0  # atno 10764 bound_to 10752
  153.9855  135.3025  155.3396 H   0  0  0  0  0  0  0  0  0  0  0  0  # atno 10765 bound_to 10752
  140.2710  134.7826  157.3675 H   0  0  0  0  0  0  0  0  0  0  0  0  # atno 11005 bound_to 11000
  145.8258  139.2064  143.1911 LP  0  0  0  0  0  0  0  0  0  0  0  0  # atno 17320 bound_to 7965
  146.0474  140.8104  142.9798 LP  0  0  0  0  0  0  0  0  0  0  0  0  # atno 17321 bound_to 7965
  139.6338  144.0670  152.2498 LP  0  0  0  0  0  0  0  0  0  0  0  0  # atno 17342 bound_to 10162
  140.0153  144.6193  150.7612 LP  0  0  0  0  0  0  0  0  0  0  0  0  # atno 17343 bound_to 10162
  157.6254  130.8687  149.9180 LP  0  0  0  0  0  0  0  0  0  0  0  0  # atno 17370 bound_to 10713
  156.0780  130.3676  150.0637 LP  0  0  0  0  0  0  0  0  0  0  0  0  # atno 17371 bound_to 10713
  140.1373  134.5018  155.8059 LP  0  0  0  0  0  0  0  0  0  0  0  0  # atno 17394 bound_to 11000
  141.2177  133.6812  156.7147 LP  0  0  0  0  0  0  0  0  0  0  0  0  # atno 17395 bound_to 11000

$$$$
