AV-unprocessed.smi:740|AV-procd|sdf|3551|dock3
  -GOLD-   22720 0543D 1   1.00000     0.00000
 Structure written by MMmdl.
 45 47  0  0  0  0  0  0  0  0  2 V2000
  152.1300  144.3906  160.7769 C   0  0  0  0  0  0  0  0  0  0  0  0
  151.9376  143.3502  159.6866 C   0  0  0  0  0  0  0  0  0  0  0  0
  151.1102  143.6710  158.5872 C   0  0  0  0  0  0  0  0  0  0  0  0
  150.9552  142.6999  157.6054 C   0  0  0  0  0  0  0  0  0  0  0  0
  150.2210  142.7117  156.4179 N   0  3  0  0  0  0  0  0  0  0  0  0
  150.3786  141.5222  155.7747 C   0  0  0  0  0  0  0  0  0  0  0  0
  151.2003  140.7491  156.5352 N   0  0  0  0  0  0  0  0  0  0  0  0
  151.6840  139.3825  156.2925 C   0  0  0  0  0  0  0  0  0  0  0  0
  152.2301  139.1884  154.8644 C   0  0  1  0  0  0  0  0  0  0  0  0
  153.6389  139.3086  154.8941 O   0  0  0  0  0  0  0  0  0  0  0  0
  151.8596  137.8012  154.2994 C   0  0  0  0  0  0  0  0  0  0  0  0
  150.5440  137.3483  154.7656 N   0  0  0  0  0  0  0  0  0  0  0  0
  149.4121  138.0498  154.6163 C   0  0  0  0  0  0  0  0  0  0  0  0
  149.3052  139.1551  154.0857 O   0  0  0  0  0  0  0  0  0  0  0  0
  148.2220  137.2952  155.1921 C   0  0  0  0  0  0  0  0  0  0  0  0
  148.8472  135.9910  155.7098 C   0  0  1  0  0  0  0  0  0  0  0  0
  148.2578  134.7243  155.0673 C   0  0  0  0  0  0  0  0  0  0  0  0
  150.3242  136.1683  155.3627 C   0  0  0  0  0  0  0  0  0  0  0  0
  151.1735  135.3125  155.6116 O   0  0  0  0  0  0  0  0  0  0  0  0
  151.5865  141.4433  157.6884 C   0  0  0  0  0  0  0  0  0  0  0  0
  152.4045  141.1112  158.7662 C   0  0  0  0  0  0  0  0  0  0  0  0
  152.5780  142.0870  159.7739 C   0  0  0  0  0  0  0  0  0  0  0  0
  153.4693  141.7538  160.9584 C   0  0  0  0  0  0  0  0  0  0  0  0
  151.5380  145.2855  160.5830 H   0  0  0  0  0  0  0  0  0  0  0  0
  153.1767  144.6897  160.8382 H   0  0  0  0  0  0  0  0  0  0  0  0
  151.8251  143.9939  161.7455 H   0  0  0  0  0  0  0  0  0  0  0  0
  150.6209  144.6311  158.5124 H   0  0  0  0  0  0  0  0  0  0  0  0
  149.9324  141.2420  154.8313 H   0  0  0  0  0  0  0  0  0  0  0  0
  152.4268  139.1184  157.0457 H   0  0  0  0  0  0  0  0  0  0  0  0
  150.8355  138.7169  156.4556 H   0  0  0  0  0  0  0  0  0  0  0  0
  151.8270  139.9754  154.2255 H   0  0  0  0  0  0  0  0  0  0  0  0
  153.9525  139.3914  154.0065 H   0  0  0  0  0  0  0  0  0  0  0  0
  151.9181  137.8004  153.2093 H   0  0  0  0  0  0  0  0  0  0  0  0
  152.6000  137.0674  154.6232 H   0  0  0  0  0  0  0  0  0  0  0  0
  147.7597  137.8694  155.9957 H   0  0  0  0  0  0  0  0  0  0  0  0
  147.4761  137.1224  154.4153 H   0  0  0  0  0  0  0  0  0  0  0  0
  148.7461  135.9355  156.7945 H   0  0  0  0  0  0  0  0  0  0  0  0
  148.7047  133.8239  155.4899 H   0  0  0  0  0  0  0  0  0  0  0  0
  148.4240  134.7054  153.9893 H   0  0  0  0  0  0  0  0  0  0  0  0
  147.1825  134.6671  155.2374 H   0  0  0  0  0  0  0  0  0  0  0  0
  152.8950  140.1518  158.8330 H   0  0  0  0  0  0  0  0  0  0  0  0
  153.9273  140.7702  160.8497 H   0  0  0  0  0  0  0  0  0  0  0  0
  152.8909  141.7523  161.8826 H   0  0  0  0  0  0  0  0  0  0  0  0
  154.2728  142.4845  161.0529 H   0  0  0  0  0  0  0  0  0  0  0  0
  149.6539  143.4741  156.0694 H   0  0  0  0  0  0  0  0  0  0  0  0
  1  2  1  0  0  0  0
  1 24  1  0  0  0  0
  1 25  1  0  0  0  0
  1 26  1  0  0  0  0
  2 22  1  0  0  0  0
  2  3  2  0  0  0  0
  3  4  1  0  0  0  0
  3 27  1  0  0  0  0
  4 20  2  0  0  0  0
  4  5  1  0  0  0  0
  5  6  2  0  0  0  0
  5 45  1  0  0  0  0
  6  7  1  0  0  0  0
  6 28  1  0  0  0  0
  7  8  1  0  0  0  0
  7 20  1  0  0  0  0
  8  9  1  0  0  0  0
  8 29  1  0  0  0  0
  8 30  1  0  0  0  0
  9 10  1  0  0  0  0
  9 11  1  0  0  0  0
  9 31  1  0  0  0  0
 10 32  1  0  0  0  0
 11 12  1  0  0  0  0
 11 33  1  0  0  0  0
 11 34  1  0  0  0  0
 12 18  1  0  0  0  0
 12 13  1  0  0  0  0
 13 14  2  0  0  0  0
 13 15  1  0  0  0  0
 15 16  1  0  0  0  0
 15 35  1  0  0  0  0
 15 36  1  0  0  0  0
 16 17  1  0  0  0  0
 16 18  1  0  0  0  0
 16 37  1  0  0  0  0
 17 38  1  0  0  0  0
 17 39  1  0  0  0  0
 17 40  1  0  0  0  0
 18 19  2  0  0  0  0
 20 21  1  0  0  0  0
 21 22  2  0  0  0  0
 21 41  1  0  0  0  0
 22 23  1  0  0  0  0
 23 42  1  0  0  0  0
 23 43  1  0  0  0  0
 23 44  1  0  0  0  0
M  CHG  1   5   1
M  END
> <s_m_source_file>
AV-unprocessed.smi

> <i_m_source_file_index>
740

> <i_lp_mmshare_version>
43012

> <i_f3d_flags>
0

> <s_epik_input>
W0NIM11jKFtjSF0xKWMoW0NIM10pW2NIXWMoYzEyKW4oW2NIXW4yKVtDSDJdW0NASF0oW09IXSlbQ0gyXU4zQyg9TylbQ0gyXVtDQEBIXShbQ0gzXSlDMz1P

> <s_epik_cmdline>
J2VwaWtfcHl0aG9uJywgJy1waCcsICc3LjAnLCAnLXRuJywgJzgnLCAnLW1hJywgJzIwMCcsICctbWV0YWxfYmluZGluZycsICctaW1hZScsICc8aW5maWxlLm1hZT4nLCAnLW9tYWUnLCAnPG91dGZpbGUubWFlPic=

> <r_lp_tautomer_probability>
1

> <r_epik_Ionization_Penalty>
1.08202

> <r_epik_Ionization_Penalty_Charging>
1.08202

> <r_epik_Ionization_Penalty_Neutral>
1.16605e-06

> <r_epik_State_Penalty>
1.13754

> <r_epik_Charging_Adjusted_Penalty>
2.21956

> <i_epik_Tot_Q>
1

> <i_epik_Tot_abs_Q>
1

> <r_epik_Metal_State_Penalty>
5.13645

> <b_epik_Metal_Only>
0

> <s_lp_Force_Field>
OPLS_2005

> <r_lp_Energy>
22.2654

> <b_lp_Chiralities_Consistent>
1

> <s_lp_Variant>
AV-unprocessed.smi:740-6

> <Gold.Version>
5.8.1

> <Gold.Id.Protein>
6NUR|6NUR_protein|mol2

> <Gold.PLP.Fitness>
56.6630

> <Gold.PLP.PLP>
-46.5965

> <Gold.PLP.part.hbond>
-2.9458

> <Gold.PLP.part.metal>
0.0000

> <Gold.PLP.part.buried>
-5.5730

> <Gold.PLP.part.nonpolar>
-39.6395

> <Gold.PLP.part.repulsive>
0.5631

> <Gold.PLP.ligand.clash>
0.0000

> <Gold.PLP.ligand.torsion>
0.9812

> <Gold.PLP.Chemscore.Hbond>
4.0000

> <Gold.PLP.Chemscore.CHOScore>
0.0000

> <Gold.PLP.Chemscore.Metal>
0.0000

> <Gold.Chemscore.Hbonds>
donor molecule, donor type, donor heavy atom, donor atom, acceptor molecule, acceptor atom, score
      L1  H     5    45       P1  8028  1.95
      P1  H  7997  8010       L1    10  1.00
      P1  H 10752 10765       L1    19  1.00

> <Gold.PLP.Chemscore.Internal.Correction>
0.0288

> <Gold.Rescore>
     Score         DG    S(hbond)    S(metal)    S(lipo)     H(rot)  DE(clash)    DE(int)     intcor
     20.38     -22.09       2.95        0.00     109.52       2.37       0.72       0.99       ----

> <Gold.Chemscore.Fitness>
20.3775

> <Gold.Chemscore.DG>
-22.0899

> <Gold.Chemscore.ZeroCoef>
-5.4800

> <Gold.Chemscore.Hbond>
2.9549

> <Gold.Chemscore.Metal>
0.0000

> <Gold.Chemscore.Lipo>
109.5208

> <Gold.Chemscore.Internal_Hbond>
0.0000

> <Gold.Chemscore.DEClash>
0.7211

> <Gold.Chemscore.DEInternal>
0.9914

> <Gold.Chemscore.Rot>
2.3724

> <Gold.Chemscore.Internal.Correction>
   9.000000E+99

> <Gold.Chemscore.Hbonds>
donor molecule, donor type, donor heavy atom, donor atom, acceptor molecule, acceptor atom, score
      L1  H     5    45       P1  8028  0.91
      P1  H  7997  8010       L1    10  0.47
      P1  H 10752 10765       L1    19  0.91

> <Gold.Chemscore.Hbond.Weighted>
-9.8694

> <Gold.Chemscore.Metal.Weighted>
-0.0000

> <Gold.Chemscore.Lipo.Weighted>
-12.8139

> <Gold.Chemscore.Internal_Hbond.Weighted>
0.0000

> <Gold.Chemscore.DEClash.Weighted>
0.7211

> <Gold.Chemscore.DEInternal.Weighted>
0.9914

> <Gold.Chemscore.Rot.Weighted>
6.0734

> <Gold.Chemscore.Internal.Correction.Weighted>
   9.000000E+99

> <Gold.Protein.RotatedTorsions>
[ 6907 6896 6895 6894 ] final  177.42 input  -60.11 | X-H torsion
[ 7974 7965 7964 7962 ] final  137.73 input  175.53 | X-H torsion
[ 8008 7997 7996 7995 ] final  115.03 input   59.86 | X-H torsion
[ 10167 10162 10161 10158 ] final   91.00 input  -65.29 | X-H torsion
[ 10718 10713 10712 10709 ] final  145.01 input   66.30 | X-H torsion
[ 10763 10752 10751 10750 ] final -165.34 input  -60.55 | X-H torsion
[ 11005 11000 10999 10996 ] final -133.19 input  -57.11 | X-H torsion

> <Gold.Protein.ActiveResidues>
 VAL166  LYS551  ARG553  GLY616  TRP617  ASP618  TYR619  PRO620  LYS621  CYS622 
 ASP623  PHE694  ASN695  SER759  ASP760  ASP761  ALA762  ILE779  LEU786  VAL792 
 PHE793  MET794  SER795  GLU796  ALA797  LYS798  CYS799  TRP800  GLU811  SER814 

> <Gold.Protein.RotatedAtoms>
  151.7042  133.3311  159.3274 H   0  0  0  0  0  0  0  0  0  0  0  0  # atno 6907 bound_to 6896
  150.7722  134.6589  159.6338 H   0  0  0  0  0  0  0  0  0  0  0  0  # atno 6908 bound_to 6896
  152.3751  134.6678  160.0214 H   0  0  0  0  0  0  0  0  0  0  0  0  # atno 6909 bound_to 6896
  144.9439  139.4897  143.5558 H   0  0  0  0  0  0  0  0  0  0  0  0  # atno 7974 bound_to 7965
  156.2357  140.2947  156.0306 H   0  0  0  0  0  0  0  0  0  0  0  0  # atno 8008 bound_to 7997
  155.2099  140.0412  157.2949 H   0  0  0  0  0  0  0  0  0  0  0  0  # atno 8009 bound_to 7997
  154.6074  140.2443  155.7720 H   0  0  0  0  0  0  0  0  0  0  0  0  # atno 8010 bound_to 7997
  139.8417  144.6637  150.9275 H   0  0  0  0  0  0  0  0  0  0  0  0  # atno 10167 bound_to 10162
  157.3504  131.0950  151.1005 H   0  0  0  0  0  0  0  0  0  0  0  0  # atno 10718 bound_to 10713
  154.6941  135.2976  154.9437 H   0  0  0  0  0  0  0  0  0  0  0  0  # atno 10763 bound_to 10752
  154.0391  135.6660  153.4792 H   0  0  0  0  0  0  0  0  0  0  0  0  # atno 10764 bound_to 10752
  153.0633  135.5103  154.8049 H   0  0  0  0  0  0  0  0  0  0  0  0  # atno 10765 bound_to 10752
  140.9103  134.1576  157.4394 H   0  0  0  0  0  0  0  0  0  0  0  0  # atno 11005 bound_to 11000
  146.3296  139.8478  142.8878 LP  0  0  0  0  0  0  0  0  0  0  0  0  # atno 17320 bound_to 7965
  145.2948  141.0177  143.3642 LP  0  0  0  0  0  0  0  0  0  0  0  0  # atno 17321 bound_to 7965
  140.7797  143.3906  151.1316 LP  0  0  0  0  0  0  0  0  0  0  0  0  # atno 17342 bound_to 10162
  139.7552  143.8718  152.3087 LP  0  0  0  0  0  0  0  0  0  0  0  0  # atno 17343 bound_to 10162
  157.2182  130.6469  149.5801 LP  0  0  0  0  0  0  0  0  0  0  0  0  # atno 17370 bound_to 10713
  155.9721  130.4637  150.6193 LP  0  0  0  0  0  0  0  0  0  0  0  0  # atno 17371 bound_to 10713
  139.8756  134.9933  156.5638 LP  0  0  0  0  0  0  0  0  0  0  0  0  # atno 17394 bound_to 11000
  140.8118  133.8423  155.8817 LP  0  0  0  0  0  0  0  0  0  0  0  0  # atno 17395 bound_to 11000

$$$$
