AV-unprocessed.smi:1350|AV-procd|sdf|5523|dock5
  -GOLD-   22720 5113D 1   1.00000     0.00000
 Structure written by MMmdl.
 44 46  0  0  0  0  0  0  0  0  2 V2000
  154.3841  135.1519  164.1915 C   0  0  0  0  0  0  0  0  0  0  0  0
  154.2119  136.0191  163.0801 O   0  0  0  0  0  0  0  0  0  0  0  0
  154.6890  137.3112  163.1740 C   0  0  0  0  0  0  0  0  0  0  0  0
  155.4255  137.7904  164.2883 C   0  0  0  0  0  0  0  0  0  0  0  0
  155.8966  139.1161  164.3214 C   0  0  0  0  0  0  0  0  0  0  0  0
  155.6443  139.9803  163.2424 C   0  0  0  0  0  0  0  0  0  0  0  0
  154.9139  139.5187  162.1331 C   0  0  0  0  0  0  0  0  0  0  0  0
  154.4259  138.1940  162.0969 C   0  0  0  0  0  0  0  0  0  0  0  0
  153.6524  137.7155  160.8767 C   0  0  0  0  0  0  0  0  0  0  0  0
  153.8045  138.5863  159.7659 O   0  0  0  0  0  0  0  0  0  0  0  0
  153.0882  138.1543  158.6208 C   0  0  0  0  0  0  0  0  0  0  0  0
  152.6112  139.3859  157.8346 C   0  0  1  0  0  0  0  0  0  0  0  0
  152.3403  138.9949  156.5027 O   0  0  0  0  0  0  0  0  0  0  0  0
  151.3411  140.0052  158.4503 C   0  0  0  0  0  0  0  0  0  0  0  0
  151.1172  141.3919  158.0158 N   0  0  0  0  0  0  0  0  0  0  0  0
  150.4827  141.8574  156.9056 C   0  0  0  0  0  0  0  0  0  0  0  0
  150.5324  143.2175  156.9418 N   0  3  0  0  0  0  0  0  0  0  0  0
  151.2066  143.6288  158.0932 C   0  0  0  0  0  0  0  0  0  0  0  0
  151.5057  144.9029  158.5658 C   0  0  0  0  0  0  0  0  0  0  0  0
  152.2087  144.9765  159.7860 C   0  0  0  0  0  0  0  0  0  0  0  0
  152.5856  143.8130  160.4875 C   0  0  0  0  0  0  0  0  0  0  0  0
  152.2781  142.5261  159.9985 C   0  0  0  0  0  0  0  0  0  0  0  0
  151.5844  142.4610  158.7901 C   0  0  0  0  0  0  0  0  0  0  0  0
  153.9431  134.1822  163.9617 H   0  0  0  0  0  0  0  0  0  0  0  0
  153.8833  135.5381  165.0801 H   0  0  0  0  0  0  0  0  0  0  0  0
  155.4401  134.9898  164.4115 H   0  0  0  0  0  0  0  0  0  0  0  0
  155.6471  137.1580  165.1342 H   0  0  0  0  0  0  0  0  0  0  0  0
  156.4565  139.4685  165.1750 H   0  0  0  0  0  0  0  0  0  0  0  0
  156.0113  140.9959  163.2639 H   0  0  0  0  0  0  0  0  0  0  0  0
  154.7309  140.1910  161.3076 H   0  0  0  0  0  0  0  0  0  0  0  0
  154.0059  136.7162  160.6188 H   0  0  0  0  0  0  0  0  0  0  0  0
  152.5913  137.6354  161.1157 H   0  0  0  0  0  0  0  0  0  0  0  0
  153.6940  137.4952  157.9966 H   0  0  0  0  0  0  0  0  0  0  0  0
  152.2245  137.5775  158.9555 H   0  0  0  0  0  0  0  0  0  0  0  0
  153.3992  140.1401  157.8262 H   0  0  0  0  0  0  0  0  0  0  0  0
  152.1149  138.0775  156.4987 H   0  0  0  0  0  0  0  0  0  0  0  0
  150.4577  139.4055  158.2309 H   0  0  0  0  0  0  0  0  0  0  0  0
  151.4313  140.0274  159.5371 H   0  0  0  0  0  0  0  0  0  0  0  0
  150.0223  141.2557  156.1352 H   0  0  0  0  0  0  0  0  0  0  0  0
  151.2164  145.7958  158.0309 H   0  0  0  0  0  0  0  0  0  0  0  0
  152.4626  145.9446  160.1928 H   0  0  0  0  0  0  0  0  0  0  0  0
  153.1212  143.9092  161.4208 H   0  0  0  0  0  0  0  0  0  0  0  0
  152.5693  141.6435  160.5479 H   0  0  0  0  0  0  0  0  0  0  0  0
  150.1329  143.8181  156.2319 H   0  0  0  0  0  0  0  0  0  0  0  0
  1  2  1  0  0  0  0
  1 24  1  0  0  0  0
  1 25  1  0  0  0  0
  1 26  1  0  0  0  0
  2  3  1  0  0  0  0
  3  8  1  0  0  0  0
  3  4  2  0  0  0  0
  4  5  1  0  0  0  0
  4 27  1  0  0  0  0
  5  6  2  0  0  0  0
  5 28  1  0  0  0  0
  6  7  1  0  0  0  0
  6 29  1  0  0  0  0
  7  8  2  0  0  0  0
  7 30  1  0  0  0  0
  8  9  1  0  0  0  0
  9 10  1  0  0  0  0
  9 31  1  0  0  0  0
  9 32  1  0  0  0  0
 10 11  1  0  0  0  0
 11 12  1  0  0  0  0
 11 33  1  0  0  0  0
 11 34  1  0  0  0  0
 12 13  1  0  0  0  0
 12 14  1  0  0  0  0
 12 35  1  0  0  0  0
 13 36  1  0  0  0  0
 14 15  1  0  0  0  0
 14 37  1  0  0  0  0
 14 38  1  0  0  0  0
 15 23  1  0  0  0  0
 15 16  1  0  0  0  0
 16 17  2  0  0  0  0
 16 39  1  0  0  0  0
 17 18  1  0  0  0  0
 17 44  1  0  0  0  0
 18 23  2  0  0  0  0
 18 19  1  0  0  0  0
 19 20  2  0  0  0  0
 19 40  1  0  0  0  0
 20 21  1  0  0  0  0
 20 41  1  0  0  0  0
 21 22  2  0  0  0  0
 21 42  1  0  0  0  0
 22 23  1  0  0  0  0
 22 43  1  0  0  0  0
M  CHG  1  17   1
M  END
> <s_m_source_file>
AV-unprocessed.smi

> <i_m_source_file_index>
1350

> <i_lp_mmshare_version>
43012

> <i_f3d_flags>
0

> <s_epik_input>
W0NIM11PYzFbY0hdW2NIXVtjSF1bY0hdYzFbQ0gyXU9bQ0gyXVtDQEhdKFtPSF0pW0NIMl1uKFtjSF1uMiljKGMyMylbY0hdW2NIXVtjSF1bY0hdMw==

> <s_epik_cmdline>
J2VwaWtfcHl0aG9uJywgJy1waCcsICc3LjAnLCAnLXRuJywgJzgnLCAnLW1hJywgJzIwMCcsICctbWV0YWxfYmluZGluZycsICctaW1hZScsICc8aW5maWxlLm1hZT4nLCAnLW9tYWUnLCAnPG91dGZpbGUubWFlPic=

> <r_lp_tautomer_probability>
1

> <r_epik_Ionization_Penalty>
1.28975

> <r_epik_Ionization_Penalty_Charging>
1.28975

> <r_epik_Ionization_Penalty_Neutral>
1.07667e-06

> <r_epik_State_Penalty>
1.36276

> <r_epik_Charging_Adjusted_Penalty>
2.65251

> <i_epik_Tot_Q>
1

> <i_epik_Tot_abs_Q>
1

> <r_epik_Metal_State_Penalty>
5.39298

> <b_epik_Metal_Only>
0

> <s_lp_Force_Field>
OPLS_2005

> <r_lp_Energy>
25.8807

> <b_lp_Chiralities_Consistent>
1

> <s_lp_Variant>
AV-unprocessed.smi:1350-4

> <Gold.Version>
5.8.1

> <Gold.Id.Protein>
6NUR|6NUR_protein|mol2

> <Gold.PLP.Fitness>
50.7544

> <Gold.PLP.PLP>
-47.0483

> <Gold.PLP.part.hbond>
-1.1632

> <Gold.PLP.part.metal>
0.0000

> <Gold.PLP.part.buried>
-6.6977

> <Gold.PLP.part.nonpolar>
-39.3811

> <Gold.PLP.part.repulsive>
0.0451

> <Gold.PLP.ligand.clash>
0.0000

> <Gold.PLP.ligand.torsion>
1.1563

> <Gold.PLP.Chemscore.Hbond>
1.9840

> <Gold.PLP.Chemscore.CHOScore>
0.0000

> <Gold.PLP.Chemscore.Metal>
0.0000

> <Gold.Chemscore.Hbonds>
donor molecule, donor type, donor heavy atom, donor atom, acceptor molecule, acceptor atom, score
      L1  H    17    44       P1  8028  2.00

> <Gold.PLP.Chemscore.Internal.Correction>
0.0667

> <Gold.Rescore>
     Score         DG    S(hbond)    S(metal)    S(lipo)     H(rot)  DE(clash)    DE(int)     intcor
     16.85     -17.98       0.95        0.00     139.71       2.74       0.03       1.11       ----

> <Gold.Chemscore.Fitness>
16.8486

> <Gold.Chemscore.DG>
-17.9846

> <Gold.Chemscore.ZeroCoef>
-5.4800

> <Gold.Chemscore.Hbond>
0.9493

> <Gold.Chemscore.Metal>
0.0000

> <Gold.Chemscore.Lipo>
139.7081

> <Gold.Chemscore.Internal_Hbond>
0.0000

> <Gold.Chemscore.DEClash>
0.0278

> <Gold.Chemscore.DEInternal>
1.1082

> <Gold.Chemscore.Rot>
2.7390

> <Gold.Chemscore.Internal.Correction>
   9.000000E+99

> <Gold.Chemscore.Hbonds>
donor molecule, donor type, donor heavy atom, donor atom, acceptor molecule, acceptor atom, score
      L1  H    17    44       P1  8028  0.95

> <Gold.Chemscore.Hbond.Weighted>
-3.1706

> <Gold.Chemscore.Metal.Weighted>
-0.0000

> <Gold.Chemscore.Lipo.Weighted>
-16.3458

> <Gold.Chemscore.Internal_Hbond.Weighted>
0.0000

> <Gold.Chemscore.DEClash.Weighted>
0.0278

> <Gold.Chemscore.DEInternal.Weighted>
1.1082

> <Gold.Chemscore.Rot.Weighted>
7.0118

> <Gold.Chemscore.Internal.Correction.Weighted>
   9.000000E+99

> <Gold.Protein.RotatedTorsions>
[ 6907 6896 6895 6894 ] final  164.59 input  -60.11 | X-H torsion
[ 7974 7965 7964 7962 ] final  -18.77 input  175.53 | X-H torsion
[ 8008 7997 7996 7995 ] final  -54.47 input   59.86 | X-H torsion
[ 10167 10162 10161 10158 ] final  148.68 input  -65.29 | X-H torsion
[ 10718 10713 10712 10709 ] final   12.96 input   66.30 | X-H torsion
[ 10763 10752 10751 10750 ] final -174.63 input  -60.55 | X-H torsion
[ 11005 11000 10999 10996 ] final   48.04 input  -57.11 | X-H torsion

> <Gold.Protein.ActiveResidues>
 VAL166  LYS551  ARG553  GLY616  TRP617  ASP618  TYR619  PRO620  LYS621  CYS622 
 ASP623  PHE694  ASN695  SER759  ASP760  ASP761  ALA762  ILE779  LEU786  VAL792 
 PHE793  MET794  SER795  GLU796  ALA797  LYS798  CYS799  TRP800  GLU811  SER814 

> <Gold.Protein.RotatedAtoms>
  151.9075  133.3553  159.3851 H   0  0  0  0  0  0  0  0  0  0  0  0  # atno 6907 bound_to 6896
  150.7065  134.4766  159.5459 H   0  0  0  0  0  0  0  0  0  0  0  0  # atno 6908 bound_to 6896
  152.2366  134.8270  160.0517 H   0  0  0  0  0  0  0  0  0  0  0  0  # atno 6909 bound_to 6896
  146.1875  140.3968  142.8470 H   0  0  0  0  0  0  0  0  0  0  0  0  # atno 7974 bound_to 7965
  154.4164  140.1175  156.5321 H   0  0  0  0  0  0  0  0  0  0  0  0  # atno 8008 bound_to 7997
  155.6594  140.3496  155.4758 H   0  0  0  0  0  0  0  0  0  0  0  0  # atno 8009 bound_to 7997
  155.9726  140.1144  157.0789 H   0  0  0  0  0  0  0  0  0  0  0  0  # atno 8010 bound_to 7997
  139.4871  144.5660  151.7143 H   0  0  0  0  0  0  0  0  0  0  0  0  # atno 10167 bound_to 10162
  157.0177  130.6142  149.5716 H   0  0  0  0  0  0  0  0  0  0  0  0  # atno 10718 bound_to 10713
  154.5939  135.2848  155.0606 H   0  0  0  0  0  0  0  0  0  0  0  0  # atno 10763 bound_to 10752
  154.1897  135.6443  153.5060 H   0  0  0  0  0  0  0  0  0  0  0  0  # atno 10764 bound_to 10752
  153.0131  135.5443  154.6634 H   0  0  0  0  0  0  0  0  0  0  0  0  # atno 10765 bound_to 10752
  140.1225  134.4810  155.8585 H   0  0  0  0  0  0  0  0  0  0  0  0  # atno 11005 bound_to 11000
  144.8424  140.6878  143.6220 LP  0  0  0  0  0  0  0  0  0  0  0  0  # atno 17320 bound_to 7965
  145.3894  139.1620  143.4237 LP  0  0  0  0  0  0  0  0  0  0  0  0  # atno 17321 bound_to 7965
  140.5239  144.0837  150.6031 LP  0  0  0  0  0  0  0  0  0  0  0  0  # atno 17342 bound_to 10162
  140.3804  143.2806  152.0177 LP  0  0  0  0  0  0  0  0  0  0  0  0  # atno 17343 bound_to 10162
  156.0113  130.5205  150.7998 LP  0  0  0  0  0  0  0  0  0  0  0  0  # atno 17370 bound_to 10713
  157.5273  131.0935  151.0001 LP  0  0  0  0  0  0  0  0  0  0  0  0  # atno 17371 bound_to 10713
  141.2154  133.6766  156.6916 LP  0  0  0  0  0  0  0  0  0  0  0  0  # atno 17394 bound_to 11000
  140.2946  134.8213  157.4046 LP  0  0  0  0  0  0  0  0  0  0  0  0  # atno 17395 bound_to 11000

$$$$
