AV-unprocessed.smi:2889|AV-procd|sdf|11108|dock6
  -GOLD-   2272015573D 1   1.00000     0.00000
 Structure written by MMmdl.
 36 37  0  0  0  0  0  0  0  0  1 V2000
  151.4290  145.5173  160.0228 C   0  0  0  0  0  0  0  0  0  0  0  0
  151.3857  144.2432  158.7329 S   0  0  0  0  0  0  0  0  0  0  0  0
  151.8908  142.7676  159.6741 C   0  0  2  0  0  0  0  0  0  0  0  0
  152.9740  143.1582  160.6976 C   0  0  0  0  0  0  0  0  0  0  0  0
  153.4759  141.9447  161.4937 C   0  0  0  0  0  0  0  0  0  0  0  0
  154.0038  140.8524  160.5535 C   0  0  0  0  0  0  0  0  0  0  0  0
  152.9291  140.4337  159.5399 C   0  0  0  0  0  0  0  0  0  0  0  0
  152.3964  141.6401  158.7424 C   0  0  1  0  0  0  0  0  0  0  0  0
  151.3180  141.1901  157.8584 N   0  0  0  0  0  0  0  0  0  0  0  0
  151.6155  139.8841  156.7729 S   0  0  0  0  0  0  0  0  0  0  0  0
  151.1598  140.2986  155.4370 O   0  0  0  0  0  0  0  0  0  0  0  0
  153.0060  139.4485  156.9727 O   0  0  0  0  0  0  0  0  0  0  0  0
  150.4751  138.5818  157.4017 C   0  0  0  0  0  0  0  0  0  0  0  0
  150.5033  137.3998  156.4762 C   0  0  0  0  0  0  0  0  0  0  0  0
  149.4617  136.9049  155.6433 C   0  0  0  0  0  0  0  0  0  0  0  0
  150.0305  135.8266  155.0290 C   0  0  0  0  0  0  0  0  0  0  0  0
  151.3115  135.6630  155.4463 O   0  0  0  0  0  0  0  0  0  0  0  0
  151.6039  136.6716  156.3715 N   0  0  0  0  0  0  0  0  0  0  0  0
  151.1643  146.4856  159.5983 H   0  0  0  0  0  0  0  0  0  0  0  0
  152.4286  145.5918  160.4513 H   0  0  0  0  0  0  0  0  0  0  0  0
  150.7232  145.2912  160.8211 H   0  0  0  0  0  0  0  0  0  0  0  0
  151.0230  142.4102  160.2305 H   0  0  0  0  0  0  0  0  0  0  0  0
  153.8156  143.6227  160.1816 H   0  0  0  0  0  0  0  0  0  0  0  0
  152.5824  143.9093  161.3845 H   0  0  0  0  0  0  0  0  0  0  0  0
  154.2623  142.2528  162.1835 H   0  0  0  0  0  0  0  0  0  0  0  0
  152.6661  141.5451  162.1054 H   0  0  0  0  0  0  0  0  0  0  0  0
  154.8848  141.2175  160.0238 H   0  0  0  0  0  0  0  0  0  0  0  0
  154.3267  139.9866  161.1323 H   0  0  0  0  0  0  0  0  0  0  0  0
  153.3403  139.6865  158.8602 H   0  0  0  0  0  0  0  0  0  0  0  0
  152.1070  139.9495  160.0692 H   0  0  0  0  0  0  0  0  0  0  0  0
  153.2090  142.0406  158.1348 H   0  0  0  0  0  0  0  0  0  0  0  0
  150.4511  141.0503  158.3767 H   0  0  0  0  0  0  0  0  0  0  0  0
  150.7847  138.3086  158.4109 H   0  0  0  0  0  0  0  0  0  0  0  0
  149.4726  139.0051  157.4634 H   0  0  0  0  0  0  0  0  0  0  0  0
  148.4588  137.2841  155.5142 H   0  0  0  0  0  0  0  0  0  0  0  0
  149.6714  135.1096  154.3058 H   0  0  0  0  0  0  0  0  0  0  0  0
  1  2  1  0  0  0  0
  1 19  1  0  0  0  0
  1 20  1  0  0  0  0
  1 21  1  0  0  0  0
  2  3  1  0  0  0  0
  3  8  1  0  0  0  0
  3  4  1  0  0  0  0
  3 22  1  0  0  0  0
  4  5  1  0  0  0  0
  4 23  1  0  0  0  0
  4 24  1  0  0  0  0
  5  6  1  0  0  0  0
  5 25  1  0  0  0  0
  5 26  1  0  0  0  0
  6  7  1  0  0  0  0
  6 27  1  0  0  0  0
  6 28  1  0  0  0  0
  7  8  1  0  0  0  0
  7 29  1  0  0  0  0
  7 30  1  0  0  0  0
  8  9  1  0  0  0  0
  8 31  1  0  0  0  0
  9 10  1  0  0  0  0
  9 32  1  0  0  0  0
 10 11  2  0  0  0  0
 10 12  2  0  0  0  0
 10 13  1  0  0  0  0
 13 14  1  0  0  0  0
 13 33  1  0  0  0  0
 13 34  1  0  0  0  0
 14 18  2  0  0  0  0
 14 15  1  0  0  0  0
 15 16  2  0  0  0  0
 15 35  1  0  0  0  0
 16 17  1  0  0  0  0
 16 36  1  0  0  0  0
 17 18  1  0  0  0  0
M  END
> <s_m_source_file>
AV-unprocessed.smi

> <i_m_source_file_index>
2889

> <i_lp_mmshare_version>
43012

> <i_f3d_flags>
0

> <s_epik_input>
W0NIM11TW0NAQEhdMVtDSDJdW0NIMl1bQ0gyXVtDSDJdW0NASF0xW05IXVMoPU8pKD1PKVtDSDJdYzJbY0hdW2NIXW9uMg==

> <s_epik_cmdline>
J2VwaWtfcHl0aG9uJywgJy1waCcsICc3LjAnLCAnLXRuJywgJzgnLCAnLW1hJywgJzIwMCcsICctbWV0YWxfYmluZGluZycsICctaW1hZScsICc8aW5maWxlLm1hZT4nLCAnLW9tYWUnLCAnPG91dGZpbGUubWFlPic=

> <r_lp_tautomer_probability>
1

> <r_epik_Ionization_Penalty>
0.000229547

> <r_epik_Ionization_Penalty_Charging>
0

> <r_epik_Ionization_Penalty_Neutral>
0.000229547

> <r_epik_State_Penalty>
-0

> <r_epik_Charging_Adjusted_Penalty>
0

> <i_epik_Tot_Q>
0

> <i_epik_Tot_abs_Q>
0

> <r_epik_Metal_State_Penalty>
0.145979

> <b_epik_Metal_Only>
0

> <s_lp_Force_Field>
OPLS_2005

> <r_lp_Energy>
3.33114

> <b_lp_Chiralities_Consistent>
1

> <s_lp_Variant>
AV-unprocessed.smi:2889-1

> <Gold.Version>
5.8.1

> <Gold.Id.Protein>
6NUR|6NUR_protein|mol2

> <Gold.PLP.Fitness>
45.1895

> <Gold.PLP.PLP>
-34.7351

> <Gold.PLP.part.hbond>
-2.9210

> <Gold.PLP.part.metal>
0.0000

> <Gold.PLP.part.buried>
-4.6456

> <Gold.PLP.part.nonpolar>
-27.0489

> <Gold.PLP.part.repulsive>
0.1268

> <Gold.PLP.ligand.clash>
0.0000

> <Gold.PLP.ligand.torsion>
0.4041

> <Gold.PLP.Chemscore.Hbond>
2.9440

> <Gold.PLP.Chemscore.CHOScore>
0.7573

> <Gold.PLP.Chemscore.Metal>
0.0000

> <Gold.Chemscore.Hbonds>
donor molecule, donor type, donor heavy atom, donor atom, acceptor molecule, acceptor atom, score
      P1  H  7989  7998       L1    11  0.89
      P1  H  7997  8009       L1    12  1.00
      P1  H 10752 10764       L1    17  0.96
      L1  C    16    36       P1  7948  0.28

> <Gold.PLP.Chemscore.Internal.Correction>
0.1586

> <Gold.Rescore>
     Score         DG    S(hbond)    S(metal)    S(lipo)     H(rot)  DE(clash)    DE(int)     intcor
     19.42     -21.05       2.64        0.00      97.30       1.81       0.05       1.57       ----

> <Gold.Chemscore.Fitness>
19.4191

> <Gold.Chemscore.DG>
-21.0470

> <Gold.Chemscore.ZeroCoef>
-5.4800

> <Gold.Chemscore.Hbond>
2.6363

> <Gold.Chemscore.Metal>
0.0000

> <Gold.Chemscore.Lipo>
97.3045

> <Gold.Chemscore.Internal_Hbond>
0.0000

> <Gold.Chemscore.DEClash>
0.0534

> <Gold.Chemscore.DEInternal>
1.5745

> <Gold.Chemscore.Rot>
1.8058

> <Gold.Chemscore.Internal.Correction>
   9.000000E+99

> <Gold.Chemscore.Hbonds>
donor molecule, donor type, donor heavy atom, donor atom, acceptor molecule, acceptor atom, score
      P1  H  7989  7998       L1    11  0.83
      P1  H  7997  8009       L1    12  0.97
      P1  H 10752 10764       L1    17  0.28

> <Gold.Chemscore.Hbond.Weighted>
-8.8052

> <Gold.Chemscore.Metal.Weighted>
-0.0000

> <Gold.Chemscore.Lipo.Weighted>
-11.3846

> <Gold.Chemscore.Internal_Hbond.Weighted>
0.0000

> <Gold.Chemscore.DEClash.Weighted>
0.0534

> <Gold.Chemscore.DEInternal.Weighted>
1.5745

> <Gold.Chemscore.Rot.Weighted>
4.6228

> <Gold.Chemscore.Internal.Correction.Weighted>
   9.000000E+99

> <Gold.Protein.RotatedTorsions>
[ 6907 6896 6895 6894 ] final  -35.48 input  -60.11 | X-H torsion
[ 7974 7965 7964 7962 ] final  132.79 input  175.53 | X-H torsion
[ 8008 7997 7996 7995 ] final  165.42 input   59.86 | X-H torsion
[ 10167 10162 10161 10158 ] final  169.07 input  -65.29 | X-H torsion
[ 10718 10713 10712 10709 ] final   74.01 input   66.30 | X-H torsion
[ 10763 10752 10751 10750 ] final  -67.00 input  -60.55 | X-H torsion
[ 11005 11000 10999 10996 ] final   90.17 input  -57.11 | X-H torsion

> <Gold.Protein.ActiveResidues>
 VAL166  LYS551  ARG553  GLY616  TRP617  ASP618  TYR619  PRO620  LYS621  CYS622 
 ASP623  PHE694  ASN695  SER759  ASP760  ASP761  ALA762  ILE779  LEU786  VAL792 
 PHE793  MET794  SER795  GLU796  ALA797  LYS798  CYS799  TRP800  GLU811  SER814 

> <Gold.Protein.RotatedAtoms>
  151.0392  134.9595  159.8152 H   0  0  0  0  0  0  0  0  0  0  0  0  # atno 6907 bound_to 6896
  152.5361  134.2680  159.8970 H   0  0  0  0  0  0  0  0  0  0  0  0  # atno 6908 bound_to 6896
  151.2692  133.4221  159.2654 H   0  0  0  0  0  0  0  0  0  0  0  0  # atno 6909 bound_to 6896
  144.9932  139.4386  143.5329 H   0  0  0  0  0  0  0  0  0  0  0  0  # atno 7974 bound_to 7965
  156.1802  140.1670  156.8288 H   0  0  0  0  0  0  0  0  0  0  0  0  # atno 8008 bound_to 7997
  154.5351  140.0748  156.8447 H   0  0  0  0  0  0  0  0  0  0  0  0  # atno 8009 bound_to 7997
  155.3327  140.3380  155.4241 H   0  0  0  0  0  0  0  0  0  0  0  0  # atno 8010 bound_to 7997
  139.4983  144.3745  151.9688 H   0  0  0  0  0  0  0  0  0  0  0  0  # atno 10167 bound_to 10162
  157.6573  130.9656  150.1150 H   0  0  0  0  0  0  0  0  0  0  0  0  # atno 10718 bound_to 10713
  154.3681  135.6101  153.5726 H   0  0  0  0  0  0  0  0  0  0  0  0  # atno 10763 bound_to 10752
  152.9791  135.5831  154.4554 H   0  0  0  0  0  0  0  0  0  0  0  0  # atno 10764 bound_to 10752
  154.4303  135.2847  155.1894 H   0  0  0  0  0  0  0  0  0  0  0  0  # atno 10765 bound_to 10752
  139.8861  134.8597  156.3246 H   0  0  0  0  0  0  0  0  0  0  0  0  # atno 11005 bound_to 11000
  146.3436  139.9276  142.8758 LP  0  0  0  0  0  0  0  0  0  0  0  0  # atno 17320 bound_to 7965
  145.2256  140.9953  143.4020 LP  0  0  0  0  0  0  0  0  0  0  0  0  # atno 17321 bound_to 7965
  140.3182  144.3459  150.6016 LP  0  0  0  0  0  0  0  0  0  0  0  0  # atno 17342 bound_to 10162
  140.5744  143.2178  151.7541 LP  0  0  0  0  0  0  0  0  0  0  0  0  # atno 17343 bound_to 10162
  156.2036  130.3662  149.8757 LP  0  0  0  0  0  0  0  0  0  0  0  0  # atno 17370 bound_to 10713
  156.6654  130.8799  151.3554 LP  0  0  0  0  0  0  0  0  0  0  0  0  # atno 17371 bound_to 10713
  140.9764  133.7295  156.0608 LP  0  0  0  0  0  0  0  0  0  0  0  0  # atno 17394 bound_to 11000
  140.7806  134.3730  157.5488 LP  0  0  0  0  0  0  0  0  0  0  0  0  # atno 17395 bound_to 11000

$$$$
