AV-unprocessed.smi:1466|AV-procd|sdf|5954|dock4
  -GOLD-   22720 6 43D 1   1.00000     0.00000
 Structure written by MMmdl.
 48 49  0  0  0  0  0  0  0  0  1 V2000
  151.5305  144.7512  157.8518 C   0  0  0  0  0  0  0  0  0  0  0  0
  151.9776  144.6857  159.2376 N   0  0  0  0  0  0  0  0  0  0  0  0
  151.8316  145.8501  160.1053 C   0  0  0  0  0  0  0  0  0  0  0  0
  152.5207  143.4870  159.7545 C   0  0  0  0  0  0  0  0  0  0  0  0
  152.8069  143.3383  161.1343 C   0  0  0  0  0  0  0  0  0  0  0  0
  153.3471  142.1246  161.6018 C   0  0  0  0  0  0  0  0  0  0  0  0
  153.5973  141.0838  160.6782 C   0  0  0  0  0  0  0  0  0  0  0  0
  154.1189  139.8075  161.0230 N   0  0  0  0  0  0  0  0  0  0  0  0
  154.5949  138.8459  160.2134 C   0  0  0  0  0  0  0  0  0  0  0  0
  154.6320  138.9011  158.9845 O   0  0  0  0  0  0  0  0  0  0  0  0
  155.0156  137.7864  160.9189 N   0  0  0  0  0  0  0  0  0  0  0  0
  155.5754  136.5683  160.3458 C   0  0  0  0  0  0  0  0  0  0  0  0
  154.8602  135.3131  160.8789 C   0  0  0  0  0  0  0  0  0  0  0  0
  155.3992  134.8994  162.1796 N   0  0  0  0  0  0  0  0  0  0  0  0
  155.3720  135.9154  163.2437 C   0  0  0  0  0  0  0  0  0  0  0  0
  154.3448  135.6202  164.3609 C   0  0  0  0  0  0  0  0  0  0  0  0
  154.0553  134.1327  164.6437 C   0  0  0  0  0  0  0  0  0  0  0  0
  155.3032  133.2577  164.8850 C   0  0  0  0  0  0  0  0  0  0  0  0
  156.3962  133.2918  163.7896 C   0  0  0  0  0  0  0  0  0  0  0  0
  155.8804  133.6488  162.3859 C   0  0  0  0  0  0  0  0  0  0  0  0
  155.9213  132.7915  161.5032 O   0  0  0  0  0  0  0  0  0  0  0  0
  153.2689  141.3190  159.3291 C   0  0  0  0  0  0  0  0  0  0  0  0
  152.7523  142.4802  158.8772 N   0  0  0  0  0  0  0  0  0  0  0  0
  150.7485  144.0145  157.6660 H   0  0  0  0  0  0  0  0  0  0  0  0
  152.3607  144.5596  157.1711 H   0  0  0  0  0  0  0  0  0  0  0  0
  151.1247  145.7340  157.6113 H   0  0  0  0  0  0  0  0  0  0  0  0
  151.1803  145.6203  160.9490 H   0  0  0  0  0  0  0  0  0  0  0  0
  151.3980  146.6943  159.5694 H   0  0  0  0  0  0  0  0  0  0  0  0
  152.8022  146.1636  160.4912 H   0  0  0  0  0  0  0  0  0  0  0  0
  152.6190  144.1279  161.8457 H   0  0  0  0  0  0  0  0  0  0  0  0
  153.5420  142.0159  162.6569 H   0  0  0  0  0  0  0  0  0  0  0  0
  154.0824  139.5794  162.0058 H   0  0  0  0  0  0  0  0  0  0  0  0
  154.9442  137.8252  161.9251 H   0  0  0  0  0  0  0  0  0  0  0  0
  155.5283  136.6117  159.2563 H   0  0  0  0  0  0  0  0  0  0  0  0
  156.6329  136.5311  160.6085 H   0  0  0  0  0  0  0  0  0  0  0  0
  153.7887  135.5020  160.9593 H   0  0  0  0  0  0  0  0  0  0  0  0
  154.9511  134.4940  160.1630 H   0  0  0  0  0  0  0  0  0  0  0  0
  156.3688  136.0061  163.6756 H   0  0  0  0  0  0  0  0  0  0  0  0
  155.1770  136.9062  162.8313 H   0  0  0  0  0  0  0  0  0  0  0  0
  154.6730  136.1100  165.2783 H   0  0  0  0  0  0  0  0  0  0  0  0
  153.3999  136.0962  164.0967 H   0  0  0  0  0  0  0  0  0  0  0  0
  153.4029  134.0619  165.5145 H   0  0  0  0  0  0  0  0  0  0  0  0
  153.4727  133.7152  163.8211 H   0  0  0  0  0  0  0  0  0  0  0  0
  155.7566  133.5432  165.8347 H   0  0  0  0  0  0  0  0  0  0  0  0
  154.9740  132.2265  165.0181 H   0  0  0  0  0  0  0  0  0  0  0  0
  157.1811  133.9954  164.0664 H   0  0  0  0  0  0  0  0  0  0  0  0
  156.8943  132.3220  163.7517 H   0  0  0  0  0  0  0  0  0  0  0  0
  153.4278  140.5527  158.5846 H   0  0  0  0  0  0  0  0  0  0  0  0
  1  2  1  0  0  0  0
  1 24  1  0  0  0  0
  1 25  1  0  0  0  0
  1 26  1  0  0  0  0
  2  3  1  0  0  0  0
  2  4  1  0  0  0  0
  3 27  1  0  0  0  0
  3 28  1  0  0  0  0
  3 29  1  0  0  0  0
  4 23  1  0  0  0  0
  4  5  2  0  0  0  0
  5  6  1  0  0  0  0
  5 30  1  0  0  0  0
  6  7  2  0  0  0  0
  6 31  1  0  0  0  0
  7  8  1  0  0  0  0
  7 22  1  0  0  0  0
  8  9  1  0  0  0  0
  8 32  1  0  0  0  0
  9 10  2  0  0  0  0
  9 11  1  0  0  0  0
 11 12  1  0  0  0  0
 11 33  1  0  0  0  0
 12 13  1  0  0  0  0
 12 34  1  0  0  0  0
 12 35  1  0  0  0  0
 13 14  1  0  0  0  0
 13 36  1  0  0  0  0
 13 37  1  0  0  0  0
 14 20  1  0  0  0  0
 14 15  1  0  0  0  0
 15 16  1  0  0  0  0
 15 38  1  0  0  0  0
 15 39  1  0  0  0  0
 16 17  1  0  0  0  0
 16 40  1  0  0  0  0
 16 41  1  0  0  0  0
 17 18  1  0  0  0  0
 17 42  1  0  0  0  0
 17 43  1  0  0  0  0
 18 19  1  0  0  0  0
 18 44  1  0  0  0  0
 18 45  1  0  0  0  0
 19 20  1  0  0  0  0
 19 46  1  0  0  0  0
 19 47  1  0  0  0  0
 20 21  2  0  0  0  0
 22 23  2  0  0  0  0
 22 48  1  0  0  0  0
M  END
> <s_m_source_file>
AV-unprocessed.smi

> <i_m_source_file_index>
1466

> <i_lp_mmshare_version>
43012

> <i_f3d_flags>
0

> <s_epik_input>
W0NIM11OKFtDSDNdKWMxW2NIXVtjSF1jKFtjSF1uMSlbTkhdQyg9TylbTkhdW0NIMl1bQ0gyXU4yW0NIMl1bQ0gyXVtDSDJdW0NIMl1bQ0gyXUMyPU8=

> <s_epik_cmdline>
J2VwaWtfcHl0aG9uJywgJy1waCcsICc3LjAnLCAnLXRuJywgJzgnLCAnLW1hJywgJzIwMCcsICctbWV0YWxfYmluZGluZycsICctaW1hZScsICc8aW5maWxlLm1hZT4nLCAnLW9tYWUnLCAnPG91dGZpbGUubWFlPic=

> <r_lp_tautomer_probability>
1

> <r_epik_Ionization_Penalty>
0.597116

> <r_epik_Ionization_Penalty_Charging>
0

> <r_epik_Ionization_Penalty_Neutral>
0.597116

> <r_epik_State_Penalty>
0.610079

> <r_epik_Charging_Adjusted_Penalty>
0.610079

> <i_epik_Tot_Q>
0

> <i_epik_Tot_abs_Q>
0

> <r_epik_Metal_State_Penalty>
0.299962

> <b_epik_Metal_Only>
0

> <s_lp_Force_Field>
OPLS_2005

> <r_lp_Energy>
26.5805

> <b_lp_Chiralities_Consistent>
1

> <s_lp_Variant>
AV-unprocessed.smi:1466-2

> <Gold.Version>
5.8.1

> <Gold.Id.Protein>
6NUR|6NUR_protein|mol2

> <Gold.PLP.Fitness>
47.3386

> <Gold.PLP.PLP>
-44.7838

> <Gold.PLP.part.hbond>
-0.9736

> <Gold.PLP.part.metal>
0.0000

> <Gold.PLP.part.buried>
-4.8242

> <Gold.PLP.part.nonpolar>
-37.6132

> <Gold.PLP.part.repulsive>
0.0203

> <Gold.PLP.ligand.clash>
0.0000

> <Gold.PLP.ligand.torsion>
0.2333

> <Gold.PLP.Chemscore.Hbond>
1.0000

> <Gold.PLP.Chemscore.CHOScore>
0.0000

> <Gold.PLP.Chemscore.Metal>
0.0000

> <Gold.Chemscore.Hbonds>
donor molecule, donor type, donor heavy atom, donor atom, acceptor molecule, acceptor atom, score
      P1  H  7997  8009       L1    10  0.98

> <Gold.PLP.Chemscore.Internal.Correction>
0.0214

> <Gold.Rescore>
     Score         DG    S(hbond)    S(metal)    S(lipo)     H(rot)  DE(clash)    DE(int)     intcor
     15.47     -17.27       0.98        0.00     105.23       1.48       0.19       1.61       ----

> <Gold.Chemscore.Fitness>
15.4713

> <Gold.Chemscore.DG>
-17.2692

> <Gold.Chemscore.ZeroCoef>
-5.4800

> <Gold.Chemscore.Hbond>
0.9784

> <Gold.Chemscore.Metal>
0.0000

> <Gold.Chemscore.Lipo>
105.2344

> <Gold.Chemscore.Internal_Hbond>
0.0000

> <Gold.Chemscore.DEClash>
0.1866

> <Gold.Chemscore.DEInternal>
1.6113

> <Gold.Chemscore.Rot>
1.4810

> <Gold.Chemscore.Internal.Correction>
   9.000000E+99

> <Gold.Chemscore.Hbonds>
donor molecule, donor type, donor heavy atom, donor atom, acceptor molecule, acceptor atom, score
      P1  H  7997  8009       L1    10  0.91

> <Gold.Chemscore.Hbond.Weighted>
-3.2680

> <Gold.Chemscore.Metal.Weighted>
-0.0000

> <Gold.Chemscore.Lipo.Weighted>
-12.3124

> <Gold.Chemscore.Internal_Hbond.Weighted>
0.0000

> <Gold.Chemscore.DEClash.Weighted>
0.1866

> <Gold.Chemscore.DEInternal.Weighted>
1.6113

> <Gold.Chemscore.Rot.Weighted>
3.7912

> <Gold.Chemscore.Internal.Correction.Weighted>
   9.000000E+99

> <Gold.Protein.RotatedTorsions>
[ 6907 6896 6895 6894 ] final   33.52 input  -60.11 | X-H torsion
[ 7974 7965 7964 7962 ] final   22.82 input  175.53 | X-H torsion
[ 8008 7997 7996 7995 ] final  119.42 input   59.86 | X-H torsion
[ 10167 10162 10161 10158 ] final  152.00 input  -65.29 | X-H torsion
[ 10718 10713 10712 10709 ] final  162.05 input   66.30 | X-H torsion
[ 10763 10752 10751 10750 ] final   17.53 input  -60.55 | X-H torsion
[ 11005 11000 10999 10996 ] final   82.64 input  -57.11 | X-H torsion

> <Gold.Protein.ActiveResidues>
 VAL166  LYS551  ARG553  GLY616  TRP617  ASP618  TYR619  PRO620  LYS621  CYS622 
 ASP623  PHE694  ASN695  SER759  ASP760  ASP761  ALA762  ILE779  LEU786  VAL792 
 PHE793  MET794  SER795  GLU796  ALA797  LYS798  CYS799  TRP800  GLU811  SER814 

> <Gold.Protein.RotatedAtoms>
  152.0896  134.9416  160.0571 H   0  0  0  0  0  0  0  0  0  0  0  0  # atno 6907 bound_to 6896
  152.0673  133.4085  159.4452 H   0  0  0  0  0  0  0  0  0  0  0  0  # atno 6908 bound_to 6896
  150.6836  134.3052  159.4766 H   0  0  0  0  0  0  0  0  0  0  0  0  # atno 6909 bound_to 6896
  146.2012  139.7831  142.8760 H   0  0  0  0  0  0  0  0  0  0  0  0  # atno 7974 bound_to 7965
  156.2595  140.2853  156.0988 H   0  0  0  0  0  0  0  0  0  0  0  0  # atno 8008 bound_to 7997
  155.1382  140.0395  157.2809 H   0  0  0  0  0  0  0  0  0  0  0  0  # atno 8009 bound_to 7997
  154.6549  140.2553  155.7179 H   0  0  0  0  0  0  0  0  0  0  0  0  # atno 8010 bound_to 7997
  139.4836  144.5394  151.7589 H   0  0  0  0  0  0  0  0  0  0  0  0  # atno 10167 bound_to 10162
  157.1280  131.0509  151.2385 H   0  0  0  0  0  0  0  0  0  0  0  0  # atno 10718 bound_to 10713
  153.1330  135.6744  153.9148 H   0  0  0  0  0  0  0  0  0  0  0  0  # atno 10763 bound_to 10752
  153.8628  135.3079  155.3440 H   0  0  0  0  0  0  0  0  0  0  0  0  # atno 10764 bound_to 10752
  154.7724  135.4932  153.9757 H   0  0  0  0  0  0  0  0  0  0  0  0  # atno 10765 bound_to 10752
  139.9057  134.8086  156.2201 H   0  0  0  0  0  0  0  0  0  0  0  0  # atno 11005 bound_to 11000
  145.3478  141.0301  143.3356 LP  0  0  0  0  0  0  0  0  0  0  0  0  # atno 17320 bound_to 7965
  144.8687  139.5069  143.6778 LP  0  0  0  0  0  0  0  0  0  0  0  0  # atno 17321 bound_to 7965
  140.4932  144.1280  150.5954 LP  0  0  0  0  0  0  0  0  0  0  0  0  # atno 17342 bound_to 10162
  140.4148  143.2640  151.9789 LP  0  0  0  0  0  0  0  0  0  0  0  0  # atno 17343 bound_to 10162
  157.4418  130.7548  149.7076 LP  0  0  0  0  0  0  0  0  0  0  0  0  # atno 17370 bound_to 10713
  155.9814  130.4020  150.3474 LP  0  0  0  0  0  0  0  0  0  0  0  0  # atno 17371 bound_to 10713
  141.0411  133.6937  156.1599 LP  0  0  0  0  0  0  0  0  0  0  0  0  # atno 17394 bound_to 11000
  140.6954  134.4621  157.5588 LP  0  0  0  0  0  0  0  0  0  0  0  0  # atno 17395 bound_to 11000

$$$$
