AV-unprocessed.smi:2026|AV-procd|sdf|8202|dock7
  -GOLD-   2272010463D 1   1.00000     0.00000
 Structure written by MMmdl.
 46 48  0  0  0  0  0  0  0  0  1 V2000
  153.9427  142.4836  163.0744 C   0  0  0  0  0  0  0  0  0  0  0  0
  153.3914  142.2708  161.6754 C   0  0  0  0  0  0  0  0  0  0  0  0
  153.7055  141.0777  160.9862 C   0  0  0  0  0  0  0  0  0  0  0  0
  153.2130  140.8417  159.6838 C   0  0  0  0  0  0  0  0  0  0  0  0
  153.3920  139.7605  158.8379 N   0  0  0  0  0  0  0  0  0  0  0  0
  152.6851  140.1329  157.7746 C   0  0  0  0  0  0  0  0  0  0  0  0
  152.0691  141.3293  157.8315 N   0  0  0  0  0  0  0  0  0  0  0  0
  151.2521  141.9389  156.7972 C   0  0  0  0  0  0  0  0  0  0  0  0
  150.0224  141.0850  156.4318 C   0  0  1  0  0  0  0  0  0  0  0  0
  149.0758  141.1811  157.4792 O   0  0  0  0  0  0  0  0  0  0  0  0
  149.3657  141.5699  155.1228 C   0  0  0  0  0  0  0  0  0  0  0  0
  148.7801  140.4632  154.3599 N   0  0  0  0  0  0  0  0  0  0  0  0
  149.4809  139.4264  153.8675 C   0  0  0  0  0  0  0  0  0  0  0  0
  150.6902  139.2365  153.9873 O   0  0  0  0  0  0  0  0  0  0  0  0
  148.6345  138.6200  153.2134 N   0  0  0  0  0  0  0  0  0  0  0  0
  147.2658  139.1001  153.2351 C   0  0  0  0  0  0  0  0  0  0  0  0
  146.7707  139.4101  151.8112 C   0  0  0  0  0  0  0  0  0  0  0  0
  146.3466  138.1076  153.9699 C   0  0  0  0  0  0  0  0  0  0  0  0
  147.4817  140.3702  154.0433 C   0  0  0  0  0  0  0  0  0  0  0  0
  146.5862  141.1635  154.3348 O   0  0  0  0  0  0  0  0  0  0  0  0
  152.3912  141.8407  159.0842 C   0  0  0  0  0  0  0  0  0  0  0  0
  152.0714  143.0316  159.7602 C   0  0  0  0  0  0  0  0  0  0  0  0
  152.5719  143.2513  161.0606 C   0  0  0  0  0  0  0  0  0  0  0  0
  152.2201  144.5405  161.7818 C   0  0  0  0  0  0  0  0  0  0  0  0
  154.5216  141.6230  163.4105 H   0  0  0  0  0  0  0  0  0  0  0  0
  153.1317  142.6390  163.7859 H   0  0  0  0  0  0  0  0  0  0  0  0
  154.5960  143.3561  163.0975 H   0  0  0  0  0  0  0  0  0  0  0  0
  154.3296  140.3305  161.4537 H   0  0  0  0  0  0  0  0  0  0  0  0
  152.6082  139.4992  156.9030 H   0  0  0  0  0  0  0  0  0  0  0  0
  150.9445  142.9309  157.1308 H   0  0  0  0  0  0  0  0  0  0  0  0
  151.8790  142.0886  155.9171 H   0  0  0  0  0  0  0  0  0  0  0  0
  150.3331  140.0436  156.3362 H   0  0  0  0  0  0  0  0  0  0  0  0
  149.4802  140.8848  158.2803 H   0  0  0  0  0  0  0  0  0  0  0  0
  148.6270  142.3483  155.3230 H   0  0  0  0  0  0  0  0  0  0  0  0
  150.1191  142.0481  154.4943 H   0  0  0  0  0  0  0  0  0  0  0  0
  148.9079  137.7677  152.7459 H   0  0  0  0  0  0  0  0  0  0  0  0
  145.7504  139.7954  151.8227 H   0  0  0  0  0  0  0  0  0  0  0  0
  146.7758  138.5133  151.1908 H   0  0  0  0  0  0  0  0  0  0  0  0
  147.3988  140.1536  151.3179 H   0  0  0  0  0  0  0  0  0  0  0  0
  145.3178  138.4683  153.9980 H   0  0  0  0  0  0  0  0  0  0  0  0
  146.6672  137.9458  155.0002 H   0  0  0  0  0  0  0  0  0  0  0  0
  146.3407  137.1372  153.4727 H   0  0  0  0  0  0  0  0  0  0  0  0
  151.4442  143.7694  159.2824 H   0  0  0  0  0  0  0  0  0  0  0  0
  151.6157  145.1955  161.1537 H   0  0  0  0  0  0  0  0  0  0  0  0
  153.1235  145.0843  162.0587 H   0  0  0  0  0  0  0  0  0  0  0  0
  151.6521  144.3272  162.6876 H   0  0  0  0  0  0  0  0  0  0  0  0
  1  2  1  0  0  0  0
  1 25  1  0  0  0  0
  1 26  1  0  0  0  0
  1 27  1  0  0  0  0
  2 23  1  0  0  0  0
  2  3  2  0  0  0  0
  3  4  1  0  0  0  0
  3 28  1  0  0  0  0
  4 21  2  0  0  0  0
  4  5  1  0  0  0  0
  5  6  2  0  0  0  0
  6  7  1  0  0  0  0
  6 29  1  0  0  0  0
  7  8  1  0  0  0  0
  7 21  1  0  0  0  0
  8  9  1  0  0  0  0
  8 30  1  0  0  0  0
  8 31  1  0  0  0  0
  9 10  1  0  0  0  0
  9 11  1  0  0  0  0
  9 32  1  0  0  0  0
 10 33  1  0  0  0  0
 11 12  1  0  0  0  0
 11 34  1  0  0  0  0
 11 35  1  0  0  0  0
 12 19  1  0  0  0  0
 12 13  1  0  0  0  0
 13 14  2  0  0  0  0
 13 15  1  0  0  0  0
 15 16  1  0  0  0  0
 15 36  1  0  0  0  0
 16 17  1  0  0  0  0
 16 18  1  0  0  0  0
 16 19  1  0  0  0  0
 17 37  1  0  0  0  0
 17 38  1  0  0  0  0
 17 39  1  0  0  0  0
 18 40  1  0  0  0  0
 18 41  1  0  0  0  0
 18 42  1  0  0  0  0
 19 20  2  0  0  0  0
 21 22  1  0  0  0  0
 22 23  2  0  0  0  0
 22 43  1  0  0  0  0
 23 24  1  0  0  0  0
 24 44  1  0  0  0  0
 24 45  1  0  0  0  0
 24 46  1  0  0  0  0
M  END
> <s_m_source_file>
AV-unprocessed.smi

> <i_m_source_file_index>
2026

> <i_lp_mmshare_version>
43012

> <i_f3d_flags>
0

> <s_epik_input>
W0NIM11jKFtjSF0xKWMoW0NIM10pW2NIXWMoYzEyKW4oW2NIXW4yKVtDSDJdW0NASF0oW09IXSlbQ0gyXU4oQzM9TylDKD1PKVtOSF1DMyhbQ0gzXSlbQ0gzXQ==

> <s_epik_cmdline>
J2VwaWtfcHl0aG9uJywgJy1waCcsICc3LjAnLCAnLXRuJywgJzgnLCAnLW1hJywgJzIwMCcsICctbWV0YWxfYmluZGluZycsICctaW1hZScsICc8aW5maWxlLm1hZT4nLCAnLW9tYWUnLCAnPG91dGZpbGUubWFlPic=

> <r_lp_tautomer_probability>
1

> <r_epik_Ionization_Penalty>
0.103994

> <r_epik_Ionization_Penalty_Charging>
0

> <r_epik_Ionization_Penalty_Neutral>
0.103994

> <r_epik_State_Penalty>
0.0938482

> <r_epik_Charging_Adjusted_Penalty>
0.0938482

> <i_epik_Tot_Q>
0

> <i_epik_Tot_abs_Q>
0

> <r_epik_Metal_State_Penalty>
0.106997

> <b_epik_Metal_Only>
0

> <s_lp_Force_Field>
OPLS_2005

> <r_lp_Energy>
23.8549

> <b_lp_Chiralities_Consistent>
1

> <s_lp_Variant>
AV-unprocessed.smi:2026-2

> <Gold.Version>
5.8.1

> <Gold.Id.Protein>
6NUR|6NUR_protein|mol2

> <Gold.PLP.Fitness>
53.0653

> <Gold.PLP.PLP>
-48.1199

> <Gold.PLP.part.hbond>
-3.0000

> <Gold.PLP.part.metal>
0.0000

> <Gold.PLP.part.buried>
3.7766

> <Gold.PLP.part.nonpolar>
-47.4328

> <Gold.PLP.part.repulsive>
0.4248

> <Gold.PLP.ligand.clash>
0.0000

> <Gold.PLP.ligand.torsion>
0.5309

> <Gold.PLP.Chemscore.Hbond>
1.9913

> <Gold.PLP.Chemscore.CHOScore>
0.0000

> <Gold.PLP.Chemscore.Metal>
0.0000

> <Gold.Chemscore.Hbonds>
donor molecule, donor type, donor heavy atom, donor atom, acceptor molecule, acceptor atom, score
      L1  H    15    36       P1  7948  1.00
      P1  H  7989  7998       L1    14  1.00
      P1  H  7997  8009       L1     5  0.01

> <Gold.PLP.Chemscore.Internal.Correction>
0.0335

> <Gold.Rescore>
     Score         DG    S(hbond)    S(metal)    S(lipo)     H(rot)  DE(clash)    DE(int)     intcor
     16.83     -18.73       1.54        0.00     122.72       2.44       1.28       0.62       ----

> <Gold.Chemscore.Fitness>
16.8330

> <Gold.Chemscore.DG>
-18.7314

> <Gold.Chemscore.ZeroCoef>
-5.4800

> <Gold.Chemscore.Hbond>
1.5355

> <Gold.Chemscore.Metal>
0.0000

> <Gold.Chemscore.Lipo>
122.7228

> <Gold.Chemscore.Internal_Hbond>
0.0000

> <Gold.Chemscore.DEClash>
1.2805

> <Gold.Chemscore.DEInternal>
0.6179

> <Gold.Chemscore.Rot>
2.4358

> <Gold.Chemscore.Internal.Correction>
   9.000000E+99

> <Gold.Chemscore.Hbonds>
donor molecule, donor type, donor heavy atom, donor atom, acceptor molecule, acceptor atom, score
      L1  H    15    36       P1  7948  1.00
      P1  H  7989  7998       L1    14  0.69

> <Gold.Chemscore.Hbond.Weighted>
-5.1285

> <Gold.Chemscore.Metal.Weighted>
-0.0000

> <Gold.Chemscore.Lipo.Weighted>
-14.3586

> <Gold.Chemscore.Internal_Hbond.Weighted>
0.0000

> <Gold.Chemscore.DEClash.Weighted>
1.2805

> <Gold.Chemscore.DEInternal.Weighted>
0.6179

> <Gold.Chemscore.Rot.Weighted>
6.2357

> <Gold.Chemscore.Internal.Correction.Weighted>
   9.000000E+99

> <Gold.Protein.RotatedTorsions>
[ 6907 6896 6895 6894 ] final  -48.73 input  -60.11 | X-H torsion
[ 7974 7965 7964 7962 ] final  -87.35 input  175.53 | X-H torsion
[ 8008 7997 7996 7995 ] final  109.79 input   59.86 | X-H torsion
[ 10167 10162 10161 10158 ] final  138.75 input  -65.29 | X-H torsion
[ 10718 10713 10712 10709 ] final   -6.93 input   66.30 | X-H torsion
[ 10763 10752 10751 10750 ] final  -53.25 input  -60.55 | X-H torsion
[ 11005 11000 10999 10996 ] final  -47.47 input  -57.11 | X-H torsion

> <Gold.Protein.ActiveResidues>
 VAL166  LYS551  ARG553  GLY616  TRP617  ASP618  TYR619  PRO620  LYS621  CYS622 
 ASP623  PHE694  ASN695  SER759  ASP760  ASP761  ALA762  ILE779  LEU786  VAL792 
 PHE793  MET794  SER795  GLU796  ALA797  LYS798  CYS799  TRP800  GLU811  SER814 

> <Gold.Protein.RotatedAtoms>
  150.8876  134.8276  159.7270 H   0  0  0  0  0  0  0  0  0  0  0  0  # atno 6907 bound_to 6896
  152.4817  134.4698  159.9641 H   0  0  0  0  0  0  0  0  0  0  0  0  # atno 6908 bound_to 6896
  151.4764  133.3518  159.2867 H   0  0  0  0  0  0  0  0  0  0  0  0  # atno 6909 bound_to 6896
  145.4677  140.9560  143.1934 H   0  0  0  0  0  0  0  0  0  0  0  0  # atno 7974 bound_to 7965
  156.2005  140.3051  155.9517 H   0  0  0  0  0  0  0  0  0  0  0  0  # atno 8008 bound_to 7997
  155.2964  140.0444  157.3043 H   0  0  0  0  0  0  0  0  0  0  0  0  # atno 8009 bound_to 7997
  154.5565  140.2307  155.8411 H   0  0  0  0  0  0  0  0  0  0  0  0  # atno 8010 bound_to 7997
  139.5101  144.6335  151.5756 H   0  0  0  0  0  0  0  0  0  0  0  0  # atno 10167 bound_to 10162
  156.7247  130.5161  149.5860 H   0  0  0  0  0  0  0  0  0  0  0  0  # atno 10718 bound_to 10713
  154.1559  135.6482  153.4974 H   0  0  0  0  0  0  0  0  0  0  0  0  # atno 10763 bound_to 10752
  153.0124  135.5349  154.6761 H   0  0  0  0  0  0  0  0  0  0  0  0  # atno 10764 bound_to 10752
  154.6061  135.2949  155.0454 H   0  0  0  0  0  0  0  0  0  0  0  0  # atno 10765 bound_to 10752
  141.0643  133.6699  156.3303 H   0  0  0  0  0  0  0  0  0  0  0  0  # atno 11005 bound_to 11000
  144.7964  139.6226  143.7091 LP  0  0  0  0  0  0  0  0  0  0  0  0  # atno 17320 bound_to 7965
  146.2415  139.6010  142.9488 LP  0  0  0  0  0  0  0  0  0  0  0  0  # atno 17321 bound_to 7965
  140.6076  143.9495  150.6430 LP  0  0  0  0  0  0  0  0  0  0  0  0  # atno 17342 bound_to 10162
  140.2728  143.3444  152.1223 LP  0  0  0  0  0  0  0  0  0  0  0  0  # atno 17343 bound_to 10162
  156.1570  130.6348  151.0670 LP  0  0  0  0  0  0  0  0  0  0  0  0  # atno 17370 bound_to 10713
  157.6883  131.0818  150.7179 LP  0  0  0  0  0  0  0  0  0  0  0  0  # atno 17371 bound_to 10713
  140.5806  134.5750  157.5478 LP  0  0  0  0  0  0  0  0  0  0  0  0  # atno 17394 bound_to 11000
  139.9461  134.7699  156.0558 LP  0  0  0  0  0  0  0  0  0  0  0  0  # atno 17395 bound_to 11000

$$$$
