AV-unprocessed.smi:2790|AV-procd|sdf|10768|dock10
  -GOLD-   2272015203D 1   1.00000     0.00000
 Structure written by MMmdl.
 45 46  0  0  0  0  0  0  0  0  1 V2000
  151.5693  145.4057  159.9869 C   0  0  0  0  0  0  0  0  0  0  0  0
  152.5316  144.3378  159.7176 N   0  0  0  0  0  0  0  0  0  0  0  0
  152.5353  143.3918  160.8278 C   0  0  0  0  0  0  0  0  0  0  0  0
  152.2528  143.6195  158.4524 C   0  0  0  0  0  0  0  0  0  0  0  0
  151.0681  142.6481  158.5140 C   0  0  0  0  0  0  0  0  0  0  0  0
  150.1022  142.8944  159.2357 O   0  0  0  0  0  0  0  0  0  0  0  0
  151.1617  141.5469  157.7563 N   0  0  0  0  0  0  0  0  0  0  0  0
  150.1364  140.5146  157.6482 C   0  0  0  0  0  0  0  0  0  0  0  0
  149.6474  140.3262  156.1894 C   0  0  0  0  0  0  0  0  0  0  0  0
  150.6189  139.3677  155.4595 C   0  0  0  0  0  0  0  0  0  0  0  0
  152.0069  139.6302  155.3417 C   0  0  0  0  0  0  0  0  0  0  0  0
  152.8329  138.6954  154.6871 C   0  0  0  0  0  0  0  0  0  0  0  0
  152.3784  137.5376  154.1671 N   0  0  0  0  0  0  0  0  0  0  0  0
  151.0632  137.2711  154.2947 C   0  0  0  0  0  0  0  0  0  0  0  0
  150.1539  138.1394  154.9298 C   0  0  0  0  0  0  0  0  0  0  0  0
  148.2011  139.7527  156.2318 C   0  0  0  0  0  0  0  0  0  0  0  0
  147.5523  139.6548  154.8397 C   0  0  0  0  0  0  0  0  0  0  0  0
  147.4878  141.0348  154.1709 C   0  0  0  0  0  0  0  0  0  0  0  0
  148.8760  141.6863  154.1153 C   0  0  0  0  0  0  0  0  0  0  0  0
  149.5344  141.7267  155.5101 C   0  0  0  0  0  0  0  0  0  0  0  0
  151.6080  146.1862  159.2268 H   0  0  0  0  0  0  0  0  0  0  0  0
  151.7866  145.8874  160.9408 H   0  0  0  0  0  0  0  0  0  0  0  0
  150.5493  145.0204  160.0277 H   0  0  0  0  0  0  0  0  0  0  0  0
  153.2803  142.6114  160.6678 H   0  0  0  0  0  0  0  0  0  0  0  0
  151.5622  142.9133  160.9514 H   0  0  0  0  0  0  0  0  0  0  0  0
  152.7885  143.8932  161.7627 H   0  0  0  0  0  0  0  0  0  0  0  0
  152.0396  144.3436  157.6646 H   0  0  0  0  0  0  0  0  0  0  0  0
  153.1427  143.0710  158.1375 H   0  0  0  0  0  0  0  0  0  0  0  0
  151.9951  141.4254  157.1986 H   0  0  0  0  0  0  0  0  0  0  0  0
  150.5531  139.5811  158.0294 H   0  0  0  0  0  0  0  0  0  0  0  0
  149.2962  140.7658  158.2982 H   0  0  0  0  0  0  0  0  0  0  0  0
  152.4605  140.5237  155.7399 H   0  0  0  0  0  0  0  0  0  0  0  0
  153.8915  138.8821  154.5844 H   0  0  0  0  0  0  0  0  0  0  0  0
  150.7241  136.3313  153.8846 H   0  0  0  0  0  0  0  0  0  0  0  0
  149.1198  137.8432  155.0105 H   0  0  0  0  0  0  0  0  0  0  0  0
  148.1641  138.7829  156.7257 H   0  0  0  0  0  0  0  0  0  0  0  0
  147.5769  140.4012  156.8488 H   0  0  0  0  0  0  0  0  0  0  0  0
  148.1120  138.9617  154.2106 H   0  0  0  0  0  0  0  0  0  0  0  0
  146.5462  139.2439  154.9293 H   0  0  0  0  0  0  0  0  0  0  0  0
  147.0753  140.9462  153.1655 H   0  0  0  0  0  0  0  0  0  0  0  0
  146.8066  141.6783  154.7292 H   0  0  0  0  0  0  0  0  0  0  0  0
  149.5021  141.1413  153.4097 H   0  0  0  0  0  0  0  0  0  0  0  0
  148.7894  142.6990  153.7207 H   0  0  0  0  0  0  0  0  0  0  0  0
  148.9267  142.3765  156.1419 H   0  0  0  0  0  0  0  0  0  0  0  0
  150.5014  142.2261  155.4543 H   0  0  0  0  0  0  0  0  0  0  0  0
  1  2  1  0  0  0  0
  1 21  1  0  0  0  0
  1 22  1  0  0  0  0
  1 23  1  0  0  0  0
  2  3  1  0  0  0  0
  2  4  1  0  0  0  0
  3 24  1  0  0  0  0
  3 25  1  0  0  0  0
  3 26  1  0  0  0  0
  4  5  1  0  0  0  0
  4 27  1  0  0  0  0
  4 28  1  0  0  0  0
  5  6  2  0  0  0  0
  5  7  1  0  0  0  0
  7  8  1  0  0  0  0
  7 29  1  0  0  0  0
  8  9  1  0  0  0  0
  8 30  1  0  0  0  0
  8 31  1  0  0  0  0
  9 20  1  0  0  0  0
  9 10  1  0  0  0  0
  9 16  1  0  0  0  0
 10 15  1  0  0  0  0
 10 11  2  0  0  0  0
 11 12  1  0  0  0  0
 11 32  1  0  0  0  0
 12 13  2  0  0  0  0
 12 33  1  0  0  0  0
 13 14  1  0  0  0  0
 14 15  2  0  0  0  0
 14 34  1  0  0  0  0
 15 35  1  0  0  0  0
 16 17  1  0  0  0  0
 16 36  1  0  0  0  0
 16 37  1  0  0  0  0
 17 18  1  0  0  0  0
 17 38  1  0  0  0  0
 17 39  1  0  0  0  0
 18 19  1  0  0  0  0
 18 40  1  0  0  0  0
 18 41  1  0  0  0  0
 19 20  1  0  0  0  0
 19 42  1  0  0  0  0
 19 43  1  0  0  0  0
 20 44  1  0  0  0  0
 20 45  1  0  0  0  0
M  END
> <s_m_source_file>
AV-unprocessed.smi

> <i_m_source_file_index>
2790

> <i_lp_mmshare_version>
43012

> <i_f3d_flags>
0

> <s_epik_input>
W0NIM11OKFtDSDNdKVtDSDJdQyg9TylbTkhdW0NIMl1DMShbQ0gyXVtDSDJdW0NIMl1bQ0gyXVtDSDJdMSljMltjSF1bY0hdbltjSF1bY0hdMg==

> <s_epik_cmdline>
J2VwaWtfcHl0aG9uJywgJy1waCcsICc3LjAnLCAnLXRuJywgJzgnLCAnLW1hJywgJzIwMCcsICctbWV0YWxfYmluZGluZycsICctaW1hZScsICc8aW5maWxlLm1hZT4nLCAnLW9tYWUnLCAnPG91dGZpbGUubWFlPic=

> <r_epik_Ionization_Penalty>
1.73486

> <r_epik_Ionization_Penalty_Charging>
0

> <r_epik_Ionization_Penalty_Neutral>
1.73486

> <r_epik_State_Penalty>
1.84779

> <r_epik_Charging_Adjusted_Penalty>
1.84779

> <i_epik_Tot_Q>
0

> <i_epik_Tot_abs_Q>
0

> <r_epik_Metal_State_Penalty>
1.83713

> <b_epik_Metal_Only>
0

> <s_lp_Force_Field>
OPLS_2005

> <r_lp_Energy>
21.958

> <b_lp_Chiralities_Consistent>
1

> <s_lp_Variant>
AV-unprocessed.smi:2790-3

> <Gold.Version>
5.8.1

> <Gold.Id.Protein>
6NUR|6NUR_protein|mol2

> <Gold.PLP.Fitness>
40.4725

> <Gold.PLP.PLP>
-38.0168

> <Gold.PLP.part.hbond>
-1.9076

> <Gold.PLP.part.metal>
0.0000

> <Gold.PLP.part.buried>
-1.1444

> <Gold.PLP.part.nonpolar>
-35.8797

> <Gold.PLP.part.repulsive>
0.2928

> <Gold.PLP.ligand.clash>
0.0000

> <Gold.PLP.ligand.torsion>
0.8471

> <Gold.PLP.Chemscore.Hbond>
0.7520

> <Gold.PLP.Chemscore.CHOScore>
0.6199

> <Gold.PLP.Chemscore.Metal>
0.0000

> <Gold.Chemscore.Hbonds>
donor molecule, donor type, donor heavy atom, donor atom, acceptor molecule, acceptor atom, score
      P1  H 10752 10765       L1    13  0.66
      L1  C    14    34       P1  7948  0.17
      L1  C    14    34       P1  7949  0.49

> <Gold.PLP.Chemscore.Internal.Correction>
0.0341

> <Gold.Rescore>
     Score         DG    S(hbond)    S(metal)    S(lipo)     H(rot)  DE(clash)    DE(int)     intcor
     12.90     -15.98       0.87        0.00      98.84       1.55       0.13       2.95       ----

> <Gold.Chemscore.Fitness>
12.8992

> <Gold.Chemscore.DG>
-15.9774

> <Gold.Chemscore.ZeroCoef>
-5.4800

> <Gold.Chemscore.Hbond>
0.8690

> <Gold.Chemscore.Metal>
0.0000

> <Gold.Chemscore.Lipo>
98.8409

> <Gold.Chemscore.Internal_Hbond>
0.0000

> <Gold.Chemscore.DEClash>
0.1284

> <Gold.Chemscore.DEInternal>
2.9498

> <Gold.Chemscore.Rot>
1.5505

> <Gold.Chemscore.Internal.Correction>
   9.000000E+99

> <Gold.Chemscore.Hbonds>
donor molecule, donor type, donor heavy atom, donor atom, acceptor molecule, acceptor atom, score
      P1  H 10752 10765       L1    13  0.13

> <Gold.Chemscore.Hbond.Weighted>
-2.9023

> <Gold.Chemscore.Metal.Weighted>
-0.0000

> <Gold.Chemscore.Lipo.Weighted>
-11.5644

> <Gold.Chemscore.Internal_Hbond.Weighted>
0.0000

> <Gold.Chemscore.DEClash.Weighted>
0.1284

> <Gold.Chemscore.DEInternal.Weighted>
2.9498

> <Gold.Chemscore.Rot.Weighted>
3.9693

> <Gold.Chemscore.Internal.Correction.Weighted>
   9.000000E+99

> <Gold.Protein.RotatedTorsions>
[ 6907 6896 6895 6894 ] final -173.52 input  -60.11 | X-H torsion
[ 7974 7965 7964 7962 ] final   92.66 input  175.53 | X-H torsion
[ 8008 7997 7996 7995 ] final   60.29 input   59.86 | X-H torsion
[ 10167 10162 10161 10158 ] final   92.26 input  -65.29 | X-H torsion
[ 10718 10713 10712 10709 ] final   22.88 input   66.30 | X-H torsion
[ 10763 10752 10751 10750 ] final  150.20 input  -60.55 | X-H torsion
[ 11005 11000 10999 10996 ] final  -97.46 input  -57.11 | X-H torsion

> <Gold.Protein.ActiveResidues>
 VAL166  LYS551  ARG553  GLY616  TRP617  ASP618  TYR619  PRO620  LYS621  CYS622 
 ASP623  PHE694  ASN695  SER759  ASP760  ASP761  ALA762  ILE779  LEU786  VAL792 
 PHE793  MET794  SER795  GLU796  ALA797  LYS798  CYS799  TRP800  GLU811  SER814 

> <Gold.Protein.RotatedAtoms>
  151.5576  133.3408  159.2964 H   0  0  0  0  0  0  0  0  0  0  0  0  # atno 6907 bound_to 6896
  150.8442  134.7747  159.6968 H   0  0  0  0  0  0  0  0  0  0  0  0  # atno 6908 bound_to 6896
  152.4503  134.5415  159.9892 H   0  0  0  0  0  0  0  0  0  0  0  0  # atno 6909 bound_to 6896
  145.4893  139.2277  143.2839 H   0  0  0  0  0  0  0  0  0  0  0  0  # atno 7974 bound_to 7965
  155.5799  140.3491  155.4537 H   0  0  0  0  0  0  0  0  0  0  0  0  # atno 8008 bound_to 7997
  156.0381  140.1289  157.0211 H   0  0  0  0  0  0  0  0  0  0  0  0  # atno 8009 bound_to 7997
  154.4380  140.1030  156.6182 H   0  0  0  0  0  0  0  0  0  0  0  0  # atno 8010 bound_to 7997
  139.8294  144.6694  150.9419 H   0  0  0  0  0  0  0  0  0  0  0  0  # atno 10167 bound_to 10162
  157.1584  130.6706  149.6036 H   0  0  0  0  0  0  0  0  0  0  0  0  # atno 10718 bound_to 10713
  154.0836  135.2857  155.3285 H   0  0  0  0  0  0  0  0  0  0  0  0  # atno 10763 bound_to 10752
  154.6667  135.5314  153.8089 H   0  0  0  0  0  0  0  0  0  0  0  0  # atno 10764 bound_to 10752
  153.0439  135.6547  154.1010 H   0  0  0  0  0  0  0  0  0  0  0  0  # atno 10765 bound_to 10752
  141.1378  133.8173  157.0709 H   0  0  0  0  0  0  0  0  0  0  0  0  # atno 11005 bound_to 11000
  146.2294  140.5686  142.8982 LP  0  0  0  0  0  0  0  0  0  0  0  0  # atno 17320 bound_to 7965
  144.7843  140.5905  143.6584 LP  0  0  0  0  0  0  0  0  0  0  0  0  # atno 17321 bound_to 7965
  140.7808  143.4015  151.1141 LP  0  0  0  0  0  0  0  0  0  0  0  0  # atno 17342 bound_to 10162
  139.7670  143.8550  152.3112 LP  0  0  0  0  0  0  0  0  0  0  0  0  # atno 17343 bound_to 10162
  155.9758  130.4720  150.6484 LP  0  0  0  0  0  0  0  0  0  0  0  0  # atno 17370 bound_to 10713
  157.4155  131.0829  151.1181 LP  0  0  0  0  0  0  0  0  0  0  0  0  # atno 17371 bound_to 10713
  140.0511  134.9805  157.1139 LP  0  0  0  0  0  0  0  0  0  0  0  0  # atno 17394 bound_to 11000
  140.3988  134.2105  155.7164 LP  0  0  0  0  0  0  0  0  0  0  0  0  # atno 17395 bound_to 11000

$$$$
