AV-unprocessed.smi:271|AV-procd|sdf|2050|dock9
  -GOLD-   2262021283D 1   1.00000     0.00000
 Structure written by MMmdl.
 58 60  0  0  0  0  0  0  0  0  1 V2000
  152.8277  142.9739  159.7817 C   0  0  0  0  0  0  0  0  0  0  0  0
  152.4342  143.3345  158.3409 C   0  0  0  0  0  0  0  0  0  0  0  0
  152.6234  144.8410  158.0945 C   0  0  0  0  0  0  0  0  0  0  0  0
  150.9970  142.8688  158.0354 C   0  0  0  0  0  0  0  0  0  0  0  0
  150.7932  141.3470  158.1915 C   0  0  0  0  0  0  0  0  0  0  0  0
  151.7843  140.5454  157.4736 N   0  0  0  0  0  0  0  0  0  0  0  0
  151.5747  140.4581  156.0301 C   0  0  0  0  0  0  0  0  0  0  0  0
  150.4220  139.5200  155.6375 C   0  0  0  0  0  0  0  0  0  0  0  0
  150.8991  138.2879  154.9929 C   0  0  0  0  0  0  0  0  0  0  0  0
  151.2749  137.3184  154.4856 N   0  0  0  0  0  0  0  0  0  0  0  0
  152.0273  139.3424  158.0423 C   0  0  0  0  0  0  0  0  0  0  0  0
  150.9673  138.5155  158.2168 N   0  0  0  0  0  0  0  0  0  0  0  0
  151.1453  137.3109  158.7669 C   0  0  0  0  0  0  0  0  0  0  0  0
  152.2763  136.7503  159.2006 N   0  0  0  0  0  0  0  0  0  0  0  0
  153.3448  137.5800  159.0244 C   0  0  0  0  0  0  0  0  0  0  0  0
  153.3087  138.8868  158.4627 C   0  0  0  0  0  0  0  0  0  0  0  0
  154.5846  139.4357  158.4558 N   0  0  0  0  0  0  0  0  0  0  0  0
  155.3329  138.5050  158.9814 C   0  0  0  0  0  0  0  0  0  0  0  0
  154.6744  137.3481  159.3356 N   0  0  0  0  0  0  0  0  0  0  0  0
  155.2582  136.1549  159.9331 C   0  0  0  0  0  0  0  0  0  0  0  0
  154.7394  135.8330  161.3622 C   0  0  1  0  0  0  0  0  0  0  0  0
  155.3576  134.5322  161.9274 C   0  0  0  0  0  0  0  0  0  0  0  0
  155.1982  133.4639  161.0176 O   0  0  0  0  0  0  0  0  0  0  0  0
  154.9267  137.0209  162.3429 C   0  0  2  0  0  0  0  0  0  0  0  0
  156.3242  137.6184  162.3697 C   0  0  0  0  0  0  0  0  0  0  0  0
  156.3456  138.3654  163.7006 C   0  0  0  0  0  0  0  0  0  0  0  0
  155.4337  137.6790  164.5512 O   0  0  0  0  0  0  0  0  0  0  0  0
  154.7734  136.6514  163.8222 C   0  0  0  0  0  0  0  0  0  0  0  0
  152.1811  143.4714  160.5052 H   0  0  0  0  0  0  0  0  0  0  0  0
  153.8554  143.2696  159.9955 H   0  0  0  0  0  0  0  0  0  0  0  0
  152.7545  141.8996  159.9537 H   0  0  0  0  0  0  0  0  0  0  0  0
  153.1128  142.7979  157.6764 H   0  0  0  0  0  0  0  0  0  0  0  0
  151.9427  145.4316  158.7084 H   0  0  0  0  0  0  0  0  0  0  0  0
  152.4470  145.1048  157.0522 H   0  0  0  0  0  0  0  0  0  0  0  0
  153.6406  145.1516  158.3353 H   0  0  0  0  0  0  0  0  0  0  0  0
  150.3069  143.3766  158.7105 H   0  0  0  0  0  0  0  0  0  0  0  0
  150.7276  143.1907  157.0285 H   0  0  0  0  0  0  0  0  0  0  0  0
  150.7991  141.0663  159.2444 H   0  0  0  0  0  0  0  0  0  0  0  0
  149.8048  141.0843  157.8125 H   0  0  0  0  0  0  0  0  0  0  0  0
  151.3993  141.4543  155.6221 H   0  0  0  0  0  0  0  0  0  0  0  0
  152.4948  140.0961  155.5700 H   0  0  0  0  0  0  0  0  0  0  0  0
  149.8466  139.2336  156.5180 H   0  0  0  0  0  0  0  0  0  0  0  0
  149.7363  140.0049  154.9423 H   0  0  0  0  0  0  0  0  0  0  0  0
  150.2547  136.7091  158.8730 H   0  0  0  0  0  0  0  0  0  0  0  0
  156.3952  138.6400  159.1186 H   0  0  0  0  0  0  0  0  0  0  0  0
  155.0789  135.3153  159.2616 H   0  0  0  0  0  0  0  0  0  0  0  0
  156.3413  136.2804  159.9510 H   0  0  0  0  0  0  0  0  0  0  0  0
  153.6652  135.6627  161.2743 H   0  0  0  0  0  0  0  0  0  0  0  0
  156.4144  134.6614  162.1615 H   0  0  0  0  0  0  0  0  0  0  0  0
  154.8662  134.2332  162.8524 H   0  0  0  0  0  0  0  0  0  0  0  0
  155.6808  132.7185  161.3407 H   0  0  0  0  0  0  0  0  0  0  0  0
  154.2237  137.8191  162.1005 H   0  0  0  0  0  0  0  0  0  0  0  0
  157.0759  136.8276  162.3757 H   0  0  0  0  0  0  0  0  0  0  0  0
  156.5302  138.2774  161.5260 H   0  0  0  0  0  0  0  0  0  0  0  0
  157.3443  138.4026  164.1360 H   0  0  0  0  0  0  0  0  0  0  0  0
  155.9939  139.3895  163.5710 H   0  0  0  0  0  0  0  0  0  0  0  0
  153.7342  136.5607  164.1360 H   0  0  0  0  0  0  0  0  0  0  0  0
  155.2712  135.7044  164.0360 H   0  0  0  0  0  0  0  0  0  0  0  0
  1  2  1  0  0  0  0
  1 29  1  0  0  0  0
  1 30  1  0  0  0  0
  1 31  1  0  0  0  0
  2  3  1  0  0  0  0
  2  4  1  0  0  0  0
  2 32  1  0  0  0  0
  3 33  1  0  0  0  0
  3 34  1  0  0  0  0
  3 35  1  0  0  0  0
  4  5  1  0  0  0  0
  4 36  1  0  0  0  0
  4 37  1  0  0  0  0
  5  6  1  0  0  0  0
  5 38  1  0  0  0  0
  5 39  1  0  0  0  0
  6  7  1  0  0  0  0
  6 11  1  0  0  0  0
  7  8  1  0  0  0  0
  7 40  1  0  0  0  0
  7 41  1  0  0  0  0
  8  9  1  0  0  0  0
  8 42  1  0  0  0  0
  8 43  1  0  0  0  0
  9 10  3  0  0  0  0
 11 16  1  0  0  0  0
 11 12  2  0  0  0  0
 12 13  1  0  0  0  0
 13 14  2  0  0  0  0
 13 44  1  0  0  0  0
 14 15  1  0  0  0  0
 15 19  1  0  0  0  0
 15 16  2  0  0  0  0
 16 17  1  0  0  0  0
 17 18  2  0  0  0  0
 18 19  1  0  0  0  0
 18 45  1  0  0  0  0
 19 20  1  0  0  0  0
 20 21  1  0  0  0  0
 20 46  1  0  0  0  0
 20 47  1  0  0  0  0
 21 22  1  0  0  0  0
 21 24  1  0  0  0  0
 21 48  1  0  0  0  0
 22 23  1  0  0  0  0
 22 49  1  0  0  0  0
 22 50  1  0  0  0  0
 23 51  1  0  0  0  0
 24 28  1  0  0  0  0
 24 25  1  0  0  0  0
 24 52  1  0  0  0  0
 25 26  1  0  0  0  0
 25 53  1  0  0  0  0
 25 54  1  0  0  0  0
 26 27  1  0  0  0  0
 26 55  1  0  0  0  0
 26 56  1  0  0  0  0
 27 28  1  0  0  0  0
 28 57  1  0  0  0  0
 28 58  1  0  0  0  0
M  END
> <s_m_source_file>
AV-unprocessed.smi

> <i_m_source_file_index>
271

> <i_lp_mmshare_version>
43012

> <i_f3d_flags>
0

> <s_epik_input>
W0NIM11bQ0hdKFtDSDNdKVtDSDJdW0NIMl1OKFtDSDJdW0NIMl1DI04pYyhuW2NIXW4xKWMoYzEyKW5bY0hdbjJbQ0gyXVtDQEhdKFtDSDJdW09IXSlbQ0BASF0zW0NIMl1bQ0gyXU9bQ0gyXTM=

> <s_epik_cmdline>
J2VwaWtfcHl0aG9uJywgJy1waCcsICc3LjAnLCAnLXRuJywgJzgnLCAnLW1hJywgJzIwMCcsICctbWV0YWxfYmluZGluZycsICctaW1hZScsICc8aW5maWxlLm1hZT4nLCAnLW9tYWUnLCAnPG91dGZpbGUubWFlPic=

> <r_lp_tautomer_probability>
1

> <r_epik_Ionization_Penalty>
0.000825874

> <r_epik_Ionization_Penalty_Charging>
0

> <r_epik_Ionization_Penalty_Neutral>
0.000825874

> <r_epik_State_Penalty>
0.000396768

> <r_epik_Charging_Adjusted_Penalty>
0.000396768

> <i_epik_Tot_Q>
0

> <i_epik_Tot_abs_Q>
0

> <r_epik_Metal_State_Penalty>
-0

> <b_epik_Metal_Only>
0

> <s_lp_Force_Field>
OPLS_2005

> <r_lp_Energy>
35.3128

> <b_lp_Chiralities_Consistent>
1

> <s_lp_Variant>
AV-unprocessed.smi:271-2

> <Gold.Version>
5.8.1

> <Gold.Id.Protein>
6NUR|6NUR_protein|mol2

> <Gold.PLP.Fitness>
55.8263

> <Gold.PLP.PLP>
-48.5394

> <Gold.PLP.part.hbond>
-3.0000

> <Gold.PLP.part.metal>
0.0000

> <Gold.PLP.part.buried>
-6.8149

> <Gold.PLP.part.nonpolar>
-39.2480

> <Gold.PLP.part.repulsive>
0.2503

> <Gold.PLP.ligand.clash>
0.0000

> <Gold.PLP.ligand.torsion>
1.1727

> <Gold.PLP.Chemscore.Hbond>
2.9200

> <Gold.PLP.Chemscore.CHOScore>
0.0000

> <Gold.PLP.Chemscore.Metal>
0.0000

> <Gold.Chemscore.Hbonds>
donor molecule, donor type, donor heavy atom, donor atom, acceptor molecule, acceptor atom, score
      P1  H  6896  6909       L1    14  0.99
      P1  H  7997  8008       L1    17  0.60
      P1  H 10752 10764       L1    10  0.18

> <Gold.PLP.Chemscore.Internal.Correction>
0.8722

> <Gold.Rescore>
     Score         DG    S(hbond)    S(metal)    S(lipo)     H(rot)  DE(clash)    DE(int)     intcor
     15.86     -18.32       2.74        0.00     113.96       3.77       0.04       2.42       ----

> <Gold.Chemscore.Fitness>
15.8640

> <Gold.Chemscore.DG>
-18.3238

> <Gold.Chemscore.ZeroCoef>
-5.4800

> <Gold.Chemscore.Hbond>
2.7416

> <Gold.Chemscore.Metal>
0.0000

> <Gold.Chemscore.Lipo>
113.9639

> <Gold.Chemscore.Internal_Hbond>
0.0000

> <Gold.Chemscore.DEClash>
0.0430

> <Gold.Chemscore.DEInternal>
2.4168

> <Gold.Chemscore.Rot>
3.7683

> <Gold.Chemscore.Internal.Correction>
   9.000000E+99

> <Gold.Chemscore.Hbonds>
donor molecule, donor type, donor heavy atom, donor atom, acceptor molecule, acceptor atom, score
      P1  H  6896  6909       L1    14  0.47
      P1  H  7997  8008       L1    17  0.51
      P1  H 10752 10764       L1    10  0.19

> <Gold.Chemscore.Hbond.Weighted>
-9.1568

> <Gold.Chemscore.Metal.Weighted>
-0.0000

> <Gold.Chemscore.Lipo.Weighted>
-13.3338

> <Gold.Chemscore.Internal_Hbond.Weighted>
0.0000

> <Gold.Chemscore.DEClash.Weighted>
0.0430

> <Gold.Chemscore.DEInternal.Weighted>
2.4168

> <Gold.Chemscore.Rot.Weighted>
9.6468

> <Gold.Chemscore.Internal.Correction.Weighted>
   9.000000E+99

> <Gold.Protein.RotatedTorsions>
[ 6907 6896 6895 6894 ] final  128.74 input  -60.11 | X-H torsion
[ 7974 7965 7964 7962 ] final -178.86 input  175.53 | X-H torsion
[ 8008 7997 7996 7995 ] final -123.27 input   59.86 | X-H torsion
[ 10167 10162 10161 10158 ] final  -81.25 input  -65.29 | X-H torsion
[ 10718 10713 10712 10709 ] final  104.87 input   66.30 | X-H torsion
[ 10763 10752 10751 10750 ] final  -79.65 input  -60.55 | X-H torsion
[ 11005 11000 10999 10996 ] final  -13.75 input  -57.11 | X-H torsion

> <Gold.Protein.ActiveResidues>
 VAL166  LYS551  ARG553  GLY616  TRP617  ASP618  TYR619  PRO620  LYS621  CYS622 
 ASP623  PHE694  ASN695  SER759  ASP760  ASP761  ALA762  ILE779  LEU786  VAL792 
 PHE793  MET794  SER795  GLU796  ALA797  LYS798  CYS799  TRP800  GLU811  SER814 

> <Gold.Protein.RotatedAtoms>
  152.3690  133.6394  159.6072 H   0  0  0  0  0  0  0  0  0  0  0  0  # atno 6907 bound_to 6896
  150.7655  133.9300  159.3433 H   0  0  0  0  0  0  0  0  0  0  0  0  # atno 6908 bound_to 6896
  151.7126  135.0911  160.0321 H   0  0  0  0  0  0  0  0  0  0  0  0  # atno 6909 bound_to 6896
  144.7133  140.0804  143.6426 H   0  0  0  0  0  0  0  0  0  0  0  0  # atno 7974 bound_to 7965
  155.1777  140.0410  157.2876 H   0  0  0  0  0  0  0  0  0  0  0  0  # atno 8008 bound_to 7997
  154.6225  140.2504  155.7504 H   0  0  0  0  0  0  0  0  0  0  0  0  # atno 8009 bound_to 7997
  156.2441  140.2892  156.0539 H   0  0  0  0  0  0  0  0  0  0  0  0  # atno 8010 bound_to 7997
  140.4429  143.2508  151.8599 H   0  0  0  0  0  0  0  0  0  0  0  0  # atno 10167 bound_to 10162
  157.6725  131.0814  150.5771 H   0  0  0  0  0  0  0  0  0  0  0  0  # atno 10718 bound_to 10713
  154.5413  135.5688  153.6841 H   0  0  0  0  0  0  0  0  0  0  0  0  # atno 10763 bound_to 10752
  152.9964  135.6228  154.2498 H   0  0  0  0  0  0  0  0  0  0  0  0  # atno 10764 bound_to 10752
  154.2429  135.2862  155.2826 H   0  0  0  0  0  0  0  0  0  0  0  0  # atno 10765 bound_to 10752
  140.7793  133.8376  155.9277 H   0  0  0  0  0  0  0  0  0  0  0  0  # atno 11005 bound_to 11000
  145.9707  139.2867  143.1100 LP  0  0  0  0  0  0  0  0  0  0  0  0  # atno 17320 bound_to 7965
  145.9120  140.9174  143.0449 LP  0  0  0  0  0  0  0  0  0  0  0  0  # atno 17321 bound_to 7965
  139.4791  144.5208  151.8804 LP  0  0  0  0  0  0  0  0  0  0  0  0  # atno 17342 bound_to 10162
  140.4297  144.2132  150.5888 LP  0  0  0  0  0  0  0  0  0  0  0  0  # atno 17343 bound_to 10162
  156.6072  130.4370  149.5873 LP  0  0  0  0  0  0  0  0  0  0  0  0  # atno 17370 bound_to 10713
  156.2459  130.6878  151.1599 LP  0  0  0  0  0  0  0  0  0  0  0  0  # atno 17371 bound_to 10713
  140.9498  134.1793  157.4736 LP  0  0  0  0  0  0  0  0  0  0  0  0  # atno 17394 bound_to 11000
  139.8745  134.9905  156.5504 LP  0  0  0  0  0  0  0  0  0  0  0  0  # atno 17395 bound_to 11000

$$$$
