AV-unprocessed.smi:1696|AV-procd|sdf|6799|dock6
  -GOLD-   22720 7563D 1   1.00000     0.00000
 Structure written by MMmdl.
 39 40  0  0  0  0  0  0  0  0  2 V2000
  147.4159  141.9096  154.0835 C   0  0  0  0  0  0  0  0  0  0  0  0
  147.2678  140.4579  154.5678 C   0  0  0  0  0  0  0  0  0  0  0  0
  147.4651  139.3796  153.4673 C   0  0  2  0  0  0  0  0  0  0  0  0
  146.2026  138.5013  153.2595 C   0  0  0  0  0  0  0  0  0  0  0  0
  146.5137  137.2247  152.6203 N   0  0  0  0  0  0  0  0  0  0  0  0
  145.6197  136.3830  152.0804 C   0  0  0  0  0  0  0  0  0  0  0  0
  144.4062  136.5893  152.0783 O   0  0  0  0  0  0  0  0  0  0  0  0
  146.2252  135.3074  151.5473 N   0  0  0  0  0  0  0  0  0  0  0  0
  145.6290  134.2126  150.8679 C   0  0  0  0  0  0  0  0  0  0  0  0
  144.3633  134.1921  150.4344 N   0  0  0  0  0  0  0  0  0  0  0  0
  144.0464  132.9890  149.7984 C   0  0  0  0  0  0  0  0  0  0  0  0
  145.0905  132.0989  149.7560 C   0  0  0  0  0  0  0  0  0  0  0  0
  146.5216  132.7394  150.5183 S   0  0  0  0  0  0  0  0  0  0  0  0
  148.6729  138.5403  153.7257 N   0  3  0  0  0  0  0  0  0  0  0  0
  149.9412  139.2884  153.9176 C   0  0  0  0  0  0  0  0  0  0  0  0
  150.7779  138.5136  154.9461 C   0  0  0  0  0  0  0  0  0  0  0  0
  150.0111  137.2175  155.1846 C   0  0  0  0  0  0  0  0  0  0  0  0
  148.5713  137.5979  154.8613 C   0  0  0  0  0  0  0  0  0  0  0  0
  147.2565  142.6056  154.9073 H   0  0  0  0  0  0  0  0  0  0  0  0
  146.6907  142.1513  153.3068 H   0  0  0  0  0  0  0  0  0  0  0  0
  148.4102  142.1041  153.6835 H   0  0  0  0  0  0  0  0  0  0  0  0
  147.9754  140.2889  155.3797 H   0  0  0  0  0  0  0  0  0  0  0  0
  146.2902  140.3404  155.0353 H   0  0  0  0  0  0  0  0  0  0  0  0
  147.6461  139.9117  152.5317 H   0  0  0  0  0  0  0  0  0  0  0  0
  145.7420  138.2548  154.2155 H   0  0  0  0  0  0  0  0  0  0  0  0
  145.4454  139.0547  152.7023 H   0  0  0  0  0  0  0  0  0  0  0  0
  147.4887  136.9657  152.5787 H   0  0  0  0  0  0  0  0  0  0  0  0
  147.2306  135.2708  151.6263 H   0  0  0  0  0  0  0  0  0  0  0  0
  143.0506  132.8502  149.4037 H   0  0  0  0  0  0  0  0  0  0  0  0
  145.1040  131.1093  149.3241 H   0  0  0  0  0  0  0  0  0  0  0  0
  150.4613  139.3772  152.9632 H   0  0  0  0  0  0  0  0  0  0  0  0
  149.7551  140.2963  154.2910 H   0  0  0  0  0  0  0  0  0  0  0  0
  151.7965  138.3307  154.6031 H   0  0  0  0  0  0  0  0  0  0  0  0
  150.8393  139.0830  155.8742 H   0  0  0  0  0  0  0  0  0  0  0  0
  150.3552  136.4504  154.4893 H   0  0  0  0  0  0  0  0  0  0  0  0
  150.1313  136.8322  156.1976 H   0  0  0  0  0  0  0  0  0  0  0  0
  148.1198  138.1000  155.7187 H   0  0  0  0  0  0  0  0  0  0  0  0
  147.9675  136.7227  154.6205 H   0  0  0  0  0  0  0  0  0  0  0  0
  148.8116  137.9661  152.9063 H   0  0  0  0  0  0  0  0  0  0  0  0
  1  2  1  0  0  0  0
  1 19  1  0  0  0  0
  1 20  1  0  0  0  0
  1 21  1  0  0  0  0
  2  3  1  0  0  0  0
  2 22  1  0  0  0  0
  2 23  1  0  0  0  0
  3  4  1  0  0  0  0
  3 14  1  0  0  0  0
  3 24  1  0  0  0  0
  4  5  1  0  0  0  0
  4 25  1  0  0  0  0
  4 26  1  0  0  0  0
  5  6  1  0  0  0  0
  5 27  1  0  0  0  0
  6  7  2  0  0  0  0
  6  8  1  0  0  0  0
  8  9  1  0  0  0  0
  8 28  1  0  0  0  0
  9 13  1  0  0  0  0
  9 10  2  0  0  0  0
 10 11  1  0  0  0  0
 11 12  2  0  0  0  0
 11 29  1  0  0  0  0
 12 13  1  0  0  0  0
 12 30  1  0  0  0  0
 14 18  1  0  0  0  0
 14 15  1  0  0  0  0
 14 39  1  0  0  0  0
 15 16  1  0  0  0  0
 15 31  1  0  0  0  0
 15 32  1  0  0  0  0
 16 17  1  0  0  0  0
 16 33  1  0  0  0  0
 16 34  1  0  0  0  0
 17 18  1  0  0  0  0
 17 35  1  0  0  0  0
 17 36  1  0  0  0  0
 18 37  1  0  0  0  0
 18 38  1  0  0  0  0
M  CHG  1  14   1
M  END
> <s_m_source_file>
AV-unprocessed.smi

> <i_m_source_file_index>
1696

> <i_lp_mmshare_version>
43012

> <i_f3d_flags>
0

> <s_epik_input>
W0NIMl0xW0NIMl1bQ0gyXVtDSDJdTjFbQ0BIXShbQ0gyXVtDSDNdKVtDSDJdW05IXUMoPU8pW05IXWMybltjSF1bY0hdczI=

> <s_epik_cmdline>
J2VwaWtfcHl0aG9uJywgJy1waCcsICc3LjAnLCAnLXRuJywgJzgnLCAnLW1hJywgJzIwMCcsICctbWV0YWxfYmluZGluZycsICctaW1hZScsICc8aW5maWxlLm1hZT4nLCAnLW9tYWUnLCAnPG91dGZpbGUubWFlPic=

> <r_lp_tautomer_probability>
1

> <r_epik_Ionization_Penalty>
0.0013883

> <r_epik_Ionization_Penalty_Charging>
0.00115997

> <r_epik_Ionization_Penalty_Neutral>
0.000228323

> <r_epik_State_Penalty>
-0

> <r_epik_Charging_Adjusted_Penalty>
0.00115997

> <i_epik_Tot_Q>
1

> <i_epik_Tot_abs_Q>
1

> <r_epik_Metal_State_Penalty>
0.0131845

> <b_epik_Metal_Only>
0

> <s_lp_Force_Field>
OPLS_2005

> <r_lp_Energy>
31.4712

> <b_lp_Chiralities_Consistent>
1

> <s_lp_Variant>
AV-unprocessed.smi:1696-1

> <Gold.Version>
5.8.1

> <Gold.Id.Protein>
6NUR|6NUR_protein|mol2

> <Gold.PLP.Fitness>
42.4908

> <Gold.PLP.PLP>
-29.7361

> <Gold.PLP.part.hbond>
-3.8498

> <Gold.PLP.part.metal>
0.0000

> <Gold.PLP.part.buried>
-1.4479

> <Gold.PLP.part.nonpolar>
-25.8356

> <Gold.PLP.part.repulsive>
1.1724

> <Gold.PLP.ligand.clash>
0.0000

> <Gold.PLP.ligand.torsion>
1.1664

> <Gold.PLP.Chemscore.Hbond>
4.0000

> <Gold.PLP.Chemscore.CHOScore>
0.9937

> <Gold.PLP.Chemscore.Metal>
0.0000

> <Gold.Chemscore.Hbonds>
donor molecule, donor type, donor heavy atom, donor atom, acceptor molecule, acceptor atom, score
      L1  H     5    27       P1  7948  1.00
      L1  H     8    28       P1  7948  0.99
      L1  H    14    39       P1  7948  2.00
      L1  C    11    29       P1 10186  0.87

> <Gold.PLP.Chemscore.Internal.Correction>
0.1065

> <Gold.Rescore>
     Score         DG    S(hbond)    S(metal)    S(lipo)     H(rot)  DE(clash)    DE(int)     intcor
     15.77     -18.95       2.82        0.00      73.25       1.77       0.07       3.11       ----

> <Gold.Chemscore.Fitness>
15.7655

> <Gold.Chemscore.DG>
-18.9468

> <Gold.Chemscore.ZeroCoef>
-5.4800

> <Gold.Chemscore.Hbond>
2.8230

> <Gold.Chemscore.Metal>
0.0000

> <Gold.Chemscore.Lipo>
73.2528

> <Gold.Chemscore.Internal_Hbond>
0.0000

> <Gold.Chemscore.DEClash>
0.0746

> <Gold.Chemscore.DEInternal>
3.1067

> <Gold.Chemscore.Rot>
1.7705

> <Gold.Chemscore.Internal.Correction>
   9.000000E+99

> <Gold.Chemscore.Hbonds>
donor molecule, donor type, donor heavy atom, donor atom, acceptor molecule, acceptor atom, score
      L1  H     5    27       P1  7948  0.98
      L1  H     8    28       P1  7948  0.88
      L1  H    14    39       P1  7948  0.95

> <Gold.Chemscore.Hbond.Weighted>
-9.4287

> <Gold.Chemscore.Metal.Weighted>
-0.0000

> <Gold.Chemscore.Lipo.Weighted>
-8.5706

> <Gold.Chemscore.Internal_Hbond.Weighted>
0.0000

> <Gold.Chemscore.DEClash.Weighted>
0.0746

> <Gold.Chemscore.DEInternal.Weighted>
3.1067

> <Gold.Chemscore.Rot.Weighted>
4.5324

> <Gold.Chemscore.Internal.Correction.Weighted>
   9.000000E+99

> <Gold.Protein.RotatedTorsions>
[ 6907 6896 6895 6894 ] final  128.41 input  -60.11 | X-H torsion
[ 7974 7965 7964 7962 ] final  -40.03 input  175.53 | X-H torsion
[ 8008 7997 7996 7995 ] final   13.26 input   59.86 | X-H torsion
[ 10167 10162 10161 10158 ] final  -14.62 input  -65.29 | X-H torsion
[ 10718 10713 10712 10709 ] final   70.28 input   66.30 | X-H torsion
[ 10763 10752 10751 10750 ] final  -50.29 input  -60.55 | X-H torsion
[ 11005 11000 10999 10996 ] final  104.52 input  -57.11 | X-H torsion

> <Gold.Protein.ActiveResidues>
 VAL166  LYS551  ARG553  GLY616  TRP617  ASP618  TYR619  PRO620  LYS621  CYS622 
 ASP623  PHE694  ASN695  SER759  ASP760  ASP761  ALA762  ILE779  LEU786  VAL792 
 PHE793  MET794  SER795  GLU796  ALA797  LYS798  CYS799  TRP800  GLU811  SER814 

> <Gold.Protein.RotatedAtoms>
  152.3722  133.6433  159.6095 H   0  0  0  0  0  0  0  0  0  0  0  0  # atno 6907 bound_to 6896
  150.7677  133.9252  159.3419 H   0  0  0  0  0  0  0  0  0  0  0  0  # atno 6908 bound_to 6896
  151.7073  135.0920  160.0312 H   0  0  0  0  0  0  0  0  0  0  0  0  # atno 6909 bound_to 6896
  146.0342  140.6692  142.9118 H   0  0  0  0  0  0  0  0  0  0  0  0  # atno 7974 bound_to 7965
  154.8321  140.2901  155.5715 H   0  0  0  0  0  0  0  0  0  0  0  0  # atno 8008 bound_to 7997
  156.3006  140.2530  156.3179 H   0  0  0  0  0  0  0  0  0  0  0  0  # atno 8009 bound_to 7997
  154.9220  140.0385  157.1992 H   0  0  0  0  0  0  0  0  0  0  0  0  # atno 8010 bound_to 7997
  140.7204  143.5303  150.9528 H   0  0  0  0  0  0  0  0  0  0  0  0  # atno 10167 bound_to 10162
  157.6391  130.9469  150.0629 H   0  0  0  0  0  0  0  0  0  0  0  0  # atno 10718 bound_to 10713
  154.1079  135.6553  153.4880 H   0  0  0  0  0  0  0  0  0  0  0  0  # atno 10763 bound_to 10752
  153.0266  135.5241  154.7221 H   0  0  0  0  0  0  0  0  0  0  0  0  # atno 10764 bound_to 10752
  154.6392  135.2986  155.0093 H   0  0  0  0  0  0  0  0  0  0  0  0  # atno 10765 bound_to 10752
  139.8793  134.9303  156.5374 H   0  0  0  0  0  0  0  0  0  0  0  0  # atno 11005 bound_to 11000
  144.7044  140.3791  143.7130 LP  0  0  0  0  0  0  0  0  0  0  0  0  # atno 17320 bound_to 7965
  145.6990  139.1657  143.2603 LP  0  0  0  0  0  0  0  0  0  0  0  0  # atno 17321 bound_to 7965
  139.9023  143.6821  152.3129 LP  0  0  0  0  0  0  0  0  0  0  0  0  # atno 17342 bound_to 10162
  139.7175  144.7609  151.1010 LP  0  0  0  0  0  0  0  0  0  0  0  0  # atno 17343 bound_to 10162
  156.1656  130.3645  149.9236 LP  0  0  0  0  0  0  0  0  0  0  0  0  # atno 17370 bound_to 10713
  156.7224  130.9012  151.3619 LP  0  0  0  0  0  0  0  0  0  0  0  0  # atno 17371 bound_to 10713
  140.8336  133.8260  155.9007 LP  0  0  0  0  0  0  0  0  0  0  0  0  # atno 17394 bound_to 11000
  140.9305  134.2028  157.4867 LP  0  0  0  0  0  0  0  0  0  0  0  0  # atno 17395 bound_to 11000

$$$$
