AV-unprocessed.smi:2027|AV-procd|sdf|8215|dock4
  -GOLD-   2272010483D 1   1.00000     0.00000
 Structure written by MMmdl.
 50 52  0  0  0  0  0  0  0  0  2 V2000
  152.1498  143.3890  160.3774 C   0  0  0  0  0  0  0  0  0  0  0  0
  151.9228  142.4957  159.1698 C   0  0  0  0  0  0  0  0  0  0  0  0
  150.9560  142.8846  158.2154 C   0  0  0  0  0  0  0  0  0  0  0  0
  150.7743  142.0491  157.1196 C   0  0  0  0  0  0  0  0  0  0  0  0
  149.9163  142.1512  156.0223 N   0  3  0  0  0  0  0  0  0  0  0  0
  150.1056  141.0850  155.1962 C   0  0  0  0  0  0  0  0  0  0  0  0
  151.0719  140.3040  155.7505 N   0  0  0  0  0  0  0  0  0  0  0  0
  151.6724  139.0538  155.2657 C   0  0  0  0  0  0  0  0  0  0  0  0
  150.6146  137.9759  154.9624 C   0  0  2  0  0  0  0  0  0  0  0  0
  150.0106  138.2586  153.7152 O   0  0  0  0  0  0  0  0  0  0  0  0
  149.5157  137.9169  156.0445 C   0  0  0  0  0  0  0  0  0  0  0  0
  149.6142  136.8245  157.0263 N   0  0  0  0  0  0  0  0  0  0  0  0
  149.8351  137.3838  158.3550 C   0  0  0  0  0  0  0  0  0  0  0  0
  150.6816  135.8570  156.7335 C   0  0  0  0  0  0  0  0  0  0  0  0
  150.2606  134.6768  155.9007 C   0  0  0  0  0  0  0  0  0  0  0  0
  150.5473  133.3023  156.1381 C   0  0  0  0  0  0  0  0  0  0  0  0
  150.0606  132.5058  155.2011 N   0  0  0  0  0  0  0  0  0  0  0  0
  149.4358  133.3381  154.3440 N   0  0  0  0  0  0  0  0  0  0  0  0
  148.7928  132.7952  153.1670 C   0  0  0  0  0  0  0  0  0  0  0  0
  149.5212  134.6523  154.7507 C   0  0  0  0  0  0  0  0  0  0  0  0
  151.5147  140.8629  156.9543 C   0  0  0  0  0  0  0  0  0  0  0  0
  152.4680  140.4626  157.8873 C   0  0  0  0  0  0  0  0  0  0  0  0
  152.6675  141.2986  159.0089 C   0  0  0  0  0  0  0  0  0  0  0  0
  153.7010  140.8885  160.0439 C   0  0  0  0  0  0  0  0  0  0  0  0
  151.5286  144.2841  160.3344 H   0  0  0  0  0  0  0  0  0  0  0  0
  153.1905  143.7095  160.4275 H   0  0  0  0  0  0  0  0  0  0  0  0
  151.9057  142.8574  161.2975 H   0  0  0  0  0  0  0  0  0  0  0  0
  150.3847  143.7939  158.3321 H   0  0  0  0  0  0  0  0  0  0  0  0
  149.5905  140.8989  154.2647 H   0  0  0  0  0  0  0  0  0  0  0  0
  152.2641  139.2815  154.3782 H   0  0  0  0  0  0  0  0  0  0  0  0
  152.3710  138.7038  156.0270 H   0  0  0  0  0  0  0  0  0  0  0  0
  151.1364  137.0303  154.8738 H   0  0  0  0  0  0  0  0  0  0  0  0
  149.7328  137.4442  153.3249 H   0  0  0  0  0  0  0  0  0  0  0  0
  149.4770  138.8690  156.5760 H   0  0  0  0  0  0  0  0  0  0  0  0
  148.5620  137.8466  155.5187 H   0  0  0  0  0  0  0  0  0  0  0  0
  149.8644  136.5969  159.1096 H   0  0  0  0  0  0  0  0  0  0  0  0
  149.0286  138.0643  158.6300 H   0  0  0  0  0  0  0  0  0  0  0  0
  150.7759  137.9344  158.4005 H   0  0  0  0  0  0  0  0  0  0  0  0
  151.5196  136.3754  156.2654 H   0  0  0  0  0  0  0  0  0  0  0  0
  151.0781  135.4794  157.6771 H   0  0  0  0  0  0  0  0  0  0  0  0
  151.1082  132.8643  156.9506 H   0  0  0  0  0  0  0  0  0  0  0  0
  148.3410  133.5978  152.5836 H   0  0  0  0  0  0  0  0  0  0  0  0
  148.0155  132.0901  153.4630 H   0  0  0  0  0  0  0  0  0  0  0  0
  149.5295  132.2796  152.5499 H   0  0  0  0  0  0  0  0  0  0  0  0
  149.0772  135.4569  154.1832 H   0  0  0  0  0  0  0  0  0  0  0  0
  153.0385  139.5546  157.7618 H   0  0  0  0  0  0  0  0  0  0  0  0
  154.1595  139.9317  159.7922 H   0  0  0  0  0  0  0  0  0  0  0  0
  153.2418  140.7876  161.0272 H   0  0  0  0  0  0  0  0  0  0  0  0
  154.4953  141.6327  160.1048 H   0  0  0  0  0  0  0  0  0  0  0  0
  149.2534  142.8949  155.8444 H   0  0  0  0  0  0  0  0  0  0  0  0
  1  2  1  0  0  0  0
  1 25  1  0  0  0  0
  1 26  1  0  0  0  0
  1 27  1  0  0  0  0
  2 23  1  0  0  0  0
  2  3  2  0  0  0  0
  3  4  1  0  0  0  0
  3 28  1  0  0  0  0
  4 21  2  0  0  0  0
  4  5  1  0  0  0  0
  5  6  2  0  0  0  0
  5 50  1  0  0  0  0
  6  7  1  0  0  0  0
  6 29  1  0  0  0  0
  7  8  1  0  0  0  0
  7 21  1  0  0  0  0
  8  9  1  0  0  0  0
  8 30  1  0  0  0  0
  8 31  1  0  0  0  0
  9 10  1  0  0  0  0
  9 11  1  0  0  0  0
  9 32  1  0  0  0  0
 10 33  1  0  0  0  0
 11 12  1  0  0  0  0
 11 34  1  0  0  0  0
 11 35  1  0  0  0  0
 12 13  1  0  0  0  0
 12 14  1  0  0  0  0
 13 36  1  0  0  0  0
 13 37  1  0  0  0  0
 13 38  1  0  0  0  0
 14 15  1  0  0  0  0
 14 39  1  0  0  0  0
 14 40  1  0  0  0  0
 15 20  2  0  0  0  0
 15 16  1  0  0  0  0
 16 17  2  0  0  0  0
 16 41  1  0  0  0  0
 17 18  1  0  0  0  0
 18 19  1  0  0  0  0
 18 20  1  0  0  0  0
 19 42  1  0  0  0  0
 19 43  1  0  0  0  0
 19 44  1  0  0  0  0
 20 45  1  0  0  0  0
 21 22  1  0  0  0  0
 22 23  2  0  0  0  0
 22 46  1  0  0  0  0
 23 24  1  0  0  0  0
 24 47  1  0  0  0  0
 24 48  1  0  0  0  0
 24 49  1  0  0  0  0
M  CHG  1   5   1
M  END
> <s_m_source_file>
AV-unprocessed.smi

> <i_m_source_file_index>
2027

> <i_lp_mmshare_version>
43012

> <i_f3d_flags>
0

> <s_epik_input>
W0NIM11jKFtjSF0xKWMoW0NIM10pW2NIXWMoYzEyKW4oW2NIXW4yKVtDSDJdW0NASF0oW09IXSlbQ0gyXU4oW0NIM10pW0NIMl1jM1tjSF1ubihbQ0gzXSlbY0hdMw==

> <s_epik_cmdline>
J2VwaWtfcHl0aG9uJywgJy1waCcsICc3LjAnLCAnLXRuJywgJzgnLCAnLW1hJywgJzIwMCcsICctbWV0YWxfYmluZGluZycsICctaW1hZScsICc8aW5maWxlLm1hZT4nLCAnLW9tYWUnLCAnPG91dGZpbGUubWFlPic=

> <r_epik_Ionization_Penalty>
1.48134

> <r_epik_Ionization_Penalty_Charging>
1.21121

> <r_epik_Ionization_Penalty_Neutral>
0.270133

> <r_epik_State_Penalty>
1.53013

> <r_epik_Charging_Adjusted_Penalty>
2.74134

> <i_epik_Tot_Q>
1

> <i_epik_Tot_abs_Q>
1

> <r_epik_Metal_State_Penalty>
1.60443

> <b_epik_Metal_Only>
0

> <s_lp_Force_Field>
OPLS_2005

> <r_lp_Energy>
21.1476

> <b_lp_Chiralities_Consistent>
1

> <s_lp_Variant>
AV-unprocessed.smi:2027-7

> <Gold.Version>
5.8.1

> <Gold.Id.Protein>
6NUR|6NUR_protein|mol2

> <Gold.PLP.Fitness>
54.7094

> <Gold.PLP.PLP>
-46.6777

> <Gold.PLP.part.hbond>
-2.6980

> <Gold.PLP.part.metal>
0.0000

> <Gold.PLP.part.buried>
-4.9755

> <Gold.PLP.part.nonpolar>
-39.2831

> <Gold.PLP.part.repulsive>
0.0979

> <Gold.PLP.ligand.clash>
0.0000

> <Gold.PLP.ligand.torsion>
2.1125

> <Gold.PLP.Chemscore.Hbond>
3.0000

> <Gold.PLP.Chemscore.CHOScore>
1.0000

> <Gold.PLP.Chemscore.Metal>
0.0000

> <Gold.Chemscore.Hbonds>
donor molecule, donor type, donor heavy atom, donor atom, acceptor molecule, acceptor atom, score
      L1  H     5    50       P1  8028  1.98
      L1  H    10    33       P1  7948  1.00
      L1  C    20    45       P1  7948  1.00

> <Gold.PLP.Chemscore.Internal.Correction>
0.2568

> <Gold.Rescore>
     Score         DG    S(hbond)    S(metal)    S(lipo)     H(rot)  DE(clash)    DE(int)     intcor
     15.32     -17.72       1.60        0.00     113.73       2.50       0.30       2.09       ----

> <Gold.Chemscore.Fitness>
15.3231

> <Gold.Chemscore.DG>
-17.7196

> <Gold.Chemscore.ZeroCoef>
-5.4800

> <Gold.Chemscore.Hbond>
1.5968

> <Gold.Chemscore.Metal>
0.0000

> <Gold.Chemscore.Lipo>
113.7272

> <Gold.Chemscore.Internal_Hbond>
0.0000

> <Gold.Chemscore.DEClash>
0.3036

> <Gold.Chemscore.DEInternal>
2.0929

> <Gold.Chemscore.Rot>
2.5000

> <Gold.Chemscore.Internal.Correction>
   9.000000E+99

> <Gold.Chemscore.Hbonds>
donor molecule, donor type, donor heavy atom, donor atom, acceptor molecule, acceptor atom, score
      L1  H     5    50       P1  8028  0.94
      L1  H    10    33       P1  7948  0.65

> <Gold.Chemscore.Hbond.Weighted>
-5.3335

> <Gold.Chemscore.Metal.Weighted>
-0.0000

> <Gold.Chemscore.Lipo.Weighted>
-13.3061

> <Gold.Chemscore.Internal_Hbond.Weighted>
0.0000

> <Gold.Chemscore.DEClash.Weighted>
0.3036

> <Gold.Chemscore.DEInternal.Weighted>
2.0929

> <Gold.Chemscore.Rot.Weighted>
6.3999

> <Gold.Chemscore.Internal.Correction.Weighted>
   9.000000E+99

> <Gold.Protein.RotatedTorsions>
[ 6907 6896 6895 6894 ] final  -33.50 input  -60.11 | X-H torsion
[ 7974 7965 7964 7962 ] final  -20.98 input  175.53 | X-H torsion
[ 8008 7997 7996 7995 ] final  140.25 input   59.86 | X-H torsion
[ 10167 10162 10161 10158 ] final  -36.95 input  -65.29 | X-H torsion
[ 10718 10713 10712 10709 ] final  -77.38 input   66.30 | X-H torsion
[ 10763 10752 10751 10750 ] final  -98.65 input  -60.55 | X-H torsion
[ 11005 11000 10999 10996 ] final   88.49 input  -57.11 | X-H torsion

> <Gold.Protein.ActiveResidues>
 VAL166  LYS551  ARG553  GLY616  TRP617  ASP618  TYR619  PRO620  LYS621  CYS622 
 ASP623  PHE694  ASN695  SER759  ASP760  ASP761  ALA762  ILE779  LEU786  VAL792 
 PHE793  MET794  SER795  GLU796  ALA797  LYS798  CYS799  TRP800  GLU811  SER814 

> <Gold.Protein.RotatedAtoms>
  151.0648  134.9760  159.8278 H   0  0  0  0  0  0  0  0  0  0  0  0  # atno 6907 bound_to 6896
  152.5400  134.2372  159.8858 H   0  0  0  0  0  0  0  0  0  0  0  0  # atno 6908 bound_to 6896
  151.2394  133.4364  159.2640 H   0  0  0  0  0  0  0  0  0  0  0  0  # atno 6909 bound_to 6896
  146.1758  140.4278  142.8514 H   0  0  0  0  0  0  0  0  0  0  0  0  # atno 7974 bound_to 7965
  156.2981  140.2346  156.4371 H   0  0  0  0  0  0  0  0  0  0  0  0  # atno 8008 bound_to 7997
  154.8219  140.0437  157.1437 H   0  0  0  0  0  0  0  0  0  0  0  0  # atno 8009 bound_to 7997
  154.9306  140.3016  155.5173 H   0  0  0  0  0  0  0  0  0  0  0  0  # atno 8010 bound_to 7997
  140.7130  143.3374  151.2432 H   0  0  0  0  0  0  0  0  0  0  0  0  # atno 10167 bound_to 10162
  156.0146  130.4490  150.3337 H   0  0  0  0  0  0  0  0  0  0  0  0  # atno 10718 bound_to 10713
  154.7432  135.5001  153.9158 H   0  0  0  0  0  0  0  0  0  0  0  0  # atno 10763 bound_to 10752
  153.1064  135.6698  153.9586 H   0  0  0  0  0  0  0  0  0  0  0  0  # atno 10764 bound_to 10752
  153.9358  135.3073  155.3423 H   0  0  0  0  0  0  0  0  0  0  0  0  # atno 10765 bound_to 10752
  139.8895  134.8491  156.3008 H   0  0  0  0  0  0  0  0  0  0  0  0  # atno 11005 bound_to 11000
  144.8234  140.6588  143.6338 LP  0  0  0  0  0  0  0  0  0  0  0  0  # atno 17320 bound_to 7965
  145.4215  139.1563  143.4071 LP  0  0  0  0  0  0  0  0  0  0  0  0  # atno 17321 bound_to 7965
  139.6873  143.9752  152.2841 LP  0  0  0  0  0  0  0  0  0  0  0  0  # atno 17342 bound_to 10162
  139.9402  144.6686  150.8274 LP  0  0  0  0  0  0  0  0  0  0  0  0  # atno 17343 bound_to 10162
  157.1434  131.0302  151.2917 LP  0  0  0  0  0  0  0  0  0  0  0  0  # atno 17370 bound_to 10713
  157.4453  130.7567  149.7104 LP  0  0  0  0  0  0  0  0  0  0  0  0  # atno 17371 bound_to 10713
  140.9915  133.7206  156.0821 LP  0  0  0  0  0  0  0  0  0  0  0  0  # atno 17394 bound_to 11000
  140.7619  134.3930  157.5524 LP  0  0  0  0  0  0  0  0  0  0  0  0  # atno 17395 bound_to 11000

$$$$
