AV-unprocessed.smi:1413|AV-procd|sdf|5751|dock6
  -GOLD-   22720 5383D 1   1.00000     0.00000
 Structure written by MMmdl.
 53 55  0  0  0  0  0  0  0  0  1 V2000
  151.2845  144.5576  158.4988 C   0  0  0  0  0  0  0  0  0  0  0  0
  152.1062  143.2698  158.3806 C   0  0  2  0  0  0  0  0  0  0  0  0
  151.3134  142.1404  157.6956 C   0  0  0  0  0  0  0  0  0  0  0  0
  152.0781  140.8967  157.7121 N   0  0  0  0  0  0  0  0  0  0  0  0
  151.5823  139.8689  156.8815 C   0  0  0  0  0  0  0  0  0  0  0  0
  151.4714  140.0750  155.4862 C   0  0  0  0  0  0  0  0  0  0  0  0
  150.9767  139.0373  154.6728 C   0  0  0  0  0  0  0  0  0  0  0  0
  150.6107  137.8116  155.2749 C   0  0  0  0  0  0  0  0  0  0  0  0
  150.0819  136.7011  154.5644 N   0  0  0  0  0  0  0  0  0  0  0  0
  149.9999  135.4212  154.9654 C   0  0  0  0  0  0  0  0  0  0  0  0
  150.3736  134.9952  156.0580 O   0  0  0  0  0  0  0  0  0  0  0  0
  149.4350  134.6556  154.0206 N   0  0  0  0  0  0  0  0  0  0  0  0
  149.1448  133.2256  154.1282 C   0  0  1  0  0  0  0  0  0  0  0  0
  148.3049  132.7878  152.9196 C   0  0  0  0  0  0  0  0  0  0  0  0
  150.4433  132.4011  154.2521 C   0  0  2  0  0  0  0  0  0  0  0  0
  150.2746  130.8756  154.1891 C   0  0  0  0  0  0  0  0  0  0  0  0
  151.2942  130.3423  155.1867 C   0  0  0  0  0  0  0  0  0  0  0  0
  152.0317  131.5885  155.6709 C   0  0  0  0  0  0  0  0  0  0  0  0
  151.0820  132.6271  155.5015 O   0  0  0  0  0  0  0  0  0  0  0  0
  150.7438  137.7048  156.6733 C   0  0  0  0  0  0  0  0  0  0  0  0
  151.2217  138.6950  157.4556 N   0  0  0  0  0  0  0  0  0  0  0  0
  152.5559  140.5303  159.0434 C   0  0  0  0  0  0  0  0  0  0  0  0
  153.3188  141.7055  159.6828 C   0  0  2  0  0  0  0  0  0  0  0  0
  153.7396  141.4032  161.1246 C   0  0  0  0  0  0  0  0  0  0  0  0
  152.4781  142.8560  159.6928 O   0  0  0  0  0  0  0  0  0  0  0  0
  150.9829  144.9219  157.5165 H   0  0  0  0  0  0  0  0  0  0  0  0
  151.8620  145.3457  158.9828 H   0  0  0  0  0  0  0  0  0  0  0  0
  150.3816  144.3962  159.0884 H   0  0  0  0  0  0  0  0  0  0  0  0
  153.0081  143.4861  157.8050 H   0  0  0  0  0  0  0  0  0  0  0  0
  150.3687  141.9757  158.2155 H   0  0  0  0  0  0  0  0  0  0  0  0
  151.0658  142.4440  156.6793 H   0  0  0  0  0  0  0  0  0  0  0  0
  151.7687  141.0082  155.0315 H   0  0  0  0  0  0  0  0  0  0  0  0
  150.8782  139.2045  153.6115 H   0  0  0  0  0  0  0  0  0  0  0  0
  149.6510  136.9178  153.6775 H   0  0  0  0  0  0  0  0  0  0  0  0
  149.1705  135.0990  153.1531 H   0  0  0  0  0  0  0  0  0  0  0  0
  148.5444  133.0320  155.0186 H   0  0  0  0  0  0  0  0  0  0  0  0
  148.0438  131.7313  152.9860 H   0  0  0  0  0  0  0  0  0  0  0  0
  148.8439  132.9388  151.9836 H   0  0  0  0  0  0  0  0  0  0  0  0
  147.3740  133.3528  152.8622 H   0  0  0  0  0  0  0  0  0  0  0  0
  151.1382  132.7017  153.4653 H   0  0  0  0  0  0  0  0  0  0  0  0
  149.2746  130.5554  154.4805 H   0  0  0  0  0  0  0  0  0  0  0  0
  150.4536  130.5033  153.1800 H   0  0  0  0  0  0  0  0  0  0  0  0
  150.7786  129.8646  156.0208 H   0  0  0  0  0  0  0  0  0  0  0  0
  151.9717  129.6098  154.7470 H   0  0  0  0  0  0  0  0  0  0  0  0
  152.3602  131.5083  156.7072 H   0  0  0  0  0  0  0  0  0  0  0  0
  152.9050  131.7895  155.0484 H   0  0  0  0  0  0  0  0  0  0  0  0
  150.4659  136.7937  157.1828 H   0  0  0  0  0  0  0  0  0  0  0  0
  151.7057  140.2492  159.6667 H   0  0  0  0  0  0  0  0  0  0  0  0
  153.2144  139.6630  158.9785 H   0  0  0  0  0  0  0  0  0  0  0  0
  154.2153  141.9226  159.0992 H   0  0  0  0  0  0  0  0  0  0  0  0
  154.3947  140.5327  161.1671 H   0  0  0  0  0  0  0  0  0  0  0  0
  152.8733  141.2017  161.7552 H   0  0  0  0  0  0  0  0  0  0  0  0
  154.2785  142.2462  161.5579 H   0  0  0  0  0  0  0  0  0  0  0  0
  1  2  1  0  0  0  0
  1 26  1  0  0  0  0
  1 27  1  0  0  0  0
  1 28  1  0  0  0  0
  2 25  1  0  0  0  0
  2  3  1  0  0  0  0
  2 29  1  0  0  0  0
  3  4  1  0  0  0  0
  3 30  1  0  0  0  0
  3 31  1  0  0  0  0
  4  5  1  0  0  0  0
  4 22  1  0  0  0  0
  5 21  1  0  0  0  0
  5  6  2  0  0  0  0
  6  7  1  0  0  0  0
  6 32  1  0  0  0  0
  7  8  2  0  0  0  0
  7 33  1  0  0  0  0
  8  9  1  0  0  0  0
  8 20  1  0  0  0  0
  9 10  1  0  0  0  0
  9 34  1  0  0  0  0
 10 11  2  0  0  0  0
 10 12  1  0  0  0  0
 12 13  1  0  0  0  0
 12 35  1  0  0  0  0
 13 14  1  0  0  0  0
 13 15  1  0  0  0  0
 13 36  1  0  0  0  0
 14 37  1  0  0  0  0
 14 38  1  0  0  0  0
 14 39  1  0  0  0  0
 15 19  1  0  0  0  0
 15 16  1  0  0  0  0
 15 40  1  0  0  0  0
 16 17  1  0  0  0  0
 16 41  1  0  0  0  0
 16 42  1  0  0  0  0
 17 18  1  0  0  0  0
 17 43  1  0  0  0  0
 17 44  1  0  0  0  0
 18 19  1  0  0  0  0
 18 45  1  0  0  0  0
 18 46  1  0  0  0  0
 20 21  2  0  0  0  0
 20 47  1  0  0  0  0
 22 23  1  0  0  0  0
 22 48  1  0  0  0  0
 22 49  1  0  0  0  0
 23 24  1  0  0  0  0
 23 25  1  0  0  0  0
 23 50  1  0  0  0  0
 24 51  1  0  0  0  0
 24 52  1  0  0  0  0
 24 53  1  0  0  0  0
M  END
> <s_m_source_file>
AV-unprocessed.smi

> <i_m_source_file_index>
1413

> <i_lp_mmshare_version>
43012

> <i_f3d_flags>
0

> <s_epik_input>
W0NIM11bQ0BASF0xW0NIMl1OKFtDSDJdW0NASF0oTzEpW0NIM10pYzJbY0hdW2NIXWMoW2NIXW4yKVtOSF1DKD1PKVtOSF1bQ0BIXShbQ0gzXSlbQ0BASF0zW0NIMl1bQ0gyXVtDSDJdTzM=

> <s_epik_cmdline>
J2VwaWtfcHl0aG9uJywgJy1waCcsICc3LjAnLCAnLXRuJywgJzgnLCAnLW1hJywgJzIwMCcsICctbWV0YWxfYmluZGluZycsICctaW1hZScsICc8aW5maWxlLm1hZT4nLCAnLW9tYWUnLCAnPG91dGZpbGUubWFlPic=

> <r_lp_tautomer_probability>
1

> <r_epik_Ionization_Penalty>
0.00271172

> <r_epik_Ionization_Penalty_Charging>
0

> <r_epik_Ionization_Penalty_Neutral>
0.00271172

> <r_epik_State_Penalty>
0.00186503

> <r_epik_Charging_Adjusted_Penalty>
0.00186503

> <i_epik_Tot_Q>
0

> <i_epik_Tot_abs_Q>
0

> <r_epik_Metal_State_Penalty>
-0

> <b_epik_Metal_Only>
0

> <s_lp_Force_Field>
OPLS_2005

> <r_lp_Energy>
35.2684

> <b_lp_Chiralities_Consistent>
1

> <s_lp_Variant>
AV-unprocessed.smi:1413-4

> <Gold.Version>
5.8.1

> <Gold.Id.Protein>
6NUR|6NUR_protein|mol2

> <Gold.PLP.Fitness>
51.2182

> <Gold.PLP.PLP>
-45.9278

> <Gold.PLP.part.hbond>
-2.0000

> <Gold.PLP.part.metal>
0.0000

> <Gold.PLP.part.buried>
-5.2938

> <Gold.PLP.part.nonpolar>
-37.9702

> <Gold.PLP.part.repulsive>
0.0804

> <Gold.PLP.ligand.clash>
0.0000

> <Gold.PLP.ligand.torsion>
0.4653

> <Gold.PLP.Chemscore.Hbond>
1.9600

> <Gold.PLP.Chemscore.CHOScore>
0.0000

> <Gold.PLP.Chemscore.Metal>
0.0000

> <Gold.Chemscore.Hbonds>
donor molecule, donor type, donor heavy atom, donor atom, acceptor molecule, acceptor atom, score
      L1  H     9    34       P1  7948  0.94
      L1  H    12    35       P1  7948  0.75

> <Gold.PLP.Chemscore.Internal.Correction>
0.3410

> <Gold.Rescore>
     Score         DG    S(hbond)    S(metal)    S(lipo)     H(rot)  DE(clash)    DE(int)     intcor
     16.88     -20.57       1.55        0.00     114.27       1.35       0.12       3.58       ----

> <Gold.Chemscore.Fitness>
16.8759

> <Gold.Chemscore.DG>
-20.5690

> <Gold.Chemscore.ZeroCoef>
-5.4800

> <Gold.Chemscore.Hbond>
1.5474

> <Gold.Chemscore.Metal>
0.0000

> <Gold.Chemscore.Lipo>
114.2657

> <Gold.Chemscore.Internal_Hbond>
0.0000

> <Gold.Chemscore.DEClash>
0.1155

> <Gold.Chemscore.DEInternal>
3.5776

> <Gold.Chemscore.Rot>
1.3471

> <Gold.Chemscore.Internal.Correction>
   9.000000E+99

> <Gold.Chemscore.Hbonds>
donor molecule, donor type, donor heavy atom, donor atom, acceptor molecule, acceptor atom, score
      L1  H     9    34       P1  7948  0.63
      L1  H    12    35       P1  7948  0.09

> <Gold.Chemscore.Hbond.Weighted>
-5.1684

> <Gold.Chemscore.Metal.Weighted>
-0.0000

> <Gold.Chemscore.Lipo.Weighted>
-13.3691

> <Gold.Chemscore.Internal_Hbond.Weighted>
0.0000

> <Gold.Chemscore.DEClash.Weighted>
0.1155

> <Gold.Chemscore.DEInternal.Weighted>
3.5776

> <Gold.Chemscore.Rot.Weighted>
3.4485

> <Gold.Chemscore.Internal.Correction.Weighted>
   9.000000E+99

> <Gold.Protein.RotatedTorsions>
[ 6907 6896 6895 6894 ] final  104.73 input  -60.11 | X-H torsion
[ 7974 7965 7964 7962 ] final   91.64 input  175.53 | X-H torsion
[ 8008 7997 7996 7995 ] final  132.90 input   59.86 | X-H torsion
[ 10167 10162 10161 10158 ] final -139.76 input  -65.29 | X-H torsion
[ 10718 10713 10712 10709 ] final  142.02 input   66.30 | X-H torsion
[ 10763 10752 10751 10750 ] final  -29.52 input  -60.55 | X-H torsion
[ 11005 11000 10999 10996 ] final  -70.90 input  -57.11 | X-H torsion

> <Gold.Protein.ActiveResidues>
 VAL166  LYS551  ARG553  GLY616  TRP617  ASP618  TYR619  PRO620  LYS621  CYS622 
 ASP623  PHE694  ASN695  SER759  ASP760  ASP761  ALA762  ILE779  LEU786  VAL792 
 PHE793  MET794  SER795  GLU796  ALA797  LYS798  CYS799  TRP800  GLU811  SER814 

> <Gold.Protein.RotatedAtoms>
  152.5254  133.9633  159.7727 H   0  0  0  0  0  0  0  0  0  0  0  0  # atno 6907 bound_to 6896
  150.9919  133.6133  159.2714 H   0  0  0  0  0  0  0  0  0  0  0  0  # atno 6908 bound_to 6896
  151.3273  135.0839  159.9379 H   0  0  0  0  0  0  0  0  0  0  0  0  # atno 6909 bound_to 6896
  145.5029  139.2276  143.2767 H   0  0  0  0  0  0  0  0  0  0  0  0  # atno 7974 bound_to 7965
  156.2987  140.2535  156.3164 H   0  0  0  0  0  0  0  0  0  0  0  0  # atno 8008 bound_to 7997
  154.9277  140.0399  157.2050 H   0  0  0  0  0  0  0  0  0  0  0  0  # atno 8009 bound_to 7997
  154.8249  140.2866  155.5766 H   0  0  0  0  0  0  0  0  0  0  0  0  # atno 8010 bound_to 7997
  139.8348  143.7399  152.2665 H   0  0  0  0  0  0  0  0  0  0  0  0  # atno 10167 bound_to 10162
  157.3853  131.0997  151.0699 H   0  0  0  0  0  0  0  0  0  0  0  0  # atno 10718 bound_to 10713
  153.7659  135.6916  153.4916 H   0  0  0  0  0  0  0  0  0  0  0  0  # atno 10763 bound_to 10752
  153.1907  135.4472  155.0144 H   0  0  0  0  0  0  0  0  0  0  0  0  # atno 10764 bound_to 10752
  154.8136  135.3388  154.7172 H   0  0  0  0  0  0  0  0  0  0  0  0  # atno 10765 bound_to 10752
  141.1582  133.6802  156.6823 H   0  0  0  0  0  0  0  0  0  0  0  0  # atno 11005 bound_to 11000
  146.2214  140.5831  142.9015 LP  0  0  0  0  0  0  0  0  0  0  0  0  # atno 17320 bound_to 7965
  144.7770  140.5760  143.6631 LP  0  0  0  0  0  0  0  0  0  0  0  0  # atno 17321 bound_to 7965
  139.7618  144.7504  151.0353 LP  0  0  0  0  0  0  0  0  0  0  0  0  # atno 17342 bound_to 10162
  140.7803  143.4742  151.0104 LP  0  0  0  0  0  0  0  0  0  0  0  0  # atno 17343 bound_to 10162
  157.1753  130.6285  149.5654 LP  0  0  0  0  0  0  0  0  0  0  0  0  # atno 17370 bound_to 10713
  155.9785  130.4771  150.6660 LP  0  0  0  0  0  0  0  0  0  0  0  0  # atno 17371 bound_to 10713
  140.3093  134.8099  157.4163 LP  0  0  0  0  0  0  0  0  0  0  0  0  # atno 17394 bound_to 11000
  140.1193  134.5241  155.8198 LP  0  0  0  0  0  0  0  0  0  0  0  0  # atno 17395 bound_to 11000

$$$$
