AV-unprocessed.smi:345|AV-procd|sdf|2391|dock1
  -GOLD-   2262022323D 1   1.00000     0.00000
 Structure written by MMmdl.
 34 36  0  0  0  0  0  0  0  0  1 V2000
  151.0090  135.0163  156.3857 C   0  0  0  0  0  0  0  0  0  0  0  0
  150.8223  136.1210  157.3684 C   0  0  0  0  0  0  0  0  0  0  0  0
  151.2561  137.4165  157.4064 C   0  0  0  0  0  0  0  0  0  0  0  0
  150.7033  137.9035  158.6205 C   0  0  0  0  0  0  0  0  0  0  0  0
  150.9180  139.2437  159.0316 N   0  0  0  0  0  0  0  0  0  0  0  0
  151.8830  140.0829  158.6184 C   0  0  0  0  0  0  0  0  0  0  0  0
  152.7367  139.8180  157.7716 O   0  0  0  0  0  0  0  0  0  0  0  0
  151.8037  141.2630  159.2513 N   0  0  0  0  0  0  0  0  0  0  0  0
  152.7077  142.3930  159.0622 C   0  0  0  0  0  0  0  0  0  0  0  0
  153.4418  142.7724  160.3388 C   0  0  0  0  0  0  0  0  0  0  0  0
  153.6873  141.7615  161.4345 C   0  0  0  0  0  0  0  0  0  0  0  0
  152.7190  142.8994  161.6595 C   0  0  0  0  0  0  0  0  0  0  0  0
  151.9772  143.5995  158.5002 C   0  0  0  0  0  0  0  0  0  0  0  0
  152.7334  144.8039  157.9927 C   0  0  0  0  0  0  0  0  0  0  0  0
  151.9101  144.9051  159.2571 C   0  0  0  0  0  0  0  0  0  0  0  0
  150.0013  136.9867  159.2686 N   0  0  0  0  0  0  0  0  0  0  0  0
  150.0738  135.8397  158.4693 O   0  0  0  0  0  0  0  0  0  0  0  0
  151.6811  135.3184  155.5823 H   0  0  0  0  0  0  0  0  0  0  0  0
  150.0560  134.7327  155.9391 H   0  0  0  0  0  0  0  0  0  0  0  0
  151.4323  134.1355  156.8687 H   0  0  0  0  0  0  0  0  0  0  0  0
  151.8665  137.9309  156.6791 H   0  0  0  0  0  0  0  0  0  0  0  0
  150.2788  139.5954  159.7287 H   0  0  0  0  0  0  0  0  0  0  0  0
  151.0636  141.3886  159.9262 H   0  0  0  0  0  0  0  0  0  0  0  0
  153.4584  142.1050  158.3230 H   0  0  0  0  0  0  0  0  0  0  0  0
  154.2489  143.4845  160.1752 H   0  0  0  0  0  0  0  0  0  0  0  0
  153.2649  140.7659  161.3166 H   0  0  0  0  0  0  0  0  0  0  0  0
  154.6437  141.8040  161.9513 H   0  0  0  0  0  0  0  0  0  0  0  0
  153.0296  143.7021  162.3250 H   0  0  0  0  0  0  0  0  0  0  0  0
  151.6594  142.6538  161.6886 H   0  0  0  0  0  0  0  0  0  0  0  0
  151.0807  143.3384  157.9402 H   0  0  0  0  0  0  0  0  0  0  0  0
  153.8165  144.8058  158.0986 H   0  0  0  0  0  0  0  0  0  0  0  0
  152.3507  145.2992  157.1028 H   0  0  0  0  0  0  0  0  0  0  0  0
  150.9780  145.4643  159.2089 H   0  0  0  0  0  0  0  0  0  0  0  0
  152.4514  144.9810  160.1978 H   0  0  0  0  0  0  0  0  0  0  0  0
  1  2  1  0  0  0  0
  1 18  1  0  0  0  0
  1 19  1  0  0  0  0
  1 20  1  0  0  0  0
  2 17  1  0  0  0  0
  2  3  2  0  0  0  0
  3  4  1  0  0  0  0
  3 21  1  0  0  0  0
  4  5  1  0  0  0  0
  4 16  2  0  0  0  0
  5  6  1  0  0  0  0
  5 22  1  0  0  0  0
  6  7  2  0  0  0  0
  6  8  1  0  0  0  0
  8  9  1  0  0  0  0
  8 23  1  0  0  0  0
  9 10  1  0  0  0  0
  9 13  1  0  0  0  0
  9 24  1  0  0  0  0
 10 12  1  0  0  0  0
 10 11  1  0  0  0  0
 10 25  1  0  0  0  0
 11 12  1  0  0  0  0
 11 26  1  0  0  0  0
 11 27  1  0  0  0  0
 12 28  1  0  0  0  0
 12 29  1  0  0  0  0
 13 15  1  0  0  0  0
 13 14  1  0  0  0  0
 13 30  1  0  0  0  0
 14 15  1  0  0  0  0
 14 31  1  0  0  0  0
 14 32  1  0  0  0  0
 15 33  1  0  0  0  0
 15 34  1  0  0  0  0
 16 17  1  0  0  0  0
M  END
> <s_m_source_file>
AV-unprocessed.smi

> <i_m_source_file_index>
345

> <i_lp_mmshare_version>
43012

> <i_f3d_flags>
0

> <s_epik_input>
W0NIM11jMVtjSF1jKG5vMSlbTkhdQyg9TylbTkhdW0NIXShbQ0hdMltDSDJdW0NIMl0yKVtDSF0zW0NIMl1bQ0gyXTM=

> <s_epik_cmdline>
J2VwaWtfcHl0aG9uJywgJy1waCcsICc3LjAnLCAnLXRuJywgJzgnLCAnLW1hJywgJzIwMCcsICctbWV0YWxfYmluZGluZycsICctaW1hZScsICc8aW5maWxlLm1hZT4nLCAnLW9tYWUnLCAnPG91dGZpbGUubWFlPic=

> <r_lp_tautomer_probability>
1

> <r_epik_Ionization_Penalty>
2.39082e-05

> <r_epik_Ionization_Penalty_Charging>
0

> <r_epik_Ionization_Penalty_Neutral>
2.39082e-05

> <r_epik_State_Penalty>
-0

> <r_epik_Charging_Adjusted_Penalty>
0

> <i_epik_Tot_Q>
0

> <i_epik_Tot_abs_Q>
0

> <r_epik_Metal_State_Penalty>
-0

> <b_epik_Metal_Only>
0

> <s_lp_Force_Field>
OPLS_2005

> <r_lp_Energy>
21.3823

> <b_lp_Chiralities_Consistent>
1

> <s_lp_Variant>
AV-unprocessed.smi:345-1

> <Gold.Version>
5.8.1

> <Gold.Id.Protein>
6NUR|6NUR_protein|mol2

> <Gold.PLP.Fitness>
41.7565

> <Gold.PLP.PLP>
-36.6736

> <Gold.PLP.part.hbond>
-2.0000

> <Gold.PLP.part.metal>
0.0000

> <Gold.PLP.part.buried>
-5.3033

> <Gold.PLP.part.nonpolar>
-29.4701

> <Gold.PLP.part.repulsive>
0.3328

> <Gold.PLP.ligand.clash>
0.0000

> <Gold.PLP.ligand.torsion>
1.4059

> <Gold.PLP.Chemscore.Hbond>
1.9280

> <Gold.PLP.Chemscore.CHOScore>
0.0000

> <Gold.PLP.Chemscore.Metal>
0.0000

> <Gold.Chemscore.Hbonds>
donor molecule, donor type, donor heavy atom, donor atom, acceptor molecule, acceptor atom, score
      P1  H  6896  6907       L1    17  0.96
      P1  H  7997  8008       L1     7  1.00

> <Gold.PLP.Chemscore.Internal.Correction>
2.1107

> <Gold.Rescore>
     Score         DG    S(hbond)    S(metal)    S(lipo)     H(rot)  DE(clash)    DE(int)     intcor
     15.87     -18.70       1.58        0.00      98.89       1.42       0.07       2.75       ----

> <Gold.Chemscore.Fitness>
15.8738

> <Gold.Chemscore.DG>
-18.7021

> <Gold.Chemscore.ZeroCoef>
-5.4800

> <Gold.Chemscore.Hbond>
1.5815

> <Gold.Chemscore.Metal>
0.0000

> <Gold.Chemscore.Lipo>
98.8946

> <Gold.Chemscore.Internal_Hbond>
0.0000

> <Gold.Chemscore.DEClash>
0.0742

> <Gold.Chemscore.DEInternal>
2.7541

> <Gold.Chemscore.Rot>
1.4183

> <Gold.Chemscore.Internal.Correction>
   9.000000E+99

> <Gold.Chemscore.Hbonds>
donor molecule, donor type, donor heavy atom, donor atom, acceptor molecule, acceptor atom, score
      P1  H  6896  6907       L1    17  0.38
      P1  H  7997  8008       L1     7  0.90

> <Gold.Chemscore.Hbond.Weighted>
-5.2822

> <Gold.Chemscore.Metal.Weighted>
-0.0000

> <Gold.Chemscore.Lipo.Weighted>
-11.5707

> <Gold.Chemscore.Internal_Hbond.Weighted>
0.0000

> <Gold.Chemscore.DEClash.Weighted>
0.0742

> <Gold.Chemscore.DEInternal.Weighted>
2.7541

> <Gold.Chemscore.Rot.Weighted>
3.6308

> <Gold.Chemscore.Internal.Correction.Weighted>
   9.000000E+99

> <Gold.Protein.RotatedTorsions>
[ 6907 6896 6895 6894 ] final  -68.69 input  -60.11 | X-H torsion
[ 7974 7965 7964 7962 ] final   59.07 input  175.53 | X-H torsion
[ 8008 7997 7996 7995 ] final  -57.61 input   59.86 | X-H torsion
[ 10167 10162 10161 10158 ] final  167.98 input  -65.29 | X-H torsion
[ 10718 10713 10712 10709 ] final -158.72 input   66.30 | X-H torsion
[ 10763 10752 10751 10750 ] final  -16.58 input  -60.55 | X-H torsion
[ 11005 11000 10999 10996 ] final  -21.09 input  -57.11 | X-H torsion

> <Gold.Protein.ActiveResidues>
 VAL166  LYS551  ARG553  GLY616  TRP617  ASP618  TYR619  PRO620  LYS621  CYS622 
 ASP623  PHE694  ASN695  SER759  ASP760  ASP761  ALA762  ILE779  LEU786  VAL792 
 PHE793  MET794  SER795  GLU796  ALA797  LYS798  CYS799  TRP800  GLU811  SER814 

> <Gold.Protein.RotatedAtoms>
  150.7343  134.5703  159.5886 H   0  0  0  0  0  0  0  0  0  0  0  0  # atno 6907 bound_to 6896
  152.3144  134.7455  160.0338 H   0  0  0  0  0  0  0  0  0  0  0  0  # atno 6908 bound_to 6896
  151.7992  133.3332  159.3558 H   0  0  0  0  0  0  0  0  0  0  0  0  # atno 6909 bound_to 6896
  145.9112  139.3656  143.0534 H   0  0  0  0  0  0  0  0  0  0  0  0  # atno 7974 bound_to 7965
  154.4275  140.1103  156.5824 H   0  0  0  0  0  0  0  0  0  0  0  0  # atno 8008 bound_to 7997
  155.6098  140.3494  155.4600 H   0  0  0  0  0  0  0  0  0  0  0  0  # atno 8009 bound_to 7997
  156.0108  140.1219  157.0445 H   0  0  0  0  0  0  0  0  0  0  0  0  # atno 8010 bound_to 7997
  139.4957  144.3864  151.9566 H   0  0  0  0  0  0  0  0  0  0  0  0  # atno 10167 bound_to 10162
  156.5581  130.8635  151.2801 H   0  0  0  0  0  0  0  0  0  0  0  0  # atno 10718 bound_to 10713
  153.5607  135.7010  153.5549 H   0  0  0  0  0  0  0  0  0  0  0  0  # atno 10763 bound_to 10752
  153.3432  135.4015  155.1588 H   0  0  0  0  0  0  0  0  0  0  0  0  # atno 10764 bound_to 10752
  154.8648  135.3747  154.5124 H   0  0  0  0  0  0  0  0  0  0  0  0  # atno 10765 bound_to 10752
  140.8527  133.7845  155.9984 H   0  0  0  0  0  0  0  0  0  0  0  0  # atno 11005 bound_to 11000
  145.8669  140.9443  143.0671 LP  0  0  0  0  0  0  0  0  0  0  0  0  # atno 17320 bound_to 7965
  144.6743  140.0603  143.7476 LP  0  0  0  0  0  0  0  0  0  0  0  0  # atno 17321 bound_to 7965
  140.3301  144.3327  150.5989 LP  0  0  0  0  0  0  0  0  0  0  0  0  # atno 17342 bound_to 10162
  140.5652  143.2187  151.7695 LP  0  0  0  0  0  0  0  0  0  0  0  0  # atno 17343 bound_to 10162
  157.7374  130.9795  150.2192 LP  0  0  0  0  0  0  0  0  0  0  0  0  # atno 17370 bound_to 10713
  156.2824  130.3735  149.7922 LP  0  0  0  0  0  0  0  0  0  0  0  0  # atno 17371 bound_to 10713
  140.8772  134.2655  157.5162 LP  0  0  0  0  0  0  0  0  0  0  0  0  # atno 17394 bound_to 11000
  139.8704  134.9597  156.4339 LP  0  0  0  0  0  0  0  0  0  0  0  0  # atno 17395 bound_to 11000

$$$$
