AV-unprocessed.smi:2273|AV-procd|sdf|9166|dock5
  -GOLD-   2272012383D 1   1.00000     0.00000
 Structure written by MMmdl.
 53 54  0  0  0  0  0  0  0  0  1 V2000
  144.8393  143.9024  154.0527 C   0  0  0  0  0  0  0  0  0  0  0  0
  144.8921  143.6095  155.5581 C   0  0  0  0  0  0  0  0  0  0  0  0
  144.9156  142.1110  155.9677 C   0  0  0  0  0  0  0  0  0  0  0  0
  144.7658  141.9779  157.5072 C   0  0  0  0  0  0  0  0  0  0  0  0
  145.6776  142.8979  158.3340 C   0  0  0  0  0  0  0  0  0  0  0  0
  146.1896  141.3808  155.4431 C   0  0  2  0  0  0  0  0  0  0  0  0
  147.4874  141.8483  156.1417 C   0  0  0  0  0  0  0  0  0  0  0  0
  148.7028  141.0583  155.6233 C   0  0  2  0  0  0  0  0  0  0  0  0
  149.9492  141.5414  156.2218 N   0  0  0  0  0  0  0  0  0  0  0  0
  150.2854  141.5757  157.5243 C   0  0  0  0  0  0  0  0  0  0  0  0
  149.5112  141.1880  158.3980 O   0  0  0  0  0  0  0  0  0  0  0  0
  151.5124  142.0804  157.7663 N   0  0  0  0  0  0  0  0  0  0  0  0
  152.1224  142.2473  159.0185 C   0  0  0  0  0  0  0  0  0  0  0  0
  151.7639  143.3123  159.7826 C   0  0  0  0  0  0  0  0  0  0  0  0
  150.6968  144.2975  159.3318 C   0  0  0  0  0  0  0  0  0  0  0  0
  152.4021  143.5031  161.0684 C   0  0  0  0  0  0  0  0  0  0  0  0
  153.3402  142.6366  161.4732 C   0  0  0  0  0  0  0  0  0  0  0  0
  153.7360  141.5534  160.6755 N   0  0  0  0  0  0  0  0  0  0  0  0
  154.7844  140.6732  161.1981 C   0  0  0  0  0  0  0  0  0  0  0  0
  153.2052  141.3252  159.4398 C   0  0  0  0  0  0  0  0  0  0  0  0
  153.6337  140.4136  158.7284 O   0  0  0  0  0  0  0  0  0  0  0  0
  148.7682  141.1953  154.0969 C   0  0  0  0  0  0  0  0  0  0  0  0
  147.4170  140.8246  153.4673 C   0  0  0  0  0  0  0  0  0  0  0  0
  146.3801  141.6114  154.0459 O   0  0  0  0  0  0  0  0  0  0  0  0
  144.6829  144.9670  153.8765 H   0  0  0  0  0  0  0  0  0  0  0  0
  144.0205  143.3670  153.5718 H   0  0  0  0  0  0  0  0  0  0  0  0
  145.7719  143.6325  153.5576 H   0  0  0  0  0  0  0  0  0  0  0  0
  145.7558  144.1194  155.9868 H   0  0  0  0  0  0  0  0  0  0  0  0
  144.0170  144.0890  155.9940 H   0  0  0  0  0  0  0  0  0  0  0  0
  144.0440  141.6238  155.5284 H   0  0  0  0  0  0  0  0  0  0  0  0
  143.7446  142.2259  157.7972 H   0  0  0  0  0  0  0  0  0  0  0  0
  144.9238  140.9415  157.8087 H   0  0  0  0  0  0  0  0  0  0  0  0
  145.4040  142.8571  159.3884 H   0  0  0  0  0  0  0  0  0  0  0  0
  145.5905  143.9358  158.0109 H   0  0  0  0  0  0  0  0  0  0  0  0
  146.7249  142.6053  158.2661 H   0  0  0  0  0  0  0  0  0  0  0  0
  146.0538  140.3072  155.5869 H   0  0  0  0  0  0  0  0  0  0  0  0
  147.6355  142.9128  155.9530 H   0  0  0  0  0  0  0  0  0  0  0  0
  147.4142  141.7472  157.2208 H   0  0  0  0  0  0  0  0  0  0  0  0
  148.5748  140.0005  155.8617 H   0  0  0  0  0  0  0  0  0  0  0  0
  150.6414  141.8859  155.5719 H   0  0  0  0  0  0  0  0  0  0  0  0
  152.0068  142.4784  156.9817 H   0  0  0  0  0  0  0  0  0  0  0  0
  150.5180  145.0608  160.0894 H   0  0  0  0  0  0  0  0  0  0  0  0
  149.7536  143.7828  159.1454 H   0  0  0  0  0  0  0  0  0  0  0  0
  151.0047  144.8002  158.4144 H   0  0  0  0  0  0  0  0  0  0  0  0
  152.1219  144.3305  161.7038 H   0  0  0  0  0  0  0  0  0  0  0  0
  153.8484  142.7252  162.4223 H   0  0  0  0  0  0  0  0  0  0  0  0
  154.4480  139.6353  161.2052 H   0  0  0  0  0  0  0  0  0  0  0  0
  155.0750  140.9241  162.2188 H   0  0  0  0  0  0  0  0  0  0  0  0
  155.6796  140.7364  160.5781 H   0  0  0  0  0  0  0  0  0  0  0  0
  149.0187  142.2224  153.8272 H   0  0  0  0  0  0  0  0  0  0  0  0
  149.5580  140.5630  153.6899 H   0  0  0  0  0  0  0  0  0  0  0  0
  147.4419  141.0109  152.3937 H   0  0  0  0  0  0  0  0  0  0  0  0
  147.2018  139.7634  153.6006 H   0  0  0  0  0  0  0  0  0  0  0  0
  1  2  1  0  0  0  0
  1 25  1  0  0  0  0
  1 26  1  0  0  0  0
  1 27  1  0  0  0  0
  2  3  1  0  0  0  0
  2 28  1  0  0  0  0
  2 29  1  0  0  0  0
  3  4  1  0  0  0  0
  3  6  1  0  0  0  0
  3 30  1  0  0  0  0
  4  5  1  0  0  0  0
  4 31  1  0  0  0  0
  4 32  1  0  0  0  0
  5 33  1  0  0  0  0
  5 34  1  0  0  0  0
  5 35  1  0  0  0  0
  6 24  1  0  0  0  0
  6  7  1  0  0  0  0
  6 36  1  0  0  0  0
  7  8  1  0  0  0  0
  7 37  1  0  0  0  0
  7 38  1  0  0  0  0
  8  9  1  0  0  0  0
  8 22  1  0  0  0  0
  8 39  1  0  0  0  0
  9 10  1  0  0  0  0
  9 40  1  0  0  0  0
 10 11  2  0  0  0  0
 10 12  1  0  0  0  0
 12 13  1  0  0  0  0
 12 41  1  0  0  0  0
 13 20  1  0  0  0  0
 13 14  2  0  0  0  0
 14 15  1  0  0  0  0
 14 16  1  0  0  0  0
 15 42  1  0  0  0  0
 15 43  1  0  0  0  0
 15 44  1  0  0  0  0
 16 17  2  0  0  0  0
 16 45  1  0  0  0  0
 17 18  1  0  0  0  0
 17 46  1  0  0  0  0
 18 19  1  0  0  0  0
 18 20  1  0  0  0  0
 19 47  1  0  0  0  0
 19 48  1  0  0  0  0
 19 49  1  0  0  0  0
 20 21  2  0  0  0  0
 22 23  1  0  0  0  0
 22 50  1  0  0  0  0
 22 51  1  0  0  0  0
 23 24  1  0  0  0  0
 23 52  1  0  0  0  0
 23 53  1  0  0  0  0
M  END
> <s_m_source_file>
AV-unprocessed.smi

> <i_m_source_file_index>
2273

> <i_lp_mmshare_version>
43012

> <i_f3d_flags>
0

> <s_epik_input>
W0NIM11bQ0gyXVtDSF0oW0NIMl1bQ0gzXSlbQ0BASF0xW0NIMl1bQ0BIXShbQ0gyXVtDSDJdTzEpW05IXUMoPU8pW05IXWMyYyhbQ0gzXSlbY0hdW2NIXW4oW0NIM10pYzI9Tw==

> <s_epik_cmdline>
J2VwaWtfcHl0aG9uJywgJy1waCcsICc3LjAnLCAnLXRuJywgJzgnLCAnLW1hJywgJzIwMCcsICctbWV0YWxfYmluZGluZycsICctaW1hZScsICc8aW5maWxlLm1hZT4nLCAnLW9tYWUnLCAnPG91dGZpbGUubWFlPic=

> <r_lp_tautomer_probability>
1

> <r_epik_Ionization_Penalty>
2.66245e-05

> <r_epik_Ionization_Penalty_Charging>
6.91055e-06

> <r_epik_Ionization_Penalty_Neutral>
1.97139e-05

> <r_epik_State_Penalty>
-0

> <r_epik_Charging_Adjusted_Penalty>
6.91055e-06

> <i_epik_Tot_Q>
0

> <i_epik_Tot_abs_Q>
0

> <r_epik_Metal_State_Penalty>
-0

> <b_epik_Metal_Only>
0

> <s_lp_Force_Field>
OPLS_2005

> <r_lp_Energy>
42.9176

> <b_lp_Chiralities_Consistent>
1

> <s_lp_Variant>
AV-unprocessed.smi:2273-3

> <Gold.Version>
5.8.1

> <Gold.Id.Protein>
6NUR|6NUR_protein|mol2

> <Gold.PLP.Fitness>
45.5070

> <Gold.PLP.PLP>
-43.9778

> <Gold.PLP.part.hbond>
-1.0000

> <Gold.PLP.part.metal>
0.0000

> <Gold.PLP.part.buried>
-5.0148

> <Gold.PLP.part.nonpolar>
-37.2019

> <Gold.PLP.part.repulsive>
0.3454

> <Gold.PLP.ligand.clash>
0.0000

> <Gold.PLP.ligand.torsion>
0.8947

> <Gold.PLP.Chemscore.Hbond>
0.9280

> <Gold.PLP.Chemscore.CHOScore>
0.0000

> <Gold.PLP.Chemscore.Metal>
0.0000

> <Gold.Chemscore.Hbonds>
donor molecule, donor type, donor heavy atom, donor atom, acceptor molecule, acceptor atom, score
      P1  H  7997  8009       L1    21  0.82

> <Gold.PLP.Chemscore.Internal.Correction>
0.5346

> <Gold.Rescore>
     Score         DG    S(hbond)    S(metal)    S(lipo)     H(rot)  DE(clash)    DE(int)     intcor
     14.63     -17.02       0.95        0.00     102.68       1.42       0.19       2.21       ----

> <Gold.Chemscore.Fitness>
14.6273

> <Gold.Chemscore.DG>
-17.0235

> <Gold.Chemscore.ZeroCoef>
-5.4800

> <Gold.Chemscore.Hbond>
0.9504

> <Gold.Chemscore.Metal>
0.0000

> <Gold.Chemscore.Lipo>
102.6816

> <Gold.Chemscore.Internal_Hbond>
0.0000

> <Gold.Chemscore.DEClash>
0.1868

> <Gold.Chemscore.DEInternal>
2.2095

> <Gold.Chemscore.Rot>
1.4236

> <Gold.Chemscore.Internal.Correction>
   9.000000E+99

> <Gold.Chemscore.Hbonds>
donor molecule, donor type, donor heavy atom, donor atom, acceptor molecule, acceptor atom, score
      P1  H  7997  8009       L1    21  0.81

> <Gold.Chemscore.Hbond.Weighted>
-3.1743

> <Gold.Chemscore.Metal.Weighted>
-0.0000

> <Gold.Chemscore.Lipo.Weighted>
-12.0137

> <Gold.Chemscore.Internal_Hbond.Weighted>
0.0000

> <Gold.Chemscore.DEClash.Weighted>
0.1868

> <Gold.Chemscore.DEInternal.Weighted>
2.2095

> <Gold.Chemscore.Rot.Weighted>
3.6445

> <Gold.Chemscore.Internal.Correction.Weighted>
   9.000000E+99

> <Gold.Protein.RotatedTorsions>
[ 6907 6896 6895 6894 ] final  126.00 input  -60.11 | X-H torsion
[ 7974 7965 7964 7962 ] final -138.86 input  175.53 | X-H torsion
[ 8008 7997 7996 7995 ] final  143.17 input   59.86 | X-H torsion
[ 10167 10162 10161 10158 ] final   80.87 input  -65.29 | X-H torsion
[ 10718 10713 10712 10709 ] final  176.28 input   66.30 | X-H torsion
[ 10763 10752 10751 10750 ] final  -54.82 input  -60.55 | X-H torsion
[ 11005 11000 10999 10996 ] final  125.55 input  -57.11 | X-H torsion

> <Gold.Protein.ActiveResidues>
 VAL166  LYS551  ARG553  GLY616  TRP617  ASP618  TYR619  PRO620  LYS621  CYS622 
 ASP623  PHE694  ASN695  SER759  ASP760  ASP761  ALA762  ILE779  LEU786  VAL792 
 PHE793  MET794  SER795  GLU796  ALA797  LYS798  CYS799  TRP800  GLU811  SER814 

> <Gold.Protein.RotatedAtoms>
  152.3942  133.6723  159.6262 H   0  0  0  0  0  0  0  0  0  0  0  0  # atno 6907 bound_to 6896
  150.7845  133.8902  159.3320 H   0  0  0  0  0  0  0  0  0  0  0  0  # atno 6908 bound_to 6896
  151.6682  135.0981  160.0244 H   0  0  0  0  0  0  0  0  0  0  0  0  # atno 6909 bound_to 6896
  144.8724  140.6387  143.5258 H   0  0  0  0  0  0  0  0  0  0  0  0  # atno 7974 bound_to 7965
  156.2935  140.2269  156.4847 H   0  0  0  0  0  0  0  0  0  0  0  0  # atno 8008 bound_to 7997
  154.7823  140.0459  157.1158 H   0  0  0  0  0  0  0  0  0  0  0  0  # atno 8009 bound_to 7997
  154.9744  140.3070  155.4977 H   0  0  0  0  0  0  0  0  0  0  0  0  # atno 8010 bound_to 7997
  139.9453  144.6063  150.8213 H   0  0  0  0  0  0  0  0  0  0  0  0  # atno 10167 bound_to 10162
  156.9224  130.9945  151.3002 H   0  0  0  0  0  0  0  0  0  0  0  0  # atno 10718 bound_to 10713
  154.1809  135.6443  153.5034 H   0  0  0  0  0  0  0  0  0  0  0  0  # atno 10763 bound_to 10752
  153.0059  135.5405  154.6515 H   0  0  0  0  0  0  0  0  0  0  0  0  # atno 10764 bound_to 10752
  154.5879  135.2931  155.0638 H   0  0  0  0  0  0  0  0  0  0  0  0  # atno 10765 bound_to 10752
  139.9412  134.9635  156.8575 H   0  0  0  0  0  0  0  0  0  0  0  0  # atno 11005 bound_to 11000
  145.4105  139.1581  143.4128 LP  0  0  0  0  0  0  0  0  0  0  0  0  # atno 17320 bound_to 7965
  146.2939  140.4209  142.8729 LP  0  0  0  0  0  0  0  0  0  0  0  0  # atno 17321 bound_to 7965
  140.7599  143.3139  151.2779 LP  0  0  0  0  0  0  0  0  0  0  0  0  # atno 17342 bound_to 10162
  139.6672  144.0084  152.2730 LP  0  0  0  0  0  0  0  0  0  0  0  0  # atno 17343 bound_to 10162
  157.5899  130.8436  149.8644 LP  0  0  0  0  0  0  0  0  0  0  0  0  # atno 17370 bound_to 10713
  156.0485  130.3723  150.1259 LP  0  0  0  0  0  0  0  0  0  0  0  0  # atno 17371 bound_to 10713
  140.5947  134.0228  155.7513 LP  0  0  0  0  0  0  0  0  0  0  0  0  # atno 17394 bound_to 11000
  141.1047  133.9713  157.3018 LP  0  0  0  0  0  0  0  0  0  0  0  0  # atno 17395 bound_to 11000

$$$$
