AV-unprocessed.smi:1085|AV-procd|sdf|4721|dock5
  -GOLD-   22720 3253D 1   1.00000     0.00000
 Structure written by MMmdl.
 33 34  0  0  0  0  0  0  0  0  1 V2000
  149.0738  141.2722  156.6742 O   0  0  0  0  0  0  0  0  0  0  0  0
  149.9770  140.5693  156.2224 C   0  0  0  0  0  0  0  0  0  0  0  0
  149.8181  139.9092  154.8518 C   0  0  0  0  0  0  0  0  0  0  0  0
  150.9008  138.9789  154.5900 N   0  0  0  0  0  0  0  0  0  0  0  0
  150.8854  137.6977  154.2169 C   0  0  0  0  0  0  0  0  0  0  0  0
  152.1104  137.2070  154.1043 N   0  0  0  0  0  0  0  0  0  0  0  0
  152.9135  138.2851  154.4368 N   0  0  0  0  0  0  0  0  0  0  0  0
  152.2015  139.3396  154.7251 N   0  0  0  0  0  0  0  0  0  0  0  0
  151.1284  140.3342  156.8718 N   0  0  0  0  0  0  0  0  0  0  0  0
  151.4743  140.8412  158.1958 C   0  0  1  0  0  0  0  0  0  0  0  0
  152.8927  140.3896  158.5984 C   0  0  0  0  0  0  0  0  0  0  0  0
  153.3044  140.9852  159.9526 C   0  0  0  0  0  0  0  0  0  0  0  0
  153.1980  142.5178  159.9428 C   0  0  0  0  0  0  0  0  0  0  0  0
  151.7798  142.9871  159.5556 C   0  0  1  0  0  0  0  0  0  0  0  0
  151.6596  144.5250  159.5566 C   0  0  0  0  0  0  0  0  0  0  0  0
  150.3856  144.9011  159.4418 F   0  0  0  0  0  0  0  0  0  0  0  0
  152.1546  145.0206  160.6906 F   0  0  0  0  0  0  0  0  0  0  0  0
  152.3537  145.0384  158.5409 F   0  0  0  0  0  0  0  0  0  0  0  0
  151.3713  142.3782  158.1969 C   0  0  0  0  0  0  0  0  0  0  0  0
  148.8728  139.3670  154.8034 H   0  0  0  0  0  0  0  0  0  0  0  0
  149.7943  140.6718  154.0718 H   0  0  0  0  0  0  0  0  0  0  0  0
  149.9856  137.1285  154.0361 H   0  0  0  0  0  0  0  0  0  0  0  0
  151.8121  139.7437  156.4197 H   0  0  0  0  0  0  0  0  0  0  0  0
  150.7578  140.4505  158.9211 H   0  0  0  0  0  0  0  0  0  0  0  0
  152.9451  139.3016  158.6496 H   0  0  0  0  0  0  0  0  0  0  0  0
  153.6094  140.6970  157.8355 H   0  0  0  0  0  0  0  0  0  0  0  0
  152.6681  140.5785  160.7395 H   0  0  0  0  0  0  0  0  0  0  0  0
  154.3246  140.6851  160.1944 H   0  0  0  0  0  0  0  0  0  0  0  0
  153.4659  142.9043  160.9266 H   0  0  0  0  0  0  0  0  0  0  0  0
  153.9273  142.9268  159.2426 H   0  0  0  0  0  0  0  0  0  0  0  0
  151.0886  142.6065  160.3096 H   0  0  0  0  0  0  0  0  0  0  0  0
  152.0059  142.7877  157.4094 H   0  0  0  0  0  0  0  0  0  0  0  0
  150.3504  142.6734  157.9518 H   0  0  0  0  0  0  0  0  0  0  0  0
  1  2  2  0  0  0  0
  2  3  1  0  0  0  0
  2  9  1  0  0  0  0
  3  4  1  0  0  0  0
  3 20  1  0  0  0  0
  3 21  1  0  0  0  0
  4  8  1  0  0  0  0
  4  5  1  0  0  0  0
  5  6  2  0  0  0  0
  5 22  1  0  0  0  0
  6  7  1  0  0  0  0
  7  8  2  0  0  0  0
  9 10  1  0  0  0  0
  9 23  1  0  0  0  0
 10 19  1  0  0  0  0
 10 11  1  0  0  0  0
 10 24  1  0  0  0  0
 11 12  1  0  0  0  0
 11 25  1  0  0  0  0
 11 26  1  0  0  0  0
 12 13  1  0  0  0  0
 12 27  1  0  0  0  0
 12 28  1  0  0  0  0
 13 14  1  0  0  0  0
 13 29  1  0  0  0  0
 13 30  1  0  0  0  0
 14 15  1  0  0  0  0
 14 19  1  0  0  0  0
 14 31  1  0  0  0  0
 15 16  1  0  0  0  0
 15 17  1  0  0  0  0
 15 18  1  0  0  0  0
 19 32  1  0  0  0  0
 19 33  1  0  0  0  0
M  END
> <s_m_source_file>
AV-unprocessed.smi

> <i_m_source_file_index>
1085

> <i_lp_mmshare_version>
43012

> <i_f3d_flags>
0

> <s_epik_input>
bjFubltjSF1uMVtDSDJdQyg9TylbTkhdW0NAQEhdMltDSDJdW0NIMl1bQ0gyXVtDQEBIXShDKEYpKEYpRilbQ0gyXTI=

> <s_epik_cmdline>
J2VwaWtfcHl0aG9uJywgJy1waCcsICc3LjAnLCAnLXRuJywgJzgnLCAnLW1hJywgJzIwMCcsICctbWV0YWxfYmluZGluZycsICctaW1hZScsICc8aW5maWxlLm1hZT4nLCAnLW9tYWUnLCAnPG91dGZpbGUubWFlPic=

> <r_lp_tautomer_probability>
1

> <r_epik_Ionization_Penalty>
8.41315e-07

> <r_epik_Ionization_Penalty_Charging>
0

> <r_epik_Ionization_Penalty_Neutral>
8.41315e-07

> <r_epik_State_Penalty>
-0

> <r_epik_Charging_Adjusted_Penalty>
0

> <i_epik_Tot_Q>
0

> <i_epik_Tot_abs_Q>
0

> <r_epik_Metal_State_Penalty>
-0

> <b_epik_Metal_Only>
0

> <s_lp_Force_Field>
OPLS_2005

> <r_lp_Energy>
12.0143

> <b_lp_Chiralities_Consistent>
1

> <s_lp_Variant>
AV-unprocessed.smi:1085-2

> <Gold.Version>
5.8.1

> <Gold.Id.Protein>
6NUR|6NUR_protein|mol2

> <Gold.PLP.Fitness>
48.8148

> <Gold.PLP.PLP>
-42.9123

> <Gold.PLP.part.hbond>
-2.4259

> <Gold.PLP.part.metal>
0.0000

> <Gold.PLP.part.buried>
-6.2415

> <Gold.PLP.part.nonpolar>
-34.9890

> <Gold.PLP.part.repulsive>
1.0467

> <Gold.PLP.ligand.clash>
0.0000

> <Gold.PLP.ligand.torsion>
0.2419

> <Gold.PLP.Chemscore.Hbond>
1.1232

> <Gold.PLP.Chemscore.CHOScore>
0.9943

> <Gold.PLP.Chemscore.Metal>
0.0000

> <Gold.Chemscore.Hbonds>
donor molecule, donor type, donor heavy atom, donor atom, acceptor molecule, acceptor atom, score
      P1  H  7989  7998       L1     8  0.16
      P1  H 10752 10764       L1     6  0.96
      L1  C     5    22       P1  7948  0.99

> <Gold.PLP.Chemscore.Internal.Correction>
0.0337

> <Gold.Rescore>
     Score         DG    S(hbond)    S(metal)    S(lipo)     H(rot)  DE(clash)    DE(int)     intcor
      9.95     -11.57       0.87        0.00      71.98       2.05       0.43       1.19       ----

> <Gold.Chemscore.Fitness>
9.9525

> <Gold.Chemscore.DG>
-11.5715

> <Gold.Chemscore.ZeroCoef>
-5.4800

> <Gold.Chemscore.Hbond>
0.8702

> <Gold.Chemscore.Metal>
0.0000

> <Gold.Chemscore.Lipo>
71.9806

> <Gold.Chemscore.Internal_Hbond>
0.0000

> <Gold.Chemscore.DEClash>
0.4322

> <Gold.Chemscore.DEInternal>
1.1868

> <Gold.Chemscore.Rot>
2.0456

> <Gold.Chemscore.Internal.Correction>
   9.000000E+99

> <Gold.Chemscore.Hbonds>
donor molecule, donor type, donor heavy atom, donor atom, acceptor molecule, acceptor atom, score
      P1  H 10752 10764       L1     6  0.76

> <Gold.Chemscore.Hbond.Weighted>
-2.9066

> <Gold.Chemscore.Metal.Weighted>
-0.0000

> <Gold.Chemscore.Lipo.Weighted>
-8.4217

> <Gold.Chemscore.Internal_Hbond.Weighted>
0.0000

> <Gold.Chemscore.DEClash.Weighted>
0.4322

> <Gold.Chemscore.DEInternal.Weighted>
1.1868

> <Gold.Chemscore.Rot.Weighted>
5.2368

> <Gold.Chemscore.Internal.Correction.Weighted>
   9.000000E+99

> <Gold.Protein.RotatedTorsions>
[ 6907 6896 6895 6894 ] final  -59.84 input  -60.11 | X-H torsion
[ 7974 7965 7964 7962 ] final   76.38 input  175.53 | X-H torsion
[ 8008 7997 7996 7995 ] final   40.23 input   59.86 | X-H torsion
[ 10167 10162 10161 10158 ] final   59.27 input  -65.29 | X-H torsion
[ 10718 10713 10712 10709 ] final  131.25 input   66.30 | X-H torsion
[ 10763 10752 10751 10750 ] final  -86.46 input  -60.55 | X-H torsion
[ 11005 11000 10999 10996 ] final  154.25 input  -57.11 | X-H torsion

> <Gold.Protein.ActiveResidues>
 VAL166  LYS551  ARG553  GLY616  TRP617  ASP618  TYR619  PRO620  LYS621  CYS622 
 ASP623  PHE694  ASN695  SER759  ASP760  ASP761  ALA762  ILE779  LEU786  VAL792 
 PHE793  MET794  SER795  GLU796  ALA797  LYS798  CYS799  TRP800  GLU811  SER814 

> <Gold.Protein.RotatedAtoms>
  150.7900  134.6915  159.6499 H   0  0  0  0  0  0  0  0  0  0  0  0  # atno 6907 bound_to 6896
  152.4003  134.6293  160.0081 H   0  0  0  0  0  0  0  0  0  0  0  0  # atno 6908 bound_to 6896
  151.6566  133.3282  159.3200 H   0  0  0  0  0  0  0  0  0  0  0  0  # atno 6909 bound_to 6896
  145.7036  139.2591  143.1691 H   0  0  0  0  0  0  0  0  0  0  0  0  # atno 7974 bound_to 7965
  155.2498  140.3351  155.4283 H   0  0  0  0  0  0  0  0  0  0  0  0  # atno 8008 bound_to 7997
  156.2221  140.1813  156.7497 H   0  0  0  0  0  0  0  0  0  0  0  0  # atno 8009 bound_to 7997
  154.5841  140.0649  156.9131 H   0  0  0  0  0  0  0  0  0  0  0  0  # atno 8010 bound_to 7997
  140.1782  144.4208  150.6628 H   0  0  0  0  0  0  0  0  0  0  0  0  # atno 10167 bound_to 10162
  157.4985  131.1093  150.9460 H   0  0  0  0  0  0  0  0  0  0  0  0  # atno 10718 bound_to 10713
  154.6226  135.5448  153.7592 H   0  0  0  0  0  0  0  0  0  0  0  0  # atno 10763 bound_to 10752
  153.0246  135.6416  154.1418 H   0  0  0  0  0  0  0  0  0  0  0  0  # atno 10764 bound_to 10752
  154.1351  135.2912  155.3155 H   0  0  0  0  0  0  0  0  0  0  0  0  # atno 10765 bound_to 10752
  140.1472  134.8699  157.2407 H   0  0  0  0  0  0  0  0  0  0  0  0  # atno 11005 bound_to 11000
  146.0776  140.7800  142.9657 LP  0  0  0  0  0  0  0  0  0  0  0  0  # atno 17320 bound_to 7965
  144.6961  140.3438  143.7194 LP  0  0  0  0  0  0  0  0  0  0  0  0  # atno 17321 bound_to 7965
  140.6537  143.2232  151.6018 LP  0  0  0  0  0  0  0  0  0  0  0  0  # atno 17342 bound_to 10162
  139.5307  144.2923  152.1142 LP  0  0  0  0  0  0  0  0  0  0  0  0  # atno 17343 bound_to 10162
  157.0138  130.5647  149.5323 LP  0  0  0  0  0  0  0  0  0  0  0  0  # atno 17370 bound_to 10713
  156.0215  130.5309  150.8288 LP  0  0  0  0  0  0  0  0  0  0  0  0  # atno 17371 bound_to 10713
  140.2649  134.3527  155.7393 LP  0  0  0  0  0  0  0  0  0  0  0  0  # atno 17394 bound_to 11000
  141.2194  133.7390  156.9136 LP  0  0  0  0  0  0  0  0  0  0  0  0  # atno 17395 bound_to 11000

$$$$
