AV-unprocessed.smi:215|AV-procd|sdf|1657|dock3
  -GOLD-   2262020 53D 1   1.00000     0.00000
 Structure written by MMmdl.
 59 62  0  0  0  0  0  0  0  0  2 V2000
  151.8772  139.3641  156.9682 C   0  0  0  0  0  0  0  0  0  0  0  0
  151.1480  139.6791  158.2938 C   0  0  1  0  0  0  0  0  0  0  0  0
  150.8192  141.1749  158.4846 C   0  0  1  0  0  0  0  0  0  0  0  0
  151.9246  142.1190  158.1413 N   0  3  1  0  0  0  0  0  0  0  0  0
  151.4248  143.4238  157.6373 C   0  0  0  0  0  0  0  0  0  0  0  0
  152.8973  142.2901  159.2567 C   0  0  0  0  0  0  0  0  0  0  0  0
  153.7009  141.0121  159.5614 C   0  0  0  0  0  0  0  0  0  0  0  0
  154.8049  141.3119  160.3882 O   0  0  0  0  0  0  0  0  0  0  0  0
  149.5323  141.3305  157.6566 C   0  0  0  0  0  0  0  0  0  0  0  0
  148.8198  139.9822  157.8199 C   0  0  0  0  0  0  0  0  0  0  0  0
  149.8299  139.0595  158.3277 N   0  0  0  0  0  0  0  0  0  0  0  0
  149.6167  137.7167  158.3876 C   0  0  0  0  0  0  0  0  0  0  0  0
  150.0993  136.9467  157.3765 N   0  0  0  0  0  0  0  0  0  0  0  0
  149.9294  135.6221  157.3857 C   0  0  0  0  0  0  0  0  0  0  0  0
  149.3063  134.8693  158.2921 N   0  0  0  0  0  0  0  0  0  0  0  0
  148.8015  135.6308  159.3038 C   0  0  0  0  0  0  0  0  0  0  0  0
  148.9112  137.0465  159.4330 C   0  0  0  0  0  0  0  0  0  0  0  0
  148.2756  137.4530  160.6019 N   0  0  0  0  0  0  0  0  0  0  0  0
  147.8321  136.3485  161.1349 C   0  0  0  0  0  0  0  0  0  0  0  0
  148.0793  135.2085  160.4063 N   0  0  0  0  0  0  0  0  0  0  0  0
  147.7402  133.8651  160.7745 C   0  0  0  0  0  0  0  0  0  0  0  0
  148.1932  133.2715  162.1106 C   0  0  0  0  0  0  0  0  0  0  0  0
  148.2865  131.8771  161.4507 C   0  0  0  0  0  0  0  0  0  0  0  0
  149.5044  131.0466  161.8921 C   0  0  0  0  0  0  0  0  0  0  0  0
  149.6926  129.9088  161.0762 O   0  0  0  0  0  0  0  0  0  0  0  0
  147.0072  131.0271  161.6041 C   0  0  0  0  0  0  0  0  0  0  0  0
  147.0233  129.8802  160.7790 O   0  0  0  0  0  0  0  0  0  0  0  0
  148.4369  132.6654  160.1292 C   0  0  0  0  0  0  0  0  0  0  0  0
  151.7424  139.3361  159.1386 H   0  0  0  0  0  0  0  0  0  0  0  0
  150.5561  141.3369  159.5322 H   0  0  0  0  0  0  0  0  0  0  0  0
  152.8690  139.8121  156.9430 H   0  0  0  0  0  0  0  0  0  0  0  0
  151.3258  139.7282  156.1012 H   0  0  0  0  0  0  0  0  0  0  0  0
  152.0146  138.2912  156.8357 H   0  0  0  0  0  0  0  0  0  0  0  0
  150.7886  143.9088  158.3787 H   0  0  0  0  0  0  0  0  0  0  0  0
  150.8480  143.3030  156.7207 H   0  0  0  0  0  0  0  0  0  0  0  0
  152.2385  144.1055  157.3960 H   0  0  0  0  0  0  0  0  0  0  0  0
  153.5755  143.1106  159.0174 H   0  0  0  0  0  0  0  0  0  0  0  0
  152.3872  142.5852  160.1731 H   0  0  0  0  0  0  0  0  0  0  0  0
  153.0946  140.2359  160.0258 H   0  0  0  0  0  0  0  0  0  0  0  0
  154.0826  140.5916  158.6306 H   0  0  0  0  0  0  0  0  0  0  0  0
  155.4199  141.8335  159.8942 H   0  0  0  0  0  0  0  0  0  0  0  0
  148.9110  142.1636  157.9871 H   0  0  0  0  0  0  0  0  0  0  0  0
  149.7710  141.4884  156.6038 H   0  0  0  0  0  0  0  0  0  0  0  0
  148.0102  140.0588  158.5466 H   0  0  0  0  0  0  0  0  0  0  0  0
  148.3993  139.6444  156.8719 H   0  0  0  0  0  0  0  0  0  0  0  0
  150.3530  135.0897  156.5467 H   0  0  0  0  0  0  0  0  0  0  0  0
  147.3029  136.3376  162.0769 H   0  0  0  0  0  0  0  0  0  0  0  0
  146.6574  133.7877  160.6634 H   0  0  0  0  0  0  0  0  0  0  0  0
  149.1604  133.6647  162.4298 H   0  0  0  0  0  0  0  0  0  0  0  0
  147.4588  133.3538  162.9125 H   0  0  0  0  0  0  0  0  0  0  0  0
  150.4179  131.6393  161.8354 H   0  0  0  0  0  0  0  0  0  0  0  0
  149.4114  130.7271  162.9305 H   0  0  0  0  0  0  0  0  0  0  0  0
  150.5719  129.5881  161.2042 H   0  0  0  0  0  0  0  0  0  0  0  0
  146.8676  130.7106  162.6380 H   0  0  0  0  0  0  0  0  0  0  0  0
  146.1187  131.6030  161.3442 H   0  0  0  0  0  0  0  0  0  0  0  0
  146.1907  129.8154  160.3372 H   0  0  0  0  0  0  0  0  0  0  0  0
  147.9076  132.2434  159.2744 H   0  0  0  0  0  0  0  0  0  0  0  0
  149.4794  132.8709  159.8779 H   0  0  0  0  0  0  0  0  0  0  0  0
  152.4347  141.6884  157.3826 H   0  0  0  0  0  0  0  0  0  0  0  0
  1  2  1  0  0  0  0
  1 31  1  0  0  0  0
  1 32  1  0  0  0  0
  1 33  1  0  0  0  0
  2 29  1  0  0  0  0
  2 11  1  0  0  0  0
  2  3  1  0  0  0  0
  3 30  1  0  0  0  0
  3  4  1  0  0  0  0
  3  9  1  0  0  0  0
  4  5  1  0  0  0  0
  4  6  1  0  0  0  0
  4 59  1  0  0  0  0
  5 34  1  0  0  0  0
  5 35  1  0  0  0  0
  5 36  1  0  0  0  0
  6  7  1  0  0  0  0
  6 37  1  0  0  0  0
  6 38  1  0  0  0  0
  7  8  1  0  0  0  0
  7 39  1  0  0  0  0
  7 40  1  0  0  0  0
  8 41  1  0  0  0  0
  9 10  1  0  0  0  0
  9 42  1  0  0  0  0
  9 43  1  0  0  0  0
 10 11  1  0  0  0  0
 10 44  1  0  0  0  0
 10 45  1  0  0  0  0
 11 12  1  0  0  0  0
 12 17  1  0  0  0  0
 12 13  2  0  0  0  0
 13 14  1  0  0  0  0
 14 15  2  0  0  0  0
 14 46  1  0  0  0  0
 15 16  1  0  0  0  0
 16 20  1  0  0  0  0
 16 17  2  0  0  0  0
 17 18  1  0  0  0  0
 18 19  2  0  0  0  0
 19 20  1  0  0  0  0
 19 47  1  0  0  0  0
 20 21  1  0  0  0  0
 21 28  1  0  0  0  0
 21 22  1  0  0  0  0
 21 48  1  0  0  0  0
 22 23  1  0  0  0  0
 22 49  1  0  0  0  0
 22 50  1  0  0  0  0
 23 24  1  0  0  0  0
 23 26  1  0  0  0  0
 23 28  1  0  0  0  0
 24 25  1  0  0  0  0
 24 51  1  0  0  0  0
 24 52  1  0  0  0  0
 25 53  1  0  0  0  0
 26 27  1  0  0  0  0
 26 54  1  0  0  0  0
 26 55  1  0  0  0  0
 27 56  1  0  0  0  0
 28 57  1  0  0  0  0
 28 58  1  0  0  0  0
M  CHG  1   4   1
M  END
> <s_m_source_file>
AV-unprocessed.smi

> <i_m_source_file_index>
215

> <i_lp_mmshare_version>
43012

> <i_f3d_flags>
0

> <s_epik_input>
W09IXVtDSDJdW0NIMl1OKFtDSDNdKVtDQEBIXShbQ0BIXTFbQ0gzXSlbQ0gyXVtDSDJdTjFjKG5bY0hdbjIpYyhjMjMpbltjSF1uM1tDSF0oW0NIMl00KVtDSDJdQzQoW0NIMl1bT0hdKVtDSDJdW09IXQ==

> <s_epik_cmdline>
J2VwaWtfcHl0aG9uJywgJy1waCcsICc3LjAnLCAnLXRuJywgJzgnLCAnLW1hJywgJzIwMCcsICctbWV0YWxfYmluZGluZycsICctaW1hZScsICc8aW5maWxlLm1hZT4nLCAnLW9tYWUnLCAnPG91dGZpbGUubWFlPic=

> <r_lp_tautomer_probability>
1

> <r_epik_Ionization_Penalty>
0.0036237

> <r_epik_Ionization_Penalty_Charging>
0.0032725

> <r_epik_Ionization_Penalty_Neutral>
0.000351196

> <r_epik_State_Penalty>
-0

> <r_epik_Charging_Adjusted_Penalty>
0.0032725

> <i_epik_Tot_Q>
1

> <i_epik_Tot_abs_Q>
1

> <r_epik_Metal_State_Penalty>
-0

> <b_epik_Metal_Only>
0

> <s_lp_Force_Field>
OPLS_2005

> <r_lp_Energy>
65.1718

> <b_lp_Chiralities_Consistent>
1

> <s_lp_Variant>
AV-unprocessed.smi:215-8

> <Gold.Version>
5.8.1

> <Gold.Id.Protein>
6NUR|6NUR_protein|mol2

> <Gold.PLP.Fitness>
42.6631

> <Gold.PLP.PLP>
-39.7867

> <Gold.PLP.part.hbond>
-3.6778

> <Gold.PLP.part.metal>
0.0000

> <Gold.PLP.part.buried>
-5.4296

> <Gold.PLP.part.nonpolar>
-31.6180

> <Gold.PLP.part.repulsive>
0.0721

> <Gold.PLP.ligand.clash>
0.0000

> <Gold.PLP.ligand.torsion>
2.4075

> <Gold.PLP.Chemscore.Hbond>
2.2960

> <Gold.PLP.Chemscore.CHOScore>
0.0000

> <Gold.PLP.Chemscore.Metal>
0.0000

> <Gold.Chemscore.Hbonds>
donor molecule, donor type, donor heavy atom, donor atom, acceptor molecule, acceptor atom, score
      P1  H  6896  6907       L1    15  0.75
      P1  H  6931  6943       L1    18  0.66
      P1  H  6934  6947       L1    18  0.56

> <Gold.PLP.Chemscore.Internal.Correction>
0.8035

> <Gold.Rescore>
     Score         DG    S(hbond)    S(metal)    S(lipo)     H(rot)  DE(clash)    DE(int)     intcor
      4.28      -8.70       1.38        0.00      86.10       4.48       0.02       4.39       ----

> <Gold.Chemscore.Fitness>
4.2822

> <Gold.Chemscore.DG>
-8.6981

> <Gold.Chemscore.ZeroCoef>
-5.4800

> <Gold.Chemscore.Hbond>
1.3800

> <Gold.Chemscore.Metal>
0.0000

> <Gold.Chemscore.Lipo>
86.1048

> <Gold.Chemscore.Internal_Hbond>
0.0000

> <Gold.Chemscore.DEClash>
0.0246

> <Gold.Chemscore.DEInternal>
4.3913

> <Gold.Chemscore.Rot>
4.4787

> <Gold.Chemscore.Internal.Correction>
   9.000000E+99

> <Gold.Chemscore.Hbonds>
donor molecule, donor type, donor heavy atom, donor atom, acceptor molecule, acceptor atom, score
      P1  H  6896  6907       L1    15  0.05
      P1  H  6931  6943       L1    18  0.33
      P1  H  6934  6947       L1    18  0.52

> <Gold.Chemscore.Hbond.Weighted>
-4.6093

> <Gold.Chemscore.Metal.Weighted>
-0.0000

> <Gold.Chemscore.Lipo.Weighted>
-10.0743

> <Gold.Chemscore.Internal_Hbond.Weighted>
0.0000

> <Gold.Chemscore.DEClash.Weighted>
0.0246

> <Gold.Chemscore.DEInternal.Weighted>
4.3913

> <Gold.Chemscore.Rot.Weighted>
11.4655

> <Gold.Chemscore.Internal.Correction.Weighted>
   9.000000E+99

> <Gold.Protein.RotatedTorsions>
[ 6907 6896 6895 6894 ] final -103.07 input  -60.11 | X-H torsion
[ 7974 7965 7964 7962 ] final   14.61 input  175.53 | X-H torsion
[ 8008 7997 7996 7995 ] final  -22.06 input   59.86 | X-H torsion
[ 10167 10162 10161 10158 ] final   47.28 input  -65.29 | X-H torsion
[ 10718 10713 10712 10709 ] final -155.94 input   66.30 | X-H torsion
[ 10763 10752 10751 10750 ] final   20.18 input  -60.55 | X-H torsion
[ 11005 11000 10999 10996 ] final -118.17 input  -57.11 | X-H torsion

> <Gold.Protein.ActiveResidues>
 VAL166  LYS551  ARG553  GLY616  TRP617  ASP618  TYR619  PRO620  LYS621  CYS622 
 ASP623  PHE694  ASN695  SER759  ASP760  ASP761  ALA762  ILE779  LEU786  VAL792 
 PHE793  MET794  SER795  GLU796  ALA797  LYS798  CYS799  TRP800  GLU811  SER814 

> <Gold.Protein.RotatedAtoms>
  150.7224  134.0484  159.3789 H   0  0  0  0  0  0  0  0  0  0  0  0  # atno 6907 bound_to 6896
  151.8460  135.0572  160.0463 H   0  0  0  0  0  0  0  0  0  0  0  0  # atno 6908 bound_to 6896
  152.2826  133.5449  159.5544 H   0  0  0  0  0  0  0  0  0  0  0  0  # atno 6909 bound_to 6896
  146.2300  139.9016  142.8538 H   0  0  0  0  0  0  0  0  0  0  0  0  # atno 7974 bound_to 7965
  154.4667  140.2018  156.0100 H   0  0  0  0  0  0  0  0  0  0  0  0  # atno 8008 bound_to 7997
  156.0939  140.3254  155.7823 H   0  0  0  0  0  0  0  0  0  0  0  0  # atno 8009 bound_to 7997
  155.4910  140.0546  157.2944 H   0  0  0  0  0  0  0  0  0  0  0  0  # atno 8010 bound_to 7997
  140.3053  144.2886  150.6210 H   0  0  0  0  0  0  0  0  0  0  0  0  # atno 10167 bound_to 10162
  156.5197  130.8472  151.2677 H   0  0  0  0  0  0  0  0  0  0  0  0  # atno 10718 bound_to 10713
  153.1099  135.6694  153.9519 H   0  0  0  0  0  0  0  0  0  0  0  0  # atno 10763 bound_to 10752
  153.9066  135.3030  155.3450 H   0  0  0  0  0  0  0  0  0  0  0  0  # atno 10764 bound_to 10752
  154.7519  135.5030  153.9381 H   0  0  0  0  0  0  0  0  0  0  0  0  # atno 10765 bound_to 10752
  141.0304  133.9989  157.3151 H   0  0  0  0  0  0  0  0  0  0  0  0  # atno 11005 bound_to 11000
  145.2317  140.9975  143.3986 LP  0  0  0  0  0  0  0  0  0  0  0  0  # atno 17320 bound_to 7965
  144.9525  139.4068  143.6395 LP  0  0  0  0  0  0  0  0  0  0  0  0  # atno 17321 bound_to 7965
  140.5616  143.2191  151.7755 LP  0  0  0  0  0  0  0  0  0  0  0  0  # atno 17342 bound_to 10162
  139.4906  144.4341  151.9839 LP  0  0  0  0  0  0  0  0  0  0  0  0  # atno 17343 bound_to 10162
  157.7438  130.9921  150.2625 LP  0  0  0  0  0  0  0  0  0  0  0  0  # atno 17370 bound_to 10713
  156.3161  130.3779  149.7617 LP  0  0  0  0  0  0  0  0  0  0  0  0  # atno 17371 bound_to 10713
  139.9204  135.0200  156.8043 LP  0  0  0  0  0  0  0  0  0  0  0  0  # atno 17394 bound_to 11000
  140.6416  133.9813  155.7710 LP  0  0  0  0  0  0  0  0  0  0  0  0  # atno 17395 bound_to 11000

$$$$
