AV-unprocessed.smi:712|AV-procd|sdf|3469|dock8
  -GOLD-   22720 0463D 1   1.00000     0.00000
 Structure written by MMmdl.
 51 52  0  0  0  0  0  0  0  0  2 V2000
  151.8812  145.1695  159.5575 C   0  0  0  0  0  0  0  0  0  0  0  0
  151.9268  143.7595  159.0063 C   0  0  0  0  0  0  0  0  0  0  0  0
  151.0521  143.3603  157.9232 C   0  0  0  0  0  0  0  0  0  0  0  0
  151.1147  142.1015  157.4616 C   0  0  0  0  0  0  0  0  0  0  0  0
  152.0062  141.1563  158.0003 N   0  0  0  0  0  0  0  0  0  0  0  0
  151.9784  139.7982  157.4327 C   0  0  0  0  0  0  0  0  0  0  0  0
  150.9451  138.9141  158.1395 C   0  0  0  0  0  0  0  0  0  0  0  0
  151.0502  138.6789  159.3432 O   0  0  0  0  0  0  0  0  0  0  0  0
  149.9664  138.4140  157.3709 N   0  0  0  0  0  0  0  0  0  0  0  0
  148.9724  137.4347  157.7967 C   0  0  0  0  0  0  0  0  0  0  0  0
  149.1420  136.0979  157.0478 C   0  0  1  0  0  0  0  0  0  0  0  0
  148.4231  136.0612  155.6760 C   0  0  0  0  0  0  0  0  0  0  0  0
  148.6971  134.8019  154.9387 N   0  3  2  0  0  0  0  0  0  0  0  0
  147.9017  133.6313  155.3984 C   0  0  0  0  0  0  0  0  0  0  0  0
  147.8300  132.5077  154.3411 C   0  0  0  0  0  0  0  0  0  0  0  0
  149.1779  131.7804  154.2298 C   0  0  0  0  0  0  0  0  0  0  0  0
  147.3911  133.0402  152.9673 C   0  0  0  0  0  0  0  0  0  0  0  0
  150.1562  134.5478  154.8634 C   0  0  0  0  0  0  0  0  0  0  0  0
  150.8069  134.6173  156.2557 C   0  0  0  0  0  0  0  0  0  0  0  0
  150.5341  135.8852  156.8401 O   0  0  0  0  0  0  0  0  0  0  0  0
  152.8573  141.4688  159.0249 C   0  0  0  0  0  0  0  0  0  0  0  0
  153.6335  140.6432  159.5083 O   0  0  0  0  0  0  0  0  0  0  0  0
  152.7807  142.8473  159.5208 C   0  0  0  0  0  0  0  0  0  0  0  0
  151.3356  145.8346  158.8875 H   0  0  0  0  0  0  0  0  0  0  0  0
  152.8894  145.5666  159.6814 H   0  0  0  0  0  0  0  0  0  0  0  0
  151.3854  145.1791  160.5285 H   0  0  0  0  0  0  0  0  0  0  0  0
  150.3535  144.0623  157.4919 H   0  0  0  0  0  0  0  0  0  0  0  0
  150.4852  141.7396  156.6617 H   0  0  0  0  0  0  0  0  0  0  0  0
  151.7375  139.8218  156.3691 H   0  0  0  0  0  0  0  0  0  0  0  0
  152.9716  139.3488  157.4939 H   0  0  0  0  0  0  0  0  0  0  0  0
  149.9528  138.6781  156.3962 H   0  0  0  0  0  0  0  0  0  0  0  0
  148.9989  137.2833  158.8772 H   0  0  0  0  0  0  0  0  0  0  0  0
  147.9916  137.8539  157.5710 H   0  0  0  0  0  0  0  0  0  0  0  0
  148.7651  135.3027  157.6929 H   0  0  0  0  0  0  0  0  0  0  0  0
  147.3499  136.1973  155.7918 H   0  0  0  0  0  0  0  0  0  0  0  0
  148.7709  136.8945  155.0640 H   0  0  0  0  0  0  0  0  0  0  0  0
  148.3481  133.2171  156.3037 H   0  0  0  0  0  0  0  0  0  0  0  0
  146.8990  133.9514  155.6815 H   0  0  0  0  0  0  0  0  0  0  0  0
  147.0985  131.7644  154.6546 H   0  0  0  0  0  0  0  0  0  0  0  0
  149.9711  132.4593  153.9150 H   0  0  0  0  0  0  0  0  0  0  0  0
  149.1279  130.9676  153.5047 H   0  0  0  0  0  0  0  0  0  0  0  0
  149.4705  131.3460  155.1862 H   0  0  0  0  0  0  0  0  0  0  0  0
  148.0884  133.7888  152.5896 H   0  0  0  0  0  0  0  0  0  0  0  0
  146.4028  133.4980  153.0135 H   0  0  0  0  0  0  0  0  0  0  0  0
  147.3400  132.2349  152.2337 H   0  0  0  0  0  0  0  0  0  0  0  0
  150.3587  133.5890  154.3849 H   0  0  0  0  0  0  0  0  0  0  0  0
  150.6021  135.3086  154.2213 H   0  0  0  0  0  0  0  0  0  0  0  0
  150.4483  133.8146  156.9018 H   0  0  0  0  0  0  0  0  0  0  0  0
  151.8866  134.4953  156.1701 H   0  0  0  0  0  0  0  0  0  0  0  0
  153.4338  143.1380  160.3309 H   0  0  0  0  0  0  0  0  0  0  0  0
  148.3995  134.9562  153.9857 H   0  0  0  0  0  0  0  0  0  0  0  0
  1  2  1  0  0  0  0
  1 24  1  0  0  0  0
  1 25  1  0  0  0  0
  1 26  1  0  0  0  0
  2 23  2  0  0  0  0
  2  3  1  0  0  0  0
  3  4  2  0  0  0  0
  3 27  1  0  0  0  0
  4  5  1  0  0  0  0
  4 28  1  0  0  0  0
  5  6  1  0  0  0  0
  5 21  1  0  0  0  0
  6  7  1  0  0  0  0
  6 29  1  0  0  0  0
  6 30  1  0  0  0  0
  7  8  2  0  0  0  0
  7  9  1  0  0  0  0
  9 10  1  0  0  0  0
  9 31  1  0  0  0  0
 10 11  1  0  0  0  0
 10 32  1  0  0  0  0
 10 33  1  0  0  0  0
 11 20  1  0  0  0  0
 11 12  1  0  0  0  0
 11 34  1  0  0  0  0
 12 13  1  0  0  0  0
 12 35  1  0  0  0  0
 12 36  1  0  0  0  0
 13 14  1  0  0  0  0
 13 18  1  0  0  0  0
 13 51  1  0  0  0  0
 14 15  1  0  0  0  0
 14 37  1  0  0  0  0
 14 38  1  0  0  0  0
 15 16  1  0  0  0  0
 15 17  1  0  0  0  0
 15 39  1  0  0  0  0
 16 40  1  0  0  0  0
 16 41  1  0  0  0  0
 16 42  1  0  0  0  0
 17 43  1  0  0  0  0
 17 44  1  0  0  0  0
 17 45  1  0  0  0  0
 18 19  1  0  0  0  0
 18 46  1  0  0  0  0
 18 47  1  0  0  0  0
 19 20  1  0  0  0  0
 19 48  1  0  0  0  0
 19 49  1  0  0  0  0
 21 22  2  0  0  0  0
 21 23  1  0  0  0  0
 23 50  1  0  0  0  0
M  CHG  1  13   1
M  END
> <s_m_source_file>
AV-unprocessed.smi

> <i_m_source_file_index>
712

> <i_lp_mmshare_version>
43012

> <i_f3d_flags>
0

> <s_epik_input>
W0NIM11jMVtjSF1bY0hdbihjKD1PKVtjSF0xKVtDSDJdQyg9TylbTkhdW0NIMl1bQ0BASF0yW0NIMl1OKFtDSDJdW0NIMl1PMilbQ0gyXVtDSF0oW0NIM10pW0NIM10=

> <s_epik_cmdline>
J2VwaWtfcHl0aG9uJywgJy1waCcsICc3LjAnLCAnLXRuJywgJzgnLCAnLW1hJywgJzIwMCcsICctbWV0YWxfYmluZGluZycsICctaW1hZScsICc8aW5maWxlLm1hZT4nLCAnLW9tYWUnLCAnPG91dGZpbGUubWFlPic=

> <r_lp_tautomer_probability>
1

> <r_epik_Ionization_Penalty>
0.0975935

> <r_epik_Ionization_Penalty_Charging>
0.0975934

> <r_epik_Ionization_Penalty_Neutral>
6.27044e-08

> <r_epik_State_Penalty>
0.0877056

> <r_epik_Charging_Adjusted_Penalty>
0.185299

> <i_epik_Tot_Q>
1

> <i_epik_Tot_abs_Q>
1

> <r_epik_Metal_State_Penalty>
0.0877109

> <b_epik_Metal_Only>
0

> <s_lp_Force_Field>
OPLS_2005

> <r_lp_Energy>
28.3742

> <b_lp_Chiralities_Consistent>
1

> <s_lp_Variant>
AV-unprocessed.smi:712-2

> <Gold.Version>
5.8.1

> <Gold.Id.Protein>
6NUR|6NUR_protein|mol2

> <Gold.PLP.Fitness>
43.1143

> <Gold.PLP.PLP>
-38.6941

> <Gold.PLP.part.hbond>
-1.9236

> <Gold.PLP.part.metal>
0.0000

> <Gold.PLP.part.buried>
-5.0104

> <Gold.PLP.part.nonpolar>
-32.1315

> <Gold.PLP.part.repulsive>
0.0060

> <Gold.PLP.ligand.clash>
0.0000

> <Gold.PLP.ligand.torsion>
0.8504

> <Gold.PLP.Chemscore.Hbond>
2.0000

> <Gold.PLP.Chemscore.CHOScore>
0.0000

> <Gold.PLP.Chemscore.Metal>
0.0000

> <Gold.PLP.Chemscore.Internal.Correction>
0.1210

> <Gold.Rescore>
     Score         DG    S(hbond)    S(metal)    S(lipo)     H(rot)  DE(clash)    DE(int)     intcor
     13.79     -14.66       0.88        0.00      94.64       1.89       0.01       0.86       ----

> <Gold.Chemscore.Fitness>
13.7902

> <Gold.Chemscore.DG>
-14.6575

> <Gold.Chemscore.ZeroCoef>
-5.4800

> <Gold.Chemscore.Hbond>
0.8789

> <Gold.Chemscore.Metal>
0.0000

> <Gold.Chemscore.Lipo>
94.6410

> <Gold.Chemscore.Internal_Hbond>
0.0000

> <Gold.Chemscore.DEClash>
0.0089

> <Gold.Chemscore.DEInternal>
0.8585

> <Gold.Chemscore.Rot>
1.8871

> <Gold.Chemscore.Internal.Correction>
   9.000000E+99

> <Gold.Chemscore.Hbonds>
donor molecule, donor type, donor heavy atom, donor atom, acceptor molecule, acceptor atom, score
      L1  H    13    51       P1  7948  0.01

> <Gold.Chemscore.Hbond.Weighted>
-2.9354

> <Gold.Chemscore.Metal.Weighted>
-0.0000

> <Gold.Chemscore.Lipo.Weighted>
-11.0730

> <Gold.Chemscore.Internal_Hbond.Weighted>
0.0000

> <Gold.Chemscore.DEClash.Weighted>
0.0089

> <Gold.Chemscore.DEInternal.Weighted>
0.8585

> <Gold.Chemscore.Rot.Weighted>
4.8309

> <Gold.Chemscore.Internal.Correction.Weighted>
   9.000000E+99

> <Gold.Protein.RotatedTorsions>
[ 6907 6896 6895 6894 ] final  -37.73 input  -60.11 | X-H torsion
[ 7974 7965 7964 7962 ] final -154.39 input  175.53 | X-H torsion
[ 8008 7997 7996 7995 ] final -119.98 input   59.86 | X-H torsion
[ 10167 10162 10161 10158 ] final  -94.51 input  -65.29 | X-H torsion
[ 10718 10713 10712 10709 ] final  -31.91 input   66.30 | X-H torsion
[ 10763 10752 10751 10750 ] final   78.48 input  -60.55 | X-H torsion
[ 11005 11000 10999 10996 ] final   85.52 input  -57.11 | X-H torsion

> <Gold.Protein.ActiveResidues>
 VAL166  LYS551  ARG553  GLY616  TRP617  ASP618  TYR619  PRO620  LYS621  CYS622 
 ASP623  PHE694  ASN695  SER759  ASP760  ASP761  ALA762  ILE779  LEU786  VAL792 
 PHE793  MET794  SER795  GLU796  ALA797  LYS798  CYS799  TRP800  GLU811  SER814 

> <Gold.Protein.RotatedAtoms>
  151.0111  134.9397  159.8007 H   0  0  0  0  0  0  0  0  0  0  0  0  # atno 6907 bound_to 6896
  152.5303  134.3026  159.9094 H   0  0  0  0  0  0  0  0  0  0  0  0  # atno 6908 bound_to 6896
  151.3033  133.4071  159.2675 H   0  0  0  0  0  0  0  0  0  0  0  0  # atno 6909 bound_to 6896
  144.7692  140.4394  143.5920 H   0  0  0  0  0  0  0  0  0  0  0  0  # atno 7974 bound_to 7965
  155.1244  140.0399  157.2758 H   0  0  0  0  0  0  0  0  0  0  0  0  # atno 8008 bound_to 7997
  154.6589  140.2586  155.7104 H   0  0  0  0  0  0  0  0  0  0  0  0  # atno 8009 bound_to 7997
  156.2610  140.2821  156.1053 H   0  0  0  0  0  0  0  0  0  0  0  0  # atno 8010 bound_to 7997
  140.3137  143.3090  152.0121 H   0  0  0  0  0  0  0  0  0  0  0  0  # atno 10167 bound_to 10162
  156.3814  130.4357  149.7466 H   0  0  0  0  0  0  0  0  0  0  0  0  # atno 10718 bound_to 10713
  153.0878  135.4875  154.8631 H   0  0  0  0  0  0  0  0  0  0  0  0  # atno 10763 bound_to 10752
  154.7232  135.3044  154.9016 H   0  0  0  0  0  0  0  0  0  0  0  0  # atno 10764 bound_to 10752
  153.9674  135.6805  153.4799 H   0  0  0  0  0  0  0  0  0  0  0  0  # atno 10765 bound_to 10752
  139.8969  134.8292  156.2593 H   0  0  0  0  0  0  0  0  0  0  0  0  # atno 11005 bound_to 11000
  145.6377  139.1545  143.2933 LP  0  0  0  0  0  0  0  0  0  0  0  0  # atno 17320 bound_to 7965
  146.1824  140.6475  142.9183 LP  0  0  0  0  0  0  0  0  0  0  0  0  # atno 17321 bound_to 7965
  139.4888  144.6365  151.6965 LP  0  0  0  0  0  0  0  0  0  0  0  0  # atno 17342 bound_to 10162
  140.5545  144.0370  150.6141 LP  0  0  0  0  0  0  0  0  0  0  0  0  # atno 17343 bound_to 10162
  156.4555  130.7927  151.2948 LP  0  0  0  0  0  0  0  0  0  0  0  0  # atno 17370 bound_to 10713
  157.7492  131.0082  150.3220 LP  0  0  0  0  0  0  0  0  0  0  0  0  # atno 17371 bound_to 10713
  141.0173  133.7061  156.1209 LP  0  0  0  0  0  0  0  0  0  0  0  0  # atno 17394 bound_to 11000
  140.7284  134.4282  157.5568 LP  0  0  0  0  0  0  0  0  0  0  0  0  # atno 17395 bound_to 11000

$$$$
