AV-unprocessed.smi:2845|AV-procd|sdf|10949|dock8
  -GOLD-   2272015403D 1   1.00000     0.00000
 Structure written by MMmdl.
 43 45  0  0  0  0  0  0  0  0  2 V2000
  152.0684  144.9607  160.3056 C   0  0  0  0  0  0  0  0  0  0  0  0
  151.9424  143.7354  159.4163 C   0  0  0  0  0  0  0  0  0  0  0  0
  151.2130  143.8487  158.2112 C   0  0  0  0  0  0  0  0  0  0  0  0
  151.1140  142.7101  157.4202 C   0  0  0  0  0  0  0  0  0  0  0  0
  150.4716  142.4990  156.1984 N   0  3  0  0  0  0  0  0  0  0  0  0
  150.6517  141.2070  155.8074 C   0  0  0  0  0  0  0  0  0  0  0  0
  151.4013  140.5900  156.7605 N   0  0  0  0  0  0  0  0  0  0  0  0
  151.8805  139.2015  156.8244 C   0  0  0  0  0  0  0  0  0  0  0  0
  152.3207  138.6526  155.4532 C   0  0  2  0  0  0  0  0  0  0  0  0
  153.1303  139.6042  154.7882 O   0  0  0  0  0  0  0  0  0  0  0  0
  151.1124  138.2865  154.5700 C   0  0  0  0  0  0  0  0  0  0  0  0
  150.5261  137.0078  154.9296 N   0  0  0  0  0  0  0  0  0  0  0  0
  149.2542  136.6721  155.1652 C   0  0  0  0  0  0  0  0  0  0  0  0
  149.0835  135.3957  155.4842 N   0  0  0  0  0  0  0  0  0  0  0  0
  150.3823  134.9838  155.4151 C   0  0  0  0  0  0  0  0  0  0  0  0
  150.8522  133.2618  155.7713 S   0  0  2  0  0  0  0  0  0  0  0  0
  149.3408  132.5027  155.0106 C   0  0  0  0  0  0  0  0  0  0  0  0
  150.7221  133.0945  157.2866 O   0  0  0  0  0  0  0  0  0  0  0  0
  151.2904  135.9016  155.0894 N   0  0  0  0  0  0  0  0  0  0  0  0
  151.7121  141.4892  157.7880 C   0  0  0  0  0  0  0  0  0  0  0  0
  152.4336  141.3609  158.9728 C   0  0  0  0  0  0  0  0  0  0  0  0
  152.5435  142.5065  159.7928 C   0  0  0  0  0  0  0  0  0  0  0  0
  153.3208  142.3939  161.0933 C   0  0  0  0  0  0  0  0  0  0  0  0
  151.5725  145.8263  159.8653 H   0  0  0  0  0  0  0  0  0  0  0  0
  153.1167  145.2191  160.4560 H   0  0  0  0  0  0  0  0  0  0  0  0
  151.6135  144.7751  161.2790 H   0  0  0  0  0  0  0  0  0  0  0  0
  150.7510  144.7804  157.9190 H   0  0  0  0  0  0  0  0  0  0  0  0
  150.2697  140.7544  154.9038 H   0  0  0  0  0  0  0  0  0  0  0  0
  152.7240  139.1871  157.5157 H   0  0  0  0  0  0  0  0  0  0  0  0
  151.1095  138.5752  157.2738 H   0  0  0  0  0  0  0  0  0  0  0  0
  152.9263  137.7590  155.6100 H   0  0  0  0  0  0  0  0  0  0  0  0
  152.5689  140.2670  154.4147 H   0  0  0  0  0  0  0  0  0  0  0  0
  150.3378  139.0489  154.6614 H   0  0  0  0  0  0  0  0  0  0  0  0
  151.4001  138.2598  153.5177 H   0  0  0  0  0  0  0  0  0  0  0  0
  148.4378  137.3770  155.1061 H   0  0  0  0  0  0  0  0  0  0  0  0
  148.9891  133.0954  154.1659 H   0  0  0  0  0  0  0  0  0  0  0  0
  148.5400  132.4385  155.7471 H   0  0  0  0  0  0  0  0  0  0  0  0
  149.5660  131.4976  154.6549 H   0  0  0  0  0  0  0  0  0  0  0  0
  152.8861  140.4244  159.2633 H   0  0  0  0  0  0  0  0  0  0  0  0
  153.7005  141.3829  161.2456 H   0  0  0  0  0  0  0  0  0  0  0  0
  152.6840  142.6410  161.9429 H   0  0  0  0  0  0  0  0  0  0  0  0
  154.1736  143.0730  161.0894 H   0  0  0  0  0  0  0  0  0  0  0  0
  149.9476  143.1840  155.6690 H   0  0  0  0  0  0  0  0  0  0  0  0
  1  2  1  0  0  0  0
  1 24  1  0  0  0  0
  1 25  1  0  0  0  0
  1 26  1  0  0  0  0
  2 22  1  0  0  0  0
  2  3  2  0  0  0  0
  3  4  1  0  0  0  0
  3 27  1  0  0  0  0
  4 20  2  0  0  0  0
  4  5  1  0  0  0  0
  5  6  2  0  0  0  0
  5 43  1  0  0  0  0
  6  7  1  0  0  0  0
  6 28  1  0  0  0  0
  7  8  1  0  0  0  0
  7 20  1  0  0  0  0
  8  9  1  0  0  0  0
  8 29  1  0  0  0  0
  8 30  1  0  0  0  0
  9 10  1  0  0  0  0
  9 11  1  0  0  0  0
  9 31  1  0  0  0  0
 10 32  1  0  0  0  0
 11 12  1  0  0  0  0
 11 33  1  0  0  0  0
 11 34  1  0  0  0  0
 12 19  1  0  0  0  0
 12 13  1  0  0  0  0
 13 14  2  0  0  0  0
 13 35  1  0  0  0  0
 14 15  1  0  0  0  0
 15 16  1  0  0  0  0
 15 19  2  0  0  0  0
 16 17  1  0  0  0  0
 16 18  2  0  0  0  0
 17 36  1  0  0  0  0
 17 37  1  0  0  0  0
 17 38  1  0  0  0  0
 20 21  1  0  0  0  0
 21 22  2  0  0  0  0
 21 39  1  0  0  0  0
 22 23  1  0  0  0  0
 23 40  1  0  0  0  0
 23 41  1  0  0  0  0
 23 42  1  0  0  0  0
M  CHG  1   5   1
M  END
> <s_m_source_file>
AV-unprocessed.smi

> <i_m_source_file_index>
2845

> <i_lp_mmshare_version>
43012

> <i_f3d_flags>
0

> <s_epik_input>
W0NIM11jKFtjSF0xKWMoW0NIM10pW2NIXWMoYzEyKW4oW2NIXW4yKVtDSDJdW0NASF0oW09IXSlbQ0gyXW4zW2NIXW5jKG4zKVtTQF0oPU8pW0NIM10=

> <s_epik_cmdline>
J2VwaWtfcHl0aG9uJywgJy1waCcsICc3LjAnLCAnLXRuJywgJzgnLCAnLW1hJywgJzIwMCcsICctbWV0YWxfYmluZGluZycsICctaW1hZScsICc8aW5maWxlLm1hZT4nLCAnLW9tYWUnLCAnPG91dGZpbGUubWFlPic=

> <r_lp_tautomer_probability>
1

> <r_epik_Ionization_Penalty>
1.12076

> <r_epik_Ionization_Penalty_Charging>
1.12075

> <r_epik_Ionization_Penalty_Neutral>
1.54566e-06

> <r_epik_State_Penalty>
1.17957

> <r_epik_Charging_Adjusted_Penalty>
2.30033

> <i_epik_Tot_Q>
1

> <i_epik_Tot_abs_Q>
1

> <r_epik_Metal_State_Penalty>
1.26402

> <b_epik_Metal_Only>
0

> <s_lp_Force_Field>
OPLS_2005

> <r_lp_Energy>
14.9183

> <b_lp_Chiralities_Consistent>
1

> <s_lp_Variant>
AV-unprocessed.smi:2845-7

> <Gold.Version>
5.8.1

> <Gold.Id.Protein>
6NUR|6NUR_protein|mol2

> <Gold.PLP.Fitness>
62.9127

> <Gold.PLP.PLP>
-50.2924

> <Gold.PLP.part.hbond>
-5.0000

> <Gold.PLP.part.metal>
0.0000

> <Gold.PLP.part.buried>
-7.3833

> <Gold.PLP.part.nonpolar>
-39.9690

> <Gold.PLP.part.repulsive>
0.3271

> <Gold.PLP.ligand.clash>
0.0000

> <Gold.PLP.ligand.torsion>
1.6630

> <Gold.PLP.Chemscore.Hbond>
4.9760

> <Gold.PLP.Chemscore.CHOScore>
0.0000

> <Gold.PLP.Chemscore.Metal>
0.0000

> <Gold.Chemscore.Hbonds>
donor molecule, donor type, donor heavy atom, donor atom, acceptor molecule, acceptor atom, score
      L1  H     5    43       P1  8028  1.95
      P1  H  6896  6909       L1    18  0.99
      P1  H  7997  8009       L1    10  1.00
      P1  H 10752 10763       L1    19  1.00

> <Gold.PLP.Chemscore.Internal.Correction>
1.0183

> <Gold.Rescore>
     Score         DG    S(hbond)    S(metal)    S(lipo)     H(rot)  DE(clash)    DE(int)     intcor
     22.28     -23.86       3.86        0.00     107.54       2.77       0.00       1.58       ----

> <Gold.Chemscore.Fitness>
22.2803

> <Gold.Chemscore.DG>
-23.8641

> <Gold.Chemscore.ZeroCoef>
-5.4800

> <Gold.Chemscore.Hbond>
3.8588

> <Gold.Chemscore.Metal>
0.0000

> <Gold.Chemscore.Lipo>
107.5369

> <Gold.Chemscore.Internal_Hbond>
0.0000

> <Gold.Chemscore.DEClash>
0.0038

> <Gold.Chemscore.DEInternal>
1.5800

> <Gold.Chemscore.Rot>
2.7681

> <Gold.Chemscore.Internal.Correction>
   9.000000E+99

> <Gold.Chemscore.Hbonds>
donor molecule, donor type, donor heavy atom, donor atom, acceptor molecule, acceptor atom, score
      L1  H     5    43       P1  8028  0.93
      P1  H  6896  6909       L1    18  0.90
      P1  H  7997  8009       L1    10  0.87
      P1  H 10752 10763       L1    19  1.00

> <Gold.Chemscore.Hbond.Weighted>
-12.8885

> <Gold.Chemscore.Metal.Weighted>
-0.0000

> <Gold.Chemscore.Lipo.Weighted>
-12.5818

> <Gold.Chemscore.Internal_Hbond.Weighted>
0.0000

> <Gold.Chemscore.DEClash.Weighted>
0.0038

> <Gold.Chemscore.DEInternal.Weighted>
1.5800

> <Gold.Chemscore.Rot.Weighted>
7.0863

> <Gold.Chemscore.Internal.Correction.Weighted>
   9.000000E+99

> <Gold.Protein.RotatedTorsions>
[ 6907 6896 6895 6894 ] final  -29.55 input  -60.11 | X-H torsion
[ 7974 7965 7964 7962 ] final   95.48 input  175.53 | X-H torsion
[ 8008 7997 7996 7995 ] final -119.66 input   59.86 | X-H torsion
[ 10167 10162 10161 10158 ] final  103.00 input  -65.29 | X-H torsion
[ 10718 10713 10712 10709 ] final  -57.00 input   66.30 | X-H torsion
[ 10763 10752 10751 10750 ] final   57.45 input  -60.55 | X-H torsion
[ 11005 11000 10999 10996 ] final   46.29 input  -57.11 | X-H torsion

> <Gold.Protein.ActiveResidues>
 VAL166  LYS551  ARG553  GLY616  TRP617  ASP618  TYR619  PRO620  LYS621  CYS622 
 ASP623  PHE694  ASN695  SER759  ASP760  ASP761  ALA762  ILE779  LEU786  VAL792 
 PHE793  MET794  SER795  GLU796  ALA797  LYS798  CYS799  TRP800  GLU811  SER814 

> <Gold.Protein.RotatedAtoms>
  151.1177  135.0062  159.8523 H   0  0  0  0  0  0  0  0  0  0  0  0  # atno 6907 bound_to 6896
  152.5446  134.1760  159.8626 H   0  0  0  0  0  0  0  0  0  0  0  0  # atno 6908 bound_to 6896
  151.1816  133.4677  159.2627 H   0  0  0  0  0  0  0  0  0  0  0  0  # atno 6909 bound_to 6896
  145.4517  139.2293  143.3036 H   0  0  0  0  0  0  0  0  0  0  0  0  # atno 7974 bound_to 7965
  155.1193  140.0398  157.2745 H   0  0  0  0  0  0  0  0  0  0  0  0  # atno 8008 bound_to 7997
  154.6625  140.2594  155.7067 H   0  0  0  0  0  0  0  0  0  0  0  0  # atno 8009 bound_to 7997
  156.2625  140.2814  156.1103 H   0  0  0  0  0  0  0  0  0  0  0  0  # atno 8010 bound_to 7997
  139.7301  144.7038  151.0735 H   0  0  0  0  0  0  0  0  0  0  0  0  # atno 10167 bound_to 10162
  156.1245  130.4163  150.0380 H   0  0  0  0  0  0  0  0  0  0  0  0  # atno 10718 bound_to 10713
  152.9850  135.5641  154.5392 H   0  0  0  0  0  0  0  0  0  0  0  0  # atno 10763 bound_to 10752
  154.4850  135.2790  155.1543 H   0  0  0  0  0  0  0  0  0  0  0  0  # atno 10764 bound_to 10752
  154.3036  135.6302  153.5488 H   0  0  0  0  0  0  0  0  0  0  0  0  # atno 10765 bound_to 10752
  140.1382  134.4617  155.8469 H   0  0  0  0  0  0  0  0  0  0  0  0  # atno 11005 bound_to 11000
  146.2501  140.5276  142.8897 LP  0  0  0  0  0  0  0  0  0  0  0  0  # atno 17320 bound_to 7965
  144.8058  140.6296  143.6448 LP  0  0  0  0  0  0  0  0  0  0  0  0  # atno 17321 bound_to 7965
  140.7770  143.5054  150.9718 LP  0  0  0  0  0  0  0  0  0  0  0  0  # atno 17342 bound_to 10162
  139.8742  143.7153  152.3163 LP  0  0  0  0  0  0  0  0  0  0  0  0  # atno 17343 bound_to 10162
  156.8310  130.9392  151.3637 LP  0  0  0  0  0  0  0  0  0  0  0  0  # atno 17370 bound_to 10713
  157.6427  130.8819  149.9479 LP  0  0  0  0  0  0  0  0  0  0  0  0  # atno 17371 bound_to 10713
  141.2182  133.6823  156.7198 LP  0  0  0  0  0  0  0  0  0  0  0  0  # atno 17394 bound_to 11000
  140.2755  134.8358  157.3886 LP  0  0  0  0  0  0  0  0  0  0  0  0  # atno 17395 bound_to 11000

$$$$
