AV-unprocessed.smi:109|AV-procd|sdf|1061|dock6
  -GOLD-   2262018133D 1   1.00000     0.00000
 Structure written by MMmdl.
 58 61  0  0  0  0  0  0  0  0  1 V2000
  145.9633  143.0216  154.1420 O   0  0  0  0  0  0  0  0  0  0  0  0
  146.2761  141.6485  154.2354 C   0  0  0  0  0  0  0  0  0  0  0  0
  147.8003  141.4674  154.3409 C   0  0  0  0  0  0  0  0  0  0  0  0
  148.2625  139.9904  154.3106 C   0  0  2  0  0  0  0  0  0  0  0  0
  147.5795  139.2494  155.3741 N   0  0  0  0  0  0  0  0  0  0  0  0
  146.8680  138.1258  155.1309 C   0  0  0  0  0  0  0  0  0  0  0  0
  146.5934  137.2301  156.1143 N   0  0  0  0  0  0  0  0  0  0  0  0
  145.8871  136.1297  155.8395 C   0  0  0  0  0  0  0  0  0  0  0  0
  145.3717  135.7398  154.6720 N   0  0  0  0  0  0  0  0  0  0  0  0
  145.6468  136.6336  153.6787 C   0  0  0  0  0  0  0  0  0  0  0  0
  146.3818  137.8426  153.8283 C   0  0  0  0  0  0  0  0  0  0  0  0
  146.4624  138.4983  152.6068 N   0  0  0  0  0  0  0  0  0  0  0  0
  145.8159  137.7157  151.7851 C   0  0  0  0  0  0  0  0  0  0  0  0
  145.2895  136.5736  152.3469 N   0  0  0  0  0  0  0  0  0  0  0  0
  144.5156  135.4970  151.6593 C   0  0  1  0  0  0  0  0  0  0  0  0
  145.2803  135.0314  150.5941 O   0  0  0  0  0  0  0  0  0  0  0  0
  145.0610  133.6344  150.3853 C   0  0  1  0  0  0  0  0  0  0  0  0
  146.4245  132.9224  150.3729 C   0  0  0  0  0  0  0  0  0  0  0  0
  146.2482  131.5366  150.1700 O   0  0  0  0  0  0  0  0  0  0  0  0
  144.1643  133.1748  151.5520 C   0  0  2  0  0  0  0  0  0  0  0  0
  142.8397  133.0160  151.0702 O   0  0  0  0  0  0  0  0  0  0  0  0
  144.2852  134.3005  152.5757 C   0  0  2  0  0  0  0  0  0  0  0  0
  143.1253  134.4214  153.3777 O   0  0  0  0  0  0  0  0  0  0  0  0
  149.8006  139.8115  154.4603 C   0  0  0  0  0  0  0  0  0  0  0  0
  150.2612  138.3385  154.3210 C   0  0  0  0  0  0  0  0  0  0  0  0
  151.7770  138.1741  154.5188 C   0  0  0  0  0  0  0  0  0  0  0  0
  152.2318  138.7393  155.8695 C   0  0  0  0  0  0  0  0  0  0  0  0
  151.8107  140.2070  156.0083 C   0  0  0  0  0  0  0  0  0  0  0  0
  150.2943  140.3685  155.8203 C   0  0  0  0  0  0  0  0  0  0  0  0
  143.5974  135.9622  151.2969 H   0  0  0  0  0  0  0  0  0  0  0  0
  144.5581  133.4789  149.4288 H   0  0  0  0  0  0  0  0  0  0  0  0
  144.4788  132.2200  151.9747 H   0  0  0  0  0  0  0  0  0  0  0  0
  145.1644  134.1370  153.1996 H   0  0  0  0  0  0  0  0  0  0  0  0
  145.8924  143.3735  155.0162 H   0  0  0  0  0  0  0  0  0  0  0  0
  145.7667  141.2373  155.1068 H   0  0  0  0  0  0  0  0  0  0  0  0
  145.8874  141.1352  153.3555 H   0  0  0  0  0  0  0  0  0  0  0  0
  148.2384  142.0095  153.5044 H   0  0  0  0  0  0  0  0  0  0  0  0
  148.1675  141.9499  155.2479 H   0  0  0  0  0  0  0  0  0  0  0  0
  148.0019  139.5934  153.3301 H   0  0  0  0  0  0  0  0  0  0  0  0
  147.6104  139.6811  156.2865 H   0  0  0  0  0  0  0  0  0  0  0  0
  145.7091  135.4676  156.6740 H   0  0  0  0  0  0  0  0  0  0  0  0
  145.7035  137.9533  150.7371 H   0  0  0  0  0  0  0  0  0  0  0  0
  147.0898  133.3360  149.6165 H   0  0  0  0  0  0  0  0  0  0  0  0
  146.9206  133.0442  151.3362 H   0  0  0  0  0  0  0  0  0  0  0  0
  147.0991  131.1358  150.0783 H   0  0  0  0  0  0  0  0  0  0  0  0
  142.5264  133.8549  150.7692 H   0  0  0  0  0  0  0  0  0  0  0  0
  142.8690  133.5583  153.6646 H   0  0  0  0  0  0  0  0  0  0  0  0
  150.2856  140.3832  153.6673 H   0  0  0  0  0  0  0  0  0  0  0  0
  149.7290  137.7169  155.0424 H   0  0  0  0  0  0  0  0  0  0  0  0
  150.0192  137.9482  153.3337 H   0  0  0  0  0  0  0  0  0  0  0  0
  152.0478  137.1203  154.4484 H   0  0  0  0  0  0  0  0  0  0  0  0
  152.3071  138.6830  153.7128 H   0  0  0  0  0  0  0  0  0  0  0  0
  151.7962  138.1526  156.6794 H   0  0  0  0  0  0  0  0  0  0  0  0
  153.3140  138.6494  155.9673 H   0  0  0  0  0  0  0  0  0  0  0  0
  152.1058  140.5860  156.9872 H   0  0  0  0  0  0  0  0  0  0  0  0
  152.3379  140.8127  155.2702 H   0  0  0  0  0  0  0  0  0  0  0  0
  150.0493  141.4262  155.9171 H   0  0  0  0  0  0  0  0  0  0  0  0
  149.7735  139.8610  156.6334 H   0  0  0  0  0  0  0  0  0  0  0  0
  1  2  1  0  0  0  0
  1 34  1  0  0  0  0
  2  3  1  0  0  0  0
  2 35  1  0  0  0  0
  2 36  1  0  0  0  0
  3  4  1  0  0  0  0
  3 37  1  0  0  0  0
  3 38  1  0  0  0  0
  4  5  1  0  0  0  0
  4 24  1  0  0  0  0
  4 39  1  0  0  0  0
  5  6  1  0  0  0  0
  5 40  1  0  0  0  0
  6 11  1  0  0  0  0
  6  7  2  0  0  0  0
  7  8  1  0  0  0  0
  8  9  2  0  0  0  0
  8 41  1  0  0  0  0
  9 10  1  0  0  0  0
 10 14  1  0  0  0  0
 10 11  2  0  0  0  0
 11 12  1  0  0  0  0
 12 13  2  0  0  0  0
 13 14  1  0  0  0  0
 13 42  1  0  0  0  0
 14 15  1  0  0  0  0
 15 30  1  0  0  0  0
 15 22  1  0  0  0  0
 15 16  1  0  0  0  0
 16 17  1  0  0  0  0
 17 31  1  0  0  0  0
 17 18  1  0  0  0  0
 17 20  1  0  0  0  0
 18 19  1  0  0  0  0
 18 43  1  0  0  0  0
 18 44  1  0  0  0  0
 19 45  1  0  0  0  0
 20 32  1  0  0  0  0
 20 21  1  0  0  0  0
 20 22  1  0  0  0  0
 21 46  1  0  0  0  0
 22 33  1  0  0  0  0
 22 23  1  0  0  0  0
 23 47  1  0  0  0  0
 24 29  1  0  0  0  0
 24 25  1  0  0  0  0
 24 48  1  0  0  0  0
 25 26  1  0  0  0  0
 25 49  1  0  0  0  0
 25 50  1  0  0  0  0
 26 27  1  0  0  0  0
 26 51  1  0  0  0  0
 26 52  1  0  0  0  0
 27 28  1  0  0  0  0
 27 53  1  0  0  0  0
 27 54  1  0  0  0  0
 28 29  1  0  0  0  0
 28 55  1  0  0  0  0
 28 56  1  0  0  0  0
 29 57  1  0  0  0  0
 29 58  1  0  0  0  0
M  END
> <s_m_source_file>
AV-unprocessed.smi

> <i_m_source_file_index>
109

> <i_lp_mmshare_version>
43012

> <i_f3d_flags>
0

> <s_epik_input>
W0NIMl0xW0NIMl1bQ0gyXVtDSDJdW0NIMl1bQ0hdMVtDQEhdKFtDSDJdW0NIMl1bT0hdKVtOSF1jKG5bY0hdbjIpYyhjMjMpbltjSF1uM1tDQEBIXTRPW0NASF0oW0NIMl1bT0hdKVtDQEBIXShbT0hdKVtDQEhdNFtPSF0=

> <s_epik_cmdline>
J2VwaWtfcHl0aG9uJywgJy1waCcsICc3LjAnLCAnLXRuJywgJzgnLCAnLW1hJywgJzIwMCcsICctbWV0YWxfYmluZGluZycsICctaW1hZScsICc8aW5maWxlLm1hZT4nLCAnLW9tYWUnLCAnPG91dGZpbGUubWFlPic=

> <r_lp_tautomer_probability>
1

> <r_epik_Ionization_Penalty>
0.000793976

> <r_epik_Ionization_Penalty_Charging>
0

> <r_epik_Ionization_Penalty_Neutral>
0.000793976

> <r_epik_State_Penalty>
-0

> <r_epik_Charging_Adjusted_Penalty>
0

> <i_epik_Tot_Q>
0

> <i_epik_Tot_abs_Q>
0

> <r_epik_Metal_State_Penalty>
-0

> <b_epik_Metal_Only>
0

> <s_epik_Chemistry_Notes>
This compound contains an acetal/aminal-like group ( X-CH(R)-Y where X, Y are N, S, or O) that may be acid/base labile, releasing an aldehyde.

> <s_lp_Force_Field>
OPLS_2005

> <r_lp_Energy>
56.6401

> <b_lp_Chiralities_Consistent>
1

> <s_lp_Variant>
AV-unprocessed.smi:109-31

> <Gold.Version>
5.8.1

> <Gold.Id.Protein>
6NUR|6NUR_protein|mol2

> <Gold.PLP.Fitness>
53.1341

> <Gold.PLP.PLP>
-43.2365

> <Gold.PLP.part.hbond>
-3.0000

> <Gold.PLP.part.metal>
0.0000

> <Gold.PLP.part.buried>
-6.7336

> <Gold.PLP.part.nonpolar>
-36.0381

> <Gold.PLP.part.repulsive>
0.5574

> <Gold.PLP.ligand.clash>
0.0000

> <Gold.PLP.ligand.torsion>
0.2683

> <Gold.PLP.Chemscore.Hbond>
2.4619

> <Gold.PLP.Chemscore.CHOScore>
0.9464

> <Gold.PLP.Chemscore.Metal>
0.0000

> <Gold.Chemscore.Hbonds>
donor molecule, donor type, donor heavy atom, donor atom, acceptor molecule, acceptor atom, score
      L1  H    19    45       P1 10747  1.00
      L1  H    21    46       P1 10186  0.67
      L1  H    23    47       P1 10957  0.78
      L1  C    13    42       P1 10171  0.91

> <Gold.PLP.Chemscore.Internal.Correction>
0.2096

> <Gold.Rescore>
     Score         DG    S(hbond)    S(metal)    S(lipo)     H(rot)  DE(clash)    DE(int)     intcor
      6.20      -9.43       2.27        0.00      88.66       5.47       0.25       2.98       ----

> <Gold.Chemscore.Fitness>
6.1992

> <Gold.Chemscore.DG>
-9.4305

> <Gold.Chemscore.ZeroCoef>
-5.4800

> <Gold.Chemscore.Hbond>
2.2667

> <Gold.Chemscore.Metal>
0.0000

> <Gold.Chemscore.Lipo>
88.6583

> <Gold.Chemscore.Internal_Hbond>
0.0000

> <Gold.Chemscore.DEClash>
0.2510

> <Gold.Chemscore.DEInternal>
2.9803

> <Gold.Chemscore.Rot>
5.4662

> <Gold.Chemscore.Internal.Correction>
   9.000000E+99

> <Gold.Chemscore.Hbonds>
donor molecule, donor type, donor heavy atom, donor atom, acceptor molecule, acceptor atom, score
      L1  H    19    45       P1 10747  1.00
      L1  H    21    46       P1 10186  0.50
      L1  H    23    47       P1 10957  0.77

> <Gold.Chemscore.Hbond.Weighted>
-7.5709

> <Gold.Chemscore.Metal.Weighted>
-0.0000

> <Gold.Chemscore.Lipo.Weighted>
-10.3730

> <Gold.Chemscore.Internal_Hbond.Weighted>
0.0000

> <Gold.Chemscore.DEClash.Weighted>
0.2510

> <Gold.Chemscore.DEInternal.Weighted>
2.9803

> <Gold.Chemscore.Rot.Weighted>
13.9935

> <Gold.Chemscore.Internal.Correction.Weighted>
   9.000000E+99

> <Gold.Protein.RotatedTorsions>
[ 6907 6896 6895 6894 ] final   52.65 input  -60.11 | X-H torsion
[ 7974 7965 7964 7962 ] final -156.55 input  175.53 | X-H torsion
[ 8008 7997 7996 7995 ] final -138.89 input   59.86 | X-H torsion
[ 10167 10162 10161 10158 ] final   45.93 input  -65.29 | X-H torsion
[ 10718 10713 10712 10709 ] final -114.00 input   66.30 | X-H torsion
[ 10763 10752 10751 10750 ] final  172.40 input  -60.55 | X-H torsion
[ 11005 11000 10999 10996 ] final   53.97 input  -57.11 | X-H torsion

> <Gold.Protein.ActiveResidues>
 VAL166  LYS551  ARG553  GLY616  TRP617  ASP618  TYR619  PRO620  LYS621  CYS622 
 ASP623  PHE694  ASN695  SER759  ASP760  ASP761  ALA762  ILE779  LEU786  VAL792 
 PHE793  MET794  SER795  GLU796  ALA797  LYS798  CYS799  TRP800  GLU811  SER814 

> <Gold.Protein.RotatedAtoms>
  152.3255  134.7326  160.0302 H   0  0  0  0  0  0  0  0  0  0  0  0  # atno 6907 bound_to 6896
  151.7760  133.3340  159.3466 H   0  0  0  0  0  0  0  0  0  0  0  0  # atno 6908 bound_to 6896
  150.7393  134.5906  159.6030 H   0  0  0  0  0  0  0  0  0  0  0  0  # atno 6909 bound_to 6896
  144.7588  140.4094  143.5992 H   0  0  0  0  0  0  0  0  0  0  0  0  # atno 7974 bound_to 7965
  155.4359  140.0528  157.3014 H   0  0  0  0  0  0  0  0  0  0  0  0  # atno 8008 bound_to 7997
  154.4839  140.2093  155.9657 H   0  0  0  0  0  0  0  0  0  0  0  0  # atno 8009 bound_to 7997
  156.1247  140.3182  155.8264 H   0  0  0  0  0  0  0  0  0  0  0  0  # atno 8010 bound_to 7997
  140.3191  144.2728  150.6186 H   0  0  0  0  0  0  0  0  0  0  0  0  # atno 10167 bound_to 10162
  156.0802  130.6003  150.8717 H   0  0  0  0  0  0  0  0  0  0  0  0  # atno 10718 bound_to 10713
  154.4255  135.2758  155.1947 H   0  0  0  0  0  0  0  0  0  0  0  0  # atno 10763 bound_to 10752
  154.3875  135.6074  153.5828 H   0  0  0  0  0  0  0  0  0  0  0  0  # atno 10764 bound_to 10752
  152.9834  135.5895  154.4558 H   0  0  0  0  0  0  0  0  0  0  0  0  # atno 10765 bound_to 10752
  140.0724  134.5451  155.9032 H   0  0  0  0  0  0  0  0  0  0  0  0  # atno 11005 bound_to 11000
  145.6689  139.1595  143.2766 LP  0  0  0  0  0  0  0  0  0  0  0  0  # atno 17320 bound_to 7965
  146.1628  140.6762  142.9269 LP  0  0  0  0  0  0  0  0  0  0  0  0  # atno 17321 bound_to 7965
  140.5500  143.2208  151.7943 LP  0  0  0  0  0  0  0  0  0  0  0  0  # atno 17342 bound_to 10162
  139.4878  144.4489  151.9677 LP  0  0  0  0  0  0  0  0  0  0  0  0  # atno 17343 bound_to 10162
  157.5915  131.0944  150.9110 LP  0  0  0  0  0  0  0  0  0  0  0  0  # atno 17370 bound_to 10713
  156.9285  130.5341  149.5279 LP  0  0  0  0  0  0  0  0  0  0  0  0  # atno 17371 bound_to 10713
  141.2017  133.6620  156.5964 LP  0  0  0  0  0  0  0  0  0  0  0  0  # atno 17394 bound_to 11000
  140.3607  134.7689  157.4532 LP  0  0  0  0  0  0  0  0  0  0  0  0  # atno 17395 bound_to 11000

$$$$
