AV-unprocessed.smi:160|AV-procd|sdf|1354|dock1
  -GOLD-   2262019 63D 1   1.00000     0.00000
 Structure written by MMmdl.
 29 30  0  0  0  0  0  0  0  0  1 V2000
  153.1892  140.8619  159.8367 N   0  0  0  0  0  0  0  0  0  0  0  0
  152.9019  140.3275  158.6453 C   0  0  0  0  0  0  0  0  0  0  0  0
  153.4975  139.3466  158.2028 O   0  0  0  0  0  0  0  0  0  0  0  0
  151.8003  140.9926  157.8673 C   0  0  0  0  0  0  0  0  0  0  0  0
  151.0952  142.0368  158.3939 N   0  0  0  0  0  0  0  0  0  0  0  0
  150.2768  142.2686  157.3758 C   0  0  0  0  0  0  0  0  0  0  0  0
  150.4482  141.4471  156.3350 N   0  0  0  0  0  0  0  0  0  0  0  0
  149.7421  141.4221  155.0167 C   0  0  1  0  0  0  0  0  0  0  0  0
  150.2274  140.3328  154.2886 O   0  0  0  0  0  0  0  0  0  0  0  0
  149.1881  139.4197  153.9370 C   0  0  1  0  0  0  0  0  0  0  0  0
  149.2675  138.1825  154.8587 C   0  0  0  0  0  0  0  0  0  0  0  0
  148.2381  137.2743  154.5296 O   0  0  0  0  0  0  0  0  0  0  0  0
  147.9086  140.2644  154.0613 C   0  0  1  0  0  0  0  0  0  0  0  0
  146.7571  139.4977  154.3571 O   0  0  0  0  0  0  0  0  0  0  0  0
  148.2234  141.2515  155.1759 C   0  0  2  0  0  0  0  0  0  0  0  0
  147.5342  142.4620  154.9335 O   0  0  0  0  0  0  0  0  0  0  0  0
  151.4631  140.6004  156.6377 N   0  0  0  0  0  0  0  0  0  0  0  0
  150.0321  142.3507  154.5221 H   0  0  0  0  0  0  0  0  0  0  0  0
  149.3119  139.1006  152.9011 H   0  0  0  0  0  0  0  0  0  0  0  0
  147.7523  140.7958  153.1208 H   0  0  0  0  0  0  0  0  0  0  0  0
  147.9745  140.8404  156.1551 H   0  0  0  0  0  0  0  0  0  0  0  0
  153.9191  140.4597  160.4062 H   0  0  0  0  0  0  0  0  0  0  0  0
  152.6717  141.6669  160.1589 H   0  0  0  0  0  0  0  0  0  0  0  0
  149.5358  143.0545  157.3891 H   0  0  0  0  0  0  0  0  0  0  0  0
  150.2366  137.6910  154.8149 H   0  0  0  0  0  0  0  0  0  0  0  0
  149.1039  138.4633  155.8987 H   0  0  0  0  0  0  0  0  0  0  0  0
  148.4195  136.9107  153.6764 H   0  0  0  0  0  0  0  0  0  0  0  0
  146.0363  140.0876  154.5167 H   0  0  0  0  0  0  0  0  0  0  0  0
  148.0409  143.1740  155.2927 H   0  0  0  0  0  0  0  0  0  0  0  0
  1  2  1  0  0  0  0
  1 22  1  0  0  0  0
  1 23  1  0  0  0  0
  2  3  2  0  0  0  0
  2  4  1  0  0  0  0
  4 17  2  0  0  0  0
  4  5  1  0  0  0  0
  5  6  2  0  0  0  0
  6  7  1  0  0  0  0
  6 24  1  0  0  0  0
  7  8  1  0  0  0  0
  7 17  1  0  0  0  0
  8 18  1  0  0  0  0
  8 15  1  0  0  0  0
  8  9  1  0  0  0  0
  9 10  1  0  0  0  0
 10 19  1  0  0  0  0
 10 11  1  0  0  0  0
 10 13  1  0  0  0  0
 11 12  1  0  0  0  0
 11 25  1  0  0  0  0
 11 26  1  0  0  0  0
 12 27  1  0  0  0  0
 13 20  1  0  0  0  0
 13 14  1  0  0  0  0
 13 15  1  0  0  0  0
 14 28  1  0  0  0  0
 15 21  1  0  0  0  0
 15 16  1  0  0  0  0
 16 29  1  0  0  0  0
M  END
> <s_m_source_file>
AV-unprocessed.smi

> <i_m_source_file_index>
160

> <i_lp_mmshare_version>
43012

> <i_f3d_flags>
0

> <s_epik_input>
W05IMl1DKD1PKWMxbltjSF1uKG4xKVtDQEBIXTJPW0NASF0oW0NIMl1bT0hdKVtDQEBIXShbT0hdKVtDQEhdMltPSF0=

> <s_epik_cmdline>
J2VwaWtfcHl0aG9uJywgJy1waCcsICc3LjAnLCAnLXRuJywgJzgnLCAnLW1hJywgJzIwMCcsICctbWV0YWxfYmluZGluZycsICctaW1hZScsICc8aW5maWxlLm1hZT4nLCAnLW9tYWUnLCAnPG91dGZpbGUubWFlPic=

> <r_lp_tautomer_probability>
1

> <r_epik_Ionization_Penalty>
1.06932e-05

> <r_epik_Ionization_Penalty_Charging>
0

> <r_epik_Ionization_Penalty_Neutral>
1.06932e-05

> <r_epik_State_Penalty>
-0

> <r_epik_Charging_Adjusted_Penalty>
0

> <i_epik_Tot_Q>
0

> <i_epik_Tot_abs_Q>
0

> <r_epik_Metal_State_Penalty>
0.0142097

> <b_epik_Metal_Only>
0

> <s_epik_Chemistry_Notes>
This compound contains an acetal/aminal-like group ( X-CH(R)-Y where X, Y are N, S, or O) that may be acid/base labile, releasing an aldehyde.

> <s_lp_Force_Field>
OPLS_2005

> <r_lp_Energy>
39.4321

> <b_lp_Chiralities_Consistent>
1

> <s_lp_Variant>
AV-unprocessed.smi:160-12

> <Gold.Version>
5.8.1

> <Gold.Id.Protein>
6NUR|6NUR_protein|mol2

> <Gold.PLP.Fitness>
37.7624

> <Gold.PLP.PLP>
-22.8361

> <Gold.PLP.part.hbond>
-3.9746

> <Gold.PLP.part.metal>
0.0000

> <Gold.PLP.part.buried>
-1.2079

> <Gold.PLP.part.nonpolar>
-17.4688

> <Gold.PLP.part.repulsive>
0.2562

> <Gold.PLP.ligand.clash>
0.0000

> <Gold.PLP.ligand.torsion>
0.0431

> <Gold.PLP.Chemscore.Hbond>
4.0000

> <Gold.PLP.Chemscore.CHOScore>
1.0000

> <Gold.PLP.Chemscore.Metal>
0.0000

> <Gold.Chemscore.Hbonds>
donor molecule, donor type, donor heavy atom, donor atom, acceptor molecule, acceptor atom, score
      L1  H    12    27       P1  7948  1.00
      L1  H    16    29       P1  8028  1.00
      P1  H  7989  7998       L1     9  0.96
      P1  H  7997  8009       L1     3  1.00
      L1  C     6    24       P1  8028  1.00

> <Gold.PLP.Chemscore.Internal.Correction>
0.0124

> <Gold.Rescore>
     Score         DG    S(hbond)    S(metal)    S(lipo)     H(rot)  DE(clash)    DE(int)     intcor
      8.75     -10.27       3.64        0.00      25.92       4.06       1.46       0.07       ----

> <Gold.Chemscore.Fitness>
8.7450

> <Gold.Chemscore.DG>
-10.2699

> <Gold.Chemscore.ZeroCoef>
-5.4800

> <Gold.Chemscore.Hbond>
3.6378

> <Gold.Chemscore.Metal>
0.0000

> <Gold.Chemscore.Lipo>
25.9238

> <Gold.Chemscore.Internal_Hbond>
0.0000

> <Gold.Chemscore.DEClash>
1.4596

> <Gold.Chemscore.DEInternal>
0.0652

> <Gold.Chemscore.Rot>
4.0600

> <Gold.Chemscore.Internal.Correction>
   9.000000E+99

> <Gold.Chemscore.Hbonds>
donor molecule, donor type, donor heavy atom, donor atom, acceptor molecule, acceptor atom, score
      L1  H    12    27       P1  7948  0.96
      L1  H    16    29       P1  8028  0.85
      P1  H  7989  7998       L1     9  0.51
      P1  H  7997  8009       L1     3  0.38

> <Gold.Chemscore.Hbond.Weighted>
-12.1504

> <Gold.Chemscore.Metal.Weighted>
-0.0000

> <Gold.Chemscore.Lipo.Weighted>
-3.0331

> <Gold.Chemscore.Internal_Hbond.Weighted>
0.0000

> <Gold.Chemscore.DEClash.Weighted>
1.4596

> <Gold.Chemscore.DEInternal.Weighted>
0.0652

> <Gold.Chemscore.Rot.Weighted>
10.3936

> <Gold.Chemscore.Internal.Correction.Weighted>
   9.000000E+99

> <Gold.Protein.RotatedTorsions>
[ 6907 6896 6895 6894 ] final  -28.17 input  -60.11 | X-H torsion
[ 7974 7965 7964 7962 ] final    4.33 input  175.53 | X-H torsion
[ 8008 7997 7996 7995 ] final  168.62 input   59.86 | X-H torsion
[ 10167 10162 10161 10158 ] final -103.03 input  -65.29 | X-H torsion
[ 10718 10713 10712 10709 ] final -179.09 input   66.30 | X-H torsion
[ 10763 10752 10751 10750 ] final  162.18 input  -60.55 | X-H torsion
[ 11005 11000 10999 10996 ] final  -67.69 input  -57.11 | X-H torsion

> <Gold.Protein.ActiveResidues>
 VAL166  LYS551  ARG553  GLY616  TRP617  ASP618  TYR619  PRO620  LYS621  CYS622 
 ASP623  PHE694  ASN695  SER759  ASP760  ASP761  ALA762  ILE779  LEU786  VAL792 
 PHE793  MET794  SER795  GLU796  ALA797  LYS798  CYS799  TRP800  GLU811  SER814 

> <Gold.Protein.RotatedAtoms>
  151.1367  135.0158  159.8606 H   0  0  0  0  0  0  0  0  0  0  0  0  # atno 6907 bound_to 6896
  152.5452  134.1546  159.8543 H   0  0  0  0  0  0  0  0  0  0  0  0  # atno 6908 bound_to 6896
  151.1618  133.4795  159.2627 H   0  0  0  0  0  0  0  0  0  0  0  0  # atno 6909 bound_to 6896
  146.2444  140.0550  142.8372 H   0  0  0  0  0  0  0  0  0  0  0  0  # atno 7974 bound_to 7965
  156.1530  140.1585  156.8738 H   0  0  0  0  0  0  0  0  0  0  0  0  # atno 8008 bound_to 7997
  154.5089  140.0806  156.7986 H   0  0  0  0  0  0  0  0  0  0  0  0  # atno 8009 bound_to 7997
  155.3858  140.3407  155.4251 H   0  0  0  0  0  0  0  0  0  0  0  0  # atno 8010 bound_to 7997
  140.2243  143.3653  152.0942 H   0  0  0  0  0  0  0  0  0  0  0  0  # atno 10167 bound_to 10162
  156.8540  130.9729  151.3090 H   0  0  0  0  0  0  0  0  0  0  0  0  # atno 10718 bound_to 10713
  154.2744  135.2765  155.2724 H   0  0  0  0  0  0  0  0  0  0  0  0  # atno 10763 bound_to 10752
  154.5273  135.5739  153.6733 H   0  0  0  0  0  0  0  0  0  0  0  0  # atno 10764 bound_to 10752
  152.9939  135.6219  154.2900 H   0  0  0  0  0  0  0  0  0  0  0  0  # atno 10765 bound_to 10752
  141.1514  133.6724  156.6331 H   0  0  0  0  0  0  0  0  0  0  0  0  # atno 11005 bound_to 11000
  145.0950  140.9309  143.4746 LP  0  0  0  0  0  0  0  0  0  0  0  0  # atno 17320 bound_to 7965
  145.0731  139.3016  143.5822 LP  0  0  0  0  0  0  0  0  0  0  0  0  # atno 17321 bound_to 7965
  139.5133  144.6930  151.5708 LP  0  0  0  0  0  0  0  0  0  0  0  0  # atno 17342 bound_to 10162
  140.6232  143.9218  150.6543 LP  0  0  0  0  0  0  0  0  0  0  0  0  # atno 17343 bound_to 10162
  157.6287  130.8712  149.9236 LP  0  0  0  0  0  0  0  0  0  0  0  0  # atno 17370 bound_to 10713
  156.0813  130.3673  150.0576 LP  0  0  0  0  0  0  0  0  0  0  0  0  # atno 17371 bound_to 10713
  140.3451  134.7816  157.4426 LP  0  0  0  0  0  0  0  0  0  0  0  0  # atno 17394 bound_to 11000
  140.0906  134.5606  155.8448 LP  0  0  0  0  0  0  0  0  0  0  0  0  # atno 17395 bound_to 11000

$$$$
