AV-unprocessed.smi:1007|AV-procd|sdf|4405|dock2
  -GOLD-   22720 2343D 1   1.00000     0.00000
 Structure written by MMmdl.
 57 59  0  0  0  0  0  0  0  0  3 V2000
  146.9971  136.6742  162.1415 C   0  0  0  0  0  0  0  0  0  0  0  0
  148.1538  135.9741  161.7176 O   0  0  0  0  0  0  0  0  0  0  0  0
  148.5159  136.2789  160.3809 C   0  0  0  0  0  0  0  0  0  0  0  0
  147.7784  135.3183  159.4361 C   0  0  0  0  0  0  0  0  0  0  0  0
  147.9549  135.6811  158.0073 N   0  3  0  0  0  0  0  0  0  0  0  0
  149.3819  135.7062  157.6004 C   0  0  0  0  0  0  0  0  0  0  0  0
  149.4960  135.9905  156.0903 C   0  0  0  0  0  0  0  0  0  0  0  0
  148.8813  137.2575  155.6921 N   0  0  0  0  0  0  0  0  0  0  0  0
  149.6456  138.4269  156.1522 C   0  0  0  0  0  0  0  0  0  0  0  0
  150.8639  138.8347  155.2946 C   0  0  1  0  0  0  0  0  0  0  0  0
  150.4102  139.3930  154.0778 O   0  0  0  0  0  0  0  0  0  0  0  0
  151.8966  139.7642  155.9617 C   0  0  0  0  0  0  0  0  0  0  0  0
  151.2843  140.9910  156.4880 N   0  0  0  0  0  0  0  0  0  0  0  0
  150.3231  141.7894  155.9491 C   0  0  0  0  0  0  0  0  0  0  0  0
  150.1057  142.8145  156.8189 N   0  3  0  0  0  0  0  0  0  0  0  0
  150.9407  142.6689  157.9288 C   0  0  0  0  0  0  0  0  0  0  0  0
  151.0884  143.4526  159.0669 C   0  0  0  0  0  0  0  0  0  0  0  0
  152.0407  143.0299  160.0219 C   0  0  0  0  0  0  0  0  0  0  0  0
  152.2311  143.8670  161.2754 C   0  0  0  0  0  0  0  0  0  0  0  0
  152.8060  141.8522  159.8183 C   0  0  0  0  0  0  0  0  0  0  0  0
  153.8273  141.4076  160.8516 C   0  0  0  0  0  0  0  0  0  0  0  0
  152.6394  141.0673  158.6548 C   0  0  0  0  0  0  0  0  0  0  0  0
  151.6988  141.4998  157.7234 C   0  0  0  0  0  0  0  0  0  0  0  0
  147.4761  137.2323  156.1174 C   0  0  0  0  0  0  0  0  0  0  0  0
  147.2834  136.9510  157.6238 C   0  0  0  0  0  0  0  0  0  0  0  0
  146.7609  136.4029  163.1704 H   0  0  0  0  0  0  0  0  0  0  0  0
  146.1351  136.4238  161.5217 H   0  0  0  0  0  0  0  0  0  0  0  0
  147.1533  137.7531  162.1051 H   0  0  0  0  0  0  0  0  0  0  0  0
  148.2932  137.3204  160.1478 H   0  0  0  0  0  0  0  0  0  0  0  0
  149.5923  136.1486  160.2583 H   0  0  0  0  0  0  0  0  0  0  0  0
  148.1113  134.2919  159.5983 H   0  0  0  0  0  0  0  0  0  0  0  0
  146.7180  135.3409  159.6915 H   0  0  0  0  0  0  0  0  0  0  0  0
  149.9232  136.4552  158.1807 H   0  0  0  0  0  0  0  0  0  0  0  0
  149.8420  134.7418  157.8194 H   0  0  0  0  0  0  0  0  0  0  0  0
  150.5438  135.9745  155.7879 H   0  0  0  0  0  0  0  0  0  0  0  0
  149.0208  135.1764  155.5411 H   0  0  0  0  0  0  0  0  0  0  0  0
  148.9890  139.2862  156.2820 H   0  0  0  0  0  0  0  0  0  0  0  0
  150.0349  138.2217  157.1507 H   0  0  0  0  0  0  0  0  0  0  0  0
  151.3756  137.9094  155.0277 H   0  0  0  0  0  0  0  0  0  0  0  0
  150.2559  138.6892  153.4659 H   0  0  0  0  0  0  0  0  0  0  0  0
  152.3719  139.2663  156.8066 H   0  0  0  0  0  0  0  0  0  0  0  0
  152.6877  140.0434  155.2648 H   0  0  0  0  0  0  0  0  0  0  0  0
  149.8277  141.6405  155.0004 H   0  0  0  0  0  0  0  0  0  0  0  0
  150.5030  144.3484  159.2144 H   0  0  0  0  0  0  0  0  0  0  0  0
  152.0250  143.2748  162.1673 H   0  0  0  0  0  0  0  0  0  0  0  0
  151.5628  144.7285  161.2858 H   0  0  0  0  0  0  0  0  0  0  0  0
  153.2543  144.2392  161.3347 H   0  0  0  0  0  0  0  0  0  0  0  0
  154.3399  140.4968  160.5408 H   0  0  0  0  0  0  0  0  0  0  0  0
  153.3422  141.2070  161.8072 H   0  0  0  0  0  0  0  0  0  0  0  0
  154.5824  142.1796  161.0011 H   0  0  0  0  0  0  0  0  0  0  0  0
  153.2231  140.1723  158.4983 H   0  0  0  0  0  0  0  0  0  0  0  0
  146.9734  138.1609  155.8628 H   0  0  0  0  0  0  0  0  0  0  0  0
  146.9548  136.4584  155.5523 H   0  0  0  0  0  0  0  0  0  0  0  0
  146.2164  136.8874  157.8332 H   0  0  0  0  0  0  0  0  0  0  0  0
  147.6679  137.7734  158.2276 H   0  0  0  0  0  0  0  0  0  0  0  0
  147.5236  134.9430  157.4688 H   0  0  0  0  0  0  0  0  0  0  0  0
  149.4391  143.5596  156.6614 H   0  0  0  0  0  0  0  0  0  0  0  0
  1  2  1  0  0  0  0
  1 26  1  0  0  0  0
  1 27  1  0  0  0  0
  1 28  1  0  0  0  0
  2  3  1  0  0  0  0
  3  4  1  0  0  0  0
  3 29  1  0  0  0  0
  3 30  1  0  0  0  0
  4  5  1  0  0  0  0
  4 31  1  0  0  0  0
  4 32  1  0  0  0  0
  5 25  1  0  0  0  0
  5  6  1  0  0  0  0
  5 56  1  0  0  0  0
  6  7  1  0  0  0  0
  6 33  1  0  0  0  0
  6 34  1  0  0  0  0
  7  8  1  0  0  0  0
  7 35  1  0  0  0  0
  7 36  1  0  0  0  0
  8  9  1  0  0  0  0
  8 24  1  0  0  0  0
  9 10  1  0  0  0  0
  9 37  1  0  0  0  0
  9 38  1  0  0  0  0
 10 11  1  0  0  0  0
 10 12  1  0  0  0  0
 10 39  1  0  0  0  0
 11 40  1  0  0  0  0
 12 13  1  0  0  0  0
 12 41  1  0  0  0  0
 12 42  1  0  0  0  0
 13 23  1  0  0  0  0
 13 14  1  0  0  0  0
 14 15  2  0  0  0  0
 14 43  1  0  0  0  0
 15 16  1  0  0  0  0
 15 57  1  0  0  0  0
 16 23  2  0  0  0  0
 16 17  1  0  0  0  0
 17 18  2  0  0  0  0
 17 44  1  0  0  0  0
 18 19  1  0  0  0  0
 18 20  1  0  0  0  0
 19 45  1  0  0  0  0
 19 46  1  0  0  0  0
 19 47  1  0  0  0  0
 20 21  1  0  0  0  0
 20 22  2  0  0  0  0
 21 48  1  0  0  0  0
 21 49  1  0  0  0  0
 21 50  1  0  0  0  0
 22 23  1  0  0  0  0
 22 51  1  0  0  0  0
 24 25  1  0  0  0  0
 24 52  1  0  0  0  0
 24 53  1  0  0  0  0
 25 54  1  0  0  0  0
 25 55  1  0  0  0  0
M  CHG  1   5   1
M  CHG  1  15   1
M  END
> <s_m_source_file>
AV-unprocessed.smi

> <i_m_source_file_index>
1007

> <i_lp_mmshare_version>
43012

> <i_f3d_flags>
0

> <s_epik_input>
W0NIM11PW0NIMl1bQ0gyXU4xW0NIMl1bQ0gyXU4oW0NIMl1bQ0gyXTEpW0NIMl1bQ0BIXShbT0hdKVtDSDJdbihbY0hdbjIpYyhjMjMpW2NIXWMoW0NIM10pYyhbY0hdMylbQ0gzXQ==

> <s_epik_cmdline>
J2VwaWtfcHl0aG9uJywgJy1waCcsICc3LjAnLCAnLXRuJywgJzgnLCAnLW1hJywgJzIwMCcsICctbWV0YWxfYmluZGluZycsICctaW1hZScsICc8aW5maWxlLm1hZT4nLCAnLW9tYWUnLCAnPG91dGZpbGUubWFlPic=

> <r_epik_Ionization_Penalty>
1.34507

> <r_epik_Ionization_Penalty_Charging>
1.29906

> <r_epik_Ionization_Penalty_Neutral>
0.0460038

> <r_epik_State_Penalty>
2.55679

> <r_epik_Charging_Adjusted_Penalty>
3.85586

> <i_epik_Tot_Q>
2

> <i_epik_Tot_abs_Q>
2

> <r_epik_Metal_State_Penalty>
6.56928

> <b_epik_Metal_Only>
0

> <s_lp_Force_Field>
OPLS_2005

> <r_lp_Energy>
47.3521

> <b_lp_Chiralities_Consistent>
1

> <s_lp_Variant>
AV-unprocessed.smi:1007-8

> <Gold.Version>
5.8.1

> <Gold.Id.Protein>
6NUR|6NUR_protein|mol2

> <Gold.PLP.Fitness>
51.0048

> <Gold.PLP.PLP>
-43.4845

> <Gold.PLP.part.hbond>
-2.7831

> <Gold.PLP.part.metal>
0.0000

> <Gold.PLP.part.buried>
-6.5025

> <Gold.PLP.part.nonpolar>
-35.3271

> <Gold.PLP.part.repulsive>
0.1182

> <Gold.PLP.ligand.clash>
0.0000

> <Gold.PLP.ligand.torsion>
0.8656

> <Gold.PLP.Chemscore.Hbond>
3.0000

> <Gold.PLP.Chemscore.CHOScore>
0.0000

> <Gold.PLP.Chemscore.Metal>
0.0000

> <Gold.Chemscore.Hbonds>
donor molecule, donor type, donor heavy atom, donor atom, acceptor molecule, acceptor atom, score
      L1  H    15    57       P1  8028  1.92
      P1  H  7989  7998       L1    11  1.00

> <Gold.PLP.Chemscore.Internal.Correction>
0.2514

> <Gold.Rescore>
     Score         DG    S(hbond)    S(metal)    S(lipo)     H(rot)  DE(clash)    DE(int)     intcor
     17.75     -18.62       1.93        0.00     114.95       2.64       0.09       0.78       ----

> <Gold.Chemscore.Fitness>
17.7462

> <Gold.Chemscore.DG>
-18.6210

> <Gold.Chemscore.ZeroCoef>
-5.4800

> <Gold.Chemscore.Hbond>
1.9336

> <Gold.Chemscore.Metal>
0.0000

> <Gold.Chemscore.Lipo>
114.9513

> <Gold.Chemscore.Internal_Hbond>
0.0000

> <Gold.Chemscore.DEClash>
0.0930

> <Gold.Chemscore.DEInternal>
0.7819

> <Gold.Chemscore.Rot>
2.6432

> <Gold.Chemscore.Internal.Correction>
   9.000000E+99

> <Gold.Chemscore.Hbonds>
donor molecule, donor type, donor heavy atom, donor atom, acceptor molecule, acceptor atom, score
      L1  H    15    57       P1  8028  0.91
      P1  H  7989  7998       L1    11  0.71

> <Gold.Chemscore.Hbond.Weighted>
-6.4582

> <Gold.Chemscore.Metal.Weighted>
-0.0000

> <Gold.Chemscore.Lipo.Weighted>
-13.4493

> <Gold.Chemscore.Internal_Hbond.Weighted>
0.0000

> <Gold.Chemscore.DEClash.Weighted>
0.0930

> <Gold.Chemscore.DEInternal.Weighted>
0.7819

> <Gold.Chemscore.Rot.Weighted>
6.7665

> <Gold.Chemscore.Internal.Correction.Weighted>
   9.000000E+99

> <Gold.Protein.RotatedTorsions>
[ 6907 6896 6895 6894 ] final  143.90 input  -60.11 | X-H torsion
[ 7974 7965 7964 7962 ] final  -58.92 input  175.53 | X-H torsion
[ 8008 7997 7996 7995 ] final   82.45 input   59.86 | X-H torsion
[ 10167 10162 10161 10158 ] final -158.36 input  -65.29 | X-H torsion
[ 10718 10713 10712 10709 ] final  -31.23 input   66.30 | X-H torsion
[ 10763 10752 10751 10750 ] final  -28.90 input  -60.55 | X-H torsion
[ 11005 11000 10999 10996 ] final   41.75 input  -57.11 | X-H torsion

> <Gold.Protein.ActiveResidues>
 VAL166  LYS551  ARG553  GLY616  TRP617  ASP618  TYR619  PRO620  LYS621  CYS622 
 ASP623  PHE694  ASN695  SER759  ASP760  ASP761  ALA762  ILE779  LEU786  VAL792 
 PHE793  MET794  SER795  GLU796  ALA797  LYS798  CYS799  TRP800  GLU811  SER814 

> <Gold.Protein.RotatedAtoms>
  152.2004  133.4837  159.5055 H   0  0  0  0  0  0  0  0  0  0  0  0  # atno 6907 bound_to 6896
  150.6968  134.1597  159.4181 H   0  0  0  0  0  0  0  0  0  0  0  0  # atno 6908 bound_to 6896
  151.9515  135.0167  160.0593 H   0  0  0  0  0  0  0  0  0  0  0  0  # atno 6909 bound_to 6896
  145.8336  140.8463  143.0071 H   0  0  0  0  0  0  0  0  0  0  0  0  # atno 7974 bound_to 7965
  155.9108  140.3427  155.6097 H   0  0  0  0  0  0  0  0  0  0  0  0  # atno 8008 bound_to 7997
  155.7390  140.0805  157.2273 H   0  0  0  0  0  0  0  0  0  0  0  0  # atno 8009 bound_to 7997
  154.4055  140.1574  156.2582 H   0  0  0  0  0  0  0  0  0  0  0  0  # atno 8010 bound_to 7997
  139.6698  143.9765  152.2277 H   0  0  0  0  0  0  0  0  0  0  0  0  # atno 10167 bound_to 10162
  156.3899  130.4371  149.7403 H   0  0  0  0  0  0  0  0  0  0  0  0  # atno 10718 bound_to 10713
  153.7558  135.6923  153.4936 H   0  0  0  0  0  0  0  0  0  0  0  0  # atno 10763 bound_to 10752
  153.1972  135.4449  155.0221 H   0  0  0  0  0  0  0  0  0  0  0  0  # atno 10764 bound_to 10752
  154.8171  135.3404  154.7076 H   0  0  0  0  0  0  0  0  0  0  0  0  # atno 10765 bound_to 10752
  140.1805  134.4110  155.8203 H   0  0  0  0  0  0  0  0  0  0  0  0  # atno 11005 bound_to 11000
  144.6738  140.0709  143.7473 LP  0  0  0  0  0  0  0  0  0  0  0  0  # atno 17320 bound_to 7965
  145.9543  139.2756  143.1193 LP  0  0  0  0  0  0  0  0  0  0  0  0  # atno 17321 bound_to 7965
  139.9526  144.6610  150.8157 LP  0  0  0  0  0  0  0  0  0  0  0  0  # atno 17342 bound_to 10162
  140.7614  143.3172  151.2704 LP  0  0  0  0  0  0  0  0  0  0  0  0  # atno 17343 bound_to 10162
  156.4460  130.7884  151.2905 LP  0  0  0  0  0  0  0  0  0  0  0  0  # atno 17370 bound_to 10713
  157.7498  131.0110  150.3328 LP  0  0  0  0  0  0  0  0  0  0  0  0  # atno 17371 bound_to 10713
  141.2222  133.6998  156.7922 LP  0  0  0  0  0  0  0  0  0  0  0  0  # atno 17394 bound_to 11000
  140.2273  134.8712  157.3440 LP  0  0  0  0  0  0  0  0  0  0  0  0  # atno 17395 bound_to 11000

$$$$
