AV-unprocessed.smi:130|AV-procd|sdf|1160|dock6
  -GOLD-   2262018303D 1   1.00000     0.00000
 Structure written by MMmdl.
 44 47  0  0  0  0  0  0  0  0  1 V2000
  152.8120  138.9574  156.8261 O   0  0  0  0  0  0  0  0  0  0  0  0
  151.9903  139.8385  156.5704 C   0  0  0  0  0  0  0  0  0  0  0  0
  151.1482  139.7198  155.2808 C   0  0  0  0  0  0  0  0  0  0  0  0
  150.2476  138.5450  155.2643 N   0  0  0  0  0  0  0  0  0  0  0  0
  148.8474  138.7586  155.3182 C   0  0  0  0  0  0  0  0  0  0  0  0
  148.3760  139.8958  155.3619 O   0  0  0  0  0  0  0  0  0  0  0  0
  148.0262  137.5532  155.3299 C   0  0  0  0  0  0  0  0  0  0  0  0
  146.6878  137.6601  155.3868 F   0  0  0  0  0  0  0  0  0  0  0  0
  148.5894  136.3281  155.2892 C   0  0  0  0  0  0  0  0  0  0  0  0
  149.9577  136.1348  155.2321 N   0  0  0  0  0  0  0  0  0  0  0  0
  150.5576  134.7462  155.1995 C   0  0  1  0  0  0  0  0  0  0  0  0
  150.2368  133.9982  156.4986 C   0  0  0  0  0  0  0  0  0  0  0  0
  148.9859  133.2367  156.1181 C   0  0  0  0  0  0  0  0  0  0  0  0
  149.2607  132.9082  154.6550 C   0  0  0  0  0  0  0  0  0  0  0  0
  149.9858  134.0247  154.1462 O   0  0  0  0  0  0  0  0  0  0  0  0
  150.8214  137.2513  155.2336 C   0  0  0  0  0  0  0  0  0  0  0  0
  152.0450  137.1002  155.2202 O   0  0  0  0  0  0  0  0  0  0  0  0
  151.7819  140.9159  157.3677 N   0  0  0  0  0  0  0  0  0  0  0  0
  150.7983  141.9712  157.0677 C   0  0  0  0  0  0  0  0  0  0  0  0
  150.8849  142.9886  158.2266 C   0  0  0  0  0  0  0  0  0  0  0  0
  151.9443  142.4038  159.1128 C   0  0  0  0  0  0  0  0  0  0  0  0
  152.4174  142.9399  160.3230 C   0  0  0  0  0  0  0  0  0  0  0  0
  153.4262  142.2374  161.0151 C   0  0  0  0  0  0  0  0  0  0  0  0
  153.9398  141.0277  160.4940 C   0  0  0  0  0  0  0  0  0  0  0  0
  153.4528  140.5033  159.2765 C   0  0  0  0  0  0  0  0  0  0  0  0
  152.4411  141.2132  158.5904 C   0  0  0  0  0  0  0  0  0  0  0  0
  150.5787  140.6404  155.1475 H   0  0  0  0  0  0  0  0  0  0  0  0
  151.8159  139.6900  154.4188 H   0  0  0  0  0  0  0  0  0  0  0  0
  147.9319  135.4721  155.3087 H   0  0  0  0  0  0  0  0  0  0  0  0
  151.6247  134.8799  155.0154 H   0  0  0  0  0  0  0  0  0  0  0  0
  151.0539  133.3083  156.7131 H   0  0  0  0  0  0  0  0  0  0  0  0
  150.1091  134.6704  157.3479 H   0  0  0  0  0  0  0  0  0  0  0  0
  148.8199  132.3501  156.7305 H   0  0  0  0  0  0  0  0  0  0  0  0
  148.1105  133.8816  156.2040 H   0  0  0  0  0  0  0  0  0  0  0  0
  149.8887  132.0198  154.5778 H   0  0  0  0  0  0  0  0  0  0  0  0
  148.3485  132.7302  154.0850 H   0  0  0  0  0  0  0  0  0  0  0  0
  151.0300  142.4584  156.1197 H   0  0  0  0  0  0  0  0  0  0  0  0
  149.7921  141.5552  157.0028 H   0  0  0  0  0  0  0  0  0  0  0  0
  151.1837  143.9774  157.8773 H   0  0  0  0  0  0  0  0  0  0  0  0
  149.9405  143.0744  158.7649 H   0  0  0  0  0  0  0  0  0  0  0  0
  152.0197  143.8651  160.7134 H   0  0  0  0  0  0  0  0  0  0  0  0
  153.8083  142.6259  161.9477 H   0  0  0  0  0  0  0  0  0  0  0  0
  154.7122  140.4987  161.0323 H   0  0  0  0  0  0  0  0  0  0  0  0
  153.8652  139.5789  158.9051 H   0  0  0  0  0  0  0  0  0  0  0  0
  1  2  2  0  0  0  0
  2  3  1  0  0  0  0
  2 18  1  0  0  0  0
  3  4  1  0  0  0  0
  3 27  1  0  0  0  0
  3 28  1  0  0  0  0
  4 16  1  0  0  0  0
  4  5  1  0  0  0  0
  5  6  2  0  0  0  0
  5  7  1  0  0  0  0
  7  8  1  0  0  0  0
  7  9  2  0  0  0  0
  9 10  1  0  0  0  0
  9 29  1  0  0  0  0
 10 11  1  0  0  0  0
 10 16  1  0  0  0  0
 11 15  1  0  0  0  0
 11 12  1  0  0  0  0
 11 30  1  0  0  0  0
 12 13  1  0  0  0  0
 12 31  1  0  0  0  0
 12 32  1  0  0  0  0
 13 14  1  0  0  0  0
 13 33  1  0  0  0  0
 13 34  1  0  0  0  0
 14 15  1  0  0  0  0
 14 35  1  0  0  0  0
 14 36  1  0  0  0  0
 16 17  2  0  0  0  0
 18 26  1  0  0  0  0
 18 19  1  0  0  0  0
 19 20  1  0  0  0  0
 19 37  1  0  0  0  0
 19 38  1  0  0  0  0
 20 21  1  0  0  0  0
 20 39  1  0  0  0  0
 20 40  1  0  0  0  0
 21 26  2  0  0  0  0
 21 22  1  0  0  0  0
 22 23  2  0  0  0  0
 22 41  1  0  0  0  0
 23 24  1  0  0  0  0
 23 42  1  0  0  0  0
 24 25  2  0  0  0  0
 24 43  1  0  0  0  0
 25 26  1  0  0  0  0
 25 44  1  0  0  0  0
M  END
> <s_m_source_file>
AV-unprocessed.smi

> <i_m_source_file_index>
130

> <i_lp_mmshare_version>
43012

> <i_f3d_flags>
0

> <s_epik_input>
W2NIXTFbY0hdW2NIXVtjSF1jKGMxMilOKFtDSDJdW0NIMl0yKUMoPU8pW0NIMl1uM2MoPU8pYyhGKVtjSF1uKGMzPU8pW0NAQEhdNFtDSDJdW0NIMl1bQ0gyXU80

> <s_epik_cmdline>
J2VwaWtfcHl0aG9uJywgJy1waCcsICc3LjAnLCAnLXRuJywgJzgnLCAnLW1hJywgJzIwMCcsICctbWV0YWxfYmluZGluZycsICctaW1hZScsICc8aW5maWxlLm1hZT4nLCAnLW9tYWUnLCAnPG91dGZpbGUubWFlPic=

> <r_lp_tautomer_probability>
1

> <r_epik_Ionization_Penalty>
1.67926e-06

> <r_epik_Ionization_Penalty_Charging>
3.62822e-09

> <r_epik_Ionization_Penalty_Neutral>
1.67563e-06

> <r_epik_State_Penalty>
-0

> <r_epik_Charging_Adjusted_Penalty>
3.62822e-09

> <i_epik_Tot_Q>
0

> <i_epik_Tot_abs_Q>
0

> <r_epik_Metal_State_Penalty>
-0

> <b_epik_Metal_Only>
0

> <s_epik_Chemistry_Notes>
This compound contains an acetal/aminal-like group ( X-CH(R)-Y where X, Y are N, S, or O) that may be acid/base labile, releasing an aldehyde.

> <s_lp_Force_Field>
OPLS_2005

> <r_lp_Energy>
53.4438

> <b_lp_Chiralities_Consistent>
1

> <s_lp_Variant>
AV-unprocessed.smi:130-2

> <Gold.Version>
5.8.1

> <Gold.Id.Protein>
6NUR|6NUR_protein|mol2

> <Gold.PLP.Fitness>
47.6902

> <Gold.PLP.PLP>
-42.0074

> <Gold.PLP.part.hbond>
-2.0000

> <Gold.PLP.part.metal>
0.0000

> <Gold.PLP.part.buried>
-4.5283

> <Gold.PLP.part.nonpolar>
-36.0930

> <Gold.PLP.part.repulsive>
0.3080

> <Gold.PLP.ligand.clash>
0.0000

> <Gold.PLP.ligand.torsion>
0.1277

> <Gold.PLP.Chemscore.Hbond>
1.9760

> <Gold.PLP.Chemscore.CHOScore>
0.0000

> <Gold.PLP.Chemscore.Metal>
0.0000

> <Gold.Chemscore.Hbonds>
donor molecule, donor type, donor heavy atom, donor atom, acceptor molecule, acceptor atom, score
      P1  H  7997  8009       L1     1  0.95
      P1  H 10752 10765       L1    17  0.94

> <Gold.PLP.Chemscore.Internal.Correction>
0.0103

> <Gold.Rescore>
     Score         DG    S(hbond)    S(metal)    S(lipo)     H(rot)  DE(clash)    DE(int)     intcor
     15.97     -18.98       1.90        0.00      95.50       1.57       0.06       2.95       ----

> <Gold.Chemscore.Fitness>
15.9698

> <Gold.Chemscore.DG>
-18.9813

> <Gold.Chemscore.ZeroCoef>
-5.4800

> <Gold.Chemscore.Hbond>
1.9006

> <Gold.Chemscore.Metal>
0.0000

> <Gold.Chemscore.Lipo>
95.5004

> <Gold.Chemscore.Internal_Hbond>
0.0000

> <Gold.Chemscore.DEClash>
0.0605

> <Gold.Chemscore.DEInternal>
2.9510

> <Gold.Chemscore.Rot>
1.5704

> <Gold.Chemscore.Internal.Correction>
   9.000000E+99

> <Gold.Chemscore.Hbonds>
donor molecule, donor type, donor heavy atom, donor atom, acceptor molecule, acceptor atom, score
      P1  H  7997  8009       L1     1  0.21
      P1  H 10752 10765       L1    17  0.91

> <Gold.Chemscore.Hbond.Weighted>
-6.3481

> <Gold.Chemscore.Metal.Weighted>
-0.0000

> <Gold.Chemscore.Lipo.Weighted>
-11.1735

> <Gold.Chemscore.Internal_Hbond.Weighted>
0.0000

> <Gold.Chemscore.DEClash.Weighted>
0.0605

> <Gold.Chemscore.DEInternal.Weighted>
2.9510

> <Gold.Chemscore.Rot.Weighted>
4.0203

> <Gold.Chemscore.Internal.Correction.Weighted>
   9.000000E+99

> <Gold.Protein.RotatedTorsions>
[ 6907 6896 6895 6894 ] final   32.30 input  -60.11 | X-H torsion
[ 7974 7965 7964 7962 ] final  -69.42 input  175.53 | X-H torsion
[ 8008 7997 7996 7995 ] final  169.37 input   59.86 | X-H torsion
[ 10167 10162 10161 10158 ] final -136.57 input  -65.29 | X-H torsion
[ 10718 10713 10712 10709 ] final  -86.18 input   66.30 | X-H torsion
[ 10763 10752 10751 10750 ] final -177.62 input  -60.55 | X-H torsion
[ 11005 11000 10999 10996 ] final  162.98 input  -57.11 | X-H torsion

> <Gold.Protein.ActiveResidues>
 VAL166  LYS551  ARG553  GLY616  TRP617  ASP618  TYR619  PRO620  LYS621  CYS622 
 ASP623  PHE694  ASN695  SER759  ASP760  ASP761  ALA762  ILE779  LEU786  VAL792 
 PHE793  MET794  SER795  GLU796  ALA797  LYS798  CYS799  TRP800  GLU811  SER814 

> <Gold.Protein.RotatedAtoms>
  152.0724  134.9524  160.0574 H   0  0  0  0  0  0  0  0  0  0  0  0  # atno 6907 bound_to 6896
  152.0845  133.4164  159.4524 H   0  0  0  0  0  0  0  0  0  0  0  0  # atno 6908 bound_to 6896
  150.6836  134.2863  159.4691 H   0  0  0  0  0  0  0  0  0  0  0  0  # atno 6909 bound_to 6896
  145.7040  140.9105  143.0716 H   0  0  0  0  0  0  0  0  0  0  0  0  # atno 7974 bound_to 7965
  156.1463  140.1566  156.8841 H   0  0  0  0  0  0  0  0  0  0  0  0  # atno 8008 bound_to 7997
  154.5031  140.0820  156.7877 H   0  0  0  0  0  0  0  0  0  0  0  0  # atno 8009 bound_to 7997
  155.3982  140.3413  155.4257 H   0  0  0  0  0  0  0  0  0  0  0  0  # atno 8010 bound_to 7997
  139.8664  143.7012  152.2644 H   0  0  0  0  0  0  0  0  0  0  0  0  # atno 10167 bound_to 10162
  155.9991  130.4756  150.4675 H   0  0  0  0  0  0  0  0  0  0  0  0  # atno 10718 bound_to 10713
  154.5578  135.2818  155.0948 H   0  0  0  0  0  0  0  0  0  0  0  0  # atno 10763 bound_to 10752
  154.2368  135.6364  153.5197 H   0  0  0  0  0  0  0  0  0  0  0  0  # atno 10764 bound_to 10752
  153.0020  135.5550  154.6163 H   0  0  0  0  0  0  0  0  0  0  0  0  # atno 10765 bound_to 10752
  140.2312  134.8122  157.3319 H   0  0  0  0  0  0  0  0  0  0  0  0  # atno 11005 bound_to 11000
  144.6960  139.8986  143.7457 LP  0  0  0  0  0  0  0  0  0  0  0  0  # atno 17320 bound_to 7965
  146.0772  139.3760  143.0487 LP  0  0  0  0  0  0  0  0  0  0  0  0  # atno 17321 bound_to 7965
  139.7325  144.7579  151.0780 LP  0  0  0  0  0  0  0  0  0  0  0  0  # atno 17342 bound_to 10162
  140.7767  143.5071  150.9698 LP  0  0  0  0  0  0  0  0  0  0  0  0  # atno 17343 bound_to 10162
  157.2693  131.0584  151.2270 LP  0  0  0  0  0  0  0  0  0  0  0  0  # atno 17370 bound_to 10713
  157.3356  130.7007  149.6350 LP  0  0  0  0  0  0  0  0  0  0  0  0  # atno 17371 bound_to 10713
  140.1748  134.4563  155.7808 LP  0  0  0  0  0  0  0  0  0  0  0  0  # atno 17394 bound_to 11000
  141.2217  133.6957  156.7769 LP  0  0  0  0  0  0  0  0  0  0  0  0  # atno 17395 bound_to 11000

$$$$
