AV-unprocessed.smi:308|AV-procd|sdf|2290|dock8
  -GOLD-   2262022193D 1   1.00000     0.00000
 Structure written by MMmdl.
 50 51  0  0  0  0  0  0  0  0  4 V2000
  147.1158  131.6100  154.3453 C   0  0  0  0  0  0  0  0  0  0  0  0
  147.6822  132.5561  153.2721 C   0  0  2  0  0  0  0  0  0  0  0  0
  149.1322  132.9860  153.5614 C   0  0  0  0  0  0  0  0  0  0  0  0
  149.2184  134.0090  154.7080 C   0  0  0  0  0  0  0  0  0  0  0  0
  148.3634  135.1963  154.4323 N   0  3  2  0  0  0  0  0  0  0  0  0
  148.5222  136.2952  155.4235 C   0  0  0  0  0  0  0  0  0  0  0  0
  150.0022  136.6575  155.6577 C   0  0  0  0  0  0  0  0  0  0  0  0
  150.4271  137.6639  154.6815 N   0  5  0  0  0  0  0  0  0  0  0  0
  150.5272  138.9966  154.9336 C   0  0  0  0  0  0  0  0  0  0  0  0
  150.4320  139.9258  154.1241 O   0  0  0  0  0  0  0  0  0  0  0  0
  150.7760  139.2474  156.2315 N   0  0  0  0  0  0  0  0  0  0  0  0
  150.9119  140.4964  156.8959 C   0  0  0  0  0  0  0  0  0  0  0  0
  151.7567  140.5536  158.0232 C   0  0  0  0  0  0  0  0  0  0  0  0
  151.9057  141.7658  158.7277 C   0  0  0  0  0  0  0  0  0  0  0  0
  151.1973  142.9178  158.3059 C   0  0  0  0  0  0  0  0  0  0  0  0
  151.2921  144.1659  158.9586 N   0  0  0  0  0  0  0  0  0  0  0  0
  152.5031  144.9668  158.8183 C   0  0  0  0  0  0  0  0  0  0  0  0
  150.1659  144.6641  159.7372 C   0  0  0  0  0  0  0  0  0  0  0  0
  150.3859  142.8091  157.2256 N   0  3  0  0  0  0  0  0  0  0  0  0
  150.2148  141.6693  156.5219 C   0  0  0  0  0  0  0  0  0  0  0  0
  146.9445  134.8132  154.2187 C   0  0  0  0  0  0  0  0  0  0  0  0
  146.8094  133.8069  153.0618 C   0  0  0  0  0  0  0  0  0  0  0  0
  147.0686  132.0809  155.3269 H   0  0  0  0  0  0  0  0  0  0  0  0
  147.7299  130.7141  154.4391 H   0  0  0  0  0  0  0  0  0  0  0  0
  146.1068  131.2880  154.0863 H   0  0  0  0  0  0  0  0  0  0  0  0
  147.6850  131.9947  152.3369 H   0  0  0  0  0  0  0  0  0  0  0  0
  149.7471  132.1146  153.7891 H   0  0  0  0  0  0  0  0  0  0  0  0
  149.5598  133.4299  152.6612 H   0  0  0  0  0  0  0  0  0  0  0  0
  148.9185  133.5517  155.6515 H   0  0  0  0  0  0  0  0  0  0  0  0
  150.2571  134.3173  154.8295 H   0  0  0  0  0  0  0  0  0  0  0  0
  148.0049  137.1923  155.0791 H   0  0  0  0  0  0  0  0  0  0  0  0
  148.0426  136.0228  156.3647 H   0  0  0  0  0  0  0  0  0  0  0  0
  150.1180  137.0226  156.6781 H   0  0  0  0  0  0  0  0  0  0  0  0
  150.5953  135.7439  155.6011 H   0  0  0  0  0  0  0  0  0  0  0  0
  150.9402  138.4314  156.8029 H   0  0  0  0  0  0  0  0  0  0  0  0
  152.2949  139.6746  158.3471 H   0  0  0  0  0  0  0  0  0  0  0  0
  152.5634  141.7897  159.5836 H   0  0  0  0  0  0  0  0  0  0  0  0
  153.3665  144.4260  159.2074 H   0  0  0  0  0  0  0  0  0  0  0  0
  152.4243  145.9067  159.3650 H   0  0  0  0  0  0  0  0  0  0  0  0
  152.6858  145.2055  157.7701 H   0  0  0  0  0  0  0  0  0  0  0  0
  149.2806  144.7653  159.1087 H   0  0  0  0  0  0  0  0  0  0  0  0
  150.3824  145.6424  160.1670 H   0  0  0  0  0  0  0  0  0  0  0  0
  149.9364  143.9838  160.5578 H   0  0  0  0  0  0  0  0  0  0  0  0
  149.5183  141.7426  155.7004 H   0  0  0  0  0  0  0  0  0  0  0  0
  146.5328  134.4015  155.1409 H   0  0  0  0  0  0  0  0  0  0  0  0
  146.3589  135.7022  153.9810 H   0  0  0  0  0  0  0  0  0  0  0  0
  147.1067  134.2969  152.1333 H   0  0  0  0  0  0  0  0  0  0  0  0
  145.7645  133.5226  152.9315 H   0  0  0  0  0  0  0  0  0  0  0  0
  148.6777  135.5905  153.5561 H   0  0  0  0  0  0  0  0  0  0  0  0
  149.8694  143.6363  156.9264 H   0  0  0  0  0  0  0  0  0  0  0  0
  1  2  1  0  0  0  0
  1 23  1  0  0  0  0
  1 24  1  0  0  0  0
  1 25  1  0  0  0  0
  2 22  1  0  0  0  0
  2  3  1  0  0  0  0
  2 26  1  0  0  0  0
  3  4  1  0  0  0  0
  3 27  1  0  0  0  0
  3 28  1  0  0  0  0
  4  5  1  0  0  0  0
  4 29  1  0  0  0  0
  4 30  1  0  0  0  0
  5  6  1  0  0  0  0
  5 21  1  0  0  0  0
  5 49  1  0  0  0  0
  6  7  1  0  0  0  0
  6 31  1  0  0  0  0
  6 32  1  0  0  0  0
  7  8  1  0  0  0  0
  7 33  1  0  0  0  0
  7 34  1  0  0  0  0
  8  9  1  0  0  0  0
  9 10  2  0  0  0  0
  9 11  1  0  0  0  0
 11 12  1  0  0  0  0
 11 35  1  0  0  0  0
 12 20  1  0  0  0  0
 12 13  2  0  0  0  0
 13 14  1  0  0  0  0
 13 36  1  0  0  0  0
 14 15  2  0  0  0  0
 14 37  1  0  0  0  0
 15 16  1  0  0  0  0
 15 19  1  0  0  0  0
 16 17  1  0  0  0  0
 16 18  1  0  0  0  0
 17 38  1  0  0  0  0
 17 39  1  0  0  0  0
 17 40  1  0  0  0  0
 18 41  1  0  0  0  0
 18 42  1  0  0  0  0
 18 43  1  0  0  0  0
 19 20  2  0  0  0  0
 19 50  1  0  0  0  0
 20 44  1  0  0  0  0
 21 22  1  0  0  0  0
 21 45  1  0  0  0  0
 21 46  1  0  0  0  0
 22 47  1  0  0  0  0
 22 48  1  0  0  0  0
M  CHG  1   5   1
M  CHG  1   8  -1
M  CHG  1  19   1
M  END
> <s_m_source_file>
AV-unprocessed.smi

> <i_m_source_file_index>
308

> <i_lp_mmshare_version>
43012

> <i_f3d_flags>
0

> <s_epik_input>
W0NIM11bQ0hdMVtDSDJdW0NIMl1OKFtDSDJdW0NIMl0xKVtDSDJdW0NIMl1bTkhdQyg9TylbTkhdYzJbY0hdW2NIXWMoTihbQ0gzXSlbQ0gzXSluW2NIXTI=

> <s_epik_cmdline>
J2VwaWtfcHl0aG9uJywgJy1waCcsICc3LjAnLCAnLXRuJywgJzgnLCAnLW1hJywgJzIwMCcsICctbWV0YWxfYmluZGluZycsICctaW1hZScsICc8aW5maWxlLm1hZT4nLCAnLW9tYWUnLCAnPG91dGZpbGUubWFlPic=

> <r_lp_tautomer_probability>
0.999994

> <r_epik_Ionization_Penalty>
7.42107

> <r_epik_Ionization_Penalty_Charging>
7.42107

> <r_epik_Ionization_Penalty_Neutral>
3.68925e-06

> <r_epik_State_Penalty>
7.0982

> <r_epik_Charging_Adjusted_Penalty>
14.5193

> <i_epik_Tot_Q>
1

> <i_epik_Tot_abs_Q>
3

> <r_epik_Metal_State_Penalty>
3.28646

> <b_epik_Metal_Only>
1

> <s_lp_Force_Field>
OPLS_2005

> <r_lp_Energy>
21.4752

> <b_lp_Chiralities_Consistent>
1

> <s_lp_Variant>
AV-unprocessed.smi:308-6

> <Gold.Version>
5.8.1

> <Gold.Id.Protein>
6NUR|6NUR_protein|mol2

> <Gold.PLP.Fitness>
50.4251

> <Gold.PLP.PLP>
-39.3703

> <Gold.PLP.part.hbond>
-2.9551

> <Gold.PLP.part.metal>
0.0000

> <Gold.PLP.part.buried>
-6.6250

> <Gold.PLP.part.nonpolar>
-30.5764

> <Gold.PLP.part.repulsive>
0.8764

> <Gold.PLP.ligand.clash>
0.0000

> <Gold.PLP.ligand.torsion>
2.0366

> <Gold.PLP.Chemscore.Hbond>
5.0000

> <Gold.PLP.Chemscore.CHOScore>
0.0000

> <Gold.PLP.Chemscore.Metal>
0.0000

> <Gold.Chemscore.Hbonds>
donor molecule, donor type, donor heavy atom, donor atom, acceptor molecule, acceptor atom, score
      L1  H     5    49       P1  7948  2.00
      L1  H    19    50       P1  8028  2.00
      P1  H  7989  7998       L1    10  1.00

> <Gold.PLP.Chemscore.Internal.Correction>
0.1280

> <Gold.Rescore>
     Score         DG    S(hbond)    S(metal)    S(lipo)     H(rot)  DE(clash)    DE(int)     intcor
     18.18     -21.45       2.92        0.00      84.33       1.42       0.07       3.20       ----

> <Gold.Chemscore.Fitness>
18.1768

> <Gold.Chemscore.DG>
-21.4473

> <Gold.Chemscore.ZeroCoef>
-5.4800

> <Gold.Chemscore.Hbond>
2.9179

> <Gold.Chemscore.Metal>
0.0000

> <Gold.Chemscore.Lipo>
84.3345

> <Gold.Chemscore.Internal_Hbond>
0.0000

> <Gold.Chemscore.DEClash>
0.0717

> <Gold.Chemscore.DEInternal>
3.1988

> <Gold.Chemscore.Rot>
1.4241

> <Gold.Chemscore.Internal.Correction>
   9.000000E+99

> <Gold.Chemscore.Hbonds>
donor molecule, donor type, donor heavy atom, donor atom, acceptor molecule, acceptor atom, score
      L1  H     5    49       P1  7948  0.97
      L1  H    19    50       P1  8028  0.97
      P1  H  7989  7998       L1    10  0.99

> <Gold.Chemscore.Hbond.Weighted>
-9.7458

> <Gold.Chemscore.Metal.Weighted>
-0.0000

> <Gold.Chemscore.Lipo.Weighted>
-9.8671

> <Gold.Chemscore.Internal_Hbond.Weighted>
0.0000

> <Gold.Chemscore.DEClash.Weighted>
0.0717

> <Gold.Chemscore.DEInternal.Weighted>
3.1988

> <Gold.Chemscore.Rot.Weighted>
3.6456

> <Gold.Chemscore.Internal.Correction.Weighted>
   9.000000E+99

> <Gold.Protein.RotatedTorsions>
[ 6907 6896 6895 6894 ] final  132.10 input  -60.11 | X-H torsion
[ 7974 7965 7964 7962 ] final    5.67 input  175.53 | X-H torsion
[ 8008 7997 7996 7995 ] final -114.02 input   59.86 | X-H torsion
[ 10167 10162 10161 10158 ] final  -80.08 input  -65.29 | X-H torsion
[ 10718 10713 10712 10709 ] final   34.21 input   66.30 | X-H torsion
[ 10763 10752 10751 10750 ] final -110.75 input  -60.55 | X-H torsion
[ 11005 11000 10999 10996 ] final  -24.20 input  -57.11 | X-H torsion

> <Gold.Protein.ActiveResidues>
 VAL166  LYS551  ARG553  GLY616  TRP617  ASP618  TYR619  PRO620  LYS621  CYS622 
 ASP623  PHE694  ASN695  SER759  ASP760  ASP761  ALA762  ILE779  LEU786  VAL792 
 PHE793  MET794  SER795  GLU796  ALA797  LYS798  CYS799  TRP800  GLU811  SER814 

> <Gold.Protein.RotatedAtoms>
  152.3359  133.6011  159.5841 H   0  0  0  0  0  0  0  0  0  0  0  0  # atno 6907 bound_to 6896
  150.7450  133.9797  159.3581 H   0  0  0  0  0  0  0  0  0  0  0  0  # atno 6908 bound_to 6896
  151.7666  135.0797  160.0404 H   0  0  0  0  0  0  0  0  0  0  0  0  # atno 6909 bound_to 6896
  146.2439  140.0349  142.8387 H   0  0  0  0  0  0  0  0  0  0  0  0  # atno 7974 bound_to 7965
  155.0298  140.0393  157.2470 H   0  0  0  0  0  0  0  0  0  0  0  0  # atno 8008 bound_to 7997
  154.7306  140.2730  155.6436 H   0  0  0  0  0  0  0  0  0  0  0  0  # atno 8009 bound_to 7997
  156.2840  140.2685  156.2005 H   0  0  0  0  0  0  0  0  0  0  0  0  # atno 8010 bound_to 7997
  140.4535  143.2475  151.8454 H   0  0  0  0  0  0  0  0  0  0  0  0  # atno 10167 bound_to 10162
  157.3074  130.7382  149.6704 H   0  0  0  0  0  0  0  0  0  0  0  0  # atno 10718 bound_to 10713
  154.8264  135.4552  154.0933 H   0  0  0  0  0  0  0  0  0  0  0  0  # atno 10763 bound_to 10752
  153.2243  135.6898  153.7969 H   0  0  0  0  0  0  0  0  0  0  0  0  # atno 10764 bound_to 10752
  153.7375  135.3317  155.3274 H   0  0  0  0  0  0  0  0  0  0  0  0  # atno 10765 bound_to 10752
  140.8823  133.7645  156.0317 H   0  0  0  0  0  0  0  0  0  0  0  0  # atno 11005 bound_to 11000
  145.1121  140.9411  143.4650 LP  0  0  0  0  0  0  0  0  0  0  0  0  # atno 17320 bound_to 7965
  145.0565  139.3139  143.5902 LP  0  0  0  0  0  0  0  0  0  0  0  0  # atno 17321 bound_to 7965
  139.4799  144.5092  151.8955 LP  0  0  0  0  0  0  0  0  0  0  0  0  # atno 17342 bound_to 10162
  140.4179  144.2282  150.5887 LP  0  0  0  0  0  0  0  0  0  0  0  0  # atno 17343 bound_to 10162
  155.9675  130.4261  150.4685 LP  0  0  0  0  0  0  0  0  0  0  0  0  # atno 17370 bound_to 10713
  157.2678  131.0580  151.2279 LP  0  0  0  0  0  0  0  0  0  0  0  0  # atno 17371 bound_to 10713
  140.8446  134.3025  157.5300 LP  0  0  0  0  0  0  0  0  0  0  0  0  # atno 17394 bound_to 11000
  139.8721  134.9435  156.3855 LP  0  0  0  0  0  0  0  0  0  0  0  0  # atno 17395 bound_to 11000

$$$$
