AV-unprocessed.smi:2492|AV-procd|sdf|9811|dock1
  -GOLD-   2272013443D 1   1.00000     0.00000
 Structure written by MMmdl.
 33 34  0  0  0  0  0  0  0  0  1 V2000
  154.1587  141.2099  159.1916 C   0  0  0  0  0  0  0  0  0  0  0  0
  154.3318  142.6675  160.2544 S   0  0  0  0  0  0  0  0  0  0  0  0
  152.8766  143.6201  159.7329 C   0  0  2  0  0  0  0  0  0  0  0  0
  153.0140  144.1663  158.3141 C   0  0  0  0  0  0  0  0  0  0  0  0
  151.9919  145.3017  158.2458 C   0  0  0  0  0  0  0  0  0  0  0  0
  151.8826  145.8610  159.6774 C   0  0  1  0  0  0  0  0  0  0  0  0
  150.4838  145.9754  160.0862 N   0  0  0  0  0  0  0  0  0  0  0  0
  149.6112  144.9620  160.1865 C   0  0  0  0  0  0  0  0  0  0  0  0
  149.8922  143.7897  159.9361 O   0  0  0  0  0  0  0  0  0  0  0  0
  148.4059  145.3982  160.5900 N   0  0  0  0  0  0  0  0  0  0  0  0
  147.2448  144.6250  160.8435 C   0  0  0  0  0  0  0  0  0  0  0  0
  146.0052  145.0853  161.0135 N   0  0  0  0  0  0  0  0  0  0  0  0
  145.3245  143.9229  161.2089 C   0  0  0  0  0  0  0  0  0  0  0  0
  143.8540  143.8846  161.4504 C   0  0  0  0  0  0  0  0  0  0  0  0
  146.0498  142.8108  161.1710 N   0  0  0  0  0  0  0  0  0  0  0  0
  147.3493  143.2781  160.9236 O   0  0  0  0  0  0  0  0  0  0  0  0
  152.6366  144.8708  160.5841 C   0  0  0  0  0  0  0  0  0  0  0  0
  154.9872  140.5225  159.3622 H   0  0  0  0  0  0  0  0  0  0  0  0
  154.1629  141.5017  158.1413 H   0  0  0  0  0  0  0  0  0  0  0  0
  153.2272  140.6859  159.4054 H   0  0  0  0  0  0  0  0  0  0  0  0
  151.9966  142.9765  159.7774 H   0  0  0  0  0  0  0  0  0  0  0  0
  154.0164  144.5706  158.1646 H   0  0  0  0  0  0  0  0  0  0  0  0
  152.8449  143.4044  157.5524 H   0  0  0  0  0  0  0  0  0  0  0  0
  152.2833  146.0679  157.5267 H   0  0  0  0  0  0  0  0  0  0  0  0
  151.0339  144.8975  157.9143 H   0  0  0  0  0  0  0  0  0  0  0  0
  152.3843  146.8294  159.7228 H   0  0  0  0  0  0  0  0  0  0  0  0
  150.1567  146.9033  160.3121 H   0  0  0  0  0  0  0  0  0  0  0  0
  148.3102  146.3907  160.7458 H   0  0  0  0  0  0  0  0  0  0  0  0
  143.5085  142.8607  161.5986 H   0  0  0  0  0  0  0  0  0  0  0  0
  143.3220  144.3083  160.5984 H   0  0  0  0  0  0  0  0  0  0  0  0
  143.6035  144.4650  162.3387 H   0  0  0  0  0  0  0  0  0  0  0  0
  152.1035  144.6425  161.5081 H   0  0  0  0  0  0  0  0  0  0  0  0
  153.5932  145.3107  160.8701 H   0  0  0  0  0  0  0  0  0  0  0  0
  1  2  1  0  0  0  0
  1 18  1  0  0  0  0
  1 19  1  0  0  0  0
  1 20  1  0  0  0  0
  2  3  1  0  0  0  0
  3 17  1  0  0  0  0
  3  4  1  0  0  0  0
  3 21  1  0  0  0  0
  4  5  1  0  0  0  0
  4 22  1  0  0  0  0
  4 23  1  0  0  0  0
  5  6  1  0  0  0  0
  5 24  1  0  0  0  0
  5 25  1  0  0  0  0
  6  7  1  0  0  0  0
  6 17  1  0  0  0  0
  6 26  1  0  0  0  0
  7  8  1  0  0  0  0
  7 27  1  0  0  0  0
  8  9  2  0  0  0  0
  8 10  1  0  0  0  0
 10 11  1  0  0  0  0
 10 28  1  0  0  0  0
 11 16  1  0  0  0  0
 11 12  2  0  0  0  0
 12 13  1  0  0  0  0
 13 14  1  0  0  0  0
 13 15  2  0  0  0  0
 14 29  1  0  0  0  0
 14 30  1  0  0  0  0
 14 31  1  0  0  0  0
 15 16  1  0  0  0  0
 17 32  1  0  0  0  0
 17 33  1  0  0  0  0
M  END
> <s_m_source_file>
AV-unprocessed.smi

> <i_m_source_file_index>
2492

> <i_lp_mmshare_version>
43012

> <i_f3d_flags>
0

> <s_epik_input>
W0NIM11TW0NAQEhdMVtDSDJdW0NIMl1bQ0BIXShbQ0gyXTEpW05IXUMoPU8pW05IXWMybmMoW0NIM10pbm8y

> <s_epik_cmdline>
J2VwaWtfcHl0aG9uJywgJy1waCcsICc3LjAnLCAnLXRuJywgJzgnLCAnLW1hJywgJzIwMCcsICctbWV0YWxfYmluZGluZycsICctaW1hZScsICc8aW5maWxlLm1hZT4nLCAnLW9tYWUnLCAnPG91dGZpbGUubWFlPic=

> <r_lp_tautomer_probability>
1

> <r_epik_Ionization_Penalty>
3.56659e-05

> <r_epik_Ionization_Penalty_Charging>
0

> <r_epik_Ionization_Penalty_Neutral>
3.56659e-05

> <r_epik_State_Penalty>
-0

> <r_epik_Charging_Adjusted_Penalty>
0

> <i_epik_Tot_Q>
0

> <i_epik_Tot_abs_Q>
0

> <r_epik_Metal_State_Penalty>
0.0146047

> <b_epik_Metal_Only>
0

> <s_lp_Force_Field>
OPLS_2005

> <r_lp_Energy>
14.5779

> <b_lp_Chiralities_Consistent>
1

> <s_lp_Variant>
AV-unprocessed.smi:2492-1

> <Gold.Version>
5.8.1

> <Gold.Id.Protein>
6NUR|6NUR_protein|mol2

> <Gold.PLP.Fitness>
42.9142

> <Gold.PLP.PLP>
-40.0609

> <Gold.PLP.part.hbond>
-3.9607

> <Gold.PLP.part.metal>
0.0000

> <Gold.PLP.part.buried>
-7.2616

> <Gold.PLP.part.nonpolar>
-28.1755

> <Gold.PLP.part.repulsive>
2.1141

> <Gold.PLP.ligand.clash>
0.0000

> <Gold.PLP.ligand.torsion>
0.0768

> <Gold.PLP.Chemscore.Hbond>
1.0000

> <Gold.PLP.Chemscore.CHOScore>
0.0000

> <Gold.PLP.Chemscore.Metal>
0.0000

> <Gold.Chemscore.Hbonds>
donor molecule, donor type, donor heavy atom, donor atom, acceptor molecule, acceptor atom, score
      P1  H  6933  6944       L1    16  1.00
      P1  H  6934  6946       L1    15  0.13

> <Gold.PLP.Chemscore.Internal.Correction>
0.0070

> <Gold.Rescore>
     Score         DG    S(hbond)    S(metal)    S(lipo)     H(rot)  DE(clash)    DE(int)     intcor
     12.01     -15.69       0.98        0.00      87.35       1.28       0.04       3.64       ----

> <Gold.Chemscore.Fitness>
12.0065

> <Gold.Chemscore.DG>
-15.6920

> <Gold.Chemscore.ZeroCoef>
-5.4800

> <Gold.Chemscore.Hbond>
0.9798

> <Gold.Chemscore.Metal>
0.0000

> <Gold.Chemscore.Lipo>
87.3516

> <Gold.Chemscore.Internal_Hbond>
0.0000

> <Gold.Chemscore.DEClash>
0.0426

> <Gold.Chemscore.DEInternal>
3.6428

> <Gold.Chemscore.Rot>
1.2815

> <Gold.Chemscore.Internal.Correction>
   9.000000E+99

> <Gold.Chemscore.Hbonds>
donor molecule, donor type, donor heavy atom, donor atom, acceptor molecule, acceptor atom, score
      P1  H  6933  6944       L1    16  0.87

> <Gold.Chemscore.Hbond.Weighted>
-3.2726

> <Gold.Chemscore.Metal.Weighted>
-0.0000

> <Gold.Chemscore.Lipo.Weighted>
-10.2201

> <Gold.Chemscore.Internal_Hbond.Weighted>
0.0000

> <Gold.Chemscore.DEClash.Weighted>
0.0426

> <Gold.Chemscore.DEInternal.Weighted>
3.6428

> <Gold.Chemscore.Rot.Weighted>
3.2808

> <Gold.Chemscore.Internal.Correction.Weighted>
   9.000000E+99

> <Gold.Protein.RotatedTorsions>
[ 6907 6896 6895 6894 ] final  -76.08 input  -60.11 | X-H torsion
[ 7974 7965 7964 7962 ] final -104.12 input  175.53 | X-H torsion
[ 8008 7997 7996 7995 ] final -166.73 input   59.86 | X-H torsion
[ 10167 10162 10161 10158 ] final   79.80 input  -65.29 | X-H torsion
[ 10718 10713 10712 10709 ] final  -34.19 input   66.30 | X-H torsion
[ 10763 10752 10751 10750 ] final  -97.59 input  -60.55 | X-H torsion
[ 11005 11000 10999 10996 ] final  -86.29 input  -57.11 | X-H torsion

> <Gold.Protein.ActiveResidues>
 VAL166  LYS551  ARG553  GLY616  TRP617  ASP618  TYR619  PRO620  LYS621  CYS622 
 ASP623  PHE694  ASN695  SER759  ASP760  ASP761  ALA762  ILE779  LEU786  VAL792 
 PHE793  MET794  SER795  GLU796  ALA797  LYS798  CYS799  TRP800  GLU811  SER814 

> <Gold.Protein.RotatedAtoms>
  150.7038  134.4625  159.5387 H   0  0  0  0  0  0  0  0  0  0  0  0  # atno 6907 bound_to 6896
  152.2297  134.8331  160.0484 H   0  0  0  0  0  0  0  0  0  0  0  0  # atno 6908 bound_to 6896
  151.9151  133.3536  159.3914 H   0  0  0  0  0  0  0  0  0  0  0  0  # atno 6909 bound_to 6896
  145.2472  140.9226  143.3116 H   0  0  0  0  0  0  0  0  0  0  0  0  # atno 7974 bound_to 7965
  155.8679  140.0988  157.1570 H   0  0  0  0  0  0  0  0  0  0  0  0  # atno 8008 bound_to 7997
  154.3995  140.1352  156.4105 H   0  0  0  0  0  0  0  0  0  0  0  0  # atno 8009 bound_to 7997
  155.7783  140.3459  155.5286 H   0  0  0  0  0  0  0  0  0  0  0  0  # atno 8010 bound_to 7997
  139.9565  144.5990  150.8112 H   0  0  0  0  0  0  0  0  0  0  0  0  # atno 10167 bound_to 10162
  156.3535  130.4312  149.7684 H   0  0  0  0  0  0  0  0  0  0  0  0  # atno 10718 bound_to 10713
  154.7341  135.5041  153.9013 H   0  0  0  0  0  0  0  0  0  0  0  0  # atno 10763 bound_to 10752
  153.0978  135.6677  153.9738 H   0  0  0  0  0  0  0  0  0  0  0  0  # atno 10764 bound_to 10752
  153.9532  135.3055  155.3417 H   0  0  0  0  0  0  0  0  0  0  0  0  # atno 10765 bound_to 10752
  141.1632  133.7446  156.9139 H   0  0  0  0  0  0  0  0  0  0  0  0  # atno 11005 bound_to 11000
  144.9535  139.4057  143.6391 LP  0  0  0  0  0  0  0  0  0  0  0  0  # atno 17320 bound_to 7965
  146.3312  139.8554  142.8865 LP  0  0  0  0  0  0  0  0  0  0  0  0  # atno 17321 bound_to 7965
  140.7567  143.3070  151.2937 LP  0  0  0  0  0  0  0  0  0  0  0  0  # atno 17342 bound_to 10162
  139.6587  144.0228  152.2678 LP  0  0  0  0  0  0  0  0  0  0  0  0  # atno 17343 bound_to 10162
  156.4875  130.8069  151.3081 LP  0  0  0  0  0  0  0  0  0  0  0  0  # atno 17370 bound_to 10713
  157.7464  130.9986  150.2858 LP  0  0  0  0  0  0  0  0  0  0  0  0  # atno 17371 bound_to 10713
  140.1497  134.9238  157.2577 LP  0  0  0  0  0  0  0  0  0  0  0  0  # atno 17394 bound_to 11000
  140.2737  134.3430  155.7365 LP  0  0  0  0  0  0  0  0  0  0  0  0  # atno 17395 bound_to 11000

$$$$
