AV-unprocessed.smi:3337|AV-procd|sdf|12865|dock5
  -GOLD-   2272019263D 1   1.00000     0.00000
 Structure written by MMmdl.
 46 47  0  0  0  0  0  0  0  0  2 V2000
  153.4750  142.0795  161.5336 C   0  0  0  0  0  0  0  0  0  0  0  0
  152.9326  142.6239  160.2043 C   0  0  2  0  0  0  0  0  0  0  0  0
  152.3254  144.0276  160.3789 C   0  0  0  0  0  0  0  0  0  0  0  0
  151.7218  144.5552  159.0641 C   0  0  1  0  0  0  0  0  0  0  0  0
  152.7897  144.9986  158.0488 C   0  0  0  0  0  0  0  0  0  0  0  0
  150.7412  143.5262  158.4670 C   0  0  0  0  0  0  0  0  0  0  0  0
  151.3757  142.1928  158.2955 N   0  3  2  0  0  0  0  0  0  0  0  0
  150.4866  141.2384  157.5856 C   0  0  0  0  0  0  0  0  0  0  0  0
  150.7652  141.1867  156.0712 C   0  0  0  0  0  0  0  0  0  0  0  0
  149.5281  141.1594  155.3008 N   0  0  0  0  0  0  0  0  0  0  0  0
  149.2917  140.3522  154.2535 C   0  0  0  0  0  0  0  0  0  0  0  0
  150.1360  139.5709  153.8133 O   0  0  0  0  0  0  0  0  0  0  0  0
  147.8977  140.4556  153.6067 C   0  0  1  0  0  0  0  0  0  0  0  0
  147.1921  139.0912  153.4710 C   0  0  0  0  0  0  0  0  0  0  0  0
  147.0611  141.4166  154.3168 N   0  0  0  0  0  0  0  0  0  0  0  0
  146.5156  142.5591  153.8942 C   0  0  0  0  0  0  0  0  0  0  0  0
  145.8254  143.2027  154.8252 N   0  0  0  0  0  0  0  0  0  0  0  0
  145.9967  142.3423  155.8723 C   0  0  0  0  0  0  0  0  0  0  0  0
  146.7325  141.2591  155.6235 N   0  0  0  0  0  0  0  0  0  0  0  0
  151.8953  141.6670  159.5858 C   0  0  0  0  0  0  0  0  0  0  0  0
  152.6816  141.9751  162.2745 H   0  0  0  0  0  0  0  0  0  0  0  0
  154.2334  142.7439  161.9491 H   0  0  0  0  0  0  0  0  0  0  0  0
  153.9357  141.1001  161.3994 H   0  0  0  0  0  0  0  0  0  0  0  0
  153.7774  142.6958  159.5182 H   0  0  0  0  0  0  0  0  0  0  0  0
  151.5419  143.9880  161.1373 H   0  0  0  0  0  0  0  0  0  0  0  0
  153.0762  144.7237  160.7552 H   0  0  0  0  0  0  0  0  0  0  0  0
  151.1462  145.4487  159.3095 H   0  0  0  0  0  0  0  0  0  0  0  0
  153.4072  144.1652  157.7139 H   0  0  0  0  0  0  0  0  0  0  0  0
  153.4517  145.7504  158.4795 H   0  0  0  0  0  0  0  0  0  0  0  0
  152.3275  145.4396  157.1651 H   0  0  0  0  0  0  0  0  0  0  0  0
  149.8701  143.4235  159.1162 H   0  0  0  0  0  0  0  0  0  0  0  0
  150.3718  143.8923  157.5080 H   0  0  0  0  0  0  0  0  0  0  0  0
  150.5767  140.2464  158.0311 H   0  0  0  0  0  0  0  0  0  0  0  0
  149.4506  141.5479  157.7309 H   0  0  0  0  0  0  0  0  0  0  0  0
  151.3778  142.0368  155.7649 H   0  0  0  0  0  0  0  0  0  0  0  0
  151.3249  140.2909  155.8059 H   0  0  0  0  0  0  0  0  0  0  0  0
  148.7870  141.7762  155.6016 H   0  0  0  0  0  0  0  0  0  0  0  0
  148.0497  140.8456  152.5992 H   0  0  0  0  0  0  0  0  0  0  0  0
  147.7812  138.3987  152.8688 H   0  0  0  0  0  0  0  0  0  0  0  0
  146.2231  139.2017  152.9835 H   0  0  0  0  0  0  0  0  0  0  0  0
  147.0207  138.6239  154.4417 H   0  0  0  0  0  0  0  0  0  0  0  0
  146.6279  142.9300  152.8861 H   0  0  0  0  0  0  0  0  0  0  0  0
  145.5706  142.5222  156.8482 H   0  0  0  0  0  0  0  0  0  0  0  0
  152.3631  140.6949  159.4356 H   0  0  0  0  0  0  0  0  0  0  0  0
  151.0639  141.5114  160.2753 H   0  0  0  0  0  0  0  0  0  0  0  0
  152.1736  142.3388  157.6934 H   0  0  0  0  0  0  0  0  0  0  0  0
  1  2  1  0  0  0  0
  1 21  1  0  0  0  0
  1 22  1  0  0  0  0
  1 23  1  0  0  0  0
  2 20  1  0  0  0  0
  2  3  1  0  0  0  0
  2 24  1  0  0  0  0
  3  4  1  0  0  0  0
  3 25  1  0  0  0  0
  3 26  1  0  0  0  0
  4  5  1  0  0  0  0
  4  6  1  0  0  0  0
  4 27  1  0  0  0  0
  5 28  1  0  0  0  0
  5 29  1  0  0  0  0
  5 30  1  0  0  0  0
  6  7  1  0  0  0  0
  6 31  1  0  0  0  0
  6 32  1  0  0  0  0
  7  8  1  0  0  0  0
  7 20  1  0  0  0  0
  7 46  1  0  0  0  0
  8  9  1  0  0  0  0
  8 33  1  0  0  0  0
  8 34  1  0  0  0  0
  9 10  1  0  0  0  0
  9 35  1  0  0  0  0
  9 36  1  0  0  0  0
 10 11  1  0  0  0  0
 10 37  1  0  0  0  0
 11 12  2  0  0  0  0
 11 13  1  0  0  0  0
 13 14  1  0  0  0  0
 13 15  1  0  0  0  0
 13 38  1  0  0  0  0
 14 39  1  0  0  0  0
 14 40  1  0  0  0  0
 14 41  1  0  0  0  0
 15 19  1  0  0  0  0
 15 16  1  0  0  0  0
 16 17  2  0  0  0  0
 16 42  1  0  0  0  0
 17 18  1  0  0  0  0
 18 19  2  0  0  0  0
 18 43  1  0  0  0  0
 20 44  1  0  0  0  0
 20 45  1  0  0  0  0
M  CHG  1   7   1
M  END
> <s_m_source_file>
AV-unprocessed.smi

> <i_m_source_file_index>
3337

> <i_lp_mmshare_version>
43012

> <i_f3d_flags>
0

> <s_epik_input>
W0NIM11bQ0BASF0xW0NIMl1bQ0BASF0oW0NIM10pW0NIMl1OKFtDSDJdMSlbQ0gyXVtDSDJdW05IXUMoPU8pW0NASF0oW0NIM10pbjJbY0hdbltjSF1uMg==

> <s_epik_cmdline>
J2VwaWtfcHl0aG9uJywgJy1waCcsICc3LjAnLCAnLXRuJywgJzgnLCAnLW1hJywgJzIwMCcsICctbWV0YWxfYmluZGluZycsICctaW1hZScsICc8aW5maWxlLm1hZT4nLCAnLW9tYWUnLCAnPG91dGZpbGUubWFlPic=

> <r_lp_tautomer_probability>
1

> <r_epik_Ionization_Penalty>
0.00175613

> <r_epik_Ionization_Penalty_Charging>
0.00174812

> <r_epik_Ionization_Penalty_Neutral>
8.01354e-06

> <r_epik_State_Penalty>
0.00118332

> <r_epik_Charging_Adjusted_Penalty>
0.00293143

> <i_epik_Tot_Q>
1

> <i_epik_Tot_abs_Q>
1

> <r_epik_Metal_State_Penalty>
-0

> <b_epik_Metal_Only>
0

> <s_lp_Force_Field>
OPLS_2005

> <r_lp_Energy>
24.7209

> <b_lp_Chiralities_Consistent>
1

> <s_lp_Variant>
AV-unprocessed.smi:3337-5

> <Gold.Version>
5.8.1

> <Gold.Id.Protein>
6NUR|6NUR_protein|mol2

> <Gold.PLP.Fitness>
42.9297

> <Gold.PLP.PLP>
-42.0355

> <Gold.PLP.part.hbond>
-1.0000

> <Gold.PLP.part.metal>
0.0000

> <Gold.PLP.part.buried>
-5.2929

> <Gold.PLP.part.nonpolar>
-37.9150

> <Gold.PLP.part.repulsive>
3.1225

> <Gold.PLP.ligand.clash>
0.0000

> <Gold.PLP.ligand.torsion>
1.0342

> <Gold.PLP.Chemscore.Hbond>
0.9440

> <Gold.PLP.Chemscore.CHOScore>
0.0000

> <Gold.PLP.Chemscore.Metal>
0.0000

> <Gold.Chemscore.Hbonds>
donor molecule, donor type, donor heavy atom, donor atom, acceptor molecule, acceptor atom, score
      P1  H  7989  7998       L1    12  0.90

> <Gold.PLP.Chemscore.Internal.Correction>
0.1307

> <Gold.Rescore>
     Score         DG    S(hbond)    S(metal)    S(lipo)     H(rot)  DE(clash)    DE(int)     intcor
     11.22     -14.02       0.91        0.00     102.05       2.51       0.47       2.33       ----

> <Gold.Chemscore.Fitness>
11.2218

> <Gold.Chemscore.DG>
-14.0195

> <Gold.Chemscore.ZeroCoef>
-5.4800

> <Gold.Chemscore.Hbond>
0.9079

> <Gold.Chemscore.Metal>
0.0000

> <Gold.Chemscore.Lipo>
102.0519

> <Gold.Chemscore.Internal_Hbond>
0.0000

> <Gold.Chemscore.DEClash>
0.4657

> <Gold.Chemscore.DEInternal>
2.3319

> <Gold.Chemscore.Rot>
2.5129

> <Gold.Chemscore.Internal.Correction>
   9.000000E+99

> <Gold.Chemscore.Hbonds>
donor molecule, donor type, donor heavy atom, donor atom, acceptor molecule, acceptor atom, score
      P1  H  7989  7998       L1    12  0.19

> <Gold.Chemscore.Hbond.Weighted>
-3.0325

> <Gold.Chemscore.Metal.Weighted>
-0.0000

> <Gold.Chemscore.Lipo.Weighted>
-11.9401

> <Gold.Chemscore.Internal_Hbond.Weighted>
0.0000

> <Gold.Chemscore.DEClash.Weighted>
0.4657

> <Gold.Chemscore.DEInternal.Weighted>
2.3319

> <Gold.Chemscore.Rot.Weighted>
6.4331

> <Gold.Chemscore.Internal.Correction.Weighted>
   9.000000E+99

> <Gold.Protein.RotatedTorsions>
[ 6907 6896 6895 6894 ] final -130.76 input  -60.11 | X-H torsion
[ 7974 7965 7964 7962 ] final  104.40 input  175.53 | X-H torsion
[ 8008 7997 7996 7995 ] final  106.71 input   59.86 | X-H torsion
[ 10167 10162 10161 10158 ] final  114.95 input  -65.29 | X-H torsion
[ 10718 10713 10712 10709 ] final   51.88 input   66.30 | X-H torsion
[ 10763 10752 10751 10750 ] final   93.64 input  -60.55 | X-H torsion
[ 11005 11000 10999 10996 ] final -163.39 input  -57.11 | X-H torsion

> <Gold.Protein.ActiveResidues>
 VAL166  LYS551  ARG553  GLY616  TRP617  ASP618  TYR619  PRO620  LYS621  CYS622 
 ASP623  PHE694  ASN695  SER759  ASP760  ASP761  ALA762  ILE779  LEU786  VAL792 
 PHE793  MET794  SER795  GLU796  ALA797  LYS798  CYS799  TRP800  GLU811  SER814 

> <Gold.Protein.RotatedAtoms>
  150.9433  133.6632  159.2786 H   0  0  0  0  0  0  0  0  0  0  0  0  # atno 6907 bound_to 6896
  151.4013  135.0970  159.9566 H   0  0  0  0  0  0  0  0  0  0  0  0  # atno 6908 bound_to 6896
  152.5079  133.8926  159.7456 H   0  0  0  0  0  0  0  0  0  0  0  0  # atno 6909 bound_to 6896
  145.3333  139.2481  143.3649 H   0  0  0  0  0  0  0  0  0  0  0  0  # atno 7974 bound_to 7965
  156.1765  140.3108  155.9069 H   0  0  0  0  0  0  0  0  0  0  0  0  # atno 8008 bound_to 7997
  155.3475  140.0469  157.3063 H   0  0  0  0  0  0  0  0  0  0  0  0  # atno 8009 bound_to 7997
  154.5296  140.2226  155.8838 H   0  0  0  0  0  0  0  0  0  0  0  0  # atno 8010 bound_to 7997
  139.6352  144.7119  151.2350 H   0  0  0  0  0  0  0  0  0  0  0  0  # atno 10167 bound_to 10162
  157.5022  130.8445  149.8331 H   0  0  0  0  0  0  0  0  0  0  0  0  # atno 10718 bound_to 10713
  153.2326  135.4318  155.0611 H   0  0  0  0  0  0  0  0  0  0  0  0  # atno 10763 bound_to 10752
  154.8304  135.3383  154.6766 H   0  0  0  0  0  0  0  0  0  0  0  0  # atno 10764 bound_to 10752
  153.7192  135.7018  153.5073 H   0  0  0  0  0  0  0  0  0  0  0  0  # atno 10765 bound_to 10752
  140.5987  134.4970  157.5202 H   0  0  0  0  0  0  0  0  0  0  0  0  # atno 11005 bound_to 11000
  146.3037  140.3915  142.8695 LP  0  0  0  0  0  0  0  0  0  0  0  0  # atno 17320 bound_to 7965
  144.8847  140.7446  143.5964 LP  0  0  0  0  0  0  0  0  0  0  0  0  # atno 17321 bound_to 7965
  140.7461  143.6409  150.8335 LP  0  0  0  0  0  0  0  0  0  0  0  0  # atno 17342 bound_to 10162
  140.0040  143.5714  152.2865 LP  0  0  0  0  0  0  0  0  0  0  0  0  # atno 17343 bound_to 10162
  156.0236  130.3787  150.1888 LP  0  0  0  0  0  0  0  0  0  0  0  0  # atno 17370 bound_to 10713
  157.0077  130.9941  151.3374 LP  0  0  0  0  0  0  0  0  0  0  0  0  # atno 17371 bound_to 10713
  139.9242  134.8089  156.1119 LP  0  0  0  0  0  0  0  0  0  0  0  0  # atno 17394 bound_to 11000
  141.0887  133.6723  156.2492 LP  0  0  0  0  0  0  0  0  0  0  0  0  # atno 17395 bound_to 11000

$$$$
