AV-unprocessed.smi:240|AV-procd|sdf|1827|dock2
  -GOLD-   2262020423D 1   1.00000     0.00000
 Structure written by MMmdl.
 55 59  0  0  0  0  0  0  0  0  1 V2000
  148.9076  138.4598  153.5350 O   0  0  0  0  0  0  0  0  0  0  0  0
  148.8334  139.2656  154.6941 C   0  0  1  0  0  0  0  0  0  0  0  0
  149.6799  140.5377  154.5071 C   0  0  0  0  0  0  0  0  0  0  0  0
  148.6862  141.6968  154.4186 C   0  0  0  0  0  0  0  0  0  0  0  0
  147.5040  141.2365  155.2660 C   0  0  0  0  0  0  0  0  0  0  0  0
  147.3801  139.7408  154.9409 C   0  0  2  0  0  0  0  0  0  0  0  0
  146.5354  138.9088  155.9571 C   0  0  2  0  0  0  0  0  0  0  0  0
  146.9342  139.1603  157.4361 C   0  0  0  0  0  0  0  0  0  0  0  0
  146.1493  138.3612  158.3120 O   0  0  0  0  0  0  0  0  0  0  0  0
  146.3483  136.9750  158.0785 C   0  0  0  0  0  0  0  0  0  0  0  0
  145.8723  136.6455  156.6594 C   0  0  0  0  0  0  0  0  0  0  0  0
  146.5761  137.4643  155.6777 N   0  0  0  0  0  0  0  0  0  0  0  0
  146.2435  137.0591  154.4293 C   0  0  0  0  0  0  0  0  0  0  0  0
  145.5427  137.8797  153.6024 N   0  0  0  0  0  0  0  0  0  0  0  0
  145.2137  137.4666  152.3746 C   0  0  0  0  0  0  0  0  0  0  0  0
  145.4733  136.2945  151.7901 N   0  0  0  0  0  0  0  0  0  0  0  0
  146.1627  135.4648  152.6252 C   0  0  0  0  0  0  0  0  0  0  0  0
  146.5816  135.7664  153.9503 C   0  0  0  0  0  0  0  0  0  0  0  0
  147.2655  134.6873  154.4942 N   0  0  0  0  0  0  0  0  0  0  0  0
  147.2547  133.7958  153.5408 C   0  0  0  0  0  0  0  0  0  0  0  0
  146.6045  134.1746  152.3868 N   0  0  0  0  0  0  0  0  0  0  0  0
  146.4399  133.3838  151.1764 C   0  0  0  0  0  0  0  0  0  0  0  0
  145.0509  133.5430  150.5138 C   0  0  1  0  0  0  0  0  0  0  0  0
  144.9954  134.7923  149.8470 O   0  0  0  0  0  0  0  0  0  0  0  0
  144.7490  132.4447  149.5027 C   0  0  0  0  0  0  0  0  0  0  0  0
  143.2296  132.3591  149.5430 C   0  0  0  0  0  0  0  0  0  0  0  0
  142.9394  132.5183  150.9214 O   0  0  0  0  0  0  0  0  0  0  0  0
  143.8548  133.4539  151.4843 C   0  0  0  0  0  0  0  0  0  0  0  0
  149.0970  139.0155  152.7941 H   0  0  0  0  0  0  0  0  0  0  0  0
  149.2283  138.6874  155.5277 H   0  0  0  0  0  0  0  0  0  0  0  0
  150.3126  140.6767  155.3845 H   0  0  0  0  0  0  0  0  0  0  0  0
  150.3404  140.4963  153.6399 H   0  0  0  0  0  0  0  0  0  0  0  0
  149.1102  142.6403  154.7635 H   0  0  0  0  0  0  0  0  0  0  0  0
  148.3675  141.8317  153.3841 H   0  0  0  0  0  0  0  0  0  0  0  0
  147.7437  141.4053  156.3145 H   0  0  0  0  0  0  0  0  0  0  0  0
  146.5910  141.7886  155.0417 H   0  0  0  0  0  0  0  0  0  0  0  0
  146.8671  139.7262  153.9782 H   0  0  0  0  0  0  0  0  0  0  0  0
  145.4964  139.2256  155.8547 H   0  0  0  0  0  0  0  0  0  0  0  0
  147.9888  138.9544  157.6177 H   0  0  0  0  0  0  0  0  0  0  0  0
  146.7638  140.1982  157.7161 H   0  0  0  0  0  0  0  0  0  0  0  0
  147.3980  136.7094  158.2142 H   0  0  0  0  0  0  0  0  0  0  0  0
  145.7750  136.4048  158.8093 H   0  0  0  0  0  0  0  0  0  0  0  0
  146.0391  135.5865  156.4560 H   0  0  0  0  0  0  0  0  0  0  0  0
  144.7987  136.8228  156.5796 H   0  0  0  0  0  0  0  0  0  0  0  0
  144.6633  138.1761  151.7748 H   0  0  0  0  0  0  0  0  0  0  0  0
  147.7242  132.8299  153.6565 H   0  0  0  0  0  0  0  0  0  0  0  0
  147.2257  133.6646  150.4737 H   0  0  0  0  0  0  0  0  0  0  0  0
  146.6174  132.3378  151.4293 H   0  0  0  0  0  0  0  0  0  0  0  0
  145.6695  134.8095  149.1849 H   0  0  0  0  0  0  0  0  0  0  0  0
  145.1426  132.6440  148.5051 H   0  0  0  0  0  0  0  0  0  0  0  0
  145.1664  131.4949  149.8401 H   0  0  0  0  0  0  0  0  0  0  0  0
  142.7758  133.1732  148.9759 H   0  0  0  0  0  0  0  0  0  0  0  0
  142.8475  131.4139  149.1573 H   0  0  0  0  0  0  0  0  0  0  0  0
  144.1471  133.0825  152.4659 H   0  0  0  0  0  0  0  0  0  0  0  0
  143.3676  134.4190  151.6322 H   0  0  0  0  0  0  0  0  0  0  0  0
  1  2  1  0  0  0  0
  1 29  1  0  0  0  0
  2  6  1  0  0  0  0
  2  3  1  0  0  0  0
  2 30  1  0  0  0  0
  3  4  1  0  0  0  0
  3 31  1  0  0  0  0
  3 32  1  0  0  0  0
  4  5  1  0  0  0  0
  4 33  1  0  0  0  0
  4 34  1  0  0  0  0
  5  6  1  0  0  0  0
  5 35  1  0  0  0  0
  5 36  1  0  0  0  0
  6  7  1  0  0  0  0
  6 37  1  0  0  0  0
  7 12  1  0  0  0  0
  7  8  1  0  0  0  0
  7 38  1  0  0  0  0
  8  9  1  0  0  0  0
  8 39  1  0  0  0  0
  8 40  1  0  0  0  0
  9 10  1  0  0  0  0
 10 11  1  0  0  0  0
 10 41  1  0  0  0  0
 10 42  1  0  0  0  0
 11 12  1  0  0  0  0
 11 43  1  0  0  0  0
 11 44  1  0  0  0  0
 12 13  1  0  0  0  0
 13 18  1  0  0  0  0
 13 14  2  0  0  0  0
 14 15  1  0  0  0  0
 15 16  2  0  0  0  0
 15 45  1  0  0  0  0
 16 17  1  0  0  0  0
 17 21  1  0  0  0  0
 17 18  2  0  0  0  0
 18 19  1  0  0  0  0
 19 20  2  0  0  0  0
 20 21  1  0  0  0  0
 20 46  1  0  0  0  0
 21 22  1  0  0  0  0
 22 23  1  0  0  0  0
 22 47  1  0  0  0  0
 22 48  1  0  0  0  0
 23 28  1  0  0  0  0
 23 24  1  0  0  0  0
 23 25  1  0  0  0  0
 24 49  1  0  0  0  0
 25 26  1  0  0  0  0
 25 50  1  0  0  0  0
 25 51  1  0  0  0  0
 26 27  1  0  0  0  0
 26 52  1  0  0  0  0
 26 53  1  0  0  0  0
 27 28  1  0  0  0  0
 28 54  1  0  0  0  0
 28 55  1  0  0  0  0
M  END
> <s_m_source_file>
AV-unprocessed.smi

> <i_m_source_file_index>
240

> <i_lp_mmshare_version>
43012

> <i_f3d_flags>
0

> <s_epik_input>
W09IXVtDQEBIXTFbQ0gyXVtDSDJdW0NIMl1bQ0BIXTFbQ0BASF0yW0NIMl1PW0NIMl1bQ0gyXU4yYyhuW2NIXW4zKWMoYzM0KW5bY0hdbjRbQ0gyXVtDQEBdNShbT0hdKVtDSDJdW0NIMl1PW0NIMl01

> <s_epik_cmdline>
J2VwaWtfcHl0aG9uJywgJy1waCcsICc3LjAnLCAnLXRuJywgJzgnLCAnLW1hJywgJzIwMCcsICctbWV0YWxfYmluZGluZycsICctaW1hZScsICc8aW5maWxlLm1hZT4nLCAnLW9tYWUnLCAnPG91dGZpbGUubWFlPic=

> <r_lp_tautomer_probability>
1

> <r_epik_Ionization_Penalty>
0.000130618

> <r_epik_Ionization_Penalty_Charging>
0

> <r_epik_Ionization_Penalty_Neutral>
0.000130618

> <r_epik_State_Penalty>
-0

> <r_epik_Charging_Adjusted_Penalty>
0

> <i_epik_Tot_Q>
0

> <i_epik_Tot_abs_Q>
0

> <r_epik_Metal_State_Penalty>
-0

> <b_epik_Metal_Only>
0

> <s_lp_Force_Field>
OPLS_2005

> <r_lp_Energy>
61.8297

> <b_lp_Chiralities_Consistent>
1

> <s_lp_Variant>
AV-unprocessed.smi:240-4

> <Gold.Version>
5.8.1

> <Gold.Id.Protein>
6NUR|6NUR_protein|mol2

> <Gold.PLP.Fitness>
37.9841

> <Gold.PLP.PLP>
-27.4565

> <Gold.PLP.part.hbond>
-2.8716

> <Gold.PLP.part.metal>
0.0000

> <Gold.PLP.part.buried>
3.8040

> <Gold.PLP.part.nonpolar>
-28.2828

> <Gold.PLP.part.repulsive>
1.3563

> <Gold.PLP.ligand.clash>
0.0000

> <Gold.PLP.ligand.torsion>
0.8462

> <Gold.PLP.Chemscore.Hbond>
2.0000

> <Gold.PLP.Chemscore.CHOScore>
1.9854

> <Gold.PLP.Chemscore.Metal>
0.0000

> <Gold.Chemscore.Hbonds>
donor molecule, donor type, donor heavy atom, donor atom, acceptor molecule, acceptor atom, score
      L1  H     1    29       P1  7957  1.00
      L1  H    24    49       P1  7921  1.00
      L1  C    15    45       P1 10171  1.00
      L1  C    15    45       P1 10175  0.92

> <Gold.PLP.Chemscore.Internal.Correction>
0.2638

> <Gold.Rescore>
     Score         DG    S(hbond)    S(metal)    S(lipo)     H(rot)  DE(clash)    DE(int)     intcor
      9.67     -12.86       1.98        0.00      72.12       3.00       1.24       1.94       ----

> <Gold.Chemscore.Fitness>
9.6720

> <Gold.Chemscore.DG>
-12.8571

> <Gold.Chemscore.ZeroCoef>
-5.4800

> <Gold.Chemscore.Hbond>
1.9849

> <Gold.Chemscore.Metal>
0.0000

> <Gold.Chemscore.Lipo>
72.1152

> <Gold.Chemscore.Internal_Hbond>
0.0000

> <Gold.Chemscore.DEClash>
1.2417

> <Gold.Chemscore.DEInternal>
1.9435

> <Gold.Chemscore.Rot>
3.0039

> <Gold.Chemscore.Internal.Correction>
   9.000000E+99

> <Gold.Chemscore.Hbonds>
donor molecule, donor type, donor heavy atom, donor atom, acceptor molecule, acceptor atom, score
      L1  H     1    29       P1  7957  0.97
      L1  H    24    49       P1  7921  0.93

> <Gold.Chemscore.Hbond.Weighted>
-6.6295

> <Gold.Chemscore.Metal.Weighted>
-0.0000

> <Gold.Chemscore.Lipo.Weighted>
-8.4375

> <Gold.Chemscore.Internal_Hbond.Weighted>
0.0000

> <Gold.Chemscore.DEClash.Weighted>
1.2417

> <Gold.Chemscore.DEInternal.Weighted>
1.9435

> <Gold.Chemscore.Rot.Weighted>
7.6899

> <Gold.Chemscore.Internal.Correction.Weighted>
   9.000000E+99

> <Gold.Protein.RotatedTorsions>
[ 6907 6896 6895 6894 ] final  106.41 input  -60.11 | X-H torsion
[ 7974 7965 7964 7962 ] final  -29.36 input  175.53 | X-H torsion
[ 8008 7997 7996 7995 ] final  -73.11 input   59.86 | X-H torsion
[ 10167 10162 10161 10158 ] final   -7.01 input  -65.29 | X-H torsion
[ 10718 10713 10712 10709 ] final    6.46 input   66.30 | X-H torsion
[ 10763 10752 10751 10750 ] final -161.06 input  -60.55 | X-H torsion
[ 11005 11000 10999 10996 ] final  -73.68 input  -57.11 | X-H torsion

> <Gold.Protein.ActiveResidues>
 VAL166  LYS551  ARG553  GLY616  TRP617  ASP618  TYR619  PRO620  LYS621  CYS622 
 ASP623  PHE694  ASN695  SER759  ASP760  ASP761  ALA762  ILE779  LEU786  VAL792 
 PHE793  MET794  SER795  GLU796  ALA797  LYS798  CYS799  TRP800  GLU811  SER814 

> <Gold.Protein.RotatedAtoms>
  152.5194  133.9385  159.7614 H   0  0  0  0  0  0  0  0  0  0  0  0  # atno 6907 bound_to 6896
  150.9720  133.6326  159.2743 H   0  0  0  0  0  0  0  0  0  0  0  0  # atno 6908 bound_to 6896
  151.3534  135.0895  159.9463 H   0  0  0  0  0  0  0  0  0  0  0  0  # atno 6909 bound_to 6896
  146.1222  140.5402  142.8730 H   0  0  0  0  0  0  0  0  0  0  0  0  # atno 7974 bound_to 7965
  154.5220  140.0785  156.8189 H   0  0  0  0  0  0  0  0  0  0  0  0  # atno 8008 bound_to 7997
  155.3555  140.3415  155.4222 H   0  0  0  0  0  0  0  0  0  0  0  0  # atno 8009 bound_to 7997
  156.1691  140.1614  156.8465 H   0  0  0  0  0  0  0  0  0  0  0  0  # atno 8010 bound_to 7997
  140.7015  143.6129  150.8687 H   0  0  0  0  0  0  0  0  0  0  0  0  # atno 10167 bound_to 10162
  156.9225  130.5796  149.5648 H   0  0  0  0  0  0  0  0  0  0  0  0  # atno 10718 bound_to 10713
  154.7336  135.3052  154.8849 H   0  0  0  0  0  0  0  0  0  0  0  0  # atno 10763 bound_to 10752
  153.9684  135.6744  153.4750 H   0  0  0  0  0  0  0  0  0  0  0  0  # atno 10764 bound_to 10752
  153.0941  135.4944  154.8668 H   0  0  0  0  0  0  0  0  0  0  0  0  # atno 10765 bound_to 10752
  141.1626  133.6886  156.7249 H   0  0  0  0  0  0  0  0  0  0  0  0  # atno 11005 bound_to 11000
  144.7608  140.5417  143.6737 LP  0  0  0  0  0  0  0  0  0  0  0  0  # atno 17320 bound_to 7965
  145.5441  139.1475  143.3430 LP  0  0  0  0  0  0  0  0  0  0  0  0  # atno 17321 bound_to 7965
  139.9851  143.5908  152.2929 LP  0  0  0  0  0  0  0  0  0  0  0  0  # atno 17342 bound_to 10162
  139.6543  144.7662  151.2086 LP  0  0  0  0  0  0  0  0  0  0  0  0  # atno 17343 bound_to 10162
  156.0484  130.5557  150.8934 LP  0  0  0  0  0  0  0  0  0  0  0  0  # atno 17370 bound_to 10713
  157.5898  131.0945  150.9137 LP  0  0  0  0  0  0  0  0  0  0  0  0  # atno 17371 bound_to 10713
  140.2788  134.8333  157.3914 LP  0  0  0  0  0  0  0  0  0  0  0  0  # atno 17394 bound_to 11000
  140.1453  134.4920  155.8001 LP  0  0  0  0  0  0  0  0  0  0  0  0  # atno 17395 bound_to 11000

$$$$
