AV-unprocessed.smi:212|AV-procd|sdf|1621|dock3
  -GOLD-   2262019553D 1   1.00000     0.00000
 Structure written by MMmdl.
 65 68  0  0  0  0  0  0  0  0  2 V2000
  151.0244  140.0798  154.7057 C   0  0  0  0  0  0  0  0  0  0  0  0
  150.0326  141.0540  155.3713 C   0  0  2  0  0  0  0  0  0  0  0  0
  150.4892  141.4848  156.7801 C   0  0  0  0  0  0  0  0  0  0  0  0
  149.5522  142.4812  157.3591 N   0  3  2  0  0  0  0  0  0  0  0  0
  150.0089  143.0262  158.6653 C   0  0  0  0  0  0  0  0  0  0  0  0
  151.2487  143.9405  158.5272 C   0  0  0  0  0  0  0  0  0  0  0  0
  151.1071  145.1667  159.4449 C   0  0  0  0  0  0  0  0  0  0  0  0
  152.5609  143.1949  158.8339 C   0  0  0  0  0  0  0  0  0  0  0  0
  151.3153  144.4348  157.2038 O   0  0  0  0  0  0  0  0  0  0  0  0
  148.1507  141.9883  157.3869 C   0  0  0  0  0  0  0  0  0  0  0  0
  147.6939  141.5046  155.9950 C   0  0  0  0  0  0  0  0  0  0  0  0
  148.6462  140.5748  155.3915 N   0  0  0  0  0  0  0  0  0  0  0  0
  148.4367  139.2664  155.6731 C   0  0  0  0  0  0  0  0  0  0  0  0
  148.9598  138.3010  154.8738 N   0  0  0  0  0  0  0  0  0  0  0  0
  148.7383  137.0125  155.1510 C   0  0  0  0  0  0  0  0  0  0  0  0
  148.0332  136.4846  156.1534 N   0  0  0  0  0  0  0  0  0  0  0  0
  147.5010  137.4518  156.9535 C   0  0  0  0  0  0  0  0  0  0  0  0
  147.6597  138.8559  156.7881 C   0  0  0  0  0  0  0  0  0  0  0  0
  146.9894  139.5349  157.7960 N   0  0  0  0  0  0  0  0  0  0  0  0
  146.4628  138.5843  158.5188 C   0  0  0  0  0  0  0  0  0  0  0  0
  146.7028  137.3015  158.0755 N   0  0  0  0  0  0  0  0  0  0  0  0
  146.2300  136.0671  158.6891 C   0  0  0  0  0  0  0  0  0  0  0  0
  147.2388  135.4132  159.6710 C   0  0  1  0  0  0  0  0  0  0  0  0
  148.1707  136.4824  160.2903 C   0  0  0  0  0  0  0  0  0  0  0  0
  147.4955  137.2912  161.2308 O   0  0  0  0  0  0  0  0  0  0  0  0
  146.5252  134.5421  160.7423 C   0  0  2  0  0  0  0  0  0  0  0  0
  145.2110  135.0881  161.2741 C   0  0  0  0  0  0  0  0  0  0  0  0
  145.0260  134.3034  162.5689 C   0  0  0  0  0  0  0  0  0  0  0  0
  146.3388  134.0215  163.0404 O   0  0  0  0  0  0  0  0  0  0  0  0
  147.2964  134.4078  162.0609 C   0  0  0  0  0  0  0  0  0  0  0  0
  152.0127  140.5320  154.6204 H   0  0  0  0  0  0  0  0  0  0  0  0
  150.7005  139.8150  153.6986 H   0  0  0  0  0  0  0  0  0  0  0  0
  151.1370  139.1577  155.2771 H   0  0  0  0  0  0  0  0  0  0  0  0
  150.0217  141.9498  154.7486 H   0  0  0  0  0  0  0  0  0  0  0  0
  150.5641  140.6222  157.4440 H   0  0  0  0  0  0  0  0  0  0  0  0
  151.4855  141.9245  156.7176 H   0  0  0  0  0  0  0  0  0  0  0  0
  149.1929  143.5578  159.1582 H   0  0  0  0  0  0  0  0  0  0  0  0
  150.2634  142.2053  159.3383 H   0  0  0  0  0  0  0  0  0  0  0  0
  151.0533  144.8712  160.4933 H   0  0  0  0  0  0  0  0  0  0  0  0
  150.2035  145.7336  159.2168 H   0  0  0  0  0  0  0  0  0  0  0  0
  151.9550  145.8448  159.3393 H   0  0  0  0  0  0  0  0  0  0  0  0
  152.5518  142.7836  159.8439 H   0  0  0  0  0  0  0  0  0  0  0  0
  153.4216  143.8605  158.7592 H   0  0  0  0  0  0  0  0  0  0  0  0
  152.7310  142.3684  158.1431 H   0  0  0  0  0  0  0  0  0  0  0  0
  150.4440  144.6777  156.9276 H   0  0  0  0  0  0  0  0  0  0  0  0
  148.0682  141.1813  158.1154 H   0  0  0  0  0  0  0  0  0  0  0  0
  147.4846  142.7799  157.7299 H   0  0  0  0  0  0  0  0  0  0  0  0
  146.7052  141.0475  156.0601 H   0  0  0  0  0  0  0  0  0  0  0  0
  147.5916  142.3605  155.3270 H   0  0  0  0  0  0  0  0  0  0  0  0
  149.1879  136.3028  154.4723 H   0  0  0  0  0  0  0  0  0  0  0  0
  145.8749  138.7969  159.3996 H   0  0  0  0  0  0  0  0  0  0  0  0
  145.2788  136.2658  159.1830 H   0  0  0  0  0  0  0  0  0  0  0  0
  145.9997  135.3656  157.8861 H   0  0  0  0  0  0  0  0  0  0  0  0
  147.8617  134.7517  159.0666 H   0  0  0  0  0  0  0  0  0  0  0  0
  148.9916  136.0048  160.8256 H   0  0  0  0  0  0  0  0  0  0  0  0
  148.6145  137.1117  159.5181 H   0  0  0  0  0  0  0  0  0  0  0  0
  147.1457  136.7351  161.9102 H   0  0  0  0  0  0  0  0  0  0  0  0
  146.3334  133.5466  160.3400 H   0  0  0  0  0  0  0  0  0  0  0  0
  145.3025  136.1526  161.4955 H   0  0  0  0  0  0  0  0  0  0  0  0
  144.3768  134.9515  160.5855 H   0  0  0  0  0  0  0  0  0  0  0  0
  144.4447  134.8541  163.3089 H   0  0  0  0  0  0  0  0  0  0  0  0
  144.5181  133.3583  162.3729 H   0  0  0  0  0  0  0  0  0  0  0  0
  148.1119  133.6879  162.0131 H   0  0  0  0  0  0  0  0  0  0  0  0
  147.7196  135.3685  162.3582 H   0  0  0  0  0  0  0  0  0  0  0  0
  149.5608  143.2635  156.7203 H   0  0  0  0  0  0  0  0  0  0  0  0
  1  2  1  0  0  0  0
  1 31  1  0  0  0  0
  1 32  1  0  0  0  0
  1 33  1  0  0  0  0
  2 12  1  0  0  0  0
  2  3  1  0  0  0  0
  2 34  1  0  0  0  0
  3  4  1  0  0  0  0
  3 35  1  0  0  0  0
  3 36  1  0  0  0  0
  4  5  1  0  0  0  0
  4 10  1  0  0  0  0
  4 65  1  0  0  0  0
  5  6  1  0  0  0  0
  5 37  1  0  0  0  0
  5 38  1  0  0  0  0
  6  7  1  0  0  0  0
  6  8  1  0  0  0  0
  6  9  1  0  0  0  0
  7 39  1  0  0  0  0
  7 40  1  0  0  0  0
  7 41  1  0  0  0  0
  8 42  1  0  0  0  0
  8 43  1  0  0  0  0
  8 44  1  0  0  0  0
  9 45  1  0  0  0  0
 10 11  1  0  0  0  0
 10 46  1  0  0  0  0
 10 47  1  0  0  0  0
 11 12  1  0  0  0  0
 11 48  1  0  0  0  0
 11 49  1  0  0  0  0
 12 13  1  0  0  0  0
 13 18  1  0  0  0  0
 13 14  2  0  0  0  0
 14 15  1  0  0  0  0
 15 16  2  0  0  0  0
 15 50  1  0  0  0  0
 16 17  1  0  0  0  0
 17 21  1  0  0  0  0
 17 18  2  0  0  0  0
 18 19  1  0  0  0  0
 19 20  2  0  0  0  0
 20 21  1  0  0  0  0
 20 51  1  0  0  0  0
 21 22  1  0  0  0  0
 22 23  1  0  0  0  0
 22 52  1  0  0  0  0
 22 53  1  0  0  0  0
 23 24  1  0  0  0  0
 23 26  1  0  0  0  0
 23 54  1  0  0  0  0
 24 25  1  0  0  0  0
 24 55  1  0  0  0  0
 24 56  1  0  0  0  0
 25 57  1  0  0  0  0
 26 30  1  0  0  0  0
 26 27  1  0  0  0  0
 26 58  1  0  0  0  0
 27 28  1  0  0  0  0
 27 59  1  0  0  0  0
 27 60  1  0  0  0  0
 28 29  1  0  0  0  0
 28 61  1  0  0  0  0
 28 62  1  0  0  0  0
 29 30  1  0  0  0  0
 30 63  1  0  0  0  0
 30 64  1  0  0  0  0
M  CHG  1   4   1
M  END
> <s_m_source_file>
AV-unprocessed.smi

> <i_m_source_file_index>
212

> <i_lp_mmshare_version>
43012

> <i_f3d_flags>
0

> <s_epik_input>
W0NIM11bQ0BASF0xW0NIMl1OKFtDSDJdQyhbQ0gzXSkoW0NIM10pW09IXSlbQ0gyXVtDSDJdTjFjKG5bY0hdbjIpYyhjMjMpbltjSF1uM1tDSDJdW0NASF0oW0NIMl1bT0hdKVtDQEBIXTRbQ0gyXVtDSDJdT1tDSDJdNA==

> <s_epik_cmdline>
J2VwaWtfcHl0aG9uJywgJy1waCcsICc3LjAnLCAnLXRuJywgJzgnLCAnLW1hJywgJzIwMCcsICctbWV0YWxfYmluZGluZycsICctaW1hZScsICc8aW5maWxlLm1hZT4nLCAnLW9tYWUnLCAnPG91dGZpbGUubWFlPic=

> <r_lp_tautomer_probability>
1

> <r_epik_Ionization_Penalty>
0.00182193

> <r_epik_Ionization_Penalty_Charging>
0.00173996

> <r_epik_Ionization_Penalty_Neutral>
8.19718e-05

> <r_epik_State_Penalty>
-0

> <r_epik_Charging_Adjusted_Penalty>
0.00173996

> <i_epik_Tot_Q>
1

> <i_epik_Tot_abs_Q>
1

> <r_epik_Metal_State_Penalty>
-0

> <b_epik_Metal_Only>
0

> <s_lp_Force_Field>
OPLS_2005

> <r_lp_Energy>
60.0398

> <b_lp_Chiralities_Consistent>
1

> <s_lp_Variant>
AV-unprocessed.smi:212-5

> <Gold.Version>
5.8.1

> <Gold.Id.Protein>
6NUR|6NUR_protein|mol2

> <Gold.PLP.Fitness>
49.1351

> <Gold.PLP.PLP>
-36.5427

> <Gold.PLP.part.hbond>
-5.1568

> <Gold.PLP.part.metal>
0.0000

> <Gold.PLP.part.buried>
-0.1755

> <Gold.PLP.part.nonpolar>
-30.8817

> <Gold.PLP.part.repulsive>
0.2948

> <Gold.PLP.ligand.clash>
0.8899

> <Gold.PLP.ligand.torsion>
2.6014

> <Gold.PLP.Chemscore.Hbond>
4.8400

> <Gold.PLP.Chemscore.CHOScore>
0.9996

> <Gold.PLP.Chemscore.Metal>
0.0000

> <Gold.Chemscore.Hbonds>
donor molecule, donor type, donor heavy atom, donor atom, acceptor molecule, acceptor atom, score
      L1  H     4    65       P1  8028  2.00
      L1  H     9    45       P1  8028  1.00
      P1  H  6931  6943       L1    25  0.76
      P1  H  6934  6947       L1    25  0.93
      L1  C    15    50       P1  7948  0.79

> <Gold.PLP.Chemscore.Internal.Correction>
1.1661

> <Gold.Rescore>
     Score         DG    S(hbond)    S(metal)    S(lipo)     H(rot)  DE(clash)    DE(int)     intcor
     10.50     -19.21       3.27        0.00     104.47       3.68       1.86       6.86       ----

> <Gold.Chemscore.Fitness>
10.4972

> <Gold.Chemscore.DG>
-19.2111

> <Gold.Chemscore.ZeroCoef>
-5.4800

> <Gold.Chemscore.Hbond>
3.2731

> <Gold.Chemscore.Metal>
0.0000

> <Gold.Chemscore.Lipo>
104.4686

> <Gold.Chemscore.Internal_Hbond>
0.0000

> <Gold.Chemscore.DEClash>
1.8566

> <Gold.Chemscore.DEInternal>
6.8572

> <Gold.Chemscore.Rot>
3.6812

> <Gold.Chemscore.Internal.Correction>
   9.000000E+99

> <Gold.Chemscore.Hbonds>
donor molecule, donor type, donor heavy atom, donor atom, acceptor molecule, acceptor atom, score
      L1  H     4    65       P1  8028  0.99
      L1  H     9    45       P1  8028  0.72
      P1  H  6931  6943       L1    25  0.11
      P1  H  6934  6947       L1    25  0.90

> <Gold.Chemscore.Hbond.Weighted>
-10.9322

> <Gold.Chemscore.Metal.Weighted>
-0.0000

> <Gold.Chemscore.Lipo.Weighted>
-12.2228

> <Gold.Chemscore.Internal_Hbond.Weighted>
0.0000

> <Gold.Chemscore.DEClash.Weighted>
1.8566

> <Gold.Chemscore.DEInternal.Weighted>
6.8572

> <Gold.Chemscore.Rot.Weighted>
9.4239

> <Gold.Chemscore.Internal.Correction.Weighted>
   9.000000E+99

> <Gold.Protein.RotatedTorsions>
[ 6907 6896 6895 6894 ] final   43.43 input  -60.11 | X-H torsion
[ 7974 7965 7964 7962 ] final  110.36 input  175.53 | X-H torsion
[ 8008 7997 7996 7995 ] final   66.08 input   59.86 | X-H torsion
[ 10167 10162 10161 10158 ] final  -31.18 input  -65.29 | X-H torsion
[ 10718 10713 10712 10709 ] final   57.65 input   66.30 | X-H torsion
[ 10763 10752 10751 10750 ] final  -81.90 input  -60.55 | X-H torsion
[ 11005 11000 10999 10996 ] final   57.88 input  -57.11 | X-H torsion

> <Gold.Protein.ActiveResidues>
 VAL166  LYS551  ARG553  GLY616  TRP617  ASP618  TYR619  PRO620  LYS621  CYS622 
 ASP623  PHE694  ASN695  SER759  ASP760  ASP761  ALA762  ILE779  LEU786  VAL792 
 PHE793  MET794  SER795  GLU796  ALA797  LYS798  CYS799  TRP800  GLU811  SER814 

> <Gold.Protein.RotatedAtoms>
  152.2201  134.8421  160.0486 H   0  0  0  0  0  0  0  0  0  0  0  0  # atno 6907 bound_to 6896
  151.9207  133.3580  159.3904 H   0  0  0  0  0  0  0  0  0  0  0  0  # atno 6908 bound_to 6896
  150.6998  134.4563  159.5404 H   0  0  0  0  0  0  0  0  0  0  0  0  # atno 6909 bound_to 6896
  145.2559  139.2721  143.4042 H   0  0  0  0  0  0  0  0  0  0  0  0  # atno 7974 bound_to 7965
  155.6718  140.3497  155.4821 H   0  0  0  0  0  0  0  0  0  0  0  0  # atno 8008 bound_to 7997
  155.9682  140.1150  157.0858 H   0  0  0  0  0  0  0  0  0  0  0  0  # atno 8009 bound_to 7997
  154.4159  140.1162  156.5257 H   0  0  0  0  0  0  0  0  0  0  0  0  # atno 8010 bound_to 7997
  140.7240  143.3791  151.1634 H   0  0  0  0  0  0  0  0  0  0  0  0  # atno 10167 bound_to 10162
  157.5532  130.8781  149.8995 H   0  0  0  0  0  0  0  0  0  0  0  0  # atno 10718 bound_to 10713
  154.5692  135.5610  153.7079 H   0  0  0  0  0  0  0  0  0  0  0  0  # atno 10763 bound_to 10752
  153.0043  135.6293  154.2138 H   0  0  0  0  0  0  0  0  0  0  0  0  # atno 10764 bound_to 10752
  154.2078  135.2875  155.2949 H   0  0  0  0  0  0  0  0  0  0  0  0  # atno 10765 bound_to 10752
  140.0419  134.5861  155.9371 H   0  0  0  0  0  0  0  0  0  0  0  0  # atno 11005 bound_to 11000
  146.3289  140.2963  142.8618 LP  0  0  0  0  0  0  0  0  0  0  0  0  # atno 17320 bound_to 7965
  144.9461  140.8129  143.5601 LP  0  0  0  0  0  0  0  0  0  0  0  0  # atno 17321 bound_to 7965
  139.7376  143.8974  152.3040 LP  0  0  0  0  0  0  0  0  0  0  0  0  # atno 17342 bound_to 10162
  139.8784  144.7031  150.8906 LP  0  0  0  0  0  0  0  0  0  0  0  0  # atno 17343 bound_to 10162
  156.0595  130.3702  150.1014 LP  0  0  0  0  0  0  0  0  0  0  0  0  # atno 17370 bound_to 10713
  156.9185  130.9675  151.3552 LP  0  0  0  0  0  0  0  0  0  0  0  0  # atno 17371 bound_to 10713
  141.1887  133.6563  156.5337 LP  0  0  0  0  0  0  0  0  0  0  0  0  # atno 17394 bound_to 11000
  140.4055  134.7318  157.4805 LP  0  0  0  0  0  0  0  0  0  0  0  0  # atno 17395 bound_to 11000

$$$$
