AV-unprocessed.smi:212|AV-procd|sdf|1620|dock9
  -GOLD-   2262019553D 1   1.00000     0.00000
 Structure written by MMmdl.
 65 68  0  0  0  0  0  0  0  0  2 V2000
  142.5468  137.1639  153.4579 C   0  0  0  0  0  0  0  0  0  0  0  0
  143.5358  135.9870  153.3506 C   0  0  1  0  0  0  0  0  0  0  0  0
  144.2929  135.9740  152.0068 C   0  0  0  0  0  0  0  0  0  0  0  0
  145.1872  134.7905  151.9127 N   0  3  1  0  0  0  0  0  0  0  0  0
  145.8564  134.6633  150.5905 C   0  0  0  0  0  0  0  0  0  0  0  0
  146.0036  133.1927  150.1332 C   0  0  0  0  0  0  0  0  0  0  0  0
  146.6453  132.3535  151.2506 C   0  0  0  0  0  0  0  0  0  0  0  0
  144.6581  132.5746  149.7095 C   0  0  0  0  0  0  0  0  0  0  0  0
  146.8867  133.1343  149.0304 O   0  0  0  0  0  0  0  0  0  0  0  0
  146.1328  134.7071  153.0550 C   0  0  0  0  0  0  0  0  0  0  0  0
  145.3929  134.7637  154.4074 C   0  0  0  0  0  0  0  0  0  0  0  0
  144.4649  135.8891  154.4812 N   0  0  0  0  0  0  0  0  0  0  0  0
  144.9967  137.0355  154.9674 C   0  0  0  0  0  0  0  0  0  0  0  0
  144.5849  137.5298  156.1635 N   0  0  0  0  0  0  0  0  0  0  0  0
  145.1212  138.6577  156.6390 C   0  0  0  0  0  0  0  0  0  0  0  0
  146.0636  139.4280  156.0916 N   0  0  0  0  0  0  0  0  0  0  0  0
  146.4829  138.9301  154.8933 C   0  0  0  0  0  0  0  0  0  0  0  0
  145.9989  137.7508  154.2618 C   0  0  0  0  0  0  0  0  0  0  0  0
  146.6440  137.5581  153.0484 N   0  0  0  0  0  0  0  0  0  0  0  0
  147.4650  138.5692  152.9656 C   0  0  0  0  0  0  0  0  0  0  0  0
  147.4493  139.4343  154.0387 N   0  0  0  0  0  0  0  0  0  0  0  0
  148.2657  140.6302  154.2034 C   0  0  0  0  0  0  0  0  0  0  0  0
  149.4364  140.4704  155.2100 C   0  0  2  0  0  0  0  0  0  0  0  0
  149.4357  141.6301  156.2350 C   0  0  0  0  0  0  0  0  0  0  0  0
  150.1610  142.7485  155.7685 O   0  0  0  0  0  0  0  0  0  0  0  0
  150.8031  140.3047  154.4891 C   0  0  2  0  0  0  0  0  0  0  0  0
  151.0170  138.9388  153.8562 C   0  0  0  0  0  0  0  0  0  0  0  0
  152.5249  138.9128  153.6278 C   0  0  0  0  0  0  0  0  0  0  0  0
  153.0853  139.7300  154.6494 O   0  0  0  0  0  0  0  0  0  0  0  0
  152.0447  140.3648  155.3840 C   0  0  0  0  0  0  0  0  0  0  0  0
  141.8063  137.1209  152.6590 H   0  0  0  0  0  0  0  0  0  0  0  0
  143.0504  138.1283  153.3825 H   0  0  0  0  0  0  0  0  0  0  0  0
  142.0069  137.1395  154.4050 H   0  0  0  0  0  0  0  0  0  0  0  0
  142.9342  135.0778  153.3895 H   0  0  0  0  0  0  0  0  0  0  0  0
  143.5753  135.9558  151.1866 H   0  0  0  0  0  0  0  0  0  0  0  0
  144.8788  136.8863  151.8869 H   0  0  0  0  0  0  0  0  0  0  0  0
  145.3218  135.2483  149.8400 H   0  0  0  0  0  0  0  0  0  0  0  0
  146.8535  135.1043  150.6408 H   0  0  0  0  0  0  0  0  0  0  0  0
  146.0183  132.3398  152.1427 H   0  0  0  0  0  0  0  0  0  0  0  0
  147.6188  132.7513  151.5403 H   0  0  0  0  0  0  0  0  0  0  0  0
  146.7933  131.3187  150.9391 H   0  0  0  0  0  0  0  0  0  0  0  0
  143.9363  132.6072  150.5266 H   0  0  0  0  0  0  0  0  0  0  0  0
  144.7753  131.5303  149.4175 H   0  0  0  0  0  0  0  0  0  0  0  0
  144.2189  133.1000  148.8609 H   0  0  0  0  0  0  0  0  0  0  0  0
  147.4544  132.3859  149.1381 H   0  0  0  0  0  0  0  0  0  0  0  0
  146.6974  133.7758  152.9946 H   0  0  0  0  0  0  0  0  0  0  0  0
  146.8585  135.5174  152.9810 H   0  0  0  0  0  0  0  0  0  0  0  0
  144.8198  133.8468  154.5497 H   0  0  0  0  0  0  0  0  0  0  0  0
  146.1100  134.8076  155.2288 H   0  0  0  0  0  0  0  0  0  0  0  0
  144.7431  138.9906  157.5943 H   0  0  0  0  0  0  0  0  0  0  0  0
  148.1149  138.7079  152.1140 H   0  0  0  0  0  0  0  0  0  0  0  0
  148.6630  140.8981  153.2235 H   0  0  0  0  0  0  0  0  0  0  0  0
  147.6170  141.4580  154.4897 H   0  0  0  0  0  0  0  0  0  0  0  0
  149.2375  139.5502  155.7620 H   0  0  0  0  0  0  0  0  0  0  0  0
  148.4186  141.9328  156.4863 H   0  0  0  0  0  0  0  0  0  0  0  0
  149.9146  141.3153  157.1623 H   0  0  0  0  0  0  0  0  0  0  0  0
  149.5536  143.4527  155.5995 H   0  0  0  0  0  0  0  0  0  0  0  0
  150.9090  141.0720  153.7209 H   0  0  0  0  0  0  0  0  0  0  0  0
  150.7352  138.1497  154.5549 H   0  0  0  0  0  0  0  0  0  0  0  0
  150.4571  138.7838  152.9353 H   0  0  0  0  0  0  0  0  0  0  0  0
  152.9309  137.9015  153.6583 H   0  0  0  0  0  0  0  0  0  0  0  0
  152.7721  139.3491  152.6595 H   0  0  0  0  0  0  0  0  0  0  0  0
  152.3233  141.3848  155.6496 H   0  0  0  0  0  0  0  0  0  0  0  0
  151.8859  139.8030  156.3056 H   0  0  0  0  0  0  0  0  0  0  0  0
  144.5888  133.9812  151.9956 H   0  0  0  0  0  0  0  0  0  0  0  0
  1  2  1  0  0  0  0
  1 31  1  0  0  0  0
  1 32  1  0  0  0  0
  1 33  1  0  0  0  0
  2 12  1  0  0  0  0
  2  3  1  0  0  0  0
  2 34  1  0  0  0  0
  3  4  1  0  0  0  0
  3 35  1  0  0  0  0
  3 36  1  0  0  0  0
  4  5  1  0  0  0  0
  4 10  1  0  0  0  0
  4 65  1  0  0  0  0
  5  6  1  0  0  0  0
  5 37  1  0  0  0  0
  5 38  1  0  0  0  0
  6  7  1  0  0  0  0
  6  8  1  0  0  0  0
  6  9  1  0  0  0  0
  7 39  1  0  0  0  0
  7 40  1  0  0  0  0
  7 41  1  0  0  0  0
  8 42  1  0  0  0  0
  8 43  1  0  0  0  0
  8 44  1  0  0  0  0
  9 45  1  0  0  0  0
 10 11  1  0  0  0  0
 10 46  1  0  0  0  0
 10 47  1  0  0  0  0
 11 12  1  0  0  0  0
 11 48  1  0  0  0  0
 11 49  1  0  0  0  0
 12 13  1  0  0  0  0
 13 18  1  0  0  0  0
 13 14  2  0  0  0  0
 14 15  1  0  0  0  0
 15 16  2  0  0  0  0
 15 50  1  0  0  0  0
 16 17  1  0  0  0  0
 17 21  1  0  0  0  0
 17 18  2  0  0  0  0
 18 19  1  0  0  0  0
 19 20  2  0  0  0  0
 20 21  1  0  0  0  0
 20 51  1  0  0  0  0
 21 22  1  0  0  0  0
 22 23  1  0  0  0  0
 22 52  1  0  0  0  0
 22 53  1  0  0  0  0
 23 24  1  0  0  0  0
 23 26  1  0  0  0  0
 23 54  1  0  0  0  0
 24 25  1  0  0  0  0
 24 55  1  0  0  0  0
 24 56  1  0  0  0  0
 25 57  1  0  0  0  0
 26 30  1  0  0  0  0
 26 27  1  0  0  0  0
 26 58  1  0  0  0  0
 27 28  1  0  0  0  0
 27 59  1  0  0  0  0
 27 60  1  0  0  0  0
 28 29  1  0  0  0  0
 28 61  1  0  0  0  0
 28 62  1  0  0  0  0
 29 30  1  0  0  0  0
 30 63  1  0  0  0  0
 30 64  1  0  0  0  0
M  CHG  1   4   1
M  END
> <s_m_source_file>
AV-unprocessed.smi

> <i_m_source_file_index>
212

> <i_lp_mmshare_version>
43012

> <i_f3d_flags>
0

> <s_epik_input>
W0NIM11bQ0BASF0xW0NIMl1OKFtDSDJdQyhbQ0gzXSkoW0NIM10pW09IXSlbQ0gyXVtDSDJdTjFjKG5bY0hdbjIpYyhjMjMpbltjSF1uM1tDSDJdW0NASF0oW0NIMl1bT0hdKVtDQEBIXTRbQ0gyXVtDSDJdT1tDSDJdNA==

> <s_epik_cmdline>
J2VwaWtfcHl0aG9uJywgJy1waCcsICc3LjAnLCAnLXRuJywgJzgnLCAnLW1hJywgJzIwMCcsICctbWV0YWxfYmluZGluZycsICctaW1hZScsICc8aW5maWxlLm1hZT4nLCAnLW9tYWUnLCAnPG91dGZpbGUubWFlPic=

> <r_lp_tautomer_probability>
1

> <r_epik_Ionization_Penalty>
0.00182193

> <r_epik_Ionization_Penalty_Charging>
0.00173996

> <r_epik_Ionization_Penalty_Neutral>
8.19718e-05

> <r_epik_State_Penalty>
-0

> <r_epik_Charging_Adjusted_Penalty>
0.00173996

> <i_epik_Tot_Q>
1

> <i_epik_Tot_abs_Q>
1

> <r_epik_Metal_State_Penalty>
-0

> <b_epik_Metal_Only>
0

> <s_lp_Force_Field>
OPLS_2005

> <r_lp_Energy>
59.7923

> <b_lp_Chiralities_Consistent>
1

> <s_lp_Variant>
AV-unprocessed.smi:212-4

> <Gold.Version>
5.8.1

> <Gold.Id.Protein>
6NUR|6NUR_protein|mol2

> <Gold.PLP.Fitness>
50.3301

> <Gold.PLP.PLP>
-39.2861

> <Gold.PLP.part.hbond>
-4.6989

> <Gold.PLP.part.metal>
0.0000

> <Gold.PLP.part.buried>
-1.3751

> <Gold.PLP.part.nonpolar>
-33.2219

> <Gold.PLP.part.repulsive>
0.6602

> <Gold.PLP.ligand.clash>
0.0000

> <Gold.PLP.ligand.torsion>
2.0541

> <Gold.PLP.Chemscore.Hbond>
3.0000

> <Gold.PLP.Chemscore.CHOScore>
1.6856

> <Gold.PLP.Chemscore.Metal>
0.0000

> <Gold.Chemscore.Hbonds>
donor molecule, donor type, donor heavy atom, donor atom, acceptor molecule, acceptor atom, score
      L1  H     9    45       P1 10747  0.06
      L1  H    25    57       P1  8028  0.75
      P1  H  7997  8008       L1    29  0.10
      L1  C    20    51       P1  7948  0.34
      L1  C    20    51       P1  7957  1.00

> <Gold.PLP.Chemscore.Internal.Correction>
1.0955

> <Gold.Rescore>
     Score         DG    S(hbond)    S(metal)    S(lipo)     H(rot)  DE(clash)    DE(int)     intcor
      8.67     -12.69       1.75        0.00      92.18       3.68       0.30       3.72       ----

> <Gold.Chemscore.Fitness>
8.6661

> <Gold.Chemscore.DG>
-12.6876

> <Gold.Chemscore.ZeroCoef>
-5.4800

> <Gold.Chemscore.Hbond>
1.7503

> <Gold.Chemscore.Metal>
0.0000

> <Gold.Chemscore.Lipo>
92.1849

> <Gold.Chemscore.Internal_Hbond>
0.0000

> <Gold.Chemscore.DEClash>
0.3044

> <Gold.Chemscore.DEInternal>
3.7171

> <Gold.Chemscore.Rot>
3.6812

> <Gold.Chemscore.Internal.Correction>
   9.000000E+99

> <Gold.Chemscore.Hbonds>
donor molecule, donor type, donor heavy atom, donor atom, acceptor molecule, acceptor atom, score
      L1  H     9    45       P1 10747  0.11
      L1  H    25    57       P1  8028  0.75

> <Gold.Chemscore.Hbond.Weighted>
-5.8459

> <Gold.Chemscore.Metal.Weighted>
-0.0000

> <Gold.Chemscore.Lipo.Weighted>
-10.7856

> <Gold.Chemscore.Internal_Hbond.Weighted>
0.0000

> <Gold.Chemscore.DEClash.Weighted>
0.3044

> <Gold.Chemscore.DEInternal.Weighted>
3.7171

> <Gold.Chemscore.Rot.Weighted>
9.4239

> <Gold.Chemscore.Internal.Correction.Weighted>
   9.000000E+99

> <Gold.Protein.RotatedTorsions>
[ 6907 6896 6895 6894 ] final   93.02 input  -60.11 | X-H torsion
[ 7974 7965 7964 7962 ] final  175.06 input  175.53 | X-H torsion
[ 8008 7997 7996 7995 ] final  -48.66 input   59.86 | X-H torsion
[ 10167 10162 10161 10158 ] final  149.64 input  -65.29 | X-H torsion
[ 10718 10713 10712 10709 ] final   10.43 input   66.30 | X-H torsion
[ 10763 10752 10751 10750 ] final -144.25 input  -60.55 | X-H torsion
[ 11005 11000 10999 10996 ] final    2.51 input  -57.11 | X-H torsion

> <Gold.Protein.ActiveResidues>
 VAL166  LYS551  ARG553  GLY616  TRP617  ASP618  TYR619  PRO620  LYS621  CYS622 
 ASP623  PHE694  ASN695  SER759  ASP760  ASP761  ALA762  ILE779  LEU786  VAL792 
 PHE793  MET794  SER795  GLU796  ALA797  LYS798  CYS799  TRP800  GLU811  SER814 

> <Gold.Protein.RotatedAtoms>
  152.5453  134.1412  159.8479 H   0  0  0  0  0  0  0  0  0  0  0  0  # atno 6907 bound_to 6896
  151.1448  133.4939  159.2603 H   0  0  0  0  0  0  0  0  0  0  0  0  # atno 6908 bound_to 6896
  151.1534  135.0249  159.8733 H   0  0  0  0  0  0  0  0  0  0  0  0  # atno 6909 bound_to 6896
  144.7209  139.9889  143.6439 H   0  0  0  0  0  0  0  0  0  0  0  0  # atno 7974 bound_to 7965
  154.4032  140.1316  156.4375 H   0  0  0  0  0  0  0  0  0  0  0  0  # atno 8008 bound_to 7997
  155.7491  140.3488  155.5122 H   0  0  0  0  0  0  0  0  0  0  0  0  # atno 8009 bound_to 7997
  155.8966  140.1012  157.1370 H   0  0  0  0  0  0  0  0  0  0  0  0  # atno 8010 bound_to 7997
  139.4859  144.5585  151.7273 H   0  0  0  0  0  0  0  0  0  0  0  0  # atno 10167 bound_to 10162
  156.9809  130.6005  149.5676 H   0  0  0  0  0  0  0  0  0  0  0  0  # atno 10718 bound_to 10713
  154.8436  135.3445  154.6316 H   0  0  0  0  0  0  0  0  0  0  0  0  # atno 10763 bound_to 10752
  153.6925  135.6974  153.5090 H   0  0  0  0  0  0  0  0  0  0  0  0  # atno 10764 bound_to 10752
  153.2584  135.4331  155.0824 H   0  0  0  0  0  0  0  0  0  0  0  0  # atno 10765 bound_to 10752
  140.6035  133.9814  155.8143 H   0  0  0  0  0  0  0  0  0  0  0  0  # atno 11005 bound_to 11000
  146.0427  139.3437  143.0687 LP  0  0  0  0  0  0  0  0  0  0  0  0  # atno 17320 bound_to 7965
  145.8314  140.9628  143.0847 LP  0  0  0  0  0  0  0  0  0  0  0  0  # atno 17321 bound_to 7965
  140.5151  144.0965  150.6006 LP  0  0  0  0  0  0  0  0  0  0  0  0  # atno 17342 bound_to 10162
  140.3904  143.2755  152.0067 LP  0  0  0  0  0  0  0  0  0  0  0  0  # atno 17343 bound_to 10162
  156.0245  130.5339  150.8368 LP  0  0  0  0  0  0  0  0  0  0  0  0  # atno 17370 bound_to 10713
  157.5527  131.0944  150.9673 LP  0  0  0  0  0  0  0  0  0  0  0  0  # atno 17371 bound_to 10713
  141.0856  133.9996  157.3318 LP  0  0  0  0  0  0  0  0  0  0  0  0  # atno 17394 bound_to 11000
  139.9222  135.0201  156.8106 LP  0  0  0  0  0  0  0  0  0  0  0  0  # atno 17395 bound_to 11000

$$$$
