AV-unprocessed.smi:1047|AV-procd|sdf|4563|dock5
  -GOLD-   22720 3 03D 1   1.00000     0.00000
 Structure written by MMmdl.
 57 59  0  0  0  0  0  0  0  0  3 V2000
  145.6982  128.8528  151.8503 C   0  0  0  0  0  0  0  0  0  0  0  0
  146.9352  129.5143  152.4743 C   0  0  0  0  0  0  0  0  0  0  0  0
  146.7247  130.9546  152.7663 N   0  3  2  0  0  0  0  0  0  0  0  0
  146.3106  131.7185  151.5651 C   0  0  0  0  0  0  0  0  0  0  0  0
  146.0452  133.1901  151.9248 C   0  0  0  0  0  0  0  0  0  0  0  0
  147.2078  133.7574  152.5172 O   0  0  0  0  0  0  0  0  0  0  0  0
  147.5819  133.0882  153.7168 C   0  0  2  0  0  0  0  0  0  0  0  0
  148.7566  133.8407  154.3655 C   0  0  0  0  0  0  0  0  0  0  0  0
  148.5423  135.3032  154.3891 N   0  3  0  0  0  0  0  0  0  0  0  0
  149.0556  135.9644  155.6053 C   0  0  0  0  0  0  0  0  0  0  0  0
  150.4931  136.4815  155.4007 C   0  0  2  0  0  0  0  0  0  0  0  0
  151.3776  135.3789  155.3846 O   0  0  0  0  0  0  0  0  0  0  0  0
  150.9723  137.4491  156.5023 C   0  0  0  0  0  0  0  0  0  0  0  0
  150.8521  138.8435  156.1174 N   0  0  0  0  0  0  0  0  0  0  0  0
  150.3850  139.3227  154.9484 C   0  0  0  0  0  0  0  0  0  0  0  0
  150.3497  140.6439  154.8032 N   0  0  0  0  0  0  0  0  0  0  0  0
  150.8589  141.0728  156.0168 C   0  0  0  0  0  0  0  0  0  0  0  0
  151.0803  142.3775  156.5091 C   0  0  0  0  0  0  0  0  0  0  0  0
  151.6106  142.5837  157.8027 C   0  0  0  0  0  0  0  0  0  0  0  0
  151.8289  144.0042  158.2933 C   0  0  0  0  0  0  0  0  0  0  0  0
  151.9313  141.4735  158.6247 C   0  0  0  0  0  0  0  0  0  0  0  0
  152.5015  141.6714  160.0179 C   0  0  0  0  0  0  0  0  0  0  0  0
  151.7192  140.1632  158.1473 C   0  0  0  0  0  0  0  0  0  0  0  0
  151.1873  139.9711  156.8599 C   0  0  0  0  0  0  0  0  0  0  0  0
  147.8896  131.6060  153.4160 C   0  0  0  0  0  0  0  0  0  0  0  0
  145.9172  127.8227  151.5677 H   0  0  0  0  0  0  0  0  0  0  0  0
  145.3808  129.3800  150.9502 H   0  0  0  0  0  0  0  0  0  0  0  0
  144.8555  128.8245  152.5406 H   0  0  0  0  0  0  0  0  0  0  0  0
  147.2376  128.9872  153.3804 H   0  0  0  0  0  0  0  0  0  0  0  0
  147.7599  129.4115  151.7675 H   0  0  0  0  0  0  0  0  0  0  0  0
  147.0886  131.6537  150.8028 H   0  0  0  0  0  0  0  0  0  0  0  0
  145.4075  131.2794  151.1391 H   0  0  0  0  0  0  0  0  0  0  0  0
  145.7946  133.7562  151.0274 H   0  0  0  0  0  0  0  0  0  0  0  0
  145.1952  133.2786  152.6035 H   0  0  0  0  0  0  0  0  0  0  0  0
  146.7417  133.1344  154.4124 H   0  0  0  0  0  0  0  0  0  0  0  0
  148.8979  133.4878  155.3879 H   0  0  0  0  0  0  0  0  0  0  0  0
  149.6780  133.6207  153.8249 H   0  0  0  0  0  0  0  0  0  0  0  0
  149.0033  135.7152  153.5902 H   0  0  0  0  0  0  0  0  0  0  0  0
  148.3857  136.7924  155.8375 H   0  0  0  0  0  0  0  0  0  0  0  0
  149.0154  135.2732  156.4485 H   0  0  0  0  0  0  0  0  0  0  0  0
  150.5612  136.9837  154.4346 H   0  0  0  0  0  0  0  0  0  0  0  0
  151.0294  134.7020  155.9452 H   0  0  0  0  0  0  0  0  0  0  0  0
  150.4046  137.2946  157.4210 H   0  0  0  0  0  0  0  0  0  0  0  0
  152.0171  137.2533  156.7483 H   0  0  0  0  0  0  0  0  0  0  0  0
  150.0468  138.6639  154.1618 H   0  0  0  0  0  0  0  0  0  0  0  0
  150.8362  143.2231  155.8828 H   0  0  0  0  0  0  0  0  0  0  0  0
  152.8812  144.1710  158.5244 H   0  0  0  0  0  0  0  0  0  0  0  0
  151.2419  144.1928  159.1924 H   0  0  0  0  0  0  0  0  0  0  0  0
  151.5319  144.7359  157.5414 H   0  0  0  0  0  0  0  0  0  0  0  0
  152.6751  140.7175  160.5168 H   0  0  0  0  0  0  0  0  0  0  0  0
  151.8133  142.2499  160.6345 H   0  0  0  0  0  0  0  0  0  0  0  0
  153.4525  142.2018  159.9690 H   0  0  0  0  0  0  0  0  0  0  0  0
  151.9598  139.3098  158.7637 H   0  0  0  0  0  0  0  0  0  0  0  0
  148.1381  131.0948  154.3455 H   0  0  0  0  0  0  0  0  0  0  0  0
  148.7586  131.5201  152.7618 H   0  0  0  0  0  0  0  0  0  0  0  0
  147.5512  135.4864  154.3187 H   0  0  0  0  0  0  0  0  0  0  0  0
  145.9520  131.0063  153.4153 H   0  0  0  0  0  0  0  0  0  0  0  0
  1  2  1  0  0  0  0
  1 26  1  0  0  0  0
  1 27  1  0  0  0  0
  1 28  1  0  0  0  0
  2  3  1  0  0  0  0
  2 29  1  0  0  0  0
  2 30  1  0  0  0  0
  3 25  1  0  0  0  0
  3  4  1  0  0  0  0
  3 57  1  0  0  0  0
  4  5  1  0  0  0  0
  4 31  1  0  0  0  0
  4 32  1  0  0  0  0
  5  6  1  0  0  0  0
  5 33  1  0  0  0  0
  5 34  1  0  0  0  0
  6  7  1  0  0  0  0
  7  8  1  0  0  0  0
  7 25  1  0  0  0  0
  7 35  1  0  0  0  0
  8  9  1  0  0  0  0
  8 36  1  0  0  0  0
  8 37  1  0  0  0  0
  9 10  1  0  0  0  0
  9 38  1  0  0  0  0
  9 56  1  0  0  0  0
 10 11  1  0  0  0  0
 10 39  1  0  0  0  0
 10 40  1  0  0  0  0
 11 12  1  0  0  0  0
 11 13  1  0  0  0  0
 11 41  1  0  0  0  0
 12 42  1  0  0  0  0
 13 14  1  0  0  0  0
 13 43  1  0  0  0  0
 13 44  1  0  0  0  0
 14 24  1  0  0  0  0
 14 15  1  0  0  0  0
 15 16  2  0  0  0  0
 15 45  1  0  0  0  0
 16 17  1  0  0  0  0
 17 24  2  0  0  0  0
 17 18  1  0  0  0  0
 18 19  2  0  0  0  0
 18 46  1  0  0  0  0
 19 20  1  0  0  0  0
 19 21  1  0  0  0  0
 20 47  1  0  0  0  0
 20 48  1  0  0  0  0
 20 49  1  0  0  0  0
 21 22  1  0  0  0  0
 21 23  2  0  0  0  0
 22 50  1  0  0  0  0
 22 51  1  0  0  0  0
 22 52  1  0  0  0  0
 23 24  1  0  0  0  0
 23 53  1  0  0  0  0
 25 54  1  0  0  0  0
 25 55  1  0  0  0  0
M  CHG  1   3   1
M  CHG  1   9   1
M  END
> <s_m_source_file>
AV-unprocessed.smi

> <i_m_source_file_index>
1047

> <i_lp_mmshare_version>
43012

> <i_f3d_flags>
0

> <s_epik_input>
W0NIM11bQ0gyXU4xW0NIMl1bQ0gyXU9bQ0BIXShbQ0gyXTEpW0NIMl1bTkhdW0NIMl1bQ0BIXShbT0hdKVtDSDJdbihbY0hdbjIpYyhjMjMpW2NIXWMoW0NIM10pYyhbY0hdMylbQ0gzXQ==

> <s_epik_cmdline>
J2VwaWtfcHl0aG9uJywgJy1waCcsICc3LjAnLCAnLXRuJywgJzgnLCAnLW1hJywgJzIwMCcsICctbWV0YWxfYmluZGluZycsICctaW1hZScsICc8aW5maWxlLm1hZT4nLCAnLW9tYWUnLCAnPG91dGZpbGUubWFlPic=

> <r_epik_Ionization_Penalty>
0.528991

> <r_epik_Ionization_Penalty_Charging>
0.438567

> <r_epik_Ionization_Penalty_Neutral>
0.0904237

> <r_epik_State_Penalty>
0.533036

> <r_epik_Charging_Adjusted_Penalty>
0.971603

> <i_epik_Tot_Q>
2

> <i_epik_Tot_abs_Q>
2

> <r_epik_Metal_State_Penalty>
0.448985

> <b_epik_Metal_Only>
0

> <s_lp_Force_Field>
OPLS_2005

> <r_lp_Energy>
33.7981

> <b_lp_Chiralities_Consistent>
1

> <s_lp_Variant>
AV-unprocessed.smi:1047-4

> <Gold.Version>
5.8.1

> <Gold.Id.Protein>
6NUR|6NUR_protein|mol2

> <Gold.PLP.Fitness>
53.0847

> <Gold.PLP.PLP>
-43.6753

> <Gold.PLP.part.hbond>
-3.0000

> <Gold.PLP.part.metal>
0.0000

> <Gold.PLP.part.buried>
-5.2509

> <Gold.PLP.part.nonpolar>
-35.5071

> <Gold.PLP.part.repulsive>
0.2582

> <Gold.PLP.ligand.clash>
0.0000

> <Gold.PLP.ligand.torsion>
1.1870

> <Gold.PLP.Chemscore.Hbond>
3.8640

> <Gold.PLP.Chemscore.CHOScore>
0.0000

> <Gold.PLP.Chemscore.Metal>
0.0000

> <Gold.Chemscore.Hbonds>
donor molecule, donor type, donor heavy atom, donor atom, acceptor molecule, acceptor atom, score
      L1  H     9    38       P1  7948  2.00
      P1  H  7989  7998       L1    16  0.90
      P1  H 10752 10763       L1    12  1.00

> <Gold.PLP.Chemscore.Internal.Correction>
0.1914

> <Gold.Rescore>
     Score         DG    S(hbond)    S(metal)    S(lipo)     H(rot)  DE(clash)    DE(int)     intcor
     18.85     -20.16       2.21        0.00     121.47       2.70       0.06       1.25       ----

> <Gold.Chemscore.Fitness>
18.8470

> <Gold.Chemscore.DG>
-20.1578

> <Gold.Chemscore.ZeroCoef>
-5.4800

> <Gold.Chemscore.Hbond>
2.2076

> <Gold.Chemscore.Metal>
0.0000

> <Gold.Chemscore.Lipo>
121.4749

> <Gold.Chemscore.Internal_Hbond>
0.0000

> <Gold.Chemscore.DEClash>
0.0574

> <Gold.Chemscore.DEInternal>
1.2534

> <Gold.Chemscore.Rot>
2.6985

> <Gold.Chemscore.Internal.Correction>
   9.000000E+99

> <Gold.Chemscore.Hbonds>
donor molecule, donor type, donor heavy atom, donor atom, acceptor molecule, acceptor atom, score
      L1  H     9    38       P1  7948  0.81
      P1  H  7989  7998       L1    16  0.18
      P1  H 10752 10763       L1    12  0.97

> <Gold.Chemscore.Hbond.Weighted>
-7.3734

> <Gold.Chemscore.Metal.Weighted>
-0.0000

> <Gold.Chemscore.Lipo.Weighted>
-14.2126

> <Gold.Chemscore.Internal_Hbond.Weighted>
0.0000

> <Gold.Chemscore.DEClash.Weighted>
0.0574

> <Gold.Chemscore.DEInternal.Weighted>
1.2534

> <Gold.Chemscore.Rot.Weighted>
6.9081

> <Gold.Chemscore.Internal.Correction.Weighted>
   9.000000E+99

> <Gold.Protein.RotatedTorsions>
[ 6907 6896 6895 6894 ] final   88.32 input  -60.11 | X-H torsion
[ 7974 7965 7964 7962 ] final   45.53 input  175.53 | X-H torsion
[ 8008 7997 7996 7995 ] final   21.29 input   59.86 | X-H torsion
[ 10167 10162 10161 10158 ] final -113.38 input  -65.29 | X-H torsion
[ 10718 10713 10712 10709 ] final -117.72 input   66.30 | X-H torsion
[ 10763 10752 10751 10750 ] final   74.54 input  -60.55 | X-H torsion
[ 11005 11000 10999 10996 ] final -122.13 input  -57.11 | X-H torsion

> <Gold.Protein.ActiveResidues>
 VAL166  LYS551  ARG553  GLY616  TRP617  ASP618  TYR619  PRO620  LYS621  CYS622 
 ASP623  PHE694  ASN695  SER759  ASP760  ASP761  ALA762  ILE779  LEU786  VAL792 
 PHE793  MET794  SER795  GLU796  ALA797  LYS798  CYS799  TRP800  GLU811  SER814 

> <Gold.Protein.RotatedAtoms>
  152.5423  134.2140  159.8760 H   0  0  0  0  0  0  0  0  0  0  0  0  # atno 6907 bound_to 6896
  151.2121  133.4543  159.2606 H   0  0  0  0  0  0  0  0  0  0  0  0  # atno 6908 bound_to 6896
  151.0887  134.9915  159.8447 H   0  0  0  0  0  0  0  0  0  0  0  0  # atno 6909 bound_to 6896
  146.0472  139.4955  142.9741 H   0  0  0  0  0  0  0  0  0  0  0  0  # atno 7974 bound_to 7965
  154.9483  140.3062  155.5087 H   0  0  0  0  0  0  0  0  0  0  0  0  # atno 8008 bound_to 7997
  156.2989  140.2323  156.4496 H   0  0  0  0  0  0  0  0  0  0  0  0  # atno 8009 bound_to 7997
  154.8079  140.0430  157.1309 H   0  0  0  0  0  0  0  0  0  0  0  0  # atno 8010 bound_to 7997
  140.1125  143.4515  152.1743 H   0  0  0  0  0  0  0  0  0  0  0  0  # atno 10167 bound_to 10162
  156.1054  130.6206  150.9200 H   0  0  0  0  0  0  0  0  0  0  0  0  # atno 10718 bound_to 10713
  153.0593  135.5022  154.8057 H   0  0  0  0  0  0  0  0  0  0  0  0  # atno 10763 bound_to 10752
  154.6858  135.2976  154.9552 H   0  0  0  0  0  0  0  0  0  0  0  0  # atno 10764 bound_to 10752
  154.0323  135.6728  153.4834 H   0  0  0  0  0  0  0  0  0  0  0  0  # atno 10765 bound_to 10752
  141.0018  134.0391  157.3527 H   0  0  0  0  0  0  0  0  0  0  0  0  # atno 11005 bound_to 11000
  145.6786  141.0197  143.1619 LP  0  0  0  0  0  0  0  0  0  0  0  0  # atno 17320 bound_to 7965
  144.7104  139.8394  143.7416 LP  0  0  0  0  0  0  0  0  0  0  0  0  # atno 17321 bound_to 7965
  139.5612  144.7406  151.4151 LP  0  0  0  0  0  0  0  0  0  0  0  0  # atno 17342 bound_to 10162
  140.6918  143.7844  150.7266 LP  0  0  0  0  0  0  0  0  0  0  0  0  # atno 17343 bound_to 10162
  157.6230  131.0928  150.8586 LP  0  0  0  0  0  0  0  0  0  0  0  0  # atno 17370 bound_to 10713
  156.8707  130.5145  149.5297 LP  0  0  0  0  0  0  0  0  0  0  0  0  # atno 17371 bound_to 10713
  139.9043  135.0175  156.7413 LP  0  0  0  0  0  0  0  0  0  0  0  0  # atno 17394 bound_to 11000
  140.6876  133.9418  155.7947 LP  0  0  0  0  0  0  0  0  0  0  0  0  # atno 17395 bound_to 11000

$$$$
