AV-unprocessed.smi:3169|AV-procd|sdf|12104|dock4
  -GOLD-   2272017543D 1   1.00000     0.00000
 Structure written by MMmdl.
 36 37  0  0  0  0  0  0  0  0  2 V2000
  146.3847  136.0408  155.4613 O   0  0  0  0  0  0  0  0  0  0  0  0
  147.0453  136.1377  154.4266 C   0  0  0  0  0  0  0  0  0  0  0  0
  146.5295  136.0194  153.1952 N   0  0  0  0  0  0  0  0  0  0  0  0
  145.1236  135.7627  152.9064 C   0  0  0  0  0  0  0  0  0  0  0  0
  144.8768  135.6149  151.3961 C   0  0  0  0  0  0  0  0  0  0  0  0
  145.2567  134.2863  150.9146 N   0  0  0  0  0  0  0  0  0  0  0  0
  144.4606  133.3748  150.2702 C   0  0  0  0  0  0  0  0  0  0  0  0
  145.2464  132.2792  150.0194 C   0  0  0  0  0  0  0  0  0  0  0  0
  146.4868  132.5681  150.5225 N   0  3  0  0  0  0  0  0  0  0  0  0
  146.4909  133.7891  151.0673 C   0  0  0  0  0  0  0  0  0  0  0  0
  148.3636  136.3735  154.3952 N   0  0  0  0  0  0  0  0  0  0  0  0
  149.2028  136.5762  155.5704 C   0  0  0  0  0  0  0  0  0  0  0  0
  150.6548  136.8899  155.1753 C   0  0  1  0  0  0  0  0  0  0  0  0
  150.7999  138.1370  154.3054 C   0  0  0  0  0  0  0  0  0  0  0  0
  152.2301  138.5365  154.5865 C   0  0  0  0  0  0  0  0  0  0  0  0
  152.3520  138.2277  156.0760 C   0  0  0  0  0  0  0  0  0  0  0  0
  151.4437  137.1591  156.3324 O   0  0  0  0  0  0  0  0  0  0  0  0
  147.1504  136.1202  152.4054 H   0  0  0  0  0  0  0  0  0  0  0  0
  144.7929  134.8690  153.4386 H   0  0  0  0  0  0  0  0  0  0  0  0
  144.5369  136.5927  153.3009 H   0  0  0  0  0  0  0  0  0  0  0  0
  143.8233  135.7698  151.1595 H   0  0  0  0  0  0  0  0  0  0  0  0
  145.4453  136.3543  150.8297 H   0  0  0  0  0  0  0  0  0  0  0  0
  143.4218  133.5682  150.0445 H   0  0  0  0  0  0  0  0  0  0  0  0
  145.0214  131.3404  149.5343 H   0  0  0  0  0  0  0  0  0  0  0  0
  147.3261  134.2770  151.5381 H   0  0  0  0  0  0  0  0  0  0  0  0
  148.8178  136.4403  153.4960 H   0  0  0  0  0  0  0  0  0  0  0  0
  148.7959  137.3816  156.1843 H   0  0  0  0  0  0  0  0  0  0  0  0
  149.1670  135.6736  156.1809 H   0  0  0  0  0  0  0  0  0  0  0  0
  151.1017  136.0424  154.6525 H   0  0  0  0  0  0  0  0  0  0  0  0
  150.6084  137.9438  153.2497 H   0  0  0  0  0  0  0  0  0  0  0  0
  150.1212  138.9235  154.6392 H   0  0  0  0  0  0  0  0  0  0  0  0
  152.9132  137.9074  154.0140 H   0  0  0  0  0  0  0  0  0  0  0  0
  152.4415  139.5792  154.3476 H   0  0  0  0  0  0  0  0  0  0  0  0
  153.3700  137.9630  156.3624 H   0  0  0  0  0  0  0  0  0  0  0  0
  152.0471  139.0899  156.6703 H   0  0  0  0  0  0  0  0  0  0  0  0
  147.2872  131.9490  150.4896 H   0  0  0  0  0  0  0  0  0  0  0  0
  1  2  2  0  0  0  0
  2  3  1  0  0  0  0
  2 11  1  0  0  0  0
  3  4  1  0  0  0  0
  3 18  1  0  0  0  0
  4  5  1  0  0  0  0
  4 19  1  0  0  0  0
  4 20  1  0  0  0  0
  5  6  1  0  0  0  0
  5 21  1  0  0  0  0
  5 22  1  0  0  0  0
  6 10  1  0  0  0  0
  6  7  1  0  0  0  0
  7  8  2  0  0  0  0
  7 23  1  0  0  0  0
  8  9  1  0  0  0  0
  8 24  1  0  0  0  0
  9 10  2  0  0  0  0
  9 36  1  0  0  0  0
 10 25  1  0  0  0  0
 11 12  1  0  0  0  0
 11 26  1  0  0  0  0
 12 13  1  0  0  0  0
 12 27  1  0  0  0  0
 12 28  1  0  0  0  0
 13 17  1  0  0  0  0
 13 14  1  0  0  0  0
 13 29  1  0  0  0  0
 14 15  1  0  0  0  0
 14 30  1  0  0  0  0
 14 31  1  0  0  0  0
 15 16  1  0  0  0  0
 15 32  1  0  0  0  0
 15 33  1  0  0  0  0
 16 17  1  0  0  0  0
 16 34  1  0  0  0  0
 16 35  1  0  0  0  0
M  CHG  1   9   1
M  END
> <s_m_source_file>
AV-unprocessed.smi

> <i_m_source_file_index>
3169

> <i_lp_mmshare_version>
43012

> <i_f3d_flags>
0

> <s_epik_input>
TzFbQ0gyXVtDSDJdW0NIMl1bQ0BIXTFbQ0gyXVtOSF1DKD1PKVtOSF1bQ0gyXVtDSDJdbjJbY0hdW2NIXW5bY0hdMg==

> <s_epik_cmdline>
J2VwaWtfcHl0aG9uJywgJy1waCcsICc3LjAnLCAnLXRuJywgJzgnLCAnLW1hJywgJzIwMCcsICctbWV0YWxfYmluZGluZycsICctaW1hZScsICc8aW5maWxlLm1hZT4nLCAnLW9tYWUnLCAnPG91dGZpbGUubWFlPic=

> <r_lp_tautomer_probability>
1

> <r_epik_Ionization_Penalty>
0.256136

> <r_epik_Ionization_Penalty_Charging>
0

> <r_epik_Ionization_Penalty_Neutral>
0.256136

> <r_epik_State_Penalty>
0.247629

> <r_epik_Charging_Adjusted_Penalty>
0.247629

> <i_epik_Tot_Q>
1

> <i_epik_Tot_abs_Q>
1

> <r_epik_Metal_State_Penalty>
0.537113

> <b_epik_Metal_Only>
0

> <s_lp_Force_Field>
OPLS_2005

> <r_lp_Energy>
16.1594

> <b_lp_Chiralities_Consistent>
1

> <s_lp_Variant>
AV-unprocessed.smi:3169-2

> <Gold.Version>
5.8.1

> <Gold.Id.Protein>
6NUR|6NUR_protein|mol2

> <Gold.PLP.Fitness>
42.2330

> <Gold.PLP.PLP>
-28.0974

> <Gold.PLP.part.hbond>
-2.9562

> <Gold.PLP.part.metal>
0.0000

> <Gold.PLP.part.buried>
-5.2522

> <Gold.PLP.part.nonpolar>
-20.6333

> <Gold.PLP.part.repulsive>
0.1145

> <Gold.PLP.ligand.clash>
0.0000

> <Gold.PLP.ligand.torsion>
0.1046

> <Gold.PLP.Chemscore.Hbond>
2.9193

> <Gold.PLP.Chemscore.CHOScore>
1.8561

> <Gold.PLP.Chemscore.Metal>
0.0000

> <Gold.Chemscore.Hbonds>
donor molecule, donor type, donor heavy atom, donor atom, acceptor molecule, acceptor atom, score
      L1  H     3    18       P1  7948  0.93
      L1  H     9    36       P1 10747  1.00
      L1  H    11    26       P1  7948  1.00
      L1  C     7    23       P1 10186  0.81
      L1  C    10    25       P1  7948  1.00

> <Gold.PLP.Chemscore.Internal.Correction>
0.0187

> <Gold.Rescore>
     Score         DG    S(hbond)    S(metal)    S(lipo)     H(rot)  DE(clash)    DE(int)     intcor
     15.92     -16.03       2.91        0.00      58.18       2.33       0.00       0.12       ----

> <Gold.Chemscore.Fitness>
15.9158

> <Gold.Chemscore.DG>
-16.0315

> <Gold.Chemscore.ZeroCoef>
-5.4800

> <Gold.Chemscore.Hbond>
2.9062

> <Gold.Chemscore.Metal>
0.0000

> <Gold.Chemscore.Lipo>
58.1763

> <Gold.Chemscore.Internal_Hbond>
0.0000

> <Gold.Chemscore.DEClash>
0.0000

> <Gold.Chemscore.DEInternal>
0.1157

> <Gold.Chemscore.Rot>
2.3288

> <Gold.Chemscore.Internal.Correction>
   9.000000E+99

> <Gold.Chemscore.Hbonds>
donor molecule, donor type, donor heavy atom, donor atom, acceptor molecule, acceptor atom, score
      L1  H     3    18       P1  7948  0.90
      L1  H     9    36       P1 10747  0.94
      L1  H    11    26       P1  7948  0.98

> <Gold.Chemscore.Hbond.Weighted>
-9.7066

> <Gold.Chemscore.Metal.Weighted>
-0.0000

> <Gold.Chemscore.Lipo.Weighted>
-6.8066

> <Gold.Chemscore.Internal_Hbond.Weighted>
0.0000

> <Gold.Chemscore.DEClash.Weighted>
0.0000

> <Gold.Chemscore.DEInternal.Weighted>
0.1157

> <Gold.Chemscore.Rot.Weighted>
5.9617

> <Gold.Chemscore.Internal.Correction.Weighted>
   9.000000E+99

> <Gold.Protein.RotatedTorsions>
[ 6907 6896 6895 6894 ] final    8.46 input  -60.11 | X-H torsion
[ 7974 7965 7964 7962 ] final -149.87 input  175.53 | X-H torsion
[ 8008 7997 7996 7995 ] final -177.13 input   59.86 | X-H torsion
[ 10167 10162 10161 10158 ] final   13.23 input  -65.29 | X-H torsion
[ 10718 10713 10712 10709 ] final   38.13 input   66.30 | X-H torsion
[ 10763 10752 10751 10750 ] final   93.19 input  -60.55 | X-H torsion
[ 11005 11000 10999 10996 ] final  -80.82 input  -57.11 | X-H torsion

> <Gold.Protein.ActiveResidues>
 VAL166  LYS551  ARG553  GLY616  TRP617  ASP618  TYR619  PRO620  LYS621  CYS622 
 ASP623  PHE694  ASN695  SER759  ASP760  ASP761  ALA762  ILE779  LEU786  VAL792 
 PHE793  MET794  SER795  GLU796  ALA797  LYS798  CYS799  TRP800  GLU811  SER814 

> <Gold.Protein.RotatedAtoms>
  151.7064  135.0921  160.0259 H   0  0  0  0  0  0  0  0  0  0  0  0  # atno 6907 bound_to 6896
  152.3689  133.6389  159.6080 H   0  0  0  0  0  0  0  0  0  0  0  0  # atno 6908 bound_to 6896
  150.7658  133.9219  159.3442 H   0  0  0  0  0  0  0  0  0  0  0  0  # atno 6909 bound_to 6896
  144.7941  140.5007  143.5752 H   0  0  0  0  0  0  0  0  0  0  0  0  # atno 7974 bound_to 7965
  156.0032  140.1225  157.0527 H   0  0  0  0  0  0  0  0  0  0  0  0  # atno 8008 bound_to 7997
  154.4249  140.1102  156.5795 H   0  0  0  0  0  0  0  0  0  0  0  0  # atno 8009 bound_to 7997
  155.6183  140.3472  155.4646 H   0  0  0  0  0  0  0  0  0  0  0  0  # atno 8010 bound_to 7997
  140.6016  143.8593  150.6971 H   0  0  0  0  0  0  0  0  0  0  0  0  # atno 10167 bound_to 10162
  157.3552  130.7620  149.7007 H   0  0  0  0  0  0  0  0  0  0  0  0  # atno 10718 bound_to 10713
  153.2276  135.4334  155.0559 H   0  0  0  0  0  0  0  0  0  0  0  0  # atno 10763 bound_to 10752
  154.8281  135.3371  154.6835 H   0  0  0  0  0  0  0  0  0  0  0  0  # atno 10764 bound_to 10752
  153.7264  135.7014  153.5056 H   0  0  0  0  0  0  0  0  0  0  0  0  # atno 10765 bound_to 10752
  141.1667  133.7168  156.8330 H   0  0  0  0  0  0  0  0  0  0  0  0  # atno 11005 bound_to 11000
  145.5718  139.1484  143.3284 LP  0  0  0  0  0  0  0  0  0  0  0  0  # atno 17320 bound_to 7965
  146.2204  140.5851  142.9020 LP  0  0  0  0  0  0  0  0  0  0  0  0  # atno 17321 bound_to 7965
  140.2140  143.3861  152.1695 LP  0  0  0  0  0  0  0  0  0  0  0  0  # atno 17342 bound_to 10162
  139.5295  144.7142  151.5107 LP  0  0  0  0  0  0  0  0  0  0  0  0  # atno 17343 bound_to 10162
  155.9728  130.4129  150.4056 LP  0  0  0  0  0  0  0  0  0  0  0  0  # atno 17370 bound_to 10713
  157.2125  131.0463  151.2591 LP  0  0  0  0  0  0  0  0  0  0  0  0  # atno 17371 bound_to 10713
  140.2037  134.8878  157.3198 LP  0  0  0  0  0  0  0  0  0  0  0  0  # atno 17394 bound_to 11000
  140.2160  134.4081  155.7589 LP  0  0  0  0  0  0  0  0  0  0  0  0  # atno 17395 bound_to 11000

$$$$
