AV-unprocessed.smi:919|AV-procd|sdf|4167|dock8
  -GOLD-   22720 2 73D 1   1.00000     0.00000
 Structure written by MMmdl.
 43 45  0  0  0  0  0  0  0  0  1 V2000
  150.0673  136.2705  155.0597 C   0  0  0  0  0  0  0  0  0  0  0  0
  150.1605  137.7591  154.8849 C   0  0  0  0  0  0  0  0  0  0  0  0
  151.3476  138.3348  154.7934 N   0  0  0  0  0  0  0  0  0  0  0  0
  151.0987  139.7026  154.6422 O   0  0  0  0  0  0  0  0  0  0  0  0
  149.7554  139.8985  154.6477 C   0  0  0  0  0  0  0  0  0  0  0  0
  149.2872  141.3066  154.5005 C   0  0  0  0  0  0  0  0  0  0  0  0
  149.1012  138.7065  154.7942 C   0  0  0  0  0  0  0  0  0  0  0  0
  147.6219  138.4408  154.8537 C   0  0  0  0  0  0  0  0  0  0  0  0
  146.9566  138.6698  153.4876 C   0  0  0  0  0  0  0  0  0  0  0  0
  146.8932  137.4375  152.7119 N   0  0  0  0  0  0  0  0  0  0  0  0
  145.8586  136.5798  152.7108 C   0  0  0  0  0  0  0  0  0  0  0  0
  144.8321  136.7549  153.3650 O   0  0  0  0  0  0  0  0  0  0  0  0
  146.0286  135.4964  151.9325 N   0  0  0  0  0  0  0  0  0  0  0  0
  145.0954  134.3880  151.7187 C   0  0  1  0  0  0  0  0  0  0  0  0
  144.2778  134.5278  150.4125 C   0  0  0  0  0  0  0  0  0  0  0  0
  144.6274  133.2373  149.6488 C   0  0  2  0  0  0  0  0  0  0  0  0
  144.0005  132.0266  150.3673 C   0  0  0  0  0  0  0  0  0  0  0  0
  144.8692  131.8925  151.6337 C   0  0  0  0  0  0  0  0  0  0  0  0
  145.8574  133.0648  151.4882 C   0  0  1  0  0  0  0  0  0  0  0  0
  146.1037  133.0719  149.9822 C   0  0  0  0  0  0  0  0  0  0  0  0
  149.2455  136.0047  155.7254 H   0  0  0  0  0  0  0  0  0  0  0  0
  150.9821  135.8572  155.4859 H   0  0  0  0  0  0  0  0  0  0  0  0
  149.8921  135.7772  154.1037 H   0  0  0  0  0  0  0  0  0  0  0  0
  148.2332  141.3987  154.7630 H   0  0  0  0  0  0  0  0  0  0  0  0
  149.4117  141.6486  153.4730 H   0  0  0  0  0  0  0  0  0  0  0  0
  149.8544  141.9730  155.1507 H   0  0  0  0  0  0  0  0  0  0  0  0
  147.4280  137.4193  155.1832 H   0  0  0  0  0  0  0  0  0  0  0  0
  147.1530  139.0823  155.6008 H   0  0  0  0  0  0  0  0  0  0  0  0
  145.9544  139.0838  153.6135 H   0  0  0  0  0  0  0  0  0  0  0  0
  147.5250  139.4032  152.9148 H   0  0  0  0  0  0  0  0  0  0  0  0
  147.6959  137.2137  152.1421 H   0  0  0  0  0  0  0  0  0  0  0  0
  146.8985  135.4407  151.4226 H   0  0  0  0  0  0  0  0  0  0  0  0
  144.4430  134.2964  152.5891 H   0  0  0  0  0  0  0  0  0  0  0  0
  143.2075  134.6179  150.6026 H   0  0  0  0  0  0  0  0  0  0  0  0
  144.5852  135.4024  149.8370 H   0  0  0  0  0  0  0  0  0  0  0  0
  144.3976  133.2832  148.5839 H   0  0  0  0  0  0  0  0  0  0  0  0
  142.9468  132.1857  150.5997 H   0  0  0  0  0  0  0  0  0  0  0  0
  144.0761  131.1275  149.7544 H   0  0  0  0  0  0  0  0  0  0  0  0
  144.2827  131.9495  152.5514 H   0  0  0  0  0  0  0  0  0  0  0  0
  145.3984  130.9387  151.6350 H   0  0  0  0  0  0  0  0  0  0  0  0
  146.7518  132.9526  152.1023 H   0  0  0  0  0  0  0  0  0  0  0  0
  146.5310  132.1398  149.6080 H   0  0  0  0  0  0  0  0  0  0  0  0
  146.7198  133.9079  149.6461 H   0  0  0  0  0  0  0  0  0  0  0  0
  1  2  1  0  0  0  0
  1 21  1  0  0  0  0
  1 22  1  0  0  0  0
  1 23  1  0  0  0  0
  2  7  1  0  0  0  0
  2  3  2  0  0  0  0
  3  4  1  0  0  0  0
  4  5  1  0  0  0  0
  5  6  1  0  0  0  0
  5  7  2  0  0  0  0
  6 24  1  0  0  0  0
  6 25  1  0  0  0  0
  6 26  1  0  0  0  0
  7  8  1  0  0  0  0
  8  9  1  0  0  0  0
  8 27  1  0  0  0  0
  8 28  1  0  0  0  0
  9 10  1  0  0  0  0
  9 29  1  0  0  0  0
  9 30  1  0  0  0  0
 10 11  1  0  0  0  0
 10 31  1  0  0  0  0
 11 12  2  0  0  0  0
 11 13  1  0  0  0  0
 13 14  1  0  0  0  0
 13 32  1  0  0  0  0
 14 19  1  0  0  0  0
 14 15  1  0  0  0  0
 14 33  1  0  0  0  0
 15 16  1  0  0  0  0
 15 34  1  0  0  0  0
 15 35  1  0  0  0  0
 16 20  1  0  0  0  0
 16 17  1  0  0  0  0
 16 36  1  0  0  0  0
 17 18  1  0  0  0  0
 17 37  1  0  0  0  0
 17 38  1  0  0  0  0
 18 19  1  0  0  0  0
 18 39  1  0  0  0  0
 18 40  1  0  0  0  0
 19 20  1  0  0  0  0
 19 41  1  0  0  0  0
 20 42  1  0  0  0  0
 20 43  1  0  0  0  0
M  END
> <s_m_source_file>
AV-unprocessed.smi

> <i_m_source_file_index>
919

> <i_lp_mmshare_version>
43012

> <i_f3d_flags>
0

> <s_epik_input>
W0NIM11jMW5vYyhbQ0gzXSljMVtDSDJdW0NIMl1bTkhdQyg9TylbTkhdW0NASF0oW0NIMl1bQ0BASF0yMylbQ0BASF0oW0NIMl0zKVtDSDJdW0NIMl0y

> <s_epik_cmdline>
J2VwaWtfcHl0aG9uJywgJy1waCcsICc3LjAnLCAnLXRuJywgJzgnLCAnLW1hJywgJzIwMCcsICctbWV0YWxfYmluZGluZycsICctaW1hZScsICc8aW5maWxlLm1hZT4nLCAnLW9tYWUnLCAnPG91dGZpbGUubWFlPic=

> <r_lp_tautomer_probability>
1

> <r_epik_Ionization_Penalty>
6.40771e-05

> <r_epik_Ionization_Penalty_Charging>
0

> <r_epik_Ionization_Penalty_Neutral>
6.40771e-05

> <r_epik_State_Penalty>
-0

> <r_epik_Charging_Adjusted_Penalty>
0

> <i_epik_Tot_Q>
0

> <i_epik_Tot_abs_Q>
0

> <r_epik_Metal_State_Penalty>
-0

> <b_epik_Metal_Only>
0

> <s_lp_Force_Field>
OPLS_2005

> <r_lp_Energy>
47.296

> <b_lp_Chiralities_Consistent>
1

> <s_lp_Variant>
AV-unprocessed.smi:919-4

> <Gold.Version>
5.8.1

> <Gold.Id.Protein>
6NUR|6NUR_protein|mol2

> <Gold.PLP.Fitness>
39.6785

> <Gold.PLP.PLP>
-33.5113

> <Gold.PLP.part.hbond>
-2.8719

> <Gold.PLP.part.metal>
0.0000

> <Gold.PLP.part.buried>
-4.1169

> <Gold.PLP.part.nonpolar>
-25.7594

> <Gold.PLP.part.repulsive>
0.3551

> <Gold.PLP.ligand.clash>
0.0000

> <Gold.PLP.ligand.torsion>
0.8255

> <Gold.PLP.Chemscore.Hbond>
2.5983

> <Gold.PLP.Chemscore.CHOScore>
0.0000

> <Gold.PLP.Chemscore.Metal>
0.0000

> <Gold.Chemscore.Hbonds>
donor molecule, donor type, donor heavy atom, donor atom, acceptor molecule, acceptor atom, score
      L1  H    10    31       P1  7948  0.99
      L1  H    13    32       P1  7948  0.38
      P1  H  7989  7998       L1     4  1.00

> <Gold.PLP.Chemscore.Internal.Correction>
0.0232

> <Gold.Rescore>
     Score         DG    S(hbond)    S(metal)    S(lipo)     H(rot)  DE(clash)    DE(int)     intcor
     19.50     -20.32       2.54        0.00      87.36       1.52       0.12       0.70       ----

> <Gold.Chemscore.Fitness>
19.4981

> <Gold.Chemscore.DG>
-20.3182

> <Gold.Chemscore.ZeroCoef>
-5.4800

> <Gold.Chemscore.Hbond>
2.5446

> <Gold.Chemscore.Metal>
0.0000

> <Gold.Chemscore.Lipo>
87.3552

> <Gold.Chemscore.Internal_Hbond>
0.0000

> <Gold.Chemscore.DEClash>
0.1153

> <Gold.Chemscore.DEInternal>
0.7048

> <Gold.Chemscore.Rot>
1.5161

> <Gold.Chemscore.Internal.Correction>
   9.000000E+99

> <Gold.Chemscore.Hbonds>
donor molecule, donor type, donor heavy atom, donor atom, acceptor molecule, acceptor atom, score
      L1  H    10    31       P1  7948  0.93
      L1  H    13    32       P1  7948  0.39
      P1  H  7989  7998       L1     4  0.40

> <Gold.Chemscore.Hbond.Weighted>
-8.4990

> <Gold.Chemscore.Metal.Weighted>
-0.0000

> <Gold.Chemscore.Lipo.Weighted>
-10.2206

> <Gold.Chemscore.Internal_Hbond.Weighted>
0.0000

> <Gold.Chemscore.DEClash.Weighted>
0.1153

> <Gold.Chemscore.DEInternal.Weighted>
0.7048

> <Gold.Chemscore.Rot.Weighted>
3.8813

> <Gold.Chemscore.Internal.Correction.Weighted>
   9.000000E+99

> <Gold.Protein.RotatedTorsions>
[ 6907 6896 6895 6894 ] final -154.09 input  -60.11 | X-H torsion
[ 7974 7965 7964 7962 ] final  131.92 input  175.53 | X-H torsion
[ 8008 7997 7996 7995 ] final -140.75 input   59.86 | X-H torsion
[ 10167 10162 10161 10158 ] final  -81.97 input  -65.29 | X-H torsion
[ 10718 10713 10712 10709 ] final  -91.95 input   66.30 | X-H torsion
[ 10763 10752 10751 10750 ] final -117.64 input  -60.55 | X-H torsion
[ 11005 11000 10999 10996 ] final  139.28 input  -57.11 | X-H torsion

> <Gold.Protein.ActiveResidues>
 VAL166  LYS551  ARG553  GLY616  TRP617  ASP618  TYR619  PRO620  LYS621  CYS622 
 ASP623  PHE694  ASN695  SER759  ASP760  ASP761  ALA762  ILE779  LEU786  VAL792 
 PHE793  MET794  SER795  GLU796  ALA797  LYS798  CYS799  TRP800  GLU811  SER814 

> <Gold.Protein.RotatedAtoms>
  151.2523  133.4344  159.2611 H   0  0  0  0  0  0  0  0  0  0  0  0  # atno 6907 bound_to 6896
  151.0606  134.9734  159.8268 H   0  0  0  0  0  0  0  0  0  0  0  0  # atno 6908 bound_to 6896
  152.5397  134.2473  159.8938 H   0  0  0  0  0  0  0  0  0  0  0  0  # atno 6909 bound_to 6896
  145.0022  139.4301  143.5286 H   0  0  0  0  0  0  0  0  0  0  0  0  # atno 7974 bound_to 7965
  155.4664  140.0549  157.2985 H   0  0  0  0  0  0  0  0  0  0  0  0  # atno 8008 bound_to 7997
  154.4716  140.2043  155.9935 H   0  0  0  0  0  0  0  0  0  0  0  0  # atno 8009 bound_to 7997
  156.1065  140.3211  155.8018 H   0  0  0  0  0  0  0  0  0  0  0  0  # atno 8010 bound_to 7997
  140.4363  143.2530  151.8689 H   0  0  0  0  0  0  0  0  0  0  0  0  # atno 10167 bound_to 10162
  155.9998  130.4968  150.5552 H   0  0  0  0  0  0  0  0  0  0  0  0  # atno 10718 bound_to 10713
  154.8561  135.4302  154.2011 H   0  0  0  0  0  0  0  0  0  0  0  0  # atno 10763 bound_to 10752
  153.3058  135.6972  153.7167 H   0  0  0  0  0  0  0  0  0  0  0  0  # atno 10764 bound_to 10752
  153.6279  135.3490  155.3006 H   0  0  0  0  0  0  0  0  0  0  0  0  # atno 10765 bound_to 10752
  140.0243  134.9382  157.0537 H   0  0  0  0  0  0  0  0  0  0  0  0  # atno 11005 bound_to 11000
  146.3454  139.9417  142.8740 LP  0  0  0  0  0  0  0  0  0  0  0  0  # atno 17320 bound_to 7965
  145.2137  140.9906  143.4085 LP  0  0  0  0  0  0  0  0  0  0  0  0  # atno 17321 bound_to 7965
  139.4787  144.5279  151.8709 LP  0  0  0  0  0  0  0  0  0  0  0  0  # atno 17342 bound_to 10162
  140.4369  144.2039  150.5889 LP  0  0  0  0  0  0  0  0  0  0  0  0  # atno 17343 bound_to 10162
  157.3469  131.0726  151.1744 LP  0  0  0  0  0  0  0  0  0  0  0  0  # atno 17370 bound_to 10713
  157.2573  130.6642  149.5958 LP  0  0  0  0  0  0  0  0  0  0  0  0  # atno 17371 bound_to 10713
  140.4333  134.1758  155.7169 LP  0  0  0  0  0  0  0  0  0  0  0  0  # atno 17394 bound_to 11000
  141.1793  133.8447  157.1313 LP  0  0  0  0  0  0  0  0  0  0  0  0  # atno 17395 bound_to 11000

$$$$
