AV-unprocessed.smi:1218|AV-procd|sdf|5109|dock8
  -GOLD-   22720 4163D 1   1.00000     0.00000
 Structure written by MMmdl.
 45 46  0  0  0  0  0  0  0  0  2 V2000
  146.1656  134.5467  151.8272 C   0  0  0  0  0  0  0  0  0  0  0  0
  145.0147  135.5657  151.8778 C   0  0  0  0  0  0  0  0  0  0  0  0
  144.1098  135.4140  150.6460 C   0  0  0  0  0  0  0  0  0  0  0  0
  145.5335  137.0157  151.9932 C   0  0  0  0  0  0  0  0  0  0  0  0
  146.6526  137.1623  152.9592 N   0  3  2  0  0  0  0  0  0  0  0  0
  146.4740  136.3723  154.2027 C   0  0  0  0  0  0  0  0  0  0  0  0
  147.6858  136.5519  155.1315 C   0  0  0  0  0  0  0  0  0  0  0  0
  147.8697  137.9334  155.4097 O   0  0  0  0  0  0  0  0  0  0  0  0
  148.1450  138.6878  154.2334 C   0  0  2  0  0  0  0  0  0  0  0  0
  148.4301  140.1421  154.6478 C   0  0  0  0  0  0  0  0  0  0  0  0
  149.1702  140.2019  155.9027 N   0  0  0  0  0  0  0  0  0  0  0  0
  150.3390  140.8374  156.0768 C   0  0  0  0  0  0  0  0  0  0  0  0
  150.8946  141.4897  155.1929 O   0  0  0  0  0  0  0  0  0  0  0  0
  150.9950  140.6938  157.4497 C   0  0  0  0  0  0  0  0  0  0  0  0
  151.4275  141.9863  157.9492 N   0  0  0  0  0  0  0  0  0  0  0  0
  151.2760  143.2257  157.3624 C   0  0  0  0  0  0  0  0  0  0  0  0
  151.8496  144.1425  158.1962 C   0  0  0  0  0  0  0  0  0  0  0  0
  152.3331  143.3580  159.2805 C   0  0  0  0  0  0  0  0  0  0  0  0
  152.0817  142.0677  159.1291 N   0  0  0  0  0  0  0  0  0  0  0  0
  146.9349  138.5806  153.2859 C   0  0  0  0  0  0  0  0  0  0  0  0
  146.8159  134.7243  150.9699 H   0  0  0  0  0  0  0  0  0  0  0  0
  145.7835  133.5284  151.7472 H   0  0  0  0  0  0  0  0  0  0  0  0
  146.7801  134.5917  152.7264 H   0  0  0  0  0  0  0  0  0  0  0  0
  144.3993  135.3338  152.7465 H   0  0  0  0  0  0  0  0  0  0  0  0
  144.6541  135.6232  149.7245 H   0  0  0  0  0  0  0  0  0  0  0  0
  143.2620  136.0981  150.6946 H   0  0  0  0  0  0  0  0  0  0  0  0
  143.7091  134.4023  150.5737 H   0  0  0  0  0  0  0  0  0  0  0  0
  145.8641  137.3392  151.0048 H   0  0  0  0  0  0  0  0  0  0  0  0
  144.7259  137.6918  152.2784 H   0  0  0  0  0  0  0  0  0  0  0  0
  145.5647  136.6936  154.7133 H   0  0  0  0  0  0  0  0  0  0  0  0
  146.3546  135.3143  153.9731 H   0  0  0  0  0  0  0  0  0  0  0  0
  147.5217  136.0218  156.0697 H   0  0  0  0  0  0  0  0  0  0  0  0
  148.5889  136.1340  154.6832 H   0  0  0  0  0  0  0  0  0  0  0  0
  149.0254  138.2760  153.7363 H   0  0  0  0  0  0  0  0  0  0  0  0
  148.9890  140.6595  153.8664 H   0  0  0  0  0  0  0  0  0  0  0  0
  147.4946  140.6883  154.7724 H   0  0  0  0  0  0  0  0  0  0  0  0
  148.7895  139.6867  156.6837 H   0  0  0  0  0  0  0  0  0  0  0  0
  150.2843  140.2618  158.1553 H   0  0  0  0  0  0  0  0  0  0  0  0
  151.8508  140.0180  157.4011 H   0  0  0  0  0  0  0  0  0  0  0  0
  150.7794  143.3496  156.4112 H   0  0  0  0  0  0  0  0  0  0  0  0
  151.9138  145.2109  158.0533 H   0  0  0  0  0  0  0  0  0  0  0  0
  152.8567  143.6858  160.1664 H   0  0  0  0  0  0  0  0  0  0  0  0
  147.1400  139.1338  152.3683 H   0  0  0  0  0  0  0  0  0  0  0  0
  146.0534  139.0324  153.7439 H   0  0  0  0  0  0  0  0  0  0  0  0
  147.4792  136.8091  152.4983 H   0  0  0  0  0  0  0  0  0  0  0  0
  1  2  1  0  0  0  0
  1 21  1  0  0  0  0
  1 22  1  0  0  0  0
  1 23  1  0  0  0  0
  2  3  1  0  0  0  0
  2  4  1  0  0  0  0
  2 24  1  0  0  0  0
  3 25  1  0  0  0  0
  3 26  1  0  0  0  0
  3 27  1  0  0  0  0
  4  5  1  0  0  0  0
  4 28  1  0  0  0  0
  4 29  1  0  0  0  0
  5 20  1  0  0  0  0
  5  6  1  0  0  0  0
  5 45  1  0  0  0  0
  6  7  1  0  0  0  0
  6 30  1  0  0  0  0
  6 31  1  0  0  0  0
  7  8  1  0  0  0  0
  7 32  1  0  0  0  0
  7 33  1  0  0  0  0
  8  9  1  0  0  0  0
  9 10  1  0  0  0  0
  9 20  1  0  0  0  0
  9 34  1  0  0  0  0
 10 11  1  0  0  0  0
 10 35  1  0  0  0  0
 10 36  1  0  0  0  0
 11 12  1  0  0  0  0
 11 37  1  0  0  0  0
 12 13  2  0  0  0  0
 12 14  1  0  0  0  0
 14 15  1  0  0  0  0
 14 38  1  0  0  0  0
 14 39  1  0  0  0  0
 15 19  1  0  0  0  0
 15 16  1  0  0  0  0
 16 17  2  0  0  0  0
 16 40  1  0  0  0  0
 17 18  1  0  0  0  0
 17 41  1  0  0  0  0
 18 19  2  0  0  0  0
 18 42  1  0  0  0  0
 20 43  1  0  0  0  0
 20 44  1  0  0  0  0
M  CHG  1   5   1
M  END
> <s_m_source_file>
AV-unprocessed.smi

> <i_m_source_file_index>
1218

> <i_lp_mmshare_version>
43012

> <i_f3d_flags>
0

> <s_epik_input>
W0NIM11bQ0hdKFtDSDNdKVtDSDJdTjFbQ0gyXVtDSDJdT1tDQEhdKFtDSDJdMSlbQ0gyXVtOSF1DKD1PKVtDSDJdbjJbY0hdW2NIXVtjSF1uMg==

> <s_epik_cmdline>
J2VwaWtfcHl0aG9uJywgJy1waCcsICc3LjAnLCAnLXRuJywgJzgnLCAnLW1hJywgJzIwMCcsICctbWV0YWxfYmluZGluZycsICctaW1hZScsICc8aW5maWxlLm1hZT4nLCAnLW9tYWUnLCAnPG91dGZpbGUubWFlPic=

> <r_lp_tautomer_probability>
1

> <r_epik_Ionization_Penalty>
0.0995066

> <r_epik_Ionization_Penalty_Charging>
0.0994921

> <r_epik_Ionization_Penalty_Neutral>
1.44634e-05

> <r_epik_State_Penalty>
0.0895432

> <r_epik_Charging_Adjusted_Penalty>
0.189035

> <i_epik_Tot_Q>
1

> <i_epik_Tot_abs_Q>
1

> <r_epik_Metal_State_Penalty>
0.0895432

> <b_epik_Metal_Only>
0

> <s_lp_Force_Field>
OPLS_2005

> <r_lp_Energy>
17.6202

> <b_lp_Chiralities_Consistent>
1

> <s_lp_Variant>
AV-unprocessed.smi:1218-4

> <Gold.Version>
5.8.1

> <Gold.Id.Protein>
6NUR|6NUR_protein|mol2

> <Gold.PLP.Fitness>
39.0776

> <Gold.PLP.PLP>
-29.9366

> <Gold.PLP.part.hbond>
-2.0000

> <Gold.PLP.part.metal>
0.0000

> <Gold.PLP.part.buried>
-0.2060

> <Gold.PLP.part.nonpolar>
-28.7714

> <Gold.PLP.part.repulsive>
0.2178

> <Gold.PLP.ligand.clash>
0.0000

> <Gold.PLP.ligand.torsion>
0.6324

> <Gold.PLP.Chemscore.Hbond>
2.4320

> <Gold.PLP.Chemscore.CHOScore>
1.0000

> <Gold.PLP.Chemscore.Metal>
0.0000

> <Gold.Chemscore.Hbonds>
donor molecule, donor type, donor heavy atom, donor atom, acceptor molecule, acceptor atom, score
      L1  H     5    45       P1  7948  2.00
      P1  H  7989  7998       L1    13  0.42
      L1  C    16    40       P1  8028  1.00

> <Gold.PLP.Chemscore.Internal.Correction>
0.1098

> <Gold.Rescore>
     Score         DG    S(hbond)    S(metal)    S(lipo)     H(rot)  DE(clash)    DE(int)     intcor
     12.05     -14.97       1.54        0.00      80.10       1.96       1.34       1.58       ----

> <Gold.Chemscore.Fitness>
12.0452

> <Gold.Chemscore.DG>
-14.9703

> <Gold.Chemscore.ZeroCoef>
-5.4800

> <Gold.Chemscore.Hbond>
1.5395

> <Gold.Chemscore.Metal>
0.0000

> <Gold.Chemscore.Lipo>
80.1028

> <Gold.Chemscore.Internal_Hbond>
0.0000

> <Gold.Chemscore.DEClash>
1.3432

> <Gold.Chemscore.DEInternal>
1.5819

> <Gold.Chemscore.Rot>
1.9624

> <Gold.Chemscore.Internal.Correction>
   9.000000E+99

> <Gold.Chemscore.Hbonds>
donor molecule, donor type, donor heavy atom, donor atom, acceptor molecule, acceptor atom, score
      L1  H     5    45       P1  7948  1.00
      P1  H  7989  7998       L1    13  0.42

> <Gold.Chemscore.Hbond.Weighted>
-5.1420

> <Gold.Chemscore.Metal.Weighted>
-0.0000

> <Gold.Chemscore.Lipo.Weighted>
-9.3720

> <Gold.Chemscore.Internal_Hbond.Weighted>
0.0000

> <Gold.Chemscore.DEClash.Weighted>
1.3432

> <Gold.Chemscore.DEInternal.Weighted>
1.5819

> <Gold.Chemscore.Rot.Weighted>
5.0237

> <Gold.Chemscore.Internal.Correction.Weighted>
   9.000000E+99

> <Gold.Protein.RotatedTorsions>
[ 6907 6896 6895 6894 ] final -169.22 input  -60.11 | X-H torsion
[ 7974 7965 7964 7962 ] final  -30.00 input  175.53 | X-H torsion
[ 8008 7997 7996 7995 ] final  155.66 input   59.86 | X-H torsion
[ 10167 10162 10161 10158 ] final   91.95 input  -65.29 | X-H torsion
[ 10718 10713 10712 10709 ] final -146.34 input   66.30 | X-H torsion
[ 10763 10752 10751 10750 ] final -131.10 input  -60.55 | X-H torsion
[ 11005 11000 10999 10996 ] final  -52.89 input  -57.11 | X-H torsion

> <Gold.Protein.ActiveResidues>
 VAL166  LYS551  ARG553  GLY616  TRP617  ASP618  TYR619  PRO620  LYS621  CYS622 
 ASP623  PHE694  ASN695  SER759  ASP760  ASP761  ALA762  ILE779  LEU786  VAL792 
 PHE793  MET794  SER795  GLU796  ALA797  LYS798  CYS799  TRP800  GLU811  SER814 

> <Gold.Protein.RotatedAtoms>
  151.4881  133.3531  159.2848 H   0  0  0  0  0  0  0  0  0  0  0  0  # atno 6907 bound_to 6896
  150.8853  134.8252  159.7265 H   0  0  0  0  0  0  0  0  0  0  0  0  # atno 6908 bound_to 6896
  152.4789  134.4783  159.9709 H   0  0  0  0  0  0  0  0  0  0  0  0  # atno 6909 bound_to 6896
  146.1175  140.5485  142.8750 H   0  0  0  0  0  0  0  0  0  0  0  0  # atno 7974 bound_to 7965
  156.2466  140.1933  156.6835 H   0  0  0  0  0  0  0  0  0  0  0  0  # atno 8008 bound_to 7997
  154.6304  140.0596  156.9751 H   0  0  0  0  0  0  0  0  0  0  0  0  # atno 8009 bound_to 7997
  155.1720  140.3269  155.4393 H   0  0  0  0  0  0  0  0  0  0  0  0  # atno 8010 bound_to 7997
  139.8324  144.6680  150.9383 H   0  0  0  0  0  0  0  0  0  0  0  0  # atno 10167 bound_to 10162
  156.3937  130.7898  151.2103 H   0  0  0  0  0  0  0  0  0  0  0  0  # atno 10718 bound_to 10713
  154.8752  135.3841  154.4192 H   0  0  0  0  0  0  0  0  0  0  0  0  # atno 10763 bound_to 10752
  153.4897  135.7030  153.5896 H   0  0  0  0  0  0  0  0  0  0  0  0  # atno 10764 bound_to 10752
  153.4275  135.3886  155.2117 H   0  0  0  0  0  0  0  0  0  0  0  0  # atno 10765 bound_to 10752
  141.0948  133.6626  156.4091 H   0  0  0  0  0  0  0  0  0  0  0  0  # atno 11005 bound_to 11000
  144.7566  140.5323  143.6764 LP  0  0  0  0  0  0  0  0  0  0  0  0  # atno 17320 bound_to 7965
  145.5536  139.1477  143.3380 LP  0  0  0  0  0  0  0  0  0  0  0  0  # atno 17321 bound_to 7965
  140.7805  143.3988  151.1184 LP  0  0  0  0  0  0  0  0  0  0  0  0  # atno 17342 bound_to 10162
  139.7641  143.8592  152.3106 LP  0  0  0  0  0  0  0  0  0  0  0  0  # atno 17343 bound_to 10162
  157.7500  131.0308  150.4153 LP  0  0  0  0  0  0  0  0  0  0  0  0  # atno 17370 bound_to 10713
  156.4419  130.3993  149.6692 LP  0  0  0  0  0  0  0  0  0  0  0  0  # atno 17371 bound_to 10713
  140.5167  134.6343  157.5304 LP  0  0  0  0  0  0  0  0  0  0  0  0  # atno 17394 bound_to 11000
  139.9782  134.7181  155.9910 LP  0  0  0  0  0  0  0  0  0  0  0  0  # atno 17395 bound_to 11000

$$$$
