AV-unprocessed.smi:110|AV-procd|sdf|1078|dock1
  -GOLD-   2262018163D 1   1.00000     0.00000
 Structure written by MMmdl.
 46 50  0  0  0  0  0  0  0  0  1 V2000
  145.3903  136.8353  156.2380 O   0  0  0  0  0  0  0  0  0  0  0  0
  146.7766  136.9897  156.0222 C   0  0  0  0  0  0  0  0  0  0  0  0
  147.0354  137.5065  154.5985 C   0  0  2  0  0  0  0  0  0  0  0  0
  148.4322  137.7349  154.3986 O   0  0  0  0  0  0  0  0  0  0  0  0
  148.6802  138.9664  153.7827 C   0  0  2  0  0  0  0  0  0  0  0  0
  149.2598  139.9172  154.7990 N   0  0  0  0  0  0  0  0  0  0  0  0
  148.8028  141.1775  155.1219 C   0  0  0  0  0  0  0  0  0  0  0  0
  149.5007  141.8198  156.0165 N   0  0  0  0  0  0  0  0  0  0  0  0
  150.5531  140.9633  156.3126 C   0  0  0  0  0  0  0  0  0  0  0  0
  151.6844  141.0395  157.1791 C   0  0  0  0  0  0  0  0  0  0  0  0
  151.9359  142.0904  158.0049 N   0  0  0  0  0  0  0  0  0  0  0  0
  151.3393  143.4031  157.7114 C   0  0  0  0  0  0  0  0  0  0  0  0
  151.3515  144.2328  159.0064 C   0  0  0  0  0  0  0  0  0  0  0  0
  152.1035  143.3211  159.9176 C   0  0  0  0  0  0  0  0  0  0  0  0
  152.4942  143.5843  161.2419 C   0  0  0  0  0  0  0  0  0  0  0  0
  153.2152  142.5887  161.9334 C   0  0  0  0  0  0  0  0  0  0  0  0
  153.5350  141.3684  161.2959 C   0  0  0  0  0  0  0  0  0  0  0  0
  153.1338  141.1269  159.9631 C   0  0  0  0  0  0  0  0  0  0  0  0
  152.3979  142.1191  159.2786 C   0  0  0  0  0  0  0  0  0  0  0  0
  152.5332  139.9799  157.1811 N   0  0  0  0  0  0  0  0  0  0  0  0
  152.3095  138.9299  156.3889 C   0  0  0  0  0  0  0  0  0  0  0  0
  151.3034  138.7299  155.5385 N   0  0  0  0  0  0  0  0  0  0  0  0
  150.4266  139.7758  155.5328 C   0  0  0  0  0  0  0  0  0  0  0  0
  147.3189  139.4753  153.2892 C   0  0  1  0  0  0  0  0  0  0  0  0
  147.0680  139.0435  151.9646 O   0  0  0  0  0  0  0  0  0  0  0  0
  146.3833  138.8612  154.3179 C   0  0  1  0  0  0  0  0  0  0  0  0
  145.0506  138.7572  153.8545 O   0  0  0  0  0  0  0  0  0  0  0  0
  146.6978  136.7836  153.8533 H   0  0  0  0  0  0  0  0  0  0  0  0
  149.4504  138.9019  153.0133 H   0  0  0  0  0  0  0  0  0  0  0  0
  147.2604  140.5627  153.2914 H   0  0  0  0  0  0  0  0  0  0  0  0
  146.3988  139.4730  155.2216 H   0  0  0  0  0  0  0  0  0  0  0  0
  144.9365  137.0431  155.4356 H   0  0  0  0  0  0  0  0  0  0  0  0
  147.1408  137.7128  156.7530 H   0  0  0  0  0  0  0  0  0  0  0  0
  147.3000  136.0523  156.2096 H   0  0  0  0  0  0  0  0  0  0  0  0
  147.9255  141.6187  154.6720 H   0  0  0  0  0  0  0  0  0  0  0  0
  151.9378  143.9022  156.9486 H   0  0  0  0  0  0  0  0  0  0  0  0
  150.3241  143.2982  157.3261 H   0  0  0  0  0  0  0  0  0  0  0  0
  151.8650  145.1868  158.8838 H   0  0  0  0  0  0  0  0  0  0  0  0
  150.3456  144.4070  159.3894 H   0  0  0  0  0  0  0  0  0  0  0  0
  152.2522  144.5241  161.7161 H   0  0  0  0  0  0  0  0  0  0  0  0
  153.5293  142.7629  162.9521 H   0  0  0  0  0  0  0  0  0  0  0  0
  154.0951  140.6155  161.8304 H   0  0  0  0  0  0  0  0  0  0  0  0
  153.4031  140.1962  159.4873 H   0  0  0  0  0  0  0  0  0  0  0  0
  153.0391  138.1358  156.4461 H   0  0  0  0  0  0  0  0  0  0  0  0
  147.8086  139.2832  151.4281 H   0  0  0  0  0  0  0  0  0  0  0  0
  144.8149  139.5701  153.4342 H   0  0  0  0  0  0  0  0  0  0  0  0
  1  2  1  0  0  0  0
  1 32  1  0  0  0  0
  2  3  1  0  0  0  0
  2 33  1  0  0  0  0
  2 34  1  0  0  0  0
  3 28  1  0  0  0  0
  3 26  1  0  0  0  0
  3  4  1  0  0  0  0
  4  5  1  0  0  0  0
  5 29  1  0  0  0  0
  5  6  1  0  0  0  0
  5 24  1  0  0  0  0
  6 23  1  0  0  0  0
  6  7  1  0  0  0  0
  7  8  2  0  0  0  0
  7 35  1  0  0  0  0
  8  9  1  0  0  0  0
  9 23  2  0  0  0  0
  9 10  1  0  0  0  0
 10 11  1  0  0  0  0
 10 20  2  0  0  0  0
 11 19  1  0  0  0  0
 11 12  1  0  0  0  0
 12 13  1  0  0  0  0
 12 36  1  0  0  0  0
 12 37  1  0  0  0  0
 13 14  1  0  0  0  0
 13 38  1  0  0  0  0
 13 39  1  0  0  0  0
 14 19  2  0  0  0  0
 14 15  1  0  0  0  0
 15 16  2  0  0  0  0
 15 40  1  0  0  0  0
 16 17  1  0  0  0  0
 16 41  1  0  0  0  0
 17 18  2  0  0  0  0
 17 42  1  0  0  0  0
 18 19  1  0  0  0  0
 18 43  1  0  0  0  0
 20 21  1  0  0  0  0
 21 22  2  0  0  0  0
 21 44  1  0  0  0  0
 22 23  1  0  0  0  0
 24 30  1  0  0  0  0
 24 25  1  0  0  0  0
 24 26  1  0  0  0  0
 25 45  1  0  0  0  0
 26 31  1  0  0  0  0
 26 27  1  0  0  0  0
 27 46  1  0  0  0  0
M  END
> <s_m_source_file>
AV-unprocessed.smi

> <i_m_source_file_index>
110

> <i_lp_mmshare_version>
43012

> <i_f3d_flags>
0

> <s_epik_input>
W09IXVtDSDJdW0NASF0xT1tDQEhdKFtDQEhdKFtPSF0pW0NAQEhdMVtPSF0pbihbY0hdbjIpYyhjMjMpbltjSF1uYzNOKFtDSDJdW0NIMl00KWMoYzQ1KVtjSF1bY0hdW2NIXVtjSF01

> <s_epik_cmdline>
J2VwaWtfcHl0aG9uJywgJy1waCcsICc3LjAnLCAnLXRuJywgJzgnLCAnLW1hJywgJzIwMCcsICctbWV0YWxfYmluZGluZycsICctaW1hZScsICc8aW5maWxlLm1hZT4nLCAnLW9tYWUnLCAnPG91dGZpbGUubWFlPic=

> <r_lp_tautomer_probability>
1

> <r_epik_Ionization_Penalty>
0.00068475

> <r_epik_Ionization_Penalty_Charging>
0

> <r_epik_Ionization_Penalty_Neutral>
0.00068475

> <r_epik_State_Penalty>
0.000417442

> <r_epik_Charging_Adjusted_Penalty>
0.000417442

> <i_epik_Tot_Q>
0

> <i_epik_Tot_abs_Q>
0

> <r_epik_Metal_State_Penalty>
-0

> <b_epik_Metal_Only>
0

> <s_epik_Chemistry_Notes>
This compound contains an acetal/aminal-like group ( X-CH(R)-Y where X, Y are N, S, or O) that may be acid/base labile, releasing an aldehyde.

> <s_lp_Force_Field>
OPLS_2005

> <r_lp_Energy>
62.7544

> <b_lp_Chiralities_Consistent>
1

> <s_lp_Variant>
AV-unprocessed.smi:110-16

> <Gold.Version>
5.8.1

> <Gold.Id.Protein>
6NUR|6NUR_protein|mol2

> <Gold.PLP.Fitness>
54.5791

> <Gold.PLP.PLP>
-46.9843

> <Gold.PLP.part.hbond>
-3.0305

> <Gold.PLP.part.metal>
0.0000

> <Gold.PLP.part.buried>
-6.1478

> <Gold.PLP.part.nonpolar>
-39.8005

> <Gold.PLP.part.repulsive>
1.9608

> <Gold.PLP.ligand.clash>
0.0000

> <Gold.PLP.ligand.torsion>
0.4874

> <Gold.PLP.Chemscore.Hbond>
2.8100

> <Gold.PLP.Chemscore.CHOScore>
0.0000

> <Gold.PLP.Chemscore.Metal>
0.0000

> <Gold.Chemscore.Hbonds>
donor molecule, donor type, donor heavy atom, donor atom, acceptor molecule, acceptor atom, score
      L1  H    25    45       P1  7957  1.00
      L1  H    27    46       P1 10175  0.96
      P1  H  7997  8009       L1    20  0.78

> <Gold.PLP.Chemscore.Internal.Correction>
0.1398

> <Gold.Rescore>
     Score         DG    S(hbond)    S(metal)    S(lipo)     H(rot)  DE(clash)    DE(int)     intcor
     13.74     -16.15       2.25        0.00     101.15       3.38       0.16       2.25       ----

> <Gold.Chemscore.Fitness>
13.7369

> <Gold.Chemscore.DG>
-16.1535

> <Gold.Chemscore.ZeroCoef>
-5.4800

> <Gold.Chemscore.Hbond>
2.2457

> <Gold.Chemscore.Metal>
0.0000

> <Gold.Chemscore.Lipo>
101.1550

> <Gold.Chemscore.Internal_Hbond>
0.0000

> <Gold.Chemscore.DEClash>
0.1641

> <Gold.Chemscore.DEInternal>
2.2526

> <Gold.Chemscore.Rot>
3.3837

> <Gold.Chemscore.Internal.Correction>
   9.000000E+99

> <Gold.Chemscore.Hbonds>
donor molecule, donor type, donor heavy atom, donor atom, acceptor molecule, acceptor atom, score
      L1  H    25    45       P1  7957  0.90
      L1  H    27    46       P1 10175  0.92
      P1  H  7997  8009       L1    20  0.11

> <Gold.Chemscore.Hbond.Weighted>
-7.5005

> <Gold.Chemscore.Metal.Weighted>
-0.0000

> <Gold.Chemscore.Lipo.Weighted>
-11.8351

> <Gold.Chemscore.Internal_Hbond.Weighted>
0.0000

> <Gold.Chemscore.DEClash.Weighted>
0.1641

> <Gold.Chemscore.DEInternal.Weighted>
2.2526

> <Gold.Chemscore.Rot.Weighted>
8.6622

> <Gold.Chemscore.Internal.Correction.Weighted>
   9.000000E+99

> <Gold.Protein.RotatedTorsions>
[ 6907 6896 6895 6894 ] final  112.66 input  -60.11 | X-H torsion
[ 7974 7965 7964 7962 ] final -121.55 input  175.53 | X-H torsion
[ 8008 7997 7996 7995 ] final  164.42 input   59.86 | X-H torsion
[ 10167 10162 10161 10158 ] final -177.45 input  -65.29 | X-H torsion
[ 10718 10713 10712 10709 ] final   83.84 input   66.30 | X-H torsion
[ 10763 10752 10751 10750 ] final -142.83 input  -60.55 | X-H torsion
[ 11005 11000 10999 10996 ] final  102.14 input  -57.11 | X-H torsion

> <Gold.Protein.ActiveResidues>
 VAL166  LYS551  ARG553  GLY616  TRP617  ASP618  TYR619  PRO620  LYS621  CYS622 
 ASP623  PHE694  ASN695  SER759  ASP760  ASP761  ALA762  ILE779  LEU786  VAL792 
 PHE793  MET794  SER795  GLU796  ALA797  LYS798  CYS799  TRP800  GLU811  SER814 

> <Gold.Protein.RotatedAtoms>
  152.4904  133.8485  159.7188 H   0  0  0  0  0  0  0  0  0  0  0  0  # atno 6907 bound_to 6896
  150.9028  133.7087  159.2881 H   0  0  0  0  0  0  0  0  0  0  0  0  # atno 6908 bound_to 6896
  151.4522  135.1035  159.9753 H   0  0  0  0  0  0  0  0  0  0  0  0  # atno 6909 bound_to 6896
  145.0391  140.8130  143.4277 H   0  0  0  0  0  0  0  0  0  0  0  0  # atno 7974 bound_to 7965
  156.1881  140.1697  156.8146 H   0  0  0  0  0  0  0  0  0  0  0  0  # atno 8008 bound_to 7997
  154.5438  140.0731  156.8587 H   0  0  0  0  0  0  0  0  0  0  0  0  # atno 8009 bound_to 7997
  155.3162  140.3370  155.4245 H   0  0  0  0  0  0  0  0  0  0  0  0  # atno 8010 bound_to 7997
  139.5479  144.2186  152.1023 H   0  0  0  0  0  0  0  0  0  0  0  0  # atno 10167 bound_to 10162
  157.6887  131.0108  150.2584 H   0  0  0  0  0  0  0  0  0  0  0  0  # atno 10718 bound_to 10713
  154.8494  135.3485  154.6090 H   0  0  0  0  0  0  0  0  0  0  0  0  # atno 10763 bound_to 10752
  153.6699  135.6985  153.5155 H   0  0  0  0  0  0  0  0  0  0  0  0  # atno 10764 bound_to 10752
  153.2751  135.4281  155.0981 H   0  0  0  0  0  0  0  0  0  0  0  0  # atno 10765 bound_to 10752
  139.8776  134.9212  156.5012 H   0  0  0  0  0  0  0  0  0  0  0  0  # atno 11005 bound_to 11000
  145.1671  139.2425  143.5361 LP  0  0  0  0  0  0  0  0  0  0  0  0  # atno 17320 bound_to 7965
  146.3507  140.1413  142.8594 LP  0  0  0  0  0  0  0  0  0  0  0  0  # atno 17321 bound_to 7965
  140.1676  144.4967  150.6597 LP  0  0  0  0  0  0  0  0  0  0  0  0  # atno 17342 bound_to 10162
  140.6733  143.2295  151.5570 LP  0  0  0  0  0  0  0  0  0  0  0  0  # atno 17343 bound_to 10162
  156.3168  130.3780  149.7611 LP  0  0  0  0  0  0  0  0  0  0  0  0  # atno 17370 bound_to 10713
  156.5194  130.8208  151.3198 LP  0  0  0  0  0  0  0  0  0  0  0  0  # atno 17371 bound_to 10713
  140.8588  133.8076  155.9243 LP  0  0  0  0  0  0  0  0  0  0  0  0  # atno 17394 bound_to 11000
  140.9070  134.2307  157.5008 LP  0  0  0  0  0  0  0  0  0  0  0  0  # atno 17395 bound_to 11000

$$$$
