AV-unprocessed.smi:789|AV-procd|sdf|3739|dock4
  -GOLD-   22720 1173D 1   1.00000     0.00000
 Structure written by MMmdl.
 34 35  0  0  0  0  0  0  0  0  1 V2000
  153.6566  141.7895  160.9185 C   0  0  0  0  0  0  0  0  0  0  0  0
  152.6901  142.4056  159.9508 C   0  0  0  0  0  0  0  0  0  0  0  0
  152.0134  141.7766  158.8657 C   0  0  0  0  0  0  0  0  0  0  0  0
  151.2762  142.8004  158.3367 C   0  0  0  0  0  0  0  0  0  0  0  0
  150.4293  142.7809  157.2742 N   0  0  0  0  0  0  0  0  0  0  0  0
  150.3144  141.8620  156.2951 C   0  0  0  0  0  0  0  0  0  0  0  0
  150.9814  140.8324  156.2145 O   0  0  0  0  0  0  0  0  0  0  0  0
  149.3884  142.1656  155.3671 N   0  0  0  0  0  0  0  0  0  0  0  0
  149.0107  141.3938  154.1798 C   0  0  0  0  0  0  0  0  0  0  0  0
  147.5386  141.6549  153.8069 C   0  0  0  0  0  0  0  0  0  0  0  0
  146.9123  140.2813  153.5623 C   0  0  0  0  0  0  0  0  0  0  0  0
  147.6925  139.3440  154.4777 C   0  0  0  0  0  0  0  0  0  0  0  0
  149.1254  139.8739  154.4226 C   0  0  0  0  0  0  0  0  0  0  0  0
  151.5111  143.9438  159.0696 N   0  0  0  0  0  0  0  0  0  0  0  0
  150.9745  145.2823  158.9133 C   0  0  0  0  0  0  0  0  0  0  0  0
  152.3859  143.6933  160.0671 N   0  0  0  0  0  0  0  0  0  0  0  0
  153.8596  140.7491  160.6639 H   0  0  0  0  0  0  0  0  0  0  0  0
  153.2623  141.8117  161.9346 H   0  0  0  0  0  0  0  0  0  0  0  0
  154.6079  142.3223  160.9168 H   0  0  0  0  0  0  0  0  0  0  0  0
  152.0737  140.7469  158.5474 H   0  0  0  0  0  0  0  0  0  0  0  0
  149.8147  143.5783  157.2011 H   0  0  0  0  0  0  0  0  0  0  0  0
  148.9023  143.0421  155.4904 H   0  0  0  0  0  0  0  0  0  0  0  0
  149.6437  141.6783  153.3371 H   0  0  0  0  0  0  0  0  0  0  0  0
  147.0127  142.1404  154.6308 H   0  0  0  0  0  0  0  0  0  0  0  0
  147.4433  142.3063  152.9376 H   0  0  0  0  0  0  0  0  0  0  0  0
  145.8402  140.2671  153.7603 H   0  0  0  0  0  0  0  0  0  0  0  0
  147.0633  139.9877  152.5226 H   0  0  0  0  0  0  0  0  0  0  0  0
  147.3099  139.4235  155.4963 H   0  0  0  0  0  0  0  0  0  0  0  0
  147.6183  138.2996  154.1735 H   0  0  0  0  0  0  0  0  0  0  0  0
  149.6463  139.4158  153.5808 H   0  0  0  0  0  0  0  0  0  0  0  0
  149.6866  139.6161  155.3217 H   0  0  0  0  0  0  0  0  0  0  0  0
  150.3666  145.3519  158.0112 H   0  0  0  0  0  0  0  0  0  0  0  0
  151.7917  146.0004  158.8406 H   0  0  0  0  0  0  0  0  0  0  0  0
  150.3562  145.5318  159.7759 H   0  0  0  0  0  0  0  0  0  0  0  0
  1  2  1  0  0  0  0
  1 17  1  0  0  0  0
  1 18  1  0  0  0  0
  1 19  1  0  0  0  0
  2 16  2  0  0  0  0
  2  3  1  0  0  0  0
  3  4  2  0  0  0  0
  3 20  1  0  0  0  0
  4  5  1  0  0  0  0
  4 14  1  0  0  0  0
  5  6  1  0  0  0  0
  5 21  1  0  0  0  0
  6  7  2  0  0  0  0
  6  8  1  0  0  0  0
  8  9  1  0  0  0  0
  8 22  1  0  0  0  0
  9 13  1  0  0  0  0
  9 10  1  0  0  0  0
  9 23  1  0  0  0  0
 10 11  1  0  0  0  0
 10 24  1  0  0  0  0
 10 25  1  0  0  0  0
 11 12  1  0  0  0  0
 11 26  1  0  0  0  0
 11 27  1  0  0  0  0
 12 13  1  0  0  0  0
 12 28  1  0  0  0  0
 12 29  1  0  0  0  0
 13 30  1  0  0  0  0
 13 31  1  0  0  0  0
 14 15  1  0  0  0  0
 14 16  1  0  0  0  0
 15 32  1  0  0  0  0
 15 33  1  0  0  0  0
 15 34  1  0  0  0  0
M  END
> <s_m_source_file>
AV-unprocessed.smi

> <i_m_source_file_index>
789

> <i_lp_mmshare_version>
43012

> <i_f3d_flags>
0

> <s_epik_input>
W0NIM11jMVtjSF1jKG4objEpW0NIM10pW05IXUMoPU8pW05IXVtDSF0yW0NIMl1bQ0gyXVtDSDJdW0NIMl0y

> <s_epik_cmdline>
J2VwaWtfcHl0aG9uJywgJy1waCcsICc3LjAnLCAnLXRuJywgJzgnLCAnLW1hJywgJzIwMCcsICctbWV0YWxfYmluZGluZycsICctaW1hZScsICc8aW5maWxlLm1hZT4nLCAnLW9tYWUnLCAnPG91dGZpbGUubWFlPic=

> <r_lp_tautomer_probability>
1

> <r_epik_Ionization_Penalty>
0.000101808

> <r_epik_Ionization_Penalty_Charging>
0

> <r_epik_Ionization_Penalty_Neutral>
0.000101808

> <r_epik_State_Penalty>
-0

> <r_epik_Charging_Adjusted_Penalty>
0

> <i_epik_Tot_Q>
0

> <i_epik_Tot_abs_Q>
0

> <r_epik_Metal_State_Penalty>
-0

> <b_epik_Metal_Only>
0

> <s_lp_Force_Field>
OPLS_2005

> <r_lp_Energy>
29.7198

> <b_lp_Chiralities_Consistent>
1

> <s_lp_Variant>
AV-unprocessed.smi:789-1

> <Gold.Version>
5.8.1

> <Gold.Id.Protein>
6NUR|6NUR_protein|mol2

> <Gold.PLP.Fitness>
40.2855

> <Gold.PLP.PLP>
-36.2297

> <Gold.PLP.part.hbond>
-2.0000

> <Gold.PLP.part.metal>
0.0000

> <Gold.PLP.part.buried>
-4.0897

> <Gold.PLP.part.nonpolar>
-30.2974

> <Gold.PLP.part.repulsive>
0.2393

> <Gold.PLP.ligand.clash>
0.0000

> <Gold.PLP.ligand.torsion>
0.4287

> <Gold.PLP.Chemscore.Hbond>
1.6370

> <Gold.PLP.Chemscore.CHOScore>
0.0000

> <Gold.PLP.Chemscore.Metal>
0.0000

> <Gold.Chemscore.Hbonds>
donor molecule, donor type, donor heavy atom, donor atom, acceptor molecule, acceptor atom, score
      L1  H     5    21       P1  8028  0.60
      L1  H     8    22       P1  8028  1.00

> <Gold.PLP.Chemscore.Internal.Correction>
0.0022

> <Gold.Rescore>
     Score         DG    S(hbond)    S(metal)    S(lipo)     H(rot)  DE(clash)    DE(int)     intcor
     14.50     -17.66       1.76        0.00      75.70       1.00       0.33       2.83       ----

> <Gold.Chemscore.Fitness>
14.4970

> <Gold.Chemscore.DG>
-17.6578

> <Gold.Chemscore.ZeroCoef>
-5.4800

> <Gold.Chemscore.Hbond>
1.7606

> <Gold.Chemscore.Metal>
0.0000

> <Gold.Chemscore.Lipo>
75.7047

> <Gold.Chemscore.Internal_Hbond>
0.0000

> <Gold.Chemscore.DEClash>
0.3339

> <Gold.Chemscore.DEInternal>
2.8270

> <Gold.Chemscore.Rot>
1.0000

> <Gold.Chemscore.Internal.Correction>
   9.000000E+99

> <Gold.Chemscore.Hbonds>
donor molecule, donor type, donor heavy atom, donor atom, acceptor molecule, acceptor atom, score
      L1  H     5    21       P1  8028  0.55
      L1  H     8    22       P1  8028  0.96

> <Gold.Chemscore.Hbond.Weighted>
-5.8804

> <Gold.Chemscore.Metal.Weighted>
-0.0000

> <Gold.Chemscore.Lipo.Weighted>
-8.8575

> <Gold.Chemscore.Internal_Hbond.Weighted>
0.0000

> <Gold.Chemscore.DEClash.Weighted>
0.3339

> <Gold.Chemscore.DEInternal.Weighted>
2.8270

> <Gold.Chemscore.Rot.Weighted>
2.5600

> <Gold.Chemscore.Internal.Correction.Weighted>
   9.000000E+99

> <Gold.Protein.RotatedTorsions>
[ 6907 6896 6895 6894 ] final   21.10 input  -60.11 | X-H torsion
[ 7974 7965 7964 7962 ] final -170.73 input  175.53 | X-H torsion
[ 8008 7997 7996 7995 ] final  -70.70 input   59.86 | X-H torsion
[ 10167 10162 10161 10158 ] final   87.04 input  -65.29 | X-H torsion
[ 10718 10713 10712 10709 ] final  -95.30 input   66.30 | X-H torsion
[ 10763 10752 10751 10750 ] final   -5.19 input  -60.55 | X-H torsion
[ 11005 11000 10999 10996 ] final  -18.32 input  -57.11 | X-H torsion

> <Gold.Protein.ActiveResidues>
 VAL166  LYS551  ARG553  GLY616  TRP617  ASP618  TYR619  PRO620  LYS621  CYS622 
 ASP623  PHE694  ASN695  SER759  ASP760  ASP761  ALA762  ILE779  LEU786  VAL792 
 PHE793  MET794  SER795  GLU796  ALA797  LYS798  CYS799  TRP800  GLU811  SER814 

> <Gold.Protein.RotatedAtoms>
  151.9066  135.0356  160.0510 H   0  0  0  0  0  0  0  0  0  0  0  0  # atno 6907 bound_to 6896
  152.2314  133.5057  159.5226 H   0  0  0  0  0  0  0  0  0  0  0  0  # atno 6908 bound_to 6896
  150.7026  134.1128  159.4049 H   0  0  0  0  0  0  0  0  0  0  0  0  # atno 6909 bound_to 6896
  144.7166  140.2027  143.6336 H   0  0  0  0  0  0  0  0  0  0  0  0  # atno 7974 bound_to 7965
  154.5032  140.0829  156.7841 H   0  0  0  0  0  0  0  0  0  0  0  0  # atno 8008 bound_to 7997
  155.3954  140.3434  155.4235 H   0  0  0  0  0  0  0  0  0  0  0  0  # atno 8009 bound_to 7997
  156.1483  140.1550  156.8799 H   0  0  0  0  0  0  0  0  0  0  0  0  # atno 8010 bound_to 7997
  139.8814  144.6438  150.8839 H   0  0  0  0  0  0  0  0  0  0  0  0  # atno 10167 bound_to 10162
  156.0041  130.5103  150.6056 H   0  0  0  0  0  0  0  0  0  0  0  0  # atno 10718 bound_to 10713
  153.3951  135.7003  153.6466 H   0  0  0  0  0  0  0  0  0  0  0  0  # atno 10763 bound_to 10752
  153.5023  135.3649  155.2546 H   0  0  0  0  0  0  0  0  0  0  0  0  # atno 10764 bound_to 10752
  154.8706  135.4115  154.3275 H   0  0  0  0  0  0  0  0  0  0  0  0  # atno 10765 bound_to 10752
  140.8256  133.8035  155.9705 H   0  0  0  0  0  0  0  0  0  0  0  0  # atno 11005 bound_to 11000
  145.8664  139.2249  143.1686 LP  0  0  0  0  0  0  0  0  0  0  0  0  # atno 17320 bound_to 7965
  146.0125  140.8422  142.9963 LP  0  0  0  0  0  0  0  0  0  0  0  0  # atno 17321 bound_to 7965
  140.7744  143.3582  151.1879 LP  0  0  0  0  0  0  0  0  0  0  0  0  # atno 17342 bound_to 10162
  139.7192  143.9250  152.2979 LP  0  0  0  0  0  0  0  0  0  0  0  0  # atno 17343 bound_to 10162
  157.3897  131.0794  151.1404 LP  0  0  0  0  0  0  0  0  0  0  0  0  # atno 17370 bound_to 10713
  157.2100  130.6433  149.5770 LP  0  0  0  0  0  0  0  0  0  0  0  0  # atno 17371 bound_to 10713
  140.9053  134.2328  157.5018 LP  0  0  0  0  0  0  0  0  0  0  0  0  # atno 17394 bound_to 11000
  139.8706  134.9725  156.4776 LP  0  0  0  0  0  0  0  0  0  0  0  0  # atno 17395 bound_to 11000

$$$$
