AV-unprocessed.smi:119|AV-procd|sdf|1136|dock10
  -GOLD-   2262018263D 1   1.00000     0.00000
 Structure written by MMmdl.
 51 54  0  0  0  0  0  0  0  0  1 V2000
  140.2577  136.8101  153.6866 C   0  0  0  0  0  0  0  0  0  0  0  0
  141.7043  136.5550  153.2438 C   0  0  1  0  0  0  0  0  0  0  0  0
  142.6866  137.4618  154.0076 C   0  0  0  0  0  0  0  0  0  0  0  0
  144.1199  137.4655  153.4446 C   0  0  0  0  0  0  0  0  0  0  0  0
  144.8398  136.2120  153.7059 N   0  0  0  0  0  0  0  0  0  0  0  0
  145.5528  135.9776  154.8388 C   0  0  0  0  0  0  0  0  0  0  0  0
  146.1117  134.8970  155.0460 O   0  0  0  0  0  0  0  0  0  0  0  0
  145.6711  137.0923  155.9024 C   0  0  0  0  0  0  0  0  0  0  0  0
  146.6881  136.8150  156.9414 N   0  0  0  0  0  0  0  0  0  0  0  0
  148.0486  136.7441  156.5541 C   0  0  0  0  0  0  0  0  0  0  0  0
  148.3877  136.9024  155.3803 O   0  0  0  0  0  0  0  0  0  0  0  0
  148.9950  136.4797  157.6308 C   0  0  0  0  0  0  0  0  0  0  0  0
  150.3059  136.3779  157.3528 F   0  0  0  0  0  0  0  0  0  0  0  0
  148.5775  136.3287  158.9049 C   0  0  0  0  0  0  0  0  0  0  0  0
  147.2452  136.4115  159.2744 N   0  0  0  0  0  0  0  0  0  0  0  0
  146.7717  136.2845  160.7094 C   0  0  1  0  0  0  0  0  0  0  0  0
  146.9331  134.9005  161.3444 C   0  0  0  0  0  0  0  0  0  0  0  0
  146.8917  135.2820  162.8057 C   0  0  0  0  0  0  0  0  0  0  0  0
  147.6993  136.5799  162.8035 C   0  0  0  0  0  0  0  0  0  0  0  0
  147.5313  137.1457  161.5040 O   0  0  0  0  0  0  0  0  0  0  0  0
  146.2684  136.6632  158.2845 C   0  0  0  0  0  0  0  0  0  0  0  0
  145.0762  136.7516  158.5873 O   0  0  0  0  0  0  0  0  0  0  0  0
  144.7527  135.2101  152.7009 C   0  0  0  0  0  0  0  0  0  0  0  0
  145.8895  134.9219  151.9122 C   0  0  0  0  0  0  0  0  0  0  0  0
  145.8286  133.9342  150.9111 C   0  0  0  0  0  0  0  0  0  0  0  0
  144.6309  133.2283  150.6913 C   0  0  0  0  0  0  0  0  0  0  0  0
  143.4946  133.5104  151.4728 C   0  0  0  0  0  0  0  0  0  0  0  0
  143.5478  134.5010  152.4737 C   0  0  0  0  0  0  0  0  0  0  0  0
  142.1021  134.7954  153.4463 S   0  0  0  0  0  0  0  0  0  0  0  0
  139.9700  137.8478  153.5149 H   0  0  0  0  0  0  0  0  0  0  0  0
  140.1251  136.5976  154.7479 H   0  0  0  0  0  0  0  0  0  0  0  0
  139.5615  136.1812  153.1310 H   0  0  0  0  0  0  0  0  0  0  0  0
  141.7696  136.7806  152.1788 H   0  0  0  0  0  0  0  0  0  0  0  0
  142.3145  138.4858  153.9611 H   0  0  0  0  0  0  0  0  0  0  0  0
  142.6871  137.1970  155.0651 H   0  0  0  0  0  0  0  0  0  0  0  0
  144.0818  137.6374  152.3677 H   0  0  0  0  0  0  0  0  0  0  0  0
  144.6679  138.3231  153.8331 H   0  0  0  0  0  0  0  0  0  0  0  0
  145.8897  138.0340  155.3979 H   0  0  0  0  0  0  0  0  0  0  0  0
  144.7010  137.2578  156.3701 H   0  0  0  0  0  0  0  0  0  0  0  0
  149.3406  136.1218  159.6367 H   0  0  0  0  0  0  0  0  0  0  0  0
  145.7265  136.6014  160.7005 H   0  0  0  0  0  0  0  0  0  0  0  0
  146.1450  134.2150  161.0321 H   0  0  0  0  0  0  0  0  0  0  0  0
  147.9138  134.4767  161.1310 H   0  0  0  0  0  0  0  0  0  0  0  0
  145.8637  135.4744  163.1160 H   0  0  0  0  0  0  0  0  0  0  0  0
  147.3115  134.5193  163.4622 H   0  0  0  0  0  0  0  0  0  0  0  0
  147.3718  137.2692  163.5822 H   0  0  0  0  0  0  0  0  0  0  0  0
  148.7595  136.3744  162.9567 H   0  0  0  0  0  0  0  0  0  0  0  0
  146.8131  135.4584  152.0752 H   0  0  0  0  0  0  0  0  0  0  0  0
  146.7016  133.7169  150.3134 H   0  0  0  0  0  0  0  0  0  0  0  0
  144.5844  132.4688  149.9251 H   0  0  0  0  0  0  0  0  0  0  0  0
  142.5796  132.9618  151.3026 H   0  0  0  0  0  0  0  0  0  0  0  0
  1  2  1  0  0  0  0
  1 30  1  0  0  0  0
  1 31  1  0  0  0  0
  1 32  1  0  0  0  0
  2 29  1  0  0  0  0
  2  3  1  0  0  0  0
  2 33  1  0  0  0  0
  3  4  1  0  0  0  0
  3 34  1  0  0  0  0
  3 35  1  0  0  0  0
  4  5  1  0  0  0  0
  4 36  1  0  0  0  0
  4 37  1  0  0  0  0
  5  6  1  0  0  0  0
  5 23  1  0  0  0  0
  6  7  2  0  0  0  0
  6  8  1  0  0  0  0
  8  9  1  0  0  0  0
  8 38  1  0  0  0  0
  8 39  1  0  0  0  0
  9 21  1  0  0  0  0
  9 10  1  0  0  0  0
 10 11  2  0  0  0  0
 10 12  1  0  0  0  0
 12 13  1  0  0  0  0
 12 14  2  0  0  0  0
 14 15  1  0  0  0  0
 14 40  1  0  0  0  0
 15 16  1  0  0  0  0
 15 21  1  0  0  0  0
 16 20  1  0  0  0  0
 16 17  1  0  0  0  0
 16 41  1  0  0  0  0
 17 18  1  0  0  0  0
 17 42  1  0  0  0  0
 17 43  1  0  0  0  0
 18 19  1  0  0  0  0
 18 44  1  0  0  0  0
 18 45  1  0  0  0  0
 19 20  1  0  0  0  0
 19 46  1  0  0  0  0
 19 47  1  0  0  0  0
 21 22  2  0  0  0  0
 23 28  2  0  0  0  0
 23 24  1  0  0  0  0
 24 25  2  0  0  0  0
 24 48  1  0  0  0  0
 25 26  1  0  0  0  0
 25 49  1  0  0  0  0
 26 27  2  0  0  0  0
 26 50  1  0  0  0  0
 27 28  1  0  0  0  0
 27 51  1  0  0  0  0
 28 29  1  0  0  0  0
M  END
> <s_m_source_file>
AV-unprocessed.smi

> <i_m_source_file_index>
119

> <i_lp_mmshare_version>
43012

> <i_f3d_flags>
0

> <s_epik_input>
W2NIXTFbY0hdW2NIXVtjSF1jKGMxMilTW0NASF0oW0NIM10pW0NIMl1bQ0gyXU4yQyg9TylbQ0gyXW4zYyg9TyljKEYpW2NIXW4oYzM9TylbQ0BASF00W0NIMl1bQ0gyXVtDSDJdTzQ=

> <s_epik_cmdline>
J2VwaWtfcHl0aG9uJywgJy1waCcsICc3LjAnLCAnLXRuJywgJzgnLCAnLW1hJywgJzIwMCcsICctbWV0YWxfYmluZGluZycsICctaW1hZScsICc8aW5maWxlLm1hZT4nLCAnLW9tYWUnLCAnPG91dGZpbGUubWFlPic=

> <r_lp_tautomer_probability>
1

> <r_epik_Ionization_Penalty>
1.68882e-06

> <r_epik_Ionization_Penalty_Charging>
3.67303e-09

> <r_epik_Ionization_Penalty_Neutral>
1.68515e-06

> <r_epik_State_Penalty>
-0

> <r_epik_Charging_Adjusted_Penalty>
3.67303e-09

> <i_epik_Tot_Q>
0

> <i_epik_Tot_abs_Q>
0

> <r_epik_Metal_State_Penalty>
-0

> <b_epik_Metal_Only>
0

> <s_epik_Chemistry_Notes>
This compound contains an acetal/aminal-like group ( X-CH(R)-Y where X, Y are N, S, or O) that may be acid/base labile, releasing an aldehyde.

> <s_lp_Force_Field>
OPLS_2005

> <r_lp_Energy>
51.7973

> <b_lp_Chiralities_Consistent>
1

> <s_lp_Variant>
AV-unprocessed.smi:119-4

> <Gold.Version>
5.8.1

> <Gold.Id.Protein>
6NUR|6NUR_protein|mol2

> <Gold.PLP.Fitness>
42.1946

> <Gold.PLP.PLP>
-38.9441

> <Gold.PLP.part.hbond>
-2.0000

> <Gold.PLP.part.metal>
0.0000

> <Gold.PLP.part.buried>
-5.8165

> <Gold.PLP.part.nonpolar>
-30.5932

> <Gold.PLP.part.repulsive>
0.1197

> <Gold.PLP.ligand.clash>
0.0000

> <Gold.PLP.ligand.torsion>
0.2725

> <Gold.PLP.Chemscore.Hbond>
1.2608

> <Gold.PLP.Chemscore.CHOScore>
0.0000

> <Gold.PLP.Chemscore.Metal>
0.0000

> <Gold.Chemscore.Hbonds>
donor molecule, donor type, donor heavy atom, donor atom, acceptor molecule, acceptor atom, score
      P1  H  6931  6943       L1    20  0.34
      P1  H  6934  6947       L1    20  0.85

> <Gold.PLP.Chemscore.Internal.Correction>
0.0131

> <Gold.Rescore>
     Score         DG    S(hbond)    S(metal)    S(lipo)     H(rot)  DE(clash)    DE(int)     intcor
     15.17     -15.34       0.96        0.00      90.34       1.53       0.02       0.15       ----

> <Gold.Chemscore.Fitness>
15.1671

> <Gold.Chemscore.DG>
-15.3371

> <Gold.Chemscore.ZeroCoef>
-5.4800

> <Gold.Chemscore.Hbond>
0.9567

> <Gold.Chemscore.Metal>
0.0000

> <Gold.Chemscore.Lipo>
90.3399

> <Gold.Chemscore.Internal_Hbond>
0.0000

> <Gold.Chemscore.DEClash>
0.0246

> <Gold.Chemscore.DEInternal>
0.1454

> <Gold.Chemscore.Rot>
1.5266

> <Gold.Chemscore.Internal.Correction>
   9.000000E+99

> <Gold.Chemscore.Hbonds>
donor molecule, donor type, donor heavy atom, donor atom, acceptor molecule, acceptor atom, score
      P1  H  6931  6943       L1    20  0.01
      P1  H  6934  6947       L1    20  0.58

> <Gold.Chemscore.Hbond.Weighted>
-3.1954

> <Gold.Chemscore.Metal.Weighted>
-0.0000

> <Gold.Chemscore.Lipo.Weighted>
-10.5698

> <Gold.Chemscore.Internal_Hbond.Weighted>
0.0000

> <Gold.Chemscore.DEClash.Weighted>
0.0246

> <Gold.Chemscore.DEInternal.Weighted>
0.1454

> <Gold.Chemscore.Rot.Weighted>
3.9081

> <Gold.Chemscore.Internal.Correction.Weighted>
   9.000000E+99

> <Gold.Protein.RotatedTorsions>
[ 6907 6896 6895 6894 ] final    6.77 input  -60.11 | X-H torsion
[ 7974 7965 7964 7962 ] final   70.71 input  175.53 | X-H torsion
[ 8008 7997 7996 7995 ] final   -1.63 input   59.86 | X-H torsion
[ 10167 10162 10161 10158 ] final -120.90 input  -65.29 | X-H torsion
[ 10718 10713 10712 10709 ] final -132.35 input   66.30 | X-H torsion
[ 10763 10752 10751 10750 ] final  128.62 input  -60.55 | X-H torsion
[ 11005 11000 10999 10996 ] final  172.80 input  -57.11 | X-H torsion

> <Gold.Protein.ActiveResidues>
 VAL166  LYS551  ARG553  GLY616  TRP617  ASP618  TYR619  PRO620  LYS621  CYS622 
 ASP623  PHE694  ASN695  SER759  ASP760  ASP761  ALA762  ILE779  LEU786  VAL792 
 PHE793  MET794  SER795  GLU796  ALA797  LYS798  CYS799  TRP800  GLU811  SER814 

> <Gold.Protein.RotatedAtoms>
  151.6791  135.0964  160.0212 H   0  0  0  0  0  0  0  0  0  0  0  0  # atno 6907 bound_to 6896
  152.3846  133.6589  159.6197 H   0  0  0  0  0  0  0  0  0  0  0  0  # atno 6908 bound_to 6896
  150.7775  133.8973  159.3372 H   0  0  0  0  0  0  0  0  0  0  0  0  # atno 6909 bound_to 6896
  145.7748  139.2860  143.1300 H   0  0  0  0  0  0  0  0  0  0  0  0  # atno 7974 bound_to 7965
  154.6446  140.2554  155.7282 H   0  0  0  0  0  0  0  0  0  0  0  0  # atno 8008 bound_to 7997
  156.2546  140.2880  156.0775 H   0  0  0  0  0  0  0  0  0  0  0  0  # atno 8009 bound_to 7997
  155.1543  140.0383  157.2818 H   0  0  0  0  0  0  0  0  0  0  0  0  # atno 8010 bound_to 7997
  140.0308  143.5250  152.2177 H   0  0  0  0  0  0  0  0  0  0  0  0  # atno 10167 bound_to 10162
  156.2337  130.7053  151.0885 H   0  0  0  0  0  0  0  0  0  0  0  0  # atno 10718 bound_to 10713
  153.7285  135.3242  155.3281 H   0  0  0  0  0  0  0  0  0  0  0  0  # atno 10763 bound_to 10752
  154.8333  135.4516  154.1146 H   0  0  0  0  0  0  0  0  0  0  0  0  # atno 10764 bound_to 10752
  153.2286  135.6957  153.7996 H   0  0  0  0  0  0  0  0  0  0  0  0  # atno 10765 bound_to 10752
  140.3336  134.7337  157.4152 H   0  0  0  0  0  0  0  0  0  0  0  0  # atno 11005 bound_to 11000
  146.0133  140.8415  142.9960 LP  0  0  0  0  0  0  0  0  0  0  0  0  # atno 17320 bound_to 7965
  144.6806  140.2522  143.7330 LP  0  0  0  0  0  0  0  0  0  0  0  0  # atno 17321 bound_to 7965
  139.6077  144.7601  151.3023 LP  0  0  0  0  0  0  0  0  0  0  0  0  # atno 17342 bound_to 10162
  140.7303  143.6884  150.7942 LP  0  0  0  0  0  0  0  0  0  0  0  0  # atno 17343 bound_to 10162
  157.7145  131.0717  150.6380 LP  0  0  0  0  0  0  0  0  0  0  0  0  # atno 17370 bound_to 10713
  156.6449  130.4469  149.5739 LP  0  0  0  0  0  0  0  0  0  0  0  0  # atno 17371 bound_to 10713
  140.0840  134.5692  155.8511 LP  0  0  0  0  0  0  0  0  0  0  0  0  # atno 17394 bound_to 11000
  141.2057  133.6649  156.6197 LP  0  0  0  0  0  0  0  0  0  0  0  0  # atno 17395 bound_to 11000

$$$$
