AV-unprocessed.smi:3046|AV-procd|sdf|11614|dock3
  -GOLD-   2272016593D 1   1.00000     0.00000
 Structure written by MMmdl.
 38 38  0  0  0  0  0  0  0  0  2 V2000
  152.4759  138.4063  154.6915 C   0  0  0  0  0  0  0  0  0  0  0  0
  151.2275  138.1417  154.2779 C   0  0  0  0  0  0  0  0  0  0  0  0
  150.1212  139.1730  154.1757 C   0  0  0  0  0  0  0  0  0  0  0  0
  148.9199  138.6094  153.5719 N   0  0  0  0  0  0  0  0  0  0  0  0
  147.6779  139.0960  153.7218 C   0  0  0  0  0  0  0  0  0  0  0  0
  147.4189  140.0910  154.3998 O   0  0  0  0  0  0  0  0  0  0  0  0
  146.5541  138.3324  153.0063 C   0  0  1  0  0  0  0  0  0  0  0  0
  146.5422  138.7000  151.5148 C   0  0  0  0  0  0  0  0  0  0  0  0
  146.7037  136.8642  153.1557 N   0  3  0  0  0  0  0  0  0  0  0  0
  145.5651  136.0379  152.6892 C   0  0  2  0  0  0  0  0  0  0  0  0
  145.5474  134.7129  153.4690 C   0  0  0  0  0  0  0  0  0  0  0  0
  145.6329  135.8168  151.1607 C   0  0  0  0  0  0  0  0  0  0  0  0
  145.4208  134.4315  150.7825 N   0  0  0  0  0  0  0  0  0  0  0  0
  144.2855  133.8447  150.2632 C   0  0  0  0  0  0  0  0  0  0  0  0
  144.5632  132.5213  150.0747 C   0  0  0  0  0  0  0  0  0  0  0  0
  145.9082  132.3904  150.5207 C   0  0  0  0  0  0  0  0  0  0  0  0
  146.4173  133.5351  150.9470 N   0  0  0  0  0  0  0  0  0  0  0  0
  152.7726  139.4039  154.9809 H   0  0  0  0  0  0  0  0  0  0  0  0
  153.2196  137.6247  154.7461 H   0  0  0  0  0  0  0  0  0  0  0  0
  150.9690  137.1295  154.0021 H   0  0  0  0  0  0  0  0  0  0  0  0
  149.9013  139.5640  155.1704 H   0  0  0  0  0  0  0  0  0  0  0  0
  150.4531  140.0178  153.5711 H   0  0  0  0  0  0  0  0  0  0  0  0
  149.0437  137.7839  153.0032 H   0  0  0  0  0  0  0  0  0  0  0  0
  145.5980  138.6370  153.4326 H   0  0  0  0  0  0  0  0  0  0  0  0
  146.4208  139.7746  151.3705 H   0  0  0  0  0  0  0  0  0  0  0  0
  145.7174  138.2083  150.9980 H   0  0  0  0  0  0  0  0  0  0  0  0
  147.4680  138.4012  151.0204 H   0  0  0  0  0  0  0  0  0  0  0  0
  147.5293  136.5670  152.6564 H   0  0  0  0  0  0  0  0  0  0  0  0
  144.6385  136.5609  152.9291 H   0  0  0  0  0  0  0  0  0  0  0  0
  144.6766  134.1083  153.2144 H   0  0  0  0  0  0  0  0  0  0  0  0
  145.5097  134.8928  154.5440 H   0  0  0  0  0  0  0  0  0  0  0  0
  146.4377  134.1182  153.2621 H   0  0  0  0  0  0  0  0  0  0  0  0
  144.8861  136.4184  150.6425 H   0  0  0  0  0  0  0  0  0  0  0  0
  146.6043  136.1333  150.7779 H   0  0  0  0  0  0  0  0  0  0  0  0
  143.3860  134.4105  150.0700 H   0  0  0  0  0  0  0  0  0  0  0  0
  143.9054  131.7610  149.6803 H   0  0  0  0  0  0  0  0  0  0  0  0
  146.5247  131.5040  150.5481 H   0  0  0  0  0  0  0  0  0  0  0  0
  146.8430  136.6818  154.1396 H   0  0  0  0  0  0  0  0  0  0  0  0
  1  2  2  0  0  0  0
  1 18  1  0  0  0  0
  1 19  1  0  0  0  0
  2  3  1  0  0  0  0
  2 20  1  0  0  0  0
  3  4  1  0  0  0  0
  3 21  1  0  0  0  0
  3 22  1  0  0  0  0
  4  5  1  0  0  0  0
  4 23  1  0  0  0  0
  5  6  2  0  0  0  0
  5  7  1  0  0  0  0
  7  8  1  0  0  0  0
  7  9  1  0  0  0  0
  7 24  1  0  0  0  0
  8 25  1  0  0  0  0
  8 26  1  0  0  0  0
  8 27  1  0  0  0  0
  9 10  1  0  0  0  0
  9 28  1  0  0  0  0
  9 38  1  0  0  0  0
 10 11  1  0  0  0  0
 10 12  1  0  0  0  0
 10 29  1  0  0  0  0
 11 30  1  0  0  0  0
 11 31  1  0  0  0  0
 11 32  1  0  0  0  0
 12 13  1  0  0  0  0
 12 33  1  0  0  0  0
 12 34  1  0  0  0  0
 13 17  1  0  0  0  0
 13 14  1  0  0  0  0
 14 15  2  0  0  0  0
 14 35  1  0  0  0  0
 15 16  1  0  0  0  0
 15 36  1  0  0  0  0
 16 17  2  0  0  0  0
 16 37  1  0  0  0  0
M  CHG  1   9   1
M  END
> <s_m_source_file>
AV-unprocessed.smi

> <i_m_source_file_index>
3046

> <i_lp_mmshare_version>
43012

> <i_f3d_flags>
0

> <s_epik_input>
W0NIMl09W0NIXVtDSDJdW05IXUMoPU8pW0NASF0oW0NIM10pW05IXVtDQEhdKFtDSDNdKVtDSDJdbjFbY0hdW2NIXVtjSF1uMQ==

> <s_epik_cmdline>
J2VwaWtfcHl0aG9uJywgJy1waCcsICc3LjAnLCAnLXRuJywgJzgnLCAnLW1hJywgJzIwMCcsICctbWV0YWxfYmluZGluZycsICctaW1hZScsICc8aW5maWxlLm1hZT4nLCAnLW9tYWUnLCAnPG91dGZpbGUubWFlPic=

> <r_lp_tautomer_probability>
1

> <r_epik_Ionization_Penalty>
0.132961

> <r_epik_Ionization_Penalty_Charging>
0.132956

> <r_epik_Ionization_Penalty_Neutral>
5.00268e-06

> <r_epik_State_Penalty>
0.122332

> <r_epik_Charging_Adjusted_Penalty>
0.255288

> <i_epik_Tot_Q>
1

> <i_epik_Tot_abs_Q>
1

> <r_epik_Metal_State_Penalty>
0.122338

> <b_epik_Metal_Only>
0

> <s_lp_Force_Field>
OPLS_2005

> <r_lp_Energy>
6.33671

> <b_lp_Chiralities_Consistent>
1

> <s_lp_Variant>
AV-unprocessed.smi:3046-2

> <Gold.Version>
5.8.1

> <Gold.Id.Protein>
6NUR|6NUR_protein|mol2

> <Gold.PLP.Fitness>
46.6574

> <Gold.PLP.PLP>
-35.2291

> <Gold.PLP.part.hbond>
-3.0000

> <Gold.PLP.part.metal>
0.0000

> <Gold.PLP.part.buried>
-2.1914

> <Gold.PLP.part.nonpolar>
-30.6098

> <Gold.PLP.part.repulsive>
0.3973

> <Gold.PLP.ligand.clash>
0.0000

> <Gold.PLP.ligand.torsion>
1.8531

> <Gold.PLP.Chemscore.Hbond>
3.0000

> <Gold.PLP.Chemscore.CHOScore>
2.0000

> <Gold.PLP.Chemscore.Metal>
0.0000

> <Gold.Chemscore.Hbonds>
donor molecule, donor type, donor heavy atom, donor atom, acceptor molecule, acceptor atom, score
      L1  H     4    23       P1  7948  1.00
      L1  H     9    28       P1  7948  2.00
      L1  C    14    35       P1 10186  1.00
      L1  C    16    37       P1 10747  0.96

> <Gold.PLP.Chemscore.Internal.Correction>
0.1345

> <Gold.Rescore>
     Score         DG    S(hbond)    S(metal)    S(lipo)     H(rot)  DE(clash)    DE(int)     intcor
     13.13     -16.14       1.98        0.00      84.22       2.26       0.08       2.93       ----

> <Gold.Chemscore.Fitness>
13.1342

> <Gold.Chemscore.DG>
-16.1399

> <Gold.Chemscore.ZeroCoef>
-5.4800

> <Gold.Chemscore.Hbond>
1.9754

> <Gold.Chemscore.Metal>
0.0000

> <Gold.Chemscore.Lipo>
84.2238

> <Gold.Chemscore.Internal_Hbond>
0.0000

> <Gold.Chemscore.DEClash>
0.0796

> <Gold.Chemscore.DEInternal>
2.9261

> <Gold.Chemscore.Rot>
2.2626

> <Gold.Chemscore.Internal.Correction>
   9.000000E+99

> <Gold.Chemscore.Hbonds>
donor molecule, donor type, donor heavy atom, donor atom, acceptor molecule, acceptor atom, score
      L1  H     4    23       P1  7948  1.00
      L1  H     9    28       P1  7948  1.00

> <Gold.Chemscore.Hbond.Weighted>
-6.5978

> <Gold.Chemscore.Metal.Weighted>
-0.0000

> <Gold.Chemscore.Lipo.Weighted>
-9.8542

> <Gold.Chemscore.Internal_Hbond.Weighted>
0.0000

> <Gold.Chemscore.DEClash.Weighted>
0.0796

> <Gold.Chemscore.DEInternal.Weighted>
2.9261

> <Gold.Chemscore.Rot.Weighted>
5.7922

> <Gold.Chemscore.Internal.Correction.Weighted>
   9.000000E+99

> <Gold.Protein.RotatedTorsions>
[ 6907 6896 6895 6894 ] final -110.78 input  -60.11 | X-H torsion
[ 7974 7965 7964 7962 ] final -109.48 input  175.53 | X-H torsion
[ 8008 7997 7996 7995 ] final   48.79 input   59.86 | X-H torsion
[ 10167 10162 10161 10158 ] final  -33.45 input  -65.29 | X-H torsion
[ 10718 10713 10712 10709 ] final -130.83 input   66.30 | X-H torsion
[ 10763 10752 10751 10750 ] final  171.60 input  -60.55 | X-H torsion
[ 11005 11000 10999 10996 ] final  132.09 input  -57.11 | X-H torsion

> <Gold.Protein.ActiveResidues>
 VAL166  LYS551  ARG553  GLY616  TRP617  ASP618  TYR619  PRO620  LYS621  CYS622 
 ASP623  PHE694  ASN695  SER759  ASP760  ASP761  ALA762  ILE779  LEU786  VAL792 
 PHE793  MET794  SER795  GLU796  ALA797  LYS798  CYS799  TRP800  GLU811  SER814 

> <Gold.Protein.RotatedAtoms>
  150.7647  133.9332  159.3433 H   0  0  0  0  0  0  0  0  0  0  0  0  # atno 6907 bound_to 6896
  151.7232  135.0888  160.0297 H   0  0  0  0  0  0  0  0  0  0  0  0  # atno 6908 bound_to 6896
  152.3636  133.6291  159.6069 H   0  0  0  0  0  0  0  0  0  0  0  0  # atno 6909 bound_to 6896
  145.1800  140.8966  143.3485 H   0  0  0  0  0  0  0  0  0  0  0  0  # atno 7974 bound_to 7965
  155.3915  140.3433  155.4251 H   0  0  0  0  0  0  0  0  0  0  0  0  # atno 8008 bound_to 7997
  156.1554  140.1584  156.8733 H   0  0  0  0  0  0  0  0  0  0  0  0  # atno 8009 bound_to 7997
  154.5090  140.0795  156.7934 H   0  0  0  0  0  0  0  0  0  0  0  0  # atno 8010 bound_to 7997
  140.7204  143.3619  151.1946 H   0  0  0  0  0  0  0  0  0  0  0  0  # atno 10167 bound_to 10162
  156.2184  130.6962  151.0728 H   0  0  0  0  0  0  0  0  0  0  0  0  # atno 10718 bound_to 10713
  154.4142  135.2757  155.2017 H   0  0  0  0  0  0  0  0  0  0  0  0  # atno 10763 bound_to 10752
  154.3990  135.6049  153.5890 H   0  0  0  0  0  0  0  0  0  0  0  0  # atno 10764 bound_to 10752
  152.9832  135.5922  154.4428 H   0  0  0  0  0  0  0  0  0  0  0  0  # atno 10765 bound_to 10752
  139.9769  134.9560  156.9532 H   0  0  0  0  0  0  0  0  0  0  0  0  # atno 11005 bound_to 11000
  145.0146  139.3479  143.6103 LP  0  0  0  0  0  0  0  0  0  0  0  0  # atno 17320 bound_to 7965
  146.3455  139.9422  142.8739 LP  0  0  0  0  0  0  0  0  0  0  0  0  # atno 17321 bound_to 7965
  139.7173  143.9280  152.2972 LP  0  0  0  0  0  0  0  0  0  0  0  0  # atno 17342 bound_to 10162
  139.9025  144.6903  150.8650 LP  0  0  0  0  0  0  0  0  0  0  0  0  # atno 17343 bound_to 10162
  157.7075  131.0750  150.6617 LP  0  0  0  0  0  0  0  0  0  0  0  0  # atno 17370 bound_to 10713
  156.6679  130.4531  149.5666 LP  0  0  0  0  0  0  0  0  0  0  0  0  # atno 17371 bound_to 10713
  140.5176  134.0939  155.7284 LP  0  0  0  0  0  0  0  0  0  0  0  0  # atno 17394 bound_to 11000
  141.1445  133.9079  157.2248 LP  0  0  0  0  0  0  0  0  0  0  0  0  # atno 17395 bound_to 11000

$$$$
