AV-unprocessed.smi:837|AV-procd|sdf|3897|dock6
  -GOLD-   22720 1353D 1   1.00000     0.00000
 Structure written by MMmdl.
 50 52  0  0  0  0  0  0  0  0  2 V2000
  144.3531  134.5436  151.5416 C   0  0  0  0  0  0  0  0  0  0  0  0
  143.2711  135.4584  152.1530 C   0  0  1  0  0  0  0  0  0  0  0  0
  142.2836  134.6383  153.0113 C   0  0  0  0  0  0  0  0  0  0  0  0
  141.1409  135.5114  153.5522 C   0  0  0  0  0  0  0  0  0  0  0  0
  141.6768  136.7067  154.3525 C   0  0  0  0  0  0  0  0  0  0  0  0
  142.6638  137.5395  153.5151 C   0  0  0  0  0  0  0  0  0  0  0  0
  143.8243  136.6970  152.9269 C   0  0  2  0  0  0  0  0  0  0  0  0
  144.6427  137.5323  152.0650 N   0  0  0  0  0  0  0  0  0  0  0  0
  145.8965  137.6810  152.5088 C   0  0  0  0  0  0  0  0  0  0  0  0
  146.7676  138.3555  151.9609 O   0  0  0  0  0  0  0  0  0  0  0  0
  146.0294  136.9735  153.6443 N   0  0  0  0  0  0  0  0  0  0  0  0
  147.2639  136.9156  154.4372 C   0  0  0  0  0  0  0  0  0  0  0  0
  147.9422  138.2845  154.5813 C   0  0  0  0  0  0  0  0  0  0  0  0
  147.2883  139.2849  154.8789 O   0  0  0  0  0  0  0  0  0  0  0  0
  149.2656  138.3108  154.3647 N   0  0  0  0  0  0  0  0  0  0  0  0
  150.1054  139.5042  154.4186 C   0  0  0  0  0  0  0  0  0  0  0  0
  151.2398  139.4046  155.4599 C   0  0  0  0  0  0  0  0  0  0  0  0
  151.3357  140.6120  156.3775 C   0  0  0  0  0  0  0  0  0  0  0  0
  152.2149  140.6073  157.4836 C   0  0  0  0  0  0  0  0  0  0  0  0
  152.2757  141.7380  158.3241 C   0  0  0  0  0  0  0  0  0  0  0  0
  151.4594  142.8507  158.0373 C   0  0  0  0  0  0  0  0  0  0  0  0
  150.6331  142.8207  156.9686 N   0  3  0  0  0  0  0  0  0  0  0  0
  150.5437  141.7562  156.1410 C   0  0  0  0  0  0  0  0  0  0  0  0
  144.8833  136.3656  153.9808 C   0  0  0  0  0  0  0  0  0  0  0  0
  144.6899  135.6572  154.9691 O   0  0  0  0  0  0  0  0  0  0  0  0
  144.9594  134.0632  152.3098 H   0  0  0  0  0  0  0  0  0  0  0  0
  145.0230  135.0962  150.8830 H   0  0  0  0  0  0  0  0  0  0  0  0
  143.8988  133.7517  150.9457 H   0  0  0  0  0  0  0  0  0  0  0  0
  142.6993  135.8487  151.3094 H   0  0  0  0  0  0  0  0  0  0  0  0
  141.8615  133.8285  152.4153 H   0  0  0  0  0  0  0  0  0  0  0  0
  142.8053  134.1602  153.8408 H   0  0  0  0  0  0  0  0  0  0  0  0
  140.5340  135.8725  152.7209 H   0  0  0  0  0  0  0  0  0  0  0  0
  140.4801  134.9115  154.1785 H   0  0  0  0  0  0  0  0  0  0  0  0
  140.8464  137.3356  154.6745 H   0  0  0  0  0  0  0  0  0  0  0  0
  142.1582  136.3534  155.2643 H   0  0  0  0  0  0  0  0  0  0  0  0
  142.1173  138.0163  152.7000 H   0  0  0  0  0  0  0  0  0  0  0  0
  143.0549  138.3546  154.1263 H   0  0  0  0  0  0  0  0  0  0  0  0
  144.2829  137.9625  151.2255 H   0  0  0  0  0  0  0  0  0  0  0  0
  147.0613  136.5235  155.4352 H   0  0  0  0  0  0  0  0  0  0  0  0
  147.9582  136.2100  153.9769 H   0  0  0  0  0  0  0  0  0  0  0  0
  149.7246  137.4401  154.1384 H   0  0  0  0  0  0  0  0  0  0  0  0
  150.5136  139.7202  153.4300 H   0  0  0  0  0  0  0  0  0  0  0  0
  149.4560  140.3423  154.6725 H   0  0  0  0  0  0  0  0  0  0  0  0
  151.1043  138.5098  156.0685 H   0  0  0  0  0  0  0  0  0  0  0  0
  152.1942  139.2730  154.9490 H   0  0  0  0  0  0  0  0  0  0  0  0
  152.8304  139.7442  157.6929 H   0  0  0  0  0  0  0  0  0  0  0  0
  152.9375  141.7482  159.1779 H   0  0  0  0  0  0  0  0  0  0  0  0
  151.4420  143.7563  158.6262 H   0  0  0  0  0  0  0  0  0  0  0  0
  149.8449  141.8511  155.3226 H   0  0  0  0  0  0  0  0  0  0  0  0
  150.0513  143.6371  156.7785 H   0  0  0  0  0  0  0  0  0  0  0  0
  1  2  1  0  0  0  0
  1 26  1  0  0  0  0
  1 27  1  0  0  0  0
  1 28  1  0  0  0  0
  2  7  1  0  0  0  0
  2  3  1  0  0  0  0
  2 29  1  0  0  0  0
  3  4  1  0  0  0  0
  3 30  1  0  0  0  0
  3 31  1  0  0  0  0
  4  5  1  0  0  0  0
  4 32  1  0  0  0  0
  4 33  1  0  0  0  0
  5  6  1  0  0  0  0
  5 34  1  0  0  0  0
  5 35  1  0  0  0  0
  6  7  1  0  0  0  0
  6 36  1  0  0  0  0
  6 37  1  0  0  0  0
  7 24  1  0  0  0  0
  7  8  1  0  0  0  0
  8  9  1  0  0  0  0
  8 38  1  0  0  0  0
  9 10  2  0  0  0  0
  9 11  1  0  0  0  0
 11 12  1  0  0  0  0
 11 24  1  0  0  0  0
 12 13  1  0  0  0  0
 12 39  1  0  0  0  0
 12 40  1  0  0  0  0
 13 14  2  0  0  0  0
 13 15  1  0  0  0  0
 15 16  1  0  0  0  0
 15 41  1  0  0  0  0
 16 17  1  0  0  0  0
 16 42  1  0  0  0  0
 16 43  1  0  0  0  0
 17 18  1  0  0  0  0
 17 44  1  0  0  0  0
 17 45  1  0  0  0  0
 18 23  1  0  0  0  0
 18 19  2  0  0  0  0
 19 20  1  0  0  0  0
 19 46  1  0  0  0  0
 20 21  2  0  0  0  0
 20 47  1  0  0  0  0
 21 22  1  0  0  0  0
 21 48  1  0  0  0  0
 22 23  2  0  0  0  0
 22 50  1  0  0  0  0
 23 49  1  0  0  0  0
 24 25  2  0  0  0  0
M  CHG  1  22   1
M  END
> <s_m_source_file>
AV-unprocessed.smi

> <i_m_source_file_index>
837

> <i_lp_mmshare_version>
43012

> <i_f3d_flags>
0

> <s_epik_input>
W0NIMl0xW0NIMl1bQ0gyXVtDSDJdW0NAQEhdKFtDSDNdKVtDQEBdMTJbTkhdQyg9TylOKEMyPU8pW0NIMl1DKD1PKVtOSF1bQ0gyXVtDSDJdYzNbY0hdW2NIXVtjSF1uW2NIXTM=

> <s_epik_cmdline>
J2VwaWtfcHl0aG9uJywgJy1waCcsICc3LjAnLCAnLXRuJywgJzgnLCAnLW1hJywgJzIwMCcsICctbWV0YWxfYmluZGluZycsICctaW1hZScsICc8aW5maWxlLm1hZT4nLCAnLW9tYWUnLCAnPG91dGZpbGUubWFlPic=

> <r_lp_tautomer_probability>
1

> <r_epik_Ionization_Penalty>
2.28139

> <r_epik_Ionization_Penalty_Charging>
2.28135

> <r_epik_Ionization_Penalty_Neutral>
4.65525e-05

> <r_epik_State_Penalty>
2.43066

> <r_epik_Charging_Adjusted_Penalty>
4.71201

> <i_epik_Tot_Q>
1

> <i_epik_Tot_abs_Q>
1

> <r_epik_Metal_State_Penalty>
2.4646

> <b_epik_Metal_Only>
0

> <s_lp_Force_Field>
OPLS_2005

> <r_lp_Energy>
25.3405

> <b_lp_Chiralities_Consistent>
1

> <s_lp_Variant>
AV-unprocessed.smi:837-6

> <Gold.Version>
5.8.1

> <Gold.Id.Protein>
6NUR|6NUR_protein|mol2

> <Gold.PLP.Fitness>
45.9051

> <Gold.PLP.PLP>
-38.4232

> <Gold.PLP.part.hbond>
-3.1076

> <Gold.PLP.part.metal>
0.0000

> <Gold.PLP.part.buried>
-7.2454

> <Gold.PLP.part.nonpolar>
-29.6781

> <Gold.PLP.part.repulsive>
0.9311

> <Gold.PLP.ligand.clash>
0.0000

> <Gold.PLP.ligand.torsion>
0.7765

> <Gold.PLP.Chemscore.Hbond>
3.0000

> <Gold.PLP.Chemscore.CHOScore>
0.0000

> <Gold.PLP.Chemscore.Metal>
0.0000

> <Gold.Chemscore.Hbonds>
donor molecule, donor type, donor heavy atom, donor atom, acceptor molecule, acceptor atom, score
      L1  H     8    38       P1 10171  1.00
      L1  H    22    50       P1  8028  2.00

> <Gold.PLP.Chemscore.Internal.Correction>
0.0350

> <Gold.Rescore>
     Score         DG    S(hbond)    S(metal)    S(lipo)     H(rot)  DE(clash)    DE(int)     intcor
     14.98     -16.93       1.93        0.00      85.71       1.96       0.20       1.75       ----

> <Gold.Chemscore.Fitness>
14.9841

> <Gold.Chemscore.DG>
-16.9311

> <Gold.Chemscore.ZeroCoef>
-5.4800

> <Gold.Chemscore.Hbond>
1.9312

> <Gold.Chemscore.Metal>
0.0000

> <Gold.Chemscore.Lipo>
85.7127

> <Gold.Chemscore.Internal_Hbond>
0.0000

> <Gold.Chemscore.DEClash>
0.1966

> <Gold.Chemscore.DEInternal>
1.7504

> <Gold.Chemscore.Rot>
1.9638

> <Gold.Chemscore.Internal.Correction>
   9.000000E+99

> <Gold.Chemscore.Hbonds>
donor molecule, donor type, donor heavy atom, donor atom, acceptor molecule, acceptor atom, score
      L1  H     8    38       P1 10171  0.98
      L1  H    22    50       P1  8028  0.97

> <Gold.Chemscore.Hbond.Weighted>
-6.4501

> <Gold.Chemscore.Metal.Weighted>
-0.0000

> <Gold.Chemscore.Lipo.Weighted>
-10.0284

> <Gold.Chemscore.Internal_Hbond.Weighted>
0.0000

> <Gold.Chemscore.DEClash.Weighted>
0.1966

> <Gold.Chemscore.DEInternal.Weighted>
1.7504

> <Gold.Chemscore.Rot.Weighted>
5.0274

> <Gold.Chemscore.Internal.Correction.Weighted>
   9.000000E+99

> <Gold.Protein.RotatedTorsions>
[ 6907 6896 6895 6894 ] final  136.99 input  -60.11 | X-H torsion
[ 7974 7965 7964 7962 ] final -119.02 input  175.53 | X-H torsion
[ 8008 7997 7996 7995 ] final  -69.94 input   59.86 | X-H torsion
[ 10167 10162 10161 10158 ] final  -98.33 input  -65.29 | X-H torsion
[ 10718 10713 10712 10709 ] final   65.10 input   66.30 | X-H torsion
[ 10763 10752 10751 10750 ] final   74.59 input  -60.55 | X-H torsion
[ 11005 11000 10999 10996 ] final  157.40 input  -57.11 | X-H torsion

> <Gold.Protein.ActiveResidues>
 VAL166  LYS551  ARG553  GLY616  TRP617  ASP618  TYR619  PRO620  LYS621  CYS622 
 ASP623  PHE694  ASN695  SER759  ASP760  ASP761  ALA762  ILE779  LEU786  VAL792 
 PHE793  MET794  SER795  GLU796  ALA797  LYS798  CYS799  TRP800  GLU811  SER814 

> <Gold.Protein.RotatedAtoms>
  152.2831  133.5489  159.5510 H   0  0  0  0  0  0  0  0  0  0  0  0  # atno 6907 bound_to 6896
  150.7204  134.0535  159.3815 H   0  0  0  0  0  0  0  0  0  0  0  0  # atno 6908 bound_to 6896
  151.8445  135.0579  160.0502 H   0  0  0  0  0  0  0  0  0  0  0  0  # atno 6909 bound_to 6896
  145.0672  140.8333  143.4117 H   0  0  0  0  0  0  0  0  0  0  0  0  # atno 7974 bound_to 7965
  154.4975  140.0844  156.7728 H   0  0  0  0  0  0  0  0  0  0  0  0  # atno 8008 bound_to 7997
  155.4081  140.3440  155.4243 H   0  0  0  0  0  0  0  0  0  0  0  0  # atno 8009 bound_to 7997
  156.1413  140.1530  156.8903 H   0  0  0  0  0  0  0  0  0  0  0  0  # atno 8010 bound_to 7997
  140.2741  143.3325  152.0506 H   0  0  0  0  0  0  0  0  0  0  0  0  # atno 10167 bound_to 10162
  157.6083  130.9196  149.9932 H   0  0  0  0  0  0  0  0  0  0  0  0  # atno 10718 bound_to 10713
  153.0597  135.5020  154.8065 H   0  0  0  0  0  0  0  0  0  0  0  0  # atno 10763 bound_to 10752
  154.6864  135.2977  154.9544 H   0  0  0  0  0  0  0  0  0  0  0  0  # atno 10764 bound_to 10752
  154.0314  135.6729  153.4834 H   0  0  0  0  0  0  0  0  0  0  0  0  # atno 10765 bound_to 10752
  140.1766  134.8505  157.2753 H   0  0  0  0  0  0  0  0  0  0  0  0  # atno 11005 bound_to 11000
  145.1337  139.2616  143.5526 LP  0  0  0  0  0  0  0  0  0  0  0  0  # atno 17320 bound_to 7965
  146.3527  140.0994  142.8608 LP  0  0  0  0  0  0  0  0  0  0  0  0  # atno 17321 bound_to 7965
  139.4981  144.6637  151.6406 LP  0  0  0  0  0  0  0  0  0  0  0  0  # atno 17342 bound_to 10162
  140.5866  143.9853  150.6299 LP  0  0  0  0  0  0  0  0  0  0  0  0  # atno 17343 bound_to 10162
  156.1177  130.3647  149.9940 LP  0  0  0  0  0  0  0  0  0  0  0  0  # atno 17370 bound_to 10713
  156.8026  130.9296  151.3645 LP  0  0  0  0  0  0  0  0  0  0  0  0  # atno 17371 bound_to 10713
  140.2316  134.3903  155.7519 LP  0  0  0  0  0  0  0  0  0  0  0  0  # atno 17394 bound_to 11000
  141.2221  133.7218  156.8649 LP  0  0  0  0  0  0  0  0  0  0  0  0  # atno 17395 bound_to 11000

$$$$
