AV-unprocessed.smi:711|AV-procd|sdf|3466|dock1
  -GOLD-   22720 0453D 1   1.00000     0.00000
 Structure written by MMmdl.
 28 29  0  0  0  0  0  0  0  0  2 V2000
  151.1622  136.6942  156.0992 O   0  0  0  0  0  0  0  0  0  0  0  0
  151.6071  137.2941  157.0768 C   0  0  0  0  0  0  0  0  0  0  0  0
  152.0556  136.6509  158.1942 N   0  5  0  0  0  0  0  0  0  0  0  0
  152.5514  137.3000  159.2923 C   0  0  0  0  0  0  0  0  0  0  0  0
  152.9405  136.6943  160.2908 O   0  0  0  0  0  0  0  0  0  0  0  0
  152.6074  138.6659  159.2800 N   0  0  0  0  0  0  0  0  0  0  0  0
  153.1028  139.4614  160.4147 C   0  0  0  0  0  0  0  0  0  0  0  0
  153.9919  140.6427  159.9652 C   0  0  2  0  0  0  0  0  0  0  0  0
  155.1695  140.6352  160.7471 O   0  0  0  0  0  0  0  0  0  0  0  0
  153.2716  141.9858  160.0138 C   0  0  0  0  0  0  0  0  0  0  0  0
  152.7262  142.5408  158.8346 C   0  0  0  0  0  0  0  0  0  0  0  0
  152.0820  143.7923  158.8678 C   0  0  0  0  0  0  0  0  0  0  0  0
  151.9797  144.4992  160.0805 C   0  0  0  0  0  0  0  0  0  0  0  0
  151.3601  145.7029  160.1128 F   0  0  0  0  0  0  0  0  0  0  0  0
  152.5226  143.9541  161.2592 C   0  0  0  0  0  0  0  0  0  0  0  0
  153.1676  142.7024  161.2285 C   0  0  0  0  0  0  0  0  0  0  0  0
  153.6932  142.1990  162.3715 F   0  0  0  0  0  0  0  0  0  0  0  0
  152.1608  139.3752  158.1524 C   0  0  0  0  0  0  0  0  0  0  0  0
  151.6677  138.7540  157.0639 C   0  0  0  0  0  0  0  0  0  0  0  0
  151.1198  139.6552  155.6955 Cl  0  0  0  0  0  0  0  0  0  0  0  0
  152.2804  139.8299  161.0301 H   0  0  0  0  0  0  0  0  0  0  0  0
  153.6729  138.8070  161.0761 H   0  0  0  0  0  0  0  0  0  0  0  0
  154.3177  140.4606  158.9409 H   0  0  0  0  0  0  0  0  0  0  0  0
  155.2322  139.7993  161.1830 H   0  0  0  0  0  0  0  0  0  0  0  0
  152.8104  142.0117  157.8966 H   0  0  0  0  0  0  0  0  0  0  0  0
  151.6708  144.2116  157.9615 H   0  0  0  0  0  0  0  0  0  0  0  0
  152.4482  144.4988  162.1887 H   0  0  0  0  0  0  0  0  0  0  0  0
  152.2385  140.4497  158.2321 H   0  0  0  0  0  0  0  0  0  0  0  0
  1  2  2  0  0  0  0
  2 19  1  0  0  0  0
  2  3  1  0  0  0  0
  3  4  1  0  0  0  0
  4  5  2  0  0  0  0
  4  6  1  0  0  0  0
  6  7  1  0  0  0  0
  6 18  1  0  0  0  0
  7  8  1  0  0  0  0
  7 21  1  0  0  0  0
  7 22  1  0  0  0  0
  8  9  1  0  0  0  0
  8 10  1  0  0  0  0
  8 23  1  0  0  0  0
  9 24  1  0  0  0  0
 10 16  1  0  0  0  0
 10 11  2  0  0  0  0
 11 12  1  0  0  0  0
 11 25  1  0  0  0  0
 12 13  2  0  0  0  0
 12 26  1  0  0  0  0
 13 14  1  0  0  0  0
 13 15  1  0  0  0  0
 15 16  2  0  0  0  0
 15 27  1  0  0  0  0
 16 17  1  0  0  0  0
 18 19  2  0  0  0  0
 18 28  1  0  0  0  0
 19 20  1  0  0  0  0
M  CHG  1   3  -1
M  END
> <s_m_source_file>
AV-unprocessed.smi

> <i_m_source_file_index>
711

> <i_lp_mmshare_version>
43012

> <i_f3d_flags>
0

> <s_epik_input>
Tz1jMVtuSF1jKD1PKW4oW2NIXWMxQ2wpW0NIMl1bQ0BIXShbT0hdKWMyW2NIXVtjSF1jKEYpW2NIXWMyRg==

> <s_epik_cmdline>
J2VwaWtfcHl0aG9uJywgJy1waCcsICc3LjAnLCAnLXRuJywgJzgnLCAnLW1hJywgJzIwMCcsICctbWV0YWxfYmluZGluZycsICctaW1hZScsICc8aW5maWxlLm1hZT4nLCAnLW9tYWUnLCAnPG91dGZpbGUubWFlPic=

> <r_epik_Ionization_Penalty>
1.7979

> <r_epik_Ionization_Penalty_Charging>
3.23819e-08

> <r_epik_Ionization_Penalty_Neutral>
1.7979

> <r_epik_State_Penalty>
1.91135

> <r_epik_Charging_Adjusted_Penalty>
1.91135

> <i_epik_Tot_Q>
-1

> <i_epik_Tot_abs_Q>
1

> <r_epik_Metal_State_Penalty>
0.014155

> <b_epik_Metal_Only>
0

> <s_lp_Force_Field>
OPLS_2005

> <r_lp_Energy>
19.2938

> <b_lp_Chiralities_Consistent>
1

> <s_lp_Variant>
AV-unprocessed.smi:711-3

> <Gold.Version>
5.8.1

> <Gold.Id.Protein>
6NUR|6NUR_protein|mol2

> <Gold.PLP.Fitness>
48.9915

> <Gold.PLP.PLP>
-45.9211

> <Gold.PLP.part.hbond>
-2.9460

> <Gold.PLP.part.metal>
0.0000

> <Gold.PLP.part.buried>
-5.1287

> <Gold.PLP.part.nonpolar>
-38.1111

> <Gold.PLP.part.repulsive>
0.0249

> <Gold.PLP.ligand.clash>
0.0000

> <Gold.PLP.ligand.torsion>
1.4631

> <Gold.PLP.Chemscore.Hbond>
1.9913

> <Gold.PLP.Chemscore.CHOScore>
0.0000

> <Gold.PLP.Chemscore.Metal>
0.0000

> <Gold.Chemscore.Hbonds>
donor molecule, donor type, donor heavy atom, donor atom, acceptor molecule, acceptor atom, score
      P1  H  6896  6908       L1     5  1.00

> <Gold.PLP.Chemscore.Internal.Correction>
0.0229

> <Gold.Rescore>
     Score         DG    S(hbond)    S(metal)    S(lipo)     H(rot)  DE(clash)    DE(int)     intcor
     14.30     -17.90       1.87        0.00     103.50       2.32       0.28       3.32       ----

> <Gold.Chemscore.Fitness>
14.2961

> <Gold.Chemscore.DG>
-17.8976

> <Gold.Chemscore.ZeroCoef>
-5.4800

> <Gold.Chemscore.Hbond>
1.8678

> <Gold.Chemscore.Metal>
0.0000

> <Gold.Chemscore.Lipo>
103.4975

> <Gold.Chemscore.Internal_Hbond>
0.0000

> <Gold.Chemscore.DEClash>
0.2826

> <Gold.Chemscore.DEInternal>
3.3189

> <Gold.Chemscore.Rot>
2.3164

> <Gold.Chemscore.Internal.Correction>
   9.000000E+99

> <Gold.Chemscore.Hbonds>
donor molecule, donor type, donor heavy atom, donor atom, acceptor molecule, acceptor atom, score
      P1  H  6896  6908       L1     5  0.35

> <Gold.Chemscore.Hbond.Weighted>
-6.2385

> <Gold.Chemscore.Metal.Weighted>
-0.0000

> <Gold.Chemscore.Lipo.Weighted>
-12.1092

> <Gold.Chemscore.Internal_Hbond.Weighted>
0.0000

> <Gold.Chemscore.DEClash.Weighted>
0.2826

> <Gold.Chemscore.DEInternal.Weighted>
3.3189

> <Gold.Chemscore.Rot.Weighted>
5.9301

> <Gold.Chemscore.Internal.Correction.Weighted>
   9.000000E+99

> <Gold.Protein.RotatedTorsions>
[ 6907 6896 6895 6894 ] final  -86.75 input  -60.11 | X-H torsion
[ 7974 7965 7964 7962 ] final -173.34 input  175.53 | X-H torsion
[ 8008 7997 7996 7995 ] final   96.80 input   59.86 | X-H torsion
[ 10167 10162 10161 10158 ] final   23.41 input  -65.29 | X-H torsion
[ 10718 10713 10712 10709 ] final  163.66 input   66.30 | X-H torsion
[ 10763 10752 10751 10750 ] final  -35.69 input  -60.55 | X-H torsion
[ 11005 11000 10999 10996 ] final   -2.93 input  -57.11 | X-H torsion

> <Gold.Protein.ActiveResidues>
 VAL166  LYS551  ARG553  GLY616  TRP617  ASP618  TYR619  PRO620  LYS621  CYS622 
 ASP623  PHE694  ASN695  SER759  ASP760  ASP761  ALA762  ILE779  LEU786  VAL792 
 PHE793  MET794  SER795  GLU796  ALA797  LYS798  CYS799  TRP800  GLU811  SER814 

> <Gold.Protein.RotatedAtoms>
  150.6866  134.3002  159.4702 H   0  0  0  0  0  0  0  0  0  0  0  0  # atno 6907 bound_to 6896
  152.0898  134.9412  160.0581 H   0  0  0  0  0  0  0  0  0  0  0  0  # atno 6908 bound_to 6896
  152.0732  133.4082  159.4505 H   0  0  0  0  0  0  0  0  0  0  0  0  # atno 6909 bound_to 6896
  144.7139  140.1636  143.6374 H   0  0  0  0  0  0  0  0  0  0  0  0  # atno 7974 bound_to 7965
  156.0834  140.3267  155.7723 H   0  0  0  0  0  0  0  0  0  0  0  0  # atno 8008 bound_to 7997
  155.5115  140.0577  157.2940 H   0  0  0  0  0  0  0  0  0  0  0  0  # atno 8009 bound_to 7997
  154.4595  140.1959  156.0301 H   0  0  0  0  0  0  0  0  0  0  0  0  # atno 8010 bound_to 7997
  140.5271  143.9904  150.6446 H   0  0  0  0  0  0  0  0  0  0  0  0  # atno 10167 bound_to 10162
  157.1053  131.0453  151.2480 H   0  0  0  0  0  0  0  0  0  0  0  0  # atno 10718 bound_to 10713
  153.8673  135.6834  153.4777 H   0  0  0  0  0  0  0  0  0  0  0  0  # atno 10763 bound_to 10752
  153.1307  135.4699  154.9342 H   0  0  0  0  0  0  0  0  0  0  0  0  # atno 10764 bound_to 10752
  154.7730  135.3244  154.8100 H   0  0  0  0  0  0  0  0  0  0  0  0  # atno 10765 bound_to 10752
  140.6638  133.9297  155.8452 H   0  0  0  0  0  0  0  0  0  0  0  0  # atno 11005 bound_to 11000
  145.9008  139.2429  143.1495 LP  0  0  0  0  0  0  0  0  0  0  0  0  # atno 17320 bound_to 7965
  145.9813  140.8680  143.0113 LP  0  0  0  0  0  0  0  0  0  0  0  0  # atno 17321 bound_to 7965
  140.3269  143.3102  152.0727 LP  0  0  0  0  0  0  0  0  0  0  0  0  # atno 17342 bound_to 10162
  139.4942  144.6536  151.6622 LP  0  0  0  0  0  0  0  0  0  0  0  0  # atno 17343 bound_to 10162
  157.4606  130.7651  149.7232 LP  0  0  0  0  0  0  0  0  0  0  0  0  # atno 17370 bound_to 10713
  155.9863  130.3975  150.3217 LP  0  0  0  0  0  0  0  0  0  0  0  0  # atno 17371 bound_to 10713
  141.0445  134.0574  157.3861 LP  0  0  0  0  0  0  0  0  0  0  0  0  # atno 17394 bound_to 11000
  139.9004  135.0162  156.7240 LP  0  0  0  0  0  0  0  0  0  0  0  0  # atno 17395 bound_to 11000

$$$$
