AV-unprocessed.smi:2087|AV-procd|sdf|8524|dock5
  -GOLD-   2272011243D 1   1.00000     0.00000
 Structure written by MMmdl.
 50 51  0  0  0  0  0  0  0  0  1 V2000
  152.8906  143.6996  159.0347 C   0  0  0  0  0  0  0  0  0  0  0  0
  152.4583  142.4486  159.8134 C   0  0  0  0  0  0  0  0  0  0  0  0
  153.6469  141.4901  159.9931 C   0  0  0  0  0  0  0  0  0  0  0  0
  151.2679  141.7614  159.1100 C   0  0  0  0  0  0  0  0  0  0  0  0
  151.4002  141.5792  157.6635 N   0  0  0  0  0  0  0  0  0  0  0  0
  152.1039  140.3489  157.3081 C   0  0  0  0  0  0  0  0  0  0  0  0
  152.2154  140.1734  155.7839 C   0  0  0  0  0  0  0  0  0  0  0  0
  150.9191  140.2083  155.1969 O   0  0  0  0  0  0  0  0  0  0  0  0
  150.2059  141.4086  155.4860 C   0  0  1  0  0  0  0  0  0  0  0  0
  148.8444  141.3802  154.7647 C   0  0  0  0  0  0  0  0  0  0  0  0
  147.8436  142.2221  155.4148 N   0  0  0  0  0  0  0  0  0  0  0  0
  146.6604  141.7976  155.8832 C   0  0  0  0  0  0  0  0  0  0  0  0
  146.2849  140.6265  155.8094 O   0  0  0  0  0  0  0  0  0  0  0  0
  145.7834  142.8616  156.5573 C   0  0  0  0  0  0  0  0  0  0  0  0
  145.4736  142.5483  157.9583 N   0  0  0  0  0  0  0  0  0  0  0  0
  146.2507  143.0847  158.9688 C   0  0  0  0  0  0  0  0  0  0  0  0
  146.0411  142.8377  160.2804 C   0  0  0  0  0  0  0  0  0  0  0  0
  144.9540  141.9687  160.7158 C   0  0  0  0  0  0  0  0  0  0  0  0
  144.7294  141.7208  161.9009 O   0  0  0  0  0  0  0  0  0  0  0  0
  144.1759  141.4324  159.6609 N   0  0  0  0  0  0  0  0  0  0  0  0
  143.0684  140.5531  159.9735 C   0  0  0  0  0  0  0  0  0  0  0  0
  144.4015  141.6934  158.2917 C   0  0  0  0  0  0  0  0  0  0  0  0
  143.6937  141.1968  157.4115 O   0  0  0  0  0  0  0  0  0  0  0  0
  150.0931  141.5774  157.0164 C   0  0  0  0  0  0  0  0  0  0  0  0
  153.2320  143.4440  158.0310 H   0  0  0  0  0  0  0  0  0  0  0  0
  153.7062  144.2162  159.5417 H   0  0  0  0  0  0  0  0  0  0  0  0
  152.0663  144.4066  158.9364 H   0  0  0  0  0  0  0  0  0  0  0  0
  152.1460  142.7891  160.8001 H   0  0  0  0  0  0  0  0  0  0  0  0
  154.0022  141.1154  159.0329 H   0  0  0  0  0  0  0  0  0  0  0  0
  153.3743  140.6303  160.6056 H   0  0  0  0  0  0  0  0  0  0  0  0
  154.4821  141.9879  160.4865 H   0  0  0  0  0  0  0  0  0  0  0  0
  151.0841  140.7926  159.5772 H   0  0  0  0  0  0  0  0  0  0  0  0
  150.3769  142.3583  159.3103 H   0  0  0  0  0  0  0  0  0  0  0  0
  153.1086  140.3488  157.7283 H   0  0  0  0  0  0  0  0  0  0  0  0
  151.5852  139.4887  157.7342 H   0  0  0  0  0  0  0  0  0  0  0  0
  152.8382  140.9575  155.3507 H   0  0  0  0  0  0  0  0  0  0  0  0
  152.6881  139.2204  155.5454 H   0  0  0  0  0  0  0  0  0  0  0  0
  150.7779  142.2455  155.0814 H   0  0  0  0  0  0  0  0  0  0  0  0
  148.9688  141.7461  153.7454 H   0  0  0  0  0  0  0  0  0  0  0  0
  148.4861  140.3533  154.6744 H   0  0  0  0  0  0  0  0  0  0  0  0
  148.0715  143.2001  155.5215 H   0  0  0  0  0  0  0  0  0  0  0  0
  146.3051  143.8179  156.4982 H   0  0  0  0  0  0  0  0  0  0  0  0
  144.8608  142.9943  155.9894 H   0  0  0  0  0  0  0  0  0  0  0  0
  147.0718  143.7325  158.6978 H   0  0  0  0  0  0  0  0  0  0  0  0
  146.6880  143.2890  161.0184 H   0  0  0  0  0  0  0  0  0  0  0  0
  142.1642  141.0201  159.5786 H   0  0  0  0  0  0  0  0  0  0  0  0
  142.9675  140.4056  161.0481 H   0  0  0  0  0  0  0  0  0  0  0  0
  143.2682  139.5968  159.4868 H   0  0  0  0  0  0  0  0  0  0  0  0
  149.4827  140.7750  157.4336 H   0  0  0  0  0  0  0  0  0  0  0  0
  149.5726  142.5103  157.2363 H   0  0  0  0  0  0  0  0  0  0  0  0
  1  2  1  0  0  0  0
  1 25  1  0  0  0  0
  1 26  1  0  0  0  0
  1 27  1  0  0  0  0
  2  3  1  0  0  0  0
  2  4  1  0  0  0  0
  2 28  1  0  0  0  0
  3 29  1  0  0  0  0
  3 30  1  0  0  0  0
  3 31  1  0  0  0  0
  4  5  1  0  0  0  0
  4 32  1  0  0  0  0
  4 33  1  0  0  0  0
  5 24  1  0  0  0  0
  5  6  1  0  0  0  0
  6  7  1  0  0  0  0
  6 34  1  0  0  0  0
  6 35  1  0  0  0  0
  7  8  1  0  0  0  0
  7 36  1  0  0  0  0
  7 37  1  0  0  0  0
  8  9  1  0  0  0  0
  9 10  1  0  0  0  0
  9 24  1  0  0  0  0
  9 38  1  0  0  0  0
 10 11  1  0  0  0  0
 10 39  1  0  0  0  0
 10 40  1  0  0  0  0
 11 12  1  0  0  0  0
 11 41  1  0  0  0  0
 12 13  2  0  0  0  0
 12 14  1  0  0  0  0
 14 15  1  0  0  0  0
 14 42  1  0  0  0  0
 14 43  1  0  0  0  0
 15 22  1  0  0  0  0
 15 16  1  0  0  0  0
 16 17  2  0  0  0  0
 16 44  1  0  0  0  0
 17 18  1  0  0  0  0
 17 45  1  0  0  0  0
 18 19  2  0  0  0  0
 18 20  1  0  0  0  0
 20 21  1  0  0  0  0
 20 22  1  0  0  0  0
 21 46  1  0  0  0  0
 21 47  1  0  0  0  0
 21 48  1  0  0  0  0
 22 23  2  0  0  0  0
 24 49  1  0  0  0  0
 24 50  1  0  0  0  0
M  END
> <s_m_source_file>
AV-unprocessed.smi

> <i_m_source_file_index>
2087

> <i_lp_mmshare_version>
43012

> <i_f3d_flags>
0

> <s_epik_input>
W0NIM11bQ0hdKFtDSDNdKVtDSDJdTjFbQ0gyXVtDSDJdT1tDQEhdKFtDSDJdMSlbQ0gyXVtOSF1DKD1PKVtDSDJdbjJbY0hdW2NIXWMoPU8pbihbQ0gzXSljMj1P

> <s_epik_cmdline>
J2VwaWtfcHl0aG9uJywgJy1waCcsICc3LjAnLCAnLXRuJywgJzgnLCAnLW1hJywgJzIwMCcsICctbWV0YWxfYmluZGluZycsICctaW1hZScsICc8aW5maWxlLm1hZT4nLCAnLW9tYWUnLCAnPG91dGZpbGUubWFlPic=

> <r_lp_tautomer_probability>
1

> <r_epik_Ionization_Penalty>
1.11669

> <r_epik_Ionization_Penalty_Charging>
1.16423e-08

> <r_epik_Ionization_Penalty_Neutral>
1.11669

> <r_epik_State_Penalty>
1.17516

> <r_epik_Charging_Adjusted_Penalty>
1.17516

> <i_epik_Tot_Q>
0

> <i_epik_Tot_abs_Q>
0

> <r_epik_Metal_State_Penalty>
1.17513

> <b_epik_Metal_Only>
0

> <s_lp_Force_Field>
OPLS_2005

> <r_lp_Energy>
34.2639

> <b_lp_Chiralities_Consistent>
1

> <s_lp_Variant>
AV-unprocessed.smi:2087-5

> <Gold.Version>
5.8.1

> <Gold.Id.Protein>
6NUR|6NUR_protein|mol2

> <Gold.PLP.Fitness>
42.1190

> <Gold.PLP.PLP>
-37.1272

> <Gold.PLP.part.hbond>
-3.0000

> <Gold.PLP.part.metal>
0.0000

> <Gold.PLP.part.buried>
-5.5463

> <Gold.PLP.part.nonpolar>
-28.4063

> <Gold.PLP.part.repulsive>
0.2117

> <Gold.PLP.ligand.clash>
0.0000

> <Gold.PLP.ligand.torsion>
1.0731

> <Gold.PLP.Chemscore.Hbond>
1.3271

> <Gold.PLP.Chemscore.CHOScore>
1.0000

> <Gold.PLP.Chemscore.Metal>
0.0000

> <Gold.Chemscore.Hbonds>
donor molecule, donor type, donor heavy atom, donor atom, acceptor molecule, acceptor atom, score
      L1  H    11    41       P1  8028  1.00
      P1  H  7989  7998       L1     8  0.42
      L1  C    16    44       P1  8029  0.47

> <Gold.PLP.Chemscore.Internal.Correction>
0.1566

> <Gold.Rescore>
     Score         DG    S(hbond)    S(metal)    S(lipo)     H(rot)  DE(clash)    DE(int)     intcor
     12.26     -13.51       0.95        0.00      88.77       2.16       0.09       1.16       ----

> <Gold.Chemscore.Fitness>
12.2617

> <Gold.Chemscore.DG>
-13.5139

> <Gold.Chemscore.ZeroCoef>
-5.4800

> <Gold.Chemscore.Hbond>
0.9543

> <Gold.Chemscore.Metal>
0.0000

> <Gold.Chemscore.Lipo>
88.7674

> <Gold.Chemscore.Internal_Hbond>
0.0000

> <Gold.Chemscore.DEClash>
0.0932

> <Gold.Chemscore.DEInternal>
1.1590

> <Gold.Chemscore.Rot>
2.1638

> <Gold.Chemscore.Internal.Correction>
   9.000000E+99

> <Gold.Chemscore.Hbonds>
donor molecule, donor type, donor heavy atom, donor atom, acceptor molecule, acceptor atom, score
      L1  H    11    41       P1  8028  0.78

> <Gold.Chemscore.Hbond.Weighted>
-3.1874

> <Gold.Chemscore.Metal.Weighted>
-0.0000

> <Gold.Chemscore.Lipo.Weighted>
-10.3858

> <Gold.Chemscore.Internal_Hbond.Weighted>
0.0000

> <Gold.Chemscore.DEClash.Weighted>
0.0932

> <Gold.Chemscore.DEInternal.Weighted>
1.1590

> <Gold.Chemscore.Rot.Weighted>
5.5393

> <Gold.Chemscore.Internal.Correction.Weighted>
   9.000000E+99

> <Gold.Protein.RotatedTorsions>
[ 6907 6896 6895 6894 ] final  -40.07 input  -60.11 | X-H torsion
[ 7974 7965 7964 7962 ] final  173.98 input  175.53 | X-H torsion
[ 8008 7997 7996 7995 ] final -153.39 input   59.86 | X-H torsion
[ 10167 10162 10161 10158 ] final  -42.52 input  -65.29 | X-H torsion
[ 10718 10713 10712 10709 ] final -122.92 input   66.30 | X-H torsion
[ 10763 10752 10751 10750 ] final  -94.68 input  -60.55 | X-H torsion
[ 11005 11000 10999 10996 ] final  -37.41 input  -57.11 | X-H torsion

> <Gold.Protein.ActiveResidues>
 VAL166  LYS551  ARG553  GLY616  TRP617  ASP618  TYR619  PRO620  LYS621  CYS622 
 ASP623  PHE694  ASN695  SER759  ASP760  ASP761  ALA762  ILE779  LEU786  VAL792 
 PHE793  MET794  SER795  GLU796  ALA797  LYS798  CYS799  TRP800  GLU811  SER814 

> <Gold.Protein.RotatedAtoms>
  150.9829  134.9180  159.7854 H   0  0  0  0  0  0  0  0  0  0  0  0  # atno 6907 bound_to 6896
  152.5227  134.3386  159.9219 H   0  0  0  0  0  0  0  0  0  0  0  0  # atno 6908 bound_to 6896
  151.3393  133.3928  159.2704 H   0  0  0  0  0  0  0  0  0  0  0  0  # atno 6909 bound_to 6896
  144.7231  139.9728  143.6437 H   0  0  0  0  0  0  0  0  0  0  0  0  # atno 7974 bound_to 7965
  155.6701  140.0732  157.2523 H   0  0  0  0  0  0  0  0  0  0  0  0  # atno 8008 bound_to 7997
  154.4125  140.1700  156.1921 H   0  0  0  0  0  0  0  0  0  0  0  0  # atno 8009 bound_to 7997
  155.9624  140.3369  155.6505 H   0  0  0  0  0  0  0  0  0  0  0  0  # atno 8010 bound_to 7997
  140.6966  143.3033  151.3220 H   0  0  0  0  0  0  0  0  0  0  0  0  # atno 10167 bound_to 10162
  156.1459  130.6499  150.9841 H   0  0  0  0  0  0  0  0  0  0  0  0  # atno 10718 bound_to 10713
  154.7078  135.5148  153.8621 H   0  0  0  0  0  0  0  0  0  0  0  0  # atno 10763 bound_to 10752
  153.0755  135.6615  154.0163 H   0  0  0  0  0  0  0  0  0  0  0  0  # atno 10764 bound_to 10752
  154.0011  135.3011  155.3382 H   0  0  0  0  0  0  0  0  0  0  0  0  # atno 10765 bound_to 10752
  140.9950  133.6985  156.1918 H   0  0  0  0  0  0  0  0  0  0  0  0  # atno 11005 bound_to 11000
  146.0549  139.3547  143.0617 LP  0  0  0  0  0  0  0  0  0  0  0  0  # atno 17320 bound_to 7965
  145.8167  140.9699  143.0920 LP  0  0  0  0  0  0  0  0  0  0  0  0  # atno 17321 bound_to 7965
  139.6430  144.0504  152.2569 LP  0  0  0  0  0  0  0  0  0  0  0  0  # atno 17342 bound_to 10162
  140.0016  144.6289  150.7725 LP  0  0  0  0  0  0  0  0  0  0  0  0  # atno 17343 bound_to 10162
  157.6616  131.0880  150.7825 LP  0  0  0  0  0  0  0  0  0  0  0  0  # atno 17370 bound_to 10713
  156.7897  130.4886  149.5387 LP  0  0  0  0  0  0  0  0  0  0  0  0  # atno 17371 bound_to 10713
  140.6980  134.4594  157.5587 LP  0  0  0  0  0  0  0  0  0  0  0  0  # atno 17394 bound_to 11000
  139.9010  134.8556  156.1896 LP  0  0  0  0  0  0  0  0  0  0  0  0  # atno 17395 bound_to 11000

$$$$
