AV-unprocessed.smi:139|AV-procd|sdf|1181|dock6
  -GOLD-   2262018333D 1   1.00000     0.00000
 Structure written by MMmdl.
 50 53  0  0  0  0  0  0  0  0  1 V2000
  150.9734  137.3079  158.1362 O   0  0  0  0  0  0  0  0  0  0  0  0
  150.2173  138.2476  158.3867 C   0  0  0  0  0  0  0  0  0  0  0  0
  148.7177  138.0128  158.6225 C   0  0  0  0  0  0  0  0  0  0  0  0
  148.3819  136.5978  158.8917 N   0  0  0  0  0  0  0  0  0  0  0  0
  148.6582  135.6268  157.8974 C   0  0  0  0  0  0  0  0  0  0  0  0
  149.1795  135.9391  156.8259 O   0  0  0  0  0  0  0  0  0  0  0  0
  148.2774  134.2589  158.2309 C   0  0  0  0  0  0  0  0  0  0  0  0
  148.5021  133.2716  157.3474 F   0  0  0  0  0  0  0  0  0  0  0  0
  147.6992  133.9662  159.4141 C   0  0  0  0  0  0  0  0  0  0  0  0
  147.4345  134.9251  160.3760 N   0  0  0  0  0  0  0  0  0  0  0  0
  146.7671  134.5839  161.6921 C   0  0  2  0  0  0  0  0  0  0  0  0
  146.4479  133.0783  161.7659 C   0  0  0  0  0  0  0  0  0  0  0  0
  144.9782  133.0644  162.1376 C   0  0  0  0  0  0  0  0  0  0  0  0
  144.4852  134.3642  161.5204 C   0  0  0  0  0  0  0  0  0  0  0  0
  145.5491  135.2647  161.7992 O   0  0  0  0  0  0  0  0  0  0  0  0
  147.7653  136.2741  160.1238 C   0  0  0  0  0  0  0  0  0  0  0  0
  147.5180  137.1475  160.9586 O   0  0  0  0  0  0  0  0  0  0  0  0
  150.6270  139.5215  158.4810 N   0  0  0  0  0  0  0  0  0  0  0  0
  151.9883  140.0077  158.2657 C   0  0  2  0  0  0  0  0  0  0  0  0
  153.0032  139.0158  158.8651 C   0  0  0  0  0  0  0  0  0  0  0  0
  153.2096  139.2373  160.3663 C   0  0  0  0  0  0  0  0  0  0  0  0
  153.7234  140.6539  160.6482 C   0  0  0  0  0  0  0  0  0  0  0  0
  152.9371  141.7343  159.9220 C   0  0  0  0  0  0  0  0  0  0  0  0
  153.0260  143.0653  160.3811 C   0  0  0  0  0  0  0  0  0  0  0  0
  152.3177  144.0933  159.7310 C   0  0  0  0  0  0  0  0  0  0  0  0
  151.5155  143.7953  158.6145 C   0  0  0  0  0  0  0  0  0  0  0  0
  151.4241  142.4704  158.1489 C   0  0  0  0  0  0  0  0  0  0  0  0
  152.1329  141.4325  158.7926 C   0  0  0  0  0  0  0  0  0  0  0  0
  148.3953  138.6641  159.4359 H   0  0  0  0  0  0  0  0  0  0  0  0
  148.1607  138.3765  157.7570 H   0  0  0  0  0  0  0  0  0  0  0  0
  147.4382  132.9349  159.5952 H   0  0  0  0  0  0  0  0  0  0  0  0
  147.4494  134.9359  162.4680 H   0  0  0  0  0  0  0  0  0  0  0  0
  146.5982  132.6108  160.7914 H   0  0  0  0  0  0  0  0  0  0  0  0
  147.0810  132.5794  162.5001 H   0  0  0  0  0  0  0  0  0  0  0  0
  144.4501  132.1868  161.7643 H   0  0  0  0  0  0  0  0  0  0  0  0
  144.8643  133.0986  163.2219 H   0  0  0  0  0  0  0  0  0  0  0  0
  144.3542  134.2574  160.4427 H   0  0  0  0  0  0  0  0  0  0  0  0
  143.5445  134.7070  161.9514 H   0  0  0  0  0  0  0  0  0  0  0  0
  149.9309  140.2213  158.6948 H   0  0  0  0  0  0  0  0  0  0  0  0
  152.1858  140.0606  157.1936 H   0  0  0  0  0  0  0  0  0  0  0  0
  152.7078  137.9861  158.6592 H   0  0  0  0  0  0  0  0  0  0  0  0
  153.9649  139.1553  158.3693 H   0  0  0  0  0  0  0  0  0  0  0  0
  152.2614  139.0839  160.8831 H   0  0  0  0  0  0  0  0  0  0  0  0
  153.9046  138.5005  160.7701 H   0  0  0  0  0  0  0  0  0  0  0  0
  153.7049  140.8454  161.7219 H   0  0  0  0  0  0  0  0  0  0  0  0
  154.7649  140.7336  160.3347 H   0  0  0  0  0  0  0  0  0  0  0  0
  153.6406  143.3024  161.2372 H   0  0  0  0  0  0  0  0  0  0  0  0
  152.3899  145.1095  160.0896 H   0  0  0  0  0  0  0  0  0  0  0  0
  150.9696  144.5820  158.1151 H   0  0  0  0  0  0  0  0  0  0  0  0
  150.8037  142.2492  157.2923 H   0  0  0  0  0  0  0  0  0  0  0  0
  1  2  2  0  0  0  0
  2  3  1  0  0  0  0
  2 18  1  0  0  0  0
  3  4  1  0  0  0  0
  3 29  1  0  0  0  0
  3 30  1  0  0  0  0
  4 16  1  0  0  0  0
  4  5  1  0  0  0  0
  5  6  2  0  0  0  0
  5  7  1  0  0  0  0
  7  8  1  0  0  0  0
  7  9  2  0  0  0  0
  9 10  1  0  0  0  0
  9 31  1  0  0  0  0
 10 11  1  0  0  0  0
 10 16  1  0  0  0  0
 11 15  1  0  0  0  0
 11 12  1  0  0  0  0
 11 32  1  0  0  0  0
 12 13  1  0  0  0  0
 12 33  1  0  0  0  0
 12 34  1  0  0  0  0
 13 14  1  0  0  0  0
 13 35  1  0  0  0  0
 13 36  1  0  0  0  0
 14 15  1  0  0  0  0
 14 37  1  0  0  0  0
 14 38  1  0  0  0  0
 16 17  2  0  0  0  0
 18 19  1  0  0  0  0
 18 39  1  0  0  0  0
 19 28  1  0  0  0  0
 19 20  1  0  0  0  0
 19 40  1  0  0  0  0
 20 21  1  0  0  0  0
 20 41  1  0  0  0  0
 20 42  1  0  0  0  0
 21 22  1  0  0  0  0
 21 43  1  0  0  0  0
 21 44  1  0  0  0  0
 22 23  1  0  0  0  0
 22 45  1  0  0  0  0
 22 46  1  0  0  0  0
 23 28  2  0  0  0  0
 23 24  1  0  0  0  0
 24 25  2  0  0  0  0
 24 47  1  0  0  0  0
 25 26  1  0  0  0  0
 25 48  1  0  0  0  0
 26 27  2  0  0  0  0
 26 49  1  0  0  0  0
 27 28  1  0  0  0  0
 27 50  1  0  0  0  0
M  END
> <s_m_source_file>
AV-unprocessed.smi

> <i_m_source_file_index>
139

> <i_lp_mmshare_version>
43012

> <i_f3d_flags>
0

> <s_epik_input>
W2NIXTFbY0hdW2NIXVtjSF1jKGMxMilbQ0BASF0oW0NIMl1bQ0gyXVtDSDJdMilbTkhdQyg9TylbQ0gyXW4zYyg9TyljKEYpW2NIXW4oYzM9TylbQ0BASF00W0NIMl1bQ0gyXVtDSDJdTzQ=

> <s_epik_cmdline>
J2VwaWtfcHl0aG9uJywgJy1waCcsICc3LjAnLCAnLXRuJywgJzgnLCAnLW1hJywgJzIwMCcsICctbWV0YWxfYmluZGluZycsICctaW1hZScsICc8aW5maWxlLm1hZT4nLCAnLW9tYWUnLCAnPG91dGZpbGUubWFlPic=

> <r_lp_tautomer_probability>
1

> <r_epik_Ionization_Penalty>
3.261e-08

> <r_epik_Ionization_Penalty_Charging>
3.6725e-09

> <r_epik_Ionization_Penalty_Neutral>
2.89375e-08

> <r_epik_State_Penalty>
-0

> <r_epik_Charging_Adjusted_Penalty>
3.6725e-09

> <i_epik_Tot_Q>
0

> <i_epik_Tot_abs_Q>
0

> <r_epik_Metal_State_Penalty>
-0

> <b_epik_Metal_Only>
0

> <s_epik_Chemistry_Notes>
This compound contains an acetal/aminal-like group ( X-CH(R)-Y where X, Y are N, S, or O) that may be acid/base labile, releasing an aldehyde.

> <s_lp_Force_Field>
OPLS_2005

> <r_lp_Energy>
30.3029

> <b_lp_Chiralities_Consistent>
1

> <s_lp_Variant>
AV-unprocessed.smi:139-1

> <Gold.Version>
5.8.1

> <Gold.Id.Protein>
6NUR|6NUR_protein|mol2

> <Gold.PLP.Fitness>
53.5177

> <Gold.PLP.PLP>
-49.3357

> <Gold.PLP.part.hbond>
-1.7607

> <Gold.PLP.part.metal>
0.0000

> <Gold.PLP.part.buried>
-4.4393

> <Gold.PLP.part.nonpolar>
-44.8022

> <Gold.PLP.part.repulsive>
0.1394

> <Gold.PLP.ligand.clash>
0.0000

> <Gold.PLP.ligand.torsion>
0.4444

> <Gold.PLP.Chemscore.Hbond>
1.6800

> <Gold.PLP.Chemscore.CHOScore>
0.0000

> <Gold.PLP.Chemscore.Metal>
0.0000

> <Gold.Chemscore.Hbonds>
donor molecule, donor type, donor heavy atom, donor atom, acceptor molecule, acceptor atom, score
      P1  H  6931  6943       L1    17  0.72
      P1  H  6934  6947       L1    17  1.00

> <Gold.PLP.Chemscore.Internal.Correction>
0.0307

> <Gold.Rescore>
     Score         DG    S(hbond)    S(metal)    S(lipo)     H(rot)  DE(clash)    DE(int)     intcor
     16.10     -19.60       1.55        0.00     116.25       1.82       0.07       3.43       ----

> <Gold.Chemscore.Fitness>
16.1004

> <Gold.Chemscore.DG>
-19.6009

> <Gold.Chemscore.ZeroCoef>
-5.4800

> <Gold.Chemscore.Hbond>
1.5484

> <Gold.Chemscore.Metal>
0.0000

> <Gold.Chemscore.Lipo>
116.2549

> <Gold.Chemscore.Internal_Hbond>
0.0000

> <Gold.Chemscore.DEClash>
0.0671

> <Gold.Chemscore.DEInternal>
3.4334

> <Gold.Chemscore.Rot>
1.8174

> <Gold.Chemscore.Internal.Correction>
   9.000000E+99

> <Gold.Chemscore.Hbonds>
donor molecule, donor type, donor heavy atom, donor atom, acceptor molecule, acceptor atom, score
      P1  H  6931  6943       L1    17  0.69
      P1  H  6934  6947       L1    17  0.94

> <Gold.Chemscore.Hbond.Weighted>
-5.1715

> <Gold.Chemscore.Metal.Weighted>
-0.0000

> <Gold.Chemscore.Lipo.Weighted>
-13.6018

> <Gold.Chemscore.Internal_Hbond.Weighted>
0.0000

> <Gold.Chemscore.DEClash.Weighted>
0.0671

> <Gold.Chemscore.DEInternal.Weighted>
3.4334

> <Gold.Chemscore.Rot.Weighted>
4.6524

> <Gold.Chemscore.Internal.Correction.Weighted>
   9.000000E+99

> <Gold.Protein.RotatedTorsions>
[ 6907 6896 6895 6894 ] final  134.74 input  -60.11 | X-H torsion
[ 7974 7965 7964 7962 ] final -114.05 input  175.53 | X-H torsion
[ 8008 7997 7996 7995 ] final  -28.70 input   59.86 | X-H torsion
[ 10167 10162 10161 10158 ] final -136.31 input  -65.29 | X-H torsion
[ 10718 10713 10712 10709 ] final   12.45 input   66.30 | X-H torsion
[ 10763 10752 10751 10750 ] final  -29.02 input  -60.55 | X-H torsion
[ 11005 11000 10999 10996 ] final  -19.94 input  -57.11 | X-H torsion

> <Gold.Protein.ActiveResidues>
 VAL166  LYS551  ARG553  GLY616  TRP617  ASP618  TYR619  PRO620  LYS621  CYS622 
 ASP623  PHE694  ASN695  SER759  ASP760  ASP761  ALA762  ILE779  LEU786  VAL792 
 PHE793  MET794  SER795  GLU796  ALA797  LYS798  CYS799  TRP800  GLU811  SER814 

> <Gold.Protein.RotatedAtoms>
  152.3080  133.5724  159.5661 H   0  0  0  0  0  0  0  0  0  0  0  0  # atno 6907 bound_to 6896
  150.7309  134.0193  159.3705 H   0  0  0  0  0  0  0  0  0  0  0  0  # atno 6908 bound_to 6896
  151.8088  135.0687  160.0461 H   0  0  0  0  0  0  0  0  0  0  0  0  # atno 6909 bound_to 6896
  145.1248  140.8690  143.3792 H   0  0  0  0  0  0  0  0  0  0  0  0  # atno 7974 bound_to 7965
  154.4321  140.1838  156.1132 H   0  0  0  0  0  0  0  0  0  0  0  0  # atno 8008 bound_to 7997
  156.0202  140.3341  155.7005 H   0  0  0  0  0  0  0  0  0  0  0  0  # atno 8009 bound_to 7997
  155.5987  140.0638  157.2729 H   0  0  0  0  0  0  0  0  0  0  0  0  # atno 8010 bound_to 7997
  139.8690  143.6981  152.2642 H   0  0  0  0  0  0  0  0  0  0  0  0  # atno 10167 bound_to 10162
  157.0102  130.6114  149.5707 H   0  0  0  0  0  0  0  0  0  0  0  0  # atno 10718 bound_to 10713
  153.7578  135.6921  153.4932 H   0  0  0  0  0  0  0  0  0  0  0  0  # atno 10763 bound_to 10752
  153.1959  135.4454  155.0206 H   0  0  0  0  0  0  0  0  0  0  0  0  # atno 10764 bound_to 10752
  154.8164  135.3401  154.7095 H   0  0  0  0  0  0  0  0  0  0  0  0  # atno 10765 bound_to 10752
  140.8416  133.7922  155.9867 H   0  0  0  0  0  0  0  0  0  0  0  0  # atno 11005 bound_to 11000
  145.0700  139.3038  143.5837 LP  0  0  0  0  0  0  0  0  0  0  0  0  # atno 17320 bound_to 7965
  146.3518  140.0172  142.8662 LP  0  0  0  0  0  0  0  0  0  0  0  0  # atno 17321 bound_to 7965
  139.7301  144.7584  151.0815 LP  0  0  0  0  0  0  0  0  0  0  0  0  # atno 17342 bound_to 10162
  140.7763  143.5098  150.9666 LP  0  0  0  0  0  0  0  0  0  0  0  0  # atno 17343 bound_to 10162
  156.0139  130.5232  150.8073 LP  0  0  0  0  0  0  0  0  0  0  0  0  # atno 17370 bound_to 10713
  157.5326  131.0937  150.9935 LP  0  0  0  0  0  0  0  0  0  0  0  0  # atno 17371 bound_to 10713
  140.8889  134.2520  157.5105 LP  0  0  0  0  0  0  0  0  0  0  0  0  # atno 17394 bound_to 11000
  139.8703  134.9652  156.4520 LP  0  0  0  0  0  0  0  0  0  0  0  0  # atno 17395 bound_to 11000

$$$$
