AV-unprocessed.smi:2829|AV-procd|sdf|10899|dock6
  -GOLD-   2272015343D 1   1.00000     0.00000
 Structure written by MMmdl.
 50 53  0  0  0  0  0  0  0  0  1 V2000
  150.5947  143.2817  158.1776 C   0  0  0  0  0  0  0  0  0  0  0  0
  151.5994  144.2123  158.8941 C   0  0  0  0  0  0  0  0  0  0  0  0
  152.5866  144.7350  157.8295 C   0  0  0  0  0  0  0  0  0  0  0  0
  150.7994  145.3897  159.4893 C   0  0  0  0  0  0  0  0  0  0  0  0
  152.3742  143.4923  160.0124 C   0  0  0  0  0  0  0  0  0  0  0  0
  152.3508  143.9079  161.3630 C   0  0  0  0  0  0  0  0  0  0  0  0
  153.1020  143.1648  162.2894 C   0  0  0  0  0  0  0  0  0  0  0  0
  153.8308  142.0520  161.8246 C   0  0  0  0  0  0  0  0  0  0  0  0
  154.5684  141.3508  162.8133 N   0  0  0  0  0  0  0  0  0  0  0  0
  155.2104  140.1724  162.6923 C   0  0  0  0  0  0  0  0  0  0  0  0
  155.1799  139.4562  161.6935 O   0  0  0  0  0  0  0  0  0  0  0  0
  155.9047  139.8122  163.7853 N   0  0  0  0  0  0  0  0  0  0  0  0
  156.7037  138.6027  163.9787 C   0  0  1  0  0  0  0  0  0  0  0  0
  157.2314  138.4848  165.4100 C   0  0  2  0  0  0  0  0  0  0  0  0
  158.5755  138.6059  166.0311 C   0  0  0  0  0  0  0  0  0  0  0  0
  158.4816  137.3738  166.9671 C   0  0  0  0  0  0  0  0  0  0  0  0
  157.2816  136.6664  166.5698 O   0  0  0  0  0  0  0  0  0  0  0  0
  157.1234  136.9834  165.2000 C   0  0  1  0  0  0  0  0  0  0  0  0
  155.8780  137.3296  164.3730 C   0  0  0  0  0  0  0  0  0  0  0  0
  155.3330  136.3617  163.3162 C   0  0  0  0  0  0  0  0  0  0  0  0
  153.9172  136.8264  163.6742 C   0  0  0  0  0  0  0  0  0  0  0  0
  154.4694  137.3743  164.9945 C   0  0  0  0  0  0  0  0  0  0  0  0
  153.8090  141.7105  160.5121 N   0  0  0  0  0  0  0  0  0  0  0  0
  153.0983  142.4138  159.6259 N   0  0  0  0  0  0  0  0  0  0  0  0
  150.0604  143.8113  157.3878 H   0  0  0  0  0  0  0  0  0  0  0  0
  149.8421  142.8942  158.8655 H   0  0  0  0  0  0  0  0  0  0  0  0
  151.0944  142.4326  157.7094 H   0  0  0  0  0  0  0  0  0  0  0  0
  153.1691  143.9207  157.3966 H   0  0  0  0  0  0  0  0  0  0  0  0
  153.2906  145.4552  158.2483 H   0  0  0  0  0  0  0  0  0  0  0  0
  152.0638  145.2354  157.0139 H   0  0  0  0  0  0  0  0  0  0  0  0
  150.2271  145.9104  158.7209 H   0  0  0  0  0  0  0  0  0  0  0  0
  151.4520  146.1275  159.9575 H   0  0  0  0  0  0  0  0  0  0  0  0
  150.0951  145.0464  160.2478 H   0  0  0  0  0  0  0  0  0  0  0  0
  151.7855  144.7618  161.7025 H   0  0  0  0  0  0  0  0  0  0  0  0
  153.1154  143.4460  163.3325 H   0  0  0  0  0  0  0  0  0  0  0  0
  154.6558  141.8173  163.7038 H   0  0  0  0  0  0  0  0  0  0  0  0
  155.8560  140.4382  164.5761 H   0  0  0  0  0  0  0  0  0  0  0  0
  157.4710  138.4289  163.2195 H   0  0  0  0  0  0  0  0  0  0  0  0
  156.4736  138.8551  166.1108 H   0  0  0  0  0  0  0  0  0  0  0  0
  159.3760  138.5025  165.2972 H   0  0  0  0  0  0  0  0  0  0  0  0
  158.7076  139.5401  166.5775 H   0  0  0  0  0  0  0  0  0  0  0  0
  159.3563  136.7323  166.8542 H   0  0  0  0  0  0  0  0  0  0  0  0
  158.4055  137.6625  168.0156 H   0  0  0  0  0  0  0  0  0  0  0  0
  157.9292  136.5622  164.5898 H   0  0  0  0  0  0  0  0  0  0  0  0
  155.6384  136.5792  162.2926 H   0  0  0  0  0  0  0  0  0  0  0  0
  155.5094  135.3167  163.5754 H   0  0  0  0  0  0  0  0  0  0  0  0
  153.5490  137.6112  163.0122 H   0  0  0  0  0  0  0  0  0  0  0  0
  153.1902  136.0217  163.7857 H   0  0  0  0  0  0  0  0  0  0  0  0
  154.3549  136.6703  165.8198 H   0  0  0  0  0  0  0  0  0  0  0  0
  154.1030  138.3657  165.2610 H   0  0  0  0  0  0  0  0  0  0  0  0
  1  2  1  0  0  0  0
  1 25  1  0  0  0  0
  1 26  1  0  0  0  0
  1 27  1  0  0  0  0
  2  3  1  0  0  0  0
  2  4  1  0  0  0  0
  2  5  1  0  0  0  0
  3 28  1  0  0  0  0
  3 29  1  0  0  0  0
  3 30  1  0  0  0  0
  4 31  1  0  0  0  0
  4 32  1  0  0  0  0
  4 33  1  0  0  0  0
  5 24  1  0  0  0  0
  5  6  2  0  0  0  0
  6  7  1  0  0  0  0
  6 34  1  0  0  0  0
  7  8  2  0  0  0  0
  7 35  1  0  0  0  0
  8  9  1  0  0  0  0
  8 23  1  0  0  0  0
  9 10  1  0  0  0  0
  9 36  1  0  0  0  0
 10 11  2  0  0  0  0
 10 12  1  0  0  0  0
 12 13  1  0  0  0  0
 12 37  1  0  0  0  0
 13 19  1  0  0  0  0
 13 14  1  0  0  0  0
 13 38  1  0  0  0  0
 14 18  1  0  0  0  0
 14 15  1  0  0  0  0
 14 39  1  0  0  0  0
 15 16  1  0  0  0  0
 15 40  1  0  0  0  0
 15 41  1  0  0  0  0
 16 17  1  0  0  0  0
 16 42  1  0  0  0  0
 16 43  1  0  0  0  0
 17 18  1  0  0  0  0
 18 19  1  0  0  0  0
 18 44  1  0  0  0  0
 19 22  1  0  0  0  0
 19 20  1  0  0  0  0
 20 21  1  0  0  0  0
 20 45  1  0  0  0  0
 20 46  1  0  0  0  0
 21 22  1  0  0  0  0
 21 47  1  0  0  0  0
 21 48  1  0  0  0  0
 22 49  1  0  0  0  0
 22 50  1  0  0  0  0
 23 24  2  0  0  0  0
M  END
> <s_m_source_file>
AV-unprocessed.smi

> <i_m_source_file_index>
2829

> <i_lp_mmshare_version>
43012

> <i_f3d_flags>
0

> <s_epik_input>
W0NIM11DKFtDSDNdKShbQ0gzXSljMVtjSF1bY0hdYyhubjEpW05IXUMoPU8pW05IXVtDQEBIXTJbQ0BIXShbQ0gyXVtDSDJdTzMpW0NAQEhdM0MyNFtDSDJdW0NIMl1bQ0gyXTQ=

> <s_epik_cmdline>
J2VwaWtfcHl0aG9uJywgJy1waCcsICc3LjAnLCAnLXRuJywgJzgnLCAnLW1hJywgJzIwMCcsICctbWV0YWxfYmluZGluZycsICctaW1hZScsICc8aW5maWxlLm1hZT4nLCAnLW9tYWUnLCAnPG91dGZpbGUubWFlPic=

> <r_lp_tautomer_probability>
1

> <r_epik_Ionization_Penalty>
0.011915

> <r_epik_Ionization_Penalty_Charging>
0

> <r_epik_Ionization_Penalty_Neutral>
0.011915

> <r_epik_State_Penalty>
0.00486223

> <r_epik_Charging_Adjusted_Penalty>
0.00486223

> <i_epik_Tot_Q>
0

> <i_epik_Tot_abs_Q>
0

> <r_epik_Metal_State_Penalty>
-0

> <b_epik_Metal_Only>
0

> <s_lp_Force_Field>
OPLS_2005

> <r_lp_Energy>
82.5072

> <b_lp_Chiralities_Consistent>
1

> <s_lp_Variant>
AV-unprocessed.smi:2829-2

> <Gold.Version>
5.8.1

> <Gold.Id.Protein>
6NUR|6NUR_protein|mol2

> <Gold.PLP.Fitness>
45.6981

> <Gold.PLP.PLP>
-45.7590

> <Gold.PLP.part.hbond>
-1.1413

> <Gold.PLP.part.metal>
0.0000

> <Gold.PLP.part.buried>
-6.9048

> <Gold.PLP.part.nonpolar>
-37.1080

> <Gold.PLP.part.repulsive>
0.1066

> <Gold.PLP.ligand.clash>
0.0000

> <Gold.PLP.ligand.torsion>
0.1919

> <Gold.PLP.Chemscore.Hbond>
0.0000

> <Gold.PLP.Chemscore.CHOScore>
0.0000

> <Gold.PLP.Chemscore.Metal>
0.0000

> <Gold.PLP.Chemscore.Internal.Correction>
0.3229

> <Gold.Rescore>
     Score         DG    S(hbond)    S(metal)    S(lipo)     H(rot)  DE(clash)    DE(int)     intcor
     13.78     -15.35       0.00        0.00     109.76       1.16       0.08       1.49       ----

> <Gold.Chemscore.Fitness>
13.7813

> <Gold.Chemscore.DG>
-15.3473

> <Gold.Chemscore.ZeroCoef>
-5.4800

> <Gold.Chemscore.Hbond>
0.0000

> <Gold.Chemscore.Metal>
0.0000

> <Gold.Chemscore.Lipo>
109.7557

> <Gold.Chemscore.Internal_Hbond>
0.0000

> <Gold.Chemscore.DEClash>
0.0763

> <Gold.Chemscore.DEInternal>
1.4897

> <Gold.Chemscore.Rot>
1.1618

> <Gold.Chemscore.Internal.Correction>
   9.000000E+99

> <Gold.Chemscore.Hbond.Weighted>
-0.0000

> <Gold.Chemscore.Metal.Weighted>
-0.0000

> <Gold.Chemscore.Lipo.Weighted>
-12.8414

> <Gold.Chemscore.Internal_Hbond.Weighted>
0.0000

> <Gold.Chemscore.DEClash.Weighted>
0.0763

> <Gold.Chemscore.DEInternal.Weighted>
1.4897

> <Gold.Chemscore.Rot.Weighted>
2.9741

> <Gold.Chemscore.Internal.Correction.Weighted>
   9.000000E+99

> <Gold.Protein.RotatedTorsions>
[ 6907 6896 6895 6894 ] final  166.07 input  -60.11 | X-H torsion
[ 7974 7965 7964 7962 ] final   54.35 input  175.53 | X-H torsion
[ 8008 7997 7996 7995 ] final  -70.33 input   59.86 | X-H torsion
[ 10167 10162 10161 10158 ] final   47.94 input  -65.29 | X-H torsion
[ 10718 10713 10712 10709 ] final  -69.06 input   66.30 | X-H torsion
[ 10763 10752 10751 10750 ] final   94.42 input  -60.55 | X-H torsion
[ 11005 11000 10999 10996 ] final  -54.19 input  -57.11 | X-H torsion

> <Gold.Protein.ActiveResidues>
 VAL166  LYS551  ARG553  GLY616  TRP617  ASP618  TYR619  PRO620  LYS621  CYS622 
 ASP623  PHE694  ASN695  SER759  ASP760  ASP761  ALA762  ILE779  LEU786  VAL792 
 PHE793  MET794  SER795  GLU796  ALA797  LYS798  CYS799  TRP800  GLU811  SER814 

> <Gold.Protein.RotatedAtoms>
  151.8846  133.3502  159.3777 H   0  0  0  0  0  0  0  0  0  0  0  0  # atno 6907 bound_to 6896
  150.7119  134.4985  159.5559 H   0  0  0  0  0  0  0  0  0  0  0  0  # atno 6908 bound_to 6896
  152.2543  134.8101  160.0492 H   0  0  0  0  0  0  0  0  0  0  0  0  # atno 6909 bound_to 6896
  145.9617  139.4065  143.0244 H   0  0  0  0  0  0  0  0  0  0  0  0  # atno 7974 bound_to 7965
  154.5004  140.0836  156.7786 H   0  0  0  0  0  0  0  0  0  0  0  0  # atno 8008 bound_to 7997
  155.4016  140.3437  155.4239 H   0  0  0  0  0  0  0  0  0  0  0  0  # atno 8009 bound_to 7997
  156.1449  140.1540  156.8850 H   0  0  0  0  0  0  0  0  0  0  0  0  # atno 8010 bound_to 7997
  140.2985  144.2962  150.6224 H   0  0  0  0  0  0  0  0  0  0  0  0  # atno 10167 bound_to 10162
  156.0474  130.4306  150.2092 H   0  0  0  0  0  0  0  0  0  0  0  0  # atno 10718 bound_to 10713
  153.2415  135.4290  155.0702 H   0  0  0  0  0  0  0  0  0  0  0  0  # atno 10763 bound_to 10752
  154.8342  135.3404  154.6643 H   0  0  0  0  0  0  0  0  0  0  0  0  # atno 10764 bound_to 10752
  153.7066  135.7025  153.5105 H   0  0  0  0  0  0  0  0  0  0  0  0  # atno 10765 bound_to 10752
  141.1013  133.6618  156.4283 H   0  0  0  0  0  0  0  0  0  0  0  0  # atno 11005 bound_to 11000
  145.8030  140.9762  143.0989 LP  0  0  0  0  0  0  0  0  0  0  0  0  # atno 17320 bound_to 7965
  144.6816  139.9825  143.7483 LP  0  0  0  0  0  0  0  0  0  0  0  0  # atno 17321 bound_to 7965
  140.5671  143.2185  151.7663 LP  0  0  0  0  0  0  0  0  0  0  0  0  # atno 17342 bound_to 10162
  139.4920  144.4268  151.9917 LP  0  0  0  0  0  0  0  0  0  0  0  0  # atno 17343 bound_to 10162
  157.0179  130.9970  151.3348 LP  0  0  0  0  0  0  0  0  0  0  0  0  # atno 17370 bound_to 10713
  157.5364  130.8092  149.7977 LP  0  0  0  0  0  0  0  0  0  0  0  0  # atno 17371 bound_to 10713
  140.5014  134.6482  157.5250 LP  0  0  0  0  0  0  0  0  0  0  0  0  # atno 17394 bound_to 11000
  139.9866  134.7052  155.9763 LP  0  0  0  0  0  0  0  0  0  0  0  0  # atno 17395 bound_to 11000

$$$$
