AV-unprocessed.smi:119|AV-procd|sdf|1135|dock1
  -GOLD-   2262018263D 1   1.00000     0.00000
 Structure written by MMmdl.
 51 54  0  0  0  0  0  0  0  0  1 V2000
  143.8670  136.0144  158.3695 C   0  0  0  0  0  0  0  0  0  0  0  0
  144.7343  137.2661  158.5788 C   0  0  2  0  0  0  0  0  0  0  0  0
  146.0029  137.2957  157.7027 C   0  0  0  0  0  0  0  0  0  0  0  0
  147.0313  136.1757  157.9605 C   0  0  0  0  0  0  0  0  0  0  0  0
  147.7047  136.3052  159.2593 N   0  0  0  0  0  0  0  0  0  0  0  0
  148.8352  137.0343  159.4517 C   0  0  0  0  0  0  0  0  0  0  0  0
  149.3514  137.1547  160.5661 O   0  0  0  0  0  0  0  0  0  0  0  0
  149.4999  137.7341  158.2450 C   0  0  0  0  0  0  0  0  0  0  0  0
  150.6048  138.6435  158.6232 N   0  0  0  0  0  0  0  0  0  0  0  0
  151.7651  138.0879  159.2149 C   0  0  0  0  0  0  0  0  0  0  0  0
  151.8590  136.8770  159.4227 O   0  0  0  0  0  0  0  0  0  0  0  0
  152.8190  139.0396  159.5448 C   0  0  0  0  0  0  0  0  0  0  0  0
  153.9505  138.6035  160.1241 F   0  0  0  0  0  0  0  0  0  0  0  0
  152.6775  140.3555  159.2826 C   0  0  0  0  0  0  0  0  0  0  0  0
  151.5415  140.8871  158.6947 N   0  0  0  0  0  0  0  0  0  0  0  0
  151.3958  142.3546  158.3431 C   0  0  1  0  0  0  0  0  0  0  0  0
  150.2265  143.0904  159.0031 C   0  0  0  0  0  0  0  0  0  0  0  0
  150.7138  144.5144  158.8681 C   0  0  0  0  0  0  0  0  0  0  0  0
  152.2047  144.3534  159.1657 C   0  0  0  0  0  0  0  0  0  0  0  0
  152.5442  143.0258  158.7673 O   0  0  0  0  0  0  0  0  0  0  0  0
  150.4763  140.0256  158.3471 C   0  0  0  0  0  0  0  0  0  0  0  0
  149.4590  140.4704  157.8103 O   0  0  0  0  0  0  0  0  0  0  0  0
  147.1050  135.6258  160.3539 C   0  0  0  0  0  0  0  0  0  0  0  0
  147.7247  134.4657  160.8704 C   0  0  0  0  0  0  0  0  0  0  0  0
  147.1499  133.7764  161.9549 C   0  0  0  0  0  0  0  0  0  0  0  0
  145.9528  134.2426  162.5299 C   0  0  0  0  0  0  0  0  0  0  0  0
  145.3301  135.3977  162.0200 C   0  0  0  0  0  0  0  0  0  0  0  0
  145.8979  136.0887  160.9310 C   0  0  0  0  0  0  0  0  0  0  0  0
  145.0889  137.5449  160.3389 S   0  0  0  0  0  0  0  0  0  0  0  0
  143.6117  135.8861  157.3173 H   0  0  0  0  0  0  0  0  0  0  0  0
  142.9333  136.0921  158.9269 H   0  0  0  0  0  0  0  0  0  0  0  0
  144.3701  135.1069  158.7025 H   0  0  0  0  0  0  0  0  0  0  0  0
  144.1295  138.1205  158.2734 H   0  0  0  0  0  0  0  0  0  0  0  0
  145.6952  137.2389  156.6581 H   0  0  0  0  0  0  0  0  0  0  0  0
  146.4808  138.2696  157.8086 H   0  0  0  0  0  0  0  0  0  0  0  0
  146.5415  135.2030  157.9080 H   0  0  0  0  0  0  0  0  0  0  0  0
  147.7534  136.1484  157.1451 H   0  0  0  0  0  0  0  0  0  0  0  0
  149.8545  136.9695  157.5529 H   0  0  0  0  0  0  0  0  0  0  0  0
  148.7491  138.2823  157.6766 H   0  0  0  0  0  0  0  0  0  0  0  0
  153.4984  140.9912  159.5690 H   0  0  0  0  0  0  0  0  0  0  0  0
  151.3210  142.3876  157.2539 H   0  0  0  0  0  0  0  0  0  0  0  0
  149.2809  142.8855  158.5006 H   0  0  0  0  0  0  0  0  0  0  0  0
  150.1533  142.8557  160.0643 H   0  0  0  0  0  0  0  0  0  0  0  0
  150.5664  144.8679  157.8464 H   0  0  0  0  0  0  0  0  0  0  0  0
  150.2154  145.2075  159.5465 H   0  0  0  0  0  0  0  0  0  0  0  0
  152.8115  145.0921  158.6416 H   0  0  0  0  0  0  0  0  0  0  0  0
  152.3961  144.4532  160.2346 H   0  0  0  0  0  0  0  0  0  0  0  0
  148.6447  134.1026  160.4355 H   0  0  0  0  0  0  0  0  0  0  0  0
  147.6291  132.8913  162.3465 H   0  0  0  0  0  0  0  0  0  0  0  0
  145.5134  133.7152  163.3636 H   0  0  0  0  0  0  0  0  0  0  0  0
  144.4131  135.7524  162.4673 H   0  0  0  0  0  0  0  0  0  0  0  0
  1  2  1  0  0  0  0
  1 30  1  0  0  0  0
  1 31  1  0  0  0  0
  1 32  1  0  0  0  0
  2 29  1  0  0  0  0
  2  3  1  0  0  0  0
  2 33  1  0  0  0  0
  3  4  1  0  0  0  0
  3 34  1  0  0  0  0
  3 35  1  0  0  0  0
  4  5  1  0  0  0  0
  4 36  1  0  0  0  0
  4 37  1  0  0  0  0
  5  6  1  0  0  0  0
  5 23  1  0  0  0  0
  6  7  2  0  0  0  0
  6  8  1  0  0  0  0
  8  9  1  0  0  0  0
  8 38  1  0  0  0  0
  8 39  1  0  0  0  0
  9 21  1  0  0  0  0
  9 10  1  0  0  0  0
 10 11  2  0  0  0  0
 10 12  1  0  0  0  0
 12 13  1  0  0  0  0
 12 14  2  0  0  0  0
 14 15  1  0  0  0  0
 14 40  1  0  0  0  0
 15 16  1  0  0  0  0
 15 21  1  0  0  0  0
 16 20  1  0  0  0  0
 16 17  1  0  0  0  0
 16 41  1  0  0  0  0
 17 18  1  0  0  0  0
 17 42  1  0  0  0  0
 17 43  1  0  0  0  0
 18 19  1  0  0  0  0
 18 44  1  0  0  0  0
 18 45  1  0  0  0  0
 19 20  1  0  0  0  0
 19 46  1  0  0  0  0
 19 47  1  0  0  0  0
 21 22  2  0  0  0  0
 23 28  2  0  0  0  0
 23 24  1  0  0  0  0
 24 25  2  0  0  0  0
 24 48  1  0  0  0  0
 25 26  1  0  0  0  0
 25 49  1  0  0  0  0
 26 27  2  0  0  0  0
 26 50  1  0  0  0  0
 27 28  1  0  0  0  0
 27 51  1  0  0  0  0
 28 29  1  0  0  0  0
M  END
> <s_m_source_file>
AV-unprocessed.smi

> <i_m_source_file_index>
119

> <i_lp_mmshare_version>
43012

> <i_f3d_flags>
0

> <s_epik_input>
W2NIXTFbY0hdW2NIXVtjSF1jKGMxMilTW0NASF0oW0NIM10pW0NIMl1bQ0gyXU4yQyg9TylbQ0gyXW4zYyg9TyljKEYpW2NIXW4oYzM9TylbQ0BASF00W0NIMl1bQ0gyXVtDSDJdTzQ=

> <s_epik_cmdline>
J2VwaWtfcHl0aG9uJywgJy1waCcsICc3LjAnLCAnLXRuJywgJzgnLCAnLW1hJywgJzIwMCcsICctbWV0YWxfYmluZGluZycsICctaW1hZScsICc8aW5maWxlLm1hZT4nLCAnLW9tYWUnLCAnPG91dGZpbGUubWFlPic=

> <r_lp_tautomer_probability>
1

> <r_epik_Ionization_Penalty>
1.68882e-06

> <r_epik_Ionization_Penalty_Charging>
3.67303e-09

> <r_epik_Ionization_Penalty_Neutral>
1.68515e-06

> <r_epik_State_Penalty>
-0

> <r_epik_Charging_Adjusted_Penalty>
3.67303e-09

> <i_epik_Tot_Q>
0

> <i_epik_Tot_abs_Q>
0

> <r_epik_Metal_State_Penalty>
-0

> <b_epik_Metal_Only>
0

> <s_epik_Chemistry_Notes>
This compound contains an acetal/aminal-like group ( X-CH(R)-Y where X, Y are N, S, or O) that may be acid/base labile, releasing an aldehyde.

> <s_lp_Force_Field>
OPLS_2005

> <r_lp_Energy>
51.5083

> <b_lp_Chiralities_Consistent>
1

> <s_lp_Variant>
AV-unprocessed.smi:119-3

> <Gold.Version>
5.8.1

> <Gold.Id.Protein>
6NUR|6NUR_protein|mol2

> <Gold.PLP.Fitness>
44.7270

> <Gold.PLP.PLP>
-40.2924

> <Gold.PLP.part.hbond>
-1.8289

> <Gold.PLP.part.metal>
0.0000

> <Gold.PLP.part.buried>
-6.8287

> <Gold.PLP.part.nonpolar>
-31.7693

> <Gold.PLP.part.repulsive>
0.0070

> <Gold.PLP.ligand.clash>
0.0000

> <Gold.PLP.ligand.torsion>
0.0882

> <Gold.PLP.Chemscore.Hbond>
1.5280

> <Gold.PLP.Chemscore.CHOScore>
0.0000

> <Gold.PLP.Chemscore.Metal>
0.0000

> <Gold.Chemscore.Hbonds>
donor molecule, donor type, donor heavy atom, donor atom, acceptor molecule, acceptor atom, score
      P1  H  6896  6907       L1    11  1.00
      P1  H  6931  6943       L1     7  0.54

> <Gold.PLP.Chemscore.Internal.Correction>
0.0271

> <Gold.Rescore>
     Score         DG    S(hbond)    S(metal)    S(lipo)     H(rot)  DE(clash)    DE(int)     intcor
     16.05     -16.35       1.50        0.00      83.43       1.53       0.03       0.27       ----

> <Gold.Chemscore.Fitness>
16.0485

> <Gold.Chemscore.DG>
-16.3461

> <Gold.Chemscore.ZeroCoef>
-5.4800

> <Gold.Chemscore.Hbond>
1.5007

> <Gold.Chemscore.Metal>
0.0000

> <Gold.Chemscore.Lipo>
83.4336

> <Gold.Chemscore.Internal_Hbond>
0.0000

> <Gold.Chemscore.DEClash>
0.0263

> <Gold.Chemscore.DEInternal>
0.2713

> <Gold.Chemscore.Rot>
1.5266

> <Gold.Chemscore.Internal.Correction>
   9.000000E+99

> <Gold.Chemscore.Hbonds>
donor molecule, donor type, donor heavy atom, donor atom, acceptor molecule, acceptor atom, score
      P1  H  6896  6907       L1    11  0.99
      P1  H  6931  6943       L1     7  0.54

> <Gold.Chemscore.Hbond.Weighted>
-5.0124

> <Gold.Chemscore.Metal.Weighted>
-0.0000

> <Gold.Chemscore.Lipo.Weighted>
-9.7617

> <Gold.Chemscore.Internal_Hbond.Weighted>
0.0000

> <Gold.Chemscore.DEClash.Weighted>
0.0263

> <Gold.Chemscore.DEInternal.Weighted>
0.2713

> <Gold.Chemscore.Rot.Weighted>
3.9081

> <Gold.Chemscore.Internal.Correction.Weighted>
   9.000000E+99

> <Gold.Protein.RotatedTorsions>
[ 6907 6896 6895 6894 ] final    4.35 input  -60.11 | X-H torsion
[ 7974 7965 7964 7962 ] final   77.89 input  175.53 | X-H torsion
[ 8008 7997 7996 7995 ] final  144.60 input   59.86 | X-H torsion
[ 10167 10162 10161 10158 ] final   16.02 input  -65.29 | X-H torsion
[ 10718 10713 10712 10709 ] final   35.54 input   66.30 | X-H torsion
[ 10763 10752 10751 10750 ] final   25.01 input  -60.55 | X-H torsion
[ 11005 11000 10999 10996 ] final -142.32 input  -57.11 | X-H torsion

> <Gold.Protein.ActiveResidues>
 VAL166  LYS551  ARG553  GLY616  TRP617  ASP618  TYR619  PRO620  LYS621  CYS622 
 ASP623  PHE694  ASN695  SER759  ASP760  ASP761  ALA762  ILE779  LEU786  VAL792 
 PHE793  MET794  SER795  GLU796  ALA797  LYS798  CYS799  TRP800  GLU811  SER814 

> <Gold.Protein.RotatedAtoms>
  151.6399  135.1014  160.0139 H   0  0  0  0  0  0  0  0  0  0  0  0  # atno 6907 bound_to 6896
  152.4060  133.6885  159.6365 H   0  0  0  0  0  0  0  0  0  0  0  0  # atno 6908 bound_to 6896
  150.7954  133.8626  159.3277 H   0  0  0  0  0  0  0  0  0  0  0  0  # atno 6909 bound_to 6896
  145.6842  139.2532  143.1797 H   0  0  0  0  0  0  0  0  0  0  0  0  # atno 7974 bound_to 7965
  156.2904  140.2231  156.5080 H   0  0  0  0  0  0  0  0  0  0  0  0  # atno 8008 bound_to 7997
  154.7633  140.0472  157.1013 H   0  0  0  0  0  0  0  0  0  0  0  0  # atno 8009 bound_to 7997
  154.9964  140.3096  155.4888 H   0  0  0  0  0  0  0  0  0  0  0  0  # atno 8010 bound_to 7997
  140.5827  143.8950  150.6803 H   0  0  0  0  0  0  0  0  0  0  0  0  # atno 10167 bound_to 10162
  157.3240  130.7463  149.6803 H   0  0  0  0  0  0  0  0  0  0  0  0  # atno 10718 bound_to 10713
  153.0722  135.6592  154.0222 H   0  0  0  0  0  0  0  0  0  0  0  0  # atno 10763 bound_to 10752
  153.9865  135.2950  155.3417 H   0  0  0  0  0  0  0  0  0  0  0  0  # atno 10764 bound_to 10752
  154.7100  135.5209  153.8722 H   0  0  0  0  0  0  0  0  0  0  0  0  # atno 10765 bound_to 10752
  140.8237  134.2600  157.4889 H   0  0  0  0  0  0  0  0  0  0  0  0  # atno 11005 bound_to 11000
  146.0938  140.7624  142.9582 LP  0  0  0  0  0  0  0  0  0  0  0  0  # atno 17320 bound_to 7965
  144.7017  140.3679  143.7151 LP  0  0  0  0  0  0  0  0  0  0  0  0  # atno 17321 bound_to 7965
  140.2453  143.3633  152.1452 LP  0  0  0  0  0  0  0  0  0  0  0  0  # atno 17342 bound_to 10162
  139.5179  144.6998  151.5525 LP  0  0  0  0  0  0  0  0  0  0  0  0  # atno 17343 bound_to 10162
  155.9688  130.4215  150.4471 LP  0  0  0  0  0  0  0  0  0  0  0  0  # atno 17370 bound_to 10713
  157.2492  131.0542  151.2390 LP  0  0  0  0  0  0  0  0  0  0  0  0  # atno 17371 bound_to 10713
  139.8707  134.9549  156.4190 LP  0  0  0  0  0  0  0  0  0  0  0  0  # atno 17394 bound_to 11000
  140.9072  133.7737  155.9749 LP  0  0  0  0  0  0  0  0  0  0  0  0  # atno 17395 bound_to 11000

$$$$
