AV-unprocessed.smi:496|AV-procd|sdf|2718|dock2
  -GOLD-   2262023163D 1   1.00000     0.00000
 Structure written by MMmdl.
 43 45  0  0  0  0  0  0  0  0  2 V2000
  152.4214  138.9714  154.9857 C   0  0  0  0  0  0  0  0  0  0  0  0
  152.7554  139.6007  156.2098 O   0  0  0  0  0  0  0  0  0  0  0  0
  152.2376  138.9090  157.3346 C   0  0  0  0  0  0  0  0  0  0  0  0
  150.8522  139.4621  157.6967 C   0  0  0  0  0  0  0  0  0  0  0  0
  150.7621  140.9164  157.4928 N   0  0  0  0  0  0  0  0  0  0  0  0
  149.9629  141.6397  156.6559 C   0  0  0  0  0  0  0  0  0  0  0  0
  148.9331  141.1030  155.7047 C   0  0  2  0  0  0  0  0  0  0  0  0
  149.5961  140.6323  154.4037 C   0  0  0  0  0  0  0  0  0  0  0  0
  147.8947  142.0842  155.4029 N   0  0  0  0  0  0  0  0  0  0  0  0
  146.8765  141.8982  154.5471 C   0  0  0  0  0  0  0  0  0  0  0  0
  146.6982  140.8538  153.9209 O   0  0  0  0  0  0  0  0  0  0  0  0
  145.9505  143.0353  154.3943 C   0  0  0  0  0  0  0  0  0  0  0  0
  145.6009  143.7543  153.2829 C   0  0  0  0  0  0  0  0  0  0  0  0
  144.6679  144.7385  153.7116 C   0  0  0  0  0  0  0  0  0  0  0  0
  144.5138  144.5504  155.0550 C   0  0  0  0  0  0  0  0  0  0  0  0
  145.2872  143.5173  155.4870 O   0  0  0  0  0  0  0  0  0  0  0  0
  150.2730  142.9550  156.8416 N   0  3  0  0  0  0  0  0  0  0  0  0
  151.2602  143.0760  157.8191 C   0  0  0  0  0  0  0  0  0  0  0  0
  151.8824  144.2019  158.3495 C   0  0  0  0  0  0  0  0  0  0  0  0
  152.8500  143.9775  159.3505 C   0  0  0  0  0  0  0  0  0  0  0  0
  153.1658  142.6746  159.7868 C   0  0  0  0  0  0  0  0  0  0  0  0
  152.5299  141.5409  159.2392 C   0  0  0  0  0  0  0  0  0  0  0  0
  151.5759  141.7705  158.2475 C   0  0  0  0  0  0  0  0  0  0  0  0
  152.8305  139.5461  154.1549 H   0  0  0  0  0  0  0  0  0  0  0  0
  151.3404  138.9116  154.8541 H   0  0  0  0  0  0  0  0  0  0  0  0
  152.8376  137.9644  154.9346 H   0  0  0  0  0  0  0  0  0  0  0  0
  152.1658  137.8427  157.1165 H   0  0  0  0  0  0  0  0  0  0  0  0
  152.9127  139.0203  158.1841 H   0  0  0  0  0  0  0  0  0  0  0  0
  150.0718  138.9663  157.1200 H   0  0  0  0  0  0  0  0  0  0  0  0
  150.6281  139.2584  158.7440 H   0  0  0  0  0  0  0  0  0  0  0  0
  148.4467  140.2414  156.1638 H   0  0  0  0  0  0  0  0  0  0  0  0
  150.3394  139.8593  154.6022 H   0  0  0  0  0  0  0  0  0  0  0  0
  150.0986  141.4533  153.8909 H   0  0  0  0  0  0  0  0  0  0  0  0
  148.8605  140.2115  153.7174 H   0  0  0  0  0  0  0  0  0  0  0  0
  147.9597  142.9778  155.8686 H   0  0  0  0  0  0  0  0  0  0  0  0
  145.9724  143.5916  152.2817 H   0  0  0  0  0  0  0  0  0  0  0  0
  144.1733  145.4890  153.1131 H   0  0  0  0  0  0  0  0  0  0  0  0
  143.9244  145.0371  155.8181 H   0  0  0  0  0  0  0  0  0  0  0  0
  151.6398  145.2010  158.0187 H   0  0  0  0  0  0  0  0  0  0  0  0
  153.3580  144.8217  159.7940 H   0  0  0  0  0  0  0  0  0  0  0  0
  153.9105  142.5411  160.5582 H   0  0  0  0  0  0  0  0  0  0  0  0
  152.7761  140.5488  159.5872 H   0  0  0  0  0  0  0  0  0  0  0  0
  149.8288  143.7140  156.3413 H   0  0  0  0  0  0  0  0  0  0  0  0
  1  2  1  0  0  0  0
  1 24  1  0  0  0  0
  1 25  1  0  0  0  0
  1 26  1  0  0  0  0
  2  3  1  0  0  0  0
  3  4  1  0  0  0  0
  3 27  1  0  0  0  0
  3 28  1  0  0  0  0
  4  5  1  0  0  0  0
  4 29  1  0  0  0  0
  4 30  1  0  0  0  0
  5 23  1  0  0  0  0
  5  6  1  0  0  0  0
  6  7  1  0  0  0  0
  6 17  2  0  0  0  0
  7  8  1  0  0  0  0
  7  9  1  0  0  0  0
  7 31  1  0  0  0  0
  8 32  1  0  0  0  0
  8 33  1  0  0  0  0
  8 34  1  0  0  0  0
  9 10  1  0  0  0  0
  9 35  1  0  0  0  0
 10 11  2  0  0  0  0
 10 12  1  0  0  0  0
 12 16  1  0  0  0  0
 12 13  2  0  0  0  0
 13 14  1  0  0  0  0
 13 36  1  0  0  0  0
 14 15  2  0  0  0  0
 14 37  1  0  0  0  0
 15 16  1  0  0  0  0
 15 38  1  0  0  0  0
 17 18  1  0  0  0  0
 17 43  1  0  0  0  0
 18 23  2  0  0  0  0
 18 19  1  0  0  0  0
 19 20  2  0  0  0  0
 19 39  1  0  0  0  0
 20 21  1  0  0  0  0
 20 40  1  0  0  0  0
 21 22  2  0  0  0  0
 21 41  1  0  0  0  0
 22 23  1  0  0  0  0
 22 42  1  0  0  0  0
M  CHG  1  17   1
M  END
> <s_m_source_file>
AV-unprocessed.smi

> <i_m_source_file_index>
496

> <i_lp_mmshare_version>
43012

> <i_f3d_flags>
0

> <s_epik_input>
W2NIXTFbY0hdW2NIXVtjSF1jKGMxMiluKFtDSDJdW0NIMl1PW0NIM10pYyhuMilbQ0BIXShbQ0gzXSlbTkhdQyg9TyljM1tjSF1bY0hdW2NIXW8z

> <s_epik_cmdline>
J2VwaWtfcHl0aG9uJywgJy1waCcsICc3LjAnLCAnLXRuJywgJzgnLCAnLW1hJywgJzIwMCcsICctbWV0YWxfYmluZGluZycsICctaW1hZScsICc8aW5maWxlLm1hZT4nLCAnLW9tYWUnLCAnPG91dGZpbGUubWFlPic=

> <r_epik_Ionization_Penalty>
1.02088

> <r_epik_Ionization_Penalty_Charging>
1.02086

> <r_epik_Ionization_Penalty_Neutral>
2.09263e-05

> <r_epik_State_Penalty>
1.07114

> <r_epik_Charging_Adjusted_Penalty>
2.092

> <i_epik_Tot_Q>
1

> <i_epik_Tot_abs_Q>
1

> <r_epik_Metal_State_Penalty>
1.19829

> <b_epik_Metal_Only>
0

> <s_lp_Force_Field>
OPLS_2005

> <r_lp_Energy>
10.7662

> <b_lp_Chiralities_Consistent>
1

> <s_lp_Variant>
AV-unprocessed.smi:496-3

> <Gold.Version>
5.8.1

> <Gold.Id.Protein>
6NUR|6NUR_protein|mol2

> <Gold.PLP.Fitness>
57.8797

> <Gold.PLP.PLP>
-50.7065

> <Gold.PLP.part.hbond>
-3.0000

> <Gold.PLP.part.metal>
0.0000

> <Gold.PLP.part.buried>
-7.3579

> <Gold.PLP.part.nonpolar>
-41.6218

> <Gold.PLP.part.repulsive>
0.4537

> <Gold.PLP.ligand.clash>
0.0000

> <Gold.PLP.ligand.torsion>
2.1156

> <Gold.PLP.Chemscore.Hbond>
3.7600

> <Gold.PLP.Chemscore.CHOScore>
0.0000

> <Gold.PLP.Chemscore.Metal>
0.0000

> <Gold.Chemscore.Hbonds>
donor molecule, donor type, donor heavy atom, donor atom, acceptor molecule, acceptor atom, score
      L1  H     9    35       P1  8028  0.80
      L1  H    17    43       P1  8028  2.00
      P1  H  7997  8010       L1     2  0.96

> <Gold.PLP.Chemscore.Internal.Correction>
0.1246

> <Gold.Rescore>
     Score         DG    S(hbond)    S(metal)    S(lipo)     H(rot)  DE(clash)    DE(int)     intcor
     21.43     -23.46       2.72        0.00     117.62       1.90       0.00       2.03       ----

> <Gold.Chemscore.Fitness>
21.4290

> <Gold.Chemscore.DG>
-23.4617

> <Gold.Chemscore.ZeroCoef>
-5.4800

> <Gold.Chemscore.Hbond>
2.7188

> <Gold.Chemscore.Metal>
0.0000

> <Gold.Chemscore.Lipo>
117.6211

> <Gold.Chemscore.Internal_Hbond>
0.0000

> <Gold.Chemscore.DEClash>
0.0015

> <Gold.Chemscore.DEInternal>
2.0312

> <Gold.Chemscore.Rot>
1.8988

> <Gold.Chemscore.Internal.Correction>
   9.000000E+99

> <Gold.Chemscore.Hbonds>
donor molecule, donor type, donor heavy atom, donor atom, acceptor molecule, acceptor atom, score
      L1  H     9    35       P1  8028  0.51
      L1  H    17    43       P1  8028  0.93
      P1  H  7997  8010       L1     2  0.46

> <Gold.Chemscore.Hbond.Weighted>
-9.0809

> <Gold.Chemscore.Metal.Weighted>
-0.0000

> <Gold.Chemscore.Lipo.Weighted>
-13.7617

> <Gold.Chemscore.Internal_Hbond.Weighted>
0.0000

> <Gold.Chemscore.DEClash.Weighted>
0.0015

> <Gold.Chemscore.DEInternal.Weighted>
2.0312

> <Gold.Chemscore.Rot.Weighted>
4.8608

> <Gold.Chemscore.Internal.Correction.Weighted>
   9.000000E+99

> <Gold.Protein.RotatedTorsions>
[ 6907 6896 6895 6894 ] final  -39.13 input  -60.11 | X-H torsion
[ 7974 7965 7964 7962 ] final -179.92 input  175.53 | X-H torsion
[ 8008 7997 7996 7995 ] final   55.79 input   59.86 | X-H torsion
[ 10167 10162 10161 10158 ] final  141.01 input  -65.29 | X-H torsion
[ 10718 10713 10712 10709 ] final -145.20 input   66.30 | X-H torsion
[ 10763 10752 10751 10750 ] final   42.75 input  -60.55 | X-H torsion
[ 11005 11000 10999 10996 ] final   91.49 input  -57.11 | X-H torsion

> <Gold.Protein.ActiveResidues>
 VAL166  LYS551  ARG553  GLY616  TRP617  ASP618  TYR619  PRO620  LYS621  CYS622 
 ASP623  PHE694  ASN695  SER759  ASP760  ASP761  ALA762  ILE779  LEU786  VAL792 
 PHE793  MET794  SER795  GLU796  ALA797  LYS798  CYS799  TRP800  GLU811  SER814 

> <Gold.Protein.RotatedAtoms>
  150.9941  134.9268  159.7915 H   0  0  0  0  0  0  0  0  0  0  0  0  # atno 6907 bound_to 6896
  152.5259  134.3243  159.9169 H   0  0  0  0  0  0  0  0  0  0  0  0  # atno 6908 bound_to 6896
  151.3248  133.3983  159.2692 H   0  0  0  0  0  0  0  0  0  0  0  0  # atno 6909 bound_to 6896
  144.7140  140.0645  143.6431 H   0  0  0  0  0  0  0  0  0  0  0  0  # atno 7974 bound_to 7965
  155.5069  140.3476  155.4381 H   0  0  0  0  0  0  0  0  0  0  0  0  # atno 8008 bound_to 7997
  156.0876  140.1402  156.9661 H   0  0  0  0  0  0  0  0  0  0  0  0  # atno 8009 bound_to 7997
  154.4616  140.0933  156.6884 H   0  0  0  0  0  0  0  0  0  0  0  0  # atno 8010 bound_to 7997
  139.5032  144.6198  151.6078 H   0  0  0  0  0  0  0  0  0  0  0  0  # atno 10167 bound_to 10162
  156.3795  130.7830  151.2020 H   0  0  0  0  0  0  0  0  0  0  0  0  # atno 10718 bound_to 10713
  152.9876  135.6122  154.2999 H   0  0  0  0  0  0  0  0  0  0  0  0  # atno 10763 bound_to 10752
  154.2720  135.2779  155.2736 H   0  0  0  0  0  0  0  0  0  0  0  0  # atno 10764 bound_to 10752
  154.5113  135.5840  153.6664 H   0  0  0  0  0  0  0  0  0  0  0  0  # atno 10765 bound_to 10752
  139.8838  134.8677  156.3436 H   0  0  0  0  0  0  0  0  0  0  0  0  # atno 11005 bound_to 11000
  145.9836  139.2960  143.1027 LP  0  0  0  0  0  0  0  0  0  0  0  0  # atno 17320 bound_to 7965
  145.8983  140.9259  143.0516 LP  0  0  0  0  0  0  0  0  0  0  0  0  # atno 17321 bound_to 7965
  140.5897  143.9801  150.6317 LP  0  0  0  0  0  0  0  0  0  0  0  0  # atno 17342 bound_to 10162
  140.2978  143.3281  152.1001 LP  0  0  0  0  0  0  0  0  0  0  0  0  # atno 17343 bound_to 10162
  157.7491  131.0348  150.4335 LP  0  0  0  0  0  0  0  0  0  0  0  0  # atno 17370 bound_to 10713
  156.4576  130.4025  149.6596 LP  0  0  0  0  0  0  0  0  0  0  0  0  # atno 17371 bound_to 10713
  140.9642  133.7369  156.0444 LP  0  0  0  0  0  0  0  0  0  0  0  0  # atno 17394 bound_to 11000
  140.7952  134.3572  157.5454 LP  0  0  0  0  0  0  0  0  0  0  0  0  # atno 17395 bound_to 11000

$$$$
