AV-unprocessed.smi:1775|AV-procd|sdf|7171|dock6
  -GOLD-   22720 8413D 1   1.00000     0.00000
 Structure written by MMmdl.
 38 40  0  0  0  0  0  0  0  0  1 V2000
  147.5865  141.8655  158.7533 O   0  0  0  0  0  0  0  0  0  0  0  0
  147.8083  143.0685  158.6185 C   0  0  0  0  0  0  0  0  0  0  0  0
  146.8754  144.0368  158.5671 N   0  0  0  0  0  0  0  0  0  0  0  0
  145.4810  143.9302  158.6977 C   0  0  0  0  0  0  0  0  0  0  0  0
  144.5786  144.6100  157.9431 C   0  0  0  0  0  0  0  0  0  0  0  0
  143.1456  144.4445  158.1188 C   0  0  0  0  0  0  0  0  0  0  0  0
  142.1475  145.2710  157.3229 C   0  0  0  0  0  0  0  0  0  0  0  0
  142.7658  146.1037  156.4845 F   0  0  0  0  0  0  0  0  0  0  0  0
  141.3377  144.4860  156.6122 F   0  0  0  0  0  0  0  0  0  0  0  0
  141.3981  145.9964  158.1518 F   0  0  0  0  0  0  0  0  0  0  0  0
  142.7538  143.5854  159.0782 C   0  0  0  0  0  0  0  0  0  0  0  0
  143.6751  142.8654  159.8423 N   0  0  0  0  0  0  0  0  0  0  0  0
  145.0169  142.9740  159.7164 C   0  0  0  0  0  0  0  0  0  0  0  0
  145.7636  142.3014  160.4265 O   0  0  0  0  0  0  0  0  0  0  0  0
  149.0388  143.5860  158.4809 N   0  0  0  0  0  0  0  0  0  0  0  0
  150.3016  142.8499  158.4636 C   0  0  0  0  0  0  0  0  0  0  0  0
  151.5270  143.7387  158.3106 C   0  0  0  0  0  0  0  0  0  0  0  0
  152.8630  143.3356  158.8877 C   0  0  0  0  0  0  0  0  0  0  0  0
  152.0968  144.4933  159.4875 C   0  0  0  0  0  0  0  0  0  0  0  0
  150.3330  141.7030  157.4638 C   0  0  0  0  0  0  0  0  0  0  0  0
  151.6331  141.0383  157.0811 C   0  0  0  0  0  0  0  0  0  0  0  0
  150.8921  141.8889  156.0733 C   0  0  0  0  0  0  0  0  0  0  0  0
  143.3017  142.2278  160.5308 H   0  0  0  0  0  0  0  0  0  0  0  0
  147.2074  144.9695  158.3679 H   0  0  0  0  0  0  0  0  0  0  0  0
  144.9015  145.2838  157.1662 H   0  0  0  0  0  0  0  0  0  0  0  0
  141.7232  143.3883  159.3350 H   0  0  0  0  0  0  0  0  0  0  0  0
  149.1099  144.5872  158.3730 H   0  0  0  0  0  0  0  0  0  0  0  0
  150.3640  142.4007  159.4560 H   0  0  0  0  0  0  0  0  0  0  0  0
  151.5734  144.2570  157.3543 H   0  0  0  0  0  0  0  0  0  0  0  0
  152.9129  142.4164  159.4679 H   0  0  0  0  0  0  0  0  0  0  0  0
  153.7515  143.5671  158.3038 H   0  0  0  0  0  0  0  0  0  0  0  0
  152.4737  145.4974  159.3040 H   0  0  0  0  0  0  0  0  0  0  0  0
  151.6345  144.3394  160.4607 H   0  0  0  0  0  0  0  0  0  0  0  0
  149.4688  141.0441  157.5275 H   0  0  0  0  0  0  0  0  0  0  0  0
  152.5523  141.4429  157.5005 H   0  0  0  0  0  0  0  0  0  0  0  0
  151.6205  139.9596  156.9388 H   0  0  0  0  0  0  0  0  0  0  0  0
  150.3863  141.3769  155.2572 H   0  0  0  0  0  0  0  0  0  0  0  0
  151.3249  142.8549  155.8208 H   0  0  0  0  0  0  0  0  0  0  0  0
  1  2  2  0  0  0  0
  2  3  1  0  0  0  0
  2 15  1  0  0  0  0
  3  4  1  0  0  0  0
  3 24  1  0  0  0  0
  4 13  1  0  0  0  0
  4  5  2  0  0  0  0
  5  6  1  0  0  0  0
  5 25  1  0  0  0  0
  6  7  1  0  0  0  0
  6 11  2  0  0  0  0
  7  8  1  0  0  0  0
  7  9  1  0  0  0  0
  7 10  1  0  0  0  0
 11 12  1  0  0  0  0
 11 26  1  0  0  0  0
 12 23  1  0  0  0  0
 12 13  1  0  0  0  0
 13 14  2  0  0  0  0
 15 16  1  0  0  0  0
 15 27  1  0  0  0  0
 16 17  1  0  0  0  0
 16 20  1  0  0  0  0
 16 28  1  0  0  0  0
 17 19  1  0  0  0  0
 17 18  1  0  0  0  0
 17 29  1  0  0  0  0
 18 19  1  0  0  0  0
 18 30  1  0  0  0  0
 18 31  1  0  0  0  0
 19 32  1  0  0  0  0
 19 33  1  0  0  0  0
 20 22  1  0  0  0  0
 20 21  1  0  0  0  0
 20 34  1  0  0  0  0
 21 22  1  0  0  0  0
 21 35  1  0  0  0  0
 21 36  1  0  0  0  0
 22 37  1  0  0  0  0
 22 38  1  0  0  0  0
M  END
> <s_m_source_file>
AV-unprocessed.smi

> <i_m_source_file_index>
1775

> <i_lp_mmshare_version>
43012

> <i_f3d_flags>
0

> <s_epik_input>
W0NIMl0xW0NIMl1bQ0hdMVtDSF0oW0NIXTJbQ0gyXVtDSDJdMilbTkhdQyg9TylbTkhdYzNbY0hdYyhDKEYpKEYpRilbY0hdW25IXWMzPU8=

> <s_epik_cmdline>
J2VwaWtfcHl0aG9uJywgJy1waCcsICc3LjAnLCAnLXRuJywgJzgnLCAnLW1hJywgJzIwMCcsICctbWV0YWxfYmluZGluZycsICctaW1hZScsICc8aW5maWxlLm1hZT4nLCAnLW9tYWUnLCAnPG91dGZpbGUubWFlPic=

> <r_lp_tautomer_probability>
1

> <r_epik_Ionization_Penalty>
0.00370881

> <r_epik_Ionization_Penalty_Charging>
0.00368697

> <r_epik_Ionization_Penalty_Neutral>
2.18468e-05

> <r_epik_State_Penalty>
-0

> <r_epik_Charging_Adjusted_Penalty>
0.00368697

> <i_epik_Tot_Q>
0

> <i_epik_Tot_abs_Q>
0

> <r_epik_Metal_State_Penalty>
0.370005

> <b_epik_Metal_Only>
0

> <s_lp_Force_Field>
OPLS_2005

> <r_lp_Energy>
35.723

> <b_lp_Chiralities_Consistent>
1

> <s_lp_Variant>
AV-unprocessed.smi:1775-1

> <Gold.Version>
5.8.1

> <Gold.Id.Protein>
6NUR|6NUR_protein|mol2

> <Gold.PLP.Fitness>
38.3371

> <Gold.PLP.PLP>
-30.4995

> <Gold.PLP.part.hbond>
-5.2482

> <Gold.PLP.part.metal>
0.0000

> <Gold.PLP.part.buried>
-2.5294

> <Gold.PLP.part.nonpolar>
-22.7563

> <Gold.PLP.part.repulsive>
0.1855

> <Gold.PLP.ligand.clash>
0.0000

> <Gold.PLP.ligand.torsion>
1.4286

> <Gold.PLP.Chemscore.Hbond>
2.8208

> <Gold.PLP.Chemscore.CHOScore>
0.0000

> <Gold.PLP.Chemscore.Metal>
0.0000

> <Gold.Chemscore.Hbonds>
donor molecule, donor type, donor heavy atom, donor atom, acceptor molecule, acceptor atom, score
      L1  H     3    24       P1  8029  0.91
      L1  H    15    27       P1  8029  0.46
      P1  H  6934  6946       L1    14  1.00

> <Gold.PLP.Chemscore.Internal.Correction>
2.2324

> <Gold.Rescore>
     Score         DG    S(hbond)    S(metal)    S(lipo)     H(rot)  DE(clash)    DE(int)     intcor
     12.48     -18.26       2.35        0.00      75.18       1.51       0.26       5.52       ----

> <Gold.Chemscore.Fitness>
12.4797

> <Gold.Chemscore.DG>
-18.2632

> <Gold.Chemscore.ZeroCoef>
-5.4800

> <Gold.Chemscore.Hbond>
2.3479

> <Gold.Chemscore.Metal>
0.0000

> <Gold.Chemscore.Lipo>
75.1750

> <Gold.Chemscore.Internal_Hbond>
0.0000

> <Gold.Chemscore.DEClash>
0.2603

> <Gold.Chemscore.DEInternal>
5.5232

> <Gold.Chemscore.Rot>
1.5056

> <Gold.Chemscore.Internal.Correction>
   9.000000E+99

> <Gold.Chemscore.Hbonds>
donor molecule, donor type, donor heavy atom, donor atom, acceptor molecule, acceptor atom, score
      L1  H     3    24       P1  8029  0.88
      L1  H    15    27       P1  8029  0.21
      P1  H  6934  6946       L1    14  1.00

> <Gold.Chemscore.Hbond.Weighted>
-7.8419

> <Gold.Chemscore.Metal.Weighted>
-0.0000

> <Gold.Chemscore.Lipo.Weighted>
-8.7955

> <Gold.Chemscore.Internal_Hbond.Weighted>
0.0000

> <Gold.Chemscore.DEClash.Weighted>
0.2603

> <Gold.Chemscore.DEInternal.Weighted>
5.5232

> <Gold.Chemscore.Rot.Weighted>
3.8542

> <Gold.Chemscore.Internal.Correction.Weighted>
   9.000000E+99

> <Gold.Protein.RotatedTorsions>
[ 6907 6896 6895 6894 ] final  -90.40 input  -60.11 | X-H torsion
[ 7974 7965 7964 7962 ] final  -25.98 input  175.53 | X-H torsion
[ 8008 7997 7996 7995 ] final   22.98 input   59.86 | X-H torsion
[ 10167 10162 10161 10158 ] final   14.65 input  -65.29 | X-H torsion
[ 10718 10713 10712 10709 ] final -141.34 input   66.30 | X-H torsion
[ 10763 10752 10751 10750 ] final   67.81 input  -60.55 | X-H torsion
[ 11005 11000 10999 10996 ] final   61.29 input  -57.11 | X-H torsion

> <Gold.Protein.ActiveResidues>
 VAL166  LYS551  ARG553  GLY616  TRP617  ASP618  TYR619  PRO620  LYS621  CYS622 
 ASP623  PHE694  ASN695  SER759  ASP760  ASP761  ALA762  ILE779  LEU786  VAL792 
 PHE793  MET794  SER795  GLU796  ALA797  LYS798  CYS799  TRP800  GLU811  SER814 

> <Gold.Protein.RotatedAtoms>
  150.6881  134.2438  159.4482 H   0  0  0  0  0  0  0  0  0  0  0  0  # atno 6907 bound_to 6896
  152.0380  134.9726  160.0583 H   0  0  0  0  0  0  0  0  0  0  0  0  # atno 6908 bound_to 6896
  152.1239  133.4334  159.4725 H   0  0  0  0  0  0  0  0  0  0  0  0  # atno 6909 bound_to 6896
  146.1455  140.4959  142.8633 H   0  0  0  0  0  0  0  0  0  0  0  0  # atno 7974 bound_to 7965
  154.9739  140.3093  155.4976 H   0  0  0  0  0  0  0  0  0  0  0  0  # atno 8008 bound_to 7997
  156.2962  140.2279  156.4773 H   0  0  0  0  0  0  0  0  0  0  0  0  # atno 8009 bound_to 7997
  154.7851  140.0443  157.1146 H   0  0  0  0  0  0  0  0  0  0  0  0  # atno 8010 bound_to 7997
  140.5921  143.8774  150.6883 H   0  0  0  0  0  0  0  0  0  0  0  0  # atno 10167 bound_to 10162
  156.3328  130.7595  151.1717 H   0  0  0  0  0  0  0  0  0  0  0  0  # atno 10718 bound_to 10713
  153.0204  135.5270  154.7037 H   0  0  0  0  0  0  0  0  0  0  0  0  # atno 10763 bound_to 10752
  154.6139  135.2881  155.0404 H   0  0  0  0  0  0  0  0  0  0  0  0  # atno 10764 bound_to 10752
  154.1415  135.6577  153.4996 H   0  0  0  0  0  0  0  0  0  0  0  0  # atno 10765 bound_to 10752
  140.0172  134.6208  155.9693 H   0  0  0  0  0  0  0  0  0  0  0  0  # atno 11005 bound_to 11000
  144.7842  140.5902  143.6585 LP  0  0  0  0  0  0  0  0  0  0  0  0  # atno 17320 bound_to 7965
  145.4947  139.1486  143.3690 LP  0  0  0  0  0  0  0  0  0  0  0  0  # atno 17321 bound_to 7965
  140.2300  143.3743  152.1574 LP  0  0  0  0  0  0  0  0  0  0  0  0  # atno 17342 bound_to 10162
  139.5234  144.7071  151.5320 LP  0  0  0  0  0  0  0  0  0  0  0  0  # atno 17343 bound_to 10162
  157.7433  131.0476  150.4954 LP  0  0  0  0  0  0  0  0  0  0  0  0  # atno 17370 bound_to 10713
  156.5122  130.4142  149.6295 LP  0  0  0  0  0  0  0  0  0  0  0  0  # atno 17371 bound_to 10713
  141.1750  133.6539  156.4795 LP  0  0  0  0  0  0  0  0  0  0  0  0  # atno 17394 bound_to 11000
  140.4451  134.6980  157.5011 LP  0  0  0  0  0  0  0  0  0  0  0  0  # atno 17395 bound_to 11000

$$$$
