AV-unprocessed.smi:2063|AV-procd|sdf|8415|dock1
  -GOLD-   2272011103D 1   1.00000     0.00000
 Structure written by MMmdl.
 38 39  0  0  0  0  0  0  0  0  2 V2000
  147.2626  141.7016  154.7055 C   0  0  0  0  0  0  0  0  0  0  0  0
  148.1479  140.7766  153.8579 C   0  0  0  0  0  0  0  0  0  0  0  0
  147.4264  139.4979  153.4073 C   0  0  0  0  0  0  0  0  0  0  0  0
  149.4557  140.4811  154.5238 C   0  0  0  0  0  0  0  0  0  0  0  0
  150.4130  139.7391  153.9583 N   0  0  0  0  0  0  0  0  0  0  0  0
  151.5295  139.6143  154.7718 N   0  0  0  0  0  0  0  0  0  0  0  0
  151.4001  140.2528  155.9431 C   0  0  0  0  0  0  0  0  0  0  0  0
  152.3700  140.2607  156.8723 N   0  5  0  0  0  0  0  0  0  0  0  0
  152.0522  140.3838  158.1811 C   0  0  0  0  0  0  0  0  0  0  0  0
  151.2406  139.6946  158.8028 O   0  0  0  0  0  0  0  0  0  0  0  0
  152.7142  141.3698  158.8031 N   0  0  0  0  0  0  0  0  0  0  0  0
  152.5705  141.7670  160.2030 C   0  0  1  0  0  0  0  0  0  0  0  0
  153.9012  141.5509  160.9401 C   0  0  0  0  0  0  0  0  0  0  0  0
  152.0990  143.2315  160.2786 C   0  0  1  0  0  0  0  0  0  0  0  0
  152.5815  144.1168  159.1255 C   0  0  0  0  0  0  0  0  0  0  0  0
  151.5030  145.1832  159.0026 C   0  0  0  0  0  0  0  0  0  0  0  0
  150.3736  144.6804  159.9044 C   0  0  0  0  0  0  0  0  0  0  0  0
  150.6877  143.3185  160.1535 O   0  0  0  0  0  0  0  0  0  0  0  0
  149.8591  141.0905  156.1208 S   0  0  0  0  0  0  0  0  0  0  0  0
  147.7760  142.6368  154.9312 H   0  0  0  0  0  0  0  0  0  0  0  0
  146.9919  141.2329  155.6522 H   0  0  0  0  0  0  0  0  0  0  0  0
  146.3393  141.9496  154.1816 H   0  0  0  0  0  0  0  0  0  0  0  0
  148.3855  141.3299  152.9484 H   0  0  0  0  0  0  0  0  0  0  0  0
  148.0580  138.9049  152.7451 H   0  0  0  0  0  0  0  0  0  0  0  0
  146.5096  139.7338  152.8663 H   0  0  0  0  0  0  0  0  0  0  0  0
  147.1574  138.8732  154.2598 H   0  0  0  0  0  0  0  0  0  0  0  0
  153.3701  141.9002  158.2490 H   0  0  0  0  0  0  0  0  0  0  0  0
  151.8094  141.1488  160.6822 H   0  0  0  0  0  0  0  0  0  0  0  0
  153.8163  141.8218  161.9927 H   0  0  0  0  0  0  0  0  0  0  0  0
  154.6990  142.1531  160.5042 H   0  0  0  0  0  0  0  0  0  0  0  0
  154.2098  140.5061  160.8949 H   0  0  0  0  0  0  0  0  0  0  0  0
  152.3946  143.6772  161.2307 H   0  0  0  0  0  0  0  0  0  0  0  0
  153.5716  144.5351  159.3088 H   0  0  0  0  0  0  0  0  0  0  0  0
  152.6294  143.5407  158.2003 H   0  0  0  0  0  0  0  0  0  0  0  0
  151.8580  146.1612  159.3287 H   0  0  0  0  0  0  0  0  0  0  0  0
  151.1732  145.2736  157.9670 H   0  0  0  0  0  0  0  0  0  0  0  0
  150.3666  145.2246  160.8499 H   0  0  0  0  0  0  0  0  0  0  0  0
  149.3906  144.7833  159.4446 H   0  0  0  0  0  0  0  0  0  0  0  0
  1  2  1  0  0  0  0
  1 20  1  0  0  0  0
  1 21  1  0  0  0  0
  1 22  1  0  0  0  0
  2  3  1  0  0  0  0
  2  4  1  0  0  0  0
  2 23  1  0  0  0  0
  3 24  1  0  0  0  0
  3 25  1  0  0  0  0
  3 26  1  0  0  0  0
  4 19  1  0  0  0  0
  4  5  2  0  0  0  0
  5  6  1  0  0  0  0
  6  7  2  0  0  0  0
  7  8  1  0  0  0  0
  7 19  1  0  0  0  0
  8  9  1  0  0  0  0
  9 10  2  0  0  0  0
  9 11  1  0  0  0  0
 11 12  1  0  0  0  0
 11 27  1  0  0  0  0
 12 13  1  0  0  0  0
 12 14  1  0  0  0  0
 12 28  1  0  0  0  0
 13 29  1  0  0  0  0
 13 30  1  0  0  0  0
 13 31  1  0  0  0  0
 14 18  1  0  0  0  0
 14 15  1  0  0  0  0
 14 32  1  0  0  0  0
 15 16  1  0  0  0  0
 15 33  1  0  0  0  0
 15 34  1  0  0  0  0
 16 17  1  0  0  0  0
 16 35  1  0  0  0  0
 16 36  1  0  0  0  0
 17 18  1  0  0  0  0
 17 37  1  0  0  0  0
 17 38  1  0  0  0  0
M  CHG  1   8  -1
M  END
> <s_m_source_file>
AV-unprocessed.smi

> <i_m_source_file_index>
2063

> <i_lp_mmshare_version>
43012

> <i_f3d_flags>
0

> <s_epik_input>
W0NIM11bQ0hdKFtDSDNdKWMxbm5jKHMxKVtOSF1DKD1PKVtOSF1bQ0BIXShbQ0gzXSlbQ0BASF0yW0NIMl1bQ0gyXVtDSDJdTzI=

> <s_epik_cmdline>
J2VwaWtfcHl0aG9uJywgJy1waCcsICc3LjAnLCAnLXRuJywgJzgnLCAnLW1hJywgJzIwMCcsICctbWV0YWxfYmluZGluZycsICctaW1hZScsICc8aW5maWxlLm1hZT4nLCAnLW9tYWUnLCAnPG91dGZpbGUubWFlPic=

> <r_lp_tautomer_probability>
1

> <r_epik_Ionization_Penalty>
4.37022

> <r_epik_Ionization_Penalty_Charging>
4.21437

> <r_epik_Ionization_Penalty_Neutral>
0.15585

> <r_epik_State_Penalty>
4.21389

> <r_epik_Charging_Adjusted_Penalty>
8.42826

> <i_epik_Tot_Q>
-1

> <i_epik_Tot_abs_Q>
1

> <r_epik_Metal_State_Penalty>
0.693772

> <b_epik_Metal_Only>
1

> <s_lp_Force_Field>
OPLS_2005

> <r_lp_Energy>
9.58688

> <b_lp_Chiralities_Consistent>
1

> <s_lp_Variant>
AV-unprocessed.smi:2063-8

> <Gold.Version>
5.8.1

> <Gold.Id.Protein>
6NUR|6NUR_protein|mol2

> <Gold.PLP.Fitness>
48.2420

> <Gold.PLP.PLP>
-44.7173

> <Gold.PLP.part.hbond>
-3.7044

> <Gold.PLP.part.metal>
0.0000

> <Gold.PLP.part.buried>
-3.9332

> <Gold.PLP.part.nonpolar>
-37.0607

> <Gold.PLP.part.repulsive>
0.9196

> <Gold.PLP.ligand.clash>
0.0000

> <Gold.PLP.ligand.torsion>
1.3466

> <Gold.PLP.Chemscore.Hbond>
2.0000

> <Gold.PLP.Chemscore.CHOScore>
0.0000

> <Gold.PLP.Chemscore.Metal>
0.0000

> <Gold.Chemscore.Hbonds>
donor molecule, donor type, donor heavy atom, donor atom, acceptor molecule, acceptor atom, score
      P1  H  7997  8008       L1     8  2.00

> <Gold.PLP.Chemscore.Internal.Correction>
0.2178

> <Gold.Rescore>
     Score         DG    S(hbond)    S(metal)    S(lipo)     H(rot)  DE(clash)    DE(int)     intcor
     15.44     -16.43       0.87        0.00      99.11       1.39       0.09       0.89       ----

> <Gold.Chemscore.Fitness>
15.4408

> <Gold.Chemscore.DG>
-16.4268

> <Gold.Chemscore.ZeroCoef>
-5.4800

> <Gold.Chemscore.Hbond>
0.8705

> <Gold.Chemscore.Metal>
0.0000

> <Gold.Chemscore.Lipo>
99.1117

> <Gold.Chemscore.Internal_Hbond>
0.0000

> <Gold.Chemscore.DEClash>
0.0916

> <Gold.Chemscore.DEInternal>
0.8944

> <Gold.Chemscore.Rot>
1.3893

> <Gold.Chemscore.Internal.Correction>
   9.000000E+99

> <Gold.Chemscore.Hbonds>
donor molecule, donor type, donor heavy atom, donor atom, acceptor molecule, acceptor atom, score
      P1  H  7997  8008       L1     8  0.74

> <Gold.Chemscore.Hbond.Weighted>
-2.9074

> <Gold.Chemscore.Metal.Weighted>
-0.0000

> <Gold.Chemscore.Lipo.Weighted>
-11.5961

> <Gold.Chemscore.Internal_Hbond.Weighted>
0.0000

> <Gold.Chemscore.DEClash.Weighted>
0.0916

> <Gold.Chemscore.DEInternal.Weighted>
0.8944

> <Gold.Chemscore.Rot.Weighted>
3.5567

> <Gold.Chemscore.Internal.Correction.Weighted>
   9.000000E+99

> <Gold.Protein.RotatedTorsions>
[ 6907 6896 6895 6894 ] final -123.37 input  -60.11 | X-H torsion
[ 7974 7965 7964 7962 ] final   83.93 input  175.53 | X-H torsion
[ 8008 7997 7996 7995 ] final  -58.54 input   59.86 | X-H torsion
[ 10167 10162 10161 10158 ] final   17.86 input  -65.29 | X-H torsion
[ 10718 10713 10712 10709 ] final  -38.76 input   66.30 | X-H torsion
[ 10763 10752 10751 10750 ] final   58.45 input  -60.55 | X-H torsion
[ 11005 11000 10999 10996 ] final   25.62 input  -57.11 | X-H torsion

> <Gold.Protein.ActiveResidues>
 VAL166  LYS551  ARG553  GLY616  TRP617  ASP618  TYR619  PRO620  LYS621  CYS622 
 ASP623  PHE694  ASN695  SER759  ASP760  ASP761  ALA762  ILE779  LEU786  VAL792 
 PHE793  MET794  SER795  GLU796  ALA797  LYS798  CYS799  TRP800  GLU811  SER814 

> <Gold.Protein.RotatedAtoms>
  150.8664  133.7568  159.2975 H   0  0  0  0  0  0  0  0  0  0  0  0  # atno 6907 bound_to 6896
  151.5194  135.1065  159.9884 H   0  0  0  0  0  0  0  0  0  0  0  0  # atno 6908 bound_to 6896
  152.4664  133.7887  159.6946 H   0  0  0  0  0  0  0  0  0  0  0  0  # atno 6909 bound_to 6896
  145.6054  139.2359  143.2222 H   0  0  0  0  0  0  0  0  0  0  0  0  # atno 7974 bound_to 7965
  154.4313  140.1082  156.5973 H   0  0  0  0  0  0  0  0  0  0  0  0  # atno 8008 bound_to 7997
  155.5949  140.3492  155.4558 H   0  0  0  0  0  0  0  0  0  0  0  0  # atno 8009 bound_to 7997
  156.0218  140.1241  157.0339 H   0  0  0  0  0  0  0  0  0  0  0  0  # atno 8010 bound_to 7997
  140.5695  143.9188  150.6702 H   0  0  0  0  0  0  0  0  0  0  0  0  # atno 10167 bound_to 10162
  156.3001  130.4239  149.8152 H   0  0  0  0  0  0  0  0  0  0  0  0  # atno 10718 bound_to 10713
  152.9871  135.5606  154.5554 H   0  0  0  0  0  0  0  0  0  0  0  0  # atno 10763 bound_to 10752
  154.4983  135.2796  155.1443 H   0  0  0  0  0  0  0  0  0  0  0  0  # atno 10764 bound_to 10752
  154.2884  135.6331  153.5428 H   0  0  0  0  0  0  0  0  0  0  0  0  # atno 10765 bound_to 10752
  140.3458  134.2282  155.7685 H   0  0  0  0  0  0  0  0  0  0  0  0  # atno 11005 bound_to 11000
  146.1545  140.6878  142.9306 LP  0  0  0  0  0  0  0  0  0  0  0  0  # atno 17320 bound_to 7965
  144.7292  140.4620  143.6950 LP  0  0  0  0  0  0  0  0  0  0  0  0  # atno 17321 bound_to 7965
  140.2659  143.3490  152.1281 LP  0  0  0  0  0  0  0  0  0  0  0  0  # atno 17342 bound_to 10162
  139.5110  144.6894  151.5802 LP  0  0  0  0  0  0  0  0  0  0  0  0  # atno 17343 bound_to 10162
  156.5533  130.8351  151.3306 LP  0  0  0  0  0  0  0  0  0  0  0  0  # atno 17370 bound_to 10713
  157.7365  130.9781  150.2143 LP  0  0  0  0  0  0  0  0  0  0  0  0  # atno 17371 bound_to 10713
  141.2026  133.7934  157.0383 LP  0  0  0  0  0  0  0  0  0  0  0  0  # atno 17394 bound_to 11000
  140.0743  134.9684  157.1519 LP  0  0  0  0  0  0  0  0  0  0  0  0  # atno 17395 bound_to 11000

$$$$
