AV-unprocessed.smi:1033|AV-procd|sdf|4511|dock6
  -GOLD-   22720 2523D 1   1.00000     0.00000
 Structure written by MMmdl.
 57 59  0  0  0  0  0  0  0  0  3 V2000
  151.2542  143.0883  157.8000 C   0  0  0  0  0  0  0  0  0  0  0  0
  150.3291  142.1514  157.0428 C   0  0  0  0  0  0  0  0  0  0  0  0
  150.8658  141.3287  156.0270 C   0  0  0  0  0  0  0  0  0  0  0  0
  150.0405  140.4432  155.3004 C   0  0  0  0  0  0  0  0  0  0  0  0
  150.3474  139.5632  154.2769 N   0  0  0  0  0  0  0  0  0  0  0  0
  149.1585  139.0285  154.0162 C   0  0  0  0  0  0  0  0  0  0  0  0
  148.1129  139.4670  154.7431 N   0  0  0  0  0  0  0  0  0  0  0  0
  146.7302  139.0427  154.6234 C   0  0  0  0  0  0  0  0  0  0  0  0
  146.2347  139.0537  153.1637 C   0  0  1  0  0  0  0  0  0  0  0  0
  146.8110  140.1725  152.5209 O   0  0  0  0  0  0  0  0  0  0  0  0
  146.6076  137.7787  152.3743 C   0  0  0  0  0  0  0  0  0  0  0  0
  145.4270  137.1189  151.7592 N   0  3  2  0  0  0  0  0  0  0  0  0
  144.3752  136.7483  152.7419 C   0  0  0  0  0  0  0  0  0  0  0  0
  143.1493  136.1206  152.0461 C   0  0  0  0  0  0  0  0  0  0  0  0
  143.5193  134.9748  151.1737 N   0  3  2  0  0  0  0  0  0  0  0  0
  143.8073  133.7068  151.8978 C   0  0  0  0  0  0  0  0  0  0  0  0
  143.6892  132.4704  150.9854 C   0  0  2  0  0  0  0  0  0  0  0  0
  144.8745  132.3500  150.0190 C   0  0  0  0  0  0  0  0  0  0  0  0
  142.5047  132.5716  150.2215 O   0  0  0  0  0  0  0  0  0  0  0  0
  144.5778  135.3608  150.2075 C   0  0  0  0  0  0  0  0  0  0  0  0
  145.8078  135.9587  150.9159 C   0  0  0  0  0  0  0  0  0  0  0  0
  148.6514  140.4044  155.6189 C   0  0  0  0  0  0  0  0  0  0  0  0
  148.1052  141.2177  156.6279 C   0  0  0  0  0  0  0  0  0  0  0  0
  148.9447  142.0956  157.3453 C   0  0  0  0  0  0  0  0  0  0  0  0
  148.3472  142.9667  158.4362 C   0  0  0  0  0  0  0  0  0  0  0  0
  152.2844  142.9959  157.4547 H   0  0  0  0  0  0  0  0  0  0  0  0
  151.2377  142.8631  158.8665 H   0  0  0  0  0  0  0  0  0  0  0  0
  150.9467  144.1248  157.6598 H   0  0  0  0  0  0  0  0  0  0  0  0
  151.9207  141.3708  155.7970 H   0  0  0  0  0  0  0  0  0  0  0  0
  149.0381  138.2798  153.2466 H   0  0  0  0  0  0  0  0  0  0  0  0
  146.6451  138.0397  155.0446 H   0  0  0  0  0  0  0  0  0  0  0  0
  146.1119  139.6929  155.2439 H   0  0  0  0  0  0  0  0  0  0  0  0
  145.1540  139.1922  153.1711 H   0  0  0  0  0  0  0  0  0  0  0  0
  146.6330  140.9449  153.0366 H   0  0  0  0  0  0  0  0  0  0  0  0
  147.3232  138.0539  151.5978 H   0  0  0  0  0  0  0  0  0  0  0  0
  147.1164  137.0547  153.0115 H   0  0  0  0  0  0  0  0  0  0  0  0
  144.7899  136.0593  153.4788 H   0  0  0  0  0  0  0  0  0  0  0  0
  144.0491  137.6283  153.2948 H   0  0  0  0  0  0  0  0  0  0  0  0
  142.4048  135.8260  152.7847 H   0  0  0  0  0  0  0  0  0  0  0  0
  142.6685  136.8757  151.4225 H   0  0  0  0  0  0  0  0  0  0  0  0
  144.8196  133.7369  152.3045 H   0  0  0  0  0  0  0  0  0  0  0  0
  143.1439  133.6085  152.7571 H   0  0  0  0  0  0  0  0  0  0  0  0
  143.6356  131.5578  151.5780 H   0  0  0  0  0  0  0  0  0  0  0  0
  145.8137  132.2457  150.5632 H   0  0  0  0  0  0  0  0  0  0  0  0
  144.9585  133.2279  149.3774 H   0  0  0  0  0  0  0  0  0  0  0  0
  144.7704  131.4759  149.3751 H   0  0  0  0  0  0  0  0  0  0  0  0
  142.1461  131.7055  150.0978 H   0  0  0  0  0  0  0  0  0  0  0  0
  144.8636  134.5070  149.5922 H   0  0  0  0  0  0  0  0  0  0  0  0
  144.1614  136.0998  149.5216 H   0  0  0  0  0  0  0  0  0  0  0  0
  146.5329  136.2741  150.1647 H   0  0  0  0  0  0  0  0  0  0  0  0
  146.2995  135.2035  151.5311 H   0  0  0  0  0  0  0  0  0  0  0  0
  147.0498  141.1660  156.8501 H   0  0  0  0  0  0  0  0  0  0  0  0
  147.2696  142.8214  158.5169 H   0  0  0  0  0  0  0  0  0  0  0  0
  148.5277  144.0212  158.2270 H   0  0  0  0  0  0  0  0  0  0  0  0
  148.7904  142.7242  159.4024 H   0  0  0  0  0  0  0  0  0  0  0  0
  142.7036  134.7656  150.6140 H   0  0  0  0  0  0  0  0  0  0  0  0
  145.0212  137.8013  151.1337 H   0  0  0  0  0  0  0  0  0  0  0  0
  1  2  1  0  0  0  0
  1 26  1  0  0  0  0
  1 27  1  0  0  0  0
  1 28  1  0  0  0  0
  2 24  1  0  0  0  0
  2  3  2  0  0  0  0
  3  4  1  0  0  0  0
  3 29  1  0  0  0  0
  4 22  2  0  0  0  0
  4  5  1  0  0  0  0
  5  6  2  0  0  0  0
  6  7  1  0  0  0  0
  6 30  1  0  0  0  0
  7  8  1  0  0  0  0
  7 22  1  0  0  0  0
  8  9  1  0  0  0  0
  8 31  1  0  0  0  0
  8 32  1  0  0  0  0
  9 10  1  0  0  0  0
  9 11  1  0  0  0  0
  9 33  1  0  0  0  0
 10 34  1  0  0  0  0
 11 12  1  0  0  0  0
 11 35  1  0  0  0  0
 11 36  1  0  0  0  0
 12 21  1  0  0  0  0
 12 13  1  0  0  0  0
 12 57  1  0  0  0  0
 13 14  1  0  0  0  0
 13 37  1  0  0  0  0
 13 38  1  0  0  0  0
 14 15  1  0  0  0  0
 14 39  1  0  0  0  0
 14 40  1  0  0  0  0
 15 16  1  0  0  0  0
 15 20  1  0  0  0  0
 15 56  1  0  0  0  0
 16 17  1  0  0  0  0
 16 41  1  0  0  0  0
 16 42  1  0  0  0  0
 17 18  1  0  0  0  0
 17 19  1  0  0  0  0
 17 43  1  0  0  0  0
 18 44  1  0  0  0  0
 18 45  1  0  0  0  0
 18 46  1  0  0  0  0
 19 47  1  0  0  0  0
 20 21  1  0  0  0  0
 20 48  1  0  0  0  0
 20 49  1  0  0  0  0
 21 50  1  0  0  0  0
 21 51  1  0  0  0  0
 22 23  1  0  0  0  0
 23 24  2  0  0  0  0
 23 52  1  0  0  0  0
 24 25  1  0  0  0  0
 25 53  1  0  0  0  0
 25 54  1  0  0  0  0
 25 55  1  0  0  0  0
M  CHG  1  12   1
M  CHG  1  15   1
M  END
> <s_m_source_file>
AV-unprocessed.smi

> <i_m_source_file_index>
1033

> <i_lp_mmshare_version>
43012

> <i_f3d_flags>
0

> <s_epik_input>
W0NIM11jKFtjSF0xKWMoW0NIM10pW2NIXWMoYzEyKW4oW2NIXW4yKVtDSDJdW0NASF0oW09IXSlbQ0gyXU4zW0NIMl1bQ0gyXU4oW0NIMl1bQ0gyXTMpW0NIMl1bQ0BIXShbQ0gzXSlbT0hd

> <s_epik_cmdline>
J2VwaWtfcHl0aG9uJywgJy1waCcsICc3LjAnLCAnLXRuJywgJzgnLCAnLW1hJywgJzIwMCcsICctbWV0YWxfYmluZGluZycsICctaW1hZScsICc8aW5maWxlLm1hZT4nLCAnLW9tYWUnLCAnPG91dGZpbGUubWFlPic=

> <r_epik_Ionization_Penalty>
3.16016

> <r_epik_Ionization_Penalty_Charging>
3.07679

> <r_epik_Ionization_Penalty_Neutral>
0.083365

> <r_epik_State_Penalty>
2.09701

> <r_epik_Charging_Adjusted_Penalty>
5.1738

> <i_epik_Tot_Q>
2

> <i_epik_Tot_abs_Q>
2

> <r_epik_Metal_State_Penalty>
2.02534

> <b_epik_Metal_Only>
0

> <s_lp_Force_Field>
OPLS_2005

> <r_lp_Energy>
29.7714

> <b_lp_Chiralities_Consistent>
1

> <s_lp_Variant>
AV-unprocessed.smi:1033-22

> <Gold.Version>
5.8.1

> <Gold.Id.Protein>
6NUR|6NUR_protein|mol2

> <Gold.PLP.Fitness>
54.3559

> <Gold.PLP.PLP>
-39.9364

> <Gold.PLP.part.hbond>
-6.2446

> <Gold.PLP.part.metal>
0.0000

> <Gold.PLP.part.buried>
-0.8605

> <Gold.PLP.part.nonpolar>
-33.3750

> <Gold.PLP.part.repulsive>
0.2095

> <Gold.PLP.ligand.clash>
0.0000

> <Gold.PLP.ligand.torsion>
1.3277

> <Gold.PLP.Chemscore.Hbond>
4.4343

> <Gold.PLP.Chemscore.CHOScore>
1.2024

> <Gold.PLP.Chemscore.Metal>
0.0000

> <Gold.Chemscore.Hbonds>
donor molecule, donor type, donor heavy atom, donor atom, acceptor molecule, acceptor atom, score
      L1  H    12    57       P1 10171  1.00
      L1  H    15    56       P1 10186  1.60
      L1  H    19    47       P1 10952  1.00
      P1  H  7989  7998       L1     5  0.55
      L1  C     6    30       P1  7948  1.00
      L1  C     6    30       P1  7957  0.12

> <Gold.PLP.Chemscore.Internal.Correction>
0.1651

> <Gold.Rescore>
     Score         DG    S(hbond)    S(metal)    S(lipo)     H(rot)  DE(clash)    DE(int)     intcor
     13.15     -16.88       2.13        0.00     105.45       3.14       2.47       1.26       ----

> <Gold.Chemscore.Fitness>
13.1511

> <Gold.Chemscore.DG>
-16.8828

> <Gold.Chemscore.ZeroCoef>
-5.4800

> <Gold.Chemscore.Hbond>
2.1253

> <Gold.Chemscore.Metal>
0.0000

> <Gold.Chemscore.Lipo>
105.4475

> <Gold.Chemscore.Internal_Hbond>
0.0000

> <Gold.Chemscore.DEClash>
2.4675

> <Gold.Chemscore.DEInternal>
1.2641

> <Gold.Chemscore.Rot>
3.1380

> <Gold.Chemscore.Internal.Correction>
   9.000000E+99

> <Gold.Chemscore.Hbonds>
donor molecule, donor type, donor heavy atom, donor atom, acceptor molecule, acceptor atom, score
      L1  H    12    57       P1 10171  0.99
      L1  H    15    56       P1 10186  0.11
      L1  H    19    47       P1 10952  0.83
      P1  H  7989  7998       L1     5  0.03

> <Gold.Chemscore.Hbond.Weighted>
-7.0986

> <Gold.Chemscore.Metal.Weighted>
-0.0000

> <Gold.Chemscore.Lipo.Weighted>
-12.3374

> <Gold.Chemscore.Internal_Hbond.Weighted>
0.0000

> <Gold.Chemscore.DEClash.Weighted>
2.4675

> <Gold.Chemscore.DEInternal.Weighted>
1.2641

> <Gold.Chemscore.Rot.Weighted>
8.0332

> <Gold.Chemscore.Internal.Correction.Weighted>
   9.000000E+99

> <Gold.Protein.RotatedTorsions>
[ 6907 6896 6895 6894 ] final   68.09 input  -60.11 | X-H torsion
[ 7974 7965 7964 7962 ] final   15.26 input  175.53 | X-H torsion
[ 8008 7997 7996 7995 ] final   20.32 input   59.86 | X-H torsion
[ 10167 10162 10161 10158 ] final  -18.03 input  -65.29 | X-H torsion
[ 10718 10713 10712 10709 ] final   30.60 input   66.30 | X-H torsion
[ 10763 10752 10751 10750 ] final   54.77 input  -60.55 | X-H torsion
[ 11005 11000 10999 10996 ] final  122.87 input  -57.11 | X-H torsion

> <Gold.Protein.ActiveResidues>
 VAL166  LYS551  ARG553  GLY616  TRP617  ASP618  TYR619  PRO620  LYS621  CYS622 
 ASP623  PHE694  ASN695  SER759  ASP760  ASP761  ALA762  ILE779  LEU786  VAL792 
 PHE793  MET794  SER795  GLU796  ALA797  LYS798  CYS799  TRP800  GLU811  SER814 

> <Gold.Protein.RotatedAtoms>
  152.4597  134.5212  159.9782 H   0  0  0  0  0  0  0  0  0  0  0  0  # atno 6907 bound_to 6896
  151.5265  133.3451  159.2918 H   0  0  0  0  0  0  0  0  0  0  0  0  # atno 6908 bound_to 6896
  150.8555  134.7922  159.7104 H   0  0  0  0  0  0  0  0  0  0  0  0  # atno 6909 bound_to 6896
  146.2283  139.8920  142.8553 H   0  0  0  0  0  0  0  0  0  0  0  0  # atno 7974 bound_to 7965
  154.9339  140.3044  155.5154 H   0  0  0  0  0  0  0  0  0  0  0  0  # atno 8008 bound_to 7997
  156.3001  140.2349  156.4339 H   0  0  0  0  0  0  0  0  0  0  0  0  # atno 8009 bound_to 7997
  154.8210  140.0423  157.1399 H   0  0  0  0  0  0  0  0  0  0  0  0  # atno 8010 bound_to 7997
  140.7254  143.4957  150.9934 H   0  0  0  0  0  0  0  0  0  0  0  0  # atno 10167 bound_to 10162
  157.2617  130.7165  149.6457 H   0  0  0  0  0  0  0  0  0  0  0  0  # atno 10718 bound_to 10713
  152.9808  135.5733  154.4959 H   0  0  0  0  0  0  0  0  0  0  0  0  # atno 10763 bound_to 10752
  154.4486  135.2778  155.1799 H   0  0  0  0  0  0  0  0  0  0  0  0  # atno 10764 bound_to 10752
  154.3437  135.6224  153.5662 H   0  0  0  0  0  0  0  0  0  0  0  0  # atno 10765 bound_to 10752
  139.9287  134.9641  156.8174 H   0  0  0  0  0  0  0  0  0  0  0  0  # atno 11005 bound_to 11000
  145.2408  141.0008  143.3937 LP  0  0  0  0  0  0  0  0  0  0  0  0  # atno 17320 bound_to 7965
  144.9453  139.4143  143.6429 LP  0  0  0  0  0  0  0  0  0  0  0  0  # atno 17321 bound_to 7965
  139.8664  143.7249  152.3170 LP  0  0  0  0  0  0  0  0  0  0  0  0  # atno 17342 bound_to 10162
  139.7482  144.7541  151.0547 LP  0  0  0  0  0  0  0  0  0  0  0  0  # atno 17343 bound_to 10162
  155.9664  130.4395  150.5262 LP  0  0  0  0  0  0  0  0  0  0  0  0  # atno 17370 bound_to 10713
  157.3168  131.0674  151.1961 LP  0  0  0  0  0  0  0  0  0  0  0  0  # atno 17371 bound_to 10713
  140.6262  133.9948  155.7641 LP  0  0  0  0  0  0  0  0  0  0  0  0  # atno 17394 bound_to 11000
  141.0862  133.9987  157.3309 LP  0  0  0  0  0  0  0  0  0  0  0  0  # atno 17395 bound_to 11000

$$$$
