AV-unprocessed.smi:1967|AV-procd|sdf|7955|dock6
  -GOLD-   2272010123D 1   1.00000     0.00000
 Structure written by MMmdl.
 36 37  0  0  0  0  0  0  0  0  2 V2000
  153.7996  136.5153  156.9419 O   0  0  0  0  0  0  0  0  0  0  0  0
  152.7462  137.3906  157.4819 S   0  0  0  0  0  0  0  0  0  0  0  0
  151.7760  136.7992  158.4178 O   0  0  0  0  0  0  0  0  0  0  0  0
  153.2982  138.8384  157.9591 N   0  5  0  0  0  0  0  0  0  0  0  0
  152.3604  139.7976  158.5155 C   0  0  0  0  0  0  0  0  0  0  0  0
  152.2809  141.0425  157.6060 C   0  0  0  0  0  0  0  0  0  0  0  0
  152.0533  142.3505  158.3573 C   0  0  0  0  0  0  0  0  0  0  0  0
  152.7498  142.6203  159.5576 C   0  0  0  0  0  0  0  0  0  0  0  0
  152.5136  143.8427  160.2152 C   0  0  0  0  0  0  0  0  0  0  0  0
  151.5987  144.7516  159.6504 C   0  0  0  0  0  0  0  0  0  0  0  0
  150.9588  144.3962  158.4466 C   0  0  0  0  0  0  0  0  0  0  0  0
  151.1779  143.2273  157.8074 N   0  0  0  0  0  0  0  0  0  0  0  0
  151.8297  137.9546  156.1172 N   0  0  0  0  0  0  0  0  0  0  0  0
  152.3700  139.0815  155.3281 C   0  0  0  0  0  0  0  0  0  0  0  0
  151.2681  139.7683  154.5049 C   0  0  0  0  0  0  0  0  0  0  0  0
  150.5223  138.7604  153.6248 C   0  0  0  0  0  0  0  0  0  0  0  0
  149.9577  137.6407  154.5043 C   0  0  0  0  0  0  0  0  0  0  0  0
  151.0666  136.9651  155.3279 C   0  0  0  0  0  0  0  0  0  0  0  0
  151.3642  139.3669  158.6210 H   0  0  0  0  0  0  0  0  0  0  0  0
  152.6590  140.1108  159.5166 H   0  0  0  0  0  0  0  0  0  0  0  0
  153.2002  141.1346  157.0256 H   0  0  0  0  0  0  0  0  0  0  0  0
  151.4778  140.9163  156.8778 H   0  0  0  0  0  0  0  0  0  0  0  0
  153.4450  141.9023  159.9677 H   0  0  0  0  0  0  0  0  0  0  0  0
  153.0253  144.0787  161.1365 H   0  0  0  0  0  0  0  0  0  0  0  0
  151.3926  145.6984  160.1272 H   0  0  0  0  0  0  0  0  0  0  0  0
  150.2529  145.0697  157.9837 H   0  0  0  0  0  0  0  0  0  0  0  0
  152.8333  139.8110  155.9920 H   0  0  0  0  0  0  0  0  0  0  0  0
  153.1570  138.7082  154.6715 H   0  0  0  0  0  0  0  0  0  0  0  0
  150.5638  140.2594  155.1775 H   0  0  0  0  0  0  0  0  0  0  0  0
  151.7031  140.5535  153.8862 H   0  0  0  0  0  0  0  0  0  0  0  0
  149.7177  139.2561  153.0808 H   0  0  0  0  0  0  0  0  0  0  0  0
  151.2004  138.3431  152.8792 H   0  0  0  0  0  0  0  0  0  0  0  0
  149.2019  138.0484  155.1769 H   0  0  0  0  0  0  0  0  0  0  0  0
  149.4523  136.8990  153.8854 H   0  0  0  0  0  0  0  0  0  0  0  0
  151.7540  136.4303  154.6712 H   0  0  0  0  0  0  0  0  0  0  0  0
  150.6231  136.2233  155.9914 H   0  0  0  0  0  0  0  0  0  0  0  0
  1  2  2  0  0  0  0
  2  3  2  0  0  0  0
  2  4  1  0  0  0  0
  2 13  1  0  0  0  0
  4  5  1  0  0  0  0
  5  6  1  0  0  0  0
  5 19  1  0  0  0  0
  5 20  1  0  0  0  0
  6  7  1  0  0  0  0
  6 21  1  0  0  0  0
  6 22  1  0  0  0  0
  7 12  1  0  0  0  0
  7  8  2  0  0  0  0
  8  9  1  0  0  0  0
  8 23  1  0  0  0  0
  9 10  2  0  0  0  0
  9 24  1  0  0  0  0
 10 11  1  0  0  0  0
 10 25  1  0  0  0  0
 11 12  2  0  0  0  0
 11 26  1  0  0  0  0
 13 18  1  0  0  0  0
 13 14  1  0  0  0  0
 14 15  1  0  0  0  0
 14 27  1  0  0  0  0
 14 28  1  0  0  0  0
 15 16  1  0  0  0  0
 15 29  1  0  0  0  0
 15 30  1  0  0  0  0
 16 17  1  0  0  0  0
 16 31  1  0  0  0  0
 16 32  1  0  0  0  0
 17 18  1  0  0  0  0
 17 33  1  0  0  0  0
 17 34  1  0  0  0  0
 18 35  1  0  0  0  0
 18 36  1  0  0  0  0
M  CHG  1   4  -1
M  END
> <s_m_source_file>
AV-unprocessed.smi

> <i_m_source_file_index>
1967

> <i_lp_mmshare_version>
43012

> <i_f3d_flags>
0

> <s_epik_input>
W0NIMl0xW0NIMl1bQ0gyXVtDSDJdW0NIMl1OMVMoPU8pKD1PKVtOSF1bQ0gyXVtDSDJdYzJbY0hdW2NIXVtjSF1bY0hdbjI=

> <s_epik_cmdline>
J2VwaWtfcHl0aG9uJywgJy1waCcsICc3LjAnLCAnLXRuJywgJzgnLCAnLW1hJywgJzIwMCcsICctbWV0YWxfYmluZGluZycsICctaW1hZScsICc8aW5maWxlLm1hZT4nLCAnLW9tYWUnLCAnPG91dGZpbGUubWFlPic=

> <r_epik_Ionization_Penalty>
2.02944

> <r_epik_Ionization_Penalty_Charging>
1.95606

> <r_epik_Ionization_Penalty_Neutral>
0.0733798

> <r_epik_State_Penalty>
2.47711

> <r_epik_Charging_Adjusted_Penalty>
4.43317

> <i_epik_Tot_Q>
-1

> <i_epik_Tot_abs_Q>
1

> <r_epik_Metal_State_Penalty>
0.729901

> <b_epik_Metal_Only>
0

> <s_lp_Force_Field>
OPLS_2005

> <r_lp_Energy>
6.94762

> <b_lp_Chiralities_Consistent>
1

> <s_lp_Variant>
AV-unprocessed.smi:1967-2

> <Gold.Version>
5.8.1

> <Gold.Id.Protein>
6NUR|6NUR_protein|mol2

> <Gold.PLP.Fitness>
46.7478

> <Gold.PLP.PLP>
-33.4248

> <Gold.PLP.part.hbond>
-3.0000

> <Gold.PLP.part.metal>
0.0000

> <Gold.PLP.part.buried>
-4.2429

> <Gold.PLP.part.nonpolar>
-27.2837

> <Gold.PLP.part.repulsive>
0.1127

> <Gold.PLP.ligand.clash>
0.0000

> <Gold.PLP.ligand.torsion>
2.1433

> <Gold.PLP.Chemscore.Hbond>
3.7613

> <Gold.PLP.Chemscore.CHOScore>
1.0766

> <Gold.PLP.Chemscore.Metal>
0.0000

> <Gold.Chemscore.Hbonds>
donor molecule, donor type, donor heavy atom, donor atom, acceptor molecule, acceptor atom, score
      P1  H  6896  6909       L1     3  0.31
      P1  H  7997  8009       L1     4  2.00
      P1  H 10752 10763       L1     1  1.00
      L1  C    11    26       P1  8028  0.30
      L1  C    11    26       P1  8029  0.55

> <Gold.PLP.Chemscore.Internal.Correction>
3.0960

> <Gold.Rescore>
     Score         DG    S(hbond)    S(metal)    S(lipo)     H(rot)  DE(clash)    DE(int)     intcor
     18.98     -21.22       2.34        0.00      96.08       1.30       0.01       2.23       ----

> <Gold.Chemscore.Fitness>
18.9840

> <Gold.Chemscore.DG>
-21.2249

> <Gold.Chemscore.ZeroCoef>
-5.4800

> <Gold.Chemscore.Hbond>
2.3446

> <Gold.Chemscore.Metal>
0.0000

> <Gold.Chemscore.Lipo>
96.0774

> <Gold.Chemscore.Internal_Hbond>
0.0000

> <Gold.Chemscore.DEClash>
0.0110

> <Gold.Chemscore.DEInternal>
2.2298

> <Gold.Chemscore.Rot>
1.2997

> <Gold.Chemscore.Internal.Correction>
   9.000000E+99

> <Gold.Chemscore.Hbonds>
donor molecule, donor type, donor heavy atom, donor atom, acceptor molecule, acceptor atom, score
      P1  H  6896  6909       L1     3  0.30
      P1  H  7997  8009       L1     4  0.34
      P1  H 10752 10763       L1     1  0.94

> <Gold.Chemscore.Hbond.Weighted>
-7.8310

> <Gold.Chemscore.Metal.Weighted>
-0.0000

> <Gold.Chemscore.Lipo.Weighted>
-11.2411

> <Gold.Chemscore.Internal_Hbond.Weighted>
0.0000

> <Gold.Chemscore.DEClash.Weighted>
0.0110

> <Gold.Chemscore.DEInternal.Weighted>
2.2298

> <Gold.Chemscore.Rot.Weighted>
3.3273

> <Gold.Chemscore.Internal.Correction.Weighted>
   9.000000E+99

> <Gold.Protein.RotatedTorsions>
[ 6907 6896 6895 6894 ] final  118.61 input  -60.11 | X-H torsion
[ 7974 7965 7964 7962 ] final -122.03 input  175.53 | X-H torsion
[ 8008 7997 7996 7995 ] final  162.27 input   59.86 | X-H torsion
[ 10167 10162 10161 10158 ] final -142.33 input  -65.29 | X-H torsion
[ 10718 10713 10712 10709 ] final  152.39 input   66.30 | X-H torsion
[ 10763 10752 10751 10750 ] final  140.31 input  -60.55 | X-H torsion
[ 11005 11000 10999 10996 ] final -100.68 input  -57.11 | X-H torsion

> <Gold.Protein.ActiveResidues>
 VAL166  LYS551  ARG553  GLY616  TRP617  ASP618  TYR619  PRO620  LYS621  CYS622 
 ASP623  PHE694  ASN695  SER759  ASP760  ASP761  ALA762  ILE779  LEU786  VAL792 
 PHE793  MET794  SER795  GLU796  ALA797  LYS798  CYS799  TRP800  GLU811  SER814 

> <Gold.Protein.RotatedAtoms>
  152.4531  133.7668  159.6776 H   0  0  0  0  0  0  0  0  0  0  0  0  # atno 6907 bound_to 6896
  150.8448  133.7868  159.3053 H   0  0  0  0  0  0  0  0  0  0  0  0  # atno 6908 bound_to 6896
  151.5482  135.1070  159.9995 H   0  0  0  0  0  0  0  0  0  0  0  0  # atno 6909 bound_to 6896
  145.0339  140.8090  143.4307 H   0  0  0  0  0  0  0  0  0  0  0  0  # atno 7974 bound_to 7965
  156.2043  140.1755  156.7833 H   0  0  0  0  0  0  0  0  0  0  0  0  # atno 8008 bound_to 7997
  154.5634  140.0695  156.8884 H   0  0  0  0  0  0  0  0  0  0  0  0  # atno 8009 bound_to 7997
  155.2806  140.3348  155.4261 H   0  0  0  0  0  0  0  0  0  0  0  0  # atno 8010 bound_to 7997
  139.8099  143.7717  152.2663 H   0  0  0  0  0  0  0  0  0  0  0  0  # atno 10167 bound_to 10162
  157.2584  131.0793  151.1682 H   0  0  0  0  0  0  0  0  0  0  0  0  # atno 10718 bound_to 10713
  153.9205  135.3001  155.3448 H   0  0  0  0  0  0  0  0  0  0  0  0  # atno 10763 bound_to 10752
  154.7578  135.4949  153.9410 H   0  0  0  0  0  0  0  0  0  0  0  0  # atno 10764 bound_to 10752
  153.1144  135.6767  153.9547 H   0  0  0  0  0  0  0  0  0  0  0  0  # atno 10765 bound_to 10752
  141.1261  133.8418  157.1133 H   0  0  0  0  0  0  0  0  0  0  0  0  # atno 11005 bound_to 11000
  145.1735  139.2391  143.5330 LP  0  0  0  0  0  0  0  0  0  0  0  0  # atno 17320 bound_to 7965
  146.3502  140.1491  142.8593 LP  0  0  0  0  0  0  0  0  0  0  0  0  # atno 17321 bound_to 7965
  139.7863  144.7426  151.0018 LP  0  0  0  0  0  0  0  0  0  0  0  0  # atno 17342 bound_to 10162
  140.7818  143.4489  151.0442 LP  0  0  0  0  0  0  0  0  0  0  0  0  # atno 17343 bound_to 10162
  157.3202  130.6933  149.6265 LP  0  0  0  0  0  0  0  0  0  0  0  0  # atno 17370 bound_to 10713
  155.9664  130.4337  150.5020 LP  0  0  0  0  0  0  0  0  0  0  0  0  # atno 17371 bound_to 10713
  140.0261  134.9923  157.0689 LP  0  0  0  0  0  0  0  0  0  0  0  0  # atno 17394 bound_to 11000
  140.4360  134.1731  155.7171 LP  0  0  0  0  0  0  0  0  0  0  0  0  # atno 17395 bound_to 11000

$$$$
