AV-unprocessed.smi:714|AV-procd|sdf|3483|dock5
  -GOLD-   22720 0473D 1   1.00000     0.00000
 Structure written by MMmdl.
 38 39  0  0  0  0  0  0  0  0  1 V2000
  146.9867  133.0827  153.1743 C   0  0  0  0  0  0  0  0  0  0  0  0
  147.7892  133.6156  153.9246 C   0  0  0  0  0  0  0  0  0  0  0  0
  148.7642  134.2436  154.8323 C   0  0  0  0  0  0  0  0  0  0  0  0
  148.8002  135.6961  154.7009 N   0  0  0  0  0  0  0  0  0  0  0  0
  148.7710  136.5765  155.7174 C   0  0  0  0  0  0  0  0  0  0  0  0
  148.7153  136.2099  156.8926 O   0  0  0  0  0  0  0  0  0  0  0  0
  148.8087  137.9763  155.2873 C   0  0  0  0  0  0  0  0  0  0  0  0
  147.9528  138.5112  154.2411 C   0  0  0  0  0  0  0  0  0  0  0  0
  148.0661  139.7971  153.8573 C   0  0  0  0  0  0  0  0  0  0  0  0
  149.0350  140.7077  154.4742 C   0  0  0  0  0  0  0  0  0  0  0  0
  149.1563  141.8712  154.0906 O   0  0  0  0  0  0  0  0  0  0  0  0
  149.7825  140.1872  155.4973 N   0  0  0  0  0  0  0  0  0  0  0  0
  150.8023  141.0285  156.1717 C   0  0  1  0  0  0  0  0  0  0  0  0
  150.1985  142.1045  157.1028 C   0  0  0  0  0  0  0  0  0  0  0  0
  150.5810  141.7159  158.5372 C   0  0  0  0  0  0  0  0  0  0  0  0
  151.5367  140.6328  158.3942 N   0  0  0  0  0  0  0  0  0  0  0  0
  152.1949  140.0643  159.5692 C   0  0  0  0  0  0  0  0  0  0  0  0
  153.1593  141.0583  160.2410 C   0  0  0  0  0  0  0  0  0  0  0  0
  152.4510  141.9362  160.9500 F   0  0  0  0  0  0  0  0  0  0  0  0
  154.0018  140.4333  161.0631 F   0  0  0  0  0  0  0  0  0  0  0  0
  153.8574  141.7216  159.3191 F   0  0  0  0  0  0  0  0  0  0  0  0
  151.6486  140.1963  157.1344 C   0  0  0  0  0  0  0  0  0  0  0  0
  152.3434  139.2523  156.7596 O   0  0  0  0  0  0  0  0  0  0  0  0
  149.6804  138.8251  155.8648 C   0  0  0  0  0  0  0  0  0  0  0  0
  146.2878  132.6145  152.5179 H   0  0  0  0  0  0  0  0  0  0  0  0
  148.5361  133.9414  155.8554 H   0  0  0  0  0  0  0  0  0  0  0  0
  149.7500  133.8448  154.5932 H   0  0  0  0  0  0  0  0  0  0  0  0
  148.8459  136.0642  153.7619 H   0  0  0  0  0  0  0  0  0  0  0  0
  147.2140  137.8966  153.7483 H   0  0  0  0  0  0  0  0  0  0  0  0
  147.4224  140.1714  153.0748 H   0  0  0  0  0  0  0  0  0  0  0  0
  151.4745  141.5231  155.4689 H   0  0  0  0  0  0  0  0  0  0  0  0
  150.6441  143.0713  156.8647 H   0  0  0  0  0  0  0  0  0  0  0  0
  149.1217  142.2344  156.9884 H   0  0  0  0  0  0  0  0  0  0  0  0
  151.0144  142.5556  159.0816 H   0  0  0  0  0  0  0  0  0  0  0  0
  149.7107  141.3626  159.0917 H   0  0  0  0  0  0  0  0  0  0  0  0
  151.4337  139.7528  160.2857 H   0  0  0  0  0  0  0  0  0  0  0  0
  152.7308  139.1574  159.2848 H   0  0  0  0  0  0  0  0  0  0  0  0
  150.3703  138.5131  156.6347 H   0  0  0  0  0  0  0  0  0  0  0  0
  1  2  3  0  0  0  0
  1 25  1  0  0  0  0
  2  3  1  0  0  0  0
  3  4  1  0  0  0  0
  3 26  1  0  0  0  0
  3 27  1  0  0  0  0
  4  5  1  0  0  0  0
  4 28  1  0  0  0  0
  5  6  2  0  0  0  0
  5  7  1  0  0  0  0
  7 24  2  0  0  0  0
  7  8  1  0  0  0  0
  8  9  2  0  0  0  0
  8 29  1  0  0  0  0
  9 10  1  0  0  0  0
  9 30  1  0  0  0  0
 10 11  2  0  0  0  0
 10 12  1  0  0  0  0
 12 13  1  0  0  0  0
 12 24  1  0  0  0  0
 13 22  1  0  0  0  0
 13 14  1  0  0  0  0
 13 31  1  0  0  0  0
 14 15  1  0  0  0  0
 14 32  1  0  0  0  0
 14 33  1  0  0  0  0
 15 16  1  0  0  0  0
 15 34  1  0  0  0  0
 15 35  1  0  0  0  0
 16 17  1  0  0  0  0
 16 22  1  0  0  0  0
 17 18  1  0  0  0  0
 17 36  1  0  0  0  0
 17 37  1  0  0  0  0
 18 19  1  0  0  0  0
 18 20  1  0  0  0  0
 18 21  1  0  0  0  0
 22 23  2  0  0  0  0
 24 38  1  0  0  0  0
M  END
> <s_m_source_file>
AV-unprocessed.smi

> <i_m_source_file_index>
714

> <i_lp_mmshare_version>
43012

> <i_f3d_flags>
0

> <s_epik_input>
W0NIXSNDW0NIMl1bTkhdQyg9TyljMVtjSF1bY0hdYyg9TyluKFtjSF0xKVtDQEBIXTJbQ0gyXVtDSDJdTihDMj1PKVtDSDJdQyhGKShGKUY=

> <s_epik_cmdline>
J2VwaWtfcHl0aG9uJywgJy1waCcsICc3LjAnLCAnLXRuJywgJzgnLCAnLW1hJywgJzIwMCcsICctbWV0YWxfYmluZGluZycsICctaW1hZScsICc8aW5maWxlLm1hZT4nLCAnLW9tYWUnLCAnPG91dGZpbGUubWFlPic=

> <r_lp_tautomer_probability>
1

> <r_epik_Ionization_Penalty>
2.95503e-06

> <r_epik_Ionization_Penalty_Charging>
5.74209e-08

> <r_epik_Ionization_Penalty_Neutral>
2.89761e-06

> <r_epik_State_Penalty>
-0

> <r_epik_Charging_Adjusted_Penalty>
5.74209e-08

> <i_epik_Tot_Q>
0

> <i_epik_Tot_abs_Q>
0

> <r_epik_Metal_State_Penalty>
-0

> <b_epik_Metal_Only>
0

> <s_lp_Force_Field>
OPLS_2005

> <r_lp_Energy>
33.0774

> <b_lp_Chiralities_Consistent>
1

> <s_lp_Variant>
AV-unprocessed.smi:714-2

> <Gold.Version>
5.8.1

> <Gold.Id.Protein>
6NUR|6NUR_protein|mol2

> <Gold.PLP.Fitness>
48.6266

> <Gold.PLP.PLP>
-44.9219

> <Gold.PLP.part.hbond>
-3.6365

> <Gold.PLP.part.metal>
0.0000

> <Gold.PLP.part.buried>
-2.3734

> <Gold.PLP.part.nonpolar>
-39.0231

> <Gold.PLP.part.repulsive>
0.2511

> <Gold.PLP.ligand.clash>
1.3000

> <Gold.PLP.ligand.torsion>
1.3102

> <Gold.PLP.Chemscore.Hbond>
2.4800

> <Gold.PLP.Chemscore.CHOScore>
0.0000

> <Gold.PLP.Chemscore.Metal>
0.0000

> <Gold.Chemscore.Hbonds>
donor molecule, donor type, donor heavy atom, donor atom, acceptor molecule, acceptor atom, score
      L1  H     4    28       P1  7948  1.00
      P1  H  7997  8010       L1    23  0.60
      P1  H  8011  8017       L1    11  0.48

> <Gold.PLP.Chemscore.Internal.Correction>
0.1850

> <Gold.Rescore>
     Score         DG    S(hbond)    S(metal)    S(lipo)     H(rot)  DE(clash)    DE(int)     intcor
     14.19     -17.01       2.38        0.00      65.95       1.61       0.60       2.22       ----

> <Gold.Chemscore.Fitness>
14.1901

> <Gold.Chemscore.DG>
-17.0075

> <Gold.Chemscore.ZeroCoef>
-5.4800

> <Gold.Chemscore.Hbond>
2.3780

> <Gold.Chemscore.Metal>
0.0000

> <Gold.Chemscore.Lipo>
65.9476

> <Gold.Chemscore.Internal_Hbond>
0.0000

> <Gold.Chemscore.DEClash>
0.5967

> <Gold.Chemscore.DEInternal>
2.2207

> <Gold.Chemscore.Rot>
1.6136

> <Gold.Chemscore.Internal.Correction>
   9.000000E+99

> <Gold.Chemscore.Hbonds>
donor molecule, donor type, donor heavy atom, donor atom, acceptor molecule, acceptor atom, score
      L1  H     4    28       P1  7948  0.99
      P1  H  7997  8010       L1    23  0.30
      P1  H  8011  8017       L1    11  0.48

> <Gold.Chemscore.Hbond.Weighted>
-7.9424

> <Gold.Chemscore.Metal.Weighted>
-0.0000

> <Gold.Chemscore.Lipo.Weighted>
-7.7159

> <Gold.Chemscore.Internal_Hbond.Weighted>
0.0000

> <Gold.Chemscore.DEClash.Weighted>
0.5967

> <Gold.Chemscore.DEInternal.Weighted>
2.2207

> <Gold.Chemscore.Rot.Weighted>
4.1308

> <Gold.Chemscore.Internal.Correction.Weighted>
   9.000000E+99

> <Gold.Protein.RotatedTorsions>
[ 6907 6896 6895 6894 ] final -133.97 input  -60.11 | X-H torsion
[ 7974 7965 7964 7962 ] final   40.36 input  175.53 | X-H torsion
[ 8008 7997 7996 7995 ] final   71.02 input   59.86 | X-H torsion
[ 10167 10162 10161 10158 ] final   -9.44 input  -65.29 | X-H torsion
[ 10718 10713 10712 10709 ] final   98.26 input   66.30 | X-H torsion
[ 10763 10752 10751 10750 ] final  -72.02 input  -60.55 | X-H torsion
[ 11005 11000 10999 10996 ] final  -80.84 input  -57.11 | X-H torsion

> <Gold.Protein.ActiveResidues>
 VAL166  LYS551  ARG553  GLY616  TRP617  ASP618  TYR619  PRO620  LYS621  CYS622 
 ASP623  PHE694  ASN695  SER759  ASP760  ASP761  ALA762  ILE779  LEU786  VAL792 
 PHE793  MET794  SER795  GLU796  ALA797  LYS798  CYS799  TRP800  GLU811  SER814 

> <Gold.Protein.RotatedAtoms>
  150.9803  133.6252  159.2723 H   0  0  0  0  0  0  0  0  0  0  0  0  # atno 6907 bound_to 6896
  151.3509  135.0883  159.9412 H   0  0  0  0  0  0  0  0  0  0  0  0  # atno 6908 bound_to 6896
  152.5213  133.9396  159.7674 H   0  0  0  0  0  0  0  0  0  0  0  0  # atno 6909 bound_to 6896
  146.0911  139.5542  142.9475 H   0  0  0  0  0  0  0  0  0  0  0  0  # atno 7974 bound_to 7965
  155.7476  140.3489  155.5134 H   0  0  0  0  0  0  0  0  0  0  0  0  # atno 8008 bound_to 7997
  155.9035  140.1038  157.1353 H   0  0  0  0  0  0  0  0  0  0  0  0  # atno 8009 bound_to 7997
  154.4047  140.1281  156.4454 H   0  0  0  0  0  0  0  0  0  0  0  0  # atno 8010 bound_to 7997
  140.7087  143.5857  150.8945 H   0  0  0  0  0  0  0  0  0  0  0  0  # atno 10167 bound_to 10162
  157.6898  131.0635  150.4770 H   0  0  0  0  0  0  0  0  0  0  0  0  # atno 10718 bound_to 10713
  154.4399  135.5943  153.6122 H   0  0  0  0  0  0  0  0  0  0  0  0  # atno 10763 bound_to 10752
  152.9804  135.5995  154.3735 H   0  0  0  0  0  0  0  0  0  0  0  0  # atno 10764 bound_to 10752
  154.3584  135.2841  155.2312 H   0  0  0  0  0  0  0  0  0  0  0  0  # atno 10765 bound_to 10752
  141.1667  133.7168  156.8332 H   0  0  0  0  0  0  0  0  0  0  0  0  # atno 11005 bound_to 11000
  145.6037  141.0351  143.2004 LP  0  0  0  0  0  0  0  0  0  0  0  0  # atno 17320 bound_to 7965
  144.7361  139.7583  143.7329 LP  0  0  0  0  0  0  0  0  0  0  0  0  # atno 17321 bound_to 7965
  139.9583  143.6193  152.3009 LP  0  0  0  0  0  0  0  0  0  0  0  0  # atno 17342 bound_to 10162
  139.6736  144.7660  151.1737 LP  0  0  0  0  0  0  0  0  0  0  0  0  # atno 17343 bound_to 10162
  156.5104  130.4138  149.6304 LP  0  0  0  0  0  0  0  0  0  0  0  0  # atno 17370 bound_to 10713
  156.3246  130.7299  151.2217 LP  0  0  0  0  0  0  0  0  0  0  0  0  # atno 17371 bound_to 10713
  140.2036  134.8879  157.3196 LP  0  0  0  0  0  0  0  0  0  0  0  0  # atno 17394 bound_to 11000
  140.2161  134.4079  155.7588 LP  0  0  0  0  0  0  0  0  0  0  0  0  # atno 17395 bound_to 11000

$$$$
