AV-unprocessed.smi:1748|AV-procd|sdf|7038|dock4
  -GOLD-   22720 8253D 1   1.00000     0.00000
 Structure written by MMmdl.
 40 41  0  0  0  0  0  0  0  0  2 V2000
  148.5942  139.5440  153.8925 C   0  0  0  0  0  0  0  0  0  0  0  0
  149.1991  138.2106  154.0973 N   0  3  1  0  0  0  0  0  0  0  0  0
  150.6758  138.2736  154.2357 C   0  0  0  0  0  0  0  0  0  0  0  0
  151.2859  136.8638  154.3173 C   0  0  0  0  0  0  0  0  0  0  0  0
  150.6406  136.0392  155.4445 C   0  0  0  0  0  0  0  0  0  0  0  0
  149.1069  136.0236  155.3099 C   0  0  2  0  0  0  0  0  0  0  0  0
  148.7170  135.2295  154.1444 N   0  0  0  0  0  0  0  0  0  0  0  0
  148.0057  134.0938  154.1823 C   0  0  0  0  0  0  0  0  0  0  0  0
  147.5861  133.5966  155.2269 O   0  0  0  0  0  0  0  0  0  0  0  0
  147.8017  133.6127  152.9425 N   0  0  0  0  0  0  0  0  0  0  0  0
  147.1134  132.4547  152.5443 C   0  0  0  0  0  0  0  0  0  0  0  0
  147.4938  131.1850  152.8431 C   0  0  0  0  0  0  0  0  0  0  0  0
  146.7403  130.0275  152.3889 C   0  0  0  0  0  0  0  0  0  0  0  0
  147.1217  128.6127  152.7960 C   0  0  0  0  0  0  0  0  0  0  0  0
  148.2137  128.6117  153.5616 F   0  0  0  0  0  0  0  0  0  0  0  0
  146.1287  128.0585  153.4902 F   0  0  0  0  0  0  0  0  0  0  0  0
  147.3583  127.8510  151.7278 F   0  0  0  0  0  0  0  0  0  0  0  0
  145.6383  130.2780  151.6584 C   0  0  0  0  0  0  0  0  0  0  0  0
  145.2544  131.5793  151.3265 N   0  0  0  0  0  0  0  0  0  0  0  0
  145.9176  132.6902  151.7183 C   0  0  0  0  0  0  0  0  0  0  0  0
  145.5146  133.8048  151.3872 O   0  0  0  0  0  0  0  0  0  0  0  0
  148.5723  137.4708  155.2215 C   0  0  0  0  0  0  0  0  0  0  0  0
  144.4251  131.6826  150.7594 H   0  0  0  0  0  0  0  0  0  0  0  0
  148.7558  140.1851  154.7602 H   0  0  0  0  0  0  0  0  0  0  0  0
  147.5200  139.4574  153.7256 H   0  0  0  0  0  0  0  0  0  0  0  0
  149.0272  140.0331  153.0193 H   0  0  0  0  0  0  0  0  0  0  0  0
  151.1014  138.8050  153.3835 H   0  0  0  0  0  0  0  0  0  0  0  0
  150.9339  138.8464  155.1280 H   0  0  0  0  0  0  0  0  0  0  0  0
  151.1535  136.3529  153.3628 H   0  0  0  0  0  0  0  0  0  0  0  0
  152.3621  136.9343  154.4785 H   0  0  0  0  0  0  0  0  0  0  0  0
  151.0360  135.0225  155.4449 H   0  0  0  0  0  0  0  0  0  0  0  0
  150.9132  136.4734  156.4075 H   0  0  0  0  0  0  0  0  0  0  0  0
  148.6916  135.5455  156.1988 H   0  0  0  0  0  0  0  0  0  0  0  0
  149.0253  135.5637  153.2428 H   0  0  0  0  0  0  0  0  0  0  0  0
  148.1484  134.1749  152.1786 H   0  0  0  0  0  0  0  0  0  0  0  0
  148.3884  130.9956  153.4135 H   0  0  0  0  0  0  0  0  0  0  0  0
  144.9731  129.5149  151.2820 H   0  0  0  0  0  0  0  0  0  0  0  0
  148.7717  137.9980  156.1559 H   0  0  0  0  0  0  0  0  0  0  0  0
  147.4885  137.4656  155.0978 H   0  0  0  0  0  0  0  0  0  0  0  0
  149.0078  137.6782  153.2605 H   0  0  0  0  0  0  0  0  0  0  0  0
  1  2  1  0  0  0  0
  1 24  1  0  0  0  0
  1 25  1  0  0  0  0
  1 26  1  0  0  0  0
  2 22  1  0  0  0  0
  2  3  1  0  0  0  0
  2 40  1  0  0  0  0
  3  4  1  0  0  0  0
  3 27  1  0  0  0  0
  3 28  1  0  0  0  0
  4  5  1  0  0  0  0
  4 29  1  0  0  0  0
  4 30  1  0  0  0  0
  5  6  1  0  0  0  0
  5 31  1  0  0  0  0
  5 32  1  0  0  0  0
  6  7  1  0  0  0  0
  6 22  1  0  0  0  0
  6 33  1  0  0  0  0
  7  8  1  0  0  0  0
  7 34  1  0  0  0  0
  8  9  2  0  0  0  0
  8 10  1  0  0  0  0
 10 11  1  0  0  0  0
 10 35  1  0  0  0  0
 11 20  1  0  0  0  0
 11 12  2  0  0  0  0
 12 13  1  0  0  0  0
 12 36  1  0  0  0  0
 13 14  1  0  0  0  0
 13 18  2  0  0  0  0
 14 15  1  0  0  0  0
 14 16  1  0  0  0  0
 14 17  1  0  0  0  0
 18 19  1  0  0  0  0
 18 37  1  0  0  0  0
 19 23  1  0  0  0  0
 19 20  1  0  0  0  0
 20 21  2  0  0  0  0
 22 38  1  0  0  0  0
 22 39  1  0  0  0  0
M  CHG  1   2   1
M  END
> <s_m_source_file>
AV-unprocessed.smi

> <i_m_source_file_index>
1748

> <i_lp_mmshare_version>
43012

> <i_f3d_flags>
0

> <s_epik_input>
W0NIM11OMVtDSDJdW0NIMl1bQ0gyXVtDQEhdKFtDSDJdMSlbTkhdQyg9TylbTkhdYzJbY0hdYyhDKEYpKEYpRilbY0hdW25IXWMyPU8=

> <s_epik_cmdline>
J2VwaWtfcHl0aG9uJywgJy1waCcsICc3LjAnLCAnLXRuJywgJzgnLCAnLW1hJywgJzIwMCcsICctbWV0YWxfYmluZGluZycsICctaW1hZScsICc8aW5maWxlLm1hZT4nLCAnLW9tYWUnLCAnPG91dGZpbGUubWFlPic=

> <r_lp_tautomer_probability>
1

> <r_epik_Ionization_Penalty>
0.00746315

> <r_epik_Ionization_Penalty_Charging>
0.00744398

> <r_epik_Ionization_Penalty_Neutral>
1.91704e-05

> <r_epik_State_Penalty>
-0

> <r_epik_Charging_Adjusted_Penalty>
0.00744398

> <i_epik_Tot_Q>
1

> <i_epik_Tot_abs_Q>
1

> <r_epik_Metal_State_Penalty>
0.379332

> <b_epik_Metal_Only>
0

> <s_lp_Force_Field>
OPLS_2005

> <r_lp_Energy>
33.9877

> <b_lp_Chiralities_Consistent>
1

> <s_lp_Variant>
AV-unprocessed.smi:1748-3

> <Gold.Version>
5.8.1

> <Gold.Id.Protein>
6NUR|6NUR_protein|mol2

> <Gold.PLP.Fitness>
39.1147

> <Gold.PLP.PLP>
-30.4846

> <Gold.PLP.part.hbond>
-2.9366

> <Gold.PLP.part.metal>
0.0000

> <Gold.PLP.part.buried>
0.2560

> <Gold.PLP.part.nonpolar>
-28.3094

> <Gold.PLP.part.repulsive>
0.2015

> <Gold.PLP.ligand.clash>
0.0000

> <Gold.PLP.ligand.torsion>
0.6307

> <Gold.PLP.Chemscore.Hbond>
3.2855

> <Gold.PLP.Chemscore.CHOScore>
0.0000

> <Gold.PLP.Chemscore.Metal>
0.0000

> <Gold.Chemscore.Hbonds>
donor molecule, donor type, donor heavy atom, donor atom, acceptor molecule, acceptor atom, score
      L1  H     2    40       P1  7948  2.00
      L1  H     7    34       P1  7948  0.94
      L1  H    10    35       P1  7948  0.34

> <Gold.PLP.Chemscore.Internal.Correction>
0.0350

> <Gold.Rescore>
     Score         DG    S(hbond)    S(metal)    S(lipo)     H(rot)  DE(clash)    DE(int)     intcor
     16.02     -16.78       1.92        0.00      63.73       1.00       0.20       0.56       ----

> <Gold.Chemscore.Fitness>
16.0195

> <Gold.Chemscore.DG>
-16.7788

> <Gold.Chemscore.ZeroCoef>
-5.4800

> <Gold.Chemscore.Hbond>
1.9169

> <Gold.Chemscore.Metal>
0.0000

> <Gold.Chemscore.Lipo>
63.7305

> <Gold.Chemscore.Internal_Hbond>
0.0000

> <Gold.Chemscore.DEClash>
0.1999

> <Gold.Chemscore.DEInternal>
0.5594

> <Gold.Chemscore.Rot>
1.0000

> <Gold.Chemscore.Internal.Correction>
   9.000000E+99

> <Gold.Chemscore.Hbonds>
donor molecule, donor type, donor heavy atom, donor atom, acceptor molecule, acceptor atom, score
      L1  H     2    40       P1  7948  0.97
      L1  H     7    34       P1  7948  0.59
      L1  H    10    35       P1  7948  0.03

> <Gold.Chemscore.Hbond.Weighted>
-6.4023

> <Gold.Chemscore.Metal.Weighted>
-0.0000

> <Gold.Chemscore.Lipo.Weighted>
-7.4565

> <Gold.Chemscore.Internal_Hbond.Weighted>
0.0000

> <Gold.Chemscore.DEClash.Weighted>
0.1999

> <Gold.Chemscore.DEInternal.Weighted>
0.5594

> <Gold.Chemscore.Rot.Weighted>
2.5600

> <Gold.Chemscore.Internal.Correction.Weighted>
   9.000000E+99

> <Gold.Protein.RotatedTorsions>
[ 6907 6896 6895 6894 ] final   30.30 input  -60.11 | X-H torsion
[ 7974 7965 7964 7962 ] final  -61.09 input  175.53 | X-H torsion
[ 8008 7997 7996 7995 ] final  -32.03 input   59.86 | X-H torsion
[ 10167 10162 10161 10158 ] final -119.85 input  -65.29 | X-H torsion
[ 10718 10713 10712 10709 ] final   51.87 input   66.30 | X-H torsion
[ 10763 10752 10751 10750 ] final   74.29 input  -60.55 | X-H torsion
[ 11005 11000 10999 10996 ] final  101.33 input  -57.11 | X-H torsion

> <Gold.Protein.ActiveResidues>
 VAL166  LYS551  ARG553  GLY616  TRP617  ASP618  TYR619  PRO620  LYS621  CYS622 
 ASP623  PHE694  ASN695  SER759  ASP760  ASP761  ALA762  ILE779  LEU786  VAL792 
 PHE793  MET794  SER795  GLU796  ALA797  LYS798  CYS799  TRP800  GLU811  SER814 

> <Gold.Protein.RotatedAtoms>
  152.0439  134.9694  160.0573 H   0  0  0  0  0  0  0  0  0  0  0  0  # atno 6907 bound_to 6896
  152.1122  133.4302  159.4644 H   0  0  0  0  0  0  0  0  0  0  0  0  # atno 6908 bound_to 6896
  150.6844  134.2553  159.4571 H   0  0  0  0  0  0  0  0  0  0  0  0  # atno 6909 bound_to 6896
  145.8077  140.8617  143.0198 H   0  0  0  0  0  0  0  0  0  0  0  0  # atno 7974 bound_to 7965
  154.4193  140.1748  156.1662 H   0  0  0  0  0  0  0  0  0  0  0  0  # atno 8008 bound_to 7997
  155.9797  140.3378  155.6628 H   0  0  0  0  0  0  0  0  0  0  0  0  # atno 8009 bound_to 7997
  155.6516  140.0691  157.2576 H   0  0  0  0  0  0  0  0  0  0  0  0  # atno 8010 bound_to 7997
  140.0422  143.5142  152.2124 H   0  0  0  0  0  0  0  0  0  0  0  0  # atno 10167 bound_to 10162
  157.5022  130.8445  149.8330 H   0  0  0  0  0  0  0  0  0  0  0  0  # atno 10718 bound_to 10713
  153.0577  135.5031  154.8020 H   0  0  0  0  0  0  0  0  0  0  0  0  # atno 10763 bound_to 10752
  154.6833  135.2972  154.9585 H   0  0  0  0  0  0  0  0  0  0  0  0  # atno 10764 bound_to 10752
  154.0364  135.6723  153.4838 H   0  0  0  0  0  0  0  0  0  0  0  0  # atno 10765 bound_to 10752
  139.8773  134.9178  156.4890 H   0  0  0  0  0  0  0  0  0  0  0  0  # atno 11005 bound_to 11000
  144.6761  140.0350  143.7482 LP  0  0  0  0  0  0  0  0  0  0  0  0  # atno 17320 bound_to 7965
  145.9811  139.2941  143.1041 LP  0  0  0  0  0  0  0  0  0  0  0  0  # atno 17321 bound_to 7965
  139.6007  144.7581  151.3180 LP  0  0  0  0  0  0  0  0  0  0  0  0  # atno 17342 bound_to 10162
  140.7255  143.7016  150.7840 LP  0  0  0  0  0  0  0  0  0  0  0  0  # atno 17343 bound_to 10162
  156.0236  130.3787  150.1888 LP  0  0  0  0  0  0  0  0  0  0  0  0  # atno 17370 bound_to 10713
  157.0078  130.9942  151.3374 LP  0  0  0  0  0  0  0  0  0  0  0  0  # atno 17371 bound_to 10713
  140.8672  133.8015  155.9327 LP  0  0  0  0  0  0  0  0  0  0  0  0  # atno 17394 bound_to 11000
  140.8989  134.2403  157.5053 LP  0  0  0  0  0  0  0  0  0  0  0  0  # atno 17395 bound_to 11000

$$$$
