AV-unprocessed.smi:1824|AV-procd|sdf|7404|dock2
  -GOLD-   22720 9 73D 1   1.00000     0.00000
 Structure written by MMmdl.
 45 47  0  0  0  0  0  0  0  0  2 V2000
  147.9011  133.7686  153.5671 C   0  0  0  0  0  0  0  0  0  0  0  0
  146.3748  133.9279  153.4481 C   0  0  1  0  0  0  0  0  0  0  0  0
  145.9215  135.3852  153.2289 C   0  0  0  0  0  0  0  0  0  0  0  0
  146.2231  135.8370  151.8502 N   0  3  2  0  0  0  0  0  0  0  0  0
  145.8681  137.2617  151.6253 C   0  0  0  0  0  0  0  0  0  0  0  0
  146.2411  138.1587  152.8222 C   0  0  2  0  0  0  0  0  0  0  0  0
  145.0723  138.4169  153.5780 O   0  0  0  0  0  0  0  0  0  0  0  0
  146.8621  139.4929  152.3649 C   0  0  0  0  0  0  0  0  0  0  0  0
  147.0471  140.4274  153.4615 N   0  0  0  0  0  0  0  0  0  0  0  0
  146.1863  141.3810  153.8668 C   0  0  0  0  0  0  0  0  0  0  0  0
  146.5529  142.1338  154.8998 N   0  0  0  0  0  0  0  0  0  0  0  0
  147.7968  141.6074  155.2028 C   0  0  0  0  0  0  0  0  0  0  0  0
  148.7234  141.9635  156.2089 C   0  0  0  0  0  0  0  0  0  0  0  0
  149.9480  141.2741  156.3293 C   0  0  0  0  0  0  0  0  0  0  0  0
  150.8240  141.6271  157.3000 F   0  0  0  0  0  0  0  0  0  0  0  0
  150.2648  140.2209  155.4458 C   0  0  0  0  0  0  0  0  0  0  0  0
  151.4432  139.5653  155.5669 F   0  0  0  0  0  0  0  0  0  0  0  0
  149.3575  139.8486  154.4353 C   0  0  0  0  0  0  0  0  0  0  0  0
  148.1359  140.5376  154.3203 C   0  0  0  0  0  0  0  0  0  0  0  0
  145.6188  134.9106  150.8628 C   0  0  0  0  0  0  0  0  0  0  0  0
  146.1193  133.4746  151.1008 C   0  0  2  0  0  0  0  0  0  0  0  0
  145.4522  132.4685  150.1569 C   0  0  0  0  0  0  0  0  0  0  0  0
  145.8212  133.0839  152.4386 O   0  0  0  0  0  0  0  0  0  0  0  0
  148.2810  134.3173  154.4292 H   0  0  0  0  0  0  0  0  0  0  0  0
  148.4278  134.1424  152.6895 H   0  0  0  0  0  0  0  0  0  0  0  0
  148.1726  132.7210  153.6992 H   0  0  0  0  0  0  0  0  0  0  0  0
  145.9493  133.5869  154.3923 H   0  0  0  0  0  0  0  0  0  0  0  0
  144.8470  135.4663  153.4012 H   0  0  0  0  0  0  0  0  0  0  0  0
  146.4081  136.0375  153.9554 H   0  0  0  0  0  0  0  0  0  0  0  0
  146.3559  137.6131  150.7147 H   0  0  0  0  0  0  0  0  0  0  0  0
  144.7954  137.3515  151.4469 H   0  0  0  0  0  0  0  0  0  0  0  0
  146.9557  137.6500  153.4687 H   0  0  0  0  0  0  0  0  0  0  0  0
  144.4212  138.8000  153.0097 H   0  0  0  0  0  0  0  0  0  0  0  0
  147.8340  139.3160  151.9023 H   0  0  0  0  0  0  0  0  0  0  0  0
  146.2390  139.9651  151.6043 H   0  0  0  0  0  0  0  0  0  0  0  0
  145.2367  141.5319  153.3741 H   0  0  0  0  0  0  0  0  0  0  0  0
  148.4925  142.7686  156.8903 H   0  0  0  0  0  0  0  0  0  0  0  0
  149.5994  139.0429  153.7588 H   0  0  0  0  0  0  0  0  0  0  0  0
  144.5312  134.9498  150.9439 H   0  0  0  0  0  0  0  0  0  0  0  0
  145.8726  135.2167  149.8485 H   0  0  0  0  0  0  0  0  0  0  0  0
  147.1955  133.4297  150.9337 H   0  0  0  0  0  0  0  0  0  0  0  0
  145.6500  132.7171  149.1140 H   0  0  0  0  0  0  0  0  0  0  0  0
  144.3710  132.4497  150.2983 H   0  0  0  0  0  0  0  0  0  0  0  0
  145.8284  131.4606  150.3343 H   0  0  0  0  0  0  0  0  0  0  0  0
  147.2261  135.7737  151.7448 H   0  0  0  0  0  0  0  0  0  0  0  0
  1  2  1  0  0  0  0
  1 24  1  0  0  0  0
  1 25  1  0  0  0  0
  1 26  1  0  0  0  0
  2 23  1  0  0  0  0
  2  3  1  0  0  0  0
  2 27  1  0  0  0  0
  3  4  1  0  0  0  0
  3 28  1  0  0  0  0
  3 29  1  0  0  0  0
  4  5  1  0  0  0  0
  4 20  1  0  0  0  0
  4 45  1  0  0  0  0
  5  6  1  0  0  0  0
  5 30  1  0  0  0  0
  5 31  1  0  0  0  0
  6  7  1  0  0  0  0
  6  8  1  0  0  0  0
  6 32  1  0  0  0  0
  7 33  1  0  0  0  0
  8  9  1  0  0  0  0
  8 34  1  0  0  0  0
  8 35  1  0  0  0  0
  9 19  1  0  0  0  0
  9 10  1  0  0  0  0
 10 11  2  0  0  0  0
 10 36  1  0  0  0  0
 11 12  1  0  0  0  0
 12 19  2  0  0  0  0
 12 13  1  0  0  0  0
 13 14  2  0  0  0  0
 13 37  1  0  0  0  0
 14 15  1  0  0  0  0
 14 16  1  0  0  0  0
 16 17  1  0  0  0  0
 16 18  2  0  0  0  0
 18 19  1  0  0  0  0
 18 38  1  0  0  0  0
 20 21  1  0  0  0  0
 20 39  1  0  0  0  0
 20 40  1  0  0  0  0
 21 22  1  0  0  0  0
 21 23  1  0  0  0  0
 21 41  1  0  0  0  0
 22 42  1  0  0  0  0
 22 43  1  0  0  0  0
 22 44  1  0  0  0  0
M  CHG  1   4   1
M  END
> <s_m_source_file>
AV-unprocessed.smi

> <i_m_source_file_index>
1824

> <i_lp_mmshare_version>
43012

> <i_f3d_flags>
0

> <s_epik_input>
W0NIM11bQ0BASF0xW0NIMl1OKFtDSDJdW0NASF0oTzEpW0NIM10pW0NIMl1bQ0BIXShbT0hdKVtDSDJdbihbY0hdbjIpYyhjMjMpW2NIXWMoRiljKEYpW2NIXTM=

> <s_epik_cmdline>
J2VwaWtfcHl0aG9uJywgJy1waCcsICc3LjAnLCAnLXRuJywgJzgnLCAnLW1hJywgJzIwMCcsICctbWV0YWxfYmluZGluZycsICctaW1hZScsICc8aW5maWxlLm1hZT4nLCAnLW9tYWUnLCAnPG91dGZpbGUubWFlPic=

> <r_epik_Ionization_Penalty>
0.61967

> <r_epik_Ionization_Penalty_Charging>
0.608065

> <r_epik_Ionization_Penalty_Neutral>
0.0116057

> <r_epik_State_Penalty>
0.664205

> <r_epik_Charging_Adjusted_Penalty>
1.27227

> <i_epik_Tot_Q>
1

> <i_epik_Tot_abs_Q>
1

> <r_epik_Metal_State_Penalty>
0.654947

> <b_epik_Metal_Only>
0

> <s_lp_Force_Field>
OPLS_2005

> <r_lp_Energy>
23.1423

> <b_lp_Chiralities_Consistent>
1

> <s_lp_Variant>
AV-unprocessed.smi:1824-12

> <Gold.Version>
5.8.1

> <Gold.Id.Protein>
6NUR|6NUR_protein|mol2

> <Gold.PLP.Fitness>
50.7823

> <Gold.PLP.PLP>
-41.0178

> <Gold.PLP.part.hbond>
-2.0000

> <Gold.PLP.part.metal>
0.0000

> <Gold.PLP.part.buried>
1.9989

> <Gold.PLP.part.nonpolar>
-41.2249

> <Gold.PLP.part.repulsive>
0.2739

> <Gold.PLP.ligand.clash>
0.0000

> <Gold.PLP.ligand.torsion>
1.1156

> <Gold.PLP.Chemscore.Hbond>
3.0000

> <Gold.PLP.Chemscore.CHOScore>
0.9649

> <Gold.PLP.Chemscore.Metal>
0.0000

> <Gold.Chemscore.Hbonds>
donor molecule, donor type, donor heavy atom, donor atom, acceptor molecule, acceptor atom, score
      L1  H     4    45       P1  7948  2.00
      L1  H     7    33       P1 10175  0.86
      L1  C    10    36       P1 10175  0.67

> <Gold.PLP.Chemscore.Internal.Correction>
0.1012

> <Gold.Rescore>
     Score         DG    S(hbond)    S(metal)    S(lipo)     H(rot)  DE(clash)    DE(int)     intcor
     13.21     -16.99       1.93        0.00      94.28       2.33       2.64       1.13       ----

> <Gold.Chemscore.Fitness>
13.2132

> <Gold.Chemscore.DG>
-16.9915

> <Gold.Chemscore.ZeroCoef>
-5.4800

> <Gold.Chemscore.Hbond>
1.9260

> <Gold.Chemscore.Metal>
0.0000

> <Gold.Chemscore.Lipo>
94.2810

> <Gold.Chemscore.Internal_Hbond>
0.0000

> <Gold.Chemscore.DEClash>
2.6435

> <Gold.Chemscore.DEInternal>
1.1348

> <Gold.Chemscore.Rot>
2.3251

> <Gold.Chemscore.Internal.Correction>
   9.000000E+99

> <Gold.Chemscore.Hbonds>
donor molecule, donor type, donor heavy atom, donor atom, acceptor molecule, acceptor atom, score
      L1  H     4    45       P1  7948  1.00
      L1  H     7    33       P1 10175  0.86

> <Gold.Chemscore.Hbond.Weighted>
-6.4330

> <Gold.Chemscore.Metal.Weighted>
-0.0000

> <Gold.Chemscore.Lipo.Weighted>
-11.0309

> <Gold.Chemscore.Internal_Hbond.Weighted>
0.0000

> <Gold.Chemscore.DEClash.Weighted>
2.6435

> <Gold.Chemscore.DEInternal.Weighted>
1.1348

> <Gold.Chemscore.Rot.Weighted>
5.9523

> <Gold.Chemscore.Internal.Correction.Weighted>
   9.000000E+99

> <Gold.Protein.RotatedTorsions>
[ 6907 6896 6895 6894 ] final   19.90 input  -60.11 | X-H torsion
[ 7974 7965 7964 7962 ] final  -16.62 input  175.53 | X-H torsion
[ 8008 7997 7996 7995 ] final  -85.65 input   59.86 | X-H torsion
[ 10167 10162 10161 10158 ] final  106.51 input  -65.29 | X-H torsion
[ 10718 10713 10712 10709 ] final  152.37 input   66.30 | X-H torsion
[ 10763 10752 10751 10750 ] final   75.28 input  -60.55 | X-H torsion
[ 11005 11000 10999 10996 ] final -109.38 input  -57.11 | X-H torsion

> <Gold.Protein.ActiveResidues>
 VAL166  LYS551  ARG553  GLY616  TRP617  ASP618  TYR619  PRO620  LYS621  CYS622 
 ASP623  PHE694  ASN695  SER759  ASP760  ASP761  ALA762  ILE779  LEU786  VAL792 
 PHE793  MET794  SER795  GLU796  ALA797  LYS798  CYS799  TRP800  GLU811  SER814 

> <Gold.Protein.RotatedAtoms>
  151.8880  135.0427  160.0494 H   0  0  0  0  0  0  0  0  0  0  0  0  # atno 6907 bound_to 6896
  152.2459  133.5169  159.5305 H   0  0  0  0  0  0  0  0  0  0  0  0  # atno 6908 bound_to 6896
  150.7068  134.0943  159.3985 H   0  0  0  0  0  0  0  0  0  0  0  0  # atno 6909 bound_to 6896
  146.1979  140.3662  142.8434 H   0  0  0  0  0  0  0  0  0  0  0  0  # atno 7974 bound_to 7965
  154.6431  140.0588  156.9869 H   0  0  0  0  0  0  0  0  0  0  0  0  # atno 8008 bound_to 7997
  155.1486  140.3272  155.4417 H   0  0  0  0  0  0  0  0  0  0  0  0  # atno 8009 bound_to 7997
  156.2540  140.1951  156.6599 H   0  0  0  0  0  0  0  0  0  0  0  0  # atno 8010 bound_to 7997
  139.7003  144.7095  151.1197 H   0  0  0  0  0  0  0  0  0  0  0  0  # atno 10167 bound_to 10162
  157.2586  131.0793  151.1681 H   0  0  0  0  0  0  0  0  0  0  0  0  # atno 10718 bound_to 10713
  153.0644  135.4994  154.8166 H   0  0  0  0  0  0  0  0  0  0  0  0  # atno 10763 bound_to 10752
  154.6931  135.2988  154.9453 H   0  0  0  0  0  0  0  0  0  0  0  0  # atno 10764 bound_to 10752
  154.0201  135.6743  153.4824 H   0  0  0  0  0  0  0  0  0  0  0  0  # atno 10765 bound_to 10752
  141.0851  133.9153  157.2204 H   0  0  0  0  0  0  0  0  0  0  0  0  # atno 11005 bound_to 11000
  144.8620  140.7153  143.6101 LP  0  0  0  0  0  0  0  0  0  0  0  0  # atno 17320 bound_to 7965
  145.3582  139.1688  143.4398 LP  0  0  0  0  0  0  0  0  0  0  0  0  # atno 17321 bound_to 7965
  140.7708  143.5433  150.9287 LP  0  0  0  0  0  0  0  0  0  0  0  0  # atno 17342 bound_to 10162
  139.9115  143.6715  152.3114 LP  0  0  0  0  0  0  0  0  0  0  0  0  # atno 17343 bound_to 10162
  157.3200  130.6932  149.6263 LP  0  0  0  0  0  0  0  0  0  0  0  0  # atno 17370 bound_to 10713
  155.9664  130.4338  150.5023 LP  0  0  0  0  0  0  0  0  0  0  0  0  # atno 17371 bound_to 10713
  139.9668  135.0139  156.9408 LP  0  0  0  0  0  0  0  0  0  0  0  0  # atno 17394 bound_to 11000
  140.5382  134.0746  155.7334 LP  0  0  0  0  0  0  0  0  0  0  0  0  # atno 17395 bound_to 11000

$$$$
