AV-unprocessed.smi:1190|AV-procd|sdf|4983|dock2
  -GOLD-   22720 3583D 1   1.00000     0.00000
 Structure written by MMmdl.
 44 45  0  0  0  0  0  0  0  0  2 V2000
  151.8301  141.0844  158.2390 C   0  0  0  0  0  0  0  0  0  0  0  0
  151.4654  141.1659  156.8654 O   0  0  0  0  0  0  0  0  0  0  0  0
  150.9555  140.0381  156.2553 C   0  0  0  0  0  0  0  0  0  0  0  0
  150.5213  138.9707  157.0656 C   0  0  0  0  0  0  0  0  0  0  0  0
  149.9983  137.8196  156.4473 C   0  0  0  0  0  0  0  0  0  0  0  0
  149.9166  137.7691  155.0412 C   0  0  0  0  0  0  0  0  0  0  0  0
  149.3950  136.5863  154.4494 N   0  0  0  0  0  0  0  0  0  0  0  0
  149.0828  135.4185  155.0373 C   0  0  0  0  0  0  0  0  0  0  0  0
  149.2122  135.1637  156.2341 O   0  0  0  0  0  0  0  0  0  0  0  0
  148.6256  134.5321  154.1405 N   0  0  0  0  0  0  0  0  0  0  0  0
  148.1778  133.1744  154.4440 C   0  0  0  0  0  0  0  0  0  0  0  0
  148.5661  132.1412  153.3488 C   0  0  1  0  0  0  0  0  0  0  0  0
  148.9391  130.7819  153.9838 C   0  0  0  0  0  0  0  0  0  0  0  0
  147.5042  131.9458  152.3062 N   0  3  0  0  0  0  0  0  0  0  0  0
  146.3352  131.1201  152.7195 C   0  0  0  0  0  0  0  0  0  0  0  0
  145.3321  130.9582  151.5639 C   0  0  0  0  0  0  0  0  0  0  0  0
  144.9154  132.2338  151.1009 O   0  0  0  0  0  0  0  0  0  0  0  0
  146.0095  132.9874  150.6006 C   0  0  0  0  0  0  0  0  0  0  0  0
  147.0214  133.2316  151.7312 C   0  0  0  0  0  0  0  0  0  0  0  0
  150.3919  138.8884  154.3142 C   0  0  0  0  0  0  0  0  0  0  0  0
  150.8947  139.9950  154.9015 N   0  0  0  0  0  0  0  0  0  0  0  0
  152.2135  142.0498  158.5689 H   0  0  0  0  0  0  0  0  0  0  0  0
  152.6154  140.3445  158.4000 H   0  0  0  0  0  0  0  0  0  0  0  0
  150.9716  140.8381  158.8658 H   0  0  0  0  0  0  0  0  0  0  0  0
  150.5887  139.0336  158.1418 H   0  0  0  0  0  0  0  0  0  0  0  0
  149.6616  136.9880  157.0492 H   0  0  0  0  0  0  0  0  0  0  0  0
  149.2949  136.6174  153.4454 H   0  0  0  0  0  0  0  0  0  0  0  0
  148.5627  134.8255  153.1764 H   0  0  0  0  0  0  0  0  0  0  0  0
  148.5479  132.8533  155.4193 H   0  0  0  0  0  0  0  0  0  0  0  0
  147.0940  133.2474  154.5327 H   0  0  0  0  0  0  0  0  0  0  0  0
  149.4509  132.5343  152.8451 H   0  0  0  0  0  0  0  0  0  0  0  0
  149.7715  130.8760  154.6804 H   0  0  0  0  0  0  0  0  0  0  0  0
  149.2545  130.0427  153.2506 H   0  0  0  0  0  0  0  0  0  0  0  0
  148.0961  130.3621  154.5332 H   0  0  0  0  0  0  0  0  0  0  0  0
  146.6490  130.1199  153.0161 H   0  0  0  0  0  0  0  0  0  0  0  0
  145.8455  131.5808  153.5788 H   0  0  0  0  0  0  0  0  0  0  0  0
  145.7706  130.3854  150.7449 H   0  0  0  0  0  0  0  0  0  0  0  0
  144.4564  130.4047  151.9033 H   0  0  0  0  0  0  0  0  0  0  0  0
  146.4771  132.4694  149.7615 H   0  0  0  0  0  0  0  0  0  0  0  0
  145.6360  133.9381  150.2194 H   0  0  0  0  0  0  0  0  0  0  0  0
  146.5576  133.8306  152.5165 H   0  0  0  0  0  0  0  0  0  0  0  0
  147.8440  133.8210  151.3315 H   0  0  0  0  0  0  0  0  0  0  0  0
  150.3979  138.9141  153.2364 H   0  0  0  0  0  0  0  0  0  0  0  0
  147.9441  131.4355  151.5535 H   0  0  0  0  0  0  0  0  0  0  0  0
  1  2  1  0  0  0  0
  1 22  1  0  0  0  0
  1 23  1  0  0  0  0
  1 24  1  0  0  0  0
  2  3  1  0  0  0  0
  3 21  1  0  0  0  0
  3  4  2  0  0  0  0
  4  5  1  0  0  0  0
  4 25  1  0  0  0  0
  5  6  2  0  0  0  0
  5 26  1  0  0  0  0
  6  7  1  0  0  0  0
  6 20  1  0  0  0  0
  7  8  1  0  0  0  0
  7 27  1  0  0  0  0
  8  9  2  0  0  0  0
  8 10  1  0  0  0  0
 10 11  1  0  0  0  0
 10 28  1  0  0  0  0
 11 12  1  0  0  0  0
 11 29  1  0  0  0  0
 11 30  1  0  0  0  0
 12 13  1  0  0  0  0
 12 14  1  0  0  0  0
 12 31  1  0  0  0  0
 13 32  1  0  0  0  0
 13 33  1  0  0  0  0
 13 34  1  0  0  0  0
 14 19  1  0  0  0  0
 14 15  1  0  0  0  0
 14 44  1  0  0  0  0
 15 16  1  0  0  0  0
 15 35  1  0  0  0  0
 15 36  1  0  0  0  0
 16 17  1  0  0  0  0
 16 37  1  0  0  0  0
 16 38  1  0  0  0  0
 17 18  1  0  0  0  0
 18 19  1  0  0  0  0
 18 39  1  0  0  0  0
 18 40  1  0  0  0  0
 19 41  1  0  0  0  0
 19 42  1  0  0  0  0
 20 21  2  0  0  0  0
 20 43  1  0  0  0  0
M  CHG  1  14   1
M  END
> <s_m_source_file>
AV-unprocessed.smi

> <i_m_source_file_index>
1190

> <i_lp_mmshare_version>
43012

> <i_f3d_flags>
0

> <s_epik_input>
W0NIM11PYzFbY0hdW2NIXWMoW2NIXW4xKVtOSF1DKD1PKVtOSF1bQ0gyXVtDQEhdKFtDSDNdKU4yW0NIMl1bQ0gyXU9bQ0gyXVtDSDJdMg==

> <s_epik_cmdline>
J2VwaWtfcHl0aG9uJywgJy1waCcsICc3LjAnLCAnLXRuJywgJzgnLCAnLW1hJywgJzIwMCcsICctbWV0YWxfYmluZGluZycsICctaW1hZScsICc8aW5maWxlLm1hZT4nLCAnLW9tYWUnLCAnPG91dGZpbGUubWFlPic=

> <r_lp_tautomer_probability>
1

> <r_epik_Ionization_Penalty>
0.602608

> <r_epik_Ionization_Penalty_Charging>
0.602531

> <r_epik_Ionization_Penalty_Neutral>
7.70246e-05

> <r_epik_State_Penalty>
0.617039

> <r_epik_Charging_Adjusted_Penalty>
1.21957

> <i_epik_Tot_Q>
1

> <i_epik_Tot_abs_Q>
1

> <r_epik_Metal_State_Penalty>
0.617043

> <b_epik_Metal_Only>
0

> <s_lp_Force_Field>
OPLS_2005

> <r_lp_Energy>
23.7469

> <b_lp_Chiralities_Consistent>
1

> <s_lp_Variant>
AV-unprocessed.smi:1190-4

> <Gold.Version>
5.8.1

> <Gold.Id.Protein>
6NUR|6NUR_protein|mol2

> <Gold.PLP.Fitness>
45.4588

> <Gold.PLP.PLP>
-32.3487

> <Gold.PLP.part.hbond>
-4.0000

> <Gold.PLP.part.metal>
0.0000

> <Gold.PLP.part.buried>
-5.1920

> <Gold.PLP.part.nonpolar>
-23.2091

> <Gold.PLP.part.repulsive>
0.2244

> <Gold.PLP.ligand.clash>
0.0346

> <Gold.PLP.ligand.torsion>
0.9556

> <Gold.PLP.Chemscore.Hbond>
3.9760

> <Gold.PLP.Chemscore.CHOScore>
1.0000

> <Gold.PLP.Chemscore.Metal>
0.0000

> <Gold.Chemscore.Hbonds>
donor molecule, donor type, donor heavy atom, donor atom, acceptor molecule, acceptor atom, score
      L1  H     7    27       P1  7948  1.00
      L1  H    10    28       P1  7948  0.94
      L1  H    14    44       P1 10747  1.00
      P1  H  7989  7998       L1    21  1.00
      L1  C    20    43       P1  7957  1.00

> <Gold.PLP.Chemscore.Internal.Correction>
0.1279

> <Gold.Rescore>
     Score         DG    S(hbond)    S(metal)    S(lipo)     H(rot)  DE(clash)    DE(int)     intcor
     17.87     -20.13       3.26        0.00      71.42       1.79       0.02       2.25       ----

> <Gold.Chemscore.Fitness>
17.8683

> <Gold.Chemscore.DG>
-20.1333

> <Gold.Chemscore.ZeroCoef>
-5.4800

> <Gold.Chemscore.Hbond>
3.2560

> <Gold.Chemscore.Metal>
0.0000

> <Gold.Chemscore.Lipo>
71.4171

> <Gold.Chemscore.Internal_Hbond>
0.0000

> <Gold.Chemscore.DEClash>
0.0179

> <Gold.Chemscore.DEInternal>
2.2471

> <Gold.Chemscore.Rot>
1.7881

> <Gold.Chemscore.Internal.Correction>
   9.000000E+99

> <Gold.Chemscore.Hbonds>
donor molecule, donor type, donor heavy atom, donor atom, acceptor molecule, acceptor atom, score
      L1  H     7    27       P1  7948  0.92
      L1  H    10    28       P1  7948  0.50
      L1  H    14    44       P1 10747  1.00
      P1  H  7989  7998       L1    21  0.35

> <Gold.Chemscore.Hbond.Weighted>
-10.8750

> <Gold.Chemscore.Metal.Weighted>
-0.0000

> <Gold.Chemscore.Lipo.Weighted>
-8.3558

> <Gold.Chemscore.Internal_Hbond.Weighted>
0.0000

> <Gold.Chemscore.DEClash.Weighted>
0.0179

> <Gold.Chemscore.DEInternal.Weighted>
2.2471

> <Gold.Chemscore.Rot.Weighted>
4.5775

> <Gold.Chemscore.Internal.Correction.Weighted>
   9.000000E+99

> <Gold.Protein.RotatedTorsions>
[ 6907 6896 6895 6894 ] final   29.77 input  -60.11 | X-H torsion
[ 7974 7965 7964 7962 ] final  164.42 input  175.53 | X-H torsion
[ 8008 7997 7996 7995 ] final   58.34 input   59.86 | X-H torsion
[ 10167 10162 10161 10158 ] final   -7.16 input  -65.29 | X-H torsion
[ 10718 10713 10712 10709 ] final    4.25 input   66.30 | X-H torsion
[ 10763 10752 10751 10750 ] final   74.97 input  -60.55 | X-H torsion
[ 11005 11000 10999 10996 ] final   61.72 input  -57.11 | X-H torsion

> <Gold.Protein.ActiveResidues>
 VAL166  LYS551  ARG553  GLY616  TRP617  ASP618  TYR619  PRO620  LYS621  CYS622 
 ASP623  PHE694  ASN695  SER759  ASP760  ASP761  ALA762  ILE779  LEU786  VAL792 
 PHE793  MET794  SER795  GLU796  ALA797  LYS798  CYS799  TRP800  GLU811  SER814 

> <Gold.Protein.RotatedAtoms>
  152.0363  134.9738  160.0573 H   0  0  0  0  0  0  0  0  0  0  0  0  # atno 6907 bound_to 6896
  152.1194  133.4340  159.4677 H   0  0  0  0  0  0  0  0  0  0  0  0  # atno 6908 bound_to 6896
  150.6848  134.2471  159.4539 H   0  0  0  0  0  0  0  0  0  0  0  0  # atno 6909 bound_to 6896
  144.7546  139.8323  143.6354 H   0  0  0  0  0  0  0  0  0  0  0  0  # atno 7974 bound_to 7965
  155.5484  140.3486  155.4463 H   0  0  0  0  0  0  0  0  0  0  0  0  # atno 8008 bound_to 7997
  156.0601  140.1338  156.9977 H   0  0  0  0  0  0  0  0  0  0  0  0  # atno 8009 bound_to 7997
  154.4475  140.0987  156.6488 H   0  0  0  0  0  0  0  0  0  0  0  0  # atno 8010 bound_to 7997
  140.7020  143.6113  150.8702 H   0  0  0  0  0  0  0  0  0  0  0  0  # atno 10167 bound_to 10162
  156.8899  130.5684  149.5650 H   0  0  0  0  0  0  0  0  0  0  0  0  # atno 10718 bound_to 10713
  153.0623  135.5006  154.8121 H   0  0  0  0  0  0  0  0  0  0  0  0  # atno 10763 bound_to 10752
  154.6901  135.2983  154.9494 H   0  0  0  0  0  0  0  0  0  0  0  0  # atno 10764 bound_to 10752
  154.0252  135.6737  153.4828 H   0  0  0  0  0  0  0  0  0  0  0  0  # atno 10765 bound_to 10752
  140.0141  134.6251  155.9736 H   0  0  0  0  0  0  0  0  0  0  0  0  # atno 11005 bound_to 11000
  146.1540  139.4632  143.0030 LP  0  0  0  0  0  0  0  0  0  0  0  0  # atno 17320 bound_to 7965
  145.6824  141.0187  143.1599 LP  0  0  0  0  0  0  0  0  0  0  0  0  # atno 17321 bound_to 7965
  139.9835  143.5925  152.2935 LP  0  0  0  0  0  0  0  0  0  0  0  0  # atno 17342 bound_to 10162
  139.6554  144.7662  151.2065 LP  0  0  0  0  0  0  0  0  0  0  0  0  # atno 17343 bound_to 10162
  156.0634  130.5682  150.9240 LP  0  0  0  0  0  0  0  0  0  0  0  0  # atno 17370 bound_to 10713
  157.6090  131.0937  150.8829 LP  0  0  0  0  0  0  0  0  0  0  0  0  # atno 17371 bound_to 10713
  141.1731  133.6538  156.4726 LP  0  0  0  0  0  0  0  0  0  0  0  0  # atno 17394 bound_to 11000
  140.4502  134.6936  157.5035 LP  0  0  0  0  0  0  0  0  0  0  0  0  # atno 17395 bound_to 11000

$$$$
