AV-unprocessed.smi:581|AV-procd|sdf|2994|dock9
  -GOLD-   2262023503D 1   1.00000     0.00000
 Structure written by MMmdl.
 34 35  0  0  0  0  0  0  0  0  3 V2000
  148.2223  139.6456  157.6881 C   0  0  0  0  0  0  0  0  0  0  0  0
  148.7132  138.2631  158.0796 C   0  0  0  0  0  0  0  0  0  0  0  0
  148.1575  137.7249  159.2502 N   0  0  0  0  0  0  0  0  0  0  0  0
  148.5140  136.5448  159.6605 C   0  0  0  0  0  0  0  0  0  0  0  0
  147.9821  135.9710  160.8188 N   0  0  0  0  0  0  0  0  0  0  0  0
  147.7095  134.5336  160.8956 C   0  0  0  0  0  0  0  0  0  0  0  0
  147.6918  134.0451  162.3534 C   0  0  0  0  0  0  0  0  0  0  0  0
  146.7478  134.8004  163.1007 O   0  0  0  0  0  0  0  0  0  0  0  0
  147.0914  136.1792  163.1223 C   0  0  0  0  0  0  0  0  0  0  0  0
  147.0905  136.7378  161.6896 C   0  0  0  0  0  0  0  0  0  0  0  0
  149.4506  135.7762  158.9879 N   0  5  0  0  0  0  0  0  0  0  0  0
  150.0268  136.2324  157.8393 C   0  0  0  0  0  0  0  0  0  0  0  0
  150.8517  135.5655  157.2158 O   0  0  0  0  0  0  0  0  0  0  0  0
  149.6300  137.5652  157.3518 C   0  0  0  0  0  0  0  0  0  0  0  0
  150.2753  138.1064  156.0767 C   0  0  0  0  0  0  0  0  0  0  0  0
  151.8016  138.2529  156.2140 C   0  0  0  0  0  0  0  0  0  0  0  0
  152.4439  138.5124  154.8512 C   0  0  0  0  0  0  0  0  0  0  0  0
  152.3351  137.6157  153.9863 O   0  0  0  0  0  0  0  0  0  0  0  0
  153.0349  139.6038  154.6968 O   0  5  0  0  0  0  0  0  0  0  0  0
  147.8913  139.6571  156.6492 H   0  0  0  0  0  0  0  0  0  0  0  0
  149.0199  140.3791  157.8078 H   0  0  0  0  0  0  0  0  0  0  0  0
  147.3815  139.9564  158.3094 H   0  0  0  0  0  0  0  0  0  0  0  0
  146.7435  134.3391  160.4281 H   0  0  0  0  0  0  0  0  0  0  0  0
  148.4457  133.9530  160.3391 H   0  0  0  0  0  0  0  0  0  0  0  0
  147.4125  132.9921  162.3921 H   0  0  0  0  0  0  0  0  0  0  0  0
  148.6826  134.1283  162.8029 H   0  0  0  0  0  0  0  0  0  0  0  0
  146.3656  136.7154  163.7337 H   0  0  0  0  0  0  0  0  0  0  0  0
  148.0669  136.3167  163.5918 H   0  0  0  0  0  0  0  0  0  0  0  0
  147.3928  137.7857  161.7179 H   0  0  0  0  0  0  0  0  0  0  0  0
  146.0813  136.7080  161.2768 H   0  0  0  0  0  0  0  0  0  0  0  0
  150.0434  137.4509  155.2373 H   0  0  0  0  0  0  0  0  0  0  0  0
  149.8241  139.0656  155.8180 H   0  0  0  0  0  0  0  0  0  0  0  0
  152.0468  139.0738  156.8891 H   0  0  0  0  0  0  0  0  0  0  0  0
  152.2322  137.3499  156.6489 H   0  0  0  0  0  0  0  0  0  0  0  0
  1  2  1  0  0  0  0
  1 20  1  0  0  0  0
  1 21  1  0  0  0  0
  1 22  1  0  0  0  0
  2 14  2  0  0  0  0
  2  3  1  0  0  0  0
  3  4  2  0  0  0  0
  4  5  1  0  0  0  0
  4 11  1  0  0  0  0
  5 10  1  0  0  0  0
  5  6  1  0  0  0  0
  6  7  1  0  0  0  0
  6 23  1  0  0  0  0
  6 24  1  0  0  0  0
  7  8  1  0  0  0  0
  7 25  1  0  0  0  0
  7 26  1  0  0  0  0
  8  9  1  0  0  0  0
  9 10  1  0  0  0  0
  9 27  1  0  0  0  0
  9 28  1  0  0  0  0
 10 29  1  0  0  0  0
 10 30  1  0  0  0  0
 11 12  1  0  0  0  0
 12 13  2  0  0  0  0
 12 14  1  0  0  0  0
 14 15  1  0  0  0  0
 15 16  1  0  0  0  0
 15 31  1  0  0  0  0
 15 32  1  0  0  0  0
 16 17  1  0  0  0  0
 16 33  1  0  0  0  0
 16 34  1  0  0  0  0
 17 18  2  0  0  0  0
 17 19  1  0  0  0  0
M  CHG  1  11  -1
M  CHG  1  19  -1
M  END
> <s_m_source_file>
AV-unprocessed.smi

> <i_m_source_file_index>
581

> <i_lp_mmshare_version>
43012

> <i_f3d_flags>
0

> <s_epik_input>
W0NIMl0xW0NIMl1PW0NIMl1bQ0gyXU4xYyhuYzJbQ0gzXSlbbkhdYyg9TyljMltDSDJdW0NIMl1DKD1PKVtPSF0=

> <s_epik_cmdline>
J2VwaWtfcHl0aG9uJywgJy1waCcsICc3LjAnLCAnLXRuJywgJzgnLCAnLW1hJywgJzIwMCcsICctbWV0YWxfYmluZGluZycsICctaW1hZScsICc8aW5maWxlLm1hZT4nLCAnLW9tYWUnLCAnPG91dGZpbGUubWFlPic=

> <r_lp_tautomer_probability>
0.878553

> <r_epik_Ionization_Penalty>
5.42566

> <r_epik_Ionization_Penalty_Charging>
0.003235

> <r_epik_Ionization_Penalty_Neutral>
5.42243

> <r_epik_State_Penalty>
3.98511

> <r_epik_Charging_Adjusted_Penalty>
3.98834

> <i_epik_Tot_Q>
-2

> <i_epik_Tot_abs_Q>
2

> <r_epik_Metal_State_Penalty>
0.64219

> <b_epik_Metal_Only>
1

> <s_lp_Force_Field>
OPLS_2005

> <r_lp_Energy>
30.9787

> <b_lp_Chiralities_Consistent>
1

> <s_lp_Variant>
AV-unprocessed.smi:581-4

> <Gold.Version>
5.8.1

> <Gold.Id.Protein>
6NUR|6NUR_protein|mol2

> <Gold.PLP.Fitness>
47.1491

> <Gold.PLP.PLP>
-29.7701

> <Gold.PLP.part.hbond>
-6.2449

> <Gold.PLP.part.metal>
0.0000

> <Gold.PLP.part.buried>
-4.8574

> <Gold.PLP.part.nonpolar>
-19.0327

> <Gold.PLP.part.repulsive>
0.1885

> <Gold.PLP.ligand.clash>
0.0000

> <Gold.PLP.ligand.torsion>
0.3256

> <Gold.PLP.Chemscore.Hbond>
5.9393

> <Gold.PLP.Chemscore.CHOScore>
0.0000

> <Gold.PLP.Chemscore.Metal>
0.0000

> <Gold.Chemscore.Hbonds>
donor molecule, donor type, donor heavy atom, donor atom, acceptor molecule, acceptor atom, score
      P1  H  6896  6908       L1    11  2.00
      P1  H  6934  6947       L1     3  0.12
      P1  H  7989  7998       L1    19  0.22
      P1  H  7997  8010       L1    19  2.00
      P1  H 10752 10765       L1    18  1.57

> <Gold.PLP.Chemscore.Internal.Correction>
0.2123

> <Gold.Rescore>
     Score         DG    S(hbond)    S(metal)    S(lipo)     H(rot)  DE(clash)    DE(int)     intcor
     12.69     -14.14       2.39        0.00      46.64       1.86       0.16       1.29       ----

> <Gold.Chemscore.Fitness>
12.6867

> <Gold.Chemscore.DG>
-14.1371

> <Gold.Chemscore.ZeroCoef>
-5.4800

> <Gold.Chemscore.Hbond>
2.3861

> <Gold.Chemscore.Metal>
0.0000

> <Gold.Chemscore.Lipo>
46.6400

> <Gold.Chemscore.Internal_Hbond>
0.0000

> <Gold.Chemscore.DEClash>
0.1569

> <Gold.Chemscore.DEInternal>
1.2936

> <Gold.Chemscore.Rot>
1.8630

> <Gold.Chemscore.Internal.Correction>
   9.000000E+99

> <Gold.Chemscore.Hbonds>
donor molecule, donor type, donor heavy atom, donor atom, acceptor molecule, acceptor atom, score
      P1  H  6896  6908       L1    11  0.30
      P1  H  6934  6947       L1     3  0.11
      P1  H  7989  7998       L1    19  0.12
      P1  H  7997  8010       L1    19  0.98
      P1  H 10752 10765       L1    18  0.73

> <Gold.Chemscore.Hbond.Weighted>
-7.9697

> <Gold.Chemscore.Metal.Weighted>
-0.0000

> <Gold.Chemscore.Lipo.Weighted>
-5.4569

> <Gold.Chemscore.Internal_Hbond.Weighted>
0.0000

> <Gold.Chemscore.DEClash.Weighted>
0.1569

> <Gold.Chemscore.DEInternal.Weighted>
1.2936

> <Gold.Chemscore.Rot.Weighted>
4.7694

> <Gold.Chemscore.Internal.Correction.Weighted>
   9.000000E+99

> <Gold.Protein.RotatedTorsions>
[ 6907 6896 6895 6894 ] final  165.38 input  -60.11 | X-H torsion
[ 7974 7965 7964 7962 ] final   46.70 input  175.53 | X-H torsion
[ 8008 7997 7996 7995 ] final  104.92 input   59.86 | X-H torsion
[ 10167 10162 10161 10158 ] final   58.59 input  -65.29 | X-H torsion
[ 10718 10713 10712 10709 ] final -173.24 input   66.30 | X-H torsion
[ 10763 10752 10751 10750 ] final  145.59 input  -60.55 | X-H torsion
[ 11005 11000 10999 10996 ] final   63.28 input  -57.11 | X-H torsion

> <Gold.Protein.ActiveResidues>
 VAL166  LYS551  ARG553  GLY616  TRP617  ASP618  TYR619  PRO620  LYS621  CYS622 
 ASP623  PHE694  ASN695  SER759  ASP760  ASP761  ALA762  ILE779  LEU786  VAL792 
 PHE793  MET794  SER795  GLU796  ALA797  LYS798  CYS799  TRP800  GLU811  SER814 

> <Gold.Protein.RotatedAtoms>
  151.8954  133.3525  159.3812 H   0  0  0  0  0  0  0  0  0  0  0  0  # atno 6907 bound_to 6896
  150.7093  134.4882  159.5512 H   0  0  0  0  0  0  0  0  0  0  0  0  # atno 6908 bound_to 6896
  152.2460  134.8181  160.0504 H   0  0  0  0  0  0  0  0  0  0  0  0  # atno 6909 bound_to 6896
  146.0366  139.4828  142.9805 H   0  0  0  0  0  0  0  0  0  0  0  0  # atno 7974 bound_to 7965
  156.1614  140.3139  155.8814 H   0  0  0  0  0  0  0  0  0  0  0  0  # atno 8008 bound_to 7997
  155.3773  140.0485  157.3061 H   0  0  0  0  0  0  0  0  0  0  0  0  # atno 8009 bound_to 7997
  154.5150  140.2178  155.9093 H   0  0  0  0  0  0  0  0  0  0  0  0  # atno 8010 bound_to 7997
  140.1856  144.4138  150.6595 H   0  0  0  0  0  0  0  0  0  0  0  0  # atno 10167 bound_to 10162
  156.7673  130.9436  151.3119 H   0  0  0  0  0  0  0  0  0  0  0  0  # atno 10718 bound_to 10713
  154.0078  135.2917  155.3395 H   0  0  0  0  0  0  0  0  0  0  0  0  # atno 10763 bound_to 10752
  154.7121  135.5145  153.8685 H   0  0  0  0  0  0  0  0  0  0  0  0  # atno 10764 bound_to 10752
  153.0736  135.6656  154.0313 H   0  0  0  0  0  0  0  0  0  0  0  0  # atno 10765 bound_to 10752
  140.0035  134.6405  155.9892 H   0  0  0  0  0  0  0  0  0  0  0  0  # atno 11005 bound_to 11000
  145.6954  141.0152  143.1533 LP  0  0  0  0  0  0  0  0  0  0  0  0  # atno 17320 bound_to 7965
  144.7054  139.8582  143.7431 LP  0  0  0  0  0  0  0  0  0  0  0  0  # atno 17321 bound_to 7965
  140.6491  143.2220  151.6119 LP  0  0  0  0  0  0  0  0  0  0  0  0  # atno 17342 bound_to 10162
  139.5278  144.3008  152.1075 LP  0  0  0  0  0  0  0  0  0  0  0  0  # atno 17343 bound_to 10162
  157.6707  130.9048  150.0034 LP  0  0  0  0  0  0  0  0  0  0  0  0  # atno 17370 bound_to 10713
  156.1300  130.3643  149.9747 LP  0  0  0  0  0  0  0  0  0  0  0  0  # atno 17371 bound_to 10713
  141.1660  133.6537  156.4481 LP  0  0  0  0  0  0  0  0  0  0  0  0  # atno 17394 bound_to 11000
  140.4683  134.6777  157.5117 LP  0  0  0  0  0  0  0  0  0  0  0  0  # atno 17395 bound_to 11000

$$$$
