AV-unprocessed.smi:1436|AV-procd|sdf|5861|dock4
  -GOLD-   22720 5533D 1   1.00000     0.00000
 Structure written by MMmdl.
 44 45  0  0  0  0  0  0  0  0  2 V2000
  149.7976  130.8421  155.0206 C   0  0  0  0  0  0  0  0  0  0  0  0
  150.2554  132.0523  155.7829 C   0  0  0  0  0  0  0  0  0  0  0  0
  150.8391  131.8964  156.9584 N   0  0  0  0  0  0  0  0  0  0  0  0
  151.1603  133.1832  157.4003 O   0  0  0  0  0  0  0  0  0  0  0  0
  150.7595  134.0742  156.4589 C   0  0  0  0  0  0  0  0  0  0  0  0
  151.0389  135.5112  156.7435 C   0  0  0  0  0  0  0  0  0  0  0  0
  150.1765  133.4243  155.4052 C   0  0  0  0  0  0  0  0  0  0  0  0
  149.6096  134.0084  154.1355 C   0  0  0  0  0  0  0  0  0  0  0  0
  148.1124  134.2262  154.3330 C   0  0  0  0  0  0  0  0  0  0  0  0
  147.5864  133.9474  155.4096 O   0  0  0  0  0  0  0  0  0  0  0  0
  147.4568  134.7906  153.3061 N   0  0  0  0  0  0  0  0  0  0  0  0
  146.0835  135.2914  153.3365 C   0  0  2  0  0  0  0  0  0  0  0  0
  146.0447  136.6249  154.0946 C   0  0  0  0  0  0  0  0  0  0  0  0
  145.1422  134.2449  153.9772 C   0  0  0  0  0  0  0  0  0  0  0  0
  144.7580  133.1589  153.0384 N   0  3  0  0  0  0  0  0  0  0  0  0
  144.1230  133.6568  151.7961 C   0  0  0  0  0  0  0  0  0  0  0  0
  143.6852  132.4767  150.9109 C   0  0  0  0  0  0  0  0  0  0  0  0
  144.8024  131.6413  150.6334 O   0  0  0  0  0  0  0  0  0  0  0  0
  145.3647  131.0926  151.8189 C   0  0  0  0  0  0  0  0  0  0  0  0
  145.8696  132.2314  152.7194 C   0  0  0  0  0  0  0  0  0  0  0  0
  150.5428  130.5434  154.2829 H   0  0  0  0  0  0  0  0  0  0  0  0
  148.8657  131.0396  154.4910 H   0  0  0  0  0  0  0  0  0  0  0  0
  149.6250  129.9920  155.6818 H   0  0  0  0  0  0  0  0  0  0  0  0
  152.1061  135.7183  156.6645 H   0  0  0  0  0  0  0  0  0  0  0  0
  150.7151  135.7769  157.7500 H   0  0  0  0  0  0  0  0  0  0  0  0
  150.5175  136.1603  156.0404 H   0  0  0  0  0  0  0  0  0  0  0  0
  150.0872  134.9541  153.8767 H   0  0  0  0  0  0  0  0  0  0  0  0
  149.7661  133.3468  153.2827 H   0  0  0  0  0  0  0  0  0  0  0  0
  147.9791  134.9622  152.4589 H   0  0  0  0  0  0  0  0  0  0  0  0
  145.7459  135.4952  152.3192 H   0  0  0  0  0  0  0  0  0  0  0  0
  145.0341  137.0342  154.1148 H   0  0  0  0  0  0  0  0  0  0  0  0
  146.6889  137.3657  153.6198 H   0  0  0  0  0  0  0  0  0  0  0  0
  146.3765  136.5074  155.1269 H   0  0  0  0  0  0  0  0  0  0  0  0
  145.6617  133.8024  154.8288 H   0  0  0  0  0  0  0  0  0  0  0  0
  144.2482  134.7214  154.3819 H   0  0  0  0  0  0  0  0  0  0  0  0
  143.2540  134.2683  152.0427 H   0  0  0  0  0  0  0  0  0  0  0  0
  144.8246  134.2936  151.2551 H   0  0  0  0  0  0  0  0  0  0  0  0
  142.9000  131.8960  151.3952 H   0  0  0  0  0  0  0  0  0  0  0  0
  143.2740  132.8436  149.9704 H   0  0  0  0  0  0  0  0  0  0  0  0
  144.6258  130.4819  152.3408 H   0  0  0  0  0  0  0  0  0  0  0  0
  146.1894  130.4334  151.5475 H   0  0  0  0  0  0  0  0  0  0  0  0
  146.6720  132.7759  152.2193 H   0  0  0  0  0  0  0  0  0  0  0  0
  146.2900  131.8123  153.6330 H   0  0  0  0  0  0  0  0  0  0  0  0
  144.0514  132.6141  153.5125 H   0  0  0  0  0  0  0  0  0  0  0  0
  1  2  1  0  0  0  0
  1 21  1  0  0  0  0
  1 22  1  0  0  0  0
  1 23  1  0  0  0  0
  2  7  1  0  0  0  0
  2  3  2  0  0  0  0
  3  4  1  0  0  0  0
  4  5  1  0  0  0  0
  5  6  1  0  0  0  0
  5  7  2  0  0  0  0
  6 24  1  0  0  0  0
  6 25  1  0  0  0  0
  6 26  1  0  0  0  0
  7  8  1  0  0  0  0
  8  9  1  0  0  0  0
  8 27  1  0  0  0  0
  8 28  1  0  0  0  0
  9 10  2  0  0  0  0
  9 11  1  0  0  0  0
 11 12  1  0  0  0  0
 11 29  1  0  0  0  0
 12 13  1  0  0  0  0
 12 14  1  0  0  0  0
 12 30  1  0  0  0  0
 13 31  1  0  0  0  0
 13 32  1  0  0  0  0
 13 33  1  0  0  0  0
 14 15  1  0  0  0  0
 14 34  1  0  0  0  0
 14 35  1  0  0  0  0
 15 20  1  0  0  0  0
 15 16  1  0  0  0  0
 15 44  1  0  0  0  0
 16 17  1  0  0  0  0
 16 36  1  0  0  0  0
 16 37  1  0  0  0  0
 17 18  1  0  0  0  0
 17 38  1  0  0  0  0
 17 39  1  0  0  0  0
 18 19  1  0  0  0  0
 19 20  1  0  0  0  0
 19 40  1  0  0  0  0
 19 41  1  0  0  0  0
 20 42  1  0  0  0  0
 20 43  1  0  0  0  0
M  CHG  1  15   1
M  END
> <s_m_source_file>
AV-unprocessed.smi

> <i_m_source_file_index>
1436

> <i_lp_mmshare_version>
43012

> <i_f3d_flags>
0

> <s_epik_input>
W0NIM11jMW5vYyhbQ0gzXSljMVtDSDJdQyg9TylbTkhdW0NASF0oW0NIM10pW0NIMl1OMltDSDJdW0NIMl1PW0NIMl1bQ0gyXTI=

> <s_epik_cmdline>
J2VwaWtfcHl0aG9uJywgJy1waCcsICc3LjAnLCAnLXRuJywgJzgnLCAnLW1hJywgJzIwMCcsICctbWV0YWxfYmluZGluZycsICctaW1hZScsICc8aW5maWxlLm1hZT4nLCAnLW9tYWUnLCAnPG91dGZpbGUubWFlPic=

> <r_epik_Ionization_Penalty>
0.663207

> <r_epik_Ionization_Penalty_Charging>
0.663207

> <r_epik_Ionization_Penalty_Neutral>
1.07515e-07

> <r_epik_State_Penalty>
0.682743

> <r_epik_Charging_Adjusted_Penalty>
1.34595

> <i_epik_Tot_Q>
1

> <i_epik_Tot_abs_Q>
1

> <r_epik_Metal_State_Penalty>
0.682743

> <b_epik_Metal_Only>
0

> <s_lp_Force_Field>
OPLS_2005

> <r_lp_Energy>
13.3689

> <b_lp_Chiralities_Consistent>
1

> <s_lp_Variant>
AV-unprocessed.smi:1436-3

> <Gold.Version>
5.8.1

> <Gold.Id.Protein>
6NUR|6NUR_protein|mol2

> <Gold.PLP.Fitness>
37.0400

> <Gold.PLP.PLP>
-27.1119

> <Gold.PLP.part.hbond>
-3.0000

> <Gold.PLP.part.metal>
0.0000

> <Gold.PLP.part.buried>
-4.5782

> <Gold.PLP.part.nonpolar>
-20.4540

> <Gold.PLP.part.repulsive>
0.1574

> <Gold.PLP.ligand.clash>
0.0000

> <Gold.PLP.ligand.torsion>
0.7562

> <Gold.PLP.Chemscore.Hbond>
3.7920

> <Gold.PLP.Chemscore.CHOScore>
0.0000

> <Gold.PLP.Chemscore.Metal>
0.0000

> <Gold.Chemscore.Hbonds>
donor molecule, donor type, donor heavy atom, donor atom, acceptor molecule, acceptor atom, score
      L1  H    11    29       P1  7948  0.75
      L1  H    15    44       P1 10957  1.89
      P1  H  6896  6908       L1     4  0.82

> <Gold.PLP.Chemscore.Internal.Correction>
0.0645

> <Gold.Rescore>
     Score         DG    S(hbond)    S(metal)    S(lipo)     H(rot)  DE(clash)    DE(int)     intcor
     14.88     -16.87       2.79        0.00      56.80       1.79       0.01       1.98       ----

> <Gold.Chemscore.Fitness>
14.8789

> <Gold.Chemscore.DG>
-16.8679

> <Gold.Chemscore.ZeroCoef>
-5.4800

> <Gold.Chemscore.Hbond>
2.7944

> <Gold.Chemscore.Metal>
0.0000

> <Gold.Chemscore.Lipo>
56.8046

> <Gold.Chemscore.Internal_Hbond>
0.0000

> <Gold.Chemscore.DEClash>
0.0126

> <Gold.Chemscore.DEInternal>
1.9764

> <Gold.Chemscore.Rot>
1.7936

> <Gold.Chemscore.Internal.Correction>
   9.000000E+99

> <Gold.Chemscore.Hbonds>
donor molecule, donor type, donor heavy atom, donor atom, acceptor molecule, acceptor atom, score
      L1  H    11    29       P1  7948  0.65
      L1  H    15    44       P1 10957  0.36
      P1  H  6896  6908       L1     4  0.75

> <Gold.Chemscore.Hbond.Weighted>
-9.3333

> <Gold.Chemscore.Metal.Weighted>
-0.0000

> <Gold.Chemscore.Lipo.Weighted>
-6.6461

> <Gold.Chemscore.Internal_Hbond.Weighted>
0.0000

> <Gold.Chemscore.DEClash.Weighted>
0.0126

> <Gold.Chemscore.DEInternal.Weighted>
1.9764

> <Gold.Chemscore.Rot.Weighted>
4.5916

> <Gold.Chemscore.Internal.Correction.Weighted>
   9.000000E+99

> <Gold.Protein.RotatedTorsions>
[ 6907 6896 6895 6894 ] final   78.37 input  -60.11 | X-H torsion
[ 7974 7965 7964 7962 ] final  116.35 input  175.53 | X-H torsion
[ 8008 7997 7996 7995 ] final  117.08 input   59.86 | X-H torsion
[ 10167 10162 10161 10158 ] final  -71.49 input  -65.29 | X-H torsion
[ 10718 10713 10712 10709 ] final  114.83 input   66.30 | X-H torsion
[ 10763 10752 10751 10750 ] final  -63.95 input  -60.55 | X-H torsion
[ 11005 11000 10999 10996 ] final   59.95 input  -57.11 | X-H torsion

> <Gold.Protein.ActiveResidues>
 VAL166  LYS551  ARG553  GLY616  TRP617  ASP618  TYR619  PRO620  LYS621  CYS622 
 ASP623  PHE694  ASN695  SER759  ASP760  ASP761  ALA762  ILE779  LEU786  VAL792 
 PHE793  MET794  SER795  GLU796  ALA797  LYS798  CYS799  TRP800  GLU811  SER814 

> <Gold.Protein.RotatedAtoms>
  152.5156  134.3675  159.9306 H   0  0  0  0  0  0  0  0  0  0  0  0  # atno 6907 bound_to 6896
  151.3628  133.3877  159.2699 H   0  0  0  0  0  0  0  0  0  0  0  0  # atno 6908 bound_to 6896
  150.9638  134.9041  159.7805 H   0  0  0  0  0  0  0  0  0  0  0  0  # atno 6909 bound_to 6896
  145.1807  139.3051  143.4419 H   0  0  0  0  0  0  0  0  0  0  0  0  # atno 7974 bound_to 7965
  156.2475  140.2904  156.0623 H   0  0  0  0  0  0  0  0  0  0  0  0  # atno 8008 bound_to 7997
  155.1762  140.0403  157.2890 H   0  0  0  0  0  0  0  0  0  0  0  0  # atno 8009 bound_to 7997
  154.6291  140.2495  155.7462 H   0  0  0  0  0  0  0  0  0  0  0  0  # atno 8010 bound_to 7997
  140.5268  143.2325  151.7332 H   0  0  0  0  0  0  0  0  0  0  0  0  # atno 10167 bound_to 10162
  157.6258  131.1004  150.7243 H   0  0  0  0  0  0  0  0  0  0  0  0  # atno 10718 bound_to 10713
  154.3228  135.6193  153.5515 H   0  0  0  0  0  0  0  0  0  0  0  0  # atno 10763 bound_to 10752
  152.9818  135.5728  154.5050 H   0  0  0  0  0  0  0  0  0  0  0  0  # atno 10764 bound_to 10752
  154.4722  135.2860  155.1611 H   0  0  0  0  0  0  0  0  0  0  0  0  # atno 10765 bound_to 10752
  140.0267  134.6073  155.9564 H   0  0  0  0  0  0  0  0  0  0  0  0  # atno 11005 bound_to 11000
  146.3453  140.1985  142.8589 LP  0  0  0  0  0  0  0  0  0  0  0  0  # atno 17320 bound_to 7965
  145.0139  140.8737  143.5207 LP  0  0  0  0  0  0  0  0  0  0  0  0  # atno 17321 bound_to 7965
  139.4941  144.4173  152.0016 LP  0  0  0  0  0  0  0  0  0  0  0  0  # atno 17342 bound_to 10162
  140.3273  144.3358  150.5995 LP  0  0  0  0  0  0  0  0  0  0  0  0  # atno 17343 bound_to 10162
  156.7591  130.4793  149.5440 LP  0  0  0  0  0  0  0  0  0  0  0  0  # atno 17370 bound_to 10713
  156.1429  130.6257  151.0492 LP  0  0  0  0  0  0  0  0  0  0  0  0  # atno 17371 bound_to 10713
  141.1807  133.6546  156.5007 LP  0  0  0  0  0  0  0  0  0  0  0  0  # atno 17394 bound_to 11000
  140.4295  134.7114  157.4934 LP  0  0  0  0  0  0  0  0  0  0  0  0  # atno 17395 bound_to 11000

$$$$
