AV-unprocessed.smi:855|AV-procd|sdf|3956|dock5
  -GOLD-   22720 1423D 1   1.00000     0.00000
 Structure written by MMmdl.
 36 37  0  0  0  0  0  0  0  0  2 V2000
  152.2047  141.0888  158.0861 C   0  0  0  0  0  0  0  0  0  0  0  0
  151.8283  140.3223  156.8646 C   0  0  0  0  0  0  0  0  0  0  0  0
  150.6584  140.1967  156.1693 C   0  0  0  0  0  0  0  0  0  0  0  0
  151.0082  139.3157  155.1117 C   0  0  0  0  0  0  0  0  0  0  0  0
  150.0500  138.9256  154.1414 N   0  0  0  0  0  0  0  0  0  0  0  0
  148.8363  139.4625  153.9285 C   0  0  0  0  0  0  0  0  0  0  0  0
  148.3560  140.4061  154.5572 O   0  0  0  0  0  0  0  0  0  0  0  0
  148.1917  138.8377  152.9323 N   0  0  0  0  0  0  0  0  0  0  0  0
  146.8620  139.1924  152.4499 C   0  0  0  0  0  0  0  0  0  0  0  0
  146.4008  138.2623  151.3120 C   0  0  0  0  0  0  0  0  0  0  0  0
  146.1487  136.8843  151.7930 N   0  3  0  0  0  0  0  0  0  0  0  0
  145.2359  136.7760  152.9573 C   0  0  0  0  0  0  0  0  0  0  0  0
  144.3010  135.5898  152.6836 C   0  0  0  0  0  0  0  0  0  0  0  0
  144.9524  134.8454  151.5226 C   0  0  0  0  0  0  0  0  0  0  0  0
  145.6503  135.9618  150.7532 C   0  0  0  0  0  0  0  0  0  0  0  0
  152.2758  138.9356  155.1584 N   0  0  0  0  0  0  0  0  0  0  0  0
  152.8076  139.5779  156.2827 O   0  0  0  0  0  0  0  0  0  0  0  0
  151.5274  141.9288  158.2416 H   0  0  0  0  0  0  0  0  0  0  0  0
  153.2171  141.4842  158.0011 H   0  0  0  0  0  0  0  0  0  0  0  0
  152.1627  140.4517  158.9693 H   0  0  0  0  0  0  0  0  0  0  0  0
  149.7084  140.6630  156.3847 H   0  0  0  0  0  0  0  0  0  0  0  0
  150.3174  138.1540  153.5485 H   0  0  0  0  0  0  0  0  0  0  0  0
  148.6589  138.0729  152.4669 H   0  0  0  0  0  0  0  0  0  0  0  0
  146.1495  139.1677  153.2763 H   0  0  0  0  0  0  0  0  0  0  0  0
  146.9008  140.2258  152.1056 H   0  0  0  0  0  0  0  0  0  0  0  0
  145.5050  138.6565  150.8296 H   0  0  0  0  0  0  0  0  0  0  0  0
  147.1756  138.2186  150.5450 H   0  0  0  0  0  0  0  0  0  0  0  0
  145.8304  136.6099  153.8560 H   0  0  0  0  0  0  0  0  0  0  0  0
  144.6548  137.6870  153.1089 H   0  0  0  0  0  0  0  0  0  0  0  0
  144.1568  134.9565  153.5596 H   0  0  0  0  0  0  0  0  0  0  0  0
  143.3213  135.9590  152.3768 H   0  0  0  0  0  0  0  0  0  0  0  0
  145.6905  134.1371  151.9019 H   0  0  0  0  0  0  0  0  0  0  0  0
  144.2344  134.2938  150.9148 H   0  0  0  0  0  0  0  0  0  0  0  0
  144.9275  136.4766  150.1176 H   0  0  0  0  0  0  0  0  0  0  0  0
  146.4581  135.5944  150.1193 H   0  0  0  0  0  0  0  0  0  0  0  0
  147.0363  136.5058  152.0920 H   0  0  0  0  0  0  0  0  0  0  0  0
  1  2  1  0  0  0  0
  1 18  1  0  0  0  0
  1 19  1  0  0  0  0
  1 20  1  0  0  0  0
  2 17  1  0  0  0  0
  2  3  2  0  0  0  0
  3  4  1  0  0  0  0
  3 21  1  0  0  0  0
  4  5  1  0  0  0  0
  4 16  2  0  0  0  0
  5  6  1  0  0  0  0
  5 22  1  0  0  0  0
  6  7  2  0  0  0  0
  6  8  1  0  0  0  0
  8  9  1  0  0  0  0
  8 23  1  0  0  0  0
  9 10  1  0  0  0  0
  9 24  1  0  0  0  0
  9 25  1  0  0  0  0
 10 11  1  0  0  0  0
 10 26  1  0  0  0  0
 10 27  1  0  0  0  0
 11 15  1  0  0  0  0
 11 12  1  0  0  0  0
 11 36  1  0  0  0  0
 12 13  1  0  0  0  0
 12 28  1  0  0  0  0
 12 29  1  0  0  0  0
 13 14  1  0  0  0  0
 13 30  1  0  0  0  0
 13 31  1  0  0  0  0
 14 15  1  0  0  0  0
 14 32  1  0  0  0  0
 14 33  1  0  0  0  0
 15 34  1  0  0  0  0
 15 35  1  0  0  0  0
 16 17  1  0  0  0  0
M  CHG  1  11   1
M  END
> <s_m_source_file>
AV-unprocessed.smi

> <i_m_source_file_index>
855

> <i_lp_mmshare_version>
43012

> <i_f3d_flags>
0

> <s_epik_input>
W0NIM11jMVtjSF1jKG5vMSlbTkhdQyg9TylbTkhdW0NIMl1bQ0gyXU4yW0NIMl1bQ0gyXVtDSDJdW0NIMl0y

> <s_epik_cmdline>
J2VwaWtfcHl0aG9uJywgJy1waCcsICc3LjAnLCAnLXRuJywgJzgnLCAnLW1hJywgJzIwMCcsICctbWV0YWxfYmluZGluZycsICctaW1hZScsICc8aW5maWxlLm1hZT4nLCAnLW9tYWUnLCAnPG91dGZpbGUubWFlPic=

> <r_epik_Ionization_Penalty>
0.00243703

> <r_epik_Ionization_Penalty_Charging>
0.00240122

> <r_epik_Ionization_Penalty_Neutral>
3.58091e-05

> <r_epik_State_Penalty>
0.00166069

> <r_epik_Charging_Adjusted_Penalty>
0.00406191

> <i_epik_Tot_Q>
1

> <i_epik_Tot_abs_Q>
1

> <r_epik_Metal_State_Penalty>
0.021664

> <b_epik_Metal_Only>
0

> <s_lp_Force_Field>
OPLS_2005

> <r_lp_Energy>
23.058

> <b_lp_Chiralities_Consistent>
1

> <s_lp_Variant>
AV-unprocessed.smi:855-1

> <Gold.Version>
5.8.1

> <Gold.Id.Protein>
6NUR|6NUR_protein|mol2

> <Gold.PLP.Fitness>
40.5901

> <Gold.PLP.PLP>
-28.7132

> <Gold.PLP.part.hbond>
-4.4610

> <Gold.PLP.part.metal>
0.0000

> <Gold.PLP.part.buried>
-0.6507

> <Gold.PLP.part.nonpolar>
-24.6065

> <Gold.PLP.part.repulsive>
0.3102

> <Gold.PLP.ligand.clash>
0.0000

> <Gold.PLP.ligand.torsion>
0.0699

> <Gold.PLP.Chemscore.Hbond>
4.0000

> <Gold.PLP.Chemscore.CHOScore>
0.0000

> <Gold.PLP.Chemscore.Metal>
0.0000

> <Gold.Chemscore.Hbonds>
donor molecule, donor type, donor heavy atom, donor atom, acceptor molecule, acceptor atom, score
      L1  H     8    23       P1  7948  1.00
      L1  H    11    36       P1  7948  2.00
      P1  H  7997  8010       L1    17  1.00

> <Gold.PLP.Chemscore.Internal.Correction>
0.0165

> <Gold.Rescore>
     Score         DG    S(hbond)    S(metal)    S(lipo)     H(rot)  DE(clash)    DE(int)     intcor
     15.98     -17.74       2.91        0.00      56.81       1.60       0.34       1.42       ----

> <Gold.Chemscore.Fitness>
15.9762

> <Gold.Chemscore.DG>
-17.7388

> <Gold.Chemscore.ZeroCoef>
-5.4800

> <Gold.Chemscore.Hbond>
2.9082

> <Gold.Chemscore.Metal>
0.0000

> <Gold.Chemscore.Lipo>
56.8068

> <Gold.Chemscore.Internal_Hbond>
0.0000

> <Gold.Chemscore.DEClash>
0.3393

> <Gold.Chemscore.DEInternal>
1.4233

> <Gold.Chemscore.Rot>
1.6019

> <Gold.Chemscore.Internal.Correction>
   9.000000E+99

> <Gold.Chemscore.Hbonds>
donor molecule, donor type, donor heavy atom, donor atom, acceptor molecule, acceptor atom, score
      L1  H     8    23       P1  7948  0.99
      L1  H    11    36       P1  7948  0.95
      P1  H  7997  8010       L1    17  0.86

> <Gold.Chemscore.Hbond.Weighted>
-9.7133

> <Gold.Chemscore.Metal.Weighted>
-0.0000

> <Gold.Chemscore.Lipo.Weighted>
-6.6464

> <Gold.Chemscore.Internal_Hbond.Weighted>
0.0000

> <Gold.Chemscore.DEClash.Weighted>
0.3393

> <Gold.Chemscore.DEInternal.Weighted>
1.4233

> <Gold.Chemscore.Rot.Weighted>
4.1009

> <Gold.Chemscore.Internal.Correction.Weighted>
   9.000000E+99

> <Gold.Protein.RotatedTorsions>
[ 6907 6896 6895 6894 ] final   14.09 input  -60.11 | X-H torsion
[ 7974 7965 7964 7962 ] final   59.72 input  175.53 | X-H torsion
[ 8008 7997 7996 7995 ] final   56.76 input   59.86 | X-H torsion
[ 10167 10162 10161 10158 ] final  -37.82 input  -65.29 | X-H torsion
[ 10718 10713 10712 10709 ] final  -46.68 input   66.30 | X-H torsion
[ 10763 10752 10751 10750 ] final -150.10 input  -60.55 | X-H torsion
[ 11005 11000 10999 10996 ] final -115.06 input  -57.11 | X-H torsion

> <Gold.Protein.ActiveResidues>
 VAL166  LYS551  ARG553  GLY616  TRP617  ASP618  TYR619  PRO620  LYS621  CYS622 
 ASP623  PHE694  ASN695  SER759  ASP760  ASP761  ALA762  ILE779  LEU786  VAL792 
 PHE793  MET794  SER795  GLU796  ALA797  LYS798  CYS799  TRP800  GLU811  SER814 

> <Gold.Protein.RotatedAtoms>
  151.7968  135.0720  160.0394 H   0  0  0  0  0  0  0  0  0  0  0  0  # atno 6907 bound_to 6896
  152.3118  133.5756  159.5694 H   0  0  0  0  0  0  0  0  0  0  0  0  # atno 6908 bound_to 6896
  150.7323  134.0058  159.3695 H   0  0  0  0  0  0  0  0  0  0  0  0  # atno 6909 bound_to 6896
  145.9040  139.3603  143.0575 H   0  0  0  0  0  0  0  0  0  0  0  0  # atno 7974 bound_to 7965
  155.5227  140.3480  155.4410 H   0  0  0  0  0  0  0  0  0  0  0  0  # atno 8008 bound_to 7997
  156.0773  140.1378  156.9782 H   0  0  0  0  0  0  0  0  0  0  0  0  # atno 8009 bound_to 7997
  154.4560  140.0953  156.6735 H   0  0  0  0  0  0  0  0  0  0  0  0  # atno 8010 bound_to 7997
  140.7108  143.3317  151.2555 H   0  0  0  0  0  0  0  0  0  0  0  0  # atno 10167 bound_to 10162
  156.2159  130.4163  149.9055 H   0  0  0  0  0  0  0  0  0  0  0  0  # atno 10718 bound_to 10713
  154.8139  135.3292  154.7231 H   0  0  0  0  0  0  0  0  0  0  0  0  # atno 10763 bound_to 10752
  153.7875  135.6913  153.4882 H   0  0  0  0  0  0  0  0  0  0  0  0  # atno 10764 bound_to 10752
  153.1939  135.4541  155.0130 H   0  0  0  0  0  0  0  0  0  0  0  0  # atno 10765 bound_to 10752
  141.0512  133.9684  157.2832 H   0  0  0  0  0  0  0  0  0  0  0  0  # atno 11005 bound_to 11000
  145.8755  140.9394  143.0628 LP  0  0  0  0  0  0  0  0  0  0  0  0  # atno 17320 bound_to 7965
  144.6738  140.0710  143.7473 LP  0  0  0  0  0  0  0  0  0  0  0  0  # atno 17321 bound_to 7965
  139.6800  143.9870  152.2803 LP  0  0  0  0  0  0  0  0  0  0  0  0  # atno 17342 bound_to 10162
  139.9497  144.6628  150.8184 LP  0  0  0  0  0  0  0  0  0  0  0  0  # atno 17343 bound_to 10162
  156.6717  130.8823  151.3563 LP  0  0  0  0  0  0  0  0  0  0  0  0  # atno 17370 bound_to 10713
  157.7063  130.9388  150.0941 LP  0  0  0  0  0  0  0  0  0  0  0  0  # atno 17371 bound_to 10713
  139.9352  135.0197  156.8532 LP  0  0  0  0  0  0  0  0  0  0  0  0  # atno 17394 bound_to 11000
  140.6051  134.0135  155.7553 LP  0  0  0  0  0  0  0  0  0  0  0  0  # atno 17395 bound_to 11000

$$$$
