AV-unprocessed.smi:828|AV-procd|sdf|3860|dock6
  -GOLD-   22720 1313D 1   1.00000     0.00000
 Structure written by MMmdl.
 35 36  0  0  0  0  0  0  0  0  2 V2000
  153.8786  141.5338  160.0876 C   0  0  0  0  0  0  0  0  0  0  0  0
  152.9883  140.8686  159.0947 C   0  0  0  0  0  0  0  0  0  0  0  0
  153.4147  139.8978  158.2774 N   0  0  0  0  0  0  0  0  0  0  0  0
  152.4093  139.4365  157.4389 N   0  0  0  0  0  0  0  0  0  0  0  0
  151.2507  140.0763  157.6496 C   0  0  0  0  0  0  0  0  0  0  0  0
  150.0587  139.8087  156.9261 N   0  0  0  0  0  0  0  0  0  0  0  0
  149.8773  139.7982  155.5941 C   0  0  0  0  0  0  0  0  0  0  0  0
  150.7534  139.9970  154.7519 O   0  0  0  0  0  0  0  0  0  0  0  0
  148.5995  139.5420  155.2797 N   0  0  0  0  0  0  0  0  0  0  0  0
  148.0718  139.4612  153.9212 C   0  0  0  0  0  0  0  0  0  0  0  0
  147.0880  140.6162  153.6042 C   0  0  2  0  0  0  0  0  0  0  0  0
  147.6877  142.0104  153.8534 C   0  0  0  0  0  0  0  0  0  0  0  0
  146.4840  142.8737  154.2041 C   0  0  0  0  0  0  0  0  0  0  0  0
  145.6039  141.9051  154.9866 C   0  0  0  0  0  0  0  0  0  0  0  0
  145.7870  140.5892  154.3371 N   0  3  2  0  0  0  0  0  0  0  0  0
  145.5156  139.4436  155.2365 C   0  0  0  0  0  0  0  0  0  0  0  0
  151.2954  141.3069  158.9005 S   0  0  0  0  0  0  0  0  0  0  0  0
  154.6007  140.8216  160.4880 H   0  0  0  0  0  0  0  0  0  0  0  0
  153.2908  141.9340  160.9138 H   0  0  0  0  0  0  0  0  0  0  0  0
  154.4189  142.3527  159.6127 H   0  0  0  0  0  0  0  0  0  0  0  0
  149.2464  139.6110  157.4918 H   0  0  0  0  0  0  0  0  0  0  0  0
  147.9451  139.3883  156.0331 H   0  0  0  0  0  0  0  0  0  0  0  0
  148.9089  139.4560  153.2215 H   0  0  0  0  0  0  0  0  0  0  0  0
  147.5721  138.4973  153.8245 H   0  0  0  0  0  0  0  0  0  0  0  0
  146.8138  140.5555  152.5502 H   0  0  0  0  0  0  0  0  0  0  0  0
  148.3703  141.9830  154.7039 H   0  0  0  0  0  0  0  0  0  0  0  0
  148.2419  142.3901  152.9945 H   0  0  0  0  0  0  0  0  0  0  0  0
  146.7498  143.7629  154.7766 H   0  0  0  0  0  0  0  0  0  0  0  0
  145.9748  143.1939  153.2939 H   0  0  0  0  0  0  0  0  0  0  0  0
  145.9508  141.8576  156.0203 H   0  0  0  0  0  0  0  0  0  0  0  0
  144.5558  142.2054  154.9974 H   0  0  0  0  0  0  0  0  0  0  0  0
  146.2345  139.3955  156.0549 H   0  0  0  0  0  0  0  0  0  0  0  0
  145.5388  138.5009  154.6895 H   0  0  0  0  0  0  0  0  0  0  0  0
  144.5209  139.5406  155.6724 H   0  0  0  0  0  0  0  0  0  0  0  0
  145.0841  140.5440  153.6126 H   0  0  0  0  0  0  0  0  0  0  0  0
  1  2  1  0  0  0  0
  1 18  1  0  0  0  0
  1 19  1  0  0  0  0
  1 20  1  0  0  0  0
  2 17  1  0  0  0  0
  2  3  2  0  0  0  0
  3  4  1  0  0  0  0
  4  5  2  0  0  0  0
  5  6  1  0  0  0  0
  5 17  1  0  0  0  0
  6  7  1  0  0  0  0
  6 21  1  0  0  0  0
  7  8  2  0  0  0  0
  7  9  1  0  0  0  0
  9 10  1  0  0  0  0
  9 22  1  0  0  0  0
 10 11  1  0  0  0  0
 10 23  1  0  0  0  0
 10 24  1  0  0  0  0
 11 15  1  0  0  0  0
 11 12  1  0  0  0  0
 11 25  1  0  0  0  0
 12 13  1  0  0  0  0
 12 26  1  0  0  0  0
 12 27  1  0  0  0  0
 13 14  1  0  0  0  0
 13 28  1  0  0  0  0
 13 29  1  0  0  0  0
 14 15  1  0  0  0  0
 14 30  1  0  0  0  0
 14 31  1  0  0  0  0
 15 16  1  0  0  0  0
 15 35  1  0  0  0  0
 16 32  1  0  0  0  0
 16 33  1  0  0  0  0
 16 34  1  0  0  0  0
M  CHG  1  15   1
M  END
> <s_m_source_file>
AV-unprocessed.smi

> <i_m_source_file_index>
828

> <i_lp_mmshare_version>
43012

> <i_f3d_flags>
0

> <s_epik_input>
W0NIM11jMW5uYyhzMSlbTkhdQyg9TylbTkhdW0NIMl1bQ0BASF0yW0NIMl1bQ0gyXVtDSDJdTjJbQ0gzXQ==

> <s_epik_cmdline>
J2VwaWtfcHl0aG9uJywgJy1waCcsICc3LjAnLCAnLXRuJywgJzgnLCAnLW1hJywgJzIwMCcsICctbWV0YWxfYmluZGluZycsICctaW1hZScsICc8aW5maWxlLm1hZT4nLCAnLW9tYWUnLCAnPG91dGZpbGUubWFlPic=

> <r_lp_tautomer_probability>
1

> <r_epik_Ionization_Penalty>
0.00466477

> <r_epik_Ionization_Penalty_Charging>
0.00372199

> <r_epik_Ionization_Penalty_Neutral>
0.000942783

> <r_epik_State_Penalty>
-0

> <r_epik_Charging_Adjusted_Penalty>
0.00372199

> <i_epik_Tot_Q>
1

> <i_epik_Tot_abs_Q>
1

> <r_epik_Metal_State_Penalty>
0.28212

> <b_epik_Metal_Only>
0

> <s_lp_Force_Field>
OPLS_2005

> <r_lp_Energy>
27.2564

> <b_lp_Chiralities_Consistent>
1

> <s_lp_Variant>
AV-unprocessed.smi:828-3

> <Gold.Version>
5.8.1

> <Gold.Id.Protein>
6NUR|6NUR_protein|mol2

> <Gold.PLP.Fitness>
37.7307

> <Gold.PLP.PLP>
-26.8048

> <Gold.PLP.part.hbond>
-3.3863

> <Gold.PLP.part.metal>
0.0000

> <Gold.PLP.part.buried>
-3.0125

> <Gold.PLP.part.nonpolar>
-19.8191

> <Gold.PLP.part.repulsive>
0.0961

> <Gold.PLP.ligand.clash>
0.0000

> <Gold.PLP.ligand.torsion>
0.5386

> <Gold.PLP.Chemscore.Hbond>
4.0000

> <Gold.PLP.Chemscore.CHOScore>
0.0000

> <Gold.PLP.Chemscore.Metal>
0.0000

> <Gold.Chemscore.Hbonds>
donor molecule, donor type, donor heavy atom, donor atom, acceptor molecule, acceptor atom, score
      L1  H    15    35       P1 10175  2.00
      P1  H  7989  7998       L1     8  1.00
      P1  H  7997  8010       L1     3  1.00

> <Gold.PLP.Chemscore.Internal.Correction>
0.0031

> <Gold.Rescore>
     Score         DG    S(hbond)    S(metal)    S(lipo)     H(rot)  DE(clash)    DE(int)     intcor
     17.40     -17.85       2.78        0.00      55.54       1.33       0.01       0.44       ----

> <Gold.Chemscore.Fitness>
17.3994

> <Gold.Chemscore.DG>
-17.8490

> <Gold.Chemscore.ZeroCoef>
-5.4800

> <Gold.Chemscore.Hbond>
2.7768

> <Gold.Chemscore.Metal>
0.0000

> <Gold.Chemscore.Lipo>
55.5376

> <Gold.Chemscore.Internal_Hbond>
0.0000

> <Gold.Chemscore.DEClash>
0.0069

> <Gold.Chemscore.DEInternal>
0.4427

> <Gold.Chemscore.Rot>
1.3294

> <Gold.Chemscore.Internal.Correction>
   9.000000E+99

> <Gold.Chemscore.Hbonds>
donor molecule, donor type, donor heavy atom, donor atom, acceptor molecule, acceptor atom, score
      L1  H    15    35       P1 10175  0.99
      P1  H  7989  7998       L1     8  1.00
      P1  H  7997  8010       L1     3  0.25

> <Gold.Chemscore.Hbond.Weighted>
-9.2744

> <Gold.Chemscore.Metal.Weighted>
-0.0000

> <Gold.Chemscore.Lipo.Weighted>
-6.4979

> <Gold.Chemscore.Internal_Hbond.Weighted>
0.0000

> <Gold.Chemscore.DEClash.Weighted>
0.0069

> <Gold.Chemscore.DEInternal.Weighted>
0.4427

> <Gold.Chemscore.Rot.Weighted>
3.4033

> <Gold.Chemscore.Internal.Correction.Weighted>
   9.000000E+99

> <Gold.Protein.RotatedTorsions>
[ 6907 6896 6895 6894 ] final  -40.24 input  -60.11 | X-H torsion
[ 7974 7965 7964 7962 ] final   49.72 input  175.53 | X-H torsion
[ 8008 7997 7996 7995 ] final   25.51 input   59.86 | X-H torsion
[ 10167 10162 10161 10158 ] final  -80.93 input  -65.29 | X-H torsion
[ 10718 10713 10712 10709 ] final  -62.39 input   66.30 | X-H torsion
[ 10763 10752 10751 10750 ] final  -58.14 input  -60.55 | X-H torsion
[ 11005 11000 10999 10996 ] final -100.50 input  -57.11 | X-H torsion

> <Gold.Protein.ActiveResidues>
 VAL166  LYS551  ARG553  GLY616  TRP617  ASP618  TYR619  PRO620  LYS621  CYS622 
 ASP623  PHE694  ASN695  SER759  ASP760  ASP761  ALA762  ILE779  LEU786  VAL792 
 PHE793  MET794  SER795  GLU796  ALA797  LYS798  CYS799  TRP800  GLU811  SER814 

> <Gold.Protein.RotatedAtoms>
  150.9807  134.9163  159.7842 H   0  0  0  0  0  0  0  0  0  0  0  0  # atno 6907 bound_to 6896
  152.5221  134.3414  159.9228 H   0  0  0  0  0  0  0  0  0  0  0  0  # atno 6908 bound_to 6896
  151.3421  133.3917  159.2706 H   0  0  0  0  0  0  0  0  0  0  0  0  # atno 6909 bound_to 6896
  146.0081  139.4513  142.9973 H   0  0  0  0  0  0  0  0  0  0  0  0  # atno 7974 bound_to 7965
  155.0129  140.3138  155.4823 H   0  0  0  0  0  0  0  0  0  0  0  0  # atno 8008 bound_to 7997
  156.2906  140.2211  156.5186 H   0  0  0  0  0  0  0  0  0  0  0  0  # atno 8009 bound_to 7997
  154.7519  140.0465  157.0888 H   0  0  0  0  0  0  0  0  0  0  0  0  # atno 8010 bound_to 7997
  140.4458  143.2499  151.8561 H   0  0  0  0  0  0  0  0  0  0  0  0  # atno 10167 bound_to 10162
  156.0858  130.4208  150.1129 H   0  0  0  0  0  0  0  0  0  0  0  0  # atno 10718 bound_to 10713
  154.2334  135.6356  153.5183 H   0  0  0  0  0  0  0  0  0  0  0  0  # atno 10763 bound_to 10752
  152.9944  135.5525  154.5988 H   0  0  0  0  0  0  0  0  0  0  0  0  # atno 10764 bound_to 10752
  154.5477  135.2899  155.1012 H   0  0  0  0  0  0  0  0  0  0  0  0  # atno 10765 bound_to 10752
  141.1268  133.8404  157.1111 H   0  0  0  0  0  0  0  0  0  0  0  0  # atno 11005 bound_to 11000
  145.7384  141.0017  143.1314 LP  0  0  0  0  0  0  0  0  0  0  0  0  # atno 17320 bound_to 7965
  144.6943  139.9069  143.7461 LP  0  0  0  0  0  0  0  0  0  0  0  0  # atno 17321 bound_to 7965
  139.4792  144.5177  151.8845 LP  0  0  0  0  0  0  0  0  0  0  0  0  # atno 17342 bound_to 10162
  140.4265  144.2173  150.5887 LP  0  0  0  0  0  0  0  0  0  0  0  0  # atno 17343 bound_to 10162
  156.9150  130.9664  151.3557 LP  0  0  0  0  0  0  0  0  0  0  0  0  # atno 17370 bound_to 10713
  157.5992  130.8500  149.8775 LP  0  0  0  0  0  0  0  0  0  0  0  0  # atno 17371 bound_to 10713
  140.0274  134.9917  157.0714 LP  0  0  0  0  0  0  0  0  0  0  0  0  # atno 17394 bound_to 11000
  140.4340  134.1751  155.7169 LP  0  0  0  0  0  0  0  0  0  0  0  0  # atno 17395 bound_to 11000

$$$$
