AV-unprocessed.smi:37|AV-procd|sdf|312|dock2
  -GOLD-   2262016123D 1   1.00000     0.00000
 Structure written by MMmdl.
 44 45  0  0  0  0  0  0  0  0  1 V2000
  153.9859  136.8463  159.9367 C   0  0  0  0  0  0  0  0  0  0  0  0
  154.3673  137.9236  158.9124 C   0  0  0  0  0  0  0  0  0  0  0  0
  153.6678  137.7183  157.5705 C   0  0  0  0  0  0  0  0  0  0  0  0
  153.7423  136.6490  156.9651 O   0  0  0  0  0  0  0  0  0  0  0  0
  152.9894  138.8046  157.1690 O   0  0  0  0  0  0  0  0  0  0  0  0
  152.2205  138.7514  155.9793 C   0  0  0  0  0  0  0  0  0  0  0  0
  151.6129  140.1331  155.7065 C   0  0  1  0  0  0  0  0  0  0  0  0
  150.5657  139.9738  154.7511 O   0  0  0  0  0  0  0  0  0  0  0  0
  149.3938  140.5383  155.2447 C   0  0  1  0  0  0  0  0  0  0  0  0
  148.1800  139.8347  154.6745 N   0  0  0  0  0  0  0  0  0  0  0  0
  148.0368  138.4682  154.8695 C   0  0  0  0  0  0  0  0  0  0  0  0
  146.9753  137.7618  154.4143 C   0  0  0  0  0  0  0  0  0  0  0  0
  146.9144  136.4379  154.6373 F   0  0  0  0  0  0  0  0  0  0  0  0
  145.8984  138.4239  153.6851 C   0  0  0  0  0  0  0  0  0  0  0  0
  144.8995  137.8702  153.2305 O   0  0  0  0  0  0  0  0  0  0  0  0
  146.0728  139.8014  153.5260 N   0  0  0  0  0  0  0  0  0  0  0  0
  147.1595  140.5428  153.9935 C   0  0  0  0  0  0  0  0  0  0  0  0
  147.1886  141.7581  153.8064 O   0  0  0  0  0  0  0  0  0  0  0  0
  149.4909  140.5634  156.7769 C   0  0  1  0  0  0  0  0  0  0  0  0
  148.9704  138.8703  157.6979 Br  0  0  0  0  0  0  0  0  0  0  0  0
  150.9862  140.7759  156.9584 C   0  0  2  0  0  0  0  0  0  0  0  0
  151.3001  142.1645  156.9584 O   0  0  0  0  0  0  0  0  0  0  0  0
  151.1354  142.9006  158.0735 C   0  0  0  0  0  0  0  0  0  0  0  0
  150.6054  142.5207  159.1176 O   0  0  0  0  0  0  0  0  0  0  0  0
  151.6688  144.3237  157.9244 C   0  0  0  0  0  0  0  0  0  0  0  0
  151.5442  145.1293  159.2247 C   0  0  0  0  0  0  0  0  0  0  0  0
  145.3480  140.3045  153.0354 H   0  0  0  0  0  0  0  0  0  0  0  0
  154.4563  137.0483  160.8989 H   0  0  0  0  0  0  0  0  0  0  0  0
  154.3086  135.8558  159.6145 H   0  0  0  0  0  0  0  0  0  0  0  0
  152.9075  136.8143  160.0963 H   0  0  0  0  0  0  0  0  0  0  0  0
  154.1051  138.9092  159.2979 H   0  0  0  0  0  0  0  0  0  0  0  0
  155.4457  137.9229  158.7524 H   0  0  0  0  0  0  0  0  0  0  0  0
  152.8664  138.4600  155.1501 H   0  0  0  0  0  0  0  0  0  0  0  0
  151.4376  137.9969  156.0629 H   0  0  0  0  0  0  0  0  0  0  0  0
  152.3787  140.7801  155.2759 H   0  0  0  0  0  0  0  0  0  0  0  0
  149.3570  141.5515  154.8399 H   0  0  0  0  0  0  0  0  0  0  0  0
  148.8090  137.9301  155.4006 H   0  0  0  0  0  0  0  0  0  0  0  0
  148.8766  141.3641  157.1899 H   0  0  0  0  0  0  0  0  0  0  0  0
  151.3564  140.3130  157.8748 H   0  0  0  0  0  0  0  0  0  0  0  0
  152.7117  144.2782  157.6102 H   0  0  0  0  0  0  0  0  0  0  0  0
  151.1194  144.8237  157.1263 H   0  0  0  0  0  0  0  0  0  0  0  0
  151.8924  146.1516  159.0770 H   0  0  0  0  0  0  0  0  0  0  0  0
  152.1401  144.6914  160.0262 H   0  0  0  0  0  0  0  0  0  0  0  0
  150.5085  145.1787  159.5630 H   0  0  0  0  0  0  0  0  0  0  0  0
  1  2  1  0  0  0  0
  1 28  1  0  0  0  0
  1 29  1  0  0  0  0
  1 30  1  0  0  0  0
  2  3  1  0  0  0  0
  2 31  1  0  0  0  0
  2 32  1  0  0  0  0
  3  4  2  0  0  0  0
  3  5  1  0  0  0  0
  5  6  1  0  0  0  0
  6  7  1  0  0  0  0
  6 33  1  0  0  0  0
  6 34  1  0  0  0  0
  7 21  1  0  0  0  0
  7  8  1  0  0  0  0
  7 35  1  0  0  0  0
  8  9  1  0  0  0  0
  9 10  1  0  0  0  0
  9 19  1  0  0  0  0
  9 36  1  0  0  0  0
 10 17  1  0  0  0  0
 10 11  1  0  0  0  0
 11 12  2  0  0  0  0
 11 37  1  0  0  0  0
 12 13  1  0  0  0  0
 12 14  1  0  0  0  0
 14 15  2  0  0  0  0
 14 16  1  0  0  0  0
 16 27  1  0  0  0  0
 16 17  1  0  0  0  0
 17 18  2  0  0  0  0
 19 20  1  0  0  0  0
 19 21  1  0  0  0  0
 19 38  1  0  0  0  0
 21 22  1  0  0  0  0
 21 39  1  0  0  0  0
 22 23  1  0  0  0  0
 23 24  2  0  0  0  0
 23 25  1  0  0  0  0
 25 26  1  0  0  0  0
 25 40  1  0  0  0  0
 25 41  1  0  0  0  0
 26 42  1  0  0  0  0
 26 43  1  0  0  0  0
 26 44  1  0  0  0  0
M  END
> <s_m_source_file>
AV-unprocessed.smi

> <i_m_source_file_index>
37

> <i_lp_mmshare_version>
43012

> <i_f3d_flags>
0

> <s_epik_input>
W0NIM11bQ0gyXUMoPU8pT1tDSDJdW0NAQEhdMU9bQ0BASF0objJbY0hdYyhGKWMoPU8pW25IXWMyPU8pW0NAQEhdKEJyKVtDQEhdMU9DKD1PKVtDSDJdW0NIM10=

> <s_epik_cmdline>
J2VwaWtfcHl0aG9uJywgJy1waCcsICc3LjAnLCAnLXRuJywgJzgnLCAnLW1hJywgJzIwMCcsICctbWV0YWxfYmluZGluZycsICctaW1hZScsICc8aW5maWxlLm1hZT4nLCAnLW9tYWUnLCAnPG91dGZpbGUubWFlPic=

> <r_lp_tautomer_probability>
0.999537

> <r_epik_Ionization_Penalty>
0.104106

> <r_epik_Ionization_Penalty_Charging>
0.104106

> <r_epik_Ionization_Penalty_Neutral>
3.94675e-16

> <r_epik_State_Penalty>
0.0940182

> <r_epik_Charging_Adjusted_Penalty>
0.198124

> <i_epik_Tot_Q>
0

> <i_epik_Tot_abs_Q>
0

> <r_epik_Metal_State_Penalty>
3.05314

> <b_epik_Metal_Only>
0

> <s_epik_Chemistry_Notes>
This compound has an ester and may undergo hydrolysis at high or low pH. This compound contains an acetal/aminal-like group ( X-CH(R)-Y where X, Y are N, S, or O) that may be acid/base labile, releasing an aldehyde.

> <s_lp_Force_Field>
OPLS_2005

> <r_lp_Energy>
23.0288

> <b_lp_Chiralities_Consistent>
1

> <s_lp_Variant>
AV-unprocessed.smi:37-10

> <Gold.Version>
5.8.1

> <Gold.Id.Protein>
6NUR|6NUR_protein|mol2

> <Gold.PLP.Fitness>
41.8085

> <Gold.PLP.PLP>
-34.1737

> <Gold.PLP.part.hbond>
-4.4148

> <Gold.PLP.part.metal>
0.0000

> <Gold.PLP.part.buried>
-3.9412

> <Gold.PLP.part.nonpolar>
-26.5626

> <Gold.PLP.part.repulsive>
0.5160

> <Gold.PLP.ligand.clash>
0.0000

> <Gold.PLP.ligand.torsion>
0.4368

> <Gold.PLP.Chemscore.Hbond>
2.7760

> <Gold.PLP.Chemscore.CHOScore>
0.0000

> <Gold.PLP.Chemscore.Metal>
0.0000

> <Gold.Chemscore.Hbonds>
donor molecule, donor type, donor heavy atom, donor atom, acceptor molecule, acceptor atom, score
      L1  H    16    27       P1 10175  1.00
      P1  H  7989  7998       L1     8  0.45
      P1  H 10752 10763       L1     4  0.91

> <Gold.PLP.Chemscore.Internal.Correction>
0.1804

> <Gold.Rescore>
     Score         DG    S(hbond)    S(metal)    S(lipo)     H(rot)  DE(clash)    DE(int)     intcor
      9.28     -10.20       2.03        0.00      55.12       3.33       0.05       0.86       ----

> <Gold.Chemscore.Fitness>
9.2830

> <Gold.Chemscore.DG>
-10.1960

> <Gold.Chemscore.ZeroCoef>
-5.4800

> <Gold.Chemscore.Hbond>
2.0338

> <Gold.Chemscore.Metal>
0.0000

> <Gold.Chemscore.Lipo>
55.1175

> <Gold.Chemscore.Internal_Hbond>
0.0000

> <Gold.Chemscore.DEClash>
0.0484

> <Gold.Chemscore.DEInternal>
0.8646

> <Gold.Chemscore.Rot>
3.3303

> <Gold.Chemscore.Internal.Correction>
   9.000000E+99

> <Gold.Chemscore.Hbonds>
donor molecule, donor type, donor heavy atom, donor atom, acceptor molecule, acceptor atom, score
      L1  H    16    27       P1 10175  0.94
      P1  H  7989  7998       L1     8  0.02
      P1  H 10752 10763       L1     4  0.82

> <Gold.Chemscore.Hbond.Weighted>
-6.7929

> <Gold.Chemscore.Metal.Weighted>
-0.0000

> <Gold.Chemscore.Lipo.Weighted>
-6.4487

> <Gold.Chemscore.Internal_Hbond.Weighted>
0.0000

> <Gold.Chemscore.DEClash.Weighted>
0.0484

> <Gold.Chemscore.DEInternal.Weighted>
0.8646

> <Gold.Chemscore.Rot.Weighted>
8.5256

> <Gold.Chemscore.Internal.Correction.Weighted>
   9.000000E+99

> <Gold.Protein.RotatedTorsions>
[ 6907 6896 6895 6894 ] final   39.17 input  -60.11 | X-H torsion
[ 7974 7965 7964 7962 ] final   55.81 input  175.53 | X-H torsion
[ 8008 7997 7996 7995 ] final  -78.68 input   59.86 | X-H torsion
[ 10167 10162 10161 10158 ] final   93.37 input  -65.29 | X-H torsion
[ 10718 10713 10712 10709 ] final -132.74 input   66.30 | X-H torsion
[ 10763 10752 10751 10750 ] final  141.33 input  -60.55 | X-H torsion
[ 11005 11000 10999 10996 ] final   84.57 input  -57.11 | X-H torsion

> <Gold.Protein.ActiveResidues>
 VAL166  LYS551  ARG553  GLY616  TRP617  ASP618  TYR619  PRO620  LYS621  CYS622 
 ASP623  PHE694  ASN695  SER759  ASP760  ASP761  ALA762  ILE779  LEU786  VAL792 
 PHE793  MET794  SER795  GLU796  ALA797  LYS798  CYS799  TRP800  GLU811  SER814 

> <Gold.Protein.RotatedAtoms>
  152.1660  134.8873  160.0537 H   0  0  0  0  0  0  0  0  0  0  0  0  # atno 6907 bound_to 6896
  151.9851  133.3766  159.4130 H   0  0  0  0  0  0  0  0  0  0  0  0  # atno 6908 bound_to 6896
  150.6894  134.3920  159.5124 H   0  0  0  0  0  0  0  0  0  0  0  0  # atno 6909 bound_to 6896
  145.9465  139.3934  143.0332 H   0  0  0  0  0  0  0  0  0  0  0  0  # atno 7974 bound_to 7965
  154.5712  140.0690  156.8967 H   0  0  0  0  0  0  0  0  0  0  0  0  # atno 8008 bound_to 7997
  155.2631  140.3360  155.4253 H   0  0  0  0  0  0  0  0  0  0  0  0  # atno 8009 bound_to 7997
  156.2120  140.1763  156.7660 H   0  0  0  0  0  0  0  0  0  0  0  0  # atno 8010 bound_to 7997
  139.8187  144.6741  150.9547 H   0  0  0  0  0  0  0  0  0  0  0  0  # atno 10167 bound_to 10162
  156.2377  130.7076  151.0924 H   0  0  0  0  0  0  0  0  0  0  0  0  # atno 10718 bound_to 10713
  153.9375  135.2983  155.3444 H   0  0  0  0  0  0  0  0  0  0  0  0  # atno 10763 bound_to 10752
  154.7494  135.4987  153.9265 H   0  0  0  0  0  0  0  0  0  0  0  0  # atno 10764 bound_to 10752
  153.1059  135.6746  153.9693 H   0  0  0  0  0  0  0  0  0  0  0  0  # atno 10765 bound_to 10752
  139.8996  134.8225  156.2463 H   0  0  0  0  0  0  0  0  0  0  0  0  # atno 11005 bound_to 11000
  145.8230  140.9670  143.0889 LP  0  0  0  0  0  0  0  0  0  0  0  0  # atno 17320 bound_to 7965
  144.6788  140.0065  143.7484 LP  0  0  0  0  0  0  0  0  0  0  0  0  # atno 17321 bound_to 7965
  140.7814  143.4113  151.0988 LP  0  0  0  0  0  0  0  0  0  0  0  0  # atno 17342 bound_to 10162
  139.7775  143.8404  152.3132 LP  0  0  0  0  0  0  0  0  0  0  0  0  # atno 17343 bound_to 10162
  157.7161  131.0708  150.6319 LP  0  0  0  0  0  0  0  0  0  0  0  0  # atno 17370 bound_to 10713
  156.6391  130.4453  149.5759 LP  0  0  0  0  0  0  0  0  0  0  0  0  # atno 17371 bound_to 10713
  141.0253  133.7019  156.1337 LP  0  0  0  0  0  0  0  0  0  0  0  0  # atno 17394 bound_to 11000
  140.7175  134.4394  157.5577 LP  0  0  0  0  0  0  0  0  0  0  0  0  # atno 17395 bound_to 11000

$$$$
