AV-unprocessed.smi:3347|AV-procd|sdf|12911|dock5
  -GOLD-   2272019323D 1   1.00000     0.00000
 Structure written by MMmdl.
 40 42  0  0  0  0  0  0  0  0  2 V2000
  150.4088  140.4916  156.4627 O   0  0  0  0  0  0  0  0  0  0  0  0
  150.1472  141.6475  156.1323 C   0  0  0  0  0  0  0  0  0  0  0  0
  149.3897  141.9551  155.0696 N   0  0  0  0  0  0  0  0  0  0  0  0
  148.7404  140.9924  154.1846 C   0  0  0  0  0  0  0  0  0  0  0  0
  147.2778  141.3718  153.8837 C   0  0  2  0  0  0  0  0  0  0  0  0
  147.0570  142.8736  153.7141 C   0  0  0  0  0  0  0  0  0  0  0  0
  145.5578  143.0685  153.9711 C   0  0  0  0  0  0  0  0  0  0  0  0
  145.0942  141.8768  154.7194 N   0  3  2  0  0  0  0  0  0  0  0  0
  144.2951  142.1894  155.9232 C   0  0  0  0  0  0  0  0  0  0  0  0
  143.6026  143.5294  155.8565 C   0  0  0  0  0  0  0  0  0  0  0  0
  144.8334  143.3535  156.7199 C   0  0  0  0  0  0  0  0  0  0  0  0
  146.2744  141.0298  154.9877 C   0  0  0  0  0  0  0  0  0  0  0  0
  150.5644  142.7584  156.7640 N   0  0  0  0  0  0  0  0  0  0  0  0
  151.3468  142.8882  157.9450 C   0  0  0  0  0  0  0  0  0  0  0  0
  151.8169  141.8078  158.7319 C   0  0  0  0  0  0  0  0  0  0  0  0
  152.5877  142.0856  159.8775 C   0  0  0  0  0  0  0  0  0  0  0  0
  152.8644  143.4293  160.1943 C   0  0  0  0  0  0  0  0  0  0  0  0
  152.4298  144.4682  159.4513 N   0  0  0  0  0  0  0  0  0  0  0  0
  151.6915  144.1943  158.3549 C   0  0  0  0  0  0  0  0  0  0  0  0
  149.2260  142.9320  154.8737 H   0  0  0  0  0  0  0  0  0  0  0  0
  149.3070  140.8750  153.2591 H   0  0  0  0  0  0  0  0  0  0  0  0
  148.7673  140.0219  154.6809 H   0  0  0  0  0  0  0  0  0  0  0  0
  146.9622  140.8761  152.9639 H   0  0  0  0  0  0  0  0  0  0  0  0
  147.6276  143.4214  154.4659 H   0  0  0  0  0  0  0  0  0  0  0  0
  147.3659  143.2375  152.7335 H   0  0  0  0  0  0  0  0  0  0  0  0
  145.3714  143.9980  154.5115 H   0  0  0  0  0  0  0  0  0  0  0  0
  145.0075  143.1185  153.0311 H   0  0  0  0  0  0  0  0  0  0  0  0
  143.8228  141.3469  156.4256 H   0  0  0  0  0  0  0  0  0  0  0  0
  143.7063  144.1185  154.9471 H   0  0  0  0  0  0  0  0  0  0  0  0
  142.6457  143.6249  156.3657 H   0  0  0  0  0  0  0  0  0  0  0  0
  144.6868  143.3340  157.7980 H   0  0  0  0  0  0  0  0  0  0  0  0
  145.7551  143.8257  156.3846 H   0  0  0  0  0  0  0  0  0  0  0  0
  146.0080  139.9725  155.0028 H   0  0  0  0  0  0  0  0  0  0  0  0
  146.6938  141.2846  155.9627 H   0  0  0  0  0  0  0  0  0  0  0  0
  150.2401  143.6308  156.3732 H   0  0  0  0  0  0  0  0  0  0  0  0
  151.6148  140.7776  158.4873 H   0  0  0  0  0  0  0  0  0  0  0  0
  152.9601  141.2849  160.4994 H   0  0  0  0  0  0  0  0  0  0  0  0
  153.4524  143.6761  161.0660 H   0  0  0  0  0  0  0  0  0  0  0  0
  151.3624  145.0509  157.7848 H   0  0  0  0  0  0  0  0  0  0  0  0
  144.5023  141.3572  154.0872 H   0  0  0  0  0  0  0  0  0  0  0  0
  1  2  2  0  0  0  0
  2  3  1  0  0  0  0
  2 13  1  0  0  0  0
  3  4  1  0  0  0  0
  3 20  1  0  0  0  0
  4  5  1  0  0  0  0
  4 21  1  0  0  0  0
  4 22  1  0  0  0  0
  5 12  1  0  0  0  0
  5  6  1  0  0  0  0
  5 23  1  0  0  0  0
  6  7  1  0  0  0  0
  6 24  1  0  0  0  0
  6 25  1  0  0  0  0
  7  8  1  0  0  0  0
  7 26  1  0  0  0  0
  7 27  1  0  0  0  0
  8  9  1  0  0  0  0
  8 12  1  0  0  0  0
  8 40  1  0  0  0  0
  9 11  1  0  0  0  0
  9 10  1  0  0  0  0
  9 28  1  0  0  0  0
 10 11  1  0  0  0  0
 10 29  1  0  0  0  0
 10 30  1  0  0  0  0
 11 31  1  0  0  0  0
 11 32  1  0  0  0  0
 12 33  1  0  0  0  0
 12 34  1  0  0  0  0
 13 14  1  0  0  0  0
 13 35  1  0  0  0  0
 14 19  1  0  0  0  0
 14 15  2  0  0  0  0
 15 16  1  0  0  0  0
 15 36  1  0  0  0  0
 16 17  2  0  0  0  0
 16 37  1  0  0  0  0
 17 18  1  0  0  0  0
 17 38  1  0  0  0  0
 18 19  2  0  0  0  0
 19 39  1  0  0  0  0
M  CHG  1   8   1
M  END
> <s_m_source_file>
AV-unprocessed.smi

> <i_m_source_file_index>
3347

> <i_lp_mmshare_version>
43012

> <i_f3d_flags>
0

> <s_epik_input>
W2NIXTFuW2NIXVtjSF1bY0hdYzFbTkhdQyg9TylbTkhdW0NIMl1bQ0BASF0yW0NIMl1bQ0gyXU4oW0NIMl0yKVtDSF0zW0NIMl1bQ0gyXTM=

> <s_epik_cmdline>
J2VwaWtfcHl0aG9uJywgJy1waCcsICc3LjAnLCAnLXRuJywgJzgnLCAnLW1hJywgJzIwMCcsICctbWV0YWxfYmluZGluZycsICctaW1hZScsICc8aW5maWxlLm1hZT4nLCAnLW9tYWUnLCAnPG91dGZpbGUubWFlPic=

> <r_epik_Ionization_Penalty>
0.00442629

> <r_epik_Ionization_Penalty_Charging>
0.000203384

> <r_epik_Ionization_Penalty_Neutral>
0.00422291

> <r_epik_State_Penalty>
0.00301008

> <r_epik_Charging_Adjusted_Penalty>
0.00321347

> <i_epik_Tot_Q>
1

> <i_epik_Tot_abs_Q>
1

> <r_epik_Metal_State_Penalty>
-0

> <b_epik_Metal_Only>
0

> <s_lp_Force_Field>
OPLS_2005

> <r_lp_Energy>
39.8414

> <b_lp_Chiralities_Consistent>
1

> <s_lp_Variant>
AV-unprocessed.smi:3347-1

> <Gold.Version>
5.8.1

> <Gold.Id.Protein>
6NUR|6NUR_protein|mol2

> <Gold.PLP.Fitness>
49.2602

> <Gold.PLP.PLP>
-37.8701

> <Gold.PLP.part.hbond>
-3.0000

> <Gold.PLP.part.metal>
0.0000

> <Gold.PLP.part.buried>
-4.7165

> <Gold.PLP.part.nonpolar>
-30.4371

> <Gold.PLP.part.repulsive>
0.2987

> <Gold.PLP.ligand.clash>
0.0000

> <Gold.PLP.ligand.torsion>
0.9224

> <Gold.PLP.Chemscore.Hbond>
3.9920

> <Gold.PLP.Chemscore.CHOScore>
0.0000

> <Gold.PLP.Chemscore.Metal>
0.0000

> <Gold.Chemscore.Hbonds>
donor molecule, donor type, donor heavy atom, donor atom, acceptor molecule, acceptor atom, score
      L1  H     3    20       P1  8028  0.93
      L1  H     8    40       P1 10175  2.00
      L1  H    13    35       P1  8028  1.00

> <Gold.PLP.Chemscore.Internal.Correction>
1.2589

> <Gold.Rescore>
     Score         DG    S(hbond)    S(metal)    S(lipo)     H(rot)  DE(clash)    DE(int)     intcor
     20.05     -22.42       2.90        0.00      93.05       1.42       0.15       2.21       ----

> <Gold.Chemscore.Fitness>
20.0541

> <Gold.Chemscore.DG>
-22.4175

> <Gold.Chemscore.ZeroCoef>
-5.4800

> <Gold.Chemscore.Hbond>
2.9014

> <Gold.Chemscore.Metal>
0.0000

> <Gold.Chemscore.Lipo>
93.0512

> <Gold.Chemscore.Internal_Hbond>
0.0000

> <Gold.Chemscore.DEClash>
0.1487

> <Gold.Chemscore.DEInternal>
2.2147

> <Gold.Chemscore.Rot>
1.4219

> <Gold.Chemscore.Internal.Correction>
   9.000000E+99

> <Gold.Chemscore.Hbonds>
donor molecule, donor type, donor heavy atom, donor atom, acceptor molecule, acceptor atom, score
      L1  H     3    20       P1  8028  0.89
      L1  H     8    40       P1 10175  0.44
      L1  H    13    35       P1  8028  0.97

> <Gold.Chemscore.Hbond.Weighted>
-9.6906

> <Gold.Chemscore.Metal.Weighted>
-0.0000

> <Gold.Chemscore.Lipo.Weighted>
-10.8870

> <Gold.Chemscore.Internal_Hbond.Weighted>
0.0000

> <Gold.Chemscore.DEClash.Weighted>
0.1487

> <Gold.Chemscore.DEInternal.Weighted>
2.2147

> <Gold.Chemscore.Rot.Weighted>
3.6401

> <Gold.Chemscore.Internal.Correction.Weighted>
   9.000000E+99

> <Gold.Protein.RotatedTorsions>
[ 6907 6896 6895 6894 ] final   43.11 input  -60.11 | X-H torsion
[ 7974 7965 7964 7962 ] final -131.22 input  175.53 | X-H torsion
[ 8008 7997 7996 7995 ] final  129.51 input   59.86 | X-H torsion
[ 10167 10162 10161 10158 ] final   76.16 input  -65.29 | X-H torsion
[ 10718 10713 10712 10709 ] final   74.29 input   66.30 | X-H torsion
[ 10763 10752 10751 10750 ] final   25.11 input  -60.55 | X-H torsion
[ 11005 11000 10999 10996 ] final -120.46 input  -57.11 | X-H torsion

> <Gold.Protein.ActiveResidues>
 VAL166  LYS551  ARG553  GLY616  TRP617  ASP618  TYR619  PRO620  LYS621  CYS622 
 ASP623  PHE694  ASN695  SER759  ASP760  ASP761  ALA762  ILE779  LEU786  VAL792 
 PHE793  MET794  SER795  GLU796  ALA797  LYS798  CYS799  TRP800  GLU811  SER814 

> <Gold.Protein.RotatedAtoms>
  152.2163  134.8455  160.0491 H   0  0  0  0  0  0  0  0  0  0  0  0  # atno 6907 bound_to 6896
  151.9255  133.3592  159.3920 H   0  0  0  0  0  0  0  0  0  0  0  0  # atno 6908 bound_to 6896
  150.6988  134.4516  159.5383 H   0  0  0  0  0  0  0  0  0  0  0  0  # atno 6909 bound_to 6896
  144.9400  140.7228  143.4852 H   0  0  0  0  0  0  0  0  0  0  0  0  # atno 7974 bound_to 7965
  156.2937  140.2618  156.2611 H   0  0  0  0  0  0  0  0  0  0  0  0  # atno 8008 bound_to 7997
  154.9787  140.0390  157.2286 H   0  0  0  0  0  0  0  0  0  0  0  0  # atno 8009 bound_to 7997
  154.7791  140.2792  155.6082 H   0  0  0  0  0  0  0  0  0  0  0  0  # atno 8010 bound_to 7997
  139.9952  144.5727  150.7783 H   0  0  0  0  0  0  0  0  0  0  0  0  # atno 10167 bound_to 10162
  157.6586  130.9670  150.1190 H   0  0  0  0  0  0  0  0  0  0  0  0  # atno 10718 bound_to 10713
  153.0715  135.6590  154.0237 H   0  0  0  0  0  0  0  0  0  0  0  0  # atno 10763 bound_to 10752
  153.9881  135.2948  155.3416 H   0  0  0  0  0  0  0  0  0  0  0  0  # atno 10764 bound_to 10752
  154.7091  135.5213  153.8709 H   0  0  0  0  0  0  0  0  0  0  0  0  # atno 10765 bound_to 10752
  141.0142  134.0220  157.3373 H   0  0  0  0  0  0  0  0  0  0  0  0  # atno 11005 bound_to 11000
  145.3006  139.1852  143.4692 LP  0  0  0  0  0  0  0  0  0  0  0  0  # atno 17320 bound_to 7965
  146.3282  140.2996  142.8620 LP  0  0  0  0  0  0  0  0  0  0  0  0  # atno 17321 bound_to 7965
  140.7439  143.2854  151.3480 LP  0  0  0  0  0  0  0  0  0  0  0  0  # atno 17342 bound_to 10162
  139.6311  144.0719  152.2477 LP  0  0  0  0  0  0  0  0  0  0  0  0  # atno 17343 bound_to 10162
  156.2066  130.3664  149.8721 LP  0  0  0  0  0  0  0  0  0  0  0  0  # atno 17370 bound_to 10713
  156.6611  130.8782  151.3547 LP  0  0  0  0  0  0  0  0  0  0  0  0  # atno 17371 bound_to 10713
  139.9107  135.0189  156.7679 LP  0  0  0  0  0  0  0  0  0  0  0  0  # atno 17394 bound_to 11000
  140.6683  133.9583  155.7842 LP  0  0  0  0  0  0  0  0  0  0  0  0  # atno 17395 bound_to 11000

$$$$
