AV-unprocessed.smi:1118|AV-procd|sdf|4815|dock2
  -GOLD-   22720 3363D 1   1.00000     0.00000
 Structure written by MMmdl.
 45 46  0  0  0  0  0  0  0  0  2 V2000
  149.2469  132.3167  153.4221 C   0  0  0  0  0  0  0  0  0  0  0  0
  148.7176  133.5763  153.7983 O   0  0  0  0  0  0  0  0  0  0  0  0
  149.4001  134.1441  154.9042 C   0  0  0  0  0  0  0  0  0  0  0  0
  148.7219  135.4701  155.2818 C   0  0  0  0  0  0  0  0  0  0  0  0
  149.3971  136.6487  154.6811 N   0  3  2  0  0  0  0  0  0  0  0  0
  150.8454  136.6882  155.0080 C   0  0  0  0  0  0  0  0  0  0  0  0
  151.5493  137.8317  154.2596 C   0  0  0  0  0  0  0  0  0  0  0  0
  150.9116  139.2018  154.5718 C   0  0  2  0  0  0  0  0  0  0  0  0
  151.1943  139.7326  155.9974 C   0  0  0  0  0  0  0  0  0  0  0  0
  151.1225  141.1885  156.0554 N   0  0  0  0  0  0  0  0  0  0  0  0
  150.4634  141.8999  156.9837 C   0  0  0  0  0  0  0  0  0  0  0  0
  149.7570  141.3964  157.8571 O   0  0  0  0  0  0  0  0  0  0  0  0
  150.6685  143.4136  156.9463 C   0  0  0  0  0  0  0  0  0  0  0  0
  151.0273  143.9085  158.2633 N   0  0  0  0  0  0  0  0  0  0  0  0
  150.4383  144.9257  158.9855 C   0  0  0  0  0  0  0  0  0  0  0  0
  151.1026  145.0171  160.1751 C   0  0  0  0  0  0  0  0  0  0  0  0
  152.0938  143.9999  160.0882 C   0  0  0  0  0  0  0  0  0  0  0  0
  152.0461  143.3373  158.9436 N   0  0  0  0  0  0  0  0  0  0  0  0
  149.4034  139.1185  154.2720 C   0  0  0  0  0  0  0  0  0  0  0  0
  148.7259  137.9387  154.9958 C   0  0  0  0  0  0  0  0  0  0  0  0
  148.6863  131.9215  152.5748 H   0  0  0  0  0  0  0  0  0  0  0  0
  149.1738  131.5974  154.2391 H   0  0  0  0  0  0  0  0  0  0  0  0
  150.2926  132.4016  153.1231 H   0  0  0  0  0  0  0  0  0  0  0  0
  149.4207  133.4486  155.7433 H   0  0  0  0  0  0  0  0  0  0  0  0
  150.4377  134.3379  154.6280 H   0  0  0  0  0  0  0  0  0  0  0  0
  147.6717  135.4599  154.9865 H   0  0  0  0  0  0  0  0  0  0  0  0
  148.7324  135.5540  156.3693 H   0  0  0  0  0  0  0  0  0  0  0  0
  150.9780  136.7930  156.0856 H   0  0  0  0  0  0  0  0  0  0  0  0
  151.3111  135.7436  154.7250 H   0  0  0  0  0  0  0  0  0  0  0  0
  152.6155  137.8301  154.4854 H   0  0  0  0  0  0  0  0  0  0  0  0
  151.4800  137.6444  153.1872 H   0  0  0  0  0  0  0  0  0  0  0  0
  151.3431  139.9260  153.8792 H   0  0  0  0  0  0  0  0  0  0  0  0
  150.4465  139.3393  156.6866 H   0  0  0  0  0  0  0  0  0  0  0  0
  152.1555  139.3744  156.3667 H   0  0  0  0  0  0  0  0  0  0  0  0
  151.6758  141.6973  155.3806 H   0  0  0  0  0  0  0  0  0  0  0  0
  151.4490  143.6800  156.2316 H   0  0  0  0  0  0  0  0  0  0  0  0
  149.7509  143.9054  156.6208 H   0  0  0  0  0  0  0  0  0  0  0  0
  149.6035  145.4911  158.5978 H   0  0  0  0  0  0  0  0  0  0  0  0
  150.9090  145.7052  160.9847 H   0  0  0  0  0  0  0  0  0  0  0  0
  152.8406  143.7246  160.8181 H   0  0  0  0  0  0  0  0  0  0  0  0
  148.9120  140.0541  154.5408 H   0  0  0  0  0  0  0  0  0  0  0  0
  149.2590  139.0015  153.1970 H   0  0  0  0  0  0  0  0  0  0  0  0
  147.6806  137.9025  154.6920 H   0  0  0  0  0  0  0  0  0  0  0  0
  148.7286  138.0991  156.0745 H   0  0  0  0  0  0  0  0  0  0  0  0
  149.3425  136.5251  153.6797 H   0  0  0  0  0  0  0  0  0  0  0  0
  1  2  1  0  0  0  0
  1 21  1  0  0  0  0
  1 22  1  0  0  0  0
  1 23  1  0  0  0  0
  2  3  1  0  0  0  0
  3  4  1  0  0  0  0
  3 24  1  0  0  0  0
  3 25  1  0  0  0  0
  4  5  1  0  0  0  0
  4 26  1  0  0  0  0
  4 27  1  0  0  0  0
  5 20  1  0  0  0  0
  5  6  1  0  0  0  0
  5 45  1  0  0  0  0
  6  7  1  0  0  0  0
  6 28  1  0  0  0  0
  6 29  1  0  0  0  0
  7  8  1  0  0  0  0
  7 30  1  0  0  0  0
  7 31  1  0  0  0  0
  8  9  1  0  0  0  0
  8 19  1  0  0  0  0
  8 32  1  0  0  0  0
  9 10  1  0  0  0  0
  9 33  1  0  0  0  0
  9 34  1  0  0  0  0
 10 11  1  0  0  0  0
 10 35  1  0  0  0  0
 11 12  2  0  0  0  0
 11 13  1  0  0  0  0
 13 14  1  0  0  0  0
 13 36  1  0  0  0  0
 13 37  1  0  0  0  0
 14 18  1  0  0  0  0
 14 15  1  0  0  0  0
 15 16  2  0  0  0  0
 15 38  1  0  0  0  0
 16 17  1  0  0  0  0
 16 39  1  0  0  0  0
 17 18  2  0  0  0  0
 17 40  1  0  0  0  0
 19 20  1  0  0  0  0
 19 41  1  0  0  0  0
 19 42  1  0  0  0  0
 20 43  1  0  0  0  0
 20 44  1  0  0  0  0
M  CHG  1   5   1
M  END
> <s_m_source_file>
AV-unprocessed.smi

> <i_m_source_file_index>
1118

> <i_lp_mmshare_version>
43012

> <i_f3d_flags>
0

> <s_epik_input>
W0NIM11PW0NIMl1bQ0gyXU4xW0NIMl1bQ0gyXVtDSF0oW0NIMl1bQ0gyXTEpW0NIMl1bTkhdQyg9TylbQ0gyXW4yW2NIXVtjSF1bY0hdbjI=

> <s_epik_cmdline>
J2VwaWtfcHl0aG9uJywgJy1waCcsICc3LjAnLCAnLXRuJywgJzgnLCAnLW1hJywgJzIwMCcsICctbWV0YWxfYmluZGluZycsICctaW1hZScsICc8aW5maWxlLm1hZT4nLCAnLW9tYWUnLCAnPG91dGZpbGUubWFlPic=

> <r_lp_tautomer_probability>
1

> <r_epik_Ionization_Penalty>
0.00991549

> <r_epik_Ionization_Penalty_Charging>
0.00990284

> <r_epik_Ionization_Penalty_Neutral>
1.26554e-05

> <r_epik_State_Penalty>
0.00754525

> <r_epik_Charging_Adjusted_Penalty>
0.0174481

> <i_epik_Tot_Q>
1

> <i_epik_Tot_abs_Q>
1

> <r_epik_Metal_State_Penalty>
0.00754527

> <b_epik_Metal_Only>
0

> <s_lp_Force_Field>
OPLS_2005

> <r_lp_Energy>
20.3216

> <b_lp_Chiralities_Consistent>
1

> <s_lp_Variant>
AV-unprocessed.smi:1118-2

> <Gold.Version>
5.8.1

> <Gold.Id.Protein>
6NUR|6NUR_protein|mol2

> <Gold.PLP.Fitness>
46.3224

> <Gold.PLP.PLP>
-38.5942

> <Gold.PLP.part.hbond>
-1.0000

> <Gold.PLP.part.metal>
0.0000

> <Gold.PLP.part.buried>
-1.2754

> <Gold.PLP.part.nonpolar>
-37.4311

> <Gold.PLP.part.repulsive>
0.3793

> <Gold.PLP.ligand.clash>
0.0000

> <Gold.PLP.ligand.torsion>
0.7452

> <Gold.PLP.Chemscore.Hbond>
2.0000

> <Gold.PLP.Chemscore.CHOScore>
0.9982

> <Gold.PLP.Chemscore.Metal>
0.0000

> <Gold.Chemscore.Hbonds>
donor molecule, donor type, donor heavy atom, donor atom, acceptor molecule, acceptor atom, score
      L1  H     5    45       P1  7948  2.00
      L1  C    15    38       P1  8029  1.00

> <Gold.PLP.Chemscore.Internal.Correction>
0.2239

> <Gold.Rescore>
     Score         DG    S(hbond)    S(metal)    S(lipo)     H(rot)  DE(clash)    DE(int)     intcor
     14.07     -14.64       0.97        0.00      99.12       2.22       0.06       0.51       ----

> <Gold.Chemscore.Fitness>
14.0682

> <Gold.Chemscore.DG>
-14.6398

> <Gold.Chemscore.ZeroCoef>
-5.4800

> <Gold.Chemscore.Hbond>
0.9694

> <Gold.Chemscore.Metal>
0.0000

> <Gold.Chemscore.Lipo>
99.1163

> <Gold.Chemscore.Internal_Hbond>
0.0000

> <Gold.Chemscore.DEClash>
0.0582

> <Gold.Chemscore.DEInternal>
0.5134

> <Gold.Chemscore.Rot>
2.2166

> <Gold.Chemscore.Internal.Correction>
   9.000000E+99

> <Gold.Chemscore.Hbonds>
donor molecule, donor type, donor heavy atom, donor atom, acceptor molecule, acceptor atom, score
      L1  H     5    45       P1  7948  0.91

> <Gold.Chemscore.Hbond.Weighted>
-3.2378

> <Gold.Chemscore.Metal.Weighted>
-0.0000

> <Gold.Chemscore.Lipo.Weighted>
-11.5966

> <Gold.Chemscore.Internal_Hbond.Weighted>
0.0000

> <Gold.Chemscore.DEClash.Weighted>
0.0582

> <Gold.Chemscore.DEInternal.Weighted>
0.5134

> <Gold.Chemscore.Rot.Weighted>
5.6745

> <Gold.Chemscore.Internal.Correction.Weighted>
   9.000000E+99

> <Gold.Protein.RotatedTorsions>
[ 6907 6896 6895 6894 ] final   93.44 input  -60.11 | X-H torsion
[ 7974 7965 7964 7962 ] final -108.14 input  175.53 | X-H torsion
[ 8008 7997 7996 7995 ] final  138.49 input   59.86 | X-H torsion
[ 10167 10162 10161 10158 ] final -162.91 input  -65.29 | X-H torsion
[ 10718 10713 10712 10709 ] final  164.51 input   66.30 | X-H torsion
[ 10763 10752 10751 10750 ] final   13.74 input  -60.55 | X-H torsion
[ 11005 11000 10999 10996 ] final   74.45 input  -57.11 | X-H torsion

> <Gold.Protein.ActiveResidues>
 VAL166  LYS551  ARG553  GLY616  TRP617  ASP618  TYR619  PRO620  LYS621  CYS622 
 ASP623  PHE694  ASN695  SER759  ASP760  ASP761  ALA762  ILE779  LEU786  VAL792 
 PHE793  MET794  SER795  GLU796  ALA797  LYS798  CYS799  TRP800  GLU811  SER814 

> <Gold.Protein.RotatedAtoms>
  152.5452  134.1347  159.8453 H   0  0  0  0  0  0  0  0  0  0  0  0  # atno 6907 bound_to 6896
  151.1389  133.4978  159.2605 H   0  0  0  0  0  0  0  0  0  0  0  0  # atno 6908 bound_to 6896
  151.1594  135.0276  159.8758 H   0  0  0  0  0  0  0  0  0  0  0  0  # atno 6909 bound_to 6896
  145.1966  140.9038  143.3393 H   0  0  0  0  0  0  0  0  0  0  0  0  # atno 7974 bound_to 7965
  156.2997  140.2392  156.4081 H   0  0  0  0  0  0  0  0  0  0  0  0  # atno 8008 bound_to 7997
  154.8466  140.0426  157.1596 H   0  0  0  0  0  0  0  0  0  0  0  0  # atno 8009 bound_to 7997
  154.9045  140.2981  155.5303 H   0  0  0  0  0  0  0  0  0  0  0  0  # atno 8010 bound_to 7997
  139.6358  144.0353  152.2053 H   0  0  0  0  0  0  0  0  0  0  0  0  # atno 10167 bound_to 10162
  157.0934  131.0423  151.2528 H   0  0  0  0  0  0  0  0  0  0  0  0  # atno 10718 bound_to 10713
  153.1691  135.6809  153.8633 H   0  0  0  0  0  0  0  0  0  0  0  0  # atno 10763 bound_to 10752
  153.8002  135.3157  155.3390 H   0  0  0  0  0  0  0  0  0  0  0  0  # atno 10764 bound_to 10752
  154.7986  135.4792  154.0312 H   0  0  0  0  0  0  0  0  0  0  0  0  # atno 10765 bound_to 10752
  139.9390  134.7433  156.1149 H   0  0  0  0  0  0  0  0  0  0  0  0  # atno 11005 bound_to 11000
  144.9989  139.3618  143.6178 LP  0  0  0  0  0  0  0  0  0  0  0  0  # atno 17320 bound_to 7965
  146.3426  139.9203  142.8767 LP  0  0  0  0  0  0  0  0  0  0  0  0  # atno 17321 bound_to 7965
  140.0030  144.6280  150.7713 LP  0  0  0  0  0  0  0  0  0  0  0  0  # atno 17342 bound_to 10162
  140.7464  143.2891  151.3381 LP  0  0  0  0  0  0  0  0  0  0  0  0  # atno 17343 bound_to 10162
  157.4702  130.7704  149.7316 LP  0  0  0  0  0  0  0  0  0  0  0  0  # atno 17370 bound_to 10713
  155.9892  130.3953  150.3083 LP  0  0  0  0  0  0  0  0  0  0  0  0  # atno 17371 bound_to 10713
  141.1017  133.6675  156.2770 LP  0  0  0  0  0  0  0  0  0  0  0  0  # atno 17394 bound_to 11000
  140.5999  134.5565  157.5515 LP  0  0  0  0  0  0  0  0  0  0  0  0  # atno 17395 bound_to 11000

$$$$
