AV-unprocessed.smi:3221|AV-procd|sdf|12302|dock8
  -GOLD-   2272018143D 1   1.00000     0.00000
 Structure written by MMmdl.
 27 28  0  0  0  0  0  0  0  0  2 V2000
  154.3303  138.8710  161.9680 F   0  0  0  0  0  0  0  0  0  0  0  0
  154.8895  140.0766  161.8641 C   0  0  0  0  0  0  0  0  0  0  0  0
  155.2057  140.4805  163.0941 F   0  0  0  0  0  0  0  0  0  0  0  0
  156.0239  139.9358  161.1789 F   0  0  0  0  0  0  0  0  0  0  0  0
  153.9712  141.0561  161.1919 C   0  0  0  0  0  0  0  0  0  0  0  0
  153.4266  142.1938  161.7358 C   0  0  0  0  0  0  0  0  0  0  0  0
  152.4068  143.0368  160.6025 S   0  0  0  0  0  0  0  0  0  0  0  0
  152.7591  141.7939  159.4077 C   0  0  0  0  0  0  0  0  0  0  0  0
  152.1925  141.8031  158.0233 C   0  0  1  0  0  0  0  0  0  0  0  0
  151.5727  140.4490  157.6303 C   0  0  0  0  0  0  0  0  0  0  0  0
  151.0063  140.5120  156.2034 C   0  0  0  0  0  0  0  0  0  0  0  0
  150.0279  141.6887  156.0516 C   0  0  0  0  0  0  0  0  0  0  0  0
  150.6830  142.9636  156.4175 N   0  3  0  0  0  0  0  0  0  0  0  0
  151.2078  142.9690  157.8008 C   0  0  0  0  0  0  0  0  0  0  0  0
  153.5830  140.8462  159.8641 N   0  0  0  0  0  0  0  0  0  0  0  0
  153.5625  142.5852  162.7332 H   0  0  0  0  0  0  0  0  0  0  0  0
  153.0359  141.9702  157.3516 H   0  0  0  0  0  0  0  0  0  0  0  0
  152.3180  139.6558  157.7003 H   0  0  0  0  0  0  0  0  0  0  0  0
  150.7738  140.1892  158.3262 H   0  0  0  0  0  0  0  0  0  0  0  0
  151.8233  140.6193  155.4885 H   0  0  0  0  0  0  0  0  0  0  0  0
  150.5043  139.5751  155.9600 H   0  0  0  0  0  0  0  0  0  0  0  0
  149.6708  141.7543  155.0237 H   0  0  0  0  0  0  0  0  0  0  0  0
  149.1525  141.5393  156.6852 H   0  0  0  0  0  0  0  0  0  0  0  0
  151.4514  143.1234  155.7817 H   0  0  0  0  0  0  0  0  0  0  0  0
  150.3691  142.8994  158.4953 H   0  0  0  0  0  0  0  0  0  0  0  0
  151.6987  143.9245  157.9882 H   0  0  0  0  0  0  0  0  0  0  0  0
  150.0162  143.7158  156.3176 H   0  0  0  0  0  0  0  0  0  0  0  0
  1  2  1  0  0  0  0
  2  3  1  0  0  0  0
  2  4  1  0  0  0  0
  2  5  1  0  0  0  0
  5 15  1  0  0  0  0
  5  6  2  0  0  0  0
  6  7  1  0  0  0  0
  6 16  1  0  0  0  0
  7  8  1  0  0  0  0
  8  9  1  0  0  0  0
  8 15  2  0  0  0  0
  9 14  1  0  0  0  0
  9 10  1  0  0  0  0
  9 17  1  0  0  0  0
 10 11  1  0  0  0  0
 10 18  1  0  0  0  0
 10 19  1  0  0  0  0
 11 12  1  0  0  0  0
 11 20  1  0  0  0  0
 11 21  1  0  0  0  0
 12 13  1  0  0  0  0
 12 22  1  0  0  0  0
 12 23  1  0  0  0  0
 13 14  1  0  0  0  0
 13 24  1  0  0  0  0
 13 27  1  0  0  0  0
 14 25  1  0  0  0  0
 14 26  1  0  0  0  0
M  CHG  1  13   1
M  END
> <s_m_source_file>
AV-unprocessed.smi

> <i_m_source_file_index>
3221

> <i_lp_mmshare_version>
43012

> <i_f3d_flags>
0

> <s_epik_input>
RkMoRikoRiljMVtjSF1zYyhuMSlbQ0BASF0yW0NIMl1bQ0gyXVtDSDJdW05IXVtDSDJdMg==

> <s_epik_cmdline>
J2VwaWtfcHl0aG9uJywgJy1waCcsICc3LjAnLCAnLXRuJywgJzgnLCAnLW1hJywgJzIwMCcsICctbWV0YWxfYmluZGluZycsICctaW1hZScsICc8aW5maWxlLm1hZT4nLCAnLW9tYWUnLCAnPG91dGZpbGUubWFlPic=

> <r_epik_Ionization_Penalty>
0.000426856

> <r_epik_Ionization_Penalty_Charging>
0.000426856

> <r_epik_Ionization_Penalty_Neutral>
2.38238e-11

> <r_epik_State_Penalty>
0.00026276

> <r_epik_Charging_Adjusted_Penalty>
0.000689616

> <i_epik_Tot_Q>
1

> <i_epik_Tot_abs_Q>
1

> <r_epik_Metal_State_Penalty>
-0

> <b_epik_Metal_Only>
0

> <s_lp_Force_Field>
OPLS_2005

> <r_lp_Energy>
6.82196

> <b_lp_Chiralities_Consistent>
1

> <s_lp_Variant>
AV-unprocessed.smi:3221-2

> <Gold.Version>
5.8.1

> <Gold.Id.Protein>
6NUR|6NUR_protein|mol2

> <Gold.PLP.Fitness>
38.3757

> <Gold.PLP.PLP>
-32.6306

> <Gold.PLP.part.hbond>
-1.0000

> <Gold.PLP.part.metal>
0.0000

> <Gold.PLP.part.buried>
-3.0760

> <Gold.PLP.part.nonpolar>
-27.7762

> <Gold.PLP.part.repulsive>
0.0869

> <Gold.PLP.ligand.clash>
0.0000

> <Gold.PLP.ligand.torsion>
0.1539

> <Gold.PLP.Chemscore.Hbond>
2.0000

> <Gold.PLP.Chemscore.CHOScore>
0.0000

> <Gold.PLP.Chemscore.Metal>
0.0000

> <Gold.Chemscore.Hbonds>
donor molecule, donor type, donor heavy atom, donor atom, acceptor molecule, acceptor atom, score
      L1  H    13    27       P1  8028  2.00

> <Gold.PLP.Chemscore.Internal.Correction>
0.0528

> <Gold.Rescore>
     Score         DG    S(hbond)    S(metal)    S(lipo)     H(rot)  DE(clash)    DE(int)     intcor
     16.03     -16.27       1.00        0.00      85.55       1.00       0.12       0.12       ----

> <Gold.Chemscore.Fitness>
16.0268

> <Gold.Chemscore.DG>
-16.2665

> <Gold.Chemscore.ZeroCoef>
-5.4800

> <Gold.Chemscore.Hbond>
0.9991

> <Gold.Chemscore.Metal>
0.0000

> <Gold.Chemscore.Lipo>
85.5516

> <Gold.Chemscore.Internal_Hbond>
0.0000

> <Gold.Chemscore.DEClash>
0.1225

> <Gold.Chemscore.DEInternal>
0.1172

> <Gold.Chemscore.Rot>
1.0000

> <Gold.Chemscore.Internal.Correction>
   9.000000E+99

> <Gold.Chemscore.Hbonds>
donor molecule, donor type, donor heavy atom, donor atom, acceptor molecule, acceptor atom, score
      L1  H    13    27       P1  8028  0.99

> <Gold.Chemscore.Hbond.Weighted>
-3.3369

> <Gold.Chemscore.Metal.Weighted>
-0.0000

> <Gold.Chemscore.Lipo.Weighted>
-10.0095

> <Gold.Chemscore.Internal_Hbond.Weighted>
0.0000

> <Gold.Chemscore.DEClash.Weighted>
0.1225

> <Gold.Chemscore.DEInternal.Weighted>
0.1172

> <Gold.Chemscore.Rot.Weighted>
2.5600

> <Gold.Chemscore.Internal.Correction.Weighted>
   9.000000E+99

> <Gold.Protein.RotatedTorsions>
[ 6907 6896 6895 6894 ] final   66.48 input  -60.11 | X-H torsion
[ 7974 7965 7964 7962 ] final  156.20 input  175.53 | X-H torsion
[ 8008 7997 7996 7995 ] final    6.28 input   59.86 | X-H torsion
[ 10167 10162 10161 10158 ] final   20.53 input  -65.29 | X-H torsion
[ 10718 10713 10712 10709 ] final   36.91 input   66.30 | X-H torsion
[ 10763 10752 10751 10750 ] final  128.11 input  -60.55 | X-H torsion
[ 11005 11000 10999 10996 ] final   66.30 input  -57.11 | X-H torsion

> <Gold.Protein.ActiveResidues>
 VAL166  LYS551  ARG553  GLY616  TRP617  ASP618  TYR619  PRO620  LYS621  CYS622 
 ASP623  PHE694  ASN695  SER759  ASP760  ASP761  ALA762  ILE779  LEU786  VAL792 
 PHE793  MET794  SER795  GLU796  ALA797  LYS798  CYS799  TRP800  GLU811  SER814 

> <Gold.Protein.RotatedAtoms>
  152.4484  134.5446  159.9848 H   0  0  0  0  0  0  0  0  0  0  0  0  # atno 6907 bound_to 6896
  151.5525  133.3409  159.2964 H   0  0  0  0  0  0  0  0  0  0  0  0  # atno 6908 bound_to 6896
  150.8406  134.7728  159.6992 H   0  0  0  0  0  0  0  0  0  0  0  0  # atno 6909 bound_to 6896
  144.7977  139.7172  143.6195 H   0  0  0  0  0  0  0  0  0  0  0  0  # atno 7974 bound_to 7965
  154.7391  140.2745  155.6389 H   0  0  0  0  0  0  0  0  0  0  0  0  # atno 8008 bound_to 7997
  156.2869  140.2700  156.2039 H   0  0  0  0  0  0  0  0  0  0  0  0  # atno 8009 bound_to 7997
  155.0282  140.0371  157.2453 H   0  0  0  0  0  0  0  0  0  0  0  0  # atno 8010 bound_to 7997
  140.5497  143.9532  150.6570 H   0  0  0  0  0  0  0  0  0  0  0  0  # atno 10167 bound_to 10162
  157.3406  130.7546  149.6909 H   0  0  0  0  0  0  0  0  0  0  0  0  # atno 10718 bound_to 10713
  153.7202  135.3254  155.3265 H   0  0  0  0  0  0  0  0  0  0  0  0  # atno 10763 bound_to 10752
  154.8358  135.4498  154.1225 H   0  0  0  0  0  0  0  0  0  0  0  0  # atno 10764 bound_to 10752
  153.2343  135.6963  153.7934 H   0  0  0  0  0  0  0  0  0  0  0  0  # atno 10765 bound_to 10752
  139.9840  134.6697  156.0209 H   0  0  0  0  0  0  0  0  0  0  0  0  # atno 11005 bound_to 11000
  146.2250  139.5706  142.9593 LP  0  0  0  0  0  0  0  0  0  0  0  0  # atno 17320 bound_to 7965
  145.5631  141.0402  143.2215 LP  0  0  0  0  0  0  0  0  0  0  0  0  # atno 17321 bound_to 7965
  140.2954  143.3296  152.1022 LP  0  0  0  0  0  0  0  0  0  0  0  0  # atno 17342 bound_to 10162
  139.5022  144.6730  151.6198 LP  0  0  0  0  0  0  0  0  0  0  0  0  # atno 17343 bound_to 10162
  155.9707  130.4169  150.4252 LP  0  0  0  0  0  0  0  0  0  0  0  0  # atno 17370 bound_to 10713
  157.2299  131.0502  151.2498 LP  0  0  0  0  0  0  0  0  0  0  0  0  # atno 17371 bound_to 10713
  141.1508  133.6549  156.4008 LP  0  0  0  0  0  0  0  0  0  0  0  0  # atno 17394 bound_to 11000
  140.5039  134.6460  157.5259 LP  0  0  0  0  0  0  0  0  0  0  0  0  # atno 17395 bound_to 11000

$$$$
