AV-unprocessed.smi:2067|AV-procd|sdf|8423|dock9
  -GOLD-   2272011113D 1   1.00000     0.00000
 Structure written by MMmdl.
 47 48  0  0  0  0  0  0  0  0  1 V2000
  152.3688  142.8737  162.2820 C   0  0  0  0  0  0  0  0  0  0  0  0
  152.6271  143.6609  160.9867 C   0  0  2  0  0  0  0  0  0  0  0  0
  151.4892  144.6693  160.7293 C   0  0  0  0  0  0  0  0  0  0  0  0
  151.7163  145.4694  159.4378 C   0  0  0  0  0  0  0  0  0  0  0  0
  151.8934  144.5333  158.2347 C   0  0  0  0  0  0  0  0  0  0  0  0
  153.0345  143.5343  158.4761 C   0  0  0  0  0  0  0  0  0  0  0  0
  152.8129  142.7231  159.7714 C   0  0  1  0  0  0  0  0  0  0  0  0
  153.9409  141.8965  160.0335 O   0  0  0  0  0  0  0  0  0  0  0  0
  153.6451  140.6704  160.6864 C   0  0  0  0  0  0  0  0  0  0  0  0
  154.9598  140.0263  161.1346 C   0  0  0  0  0  0  0  0  0  0  0  0
  154.7307  139.0359  162.1743 N   0  0  0  0  0  0  0  0  0  0  0  0
  154.8739  137.6556  162.0740 C   0  0  0  0  0  0  0  0  0  0  0  0
  155.2415  137.0575  160.9056 C   0  0  0  0  0  0  0  0  0  0  0  0
  155.4810  137.7753  159.6928 C   0  0  0  0  0  0  0  0  0  0  0  0
  155.6628  138.3730  158.7176 N   0  0  0  0  0  0  0  0  0  0  0  0
  155.3742  135.6073  160.7858 C   0  0  0  0  0  0  0  0  0  0  0  0
  155.7193  135.0317  159.7508 O   0  0  0  0  0  0  0  0  0  0  0  0
  155.0719  134.8870  161.9588 N   0  0  0  0  0  0  0  0  0  0  0  0
  155.1793  133.4439  161.8705 C   0  0  0  0  0  0  0  0  0  0  0  0
  154.6815  135.4790  163.1782 C   0  0  0  0  0  0  0  0  0  0  0  0
  154.4253  134.8005  164.1774 O   0  0  0  0  0  0  0  0  0  0  0  0
  154.5966  136.8928  163.2126 N   0  0  0  0  0  0  0  0  0  0  0  0
  154.2112  137.4415  164.4975 C   0  0  0  0  0  0  0  0  0  0  0  0
  151.4647  142.2688  162.2049 H   0  0  0  0  0  0  0  0  0  0  0  0
  152.2478  143.5458  163.1318 H   0  0  0  0  0  0  0  0  0  0  0  0
  153.1978  142.2045  162.5135 H   0  0  0  0  0  0  0  0  0  0  0  0
  153.5502  144.2267  161.1223 H   0  0  0  0  0  0  0  0  0  0  0  0
  150.5365  144.1413  160.6655 H   0  0  0  0  0  0  0  0  0  0  0  0
  151.4037  145.3567  161.5717 H   0  0  0  0  0  0  0  0  0  0  0  0
  150.8765  146.1430  159.2650 H   0  0  0  0  0  0  0  0  0  0  0  0
  152.6004  146.0989  159.5469 H   0  0  0  0  0  0  0  0  0  0  0  0
  150.9649  143.9908  158.0527 H   0  0  0  0  0  0  0  0  0  0  0  0
  152.0930  145.1164  157.3353 H   0  0  0  0  0  0  0  0  0  0  0  0
  153.1114  142.8726  157.6140 H   0  0  0  0  0  0  0  0  0  0  0  0
  153.9817  144.0716  158.5383 H   0  0  0  0  0  0  0  0  0  0  0  0
  151.9166  142.1080  159.6695 H   0  0  0  0  0  0  0  0  0  0  0  0
  153.0218  140.8590  161.5614 H   0  0  0  0  0  0  0  0  0  0  0  0
  153.0973  139.9914  160.0325 H   0  0  0  0  0  0  0  0  0  0  0  0
  155.4657  139.5585  160.2897 H   0  0  0  0  0  0  0  0  0  0  0  0
  155.6163  140.8092  161.5140 H   0  0  0  0  0  0  0  0  0  0  0  0
  154.8882  139.4098  163.0996 H   0  0  0  0  0  0  0  0  0  0  0  0
  154.8798  132.9606  162.7996 H   0  0  0  0  0  0  0  0  0  0  0  0
  156.2228  133.2118  161.6502 H   0  0  0  0  0  0  0  0  0  0  0  0
  154.5203  133.1173  161.0638 H   0  0  0  0  0  0  0  0  0  0  0  0
  153.1941  137.1032  164.7036 H   0  0  0  0  0  0  0  0  0  0  0  0
  154.2479  138.5285  164.4793 H   0  0  0  0  0  0  0  0  0  0  0  0
  154.9195  137.0736  165.2423 H   0  0  0  0  0  0  0  0  0  0  0  0
  1  2  1  0  0  0  0
  1 24  1  0  0  0  0
  1 25  1  0  0  0  0
  1 26  1  0  0  0  0
  2  7  1  0  0  0  0
  2  3  1  0  0  0  0
  2 27  1  0  0  0  0
  3  4  1  0  0  0  0
  3 28  1  0  0  0  0
  3 29  1  0  0  0  0
  4  5  1  0  0  0  0
  4 30  1  0  0  0  0
  4 31  1  0  0  0  0
  5  6  1  0  0  0  0
  5 32  1  0  0  0  0
  5 33  1  0  0  0  0
  6  7  1  0  0  0  0
  6 34  1  0  0  0  0
  6 35  1  0  0  0  0
  7  8  1  0  0  0  0
  7 36  1  0  0  0  0
  8  9  1  0  0  0  0
  9 10  1  0  0  0  0
  9 37  1  0  0  0  0
  9 38  1  0  0  0  0
 10 11  1  0  0  0  0
 10 39  1  0  0  0  0
 10 40  1  0  0  0  0
 11 12  1  0  0  0  0
 11 41  1  0  0  0  0
 12 22  1  0  0  0  0
 12 13  2  0  0  0  0
 13 14  1  0  0  0  0
 13 16  1  0  0  0  0
 14 15  3  0  0  0  0
 16 17  2  0  0  0  0
 16 18  1  0  0  0  0
 18 19  1  0  0  0  0
 18 20  1  0  0  0  0
 19 42  1  0  0  0  0
 19 43  1  0  0  0  0
 19 44  1  0  0  0  0
 20 21  2  0  0  0  0
 20 22  1  0  0  0  0
 22 23  1  0  0  0  0
 23 45  1  0  0  0  0
 23 46  1  0  0  0  0
 23 47  1  0  0  0  0
M  END
> <s_m_source_file>
AV-unprocessed.smi

> <i_m_source_file_index>
2067

> <i_lp_mmshare_version>
43012

> <i_f3d_flags>
0

> <s_epik_input>
W0NIM11bQ0BASF0xW0NIMl1bQ0gyXVtDSDJdW0NIMl1bQ0BIXTFPW0NIMl1bQ0gyXVtOSF1jMmMoQyNOKWMoPU8pbihbQ0gzXSljKD1PKW4yW0NIM10=

> <s_epik_cmdline>
J2VwaWtfcHl0aG9uJywgJy1waCcsICc3LjAnLCAnLXRuJywgJzgnLCAnLW1hJywgJzIwMCcsICctbWV0YWxfYmluZGluZycsICctaW1hZScsICc8aW5maWxlLm1hZT4nLCAnLW9tYWUnLCAnPG91dGZpbGUubWFlPic=

> <r_epik_Ionization_Penalty>
0.00056529

> <r_epik_Ionization_Penalty_Charging>
3.94678e-10

> <r_epik_Ionization_Penalty_Neutral>
0.000565289

> <r_epik_State_Penalty>
0.000354611

> <r_epik_Charging_Adjusted_Penalty>
0.000354611

> <i_epik_Tot_Q>
0

> <i_epik_Tot_abs_Q>
0

> <r_epik_Metal_State_Penalty>
-0

> <b_epik_Metal_Only>
0

> <s_lp_Force_Field>
OPLS_2005

> <r_lp_Energy>
32.0891

> <b_lp_Chiralities_Consistent>
1

> <s_lp_Variant>
AV-unprocessed.smi:2067-1

> <Gold.Version>
5.8.1

> <Gold.Id.Protein>
6NUR|6NUR_protein|mol2

> <Gold.PLP.Fitness>
49.0716

> <Gold.PLP.PLP>
-47.1808

> <Gold.PLP.part.hbond>
-1.0000

> <Gold.PLP.part.metal>
0.0000

> <Gold.PLP.part.buried>
-4.3464

> <Gold.PLP.part.nonpolar>
-40.9284

> <Gold.PLP.part.repulsive>
0.0485

> <Gold.PLP.ligand.clash>
8.7922

> <Gold.PLP.ligand.torsion>
0.5551

> <Gold.PLP.Chemscore.Hbond>
1.0000

> <Gold.PLP.Chemscore.CHOScore>
0.0000

> <Gold.PLP.Chemscore.Metal>
0.0000

> <Gold.Chemscore.Hbonds>
donor molecule, donor type, donor heavy atom, donor atom, acceptor molecule, acceptor atom, score
      P1  H  7997  8010       L1    15  0.71

> <Gold.PLP.Chemscore.Internal.Correction>
8.7932

> <Gold.Rescore>
     Score         DG    S(hbond)    S(metal)    S(lipo)     H(rot)  DE(clash)    DE(int)     intcor
     14.87     -18.11       0.96        0.00     118.96       1.76       0.04       3.20       ----

> <Gold.Chemscore.Fitness>
14.8748

> <Gold.Chemscore.DG>
-18.1106

> <Gold.Chemscore.ZeroCoef>
-5.4800

> <Gold.Chemscore.Hbond>
0.9621

> <Gold.Chemscore.Metal>
0.0000

> <Gold.Chemscore.Lipo>
118.9617

> <Gold.Chemscore.Internal_Hbond>
0.0000

> <Gold.Chemscore.DEClash>
0.0382

> <Gold.Chemscore.DEInternal>
3.1976

> <Gold.Chemscore.Rot>
1.7583

> <Gold.Chemscore.Internal.Correction>
   9.000000E+99

> <Gold.Chemscore.Hbonds>
donor molecule, donor type, donor heavy atom, donor atom, acceptor molecule, acceptor atom, score
      P1  H  7997  8010       L1    15  0.70

> <Gold.Chemscore.Hbond.Weighted>
-3.2133

> <Gold.Chemscore.Metal.Weighted>
-0.0000

> <Gold.Chemscore.Lipo.Weighted>
-13.9185

> <Gold.Chemscore.Internal_Hbond.Weighted>
0.0000

> <Gold.Chemscore.DEClash.Weighted>
0.0382

> <Gold.Chemscore.DEInternal.Weighted>
3.1976

> <Gold.Chemscore.Rot.Weighted>
4.5012

> <Gold.Chemscore.Internal.Correction.Weighted>
   9.000000E+99

> <Gold.Protein.RotatedTorsions>
[ 6907 6896 6895 6894 ] final   62.58 input  -60.11 | X-H torsion
[ 7974 7965 7964 7962 ] final   27.85 input  175.53 | X-H torsion
[ 8008 7997 7996 7995 ] final  -13.27 input   59.86 | X-H torsion
[ 10167 10162 10161 10158 ] final -158.44 input  -65.29 | X-H torsion
[ 10718 10713 10712 10709 ] final  144.51 input   66.30 | X-H torsion
[ 10763 10752 10751 10750 ] final  106.89 input  -60.55 | X-H torsion
[ 11005 11000 10999 10996 ] final  162.80 input  -57.11 | X-H torsion

> <Gold.Protein.ActiveResidues>
 VAL166  LYS551  ARG553  GLY616  TRP617  ASP618  TYR619  PRO620  LYS621  CYS622 
 ASP623  PHE694  ASN695  SER759  ASP760  ASP761  ALA762  ILE779  LEU786  VAL792 
 PHE793  MET794  SER795  GLU796  ALA797  LYS798  CYS799  TRP800  GLU811  SER814 

> <Gold.Protein.RotatedAtoms>
  152.4183  134.6001  159.9997 H   0  0  0  0  0  0  0  0  0  0  0  0  # atno 6907 bound_to 6896
  151.6158  133.3337  159.3085 H   0  0  0  0  0  0  0  0  0  0  0  0  # atno 6908 bound_to 6896
  150.8072  134.7243  159.6721 H   0  0  0  0  0  0  0  0  0  0  0  0  # atno 6909 bound_to 6896
  146.1762  139.7136  142.8933 H   0  0  0  0  0  0  0  0  0  0  0  0  # atno 7974 bound_to 7965
  154.5306  140.2254  155.8811 H   0  0  0  0  0  0  0  0  0  0  0  0  # atno 8008 bound_to 7997
  156.1760  140.3111  155.9024 H   0  0  0  0  0  0  0  0  0  0  0  0  # atno 8009 bound_to 7997
  155.3459  140.0453  157.3036 H   0  0  0  0  0  0  0  0  0  0  0  0  # atno 8010 bound_to 7997
  139.6692  143.9775  152.2273 H   0  0  0  0  0  0  0  0  0  0  0  0  # atno 10167 bound_to 10162
  157.3563  131.0958  151.0955 H   0  0  0  0  0  0  0  0  0  0  0  0  # atno 10718 bound_to 10713
  153.3992  135.3862  155.1976 H   0  0  0  0  0  0  0  0  0  0  0  0  # atno 10763 bound_to 10752
  154.8727  135.3767  154.4640 H   0  0  0  0  0  0  0  0  0  0  0  0  # atno 10764 bound_to 10752
  153.5136  135.7087  153.5830 H   0  0  0  0  0  0  0  0  0  0  0  0  # atno 10765 bound_to 10752
  140.2294  134.8135  157.3301 H   0  0  0  0  0  0  0  0  0  0  0  0  # atno 11005 bound_to 11000
  145.4206  141.0406  143.2966 LP  0  0  0  0  0  0  0  0  0  0  0  0  # atno 17320 bound_to 7965
  144.8239  139.5743  143.6974 LP  0  0  0  0  0  0  0  0  0  0  0  0  # atno 17321 bound_to 7965
  139.9535  144.6605  150.8149 LP  0  0  0  0  0  0  0  0  0  0  0  0  # atno 17342 bound_to 10162
  140.7611  143.3167  151.2716 LP  0  0  0  0  0  0  0  0  0  0  0  0  # atno 17343 bound_to 10162
  157.2111  130.6438  149.5774 LP  0  0  0  0  0  0  0  0  0  0  0  0  # atno 17370 bound_to 10713
  155.9730  130.4659  150.6271 LP  0  0  0  0  0  0  0  0  0  0  0  0  # atno 17371 bound_to 10713
  140.1766  134.4541  155.7798 LP  0  0  0  0  0  0  0  0  0  0  0  0  # atno 17394 bound_to 11000
  141.2218  133.6965  156.7798 LP  0  0  0  0  0  0  0  0  0  0  0  0  # atno 17395 bound_to 11000

$$$$
