AV-unprocessed.smi:1019|AV-procd|sdf|4451|dock2
  -GOLD-   22720 2413D 1   1.00000     0.00000
 Structure written by MMmdl.
 43 45  0  0  0  0  0  0  0  0  1 V2000
  151.9146  139.9443  155.6764 C   0  0  0  0  0  0  0  0  0  0  0  0
  150.7522  140.8322  155.6987 N   0  0  0  0  0  0  0  0  0  0  0  0
  150.2558  141.0091  157.0644 C   0  0  0  0  0  0  0  0  0  0  0  0
  151.1999  141.7813  157.9711 C   0  0  0  0  0  0  0  0  0  0  0  0
  151.4486  143.1502  157.7351 C   0  0  0  0  0  0  0  0  0  0  0  0
  152.3236  143.8657  158.5756 C   0  0  0  0  0  0  0  0  0  0  0  0
  152.9511  143.2160  159.6564 C   0  0  0  0  0  0  0  0  0  0  0  0
  152.7034  141.8506  159.8962 C   0  0  0  0  0  0  0  0  0  0  0  0
  151.8288  141.1343  159.0559 C   0  0  0  0  0  0  0  0  0  0  0  0
  149.6794  140.3438  154.8278 C   0  0  0  0  0  0  0  0  0  0  0  0
  149.7558  138.8540  154.4330 C   0  0  2  0  0  0  0  0  0  0  0  0
  149.0782  138.6744  153.2040 O   0  0  0  0  0  0  0  0  0  0  0  0
  149.1079  137.9566  155.5048 C   0  0  0  0  0  0  0  0  0  0  0  0
  149.7101  136.6364  155.5674 N   0  0  0  0  0  0  0  0  0  0  0  0
  150.9141  136.3209  156.0821 C   0  0  0  0  0  0  0  0  0  0  0  0
  151.2774  135.0422  156.0454 N   0  0  0  0  0  0  0  0  0  0  0  0
  150.1807  134.4582  155.4348 C   0  0  0  0  0  0  0  0  0  0  0  0
  149.9294  133.1084  155.0993 C   0  0  0  0  0  0  0  0  0  0  0  0
  148.7209  132.7413  154.4716 C   0  0  0  0  0  0  0  0  0  0  0  0
  147.7476  133.7157  154.1695 C   0  0  0  0  0  0  0  0  0  0  0  0
  147.9752  135.0669  154.4943 C   0  0  0  0  0  0  0  0  0  0  0  0
  149.1817  135.4292  155.1220 C   0  0  0  0  0  0  0  0  0  0  0  0
  152.3467  139.8748  154.6795 H   0  0  0  0  0  0  0  0  0  0  0  0
  151.6489  138.9388  156.0051 H   0  0  0  0  0  0  0  0  0  0  0  0
  152.7057  140.3134  156.3293 H   0  0  0  0  0  0  0  0  0  0  0  0
  149.3174  141.5649  157.0452 H   0  0  0  0  0  0  0  0  0  0  0  0
  150.0276  140.0393  157.5093 H   0  0  0  0  0  0  0  0  0  0  0  0
  150.9704  143.6527  156.9069 H   0  0  0  0  0  0  0  0  0  0  0  0
  152.5129  144.9129  158.3910 H   0  0  0  0  0  0  0  0  0  0  0  0
  153.6219  143.7645  160.3011 H   0  0  0  0  0  0  0  0  0  0  0  0
  153.1845  141.3515  160.7247 H   0  0  0  0  0  0  0  0  0  0  0  0
  151.6451  140.0869  159.2456 H   0  0  0  0  0  0  0  0  0  0  0  0
  148.7199  140.5362  155.3104 H   0  0  0  0  0  0  0  0  0  0  0  0
  149.6653  140.9298  153.9074 H   0  0  0  0  0  0  0  0  0  0  0  0
  150.7895  138.5363  154.3043 H   0  0  0  0  0  0  0  0  0  0  0  0
  149.4832  139.2269  152.5531 H   0  0  0  0  0  0  0  0  0  0  0  0
  149.2049  138.4185  156.4882 H   0  0  0  0  0  0  0  0  0  0  0  0
  148.0388  137.8470  155.3185 H   0  0  0  0  0  0  0  0  0  0  0  0
  151.5610  137.0742  156.5078 H   0  0  0  0  0  0  0  0  0  0  0  0
  150.6682  132.3538  155.3253 H   0  0  0  0  0  0  0  0  0  0  0  0
  148.5400  131.7064  154.2205 H   0  0  0  0  0  0  0  0  0  0  0  0
  146.8255  133.4249  153.6877 H   0  0  0  0  0  0  0  0  0  0  0  0
  147.2319  135.8151  154.2631 H   0  0  0  0  0  0  0  0  0  0  0  0
  1  2  1  0  0  0  0
  1 23  1  0  0  0  0
  1 24  1  0  0  0  0
  1 25  1  0  0  0  0
  2  3  1  0  0  0  0
  2 10  1  0  0  0  0
  3  4  1  0  0  0  0
  3 26  1  0  0  0  0
  3 27  1  0  0  0  0
  4  9  1  0  0  0  0
  4  5  2  0  0  0  0
  5  6  1  0  0  0  0
  5 28  1  0  0  0  0
  6  7  2  0  0  0  0
  6 29  1  0  0  0  0
  7  8  1  0  0  0  0
  7 30  1  0  0  0  0
  8  9  2  0  0  0  0
  8 31  1  0  0  0  0
  9 32  1  0  0  0  0
 10 11  1  0  0  0  0
 10 33  1  0  0  0  0
 10 34  1  0  0  0  0
 11 12  1  0  0  0  0
 11 13  1  0  0  0  0
 11 35  1  0  0  0  0
 12 36  1  0  0  0  0
 13 14  1  0  0  0  0
 13 37  1  0  0  0  0
 13 38  1  0  0  0  0
 14 22  1  0  0  0  0
 14 15  1  0  0  0  0
 15 16  2  0  0  0  0
 15 39  1  0  0  0  0
 16 17  1  0  0  0  0
 17 22  2  0  0  0  0
 17 18  1  0  0  0  0
 18 19  2  0  0  0  0
 18 40  1  0  0  0  0
 19 20  1  0  0  0  0
 19 41  1  0  0  0  0
 20 21  2  0  0  0  0
 20 42  1  0  0  0  0
 21 22  1  0  0  0  0
 21 43  1  0  0  0  0
M  END
> <s_m_source_file>
AV-unprocessed.smi

> <i_m_source_file_index>
1019

> <i_lp_mmshare_version>
43012

> <i_f3d_flags>
0

> <s_epik_input>
W2NIXTFbY0hdW2NIXVtjSF1bY0hdYzFbQ0gyXU4oW0NIM10pW0NIMl1bQ0BIXShbT0hdKVtDSDJdbihbY0hdbjIpYyhjMjMpW2NIXVtjSF1bY0hdW2NIXTM=

> <s_epik_cmdline>
J2VwaWtfcHl0aG9uJywgJy1waCcsICc3LjAnLCAnLXRuJywgJzgnLCAnLW1hJywgJzIwMCcsICctbWV0YWxfYmluZGluZycsICctaW1hZScsICc8aW5maWxlLm1hZT4nLCAnLW9tYWUnLCAnPG91dGZpbGUubWFlPic=

> <r_epik_Ionization_Penalty>
1.56741

> <r_epik_Ionization_Penalty_Charging>
0

> <r_epik_Ionization_Penalty_Neutral>
1.56741

> <r_epik_State_Penalty>
1.62466

> <r_epik_Charging_Adjusted_Penalty>
1.62466

> <i_epik_Tot_Q>
0

> <i_epik_Tot_abs_Q>
0

> <r_epik_Metal_State_Penalty>
1.58486

> <b_epik_Metal_Only>
0

> <s_lp_Force_Field>
OPLS_2005

> <r_lp_Energy>
24.0301

> <b_lp_Chiralities_Consistent>
1

> <s_lp_Variant>
AV-unprocessed.smi:1019-9

> <Gold.Version>
5.8.1

> <Gold.Id.Protein>
6NUR|6NUR_protein|mol2

> <Gold.PLP.Fitness>
46.6686

> <Gold.PLP.PLP>
-44.6379

> <Gold.PLP.part.hbond>
-3.7849

> <Gold.PLP.part.metal>
0.0000

> <Gold.PLP.part.buried>
-2.5978

> <Gold.PLP.part.nonpolar>
-38.2905

> <Gold.PLP.part.repulsive>
0.0658

> <Gold.PLP.ligand.clash>
1.1061

> <Gold.PLP.ligand.torsion>
1.5294

> <Gold.PLP.Chemscore.Hbond>
2.0000

> <Gold.PLP.Chemscore.CHOScore>
0.0000

> <Gold.PLP.Chemscore.Metal>
0.0000

> <Gold.Chemscore.Hbonds>
donor molecule, donor type, donor heavy atom, donor atom, acceptor molecule, acceptor atom, score
      L1  H    12    36       P1  7957  1.00
      P1  H 10752 10763       L1    16  0.51

> <Gold.PLP.Chemscore.Internal.Correction>
0.1956

> <Gold.Rescore>
     Score         DG    S(hbond)    S(metal)    S(lipo)     H(rot)  DE(clash)    DE(int)     intcor
     16.83     -18.33       1.61        0.00     113.35       2.27       0.07       1.43       ----

> <Gold.Chemscore.Fitness>
16.8253

> <Gold.Chemscore.DG>
-18.3256

> <Gold.Chemscore.ZeroCoef>
-5.4800

> <Gold.Chemscore.Hbond>
1.6126

> <Gold.Chemscore.Metal>
0.0000

> <Gold.Chemscore.Lipo>
113.3548

> <Gold.Chemscore.Internal_Hbond>
0.0000

> <Gold.Chemscore.DEClash>
0.0664

> <Gold.Chemscore.DEInternal>
1.4340

> <Gold.Chemscore.Rot>
2.2667

> <Gold.Chemscore.Internal.Correction>
   9.000000E+99

> <Gold.Chemscore.Hbonds>
donor molecule, donor type, donor heavy atom, donor atom, acceptor molecule, acceptor atom, score
      L1  H    12    36       P1  7957  0.97
      P1  H 10752 10763       L1    16  0.05

> <Gold.Chemscore.Hbond.Weighted>
-5.3860

> <Gold.Chemscore.Metal.Weighted>
-0.0000

> <Gold.Chemscore.Lipo.Weighted>
-13.2625

> <Gold.Chemscore.Internal_Hbond.Weighted>
0.0000

> <Gold.Chemscore.DEClash.Weighted>
0.0664

> <Gold.Chemscore.DEInternal.Weighted>
1.4340

> <Gold.Chemscore.Rot.Weighted>
5.8028

> <Gold.Chemscore.Internal.Correction.Weighted>
   9.000000E+99

> <Gold.Protein.RotatedTorsions>
[ 6907 6896 6895 6894 ] final -153.62 input  -60.11 | X-H torsion
[ 7974 7965 7964 7962 ] final  147.83 input  175.53 | X-H torsion
[ 8008 7997 7996 7995 ] final   45.62 input   59.86 | X-H torsion
[ 10167 10162 10161 10158 ] final   76.77 input  -65.29 | X-H torsion
[ 10718 10713 10712 10709 ] final  -20.74 input   66.30 | X-H torsion
[ 10763 10752 10751 10750 ] final   88.27 input  -60.55 | X-H torsion
[ 11005 11000 10999 10996 ] final  -42.82 input  -57.11 | X-H torsion

> <Gold.Protein.ActiveResidues>
 VAL166  LYS551  ARG553  GLY616  TRP617  ASP618  TYR619  PRO620  LYS621  CYS622 
 ASP623  PHE694  ASN695  SER759  ASP760  ASP761  ALA762  ILE779  LEU786  VAL792 
 PHE793  MET794  SER795  GLU796  ALA797  LYS798  CYS799  TRP800  GLU811  SER814 

> <Gold.Protein.RotatedAtoms>
  151.2453  133.4378  159.2608 H   0  0  0  0  0  0  0  0  0  0  0  0  # atno 6907 bound_to 6896
  151.0667  134.9772  159.8298 H   0  0  0  0  0  0  0  0  0  0  0  0  # atno 6908 bound_to 6896
  152.5406  134.2401  159.8911 H   0  0  0  0  0  0  0  0  0  0  0  0  # atno 6909 bound_to 6896
  144.8561  139.6077  143.5952 H   0  0  0  0  0  0  0  0  0  0  0  0  # atno 7974 bound_to 7965
  155.3389  140.3407  155.4239 H   0  0  0  0  0  0  0  0  0  0  0  0  # atno 8008 bound_to 7997
  156.1823  140.1668  156.8286 H   0  0  0  0  0  0  0  0  0  0  0  0  # atno 8009 bound_to 7997
  154.5348  140.0737  156.8391 H   0  0  0  0  0  0  0  0  0  0  0  0  # atno 8010 bound_to 7997
  139.9887  144.5773  150.7837 H   0  0  0  0  0  0  0  0  0  0  0  0  # atno 10167 bound_to 10162
  156.5277  130.4647  149.6563 H   0  0  0  0  0  0  0  0  0  0  0  0  # atno 10718 bound_to 10713
  153.1751  135.4513  154.9955 H   0  0  0  0  0  0  0  0  0  0  0  0  # atno 10763 bound_to 10752
  154.7993  135.3249  154.7593 H   0  0  0  0  0  0  0  0  0  0  0  0  # atno 10764 bound_to 10752
  153.8064  135.6958  153.4902 H   0  0  0  0  0  0  0  0  0  0  0  0  # atno 10765 bound_to 10752
  141.0341  133.6807  156.2647 H   0  0  0  0  0  0  0  0  0  0  0  0  # atno 11005 bound_to 11000
  146.2824  139.6913  142.9219 LP  0  0  0  0  0  0  0  0  0  0  0  0  # atno 17320 bound_to 7965
  145.4403  141.0422  143.2861 LP  0  0  0  0  0  0  0  0  0  0  0  0  # atno 17321 bound_to 7965
  140.7463  143.2888  151.3388 LP  0  0  0  0  0  0  0  0  0  0  0  0  # atno 17342 bound_to 10162
  139.6356  144.0637  152.2513 LP  0  0  0  0  0  0  0  0  0  0  0  0  # atno 17343 bound_to 10162
  156.3089  130.7218  151.2106 LP  0  0  0  0  0  0  0  0  0  0  0  0  # atno 17370 bound_to 10713
  157.7427  131.0486  150.5006 LP  0  0  0  0  0  0  0  0  0  0  0  0  # atno 17371 bound_to 10713
  140.6353  134.5222  157.5564 LP  0  0  0  0  0  0  0  0  0  0  0  0  # atno 17394 bound_to 11000
  139.9228  134.8114  156.1158 LP  0  0  0  0  0  0  0  0  0  0  0  0  # atno 17395 bound_to 11000

$$$$
