AV-unprocessed.smi:1011|AV-procd|sdf|4420|dock3
  -GOLD-   22720 2373D 1   1.00000     0.00000
 Structure written by MMmdl.
 43 45  0  0  0  0  0  0  0  0  1 V2000
  144.4720  132.4669  149.6869 C   0  0  0  0  0  0  0  0  0  0  0  0
  144.6898  133.4690  150.7835 C   0  0  0  0  0  0  0  0  0  0  0  0
  144.1994  133.4217  152.1195 C   0  0  0  0  0  0  0  0  0  0  0  0
  144.5732  134.4648  152.8420 N   0  0  0  0  0  0  0  0  0  0  0  0
  145.3134  135.2125  151.9967 N   0  0  0  0  0  0  0  0  0  0  0  0
  145.8998  136.4544  152.4608 C   0  0  0  0  0  0  0  0  0  0  0  0
  146.0369  137.4706  151.3190 C   0  0  0  0  0  0  0  0  0  0  0  0
  147.1191  138.3955  151.6122 N   0  0  0  0  0  0  0  0  0  0  0  0
  146.8180  139.1343  152.8298 C   0  0  0  0  0  0  0  0  0  0  0  0
  148.0077  139.3718  153.7169 C   0  0  0  0  0  0  0  0  0  0  0  0
  148.8580  138.4091  154.0839 N   0  0  0  0  0  0  0  0  0  0  0  0
  149.7677  139.0871  154.8713 C   0  0  0  0  0  0  0  0  0  0  0  0
  150.9130  138.6244  155.5577 C   0  0  0  0  0  0  0  0  0  0  0  0
  151.7020  139.5169  156.3130 C   0  0  0  0  0  0  0  0  0  0  0  0
  153.0977  138.9355  157.1443 Cl  0  0  0  0  0  0  0  0  0  0  0  0
  151.3561  140.8818  156.3929 C   0  0  0  0  0  0  0  0  0  0  0  0
  150.2186  141.3636  155.7168 C   0  0  0  0  0  0  0  0  0  0  0  0
  149.4366  140.4683  154.9629 C   0  0  0  0  0  0  0  0  0  0  0  0
  148.2856  140.6102  154.1949 N   0  0  0  0  0  0  0  0  0  0  0  0
  147.5478  141.8433  153.9716 C   0  0  0  0  0  0  0  0  0  0  0  0
  146.1283  141.7604  154.5489 C   0  0  0  0  0  0  0  0  0  0  0  0
  145.4319  142.9555  154.2725 O   0  0  0  0  0  0  0  0  0  0  0  0
  145.4002  134.6356  150.7475 C   0  0  0  0  0  0  0  0  0  0  0  0
  143.5460  131.9092  149.8282 H   0  0  0  0  0  0  0  0  0  0  0  0
  145.2822  131.7390  149.6428 H   0  0  0  0  0  0  0  0  0  0  0  0
  144.4126  132.9437  148.7083 H   0  0  0  0  0  0  0  0  0  0  0  0
  143.5861  132.6631  152.5830 H   0  0  0  0  0  0  0  0  0  0  0  0
  145.2732  136.8572  153.2579 H   0  0  0  0  0  0  0  0  0  0  0  0
  146.8740  136.2356  152.9010 H   0  0  0  0  0  0  0  0  0  0  0  0
  146.2419  136.9555  150.3793 H   0  0  0  0  0  0  0  0  0  0  0  0
  145.1031  138.0208  151.1953 H   0  0  0  0  0  0  0  0  0  0  0  0
  147.9762  137.8768  151.7400 H   0  0  0  0  0  0  0  0  0  0  0  0
  146.3947  140.1041  152.5656 H   0  0  0  0  0  0  0  0  0  0  0  0
  146.0604  138.5901  153.3947 H   0  0  0  0  0  0  0  0  0  0  0  0
  151.1837  137.5804  155.5018 H   0  0  0  0  0  0  0  0  0  0  0  0
  151.9640  141.5603  156.9733 H   0  0  0  0  0  0  0  0  0  0  0  0
  149.9516  142.4082  155.7765 H   0  0  0  0  0  0  0  0  0  0  0  0
  148.0967  142.6638  154.4355 H   0  0  0  0  0  0  0  0  0  0  0  0
  147.5191  142.0598  152.9032 H   0  0  0  0  0  0  0  0  0  0  0  0
  145.5809  140.9225  154.1164 H   0  0  0  0  0  0  0  0  0  0  0  0
  146.1591  141.6085  155.6285 H   0  0  0  0  0  0  0  0  0  0  0  0
  144.6830  142.7491  153.7340 H   0  0  0  0  0  0  0  0  0  0  0  0
  145.9562  135.0972  149.9449 H   0  0  0  0  0  0  0  0  0  0  0  0
  1  2  1  0  0  0  0
  1 24  1  0  0  0  0
  1 25  1  0  0  0  0
  1 26  1  0  0  0  0
  2 23  2  0  0  0  0
  2  3  1  0  0  0  0
  3  4  2  0  0  0  0
  3 27  1  0  0  0  0
  4  5  1  0  0  0  0
  5  6  1  0  0  0  0
  5 23  1  0  0  0  0
  6  7  1  0  0  0  0
  6 28  1  0  0  0  0
  6 29  1  0  0  0  0
  7  8  1  0  0  0  0
  7 30  1  0  0  0  0
  7 31  1  0  0  0  0
  8  9  1  0  0  0  0
  8 32  1  0  0  0  0
  9 10  1  0  0  0  0
  9 33  1  0  0  0  0
  9 34  1  0  0  0  0
 10 19  1  0  0  0  0
 10 11  2  0  0  0  0
 11 12  1  0  0  0  0
 12 18  2  0  0  0  0
 12 13  1  0  0  0  0
 13 14  2  0  0  0  0
 13 35  1  0  0  0  0
 14 15  1  0  0  0  0
 14 16  1  0  0  0  0
 16 17  2  0  0  0  0
 16 36  1  0  0  0  0
 17 18  1  0  0  0  0
 17 37  1  0  0  0  0
 18 19  1  0  0  0  0
 19 20  1  0  0  0  0
 20 21  1  0  0  0  0
 20 38  1  0  0  0  0
 20 39  1  0  0  0  0
 21 22  1  0  0  0  0
 21 40  1  0  0  0  0
 21 41  1  0  0  0  0
 22 42  1  0  0  0  0
 23 43  1  0  0  0  0
M  END
> <s_m_source_file>
AV-unprocessed.smi

> <i_m_source_file_index>
1011

> <i_lp_mmshare_version>
43012

> <i_f3d_flags>
0

> <s_epik_input>
W0NIM11jMVtjSF1ubihbY0hdMSlbQ0gyXVtDSDJdW05IXVtDSDJdYyhuMiluKFtDSDJdW0NIMl1bT0hdKWMoYzIzKVtjSF1bY0hdYyhDbClbY0hdMw==

> <s_epik_cmdline>
J2VwaWtfcHl0aG9uJywgJy1waCcsICc3LjAnLCAnLXRuJywgJzgnLCAnLW1hJywgJzIwMCcsICctbWV0YWxfYmluZGluZycsICctaW1hZScsICc8aW5maWxlLm1hZT4nLCAnLW9tYWUnLCAnPG91dGZpbGUubWFlPic=

> <r_lp_tautomer_probability>
1

> <r_epik_Ionization_Penalty>
0.714951

> <r_epik_Ionization_Penalty_Charging>
0

> <r_epik_Ionization_Penalty_Neutral>
0.714951

> <r_epik_State_Penalty>
0.695393

> <r_epik_Charging_Adjusted_Penalty>
0.695393

> <i_epik_Tot_Q>
0

> <i_epik_Tot_abs_Q>
0

> <r_epik_Metal_State_Penalty>
0.662708

> <b_epik_Metal_Only>
0

> <s_lp_Force_Field>
OPLS_2005

> <r_lp_Energy>
11.4797

> <b_lp_Chiralities_Consistent>
1

> <s_lp_Variant>
AV-unprocessed.smi:1011-2

> <Gold.Version>
5.8.1

> <Gold.Id.Protein>
6NUR|6NUR_protein|mol2

> <Gold.PLP.Fitness>
50.3760

> <Gold.PLP.PLP>
-42.9717

> <Gold.PLP.part.hbond>
-2.9725

> <Gold.PLP.part.metal>
0.0000

> <Gold.PLP.part.buried>
-1.3131

> <Gold.PLP.part.nonpolar>
-40.6720

> <Gold.PLP.part.repulsive>
0.5275

> <Gold.PLP.ligand.clash>
0.0000

> <Gold.PLP.ligand.torsion>
0.9052

> <Gold.PLP.Chemscore.Hbond>
1.0000

> <Gold.PLP.Chemscore.CHOScore>
2.0000

> <Gold.PLP.Chemscore.Metal>
0.0000

> <Gold.Chemscore.Hbonds>
donor molecule, donor type, donor heavy atom, donor atom, acceptor molecule, acceptor atom, score
      L1  H     8    32       P1  7948  1.00
      L1  C     3    27       P1 10957  0.70
      L1  C    23    43       P1  7921  1.00

> <Gold.PLP.Chemscore.Internal.Correction>
0.2148

> <Gold.Rescore>
     Score         DG    S(hbond)    S(metal)    S(lipo)     H(rot)  DE(clash)    DE(int)     intcor
     11.45     -13.91       0.99        0.00     105.90       2.84       1.48       0.98       ----

> <Gold.Chemscore.Fitness>
11.4491

> <Gold.Chemscore.DG>
-13.9051

> <Gold.Chemscore.ZeroCoef>
-5.4800

> <Gold.Chemscore.Hbond>
0.9930

> <Gold.Chemscore.Metal>
0.0000

> <Gold.Chemscore.Lipo>
105.8966

> <Gold.Chemscore.Internal_Hbond>
0.0000

> <Gold.Chemscore.DEClash>
1.4779

> <Gold.Chemscore.DEInternal>
0.9781

> <Gold.Chemscore.Rot>
2.8442

> <Gold.Chemscore.Internal.Correction>
   9.000000E+99

> <Gold.Chemscore.Hbonds>
donor molecule, donor type, donor heavy atom, donor atom, acceptor molecule, acceptor atom, score
      L1  H     8    32       P1  7948  0.96

> <Gold.Chemscore.Hbond.Weighted>
-3.3165

> <Gold.Chemscore.Metal.Weighted>
-0.0000

> <Gold.Chemscore.Lipo.Weighted>
-12.3899

> <Gold.Chemscore.Internal_Hbond.Weighted>
0.0000

> <Gold.Chemscore.DEClash.Weighted>
1.4779

> <Gold.Chemscore.DEInternal.Weighted>
0.9781

> <Gold.Chemscore.Rot.Weighted>
7.2812

> <Gold.Chemscore.Internal.Correction.Weighted>
   9.000000E+99

> <Gold.Protein.RotatedTorsions>
[ 6907 6896 6895 6894 ] final   36.41 input  -60.11 | X-H torsion
[ 7974 7965 7964 7962 ] final  168.09 input  175.53 | X-H torsion
[ 8008 7997 7996 7995 ] final  172.05 input   59.86 | X-H torsion
[ 10167 10162 10161 10158 ] final   39.57 input  -65.29 | X-H torsion
[ 10718 10713 10712 10709 ] final  -46.40 input   66.30 | X-H torsion
[ 10763 10752 10751 10750 ] final   64.29 input  -60.55 | X-H torsion
[ 11005 11000 10999 10996 ] final   59.75 input  -57.11 | X-H torsion

> <Gold.Protein.ActiveResidues>
 VAL166  LYS551  ARG553  GLY616  TRP617  ASP618  TYR619  PRO620  LYS621  CYS622 
 ASP623  PHE694  ASN695  SER759  ASP760  ASP761  ALA762  ILE779  LEU786  VAL792 
 PHE793  MET794  SER795  GLU796  ALA797  LYS798  CYS799  TRP800  GLU811  SER814 

> <Gold.Protein.RotatedAtoms>
  152.1293  134.9147  160.0559 H   0  0  0  0  0  0  0  0  0  0  0  0  # atno 6907 bound_to 6896
  152.0257  133.3912  159.4285 H   0  0  0  0  0  0  0  0  0  0  0  0  # atno 6908 bound_to 6896
  150.6855  134.3498  159.4947 H   0  0  0  0  0  0  0  0  0  0  0  0  # atno 6909 bound_to 6896
  144.7401  139.8857  143.6399 H   0  0  0  0  0  0  0  0  0  0  0  0  # atno 7974 bound_to 7965
  156.1212  140.1496  156.9201 H   0  0  0  0  0  0  0  0  0  0  0  0  # atno 8008 bound_to 7997
  154.4837  140.0871  156.7479 H   0  0  0  0  0  0  0  0  0  0  0  0  # atno 8009 bound_to 7997
  155.4425  140.3431  155.4293 H   0  0  0  0  0  0  0  0  0  0  0  0  # atno 8010 bound_to 7997
  140.3827  144.1958  150.6130 H   0  0  0  0  0  0  0  0  0  0  0  0  # atno 10167 bound_to 10162
  156.2187  130.4165  149.9021 H   0  0  0  0  0  0  0  0  0  0  0  0  # atno 10718 bound_to 10713
  153.0050  135.5398  154.6486 H   0  0  0  0  0  0  0  0  0  0  0  0  # atno 10763 bound_to 10752
  154.5724  135.2843  155.0817 H   0  0  0  0  0  0  0  0  0  0  0  0  # atno 10764 bound_to 10752
  154.1977  135.6489  153.5130 H   0  0  0  0  0  0  0  0  0  0  0  0  # atno 10765 bound_to 10752
  140.0281  134.6052  155.9544 H   0  0  0  0  0  0  0  0  0  0  0  0  # atno 11005 bound_to 11000
  146.1179  139.4192  143.0247 LP  0  0  0  0  0  0  0  0  0  0  0  0  # atno 17320 bound_to 7965
  145.7348  141.0029  143.1332 LP  0  0  0  0  0  0  0  0  0  0  0  0  # atno 17321 bound_to 7965
  140.4921  143.2344  151.8803 LP  0  0  0  0  0  0  0  0  0  0  0  0  # atno 17342 bound_to 10162
  139.4794  144.5154  151.8875 LP  0  0  0  0  0  0  0  0  0  0  0  0  # atno 17343 bound_to 10162
  156.6675  130.8807  151.3557 LP  0  0  0  0  0  0  0  0  0  0  0  0  # atno 17370 bound_to 10713
  157.7076  130.9403  150.0983 LP  0  0  0  0  0  0  0  0  0  0  0  0  # atno 17371 bound_to 10713
  141.1815  133.6547  156.5040 LP  0  0  0  0  0  0  0  0  0  0  0  0  # atno 17394 bound_to 11000
  140.4271  134.7135  157.4922 LP  0  0  0  0  0  0  0  0  0  0  0  0  # atno 17395 bound_to 11000

$$$$
