AV-unprocessed.smi:162|AV-procd|sdf|1376|dock6
  -GOLD-   2262019103D 1   1.00000     0.00000
 Structure written by MMmdl.
 54 57  0  0  0  0  0  0  0  0  1 V2000
  150.7138  138.1098  154.3177 C   0  0  0  0  0  0  0  0  0  0  0  0
  151.0740  139.3790  154.8405 O   0  0  0  0  0  0  0  0  0  0  0  0
  151.3614  139.3727  156.2321 C   0  0  0  0  0  0  0  0  0  0  0  0
  151.4288  140.8008  156.8163 C   0  0  2  0  0  0  0  0  0  0  0  0
  152.4098  140.9320  157.9876 C   0  0  0  0  0  0  0  0  0  0  0  0
  151.8224  142.0440  158.8734 C   0  0  1  0  0  0  0  0  0  0  0  0
  152.6601  143.1894  158.9453 O   0  0  0  0  0  0  0  0  0  0  0  0
  152.0520  144.2950  159.5940 C   0  0  0  0  0  0  0  0  0  0  0  0
  150.5063  142.4205  158.1837 C   0  0  0  0  0  0  0  0  0  0  0  0
  150.1602  141.2760  157.3520 N   0  0  0  0  0  0  0  0  0  0  0  0
  149.1799  141.4615  156.4364 C   0  0  0  0  0  0  0  0  0  0  0  0
  149.4135  141.2361  155.1160 N   0  0  0  0  0  0  0  0  0  0  0  0
  148.4288  141.3922  154.2255 C   0  0  0  0  0  0  0  0  0  0  0  0
  147.1609  141.7521  154.4370 N   0  0  0  0  0  0  0  0  0  0  0  0
  146.9243  141.9769  155.7613 C   0  0  0  0  0  0  0  0  0  0  0  0
  147.8703  141.8573  156.8169 C   0  0  0  0  0  0  0  0  0  0  0  0
  147.2690  142.1577  158.0323 N   0  0  0  0  0  0  0  0  0  0  0  0
  146.0332  142.4317  157.7141 C   0  0  0  0  0  0  0  0  0  0  0  0
  145.7410  142.3575  156.3702 N   0  0  0  0  0  0  0  0  0  0  0  0
  144.4514  142.5990  155.7426 C   0  0  0  0  0  0  0  0  0  0  0  0
  144.2775  144.0219  155.1540 C   0  0  0  0  0  0  0  0  0  0  0  0
  144.8516  144.8940  156.1110 O   0  0  0  0  0  0  0  0  0  0  0  0
  145.0236  144.2140  153.8160 C   0  0  0  0  0  0  0  0  0  0  0  0
  144.7656  145.6063  153.2116 C   0  0  0  0  0  0  0  0  0  0  0  0
  143.3669  145.8162  153.0527 O   0  0  0  0  0  0  0  0  0  0  0  0
  142.6612  145.8002  154.2884 C   0  0  0  0  0  0  0  0  0  0  0  0
  142.7986  144.4200  154.9565 C   0  0  0  0  0  0  0  0  0  0  0  0
  151.7284  141.5004  156.0346 H   0  0  0  0  0  0  0  0  0  0  0  0
  151.6070  141.6565  159.8708 H   0  0  0  0  0  0  0  0  0  0  0  0
  150.5747  138.1892  153.2398 H   0  0  0  0  0  0  0  0  0  0  0  0
  149.7789  137.7465  154.7437 H   0  0  0  0  0  0  0  0  0  0  0  0
  151.4934  137.3694  154.5000 H   0  0  0  0  0  0  0  0  0  0  0  0
  150.6249  138.7611  156.7546 H   0  0  0  0  0  0  0  0  0  0  0  0
  152.3239  138.8790  156.3702 H   0  0  0  0  0  0  0  0  0  0  0  0
  152.4541  140.0034  158.5581 H   0  0  0  0  0  0  0  0  0  0  0  0
  153.4181  141.1487  157.6341 H   0  0  0  0  0  0  0  0  0  0  0  0
  152.7494  145.1322  159.6169 H   0  0  0  0  0  0  0  0  0  0  0  0
  151.7779  144.0607  160.6229 H   0  0  0  0  0  0  0  0  0  0  0  0
  151.1581  144.6198  159.0603 H   0  0  0  0  0  0  0  0  0  0  0  0
  149.7200  142.6364  158.9076 H   0  0  0  0  0  0  0  0  0  0  0  0
  150.6538  143.3124  157.5729 H   0  0  0  0  0  0  0  0  0  0  0  0
  148.6939  141.1975  153.1969 H   0  0  0  0  0  0  0  0  0  0  0  0
  145.2958  142.7005  158.4566 H   0  0  0  0  0  0  0  0  0  0  0  0
  144.3152  141.8514  154.9598 H   0  0  0  0  0  0  0  0  0  0  0  0
  143.6755  142.4025  156.4841 H   0  0  0  0  0  0  0  0  0  0  0  0
  145.5608  145.3651  155.7007 H   0  0  0  0  0  0  0  0  0  0  0  0
  146.0945  144.0534  153.9469 H   0  0  0  0  0  0  0  0  0  0  0  0
  144.6874  143.4708  153.0935 H   0  0  0  0  0  0  0  0  0  0  0  0
  145.1959  146.3929  153.8332 H   0  0  0  0  0  0  0  0  0  0  0  0
  145.2437  145.6818  152.2349 H   0  0  0  0  0  0  0  0  0  0  0  0
  143.0285  146.5936  154.9410 H   0  0  0  0  0  0  0  0  0  0  0  0
  141.6106  146.0157  154.0934 H   0  0  0  0  0  0  0  0  0  0  0  0
  142.3005  143.6906  154.3178 H   0  0  0  0  0  0  0  0  0  0  0  0
  142.2668  144.4076  155.9086 H   0  0  0  0  0  0  0  0  0  0  0  0
  1  2  1  0  0  0  0
  1 30  1  0  0  0  0
  1 31  1  0  0  0  0
  1 32  1  0  0  0  0
  2  3  1  0  0  0  0
  3  4  1  0  0  0  0
  3 33  1  0  0  0  0
  3 34  1  0  0  0  0
  4 28  1  0  0  0  0
  4 10  1  0  0  0  0
  4  5  1  0  0  0  0
  5  6  1  0  0  0  0
  5 35  1  0  0  0  0
  5 36  1  0  0  0  0
  6 29  1  0  0  0  0
  6  7  1  0  0  0  0
  6  9  1  0  0  0  0
  7  8  1  0  0  0  0
  8 37  1  0  0  0  0
  8 38  1  0  0  0  0
  8 39  1  0  0  0  0
  9 10  1  0  0  0  0
  9 40  1  0  0  0  0
  9 41  1  0  0  0  0
 10 11  1  0  0  0  0
 11 16  1  0  0  0  0
 11 12  2  0  0  0  0
 12 13  1  0  0  0  0
 13 14  2  0  0  0  0
 13 42  1  0  0  0  0
 14 15  1  0  0  0  0
 15 19  1  0  0  0  0
 15 16  2  0  0  0  0
 16 17  1  0  0  0  0
 17 18  2  0  0  0  0
 18 19  1  0  0  0  0
 18 43  1  0  0  0  0
 19 20  1  0  0  0  0
 20 21  1  0  0  0  0
 20 44  1  0  0  0  0
 20 45  1  0  0  0  0
 21 27  1  0  0  0  0
 21 22  1  0  0  0  0
 21 23  1  0  0  0  0
 22 46  1  0  0  0  0
 23 24  1  0  0  0  0
 23 47  1  0  0  0  0
 23 48  1  0  0  0  0
 24 25  1  0  0  0  0
 24 49  1  0  0  0  0
 24 50  1  0  0  0  0
 25 26  1  0  0  0  0
 26 27  1  0  0  0  0
 26 51  1  0  0  0  0
 26 52  1  0  0  0  0
 27 53  1  0  0  0  0
 27 54  1  0  0  0  0
M  END
> <s_m_source_file>
AV-unprocessed.smi

> <i_m_source_file_index>
162

> <i_lp_mmshare_version>
43012

> <i_f3d_flags>
0

> <s_epik_input>
W0NIM11PW0NIMl1bQ0BASF0xW0NIMl1bQ0BASF0oT1tDSDNdKVtDSDJdTjFjKG5bY0hdbjIpYyhjMjMpbltjSF1uM1tDSDJdQzQoW09IXSlbQ0gyXVtDSDJdT1tDSDJdW0NIMl00

> <s_epik_cmdline>
J2VwaWtfcHl0aG9uJywgJy1waCcsICc3LjAnLCAnLXRuJywgJzgnLCAnLW1hJywgJzIwMCcsICctbWV0YWxfYmluZGluZycsICctaW1hZScsICc8aW5maWxlLm1hZT4nLCAnLW9tYWUnLCAnPG91dGZpbGUubWFlPic=

> <r_lp_tautomer_probability>
1

> <r_epik_Ionization_Penalty>
0.00660334

> <r_epik_Ionization_Penalty_Charging>
0

> <r_epik_Ionization_Penalty_Neutral>
0.00660334

> <r_epik_State_Penalty>
0.00469459

> <r_epik_Charging_Adjusted_Penalty>
0.00469459

> <i_epik_Tot_Q>
0

> <i_epik_Tot_abs_Q>
0

> <r_epik_Metal_State_Penalty>
-0

> <b_epik_Metal_Only>
0

> <s_lp_Force_Field>
OPLS_2005

> <r_lp_Energy>
45.7705

> <b_lp_Chiralities_Consistent>
1

> <s_lp_Variant>
AV-unprocessed.smi:162-1

> <Gold.Version>
5.8.1

> <Gold.Id.Protein>
6NUR|6NUR_protein|mol2

> <Gold.PLP.Fitness>
44.1539

> <Gold.PLP.PLP>
-40.1937

> <Gold.PLP.part.hbond>
-1.5847

> <Gold.PLP.part.metal>
0.0000

> <Gold.PLP.part.buried>
-8.9925

> <Gold.PLP.part.nonpolar>
-29.0278

> <Gold.PLP.part.repulsive>
0.6128

> <Gold.PLP.ligand.clash>
0.0000

> <Gold.PLP.ligand.torsion>
1.0589

> <Gold.PLP.Chemscore.Hbond>
1.0000

> <Gold.PLP.Chemscore.CHOScore>
1.0000

> <Gold.PLP.Chemscore.Metal>
0.0000

> <Gold.Chemscore.Hbonds>
donor molecule, donor type, donor heavy atom, donor atom, acceptor molecule, acceptor atom, score
      P1  H  7989  7998       L1     2  0.88
      L1  C    13    42       P1  7957  1.00

> <Gold.PLP.Chemscore.Internal.Correction>
0.0778

> <Gold.Rescore>
     Score         DG    S(hbond)    S(metal)    S(lipo)     H(rot)  DE(clash)    DE(int)     intcor
      6.61     -12.28       0.96        0.00      93.30       2.86       1.78       3.89       ----

> <Gold.Chemscore.Fitness>
6.6129

> <Gold.Chemscore.DG>
-12.2842

> <Gold.Chemscore.ZeroCoef>
-5.4800

> <Gold.Chemscore.Hbond>
0.9642

> <Gold.Chemscore.Metal>
0.0000

> <Gold.Chemscore.Lipo>
93.2996

> <Gold.Chemscore.Internal_Hbond>
0.0000

> <Gold.Chemscore.DEClash>
1.7802

> <Gold.Chemscore.DEInternal>
3.8912

> <Gold.Chemscore.Rot>
2.8642

> <Gold.Chemscore.Internal.Correction>
   9.000000E+99

> <Gold.Chemscore.Hbonds>
donor molecule, donor type, donor heavy atom, donor atom, acceptor molecule, acceptor atom, score
      P1  H  7989  7998       L1     2  0.82

> <Gold.Chemscore.Hbond.Weighted>
-3.2206

> <Gold.Chemscore.Metal.Weighted>
-0.0000

> <Gold.Chemscore.Lipo.Weighted>
-10.9161

> <Gold.Chemscore.Internal_Hbond.Weighted>
0.0000

> <Gold.Chemscore.DEClash.Weighted>
1.7802

> <Gold.Chemscore.DEInternal.Weighted>
3.8912

> <Gold.Chemscore.Rot.Weighted>
7.3324

> <Gold.Chemscore.Internal.Correction.Weighted>
   9.000000E+99

> <Gold.Protein.RotatedTorsions>
[ 6907 6896 6895 6894 ] final   57.22 input  -60.11 | X-H torsion
[ 7974 7965 7964 7962 ] final  177.08 input  175.53 | X-H torsion
[ 8008 7997 7996 7995 ] final -163.48 input   59.86 | X-H torsion
[ 10167 10162 10161 10158 ] final  -96.64 input  -65.29 | X-H torsion
[ 10718 10713 10712 10709 ] final  -85.89 input   66.30 | X-H torsion
[ 10763 10752 10751 10750 ] final -152.74 input  -60.55 | X-H torsion
[ 11005 11000 10999 10996 ] final -100.27 input  -57.11 | X-H torsion

> <Gold.Protein.ActiveResidues>
 VAL166  LYS551  ARG553  GLY616  TRP617  ASP618  TYR619  PRO620  LYS621  CYS622 
 ASP623  PHE694  ASN695  SER759  ASP760  ASP761  ALA762  ILE779  LEU786  VAL792 
 PHE793  MET794  SER795  GLU796  ALA797  LYS798  CYS799  TRP800  GLU811  SER814 

> <Gold.Protein.RotatedAtoms>
  152.3711  134.6733  160.0175 H   0  0  0  0  0  0  0  0  0  0  0  0  # atno 6907 bound_to 6896
  151.7025  133.3306  159.3278 H   0  0  0  0  0  0  0  0  0  0  0  0  # atno 6908 bound_to 6896
  150.7674  134.6538  159.6347 H   0  0  0  0  0  0  0  0  0  0  0  0  # atno 6909 bound_to 6896
  144.7174  140.0194  143.6440 H   0  0  0  0  0  0  0  0  0  0  0  0  # atno 7974 bound_to 7965
  155.8218  140.0921  157.1844 H   0  0  0  0  0  0  0  0  0  0  0  0  # atno 8008 bound_to 7997
  154.3979  140.1435  156.3570 H   0  0  0  0  0  0  0  0  0  0  0  0  # atno 8009 bound_to 7997
  155.8258  140.3444  155.5544 H   0  0  0  0  0  0  0  0  0  0  0  0  # atno 8010 bound_to 7997
  140.2917  143.3217  152.0339 H   0  0  0  0  0  0  0  0  0  0  0  0  # atno 10167 bound_to 10162
  155.9993  130.4746  150.4631 H   0  0  0  0  0  0  0  0  0  0  0  0  # atno 10718 bound_to 10713
  154.7974  135.3229  154.7633 H   0  0  0  0  0  0  0  0  0  0  0  0  # atno 10763 bound_to 10752
  153.8309  135.6879  153.4819 H   0  0  0  0  0  0  0  0  0  0  0  0  # atno 10764 bound_to 10752
  153.1672  135.4637  154.9796 H   0  0  0  0  0  0  0  0  0  0  0  0  # atno 10765 bound_to 10752
  141.1277  133.8386  157.1080 H   0  0  0  0  0  0  0  0  0  0  0  0  # atno 11005 bound_to 11000
  146.0193  139.3237  143.0822 LP  0  0  0  0  0  0  0  0  0  0  0  0  # atno 17320 bound_to 7965
  145.8587  140.9487  143.0711 LP  0  0  0  0  0  0  0  0  0  0  0  0  # atno 17321 bound_to 7965
  139.4936  144.6520  151.6655 LP  0  0  0  0  0  0  0  0  0  0  0  0  # atno 17342 bound_to 10162
  140.5727  144.0082  150.6225 LP  0  0  0  0  0  0  0  0  0  0  0  0  # atno 17343 bound_to 10162
  157.2653  131.0575  151.2294 LP  0  0  0  0  0  0  0  0  0  0  0  0  # atno 17370 bound_to 10713
  157.3394  130.7025  149.6372 LP  0  0  0  0  0  0  0  0  0  0  0  0  # atno 17371 bound_to 10713
  140.0292  134.9909  157.0747 LP  0  0  0  0  0  0  0  0  0  0  0  0  # atno 17394 bound_to 11000
  140.4312  134.1778  155.7168 LP  0  0  0  0  0  0  0  0  0  0  0  0  # atno 17395 bound_to 11000

$$$$
