AV-unprocessed.smi:2482|AV-procd|sdf|9780|dock3
  -GOLD-   2272013423D 1   1.00000     0.00000
 Structure written by MMmdl.
 34 35  0  0  0  0  0  0  0  0  1 V2000
  152.2113  141.3759  158.6693 C   0  0  0  0  0  0  0  0  0  0  0  0
  152.4001  142.2015  159.9282 C   0  0  0  0  0  0  0  0  0  0  0  0
  151.6864  143.3468  159.9889 N   0  0  0  0  0  0  0  0  0  0  0  0
  151.8230  144.1226  161.0835 C   0  0  0  0  0  0  0  0  0  0  0  0
  152.6641  143.7965  162.1643 C   0  0  0  0  0  0  0  0  0  0  0  0
  153.4008  142.5889  162.1116 C   0  0  0  0  0  0  0  0  0  0  0  0
  154.2954  142.1733  163.1361 N   0  0  0  0  0  0  0  0  0  0  0  0
  154.6333  142.8065  164.2749 C   0  0  0  0  0  0  0  0  0  0  0  0
  154.1989  143.9077  164.6130 O   0  0  0  0  0  0  0  0  0  0  0  0
  155.6310  142.0634  165.1753 C   0  0  1  0  0  0  0  0  0  0  0  0
  155.2312  142.0911  166.6687 C   0  0  0  0  0  0  0  0  0  0  0  0
  156.1565  141.3228  167.4920 N   0  0  0  0  0  0  0  0  0  0  0  0
  155.7743  141.3494  168.8955 C   0  0  0  0  0  0  0  0  0  0  0  0
  156.2484  139.9603  166.9858 C   0  0  0  0  0  0  0  0  0  0  0  0
  156.6483  139.9339  165.5013 C   0  0  0  0  0  0  0  0  0  0  0  0
  155.7197  140.7040  164.7446 O   0  0  0  0  0  0  0  0  0  0  0  0
  153.2740  141.7801  160.9579 C   0  0  0  0  0  0  0  0  0  0  0  0
  154.1642  140.3013  160.8106 Cl  0  0  0  0  0  0  0  0  0  0  0  0
  151.8291  140.3860  158.9190 H   0  0  0  0  0  0  0  0  0  0  0  0
  153.1606  141.2584  158.1463 H   0  0  0  0  0  0  0  0  0  0  0  0
  151.5050  141.8459  157.9835 H   0  0  0  0  0  0  0  0  0  0  0  0
  151.2489  145.0371  161.0959 H   0  0  0  0  0  0  0  0  0  0  0  0
  152.7360  144.4792  162.9965 H   0  0  0  0  0  0  0  0  0  0  0  0
  154.6647  141.2387  163.0324 H   0  0  0  0  0  0  0  0  0  0  0  0
  156.6054  142.5385  165.0486 H   0  0  0  0  0  0  0  0  0  0  0  0
  155.2043  143.1228  167.0224 H   0  0  0  0  0  0  0  0  0  0  0  0
  154.2204  141.6955  166.7844 H   0  0  0  0  0  0  0  0  0  0  0  0
  156.4952  140.8011  169.5027 H   0  0  0  0  0  0  0  0  0  0  0  0
  154.7918  140.8997  169.0454 H   0  0  0  0  0  0  0  0  0  0  0  0
  155.7389  142.3741  169.2668 H   0  0  0  0  0  0  0  0  0  0  0  0
  156.9774  139.3965  167.5690 H   0  0  0  0  0  0  0  0  0  0  0  0
  155.2897  139.4542  167.1096 H   0  0  0  0  0  0  0  0  0  0  0  0
  157.6559  140.3292  165.3645 H   0  0  0  0  0  0  0  0  0  0  0  0
  156.6514  138.9101  165.1270 H   0  0  0  0  0  0  0  0  0  0  0  0
  1  2  1  0  0  0  0
  1 19  1  0  0  0  0
  1 20  1  0  0  0  0
  1 21  1  0  0  0  0
  2 17  1  0  0  0  0
  2  3  2  0  0  0  0
  3  4  1  0  0  0  0
  4  5  2  0  0  0  0
  4 22  1  0  0  0  0
  5  6  1  0  0  0  0
  5 23  1  0  0  0  0
  6  7  1  0  0  0  0
  6 17  2  0  0  0  0
  7  8  1  0  0  0  0
  7 24  1  0  0  0  0
  8  9  2  0  0  0  0
  8 10  1  0  0  0  0
 10 16  1  0  0  0  0
 10 11  1  0  0  0  0
 10 25  1  0  0  0  0
 11 12  1  0  0  0  0
 11 26  1  0  0  0  0
 11 27  1  0  0  0  0
 12 13  1  0  0  0  0
 12 14  1  0  0  0  0
 13 28  1  0  0  0  0
 13 29  1  0  0  0  0
 13 30  1  0  0  0  0
 14 15  1  0  0  0  0
 14 31  1  0  0  0  0
 14 32  1  0  0  0  0
 15 16  1  0  0  0  0
 15 33  1  0  0  0  0
 15 34  1  0  0  0  0
 17 18  1  0  0  0  0
M  END
> <s_m_source_file>
AV-unprocessed.smi

> <i_m_source_file_index>
2482

> <i_lp_mmshare_version>
43012

> <i_f3d_flags>
0

> <s_epik_input>
W0NIM11jMW5bY0hdW2NIXWMoYzFDbClbTkhdQyg9TylbQ0BASF0yW0NIMl1OKFtDSDNdKVtDSDJdW0NIMl1PMg==

> <s_epik_cmdline>
J2VwaWtfcHl0aG9uJywgJy1waCcsICc3LjAnLCAnLXRuJywgJzgnLCAnLW1hJywgJzIwMCcsICctbWV0YWxfYmluZGluZycsICctaW1hZScsICc8aW5maWxlLm1hZT4nLCAnLW9tYWUnLCAnPG91dGZpbGUubWFlPic=

> <r_epik_Ionization_Penalty>
0.52656

> <r_epik_Ionization_Penalty_Charging>
0

> <r_epik_Ionization_Penalty_Neutral>
0.52656

> <r_epik_State_Penalty>
0.534659

> <r_epik_Charging_Adjusted_Penalty>
0.534659

> <i_epik_Tot_Q>
0

> <i_epik_Tot_abs_Q>
0

> <r_epik_Metal_State_Penalty>
0.54077

> <b_epik_Metal_Only>
0

> <s_lp_Force_Field>
OPLS_2005

> <r_lp_Energy>
25.124

> <b_lp_Chiralities_Consistent>
1

> <s_lp_Variant>
AV-unprocessed.smi:2482-6

> <Gold.Version>
5.8.1

> <Gold.Id.Protein>
6NUR|6NUR_protein|mol2

> <Gold.PLP.Fitness>
38.5268

> <Gold.PLP.PLP>
-39.2717

> <Gold.PLP.part.hbond>
-1.0125

> <Gold.PLP.part.metal>
0.0000

> <Gold.PLP.part.buried>
-4.6016

> <Gold.PLP.part.nonpolar>
-31.5026

> <Gold.PLP.part.repulsive>
0.1825

> <Gold.PLP.ligand.clash>
0.0000

> <Gold.PLP.ligand.torsion>
0.3734

> <Gold.PLP.Chemscore.Hbond>
0.0000

> <Gold.PLP.Chemscore.CHOScore>
0.0000

> <Gold.PLP.Chemscore.Metal>
0.0000

> <Gold.PLP.Chemscore.Internal.Correction>
0.0020

> <Gold.Rescore>
     Score         DG    S(hbond)    S(metal)    S(lipo)     H(rot)  DE(clash)    DE(int)     intcor
     12.63     -14.34       0.00        0.00      97.60       1.00       0.18       1.53       ----

> <Gold.Chemscore.Fitness>
12.6298

> <Gold.Chemscore.DG>
-14.3392

> <Gold.Chemscore.ZeroCoef>
-5.4800

> <Gold.Chemscore.Hbond>
0.0000

> <Gold.Chemscore.Metal>
0.0000

> <Gold.Chemscore.Lipo>
97.6004

> <Gold.Chemscore.Internal_Hbond>
0.0000

> <Gold.Chemscore.DEClash>
0.1775

> <Gold.Chemscore.DEInternal>
1.5320

> <Gold.Chemscore.Rot>
1.0000

> <Gold.Chemscore.Internal.Correction>
   9.000000E+99

> <Gold.Chemscore.Hbond.Weighted>
-0.0000

> <Gold.Chemscore.Metal.Weighted>
-0.0000

> <Gold.Chemscore.Lipo.Weighted>
-11.4192

> <Gold.Chemscore.Internal_Hbond.Weighted>
0.0000

> <Gold.Chemscore.DEClash.Weighted>
0.1775

> <Gold.Chemscore.DEInternal.Weighted>
1.5320

> <Gold.Chemscore.Rot.Weighted>
2.5600

> <Gold.Chemscore.Internal.Correction.Weighted>
   9.000000E+99

> <Gold.Protein.RotatedTorsions>
[ 6907 6896 6895 6894 ] final  159.85 input  -60.11 | X-H torsion
[ 7974 7965 7964 7962 ] final  102.75 input  175.53 | X-H torsion
[ 8008 7997 7996 7995 ] final  148.06 input   59.86 | X-H torsion
[ 10167 10162 10161 10158 ] final  157.81 input  -65.29 | X-H torsion
[ 10718 10713 10712 10709 ] final   -6.71 input   66.30 | X-H torsion
[ 10763 10752 10751 10750 ] final  133.63 input  -60.55 | X-H torsion
[ 11005 11000 10999 10996 ] final -117.07 input  -57.11 | X-H torsion

> <Gold.Protein.ActiveResidues>
 VAL166  LYS551  ARG553  GLY616  TRP617  ASP618  TYR619  PRO620  LYS621  CYS622 
 ASP623  PHE694  ASN695  SER759  ASP760  ASP761  ALA762  ILE779  LEU786  VAL792 
 PHE793  MET794  SER795  GLU796  ALA797  LYS798  CYS799  TRP800  GLU811  SER814 

> <Gold.Protein.RotatedAtoms>
  151.9795  133.3753  159.4101 H   0  0  0  0  0  0  0  0  0  0  0  0  # atno 6907 bound_to 6896
  150.6937  134.4054  159.5147 H   0  0  0  0  0  0  0  0  0  0  0  0  # atno 6908 bound_to 6896
  152.1771  134.8785  160.0580 H   0  0  0  0  0  0  0  0  0  0  0  0  # atno 6909 bound_to 6896
  145.3550  139.2430  143.3537 H   0  0  0  0  0  0  0  0  0  0  0  0  # atno 7974 bound_to 7965
  156.2804  140.2139  156.5638 H   0  0  0  0  0  0  0  0  0  0  0  0  # atno 8008 bound_to 7997
  154.7191  140.0505  157.0645 H   0  0  0  0  0  0  0  0  0  0  0  0  # atno 8009 bound_to 7997
  155.0502  140.3155  155.4697 H   0  0  0  0  0  0  0  0  0  0  0  0  # atno 8010 bound_to 7997
  139.4824  144.4883  151.8345 H   0  0  0  0  0  0  0  0  0  0  0  0  # atno 10167 bound_to 10162
  156.7278  130.5171  149.5852 H   0  0  0  0  0  0  0  0  0  0  0  0  # atno 10718 bound_to 10713
  153.8102  135.3130  155.3400 H   0  0  0  0  0  0  0  0  0  0  0  0  # atno 10763 bound_to 10752
  154.8054  135.4701  154.0382 H   0  0  0  0  0  0  0  0  0  0  0  0  # atno 10764 bound_to 10752
  153.1758  135.6885  153.8633 H   0  0  0  0  0  0  0  0  0  0  0  0  # atno 10765 bound_to 10752
  141.0379  133.9880  157.3041 H   0  0  0  0  0  0  0  0  0  0  0  0  # atno 11005 bound_to 11000
  146.2952  140.4173  142.8724 LP  0  0  0  0  0  0  0  0  0  0  0  0  # atno 17320 bound_to 7965
  144.8689  140.7245  143.6059 LP  0  0  0  0  0  0  0  0  0  0  0  0  # atno 17321 bound_to 7965
  140.4365  144.2045  150.5889 LP  0  0  0  0  0  0  0  0  0  0  0  0  # atno 17342 bound_to 10162
  140.4727  143.2407  151.9067 LP  0  0  0  0  0  0  0  0  0  0  0  0  # atno 17343 bound_to 10162
  156.1550  130.6335  151.0645 LP  0  0  0  0  0  0  0  0  0  0  0  0  # atno 17370 bound_to 10713
  157.6871  131.0821  150.7211 LP  0  0  0  0  0  0  0  0  0  0  0  0  # atno 17371 bound_to 10713
  139.9254  135.0201  156.8216 LP  0  0  0  0  0  0  0  0  0  0  0  0  # atno 17394 bound_to 11000
  140.6288  133.9925  155.7652 LP  0  0  0  0  0  0  0  0  0  0  0  0  # atno 17395 bound_to 11000

$$$$
