AV-unprocessed.smi:623|AV-procd|sdf|3093|dock3
  -GOLD-   22720 0 13D 1   1.00000     0.00000
 Structure written by MMmdl.
 45 47  0  0  0  0  0  0  0  0  1 V2000
  144.7751  136.2266  160.6078 C   0  0  0  0  0  0  0  0  0  0  0  0
  145.4811  135.2070  161.5464 C   0  0  0  0  0  0  0  0  0  0  0  0
  144.5602  135.1004  162.7948 C   0  0  0  0  0  0  0  0  0  0  0  0
  145.8086  133.8545  160.8821 C   0  0  2  0  0  0  0  0  0  0  0  0
  146.5862  133.0914  161.9786 C   0  0  0  0  0  0  0  0  0  0  0  0
  147.3876  134.2167  162.6657 C   0  0  0  0  0  0  0  0  0  0  0  0
  146.9833  135.4722  161.8499 C   0  0  2  0  0  0  0  0  0  0  0  0
  147.2990  136.7855  162.5927 C   0  0  0  0  0  0  0  0  0  0  0  0
  147.6976  135.2994  160.4733 C   0  0  2  0  0  0  0  0  0  0  0  0
  147.7631  136.5385  159.7038 N   0  0  0  0  0  0  0  0  0  0  0  0
  148.8549  137.1137  159.1747 C   0  0  0  0  0  0  0  0  0  0  0  0
  149.9784  136.6176  159.2437 O   0  0  0  0  0  0  0  0  0  0  0  0
  148.6718  138.4716  158.4747 C   0  0  0  0  0  0  0  0  0  0  0  0
  149.7961  138.8556  157.6035 N   0  0  0  0  0  0  0  0  0  0  0  0
  149.5866  139.0442  156.2445 C   0  0  0  0  0  0  0  0  0  0  0  0
  150.5762  139.3496  155.3726 C   0  0  0  0  0  0  0  0  0  0  0  0
  151.9506  139.4981  155.8384 C   0  0  0  0  0  0  0  0  0  0  0  0
  152.9149  139.7698  155.1269 O   0  0  0  0  0  0  0  0  0  0  0  0
  152.1208  139.3016  157.2112 N   0  0  0  0  0  0  0  0  0  0  0  0
  151.1057  138.9859  158.1153 C   0  0  0  0  0  0  0  0  0  0  0  0
  151.3683  138.8181  159.3053 O   0  0  0  0  0  0  0  0  0  0  0  0
  146.8329  134.2213  159.7835 C   0  0  0  0  0  0  0  0  0  0  0  0
  153.0565  139.3923  157.5797 H   0  0  0  0  0  0  0  0  0  0  0  0
  143.7465  135.9206  160.4145 H   0  0  0  0  0  0  0  0  0  0  0  0
  145.2312  136.3554  159.6305 H   0  0  0  0  0  0  0  0  0  0  0  0
  144.7320  137.2143  161.0674 H   0  0  0  0  0  0  0  0  0  0  0  0
  144.9069  134.4223  163.5712 H   0  0  0  0  0  0  0  0  0  0  0  0
  143.5657  134.7553  162.5098 H   0  0  0  0  0  0  0  0  0  0  0  0
  144.4365  136.0750  163.2677 H   0  0  0  0  0  0  0  0  0  0  0  0
  144.9460  133.3065  160.5024 H   0  0  0  0  0  0  0  0  0  0  0  0
  145.9132  132.5986  162.6803 H   0  0  0  0  0  0  0  0  0  0  0  0
  147.2356  132.3196  161.5636 H   0  0  0  0  0  0  0  0  0  0  0  0
  147.1131  134.3076  163.7168 H   0  0  0  0  0  0  0  0  0  0  0  0
  148.4615  134.0268  162.6446 H   0  0  0  0  0  0  0  0  0  0  0  0
  148.3731  136.8992  162.7399 H   0  0  0  0  0  0  0  0  0  0  0  0
  146.8280  136.8077  163.5755 H   0  0  0  0  0  0  0  0  0  0  0  0
  146.9465  137.6584  162.0432 H   0  0  0  0  0  0  0  0  0  0  0  0
  148.7096  134.9161  160.6144 H   0  0  0  0  0  0  0  0  0  0  0  0
  146.8884  137.0289  159.5859 H   0  0  0  0  0  0  0  0  0  0  0  0
  147.7540  138.4286  157.8865 H   0  0  0  0  0  0  0  0  0  0  0  0
  148.4867  139.2342  159.2332 H   0  0  0  0  0  0  0  0  0  0  0  0
  148.5844  138.9346  155.8548 H   0  0  0  0  0  0  0  0  0  0  0  0
  150.3505  139.4812  154.3242 H   0  0  0  0  0  0  0  0  0  0  0  0
  147.4283  133.3622  159.4718 H   0  0  0  0  0  0  0  0  0  0  0  0
  146.3383  134.5971  158.8874 H   0  0  0  0  0  0  0  0  0  0  0  0
  1  2  1  0  0  0  0
  1 24  1  0  0  0  0
  1 25  1  0  0  0  0
  1 26  1  0  0  0  0
  2  7  1  0  0  0  0
  2  3  1  0  0  0  0
  2  4  1  0  0  0  0
  3 27  1  0  0  0  0
  3 28  1  0  0  0  0
  3 29  1  0  0  0  0
  4 22  1  0  0  0  0
  4  5  1  0  0  0  0
  4 30  1  0  0  0  0
  5  6  1  0  0  0  0
  5 31  1  0  0  0  0
  5 32  1  0  0  0  0
  6  7  1  0  0  0  0
  6 33  1  0  0  0  0
  6 34  1  0  0  0  0
  7  8  1  0  0  0  0
  7  9  1  0  0  0  0
  8 35  1  0  0  0  0
  8 36  1  0  0  0  0
  8 37  1  0  0  0  0
  9 10  1  0  0  0  0
  9 22  1  0  0  0  0
  9 38  1  0  0  0  0
 10 11  1  0  0  0  0
 10 39  1  0  0  0  0
 11 12  2  0  0  0  0
 11 13  1  0  0  0  0
 13 14  1  0  0  0  0
 13 40  1  0  0  0  0
 13 41  1  0  0  0  0
 14 20  1  0  0  0  0
 14 15  1  0  0  0  0
 15 16  2  0  0  0  0
 15 42  1  0  0  0  0
 16 17  1  0  0  0  0
 16 43  1  0  0  0  0
 17 18  2  0  0  0  0
 17 19  1  0  0  0  0
 19 23  1  0  0  0  0
 19 20  1  0  0  0  0
 20 21  2  0  0  0  0
 22 44  1  0  0  0  0
 22 45  1  0  0  0  0
M  END
> <s_m_source_file>
AV-unprocessed.smi

> <i_m_source_file_index>
623

> <i_lp_mmshare_version>
43012

> <i_f3d_flags>
0

> <s_epik_input>
W0NIM11bQ0BdMTJDKFtDSDNdKShbQ0gzXSlbQ0BIXShbQ0gyXVtDSDJdMSlbQ0gyXVtDQEBIXTJbTkhdQyg9TylbQ0gyXW4zW2NIXVtjSF1jKD1PKVtuSF1jMz1P

> <s_epik_cmdline>
J2VwaWtfcHl0aG9uJywgJy1waCcsICc3LjAnLCAnLXRuJywgJzgnLCAnLW1hJywgJzIwMCcsICctbWV0YWxfYmluZGluZycsICctaW1hZScsICc8aW5maWxlLm1hZT4nLCAnLW9tYWUnLCAnPG91dGZpbGUubWFlPic=

> <r_lp_tautomer_probability>
0.999537

> <r_epik_Ionization_Penalty>
0.00303563

> <r_epik_Ionization_Penalty_Charging>
0.00303561

> <r_epik_Ionization_Penalty_Neutral>
2.03238e-08

> <r_epik_State_Penalty>
0.00213308

> <r_epik_Charging_Adjusted_Penalty>
0.00516869

> <i_epik_Tot_Q>
0

> <i_epik_Tot_abs_Q>
0

> <r_epik_Metal_State_Penalty>
0.361714

> <b_epik_Metal_Only>
0

> <s_lp_Force_Field>
OPLS_2005

> <r_lp_Energy>
55.1954

> <b_lp_Chiralities_Consistent>
1

> <s_lp_Variant>
AV-unprocessed.smi:623-3

> <Gold.Version>
5.8.1

> <Gold.Id.Protein>
6NUR|6NUR_protein|mol2

> <Gold.PLP.Fitness>
39.2735

> <Gold.PLP.PLP>
-32.9286

> <Gold.PLP.part.hbond>
-2.9954

> <Gold.PLP.part.metal>
0.0000

> <Gold.PLP.part.buried>
-5.5602

> <Gold.PLP.part.nonpolar>
-25.5337

> <Gold.PLP.part.repulsive>
0.2501

> <Gold.PLP.ligand.clash>
0.0000

> <Gold.PLP.ligand.torsion>
0.2491

> <Gold.PLP.Chemscore.Hbond>
2.2758

> <Gold.PLP.Chemscore.CHOScore>
0.0000

> <Gold.PLP.Chemscore.Metal>
0.0000

> <Gold.Chemscore.Hbonds>
donor molecule, donor type, donor heavy atom, donor atom, acceptor molecule, acceptor atom, score
      P1  H  6896  6907       L1    12  1.00
      P1  H  7989  7998       L1    18  0.11
      P1  H  7997  8008       L1    18  1.00

> <Gold.PLP.Chemscore.Internal.Correction>
0.0155

> <Gold.Rescore>
     Score         DG    S(hbond)    S(metal)    S(lipo)     H(rot)  DE(clash)    DE(int)     intcor
     14.03     -16.95       1.99        0.00      77.59       1.66       0.04       2.88       ----

> <Gold.Chemscore.Fitness>
14.0301

> <Gold.Chemscore.DG>
-16.9515

> <Gold.Chemscore.ZeroCoef>
-5.4800

> <Gold.Chemscore.Hbond>
1.9925

> <Gold.Chemscore.Metal>
0.0000

> <Gold.Chemscore.Lipo>
77.5928

> <Gold.Chemscore.Internal_Hbond>
0.0000

> <Gold.Chemscore.DEClash>
0.0383

> <Gold.Chemscore.DEInternal>
2.8831

> <Gold.Chemscore.Rot>
1.6647

> <Gold.Chemscore.Internal.Correction>
   9.000000E+99

> <Gold.Chemscore.Hbonds>
donor molecule, donor type, donor heavy atom, donor atom, acceptor molecule, acceptor atom, score
      P1  H  6896  6907       L1    12  0.97
      P1  H  7989  7998       L1    18  0.02
      P1  H  7997  8008       L1    18  0.94

> <Gold.Chemscore.Hbond.Weighted>
-6.6548

> <Gold.Chemscore.Metal.Weighted>
-0.0000

> <Gold.Chemscore.Lipo.Weighted>
-9.0784

> <Gold.Chemscore.Internal_Hbond.Weighted>
0.0000

> <Gold.Chemscore.DEClash.Weighted>
0.0383

> <Gold.Chemscore.DEInternal.Weighted>
2.8831

> <Gold.Chemscore.Rot.Weighted>
4.2617

> <Gold.Chemscore.Internal.Correction.Weighted>
   9.000000E+99

> <Gold.Protein.RotatedTorsions>
[ 6907 6896 6895 6894 ] final  -49.06 input  -60.11 | X-H torsion
[ 7974 7965 7964 7962 ] final -161.24 input  175.53 | X-H torsion
[ 8008 7997 7996 7995 ] final  -19.50 input   59.86 | X-H torsion
[ 10167 10162 10161 10158 ] final   31.12 input  -65.29 | X-H torsion
[ 10718 10713 10712 10709 ] final  107.75 input   66.30 | X-H torsion
[ 10763 10752 10751 10750 ] final   59.76 input  -60.55 | X-H torsion
[ 11005 11000 10999 10996 ] final   -8.42 input  -57.11 | X-H torsion

> <Gold.Protein.ActiveResidues>
 VAL166  LYS551  ARG553  GLY616  TRP617  ASP618  TYR619  PRO620  LYS621  CYS622 
 ASP623  PHE694  ASN695  SER759  ASP760  ASP761  ALA762  ILE779  LEU786  VAL792 
 PHE793  MET794  SER795  GLU796  ALA797  LYS798  CYS799  TRP800  GLU811  SER814 

> <Gold.Protein.RotatedAtoms>
  150.8843  134.8238  159.7247 H   0  0  0  0  0  0  0  0  0  0  0  0  # atno 6907 bound_to 6896
  152.4797  134.4747  159.9656 H   0  0  0  0  0  0  0  0  0  0  0  0  # atno 6908 bound_to 6896
  151.4818  133.3506  159.2875 H   0  0  0  0  0  0  0  0  0  0  0  0  # atno 6909 bound_to 6896
  144.7398  140.3426  143.6131 H   0  0  0  0  0  0  0  0  0  0  0  0  # atno 7974 bound_to 7965
  154.4832  140.2087  155.9714 H   0  0  0  0  0  0  0  0  0  0  0  0  # atno 8008 bound_to 7997
  156.1197  140.3215  155.8160 H   0  0  0  0  0  0  0  0  0  0  0  0  # atno 8009 bound_to 7997
  155.4489  140.0515  157.2994 H   0  0  0  0  0  0  0  0  0  0  0  0  # atno 8010 bound_to 7997
  140.4617  144.0896  150.6214 H   0  0  0  0  0  0  0  0  0  0  0  0  # atno 10167 bound_to 10162
  157.6615  131.0879  150.6203 H   0  0  0  0  0  0  0  0  0  0  0  0  # atno 10718 bound_to 10713
  152.9903  135.5560  154.5765 H   0  0  0  0  0  0  0  0  0  0  0  0  # atno 10763 bound_to 10752
  154.5155  135.2804  155.1309 H   0  0  0  0  0  0  0  0  0  0  0  0  # atno 10764 bound_to 10752
  154.2684  135.6368  153.5353 H   0  0  0  0  0  0  0  0  0  0  0  0  # atno 10765 bound_to 10752
  140.7233  133.8810  155.8837 H   0  0  0  0  0  0  0  0  0  0  0  0  # atno 11005 bound_to 11000
  145.7358  139.1749  143.2404 LP  0  0  0  0  0  0  0  0  0  0  0  0  # atno 17320 bound_to 7965
  146.1172  140.7355  142.9475 LP  0  0  0  0  0  0  0  0  0  0  0  0  # atno 17321 bound_to 7965
  140.4085  143.2668  151.9862 LP  0  0  0  0  0  0  0  0  0  0  0  0  # atno 17342 bound_to 10162
  139.4807  144.5936  151.7729 LP  0  0  0  0  0  0  0  0  0  0  0  0  # atno 17343 bound_to 10162
  156.6505  130.4484  149.5721 LP  0  0  0  0  0  0  0  0  0  0  0  0  # atno 17370 bound_to 10713
  156.2141  130.6697  151.1300 LP  0  0  0  0  0  0  0  0  0  0  0  0  # atno 17371 bound_to 10713
  140.9985  134.1183  157.4340 LP  0  0  0  0  0  0  0  0  0  0  0  0  # atno 17394 bound_to 11000
  139.8843  135.0061  156.6360 LP  0  0  0  0  0  0  0  0  0  0  0  0  # atno 17395 bound_to 11000

$$$$
