AV-unprocessed.smi:485|AV-procd|sdf|2691|dock3
  -GOLD-   2262023123D 1   1.00000     0.00000
 Structure written by MMmdl.
 36 38  0  0  0  0  0  0  0  0  1 V2000
  153.2732  139.0743  157.5591 O   0  0  0  0  0  0  0  0  0  0  0  0
  151.9495  139.5435  157.6961 C   0  0  0  0  0  0  0  0  0  0  0  0
  151.8719  140.9213  158.2816 C   0  0  0  0  0  0  0  0  0  0  0  0
  152.2358  141.1658  159.5412 N   0  0  0  0  0  0  0  0  0  0  0  0
  152.0351  142.5269  159.6582 C   0  0  0  0  0  0  0  0  0  0  0  0
  152.2412  143.3942  160.7550 C   0  0  0  0  0  0  0  0  0  0  0  0
  151.9691  144.7729  160.6358 C   0  0  0  0  0  0  0  0  0  0  0  0
  151.4904  145.3034  159.4204 C   0  0  0  0  0  0  0  0  0  0  0  0
  151.2777  144.4564  158.3158 C   0  0  0  0  0  0  0  0  0  0  0  0
  151.5464  143.0799  158.4410 C   0  0  0  0  0  0  0  0  0  0  0  0
  151.4414  141.9974  157.5724 N   0  0  0  0  0  0  0  0  0  0  0  0
  150.9776  142.0542  156.1907 C   0  0  0  0  0  0  0  0  0  0  0  0
  150.0211  140.8985  155.8304 C   0  0  2  0  0  0  0  0  0  0  0  0
  150.5561  140.1344  154.7677 O   0  0  0  0  0  0  0  0  0  0  0  0
  148.6245  141.4142  155.5207 C   0  0  0  0  0  0  0  0  0  0  0  0
  148.1792  141.4855  154.1830 C   0  0  0  0  0  0  0  0  0  0  0  0
  146.8846  141.9569  153.8898 C   0  0  0  0  0  0  0  0  0  0  0  0
  146.0271  142.3569  154.9326 C   0  0  0  0  0  0  0  0  0  0  0  0
  146.4638  142.2834  156.2691 C   0  0  0  0  0  0  0  0  0  0  0  0
  147.7582  141.8123  156.5629 C   0  0  0  0  0  0  0  0  0  0  0  0
  153.3287  138.2152  157.9480 H   0  0  0  0  0  0  0  0  0  0  0  0
  151.4823  139.5448  156.7107 H   0  0  0  0  0  0  0  0  0  0  0  0
  151.3744  138.8501  158.3094 H   0  0  0  0  0  0  0  0  0  0  0  0
  152.6103  142.9978  161.6893 H   0  0  0  0  0  0  0  0  0  0  0  0
  152.1302  145.4265  161.4805 H   0  0  0  0  0  0  0  0  0  0  0  0
  151.2864  146.3608  159.3364 H   0  0  0  0  0  0  0  0  0  0  0  0
  150.9124  144.8609  157.3838 H   0  0  0  0  0  0  0  0  0  0  0  0
  150.4716  143.0098  156.0487 H   0  0  0  0  0  0  0  0  0  0  0  0
  151.8300  142.0606  155.5129 H   0  0  0  0  0  0  0  0  0  0  0  0
  149.9473  140.2219  156.6820 H   0  0  0  0  0  0  0  0  0  0  0  0
  150.7915  139.2824  155.1008 H   0  0  0  0  0  0  0  0  0  0  0  0
  148.8285  141.1788  153.3759 H   0  0  0  0  0  0  0  0  0  0  0  0
  146.5490  142.0109  152.8646 H   0  0  0  0  0  0  0  0  0  0  0  0
  145.0345  142.7183  154.7072 H   0  0  0  0  0  0  0  0  0  0  0  0
  145.8060  142.5881  157.0697 H   0  0  0  0  0  0  0  0  0  0  0  0
  148.0840  141.7560  157.5915 H   0  0  0  0  0  0  0  0  0  0  0  0
  1  2  1  0  0  0  0
  1 21  1  0  0  0  0
  2  3  1  0  0  0  0
  2 22  1  0  0  0  0
  2 23  1  0  0  0  0
  3 11  1  0  0  0  0
  3  4  2  0  0  0  0
  4  5  1  0  0  0  0
  5 10  2  0  0  0  0
  5  6  1  0  0  0  0
  6  7  2  0  0  0  0
  6 24  1  0  0  0  0
  7  8  1  0  0  0  0
  7 25  1  0  0  0  0
  8  9  2  0  0  0  0
  8 26  1  0  0  0  0
  9 10  1  0  0  0  0
  9 27  1  0  0  0  0
 10 11  1  0  0  0  0
 11 12  1  0  0  0  0
 12 13  1  0  0  0  0
 12 28  1  0  0  0  0
 12 29  1  0  0  0  0
 13 14  1  0  0  0  0
 13 15  1  0  0  0  0
 13 30  1  0  0  0  0
 14 31  1  0  0  0  0
 15 20  1  0  0  0  0
 15 16  2  0  0  0  0
 16 17  1  0  0  0  0
 16 32  1  0  0  0  0
 17 18  2  0  0  0  0
 17 33  1  0  0  0  0
 18 19  1  0  0  0  0
 18 34  1  0  0  0  0
 19 20  2  0  0  0  0
 19 35  1  0  0  0  0
 20 36  1  0  0  0  0
M  END
> <s_m_source_file>
AV-unprocessed.smi

> <i_m_source_file_index>
485

> <i_lp_mmshare_version>
43012

> <i_f3d_flags>
0

> <s_epik_input>
W2NIXTFbY0hdW2NIXVtjSF1jKGMxMiluKGMobjIpW0NIMl1bT0hdKVtDSDJdW0NASF0oW09IXSljM1tjSF1bY0hdW2NIXVtjSF1bY0hdMw==

> <s_epik_cmdline>
J2VwaWtfcHl0aG9uJywgJy1waCcsICc3LjAnLCAnLXRuJywgJzgnLCAnLW1hJywgJzIwMCcsICctbWV0YWxfYmluZGluZycsICctaW1hZScsICc8aW5maWxlLm1hZT4nLCAnLW9tYWUnLCAnPG91dGZpbGUubWFlPic=

> <r_epik_Ionization_Penalty>
0.0634722

> <r_epik_Ionization_Penalty_Charging>
0

> <r_epik_Ionization_Penalty_Neutral>
0.0634722

> <r_epik_State_Penalty>
0.0551572

> <r_epik_Charging_Adjusted_Penalty>
0.0551572

> <i_epik_Tot_Q>
0

> <i_epik_Tot_abs_Q>
0

> <r_epik_Metal_State_Penalty>
5.78034e-05

> <b_epik_Metal_Only>
0

> <s_lp_Force_Field>
OPLS_2005

> <r_lp_Energy>
12.7627

> <b_lp_Chiralities_Consistent>
1

> <s_lp_Variant>
AV-unprocessed.smi:485-1

> <Gold.Version>
5.8.1

> <Gold.Id.Protein>
6NUR|6NUR_protein|mol2

> <Gold.PLP.Fitness>
49.5099

> <Gold.PLP.PLP>
-46.4614

> <Gold.PLP.part.hbond>
-2.0000

> <Gold.PLP.part.metal>
0.0000

> <Gold.PLP.part.buried>
-7.7543

> <Gold.PLP.part.nonpolar>
-36.9412

> <Gold.PLP.part.repulsive>
0.0000

> <Gold.PLP.ligand.clash>
0.0000

> <Gold.PLP.ligand.torsion>
1.5074

> <Gold.PLP.Chemscore.Hbond>
2.0000

> <Gold.PLP.Chemscore.CHOScore>
0.0000

> <Gold.PLP.Chemscore.Metal>
0.0000

> <Gold.Chemscore.Hbonds>
donor molecule, donor type, donor heavy atom, donor atom, acceptor molecule, acceptor atom, score
      P1  H  7989  7998       L1    14  1.00
      P1  H  7997  8010       L1     1  1.00

> <Gold.PLP.Chemscore.Internal.Correction>
0.0633

> <Gold.Rescore>
     Score         DG    S(hbond)    S(metal)    S(lipo)     H(rot)  DE(clash)    DE(int)     intcor
     16.63     -19.12       1.92        0.00     119.18       2.62       0.04       2.44       ----

> <Gold.Chemscore.Fitness>
16.6315

> <Gold.Chemscore.DG>
-19.1180

> <Gold.Chemscore.ZeroCoef>
-5.4800

> <Gold.Chemscore.Hbond>
1.9191

> <Gold.Chemscore.Metal>
0.0000

> <Gold.Chemscore.Lipo>
119.1766

> <Gold.Chemscore.Internal_Hbond>
0.0000

> <Gold.Chemscore.DEClash>
0.0420

> <Gold.Chemscore.DEInternal>
2.4445

> <Gold.Chemscore.Rot>
2.6232

> <Gold.Chemscore.Internal.Correction>
   9.000000E+99

> <Gold.Chemscore.Hbonds>
donor molecule, donor type, donor heavy atom, donor atom, acceptor molecule, acceptor atom, score
      P1  H  7989  7998       L1    14  0.95
      P1  H  7997  8010       L1     1  0.91

> <Gold.Chemscore.Hbond.Weighted>
-6.4098

> <Gold.Chemscore.Metal.Weighted>
-0.0000

> <Gold.Chemscore.Lipo.Weighted>
-13.9437

> <Gold.Chemscore.Internal_Hbond.Weighted>
0.0000

> <Gold.Chemscore.DEClash.Weighted>
0.0420

> <Gold.Chemscore.DEInternal.Weighted>
2.4445

> <Gold.Chemscore.Rot.Weighted>
6.7154

> <Gold.Chemscore.Internal.Correction.Weighted>
   9.000000E+99

> <Gold.Protein.RotatedTorsions>
[ 6907 6896 6895 6894 ] final -148.64 input  -60.11 | X-H torsion
[ 7974 7965 7964 7962 ] final -153.40 input  175.53 | X-H torsion
[ 8008 7997 7996 7995 ] final   62.74 input   59.86 | X-H torsion
[ 10167 10162 10161 10158 ] final   71.72 input  -65.29 | X-H torsion
[ 10718 10713 10712 10709 ] final   22.82 input   66.30 | X-H torsion
[ 10763 10752 10751 10750 ] final   97.38 input  -60.55 | X-H torsion
[ 11005 11000 10999 10996 ] final  106.91 input  -57.11 | X-H torsion

> <Gold.Protein.ActiveResidues>
 VAL166  LYS551  ARG553  GLY616  TRP617  ASP618  TYR619  PRO620  LYS621  CYS622 
 ASP623  PHE694  ASN695  SER759  ASP760  ASP761  ALA762  ILE779  LEU786  VAL792 
 PHE793  MET794  SER795  GLU796  ALA797  LYS798  CYS799  TRP800  GLU811  SER814 

> <Gold.Protein.RotatedAtoms>
  151.1726  133.4774  159.2593 H   0  0  0  0  0  0  0  0  0  0  0  0  # atno 6907 bound_to 6896
  151.1340  135.0145  159.8605 H   0  0  0  0  0  0  0  0  0  0  0  0  # atno 6908 bound_to 6896
  152.5461  134.1626  159.8617 H   0  0  0  0  0  0  0  0  0  0  0  0  # atno 6909 bound_to 6896
  144.7743  140.4531  143.5885 H   0  0  0  0  0  0  0  0  0  0  0  0  # atno 7974 bound_to 7965
  155.6191  140.3495  155.4646 H   0  0  0  0  0  0  0  0  0  0  0  0  # atno 8008 bound_to 7997
  156.0093  140.1230  157.0493 H   0  0  0  0  0  0  0  0  0  0  0  0  # atno 8009 bound_to 7997
  154.4275  140.1085  156.5793 H   0  0  0  0  0  0  0  0  0  0  0  0  # atno 8010 bound_to 7997
  140.0430  144.5374  150.7420 H   0  0  0  0  0  0  0  0  0  0  0  0  # atno 10167 bound_to 10162
  157.1575  130.6702  149.6033 H   0  0  0  0  0  0  0  0  0  0  0  0  # atno 10718 bound_to 10713
  153.2762  135.4185  155.1035 H   0  0  0  0  0  0  0  0  0  0  0  0  # atno 10763 bound_to 10752
  154.8473  135.3484  154.6175 H   0  0  0  0  0  0  0  0  0  0  0  0  # atno 10764 bound_to 10752
  153.6595  135.7049  153.5239 H   0  0  0  0  0  0  0  0  0  0  0  0  # atno 10765 bound_to 10752
  139.8820  134.9384  156.5739 H   0  0  0  0  0  0  0  0  0  0  0  0  # atno 11005 bound_to 11000
  145.6233  139.1527  143.3010 LP  0  0  0  0  0  0  0  0  0  0  0  0  # atno 17320 bound_to 7965
  146.1911  140.6341  142.9145 LP  0  0  0  0  0  0  0  0  0  0  0  0  # atno 17321 bound_to 7965
  140.7251  143.2628  151.4147 LP  0  0  0  0  0  0  0  0  0  0  0  0  # atno 17342 bound_to 10162
  139.6001  144.1313  152.2189 LP  0  0  0  0  0  0  0  0  0  0  0  0  # atno 17343 bound_to 10162
  155.9759  130.4723  150.6494 LP  0  0  0  0  0  0  0  0  0  0  0  0  # atno 17370 bound_to 10713
  157.4163  131.0830  151.1173 LP  0  0  0  0  0  0  0  0  0  0  0  0  # atno 17371 bound_to 10713
  140.8078  133.8453  155.8783 LP  0  0  0  0  0  0  0  0  0  0  0  0  # atno 17394 bound_to 11000
  140.9534  134.1749  157.4710 LP  0  0  0  0  0  0  0  0  0  0  0  0  # atno 17395 bound_to 11000

$$$$
