AV-unprocessed.smi:110|AV-procd|sdf|1075|dock5
  -GOLD-   2262018163D 1   1.00000     0.00000
 Structure written by MMmdl.
 46 50  0  0  0  0  0  0  0  0  1 V2000
  144.3552  142.1899  154.7754 O   0  0  0  0  0  0  0  0  0  0  0  0
  145.6443  142.7603  154.7035 C   0  0  0  0  0  0  0  0  0  0  0  0
  146.5847  141.8584  153.8838 C   0  0  1  0  0  0  0  0  0  0  0  0
  147.9369  142.3015  153.9921 O   0  0  0  0  0  0  0  0  0  0  0  0
  148.8212  141.2196  153.9743 C   0  0  1  0  0  0  0  0  0  0  0  0
  149.5215  141.1877  155.2996 N   0  0  0  0  0  0  0  0  0  0  0  0
  149.1900  141.8220  156.4771 C   0  0  0  0  0  0  0  0  0  0  0  0
  150.0008  141.6029  157.4760 N   0  0  0  0  0  0  0  0  0  0  0  0
  150.9728  140.7589  156.9512 C   0  0  0  0  0  0  0  0  0  0  0  0
  152.1467  140.1417  157.4724 C   0  0  0  0  0  0  0  0  0  0  0  0
  152.5519  140.2680  158.7622 N   0  0  0  0  0  0  0  0  0  0  0  0
  153.4832  139.2783  159.3253 C   0  0  0  0  0  0  0  0  0  0  0  0
  154.1768  139.9181  160.5409 C   0  0  0  0  0  0  0  0  0  0  0  0
  153.4449  141.2160  160.6325 C   0  0  0  0  0  0  0  0  0  0  0  0
  153.5954  142.2067  161.6183 C   0  0  0  0  0  0  0  0  0  0  0  0
  152.7913  143.3624  161.5284 C   0  0  0  0  0  0  0  0  0  0  0  0
  151.8607  143.5038  160.4732 C   0  0  0  0  0  0  0  0  0  0  0  0
  151.7268  142.4950  159.4938 C   0  0  0  0  0  0  0  0  0  0  0  0
  152.5421  141.3458  159.5806 C   0  0  0  0  0  0  0  0  0  0  0  0
  152.8697  139.3667  156.6227 N   0  0  0  0  0  0  0  0  0  0  0  0
  152.4824  139.2079  155.3543 C   0  0  0  0  0  0  0  0  0  0  0  0
  151.4178  139.7223  154.7369 N   0  0  0  0  0  0  0  0  0  0  0  0
  150.6823  140.5007  155.5816 C   0  0  0  0  0  0  0  0  0  0  0  0
  147.9813  139.9508  153.7364 C   0  0  1  0  0  0  0  0  0  0  0  0
  148.4670  138.7697  154.3494 O   0  0  0  0  0  0  0  0  0  0  0  0
  146.6005  140.3609  154.2299 C   0  0  1  0  0  0  0  0  0  0  0  0
  146.4240  140.1359  155.6187 O   0  0  0  0  0  0  0  0  0  0  0  0
  146.3279  141.9543  152.8273 H   0  0  0  0  0  0  0  0  0  0  0  0
  149.6170  141.3663  153.2433 H   0  0  0  0  0  0  0  0  0  0  0  0
  147.9380  139.7919  152.6582 H   0  0  0  0  0  0  0  0  0  0  0  0
  145.8128  139.8213  153.7028 H   0  0  0  0  0  0  0  0  0  0  0  0
  144.2938  141.5040  154.1281 H   0  0  0  0  0  0  0  0  0  0  0  0
  145.5595  143.7368  154.2262 H   0  0  0  0  0  0  0  0  0  0  0  0
  146.0267  142.9338  155.7095 H   0  0  0  0  0  0  0  0  0  0  0  0
  148.3233  142.4577  156.5785 H   0  0  0  0  0  0  0  0  0  0  0  0
  152.9199  138.3997  159.6408 H   0  0  0  0  0  0  0  0  0  0  0  0
  154.2149  138.9573  158.5827 H   0  0  0  0  0  0  0  0  0  0  0  0
  154.0557  139.3257  161.4483 H   0  0  0  0  0  0  0  0  0  0  0  0
  155.2375  140.0938  160.3594 H   0  0  0  0  0  0  0  0  0  0  0  0
  154.3042  142.0852  162.4242 H   0  0  0  0  0  0  0  0  0  0  0  0
  152.8826  144.1399  162.2724 H   0  0  0  0  0  0  0  0  0  0  0  0
  151.2435  144.3882  160.4178 H   0  0  0  0  0  0  0  0  0  0  0  0
  151.0010  142.6096  158.7028 H   0  0  0  0  0  0  0  0  0  0  0  0
  153.1153  138.5764  154.7484 H   0  0  0  0  0  0  0  0  0  0  0  0
  147.8783  138.0627  154.1316 H   0  0  0  0  0  0  0  0  0  0  0  0
  145.5840  140.4872  155.8726 H   0  0  0  0  0  0  0  0  0  0  0  0
  1  2  1  0  0  0  0
  1 32  1  0  0  0  0
  2  3  1  0  0  0  0
  2 33  1  0  0  0  0
  2 34  1  0  0  0  0
  3 28  1  0  0  0  0
  3 26  1  0  0  0  0
  3  4  1  0  0  0  0
  4  5  1  0  0  0  0
  5 29  1  0  0  0  0
  5  6  1  0  0  0  0
  5 24  1  0  0  0  0
  6 23  1  0  0  0  0
  6  7  1  0  0  0  0
  7  8  2  0  0  0  0
  7 35  1  0  0  0  0
  8  9  1  0  0  0  0
  9 23  2  0  0  0  0
  9 10  1  0  0  0  0
 10 11  1  0  0  0  0
 10 20  2  0  0  0  0
 11 19  1  0  0  0  0
 11 12  1  0  0  0  0
 12 13  1  0  0  0  0
 12 36  1  0  0  0  0
 12 37  1  0  0  0  0
 13 14  1  0  0  0  0
 13 38  1  0  0  0  0
 13 39  1  0  0  0  0
 14 19  2  0  0  0  0
 14 15  1  0  0  0  0
 15 16  2  0  0  0  0
 15 40  1  0  0  0  0
 16 17  1  0  0  0  0
 16 41  1  0  0  0  0
 17 18  2  0  0  0  0
 17 42  1  0  0  0  0
 18 19  1  0  0  0  0
 18 43  1  0  0  0  0
 20 21  1  0  0  0  0
 21 22  2  0  0  0  0
 21 44  1  0  0  0  0
 22 23  1  0  0  0  0
 24 30  1  0  0  0  0
 24 25  1  0  0  0  0
 24 26  1  0  0  0  0
 25 45  1  0  0  0  0
 26 31  1  0  0  0  0
 26 27  1  0  0  0  0
 27 46  1  0  0  0  0
M  END
> <s_m_source_file>
AV-unprocessed.smi

> <i_m_source_file_index>
110

> <i_lp_mmshare_version>
43012

> <i_f3d_flags>
0

> <s_epik_input>
W09IXVtDSDJdW0NASF0xT1tDQEhdKFtDQEhdKFtPSF0pW0NAQEhdMVtPSF0pbihbY0hdbjIpYyhjMjMpbltjSF1uYzNOKFtDSDJdW0NIMl00KWMoYzQ1KVtjSF1bY0hdW2NIXVtjSF01

> <s_epik_cmdline>
J2VwaWtfcHl0aG9uJywgJy1waCcsICc3LjAnLCAnLXRuJywgJzgnLCAnLW1hJywgJzIwMCcsICctbWV0YWxfYmluZGluZycsICctaW1hZScsICc8aW5maWxlLm1hZT4nLCAnLW9tYWUnLCAnPG91dGZpbGUubWFlPic=

> <r_lp_tautomer_probability>
1

> <r_epik_Ionization_Penalty>
0.00068475

> <r_epik_Ionization_Penalty_Charging>
0

> <r_epik_Ionization_Penalty_Neutral>
0.00068475

> <r_epik_State_Penalty>
0.000417442

> <r_epik_Charging_Adjusted_Penalty>
0.000417442

> <i_epik_Tot_Q>
0

> <i_epik_Tot_abs_Q>
0

> <r_epik_Metal_State_Penalty>
-0

> <b_epik_Metal_Only>
0

> <s_epik_Chemistry_Notes>
This compound contains an acetal/aminal-like group ( X-CH(R)-Y where X, Y are N, S, or O) that may be acid/base labile, releasing an aldehyde.

> <s_lp_Force_Field>
OPLS_2005

> <r_lp_Energy>
64.6633

> <b_lp_Chiralities_Consistent>
1

> <s_lp_Variant>
AV-unprocessed.smi:110-13

> <Gold.Version>
5.8.1

> <Gold.Id.Protein>
6NUR|6NUR_protein|mol2

> <Gold.PLP.Fitness>
60.2152

> <Gold.PLP.PLP>
-50.7319

> <Gold.PLP.part.hbond>
-4.6066

> <Gold.PLP.part.metal>
0.0000

> <Gold.PLP.part.buried>
-1.0126

> <Gold.PLP.part.nonpolar>
-44.8151

> <Gold.PLP.part.repulsive>
0.8696

> <Gold.PLP.ligand.clash>
0.0000

> <Gold.PLP.ligand.torsion>
0.9214

> <Gold.PLP.Chemscore.Hbond>
2.9500

> <Gold.PLP.Chemscore.CHOScore>
0.5833

> <Gold.PLP.Chemscore.Metal>
0.0000

> <Gold.Chemscore.Hbonds>
donor molecule, donor type, donor heavy atom, donor atom, acceptor molecule, acceptor atom, score
      L1  H     1    32       P1 10175  1.00
      P1  H  7989  7998       L1    22  0.90
      P1  H  7997  8009       L1    20  1.00
      L1  C     7    35       P1  8028  0.59

> <Gold.PLP.Chemscore.Internal.Correction>
0.7261

> <Gold.Rescore>
     Score         DG    S(hbond)    S(metal)    S(lipo)     H(rot)  DE(clash)    DE(int)     intcor
     11.30     -15.16       1.86        0.00     103.75       3.38       0.74       3.13       ----

> <Gold.Chemscore.Fitness>
11.2985

> <Gold.Chemscore.DG>
-15.1595

> <Gold.Chemscore.ZeroCoef>
-5.4800

> <Gold.Chemscore.Hbond>
1.8570

> <Gold.Chemscore.Metal>
0.0000

> <Gold.Chemscore.Lipo>
103.7534

> <Gold.Chemscore.Internal_Hbond>
0.0000

> <Gold.Chemscore.DEClash>
0.7350

> <Gold.Chemscore.DEInternal>
3.1259

> <Gold.Chemscore.Rot>
3.3837

> <Gold.Chemscore.Internal.Correction>
   9.000000E+99

> <Gold.Chemscore.Hbonds>
donor molecule, donor type, donor heavy atom, donor atom, acceptor molecule, acceptor atom, score
      L1  H     1    32       P1 10175  0.24
      P1  H  7989  7998       L1    22  0.17
      P1  H  7997  8009       L1    20  0.17

> <Gold.Chemscore.Hbond.Weighted>
-6.2025

> <Gold.Chemscore.Metal.Weighted>
-0.0000

> <Gold.Chemscore.Lipo.Weighted>
-12.1391

> <Gold.Chemscore.Internal_Hbond.Weighted>
0.0000

> <Gold.Chemscore.DEClash.Weighted>
0.7350

> <Gold.Chemscore.DEInternal.Weighted>
3.1259

> <Gold.Chemscore.Rot.Weighted>
8.6622

> <Gold.Chemscore.Internal.Correction.Weighted>
   9.000000E+99

> <Gold.Protein.RotatedTorsions>
[ 6907 6896 6895 6894 ] final  111.97 input  -60.11 | X-H torsion
[ 7974 7965 7964 7962 ] final   35.97 input  175.53 | X-H torsion
[ 8008 7997 7996 7995 ] final -163.89 input   59.86 | X-H torsion
[ 10167 10162 10161 10158 ] final  133.01 input  -65.29 | X-H torsion
[ 10718 10713 10712 10709 ] final -147.65 input   66.30 | X-H torsion
[ 10763 10752 10751 10750 ] final -118.37 input  -60.55 | X-H torsion
[ 11005 11000 10999 10996 ] final  150.88 input  -57.11 | X-H torsion

> <Gold.Protein.ActiveResidues>
 VAL166  LYS551  ARG553  GLY616  TRP617  ASP618  TYR619  PRO620  LYS621  CYS622 
 ASP623  PHE694  ASN695  SER759  ASP760  ASP761  ALA762  ILE779  LEU786  VAL792 
 PHE793  MET794  SER795  GLU796  ALA797  LYS798  CYS799  TRP800  GLU811  SER814 

> <Gold.Protein.RotatedAtoms>
  152.4941  133.8582  159.7236 H   0  0  0  0  0  0  0  0  0  0  0  0  # atno 6907 bound_to 6896
  150.9101  133.6999  159.2863 H   0  0  0  0  0  0  0  0  0  0  0  0  # atno 6908 bound_to 6896
  151.4412  135.1024  159.9723 H   0  0  0  0  0  0  0  0  0  0  0  0  # atno 6909 bound_to 6896
  146.1245  139.6076  142.9268 H   0  0  0  0  0  0  0  0  0  0  0  0  # atno 7974 bound_to 7965
  155.8278  140.0929  157.1811 H   0  0  0  0  0  0  0  0  0  0  0  0  # atno 8008 bound_to 7997
  154.3979  140.1425  156.3637 H   0  0  0  0  0  0  0  0  0  0  0  0  # atno 8009 bound_to 7997
  155.8198  140.3446  155.5510 H   0  0  0  0  0  0  0  0  0  0  0  0  # atno 8010 bound_to 7997
  139.5315  144.6636  151.4934 H   0  0  0  0  0  0  0  0  0  0  0  0  # atno 10167 bound_to 10162
  156.4102  130.7978  151.2194 H   0  0  0  0  0  0  0  0  0  0  0  0  # atno 10718 bound_to 10713
  154.8585  135.4276  154.2128 H   0  0  0  0  0  0  0  0  0  0  0  0  # atno 10763 bound_to 10752
  153.3150  135.6978  153.7087 H   0  0  0  0  0  0  0  0  0  0  0  0  # atno 10764 bound_to 10752
  153.6165  135.3510  155.2970 H   0  0  0  0  0  0  0  0  0  0  0  0  # atno 10765 bound_to 10752
  140.1170  134.8888  157.2017 H   0  0  0  0  0  0  0  0  0  0  0  0  # atno 11005 bound_to 11000
  145.5395  141.0422  143.2338 LP  0  0  0  0  0  0  0  0  0  0  0  0  # atno 17320 bound_to 7965
  144.7629  139.6914  143.7227 LP  0  0  0  0  0  0  0  0  0  0  0  0  # atno 17321 bound_to 7965
  140.6496  143.8724  150.6772 LP  0  0  0  0  0  0  0  0  0  0  0  0  # atno 17342 bound_to 10162
  140.2084  143.3903  152.1737 LP  0  0  0  0  0  0  0  0  0  0  0  0  # atno 17343 bound_to 10162
  157.7507  131.0260  150.3942 LP  0  0  0  0  0  0  0  0  0  0  0  0  # atno 17370 bound_to 10713
  156.4239  130.3958  149.6806 LP  0  0  0  0  0  0  0  0  0  0  0  0  # atno 17371 bound_to 10713
  140.3016  134.3125  155.7288 LP  0  0  0  0  0  0  0  0  0  0  0  0  # atno 17394 bound_to 11000
  141.2143  133.7595  156.9648 LP  0  0  0  0  0  0  0  0  0  0  0  0  # atno 17395 bound_to 11000

$$$$
