AV-unprocessed.smi:21|AV-procd|sdf|148|dock3
  -GOLD-   2262015363D 1   1.00000     0.00000
 Structure written by MMmdl.
 62 65  0  0  0  0  0  0  0  0  2 V2000
  144.3784  135.2334  150.8423 C   0  0  0  0  0  0  0  0  0  0  0  0
  145.6661  134.7365  151.1715 O   0  0  0  0  0  0  0  0  0  0  0  0
  145.6425  133.5448  151.9467 C   0  0  2  0  0  0  0  0  0  0  0  0
  145.1140  133.7965  153.3593 C   0  0  0  0  0  0  0  0  0  0  0  0
  146.3233  134.3169  154.1575 C   0  0  2  0  0  0  0  0  0  0  0  0
  146.3140  135.8450  154.3752 C   0  0  0  0  0  0  0  0  0  0  0  0
  147.0153  136.2586  155.5929 N   0  0  0  0  0  0  0  0  0  0  0  0
  146.8909  135.4394  156.7930 C   0  0  0  0  0  0  0  0  0  0  0  0
  147.8420  137.3444  155.5801 C   0  0  0  0  0  0  0  0  0  0  0  0
  147.9191  138.0819  154.4388 N   0  0  0  0  0  0  0  0  0  0  0  0
  148.7164  139.1501  154.3630 C   0  0  0  0  0  0  0  0  0  0  0  0
  149.5226  139.6538  155.2962 N   0  0  0  0  0  0  0  0  0  0  0  0
  149.4598  138.9255  156.4463 C   0  0  0  0  0  0  0  0  0  0  0  0
  148.6532  137.7720  156.6771 C   0  0  0  0  0  0  0  0  0  0  0  0
  148.8727  137.3114  157.9722 N   0  0  0  0  0  0  0  0  0  0  0  0
  149.7508  138.1361  158.4716 C   0  0  0  0  0  0  0  0  0  0  0  0
  150.1747  139.1239  157.6145 N   0  0  0  0  0  0  0  0  0  0  0  0
  151.1447  140.1650  157.9050 C   0  0  0  0  0  0  0  0  0  0  0  0
  150.5246  141.5567  158.1974 C   0  0  2  0  0  0  0  0  0  0  0  0
  149.5236  141.8810  157.0612 C   0  0  0  0  0  0  0  0  0  0  0  0
  150.1778  142.1152  155.8312 O   0  0  0  0  0  0  0  0  0  0  0  0
  151.5972  142.6760  158.3769 C   0  0  1  0  0  0  0  0  0  0  0  0
  151.0540  144.0908  158.5073 C   0  0  0  0  0  0  0  0  0  0  0  0
  152.2374  144.8387  159.1016 C   0  0  0  0  0  0  0  0  0  0  0  0
  152.7900  143.9237  160.0336 O   0  0  0  0  0  0  0  0  0  0  0  0
  152.4540  142.5924  159.6524 C   0  0  0  0  0  0  0  0  0  0  0  0
  147.5221  133.9369  153.3718 N   0  3  1  0  0  0  0  0  0  0  0  0
  148.6087  133.3238  154.1647 C   0  0  0  0  0  0  0  0  0  0  0  0
  147.0861  133.1280  152.2148 C   0  0  0  0  0  0  0  0  0  0  0  0
  145.0959  132.7561  151.4269 H   0  0  0  0  0  0  0  0  0  0  0  0
  146.3425  133.8098  155.1235 H   0  0  0  0  0  0  0  0  0  0  0  0
  144.4815  136.1335  150.2365 H   0  0  0  0  0  0  0  0  0  0  0  0
  143.8030  135.4959  151.7300 H   0  0  0  0  0  0  0  0  0  0  0  0
  143.8117  134.5042  150.2621 H   0  0  0  0  0  0  0  0  0  0  0  0
  144.2473  134.4541  153.3907 H   0  0  0  0  0  0  0  0  0  0  0  0
  144.7961  132.8446  153.7870 H   0  0  0  0  0  0  0  0  0  0  0  0
  146.7564  136.3495  153.5153 H   0  0  0  0  0  0  0  0  0  0  0  0
  145.2834  136.1996  154.4115 H   0  0  0  0  0  0  0  0  0  0  0  0
  146.6720  136.0600  157.6625 H   0  0  0  0  0  0  0  0  0  0  0  0
  147.8103  134.8842  156.9794 H   0  0  0  0  0  0  0  0  0  0  0  0
  146.0819  134.7152  156.6963 H   0  0  0  0  0  0  0  0  0  0  0  0
  148.7104  139.6742  153.4186 H   0  0  0  0  0  0  0  0  0  0  0  0
  150.1255  138.0383  159.4801 H   0  0  0  0  0  0  0  0  0  0  0  0
  151.7673  139.8492  158.7428 H   0  0  0  0  0  0  0  0  0  0  0  0
  151.8071  140.2228  157.0404 H   0  0  0  0  0  0  0  0  0  0  0  0
  149.9518  141.4726  159.1223 H   0  0  0  0  0  0  0  0  0  0  0  0
  148.7929  141.0802  156.9441 H   0  0  0  0  0  0  0  0  0  0  0  0
  148.9605  142.7874  157.2850 H   0  0  0  0  0  0  0  0  0  0  0  0
  149.8216  142.9012  155.4456 H   0  0  0  0  0  0  0  0  0  0  0  0
  152.2667  142.6608  157.5150 H   0  0  0  0  0  0  0  0  0  0  0  0
  150.7307  144.5172  157.5573 H   0  0  0  0  0  0  0  0  0  0  0  0
  150.2142  144.1178  159.2030 H   0  0  0  0  0  0  0  0  0  0  0  0
  152.9793  145.0573  158.3322 H   0  0  0  0  0  0  0  0  0  0  0  0
  151.9504  145.7758  159.5789 H   0  0  0  0  0  0  0  0  0  0  0  0
  151.9019  142.1363  160.4744 H   0  0  0  0  0  0  0  0  0  0  0  0
  153.3659  142.0184  159.4949 H   0  0  0  0  0  0  0  0  0  0  0  0
  148.2885  132.3803  154.6092 H   0  0  0  0  0  0  0  0  0  0  0  0
  148.9178  133.9937  154.9680 H   0  0  0  0  0  0  0  0  0  0  0  0
  149.4767  133.1299  153.5341 H   0  0  0  0  0  0  0  0  0  0  0  0
  147.1098  132.0701  152.4814 H   0  0  0  0  0  0  0  0  0  0  0  0
  147.7381  133.2687  151.3520 H   0  0  0  0  0  0  0  0  0  0  0  0
  147.8817  134.7995  152.9877 H   0  0  0  0  0  0  0  0  0  0  0  0
  1  2  1  0  0  0  0
  1 32  1  0  0  0  0
  1 33  1  0  0  0  0
  1 34  1  0  0  0  0
  2  3  1  0  0  0  0
  3 30  1  0  0  0  0
  3 29  1  0  0  0  0
  3  4  1  0  0  0  0
  4  5  1  0  0  0  0
  4 35  1  0  0  0  0
  4 36  1  0  0  0  0
  5 31  1  0  0  0  0
  5  6  1  0  0  0  0
  5 27  1  0  0  0  0
  6  7  1  0  0  0  0
  6 37  1  0  0  0  0
  6 38  1  0  0  0  0
  7  8  1  0  0  0  0
  7  9  1  0  0  0  0
  8 39  1  0  0  0  0
  8 40  1  0  0  0  0
  8 41  1  0  0  0  0
  9 14  1  0  0  0  0
  9 10  2  0  0  0  0
 10 11  1  0  0  0  0
 11 12  2  0  0  0  0
 11 42  1  0  0  0  0
 12 13  1  0  0  0  0
 13 17  1  0  0  0  0
 13 14  2  0  0  0  0
 14 15  1  0  0  0  0
 15 16  2  0  0  0  0
 16 17  1  0  0  0  0
 16 43  1  0  0  0  0
 17 18  1  0  0  0  0
 18 19  1  0  0  0  0
 18 44  1  0  0  0  0
 18 45  1  0  0  0  0
 19 20  1  0  0  0  0
 19 22  1  0  0  0  0
 19 46  1  0  0  0  0
 20 21  1  0  0  0  0
 20 47  1  0  0  0  0
 20 48  1  0  0  0  0
 21 49  1  0  0  0  0
 22 26  1  0  0  0  0
 22 23  1  0  0  0  0
 22 50  1  0  0  0  0
 23 24  1  0  0  0  0
 23 51  1  0  0  0  0
 23 52  1  0  0  0  0
 24 25  1  0  0  0  0
 24 53  1  0  0  0  0
 24 54  1  0  0  0  0
 25 26  1  0  0  0  0
 26 55  1  0  0  0  0
 26 56  1  0  0  0  0
 27 28  1  0  0  0  0
 27 29  1  0  0  0  0
 27 62  1  0  0  0  0
 28 57  1  0  0  0  0
 28 58  1  0  0  0  0
 28 59  1  0  0  0  0
 29 60  1  0  0  0  0
 29 61  1  0  0  0  0
M  CHG  1  27   1
M  END
> <s_m_source_file>
AV-unprocessed.smi

> <i_m_source_file_index>
21

> <i_lp_mmshare_version>
43012

> <i_f3d_flags>
0

> <s_epik_input>
W0NIM11PW0NASF0xW0NIMl1bQ0BIXShOKFtDSDNdKVtDSDJdMSlbQ0gyXU4oW0NIM10pYyhuW2NIXW4yKWMoYzIzKW5bY0hdbjNbQ0gyXVtDQEhdKFtDSDJdW09IXSlbQ0BASF00W0NIMl1bQ0gyXU9bQ0gyXTQ=

> <s_epik_cmdline>
J2VwaWtfcHl0aG9uJywgJy1waCcsICc3LjAnLCAnLXRuJywgJzgnLCAnLW1hJywgJzIwMCcsICctbWV0YWxfYmluZGluZycsICctaW1hZScsICc8aW5maWxlLm1hZT4nLCAnLW9tYWUnLCAnPG91dGZpbGUubWFlPic=

> <r_lp_tautomer_probability>
1

> <r_epik_Ionization_Penalty>
0.0157465

> <r_epik_Ionization_Penalty_Charging>
0.015354

> <r_epik_Ionization_Penalty_Neutral>
0.000392529

> <r_epik_State_Penalty>
0.0120612

> <r_epik_Charging_Adjusted_Penalty>
0.0274152

> <i_epik_Tot_Q>
1

> <i_epik_Tot_abs_Q>
1

> <r_epik_Metal_State_Penalty>
0.0121253

> <b_epik_Metal_Only>
0

> <s_lp_Force_Field>
OPLS_2005

> <r_lp_Energy>
58.7805

> <b_lp_Chiralities_Consistent>
1

> <s_lp_Variant>
AV-unprocessed.smi:21-28

> <Gold.Version>
5.8.1

> <Gold.Id.Protein>
6NUR|6NUR_protein|mol2

> <Gold.PLP.Fitness>
48.8689

> <Gold.PLP.PLP>
-38.5862

> <Gold.PLP.part.hbond>
-2.0000

> <Gold.PLP.part.metal>
0.0000

> <Gold.PLP.part.buried>
-5.3767

> <Gold.PLP.part.nonpolar>
-31.4140

> <Gold.PLP.part.repulsive>
0.4298

> <Gold.PLP.ligand.clash>
0.0000

> <Gold.PLP.ligand.torsion>
1.0157

> <Gold.PLP.Chemscore.Hbond>
3.0000

> <Gold.PLP.Chemscore.CHOScore>
1.0000

> <Gold.PLP.Chemscore.Metal>
0.0000

> <Gold.Chemscore.Hbonds>
donor molecule, donor type, donor heavy atom, donor atom, acceptor molecule, acceptor atom, score
      L1  H    21    49       P1  8028  0.94
      L1  H    27    62       P1  7948  1.72
      L1  C    11    42       P1  7957  1.00

> <Gold.PLP.Chemscore.Internal.Correction>
0.3140

> <Gold.Rescore>
     Score         DG    S(hbond)    S(metal)    S(lipo)     H(rot)  DE(clash)    DE(int)     intcor
     11.64     -14.30       1.87        0.00      89.21       3.08       0.04       2.62       ----

> <Gold.Chemscore.Fitness>
11.6402

> <Gold.Chemscore.DG>
-14.3041

> <Gold.Chemscore.ZeroCoef>
-5.4800

> <Gold.Chemscore.Hbond>
1.8744

> <Gold.Chemscore.Metal>
0.0000

> <Gold.Chemscore.Lipo>
89.2125

> <Gold.Chemscore.Internal_Hbond>
0.0000

> <Gold.Chemscore.DEClash>
0.0446

> <Gold.Chemscore.DEInternal>
2.6194

> <Gold.Chemscore.Rot>
3.0758

> <Gold.Chemscore.Internal.Correction>
   9.000000E+99

> <Gold.Chemscore.Hbonds>
donor molecule, donor type, donor heavy atom, donor atom, acceptor molecule, acceptor atom, score
      L1  H    21    49       P1  8028  0.85
      L1  H    27    62       P1  7948  0.78

> <Gold.Chemscore.Hbond.Weighted>
-6.2604

> <Gold.Chemscore.Metal.Weighted>
-0.0000

> <Gold.Chemscore.Lipo.Weighted>
-10.4379

> <Gold.Chemscore.Internal_Hbond.Weighted>
0.0000

> <Gold.Chemscore.DEClash.Weighted>
0.0446

> <Gold.Chemscore.DEInternal.Weighted>
2.6194

> <Gold.Chemscore.Rot.Weighted>
7.8741

> <Gold.Chemscore.Internal.Correction.Weighted>
   9.000000E+99

> <Gold.Protein.RotatedTorsions>
[ 6907 6896 6895 6894 ] final  -42.46 input  -60.11 | X-H torsion
[ 7974 7965 7964 7962 ] final   71.25 input  175.53 | X-H torsion
[ 8008 7997 7996 7995 ] final  -89.26 input   59.86 | X-H torsion
[ 10167 10162 10161 10158 ] final -105.66 input  -65.29 | X-H torsion
[ 10718 10713 10712 10709 ] final  137.46 input   66.30 | X-H torsion
[ 10763 10752 10751 10750 ] final -168.91 input  -60.55 | X-H torsion
[ 11005 11000 10999 10996 ] final  -17.98 input  -57.11 | X-H torsion

> <Gold.Protein.ActiveResidues>
 VAL166  LYS551  ARG553  GLY616  TRP617  ASP618  TYR619  PRO620  LYS621  CYS622 
 ASP623  PHE694  ASN695  SER759  ASP760  ASP761  ALA762  ILE779  LEU786  VAL792 
 PHE793  MET794  SER795  GLU796  ALA797  LYS798  CYS799  TRP800  GLU811  SER814 

> <Gold.Protein.RotatedAtoms>
  150.9549  134.8945  159.7694 H   0  0  0  0  0  0  0  0  0  0  0  0  # atno 6907 bound_to 6896
  152.5134  134.3754  159.9342 H   0  0  0  0  0  0  0  0  0  0  0  0  # atno 6908 bound_to 6896
  151.3768  133.3795  159.2740 H   0  0  0  0  0  0  0  0  0  0  0  0  # atno 6909 bound_to 6896
  145.7681  139.2831  143.1337 H   0  0  0  0  0  0  0  0  0  0  0  0  # atno 7974 bound_to 7965
  154.6844  140.0544  157.0299 H   0  0  0  0  0  0  0  0  0  0  0  0  # atno 8008 bound_to 7997
  155.0905  140.3219  155.4556 H   0  0  0  0  0  0  0  0  0  0  0  0  # atno 8009 bound_to 7997
  156.2706  140.2049  156.6032 H   0  0  0  0  0  0  0  0  0  0  0  0  # atno 8010 bound_to 7997
  140.1961  143.3854  152.1167 H   0  0  0  0  0  0  0  0  0  0  0  0  # atno 10167 bound_to 10162
  157.4359  131.1053  151.0198 H   0  0  0  0  0  0  0  0  0  0  0  0  # atno 10718 bound_to 10713
  154.6579  135.2920  154.9904 H   0  0  0  0  0  0  0  0  0  0  0  0  # atno 10763 bound_to 10752
  154.0974  135.6582  153.4866 H   0  0  0  0  0  0  0  0  0  0  0  0  # atno 10764 bound_to 10752
  153.0413  135.5234  154.7517 H   0  0  0  0  0  0  0  0  0  0  0  0  # atno 10765 bound_to 10752
  140.8222  133.8059  155.9671 H   0  0  0  0  0  0  0  0  0  0  0  0  # atno 11005 bound_to 11000
  146.0197  140.8359  142.9929 LP  0  0  0  0  0  0  0  0  0  0  0  0  # atno 17320 bound_to 7965
  144.6818  140.2611  143.7319 LP  0  0  0  0  0  0  0  0  0  0  0  0  # atno 17321 bound_to 7965
  139.5236  144.7073  151.5314 LP  0  0  0  0  0  0  0  0  0  0  0  0  # atno 17342 bound_to 10162
  140.6422  143.8865  150.6703 LP  0  0  0  0  0  0  0  0  0  0  0  0  # atno 17343 bound_to 10162
  157.1078  130.6009  149.5475 LP  0  0  0  0  0  0  0  0  0  0  0  0  # atno 17370 bound_to 10713
  155.9930  130.4990  150.7363 LP  0  0  0  0  0  0  0  0  0  0  0  0  # atno 17371 bound_to 10713
  140.9086  134.2288  157.4999 LP  0  0  0  0  0  0  0  0  0  0  0  0  # atno 17394 bound_to 11000
  139.8708  134.9740  156.4829 LP  0  0  0  0  0  0  0  0  0  0  0  0  # atno 17395 bound_to 11000

$$$$
