AV-unprocessed.smi:557|AV-procd|sdf|2920|dock7
  -GOLD-   2262023413D 1   1.00000     0.00000
 Structure written by MMmdl.
 47 49  0  0  0  0  0  0  0  0  2 V2000
  151.6245  144.7260  159.2833 C   0  0  0  0  0  0  0  0  0  0  0  0
  151.5484  143.4724  158.5642 N   0  0  0  0  0  0  0  0  0  0  0  0
  151.2661  143.2602  157.2319 C   0  0  0  0  0  0  0  0  0  0  0  0
  151.3087  141.9119  157.0131 C   0  0  0  0  0  0  0  0  0  0  0  0
  151.0715  141.1581  155.7344 C   0  0  0  0  0  0  0  0  0  0  0  0
  149.6321  140.6332  155.6492 C   0  0  0  0  0  0  0  0  0  0  0  0
  148.6886  141.7402  155.5163 N   0  0  0  0  0  0  0  0  0  0  0  0
  147.4278  141.6835  155.0550 C   0  0  0  0  0  0  0  0  0  0  0  0
  146.9178  140.6290  154.6818 O   0  0  0  0  0  0  0  0  0  0  0  0
  146.7837  142.8630  155.0424 N   0  0  0  0  0  0  0  0  0  0  0  0
  145.4133  143.0691  154.5840 C   0  0  2  0  0  0  0  0  0  0  0  0
  145.3160  144.0759  153.4240 C   0  0  0  0  0  0  0  0  0  0  0  0
  144.0302  144.8831  153.6889 C   0  0  0  0  0  0  0  0  0  0  0  0
  143.4130  144.2566  154.8732 N   0  3  2  0  0  0  0  0  0  0  0  0
  142.4992  145.0945  155.6799 C   0  0  0  0  0  0  0  0  0  0  0  0
  141.8919  144.2399  156.8100 C   0  0  0  0  0  0  0  0  0  0  0  0
  142.9829  143.5390  157.6451 C   0  0  0  0  0  0  0  0  0  0  0  0
  143.9615  142.7611  156.7435 C   0  0  0  0  0  0  0  0  0  0  0  0
  144.5232  143.6978  155.6599 C   0  0  1  0  0  0  0  0  0  0  0  0
  151.6327  141.3797  158.2937 C   0  0  0  0  0  0  0  0  0  0  0  0
  151.7754  142.3149  159.2187 N   0  0  0  0  0  0  0  0  0  0  0  0
  151.2232  145.5333  158.6697 H   0  0  0  0  0  0  0  0  0  0  0  0
  152.6640  144.9474  159.5263 H   0  0  0  0  0  0  0  0  0  0  0  0
  151.0464  144.6626  160.2057 H   0  0  0  0  0  0  0  0  0  0  0  0
  151.0594  144.0771  156.5563 H   0  0  0  0  0  0  0  0  0  0  0  0
  151.2742  141.7968  154.8739 H   0  0  0  0  0  0  0  0  0  0  0  0
  151.7661  140.3210  155.6523 H   0  0  0  0  0  0  0  0  0  0  0  0
  149.5301  139.9650  154.7925 H   0  0  0  0  0  0  0  0  0  0  0  0
  149.3951  140.0564  156.5449 H   0  0  0  0  0  0  0  0  0  0  0  0
  149.0255  142.6462  155.8091 H   0  0  0  0  0  0  0  0  0  0  0  0
  147.2846  143.6768  155.3687 H   0  0  0  0  0  0  0  0  0  0  0  0
  144.9740  142.1248  154.2545 H   0  0  0  0  0  0  0  0  0  0  0  0
  146.1754  144.7479  153.4048 H   0  0  0  0  0  0  0  0  0  0  0  0
  145.2816  143.5625  152.4625 H   0  0  0  0  0  0  0  0  0  0  0  0
  144.2800  145.9236  153.9020 H   0  0  0  0  0  0  0  0  0  0  0  0
  143.3454  144.8659  152.8408 H   0  0  0  0  0  0  0  0  0  0  0  0
  143.0421  145.9455  156.0940 H   0  0  0  0  0  0  0  0  0  0  0  0
  141.7091  145.4932  155.0427 H   0  0  0  0  0  0  0  0  0  0  0  0
  141.2682  144.8602  157.4542 H   0  0  0  0  0  0  0  0  0  0  0  0
  141.2322  143.4866  156.3773 H   0  0  0  0  0  0  0  0  0  0  0  0
  143.5340  144.2854  158.2187 H   0  0  0  0  0  0  0  0  0  0  0  0
  142.5261  142.8664  158.3719 H   0  0  0  0  0  0  0  0  0  0  0  0
  144.7699  142.3481  157.3467 H   0  0  0  0  0  0  0  0  0  0  0  0
  143.4501  141.9152  156.2822 H   0  0  0  0  0  0  0  0  0  0  0  0
  145.0621  144.5211  156.1349 H   0  0  0  0  0  0  0  0  0  0  0  0
  151.7663  140.3461  158.5767 H   0  0  0  0  0  0  0  0  0  0  0  0
  142.8789  143.4685  154.5355 H   0  0  0  0  0  0  0  0  0  0  0  0
  1  2  1  0  0  0  0
  1 22  1  0  0  0  0
  1 23  1  0  0  0  0
  1 24  1  0  0  0  0
  2 21  1  0  0  0  0
  2  3  1  0  0  0  0
  3  4  2  0  0  0  0
  3 25  1  0  0  0  0
  4  5  1  0  0  0  0
  4 20  1  0  0  0  0
  5  6  1  0  0  0  0
  5 26  1  0  0  0  0
  5 27  1  0  0  0  0
  6  7  1  0  0  0  0
  6 28  1  0  0  0  0
  6 29  1  0  0  0  0
  7  8  1  0  0  0  0
  7 30  1  0  0  0  0
  8  9  2  0  0  0  0
  8 10  1  0  0  0  0
 10 11  1  0  0  0  0
 10 31  1  0  0  0  0
 11 19  1  0  0  0  0
 11 12  1  0  0  0  0
 11 32  1  0  0  0  0
 12 13  1  0  0  0  0
 12 33  1  0  0  0  0
 12 34  1  0  0  0  0
 13 14  1  0  0  0  0
 13 35  1  0  0  0  0
 13 36  1  0  0  0  0
 14 19  1  0  0  0  0
 14 15  1  0  0  0  0
 14 47  1  0  0  0  0
 15 16  1  0  0  0  0
 15 37  1  0  0  0  0
 15 38  1  0  0  0  0
 16 17  1  0  0  0  0
 16 39  1  0  0  0  0
 16 40  1  0  0  0  0
 17 18  1  0  0  0  0
 17 41  1  0  0  0  0
 17 42  1  0  0  0  0
 18 19  1  0  0  0  0
 18 43  1  0  0  0  0
 18 44  1  0  0  0  0
 19 45  1  0  0  0  0
 20 21  2  0  0  0  0
 20 46  1  0  0  0  0
M  CHG  1  14   1
M  END
> <s_m_source_file>
AV-unprocessed.smi

> <i_m_source_file_index>
557

> <i_lp_mmshare_version>
43012

> <i_f3d_flags>
0

> <s_epik_input>
W0NIM11uMVtjSF1jKFtjSF1uMSlbQ0gyXVtDSDJdW05IXUMoPU8pW05IXVtDQEhdKFtDSDJdW0NIMl0yKVtDQEhdKE4yMylbQ0gyXVtDSDJdW0NIMl1bQ0gyXTM=

> <s_epik_cmdline>
J2VwaWtfcHl0aG9uJywgJy1waCcsICc3LjAnLCAnLXRuJywgJzgnLCAnLW1hJywgJzIwMCcsICctbWV0YWxfYmluZGluZycsICctaW1hZScsICc8aW5maWxlLm1hZT4nLCAnLW9tYWUnLCAnPG91dGZpbGUubWFlPic=

> <r_lp_tautomer_probability>
1

> <r_epik_Ionization_Penalty>
0.000956547

> <r_epik_Ionization_Penalty_Charging>
0.000435796

> <r_epik_Ionization_Penalty_Neutral>
0.000520752

> <r_epik_State_Penalty>
-0

> <r_epik_Charging_Adjusted_Penalty>
0.000435796

> <i_epik_Tot_Q>
1

> <i_epik_Tot_abs_Q>
1

> <r_epik_Metal_State_Penalty>
-0

> <b_epik_Metal_Only>
0

> <s_lp_Force_Field>
OPLS_2005

> <r_lp_Energy>
39.998

> <b_lp_Chiralities_Consistent>
1

> <s_lp_Variant>
AV-unprocessed.smi:557-7

> <Gold.Version>
5.8.1

> <Gold.Id.Protein>
6NUR|6NUR_protein|mol2

> <Gold.PLP.Fitness>
47.0913

> <Gold.PLP.PLP>
-35.3706

> <Gold.PLP.part.hbond>
-3.2874

> <Gold.PLP.part.metal>
0.0000

> <Gold.PLP.part.buried>
-2.2658

> <Gold.PLP.part.nonpolar>
-29.8393

> <Gold.PLP.part.repulsive>
0.4432

> <Gold.PLP.ligand.clash>
0.0000

> <Gold.PLP.ligand.torsion>
0.4876

> <Gold.PLP.Chemscore.Hbond>
3.2992

> <Gold.PLP.Chemscore.CHOScore>
0.9258

> <Gold.PLP.Chemscore.Metal>
0.0000

> <Gold.Chemscore.Hbonds>
donor molecule, donor type, donor heavy atom, donor atom, acceptor molecule, acceptor atom, score
      L1  H     7    30       P1  8028  0.83
      L1  H    10    31       P1  8028  0.25
      L1  C     3    25       P1  8028  0.96

> <Gold.PLP.Chemscore.Internal.Correction>
0.0205

> <Gold.Rescore>
     Score         DG    S(hbond)    S(metal)    S(lipo)     H(rot)  DE(clash)    DE(int)     intcor
     17.13     -18.02       1.86        0.00      89.21       1.60       0.36       0.53       ----

> <Gold.Chemscore.Fitness>
17.1339

> <Gold.Chemscore.DG>
-18.0215

> <Gold.Chemscore.ZeroCoef>
-5.4800

> <Gold.Chemscore.Hbond>
1.8578

> <Gold.Chemscore.Metal>
0.0000

> <Gold.Chemscore.Lipo>
89.2071

> <Gold.Chemscore.Internal_Hbond>
0.0000

> <Gold.Chemscore.DEClash>
0.3580

> <Gold.Chemscore.DEInternal>
0.5297

> <Gold.Chemscore.Rot>
1.6018

> <Gold.Chemscore.Internal.Correction>
   9.000000E+99

> <Gold.Chemscore.Hbonds>
donor molecule, donor type, donor heavy atom, donor atom, acceptor molecule, acceptor atom, score
      L1  H     7    30       P1  8028  0.79

> <Gold.Chemscore.Hbond.Weighted>
-6.2049

> <Gold.Chemscore.Metal.Weighted>
-0.0000

> <Gold.Chemscore.Lipo.Weighted>
-10.4372

> <Gold.Chemscore.Internal_Hbond.Weighted>
0.0000

> <Gold.Chemscore.DEClash.Weighted>
0.3580

> <Gold.Chemscore.DEInternal.Weighted>
0.5297

> <Gold.Chemscore.Rot.Weighted>
4.1006

> <Gold.Chemscore.Internal.Correction.Weighted>
   9.000000E+99

> <Gold.Protein.RotatedTorsions>
[ 6907 6896 6895 6894 ] final   65.25 input  -60.11 | X-H torsion
[ 7974 7965 7964 7962 ] final  149.99 input  175.53 | X-H torsion
[ 8008 7997 7996 7995 ] final -128.58 input   59.86 | X-H torsion
[ 10167 10162 10161 10158 ] final  166.17 input  -65.29 | X-H torsion
[ 10718 10713 10712 10709 ] final  -42.03 input   66.30 | X-H torsion
[ 10763 10752 10751 10750 ] final  -55.06 input  -60.55 | X-H torsion
[ 11005 11000 10999 10996 ] final  -76.15 input  -57.11 | X-H torsion

> <Gold.Protein.ActiveResidues>
 VAL166  LYS551  ARG553  GLY616  TRP617  ASP618  TYR619  PRO620  LYS621  CYS622 
 ASP623  PHE694  ASN695  SER759  ASP760  ASP761  ALA762  ILE779  LEU786  VAL792 
 PHE793  MET794  SER795  GLU796  ALA797  LYS798  CYS799  TRP800  GLU811  SER814 

> <Gold.Protein.RotatedAtoms>
  152.4393  134.5623  159.9897 H   0  0  0  0  0  0  0  0  0  0  0  0  # atno 6907 bound_to 6896
  151.5725  133.3382  159.3000 H   0  0  0  0  0  0  0  0  0  0  0  0  # atno 6908 bound_to 6896
  150.8296  134.7577  159.6906 H   0  0  0  0  0  0  0  0  0  0  0  0  # atno 6909 bound_to 6896
  144.8397  139.6351  143.6022 H   0  0  0  0  0  0  0  0  0  0  0  0  # atno 7974 bound_to 7965
  155.2650  140.0437  157.3001 H   0  0  0  0  0  0  0  0  0  0  0  0  # atno 8008 bound_to 7997
  154.5687  140.2367  155.8193 H   0  0  0  0  0  0  0  0  0  0  0  0  # atno 8009 bound_to 7997
  156.2106  140.3000  155.9731 H   0  0  0  0  0  0  0  0  0  0  0  0  # atno 8010 bound_to 7997
  139.4919  144.4055  151.9360 H   0  0  0  0  0  0  0  0  0  0  0  0  # atno 10167 bound_to 10162
  156.2640  130.4200  149.8511 H   0  0  0  0  0  0  0  0  0  0  0  0  # atno 10718 bound_to 10713
  154.1848  135.6437  153.5044 H   0  0  0  0  0  0  0  0  0  0  0  0  # atno 10763 bound_to 10752
  153.0050  135.5414  154.6477 H   0  0  0  0  0  0  0  0  0  0  0  0  # atno 10764 bound_to 10752
  154.5850  135.2929  155.0667 H   0  0  0  0  0  0  0  0  0  0  0  0  # atno 10765 bound_to 10752
  141.1651  133.6973  156.7625 H   0  0  0  0  0  0  0  0  0  0  0  0  # atno 11005 bound_to 11000
  146.2691  139.6591  142.9309 LP  0  0  0  0  0  0  0  0  0  0  0  0  # atno 17320 bound_to 7965
  145.4721  141.0436  143.2693 LP  0  0  0  0  0  0  0  0  0  0  0  0  # atno 17321 bound_to 7965
  140.3495  144.3106  150.5952 LP  0  0  0  0  0  0  0  0  0  0  0  0  # atno 17342 bound_to 10162
  140.5497  143.2208  151.7947 LP  0  0  0  0  0  0  0  0  0  0  0  0  # atno 17343 bound_to 10162
  156.6016  130.8549  151.3433 LP  0  0  0  0  0  0  0  0  0  0  0  0  # atno 17370 bound_to 10713
  157.7261  130.9624  150.1641 LP  0  0  0  0  0  0  0  0  0  0  0  0  # atno 17371 bound_to 10713
  140.2523  134.8531  157.3679 LP  0  0  0  0  0  0  0  0  0  0  0  0  # atno 17394 bound_to 11000
  140.1690  134.4632  155.7844 LP  0  0  0  0  0  0  0  0  0  0  0  0  # atno 17395 bound_to 11000

$$$$
