AV-unprocessed.smi:2543|AV-procd|sdf|9993|dock2
  -GOLD-   2272014 43D 1   1.00000     0.00000
 Structure written by MMmdl.
 37 38  0  0  0  0  0  0  0  0  1 V2000
  145.4055  135.9747  151.0333 C   0  0  0  0  0  0  0  0  0  0  0  0
  145.6120  136.9013  151.9808 C   0  0  0  0  0  0  0  0  0  0  0  0
  146.2339  138.2605  151.7286 C   0  0  0  0  0  0  0  0  0  0  0  0
  147.5368  138.3796  152.3713 N   0  0  0  0  0  0  0  0  0  0  0  0
  147.8470  139.2751  153.3199 C   0  0  0  0  0  0  0  0  0  0  0  0
  147.0456  140.0970  153.7639 O   0  0  0  0  0  0  0  0  0  0  0  0
  149.1238  139.1371  153.7171 N   0  0  0  0  0  0  0  0  0  0  0  0
  149.8448  139.8941  154.6808 C   0  0  0  0  0  0  0  0  0  0  0  0
  151.1845  139.6450  155.0595 C   0  0  0  0  0  0  0  0  0  0  0  0
  151.7789  140.4602  156.0417 C   0  0  0  0  0  0  0  0  0  0  0  0
  151.0223  141.4999  156.6323 C   0  0  0  0  0  0  0  0  0  0  0  0
  151.5988  142.3279  157.6206 N   0  0  0  0  0  0  0  0  0  0  0  0
  151.3049  141.9649  159.0051 C   0  0  0  0  0  0  0  0  0  0  0  0
  152.2250  142.7345  159.9685 C   0  0  0  0  0  0  0  0  0  0  0  0
  152.1137  144.1333  159.7288 O   0  0  0  0  0  0  0  0  0  0  0  0
  152.5153  144.4764  158.4069 C   0  0  0  0  0  0  0  0  0  0  0  0
  151.6031  143.7715  157.3889 C   0  0  0  0  0  0  0  0  0  0  0  0
  149.7370  141.7320  156.2692 N   0  0  0  0  0  0  0  0  0  0  0  0
  149.1707  140.9481  155.3284 C   0  0  0  0  0  0  0  0  0  0  0  0
  145.6840  136.1527  150.0048 H   0  0  0  0  0  0  0  0  0  0  0  0
  144.9551  135.0237  151.2759 H   0  0  0  0  0  0  0  0  0  0  0  0
  145.3190  136.6886  152.9987 H   0  0  0  0  0  0  0  0  0  0  0  0
  146.3145  138.4552  150.6577 H   0  0  0  0  0  0  0  0  0  0  0  0
  145.5756  139.0254  152.1404 H   0  0  0  0  0  0  0  0  0  0  0  0
  148.2538  137.7361  152.0697 H   0  0  0  0  0  0  0  0  0  0  0  0
  149.6321  138.3666  153.3085 H   0  0  0  0  0  0  0  0  0  0  0  0
  151.7662  138.8451  154.6298 H   0  0  0  0  0  0  0  0  0  0  0  0
  152.8070  140.2838  156.3200 H   0  0  0  0  0  0  0  0  0  0  0  0
  150.2617  142.2033  159.2166 H   0  0  0  0  0  0  0  0  0  0  0  0
  151.4269  140.8970  159.1796 H   0  0  0  0  0  0  0  0  0  0  0  0
  151.9424  142.5282  161.0009 H   0  0  0  0  0  0  0  0  0  0  0  0
  153.2622  142.4158  159.8531 H   0  0  0  0  0  0  0  0  0  0  0  0
  152.4486  145.5575  158.2845 H   0  0  0  0  0  0  0  0  0  0  0  0
  153.5597  144.2019  158.2491 H   0  0  0  0  0  0  0  0  0  0  0  0
  151.9531  143.9917  156.3795 H   0  0  0  0  0  0  0  0  0  0  0  0
  150.5849  144.1540  157.4728 H   0  0  0  0  0  0  0  0  0  0  0  0
  148.1435  141.1749  155.0828 H   0  0  0  0  0  0  0  0  0  0  0  0
  1  2  2  0  0  0  0
  1 20  1  0  0  0  0
  1 21  1  0  0  0  0
  2  3  1  0  0  0  0
  2 22  1  0  0  0  0
  3  4  1  0  0  0  0
  3 23  1  0  0  0  0
  3 24  1  0  0  0  0
  4  5  1  0  0  0  0
  4 25  1  0  0  0  0
  5  6  2  0  0  0  0
  5  7  1  0  0  0  0
  7  8  1  0  0  0  0
  7 26  1  0  0  0  0
  8 19  1  0  0  0  0
  8  9  2  0  0  0  0
  9 10  1  0  0  0  0
  9 27  1  0  0  0  0
 10 11  2  0  0  0  0
 10 28  1  0  0  0  0
 11 12  1  0  0  0  0
 11 18  1  0  0  0  0
 12 17  1  0  0  0  0
 12 13  1  0  0  0  0
 13 14  1  0  0  0  0
 13 29  1  0  0  0  0
 13 30  1  0  0  0  0
 14 15  1  0  0  0  0
 14 31  1  0  0  0  0
 14 32  1  0  0  0  0
 15 16  1  0  0  0  0
 16 17  1  0  0  0  0
 16 33  1  0  0  0  0
 16 34  1  0  0  0  0
 17 35  1  0  0  0  0
 17 36  1  0  0  0  0
 18 19  2  0  0  0  0
 19 37  1  0  0  0  0
M  END
> <s_m_source_file>
AV-unprocessed.smi

> <i_m_source_file_index>
2543

> <i_lp_mmshare_version>
43012

> <i_f3d_flags>
0

> <s_epik_input>
W0NIMl09W0NIXVtDSDJdW05IXUMoPU8pW05IXWMxW2NIXVtjSF1jKG5bY0hdMSlOMltDSDJdW0NIMl1PW0NIMl1bQ0gyXTI=

> <s_epik_cmdline>
J2VwaWtfcHl0aG9uJywgJy1waCcsICc3LjAnLCAnLXRuJywgJzgnLCAnLW1hJywgJzIwMCcsICctbWV0YWxfYmluZGluZycsICctaW1hZScsICc8aW5maWxlLm1hZT4nLCAnLW9tYWUnLCAnPG91dGZpbGUubWFlPic=

> <r_lp_tautomer_probability>
1

> <r_epik_Ionization_Penalty>
0.00651682

> <r_epik_Ionization_Penalty_Charging>
0

> <r_epik_Ionization_Penalty_Neutral>
0.00651682

> <r_epik_State_Penalty>
0.00479503

> <r_epik_Charging_Adjusted_Penalty>
0.00479503

> <i_epik_Tot_Q>
0

> <i_epik_Tot_abs_Q>
0

> <r_epik_Metal_State_Penalty>
-0

> <b_epik_Metal_Only>
0

> <s_lp_Force_Field>
OPLS_2005

> <r_lp_Energy>
19.3567

> <b_lp_Chiralities_Consistent>
1

> <s_lp_Variant>
AV-unprocessed.smi:2543-1

> <Gold.Version>
5.8.1

> <Gold.Id.Protein>
6NUR|6NUR_protein|mol2

> <Gold.PLP.Fitness>
42.0599

> <Gold.PLP.PLP>
-39.4215

> <Gold.PLP.part.hbond>
-3.0000

> <Gold.PLP.part.metal>
0.0000

> <Gold.PLP.part.buried>
-0.4523

> <Gold.PLP.part.nonpolar>
-36.4664

> <Gold.PLP.part.repulsive>
0.4946

> <Gold.PLP.ligand.clash>
0.0000

> <Gold.PLP.ligand.torsion>
0.3607

> <Gold.PLP.Chemscore.Hbond>
1.0000

> <Gold.PLP.Chemscore.CHOScore>
0.0000

> <Gold.PLP.Chemscore.Metal>
0.0000

> <Gold.Chemscore.Hbonds>
donor molecule, donor type, donor heavy atom, donor atom, acceptor molecule, acceptor atom, score
      L1  H     4    25       P1  7948  1.00

> <Gold.PLP.Chemscore.Internal.Correction>
0.3599

> <Gold.Rescore>
     Score         DG    S(hbond)    S(metal)    S(lipo)     H(rot)  DE(clash)    DE(int)     intcor
     14.28     -16.11       0.99        0.00      92.83       1.38       0.10       1.73       ----

> <Gold.Chemscore.Fitness>
14.2775

> <Gold.Chemscore.DG>
-16.1116

> <Gold.Chemscore.ZeroCoef>
-5.4800

> <Gold.Chemscore.Hbond>
0.9912

> <Gold.Chemscore.Metal>
0.0000

> <Gold.Chemscore.Lipo>
92.8265

> <Gold.Chemscore.Internal_Hbond>
0.0000

> <Gold.Chemscore.DEClash>
0.1028

> <Gold.Chemscore.DEInternal>
1.7313

> <Gold.Chemscore.Rot>
1.3827

> <Gold.Chemscore.Internal.Correction>
   9.000000E+99

> <Gold.Chemscore.Hbonds>
donor molecule, donor type, donor heavy atom, donor atom, acceptor molecule, acceptor atom, score
      L1  H     4    25       P1  7948  0.99

> <Gold.Chemscore.Hbond.Weighted>
-3.3106

> <Gold.Chemscore.Metal.Weighted>
-0.0000

> <Gold.Chemscore.Lipo.Weighted>
-10.8607

> <Gold.Chemscore.Internal_Hbond.Weighted>
0.0000

> <Gold.Chemscore.DEClash.Weighted>
0.1028

> <Gold.Chemscore.DEInternal.Weighted>
1.7313

> <Gold.Chemscore.Rot.Weighted>
3.5396

> <Gold.Chemscore.Internal.Correction.Weighted>
   9.000000E+99

> <Gold.Protein.RotatedTorsions>
[ 6907 6896 6895 6894 ] final    7.82 input  -60.11 | X-H torsion
[ 7974 7965 7964 7962 ] final -145.69 input  175.53 | X-H torsion
[ 8008 7997 7996 7995 ] final   31.36 input   59.86 | X-H torsion
[ 10167 10162 10161 10158 ] final   95.90 input  -65.29 | X-H torsion
[ 10718 10713 10712 10709 ] final  128.22 input   66.30 | X-H torsion
[ 10763 10752 10751 10750 ] final  -21.73 input  -60.55 | X-H torsion
[ 11005 11000 10999 10996 ] final -130.57 input  -57.11 | X-H torsion

> <Gold.Protein.ActiveResidues>
 VAL166  LYS551  ARG553  GLY616  TRP617  ASP618  TYR619  PRO620  LYS621  CYS622 
 ASP623  PHE694  ASN695  SER759  ASP760  ASP761  ALA762  ILE779  LEU786  VAL792 
 PHE793  MET794  SER795  GLU796  ALA797  LYS798  CYS799  TRP800  GLU811  SER814 

> <Gold.Protein.RotatedAtoms>
  151.6961  135.0938  160.0242 H   0  0  0  0  0  0  0  0  0  0  0  0  # atno 6907 bound_to 6896
  152.3749  133.6463  159.6124 H   0  0  0  0  0  0  0  0  0  0  0  0  # atno 6908 bound_to 6896
  150.7701  133.9126  159.3415 H   0  0  0  0  0  0  0  0  0  0  0  0  # atno 6909 bound_to 6896
  144.8210  140.5551  143.5578 H   0  0  0  0  0  0  0  0  0  0  0  0  # atno 7974 bound_to 7965
  155.1052  140.3233  155.4536 H   0  0  0  0  0  0  0  0  0  0  0  0  # atno 8008 bound_to 7997
  156.2706  140.2054  156.6125 H   0  0  0  0  0  0  0  0  0  0  0  0  # atno 8009 bound_to 7997
  154.6798  140.0527  157.0241 H   0  0  0  0  0  0  0  0  0  0  0  0  # atno 8010 bound_to 7997
  139.7945  144.6839  150.9848 H   0  0  0  0  0  0  0  0  0  0  0  0  # atno 10167 bound_to 10162
  157.5264  131.1098  150.9076 H   0  0  0  0  0  0  0  0  0  0  0  0  # atno 10718 bound_to 10713
  153.6407  135.6985  153.5242 H   0  0  0  0  0  0  0  0  0  0  0  0  # atno 10763 bound_to 10752
  153.2784  135.4193  155.1055 H   0  0  0  0  0  0  0  0  0  0  0  0  # atno 10764 bound_to 10752
  154.8500  135.3596  154.5951 H   0  0  0  0  0  0  0  0  0  0  0  0  # atno 10765 bound_to 10752
  140.9334  134.1289  157.4215 H   0  0  0  0  0  0  0  0  0  0  0  0  # atno 11005 bound_to 11000
  145.5105  139.1479  143.3607 LP  0  0  0  0  0  0  0  0  0  0  0  0  # atno 17320 bound_to 7965
  146.2515  140.5246  142.8891 LP  0  0  0  0  0  0  0  0  0  0  0  0  # atno 17321 bound_to 7965
  140.7820  143.4346  151.0643 LP  0  0  0  0  0  0  0  0  0  0  0  0  # atno 17342 bound_to 10162
  139.8021  143.8069  152.3164 LP  0  0  0  0  0  0  0  0  0  0  0  0  # atno 17343 bound_to 10162
  156.9671  130.5477  149.5288 LP  0  0  0  0  0  0  0  0  0  0  0  0  # atno 17370 bound_to 10713
  156.0390  130.5474  150.8724 LP  0  0  0  0  0  0  0  0  0  0  0  0  # atno 17371 bound_to 10713
  139.8802  135.0012  156.6057 LP  0  0  0  0  0  0  0  0  0  0  0  0  # atno 17394 bound_to 11000
  140.7832  133.8643  155.8585 LP  0  0  0  0  0  0  0  0  0  0  0  0  # atno 17395 bound_to 11000

$$$$
