AV-unprocessed.smi:2032|AV-procd|sdf|8258|dock2
  -GOLD-   2272010533D 1   1.00000     0.00000
 Structure written by MMmdl.
 42 43  0  0  0  0  0  0  0  0  3 V2000
  152.9290  141.0926  160.9880 C   0  0  0  0  0  0  0  0  0  0  0  0
  153.3556  141.4535  159.5537 C   0  0  1  0  0  0  0  0  0  0  0  0
  152.6083  140.6508  158.4692 C   0  0  0  0  0  0  0  0  0  0  0  0
  151.2065  141.1232  158.3049 N   0  3  2  0  0  0  0  0  0  0  0  0
  150.3727  140.3753  157.3092 C   0  0  1  0  0  0  0  0  0  0  0  0
  150.8371  140.5553  155.8435 C   0  0  0  0  0  0  0  0  0  0  0  0
  150.3370  138.8692  157.6781 C   0  0  0  0  0  0  0  0  0  0  0  0
  149.2634  138.5380  158.6097 N   0  0  0  0  0  0  0  0  0  0  0  0
  149.1600  137.3971  159.3057 C   0  0  0  0  0  0  0  0  0  0  0  0
  150.0099  136.5141  159.1668 O   0  0  0  0  0  0  0  0  0  0  0  0
  148.0840  137.3549  160.1225 N   0  5  0  0  0  0  0  0  0  0  0  0
  147.7021  136.1898  160.6705 C   0  0  0  0  0  0  0  0  0  0  0  0
  147.1625  136.1003  161.8914 N   0  0  0  0  0  0  0  0  0  0  0  0
  146.8457  134.7928  162.2638 C   0  0  0  0  0  0  0  0  0  0  0  0
  147.1595  133.8640  161.3073 C   0  0  0  0  0  0  0  0  0  0  0  0
  147.8665  134.6085  159.9018 S   0  0  0  0  0  0  0  0  0  0  0  0
  151.2081  142.5881  158.0517 C   0  0  0  0  0  0  0  0  0  0  0  0
  151.9270  143.3419  159.1832 C   0  0  2  0  0  0  0  0  0  0  0  0
  152.0025  144.8487  158.9123 C   0  0  0  0  0  0  0  0  0  0  0  0
  153.2585  142.8531  159.2996 O   0  0  0  0  0  0  0  0  0  0  0  0
  153.1498  140.0471  161.2050 H   0  0  0  0  0  0  0  0  0  0  0  0
  151.8615  141.2373  161.1521 H   0  0  0  0  0  0  0  0  0  0  0  0
  153.4656  141.6994  161.7176 H   0  0  0  0  0  0  0  0  0  0  0  0
  154.4152  141.2088  159.4730 H   0  0  0  0  0  0  0  0  0  0  0  0
  153.1293  140.7462  157.5151 H   0  0  0  0  0  0  0  0  0  0  0  0
  152.6416  139.5989  158.7512 H   0  0  0  0  0  0  0  0  0  0  0  0
  149.3602  140.7781  157.3639 H   0  0  0  0  0  0  0  0  0  0  0  0
  150.2187  139.9819  155.1530 H   0  0  0  0  0  0  0  0  0  0  0  0
  151.8675  140.2257  155.7069 H   0  0  0  0  0  0  0  0  0  0  0  0
  150.7604  141.5918  155.5145 H   0  0  0  0  0  0  0  0  0  0  0  0
  150.1897  138.2741  156.7764 H   0  0  0  0  0  0  0  0  0  0  0  0
  151.2781  138.5295  158.1094 H   0  0  0  0  0  0  0  0  0  0  0  0
  148.5439  139.2327  158.7486 H   0  0  0  0  0  0  0  0  0  0  0  0
  146.3993  134.6146  163.2306 H   0  0  0  0  0  0  0  0  0  0  0  0
  147.0202  132.7942  161.3433 H   0  0  0  0  0  0  0  0  0  0  0  0
  151.6980  142.7895  157.0972 H   0  0  0  0  0  0  0  0  0  0  0  0
  150.1924  142.9706  157.9657 H   0  0  0  0  0  0  0  0  0  0  0  0
  151.3921  143.1945  160.1216 H   0  0  0  0  0  0  0  0  0  0  0  0
  151.0062  145.2810  158.8165 H   0  0  0  0  0  0  0  0  0  0  0  0
  152.5480  145.0581  157.9918 H   0  0  0  0  0  0  0  0  0  0  0  0
  152.5115  145.3661  159.7259 H   0  0  0  0  0  0  0  0  0  0  0  0
  150.7625  140.9793  159.2005 H   0  0  0  0  0  0  0  0  0  0  0  0
  1  2  1  0  0  0  0
  1 21  1  0  0  0  0
  1 22  1  0  0  0  0
  1 23  1  0  0  0  0
  2 20  1  0  0  0  0
  2  3  1  0  0  0  0
  2 24  1  0  0  0  0
  3  4  1  0  0  0  0
  3 25  1  0  0  0  0
  3 26  1  0  0  0  0
  4  5  1  0  0  0  0
  4 17  1  0  0  0  0
  4 42  1  0  0  0  0
  5  6  1  0  0  0  0
  5  7  1  0  0  0  0
  5 27  1  0  0  0  0
  6 28  1  0  0  0  0
  6 29  1  0  0  0  0
  6 30  1  0  0  0  0
  7  8  1  0  0  0  0
  7 31  1  0  0  0  0
  7 32  1  0  0  0  0
  8  9  1  0  0  0  0
  8 33  1  0  0  0  0
  9 10  2  0  0  0  0
  9 11  1  0  0  0  0
 11 12  1  0  0  0  0
 12 16  1  0  0  0  0
 12 13  2  0  0  0  0
 13 14  1  0  0  0  0
 14 15  2  0  0  0  0
 14 34  1  0  0  0  0
 15 16  1  0  0  0  0
 15 35  1  0  0  0  0
 17 18  1  0  0  0  0
 17 36  1  0  0  0  0
 17 37  1  0  0  0  0
 18 19  1  0  0  0  0
 18 20  1  0  0  0  0
 18 38  1  0  0  0  0
 19 39  1  0  0  0  0
 19 40  1  0  0  0  0
 19 41  1  0  0  0  0
M  CHG  1   4   1
M  CHG  1  11  -1
M  END
> <s_m_source_file>
AV-unprocessed.smi

> <i_m_source_file_index>
2032

> <i_lp_mmshare_version>
43012

> <i_f3d_flags>
0

> <s_epik_input>
W0NIM11bQ0BASF0xW0NIMl1OKFtDSDJdW0NASF0oTzEpW0NIM10pW0NASF0oW0NIM10pW0NIMl1bTkhdQyg9TylbTkhdYzJuW2NIXVtjSF1zMg==

> <s_epik_cmdline>
J2VwaWtfcHl0aG9uJywgJy1waCcsICc3LjAnLCAnLXRuJywgJzgnLCAnLW1hJywgJzIwMCcsICctbWV0YWxfYmluZGluZycsICctaW1hZScsICc8aW5maWxlLm1hZT4nLCAnLW9tYWUnLCAnPG91dGZpbGUubWFlPic=

> <r_lp_tautomer_probability>
0.999

> <r_epik_Ionization_Penalty>
6.71699

> <r_epik_Ionization_Penalty_Charging>
5.88592

> <r_epik_Ionization_Penalty_Neutral>
0.831074

> <r_epik_State_Penalty>
6.08365

> <r_epik_Charging_Adjusted_Penalty>
11.9696

> <i_epik_Tot_Q>
0

> <i_epik_Tot_abs_Q>
2

> <r_epik_Metal_State_Penalty>
2.0947

> <b_epik_Metal_Only>
1

> <s_lp_Force_Field>
OPLS_2005

> <r_lp_Energy>
13.797

> <b_lp_Chiralities_Consistent>
1

> <s_lp_Variant>
AV-unprocessed.smi:2032-28

> <Gold.Version>
5.8.1

> <Gold.Id.Protein>
6NUR|6NUR_protein|mol2

> <Gold.PLP.Fitness>
45.4846

> <Gold.PLP.PLP>
-36.4889

> <Gold.PLP.part.hbond>
-3.0000

> <Gold.PLP.part.metal>
0.0000

> <Gold.PLP.part.buried>
-4.6642

> <Gold.PLP.part.nonpolar>
-31.2934

> <Gold.PLP.part.repulsive>
0.3391

> <Gold.PLP.ligand.clash>
0.0000

> <Gold.PLP.ligand.torsion>
0.7674

> <Gold.PLP.Chemscore.Hbond>
3.4531

> <Gold.PLP.Chemscore.CHOScore>
0.0000

> <Gold.PLP.Chemscore.Metal>
0.0000

> <Gold.Chemscore.Hbonds>
donor molecule, donor type, donor heavy atom, donor atom, acceptor molecule, acceptor atom, score
      P1  H  6896  6909       L1    10  1.00
      P1  H  6931  6943       L1    11  0.54
      P1  H  6934  6947       L1    11  1.26

> <Gold.PLP.Chemscore.Internal.Correction>
0.1713

> <Gold.Rescore>
     Score         DG    S(hbond)    S(metal)    S(lipo)     H(rot)  DE(clash)    DE(int)     intcor
     15.96     -18.12       1.57        0.00      97.65       1.58       0.08       2.08       ----

> <Gold.Chemscore.Fitness>
15.9566

> <Gold.Chemscore.DG>
-18.1164

> <Gold.Chemscore.ZeroCoef>
-5.4800

> <Gold.Chemscore.Hbond>
1.5730

> <Gold.Chemscore.Metal>
0.0000

> <Gold.Chemscore.Lipo>
97.6519

> <Gold.Chemscore.Internal_Hbond>
0.0000

> <Gold.Chemscore.DEClash>
0.0802

> <Gold.Chemscore.DEInternal>
2.0796

> <Gold.Chemscore.Rot>
1.5791

> <Gold.Chemscore.Internal.Correction>
   9.000000E+99

> <Gold.Chemscore.Hbonds>
donor molecule, donor type, donor heavy atom, donor atom, acceptor molecule, acceptor atom, score
      P1  H  6896  6909       L1    10  1.00
      P1  H  6931  6943       L1    11  0.01
      P1  H  6934  6947       L1    11  0.55

> <Gold.Chemscore.Hbond.Weighted>
-5.2537

> <Gold.Chemscore.Metal.Weighted>
-0.0000

> <Gold.Chemscore.Lipo.Weighted>
-11.4253

> <Gold.Chemscore.Internal_Hbond.Weighted>
0.0000

> <Gold.Chemscore.DEClash.Weighted>
0.0802

> <Gold.Chemscore.DEInternal.Weighted>
2.0796

> <Gold.Chemscore.Rot.Weighted>
4.0425

> <Gold.Chemscore.Internal.Correction.Weighted>
   9.000000E+99

> <Gold.Protein.RotatedTorsions>
[ 6907 6896 6895 6894 ] final   83.75 input  -60.11 | X-H torsion
[ 7974 7965 7964 7962 ] final -108.84 input  175.53 | X-H torsion
[ 8008 7997 7996 7995 ] final  165.97 input   59.86 | X-H torsion
[ 10167 10162 10161 10158 ] final  111.99 input  -65.29 | X-H torsion
[ 10718 10713 10712 10709 ] final  128.99 input   66.30 | X-H torsion
[ 10763 10752 10751 10750 ] final  -27.39 input  -60.55 | X-H torsion
[ 11005 11000 10999 10996 ] final   56.84 input  -57.11 | X-H torsion

> <Gold.Protein.ActiveResidues>
 VAL166  LYS551  ARG553  GLY616  TRP617  ASP618  TYR619  PRO620  LYS621  CYS622 
 ASP623  PHE694  ASN695  SER759  ASP760  ASP761  ALA762  ILE779  LEU786  VAL792 
 PHE793  MET794  SER795  GLU796  ALA797  LYS798  CYS799  TRP800  GLU811  SER814 

> <Gold.Protein.RotatedAtoms>
  152.5335  134.2847  159.9020 H   0  0  0  0  0  0  0  0  0  0  0  0  # atno 6907 bound_to 6896
  151.2801  133.4207  159.2634 H   0  0  0  0  0  0  0  0  0  0  0  0  # atno 6908 bound_to 6896
  151.0291  134.9541  159.8158 H   0  0  0  0  0  0  0  0  0  0  0  0  # atno 6909 bound_to 6896
  145.1878  140.9001  143.3442 H   0  0  0  0  0  0  0  0  0  0  0  0  # atno 7974 bound_to 7965
  156.1757  140.1656  156.8367 H   0  0  0  0  0  0  0  0  0  0  0  0  # atno 8008 bound_to 7997
  154.5304  140.0758  156.8368 H   0  0  0  0  0  0  0  0  0  0  0  0  # atno 8009 bound_to 7997
  155.3418  140.3385  155.4241 H   0  0  0  0  0  0  0  0  0  0  0  0  # atno 8010 bound_to 7997
  139.6570  144.7129  151.1938 H   0  0  0  0  0  0  0  0  0  0  0  0  # atno 10167 bound_to 10162
  157.5195  131.1098  150.9174 H   0  0  0  0  0  0  0  0  0  0  0  0  # atno 10718 bound_to 10713
  153.7313  135.6938  153.4989 H   0  0  0  0  0  0  0  0  0  0  0  0  # atno 10763 bound_to 10752
  153.2134  135.4395  155.0405 H   0  0  0  0  0  0  0  0  0  0  0  0  # atno 10764 bound_to 10752
  154.8252  135.3442  154.6842 H   0  0  0  0  0  0  0  0  0  0  0  0  # atno 10765 bound_to 10752
  140.0498  134.5754  155.9278 H   0  0  0  0  0  0  0  0  0  0  0  0  # atno 11005 bound_to 11000
  145.0071  139.3544  143.6138 LP  0  0  0  0  0  0  0  0  0  0  0  0  # atno 17320 bound_to 7965
  146.3441  139.9318  142.8752 LP  0  0  0  0  0  0  0  0  0  0  0  0  # atno 17321 bound_to 7965
  140.7563  143.6057  150.8656 LP  0  0  0  0  0  0  0  0  0  0  0  0  # atno 17342 bound_to 10162
  139.9710  143.6056  152.2973 LP  0  0  0  0  0  0  0  0  0  0  0  0  # atno 17343 bound_to 10162
  156.9789  130.5519  149.5295 LP  0  0  0  0  0  0  0  0  0  0  0  0  # atno 17370 bound_to 10713
  156.0343  130.5432  150.8615 LP  0  0  0  0  0  0  0  0  0  0  0  0  # atno 17371 bound_to 10713
  141.1924  133.6575  156.5503 LP  0  0  0  0  0  0  0  0  0  0  0  0  # atno 17394 bound_to 11000
  140.3936  134.7419  157.4737 LP  0  0  0  0  0  0  0  0  0  0  0  0  # atno 17395 bound_to 11000

$$$$
