AV-unprocessed.smi:1071|AV-procd|sdf|4681|dock7
  -GOLD-   22720 3203D 1   1.00000     0.00000
 Structure written by MMmdl.
 46 47  0  0  0  0  0  0  0  0  1 V2000
  147.4642  135.3665  162.7286 C   0  0  0  0  0  0  0  0  0  0  0  0
  147.6483  136.1996  161.5977 O   0  0  0  0  0  0  0  0  0  0  0  0
  147.2967  135.5550  160.3847 C   0  0  0  0  0  0  0  0  0  0  0  0
  148.1924  134.3280  160.1900 C   0  0  0  0  0  0  0  0  0  0  0  0
  149.1281  134.6020  159.1514 O   0  0  0  0  0  0  0  0  0  0  0  0
  148.6628  134.7136  157.8573 C   0  0  0  0  0  0  0  0  0  0  0  0
  149.5543  135.1488  156.8569 C   0  0  0  0  0  0  0  0  0  0  0  0
  149.0890  135.2673  155.5334 C   0  0  0  0  0  0  0  0  0  0  0  0
  147.7376  134.9541  155.2533 C   0  0  0  0  0  0  0  0  0  0  0  0
  147.1516  135.0138  153.9600 N   0  0  0  0  0  0  0  0  0  0  0  0
  145.8578  134.8687  153.6116 C   0  0  0  0  0  0  0  0  0  0  0  0
  144.9362  134.7797  154.4219 O   0  0  0  0  0  0  0  0  0  0  0  0
  145.6665  134.9585  152.2722 N   0  0  0  0  0  0  0  0  0  0  0  0
  146.5171  134.2055  151.3366 C   0  0  0  0  0  0  0  0  0  0  0  0
  145.8293  132.8634  151.0082 C   0  0  0  0  0  0  0  0  0  0  0  0
  144.5124  133.1037  150.4134 N   0  0  0  0  0  0  0  0  0  0  0  0
  143.8590  131.8330  150.1361 C   0  0  0  0  0  0  0  0  0  0  0  0
  143.6721  133.9060  151.3064 C   0  0  0  0  0  0  0  0  0  0  0  0
  144.3747  135.2456  151.6152 C   0  0  1  0  0  0  0  0  0  0  0  0
  143.4561  136.2323  152.3656 C   0  0  0  0  0  0  0  0  0  0  0  0
  146.9314  134.5119  156.3226 C   0  0  0  0  0  0  0  0  0  0  0  0
  147.3710  134.3963  157.5933 N   0  0  0  0  0  0  0  0  0  0  0  0
  147.7448  135.9083  163.6316 H   0  0  0  0  0  0  0  0  0  0  0  0
  148.0863  134.4726  162.6652 H   0  0  0  0  0  0  0  0  0  0  0  0
  146.4217  135.0617  162.8292 H   0  0  0  0  0  0  0  0  0  0  0  0
  146.2450  135.2641  160.3852 H   0  0  0  0  0  0  0  0  0  0  0  0
  147.4447  136.2481  159.5551 H   0  0  0  0  0  0  0  0  0  0  0  0
  148.7311  134.1275  161.1175 H   0  0  0  0  0  0  0  0  0  0  0  0
  147.5843  133.4515  159.9586 H   0  0  0  0  0  0  0  0  0  0  0  0
  150.5803  135.3838  157.0998 H   0  0  0  0  0  0  0  0  0  0  0  0
  149.7792  135.5804  154.7659 H   0  0  0  0  0  0  0  0  0  0  0  0
  147.8051  135.0706  153.1925 H   0  0  0  0  0  0  0  0  0  0  0  0
  146.6720  134.7869  150.4262 H   0  0  0  0  0  0  0  0  0  0  0  0
  147.5152  134.0097  151.7303 H   0  0  0  0  0  0  0  0  0  0  0  0
  146.4444  132.2946  150.3100 H   0  0  0  0  0  0  0  0  0  0  0  0
  145.7288  132.2611  151.9131 H   0  0  0  0  0  0  0  0  0  0  0  0
  142.8872  131.9967  149.6692 H   0  0  0  0  0  0  0  0  0  0  0  0
  143.7072  131.2565  151.0499 H   0  0  0  0  0  0  0  0  0  0  0  0
  144.4605  131.2352  149.4504 H   0  0  0  0  0  0  0  0  0  0  0  0
  142.7125  134.0927  150.8222 H   0  0  0  0  0  0  0  0  0  0  0  0
  143.4675  133.3607  152.2293 H   0  0  0  0  0  0  0  0  0  0  0  0
  144.6019  135.7352  150.6660 H   0  0  0  0  0  0  0  0  0  0  0  0
  142.6346  136.5494  151.7229 H   0  0  0  0  0  0  0  0  0  0  0  0
  143.9986  137.1293  152.6656 H   0  0  0  0  0  0  0  0  0  0  0  0
  143.0051  135.7916  153.2542 H   0  0  0  0  0  0  0  0  0  0  0  0
  145.8974  134.2467  156.1559 H   0  0  0  0  0  0  0  0  0  0  0  0
  1  2  1  0  0  0  0
  1 23  1  0  0  0  0
  1 24  1  0  0  0  0
  1 25  1  0  0  0  0
  2  3  1  0  0  0  0
  3  4  1  0  0  0  0
  3 26  1  0  0  0  0
  3 27  1  0  0  0  0
  4  5  1  0  0  0  0
  4 28  1  0  0  0  0
  4 29  1  0  0  0  0
  5  6  1  0  0  0  0
  6 22  1  0  0  0  0
  6  7  2  0  0  0  0
  7  8  1  0  0  0  0
  7 30  1  0  0  0  0
  8  9  2  0  0  0  0
  8 31  1  0  0  0  0
  9 10  1  0  0  0  0
  9 21  1  0  0  0  0
 10 11  1  0  0  0  0
 10 32  1  0  0  0  0
 11 12  2  0  0  0  0
 11 13  1  0  0  0  0
 13 19  1  0  0  0  0
 13 14  1  0  0  0  0
 14 15  1  0  0  0  0
 14 33  1  0  0  0  0
 14 34  1  0  0  0  0
 15 16  1  0  0  0  0
 15 35  1  0  0  0  0
 15 36  1  0  0  0  0
 16 17  1  0  0  0  0
 16 18  1  0  0  0  0
 17 37  1  0  0  0  0
 17 38  1  0  0  0  0
 17 39  1  0  0  0  0
 18 19  1  0  0  0  0
 18 40  1  0  0  0  0
 18 41  1  0  0  0  0
 19 20  1  0  0  0  0
 19 42  1  0  0  0  0
 20 43  1  0  0  0  0
 20 44  1  0  0  0  0
 20 45  1  0  0  0  0
 21 22  2  0  0  0  0
 21 46  1  0  0  0  0
M  END
> <s_m_source_file>
AV-unprocessed.smi

> <i_m_source_file_index>
1071

> <i_lp_mmshare_version>
43012

> <i_f3d_flags>
0

> <s_epik_input>
W0NIM11PW0NIMl1bQ0gyXU9jMVtjSF1bY0hdYyhbY0hdbjEpW05IXUMoPU8pTjJbQ0gyXVtDSDJdTihbQ0gzXSlbQ0gyXVtDQEhdMltDSDNd

> <s_epik_cmdline>
J2VwaWtfcHl0aG9uJywgJy1waCcsICc3LjAnLCAnLXRuJywgJzgnLCAnLW1hJywgJzIwMCcsICctbWV0YWxfYmluZGluZycsICctaW1hZScsICc8aW5maWxlLm1hZT4nLCAnLW9tYWUnLCAnPG91dGZpbGUubWFlPic=

> <r_lp_tautomer_probability>
1

> <r_epik_Ionization_Penalty>
0.623446

> <r_epik_Ionization_Penalty_Charging>
0

> <r_epik_Ionization_Penalty_Neutral>
0.623446

> <r_epik_State_Penalty>
0.639577

> <r_epik_Charging_Adjusted_Penalty>
0.639577

> <i_epik_Tot_Q>
0

> <i_epik_Tot_abs_Q>
0

> <r_epik_Metal_State_Penalty>
0.639567

> <b_epik_Metal_Only>
0

> <s_lp_Force_Field>
OPLS_2005

> <r_lp_Energy>
47.7745

> <b_lp_Chiralities_Consistent>
1

> <s_lp_Variant>
AV-unprocessed.smi:1071-5

> <Gold.Version>
5.8.1

> <Gold.Id.Protein>
6NUR|6NUR_protein|mol2

> <Gold.PLP.Fitness>
39.6942

> <Gold.PLP.PLP>
-29.5811

> <Gold.PLP.part.hbond>
-4.0000

> <Gold.PLP.part.metal>
0.0000

> <Gold.PLP.part.buried>
-3.8334

> <Gold.PLP.part.nonpolar>
-21.6672

> <Gold.PLP.part.repulsive>
0.1916

> <Gold.PLP.ligand.clash>
0.0000

> <Gold.PLP.ligand.torsion>
0.8699

> <Gold.PLP.Chemscore.Hbond>
3.7680

> <Gold.PLP.Chemscore.CHOScore>
0.0000

> <Gold.PLP.Chemscore.Metal>
0.0000

> <Gold.Chemscore.Hbonds>
donor molecule, donor type, donor heavy atom, donor atom, acceptor molecule, acceptor atom, score
      L1  H    10    32       P1  7948  0.86
      P1  H  6896  6908       L1     5  1.00

> <Gold.PLP.Chemscore.Internal.Correction>
0.5489

> <Gold.Rescore>
     Score         DG    S(hbond)    S(metal)    S(lipo)     H(rot)  DE(clash)    DE(int)     intcor
     14.09     -18.57       2.88        0.00      64.00       1.57       0.66       3.82       ----

> <Gold.Chemscore.Fitness>
14.0860

> <Gold.Chemscore.DG>
-18.5682

> <Gold.Chemscore.ZeroCoef>
-5.4800

> <Gold.Chemscore.Hbond>
2.8833

> <Gold.Chemscore.Metal>
0.0000

> <Gold.Chemscore.Lipo>
64.0011

> <Gold.Chemscore.Internal_Hbond>
0.0000

> <Gold.Chemscore.DEClash>
0.6610

> <Gold.Chemscore.DEInternal>
3.8212

> <Gold.Chemscore.Rot>
1.5743

> <Gold.Chemscore.Internal.Correction>
   9.000000E+99

> <Gold.Chemscore.Hbonds>
donor molecule, donor type, donor heavy atom, donor atom, acceptor molecule, acceptor atom, score
      L1  H    10    32       P1  7948  0.80
      P1  H  6896  6908       L1     5  0.89
      P1  H  6931  6943       L1     2  0.02

> <Gold.Chemscore.Hbond.Weighted>
-9.6302

> <Gold.Chemscore.Metal.Weighted>
-0.0000

> <Gold.Chemscore.Lipo.Weighted>
-7.4881

> <Gold.Chemscore.Internal_Hbond.Weighted>
0.0000

> <Gold.Chemscore.DEClash.Weighted>
0.6610

> <Gold.Chemscore.DEInternal.Weighted>
3.8212

> <Gold.Chemscore.Rot.Weighted>
4.0301

> <Gold.Chemscore.Internal.Correction.Weighted>
   9.000000E+99

> <Gold.Protein.RotatedTorsions>
[ 6907 6896 6895 6894 ] final  156.82 input  -60.11 | X-H torsion
[ 7974 7965 7964 7962 ] final   61.03 input  175.53 | X-H torsion
[ 8008 7997 7996 7995 ] final    7.45 input   59.86 | X-H torsion
[ 10167 10162 10161 10158 ] final   75.00 input  -65.29 | X-H torsion
[ 10718 10713 10712 10709 ] final   11.70 input   66.30 | X-H torsion
[ 10763 10752 10751 10750 ] final   -6.21 input  -60.55 | X-H torsion
[ 11005 11000 10999 10996 ] final  -49.13 input  -57.11 | X-H torsion

> <Gold.Protein.ActiveResidues>
 VAL166  LYS551  ARG553  GLY616  TRP617  ASP618  TYR619  PRO620  LYS621  CYS622 
 ASP623  PHE694  ASN695  SER759  ASP760  ASP761  ALA762  ILE779  LEU786  VAL792 
 PHE793  MET794  SER795  GLU796  ALA797  LYS798  CYS799  TRP800  GLU811  SER814 

> <Gold.Protein.RotatedAtoms>
  152.0242  133.3911  159.4270 H   0  0  0  0  0  0  0  0  0  0  0  0  # atno 6907 bound_to 6896
  150.6887  134.3593  159.4952 H   0  0  0  0  0  0  0  0  0  0  0  0  # atno 6908 bound_to 6896
  152.1370  134.9091  160.0606 H   0  0  0  0  0  0  0  0  0  0  0  0  # atno 6909 bound_to 6896
  145.8893  139.3499  143.0659 H   0  0  0  0  0  0  0  0  0  0  0  0  # atno 7974 bound_to 7965
  154.7540  140.2772  155.6269 H   0  0  0  0  0  0  0  0  0  0  0  0  # atno 8008 bound_to 7997
  156.2901  140.2673  156.2227 H   0  0  0  0  0  0  0  0  0  0  0  0  # atno 8009 bound_to 7997
  155.0101  140.0372  157.2385 H   0  0  0  0  0  0  0  0  0  0  0  0  # atno 8010 bound_to 7997
  140.0076  144.5638  150.7685 H   0  0  0  0  0  0  0  0  0  0  0  0  # atno 10167 bound_to 10162
  156.9994  130.6074  149.5694 H   0  0  0  0  0  0  0  0  0  0  0  0  # atno 10718 bound_to 10713
  153.4092  135.7007  153.6371 H   0  0  0  0  0  0  0  0  0  0  0  0  # atno 10763 bound_to 10752
  153.4872  135.3680  155.2473 H   0  0  0  0  0  0  0  0  0  0  0  0  # atno 10764 bound_to 10752
  154.8716  135.4080  154.3441 H   0  0  0  0  0  0  0  0  0  0  0  0  # atno 10765 bound_to 10752
  141.0741  133.6670  156.3541 H   0  0  0  0  0  0  0  0  0  0  0  0  # atno 11005 bound_to 11000
  145.8927  140.9293  143.0543 LP  0  0  0  0  0  0  0  0  0  0  0  0  # atno 17320 bound_to 7965
  144.6730  140.0928  143.7464 LP  0  0  0  0  0  0  0  0  0  0  0  0  # atno 17321 bound_to 7965
  140.7394  143.2791  151.3653 LP  0  0  0  0  0  0  0  0  0  0  0  0  # atno 17342 bound_to 10162
  139.6227  144.0875  152.2406 LP  0  0  0  0  0  0  0  0  0  0  0  0  # atno 17343 bound_to 10162
  156.0177  130.5271  150.8183 LP  0  0  0  0  0  0  0  0  0  0  0  0  # atno 17370 bound_to 10713
  157.5401  131.0940  150.9839 LP  0  0  0  0  0  0  0  0  0  0  0  0  # atno 17371 bound_to 10713
  140.5610  134.5934  157.5433 LP  0  0  0  0  0  0  0  0  0  0  0  0  # atno 17394 bound_to 11000
  139.9554  134.7544  156.0354 LP  0  0  0  0  0  0  0  0  0  0  0  0  # atno 17395 bound_to 11000

$$$$
