AV-unprocessed.smi:2645|AV-procd|sdf|10280|dock4
  -GOLD-   2272014293D 1   1.00000     0.00000
 Structure written by MMmdl.
 50 52  0  0  0  0  0  0  0  0  2 V2000
  144.9229  137.1902  152.4357 O   0  0  0  0  0  0  0  0  0  0  0  0
  146.0947  136.9020  152.1896 C   0  0  0  0  0  0  0  0  0  0  0  0
  147.1130  137.7563  152.3696 N   0  0  0  0  0  0  0  0  0  0  0  0
  146.9752  139.1116  152.8909 C   0  0  0  0  0  0  0  0  0  0  0  0
  147.3989  139.1978  154.3706 C   0  0  0  0  0  0  0  0  0  0  0  0
  148.6496  139.9741  154.5611 N   0  3  0  0  0  0  0  0  0  0  0  0
  148.5560  140.9098  155.7151 C   0  0  0  0  0  0  0  0  0  0  0  0
  149.8604  141.7045  155.9121 C   0  0  0  0  0  0  0  0  0  0  0  0
  150.9740  140.7612  156.0473 N   0  0  0  0  0  0  0  0  0  0  0  0
  151.6667  140.5987  157.2010 C   0  0  0  0  0  0  0  0  0  0  0  0
  152.5297  139.7290  157.3251 O   0  0  0  0  0  0  0  0  0  0  0  0
  151.3976  141.5630  158.3766 C   0  0  0  0  0  0  0  0  0  0  0  0
  151.8305  143.0293  158.1773 C   0  0  0  0  0  0  0  0  0  0  0  0
  153.0684  142.7651  159.0397 C   0  0  0  0  0  0  0  0  0  0  0  0
  152.4242  141.4601  159.5175 C   0  0  0  0  0  0  0  0  0  0  0  0
  151.1384  139.9657  154.8277 C   0  0  0  0  0  0  0  0  0  0  0  0
  149.8708  139.1208  154.6089 C   0  0  0  0  0  0  0  0  0  0  0  0
  146.5238  135.7183  151.7170 N   0  0  0  0  0  0  0  0  0  0  0  0
  145.7493  134.5731  151.3903 C   0  0  0  0  0  0  0  0  0  0  0  0
  146.4953  133.4222  151.0490 C   0  0  0  0  0  0  0  0  0  0  0  0
  145.8193  132.2345  150.7080 C   0  0  0  0  0  0  0  0  0  0  0  0
  144.4130  132.2288  150.7152 C   0  0  0  0  0  0  0  0  0  0  0  0
  143.7468  133.4175  151.0653 C   0  0  0  0  0  0  0  0  0  0  0  0
  144.3926  134.5566  151.3934 N   0  0  0  0  0  0  0  0  0  0  0  0
  148.0465  137.4420  152.1467 H   0  0  0  0  0  0  0  0  0  0  0  0
  147.5583  139.7887  152.2664 H   0  0  0  0  0  0  0  0  0  0  0  0
  145.9325  139.4119  152.7850 H   0  0  0  0  0  0  0  0  0  0  0  0
  146.5914  139.6788  154.9248 H   0  0  0  0  0  0  0  0  0  0  0  0
  147.5200  138.2049  154.8065 H   0  0  0  0  0  0  0  0  0  0  0  0
  147.7278  141.6019  155.5588 H   0  0  0  0  0  0  0  0  0  0  0  0
  148.3302  140.3435  156.6203 H   0  0  0  0  0  0  0  0  0  0  0  0
  150.0398  142.3534  155.0536 H   0  0  0  0  0  0  0  0  0  0  0  0
  149.7581  142.3699  156.7703 H   0  0  0  0  0  0  0  0  0  0  0  0
  150.3631  141.5113  158.7180 H   0  0  0  0  0  0  0  0  0  0  0  0
  152.0605  143.3370  157.1567 H   0  0  0  0  0  0  0  0  0  0  0  0
  151.1369  143.7305  158.6436 H   0  0  0  0  0  0  0  0  0  0  0  0
  153.9672  142.5967  158.4450 H   0  0  0  0  0  0  0  0  0  0  0  0
  153.2362  143.5012  159.8267 H   0  0  0  0  0  0  0  0  0  0  0  0
  151.9637  141.5477  160.5023 H   0  0  0  0  0  0  0  0  0  0  0  0
  153.0916  140.5985  159.4688 H   0  0  0  0  0  0  0  0  0  0  0  0
  151.2833  140.6400  153.9822 H   0  0  0  0  0  0  0  0  0  0  0  0
  152.0196  139.3262  154.8345 H   0  0  0  0  0  0  0  0  0  0  0  0
  149.7726  138.3908  155.4143 H   0  0  0  0  0  0  0  0  0  0  0  0
  149.9770  138.5577  153.6828 H   0  0  0  0  0  0  0  0  0  0  0  0
  147.5186  135.6232  151.5754 H   0  0  0  0  0  0  0  0  0  0  0  0
  147.5757  133.4434  151.0480 H   0  0  0  0  0  0  0  0  0  0  0  0
  146.3714  131.3441  150.4452 H   0  0  0  0  0  0  0  0  0  0  0  0
  143.8592  131.3376  150.4597 H   0  0  0  0  0  0  0  0  0  0  0  0
  142.6675  133.4558  151.0828 H   0  0  0  0  0  0  0  0  0  0  0  0
  148.7459  140.5617  153.7454 H   0  0  0  0  0  0  0  0  0  0  0  0
  1  2  2  0  0  0  0
  2  3  1  0  0  0  0
  2 18  1  0  0  0  0
  3  4  1  0  0  0  0
  3 25  1  0  0  0  0
  4  5  1  0  0  0  0
  4 26  1  0  0  0  0
  4 27  1  0  0  0  0
  5  6  1  0  0  0  0
  5 28  1  0  0  0  0
  5 29  1  0  0  0  0
  6 17  1  0  0  0  0
  6  7  1  0  0  0  0
  6 50  1  0  0  0  0
  7  8  1  0  0  0  0
  7 30  1  0  0  0  0
  7 31  1  0  0  0  0
  8  9  1  0  0  0  0
  8 32  1  0  0  0  0
  8 33  1  0  0  0  0
  9 10  1  0  0  0  0
  9 16  1  0  0  0  0
 10 11  2  0  0  0  0
 10 12  1  0  0  0  0
 12 15  1  0  0  0  0
 12 13  1  0  0  0  0
 12 34  1  0  0  0  0
 13 14  1  0  0  0  0
 13 35  1  0  0  0  0
 13 36  1  0  0  0  0
 14 15  1  0  0  0  0
 14 37  1  0  0  0  0
 14 38  1  0  0  0  0
 15 39  1  0  0  0  0
 15 40  1  0  0  0  0
 16 17  1  0  0  0  0
 16 41  1  0  0  0  0
 16 42  1  0  0  0  0
 17 43  1  0  0  0  0
 17 44  1  0  0  0  0
 18 19  1  0  0  0  0
 18 45  1  0  0  0  0
 19 24  1  0  0  0  0
 19 20  2  0  0  0  0
 20 21  1  0  0  0  0
 20 46  1  0  0  0  0
 21 22  2  0  0  0  0
 21 47  1  0  0  0  0
 22 23  1  0  0  0  0
 22 48  1  0  0  0  0
 23 24  2  0  0  0  0
 23 49  1  0  0  0  0
M  CHG  1   6   1
M  END
> <s_m_source_file>
AV-unprocessed.smi

> <i_m_source_file_index>
2645

> <i_lp_mmshare_version>
43012

> <i_f3d_flags>
0

> <s_epik_input>
bjFbY0hdW2NIXVtjSF1bY0hdYzFbTkhdQyg9TylbTkhdW0NIMl1bQ0gyXU4yW0NIMl1bQ0gyXU4oW0NIMl1bQ0gyXTIpQyg9TylbQ0hdM1tDSDJdW0NIMl1bQ0gyXTM=

> <s_epik_cmdline>
J2VwaWtfcHl0aG9uJywgJy1waCcsICc3LjAnLCAnLXRuJywgJzgnLCAnLW1hJywgJzIwMCcsICctbWV0YWxfYmluZGluZycsICctaW1hZScsICc8aW5maWxlLm1hZT4nLCAnLW9tYWUnLCAnPG91dGZpbGUubWFlPic=

> <r_epik_Ionization_Penalty>
0.58203

> <r_epik_Ionization_Penalty_Charging>
0.581996

> <r_epik_Ionization_Penalty_Neutral>
3.43439e-05

> <r_epik_State_Penalty>
0.594836

> <r_epik_Charging_Adjusted_Penalty>
1.17683

> <i_epik_Tot_Q>
1

> <i_epik_Tot_abs_Q>
1

> <r_epik_Metal_State_Penalty>
0.594839

> <b_epik_Metal_Only>
0

> <s_lp_Force_Field>
OPLS_2005

> <r_lp_Energy>
52.325

> <b_lp_Chiralities_Consistent>
1

> <s_lp_Variant>
AV-unprocessed.smi:2645-2

> <Gold.Version>
5.8.1

> <Gold.Id.Protein>
6NUR|6NUR_protein|mol2

> <Gold.PLP.Fitness>
51.1107

> <Gold.PLP.PLP>
-41.2895

> <Gold.PLP.part.hbond>
-2.5282

> <Gold.PLP.part.metal>
0.0000

> <Gold.PLP.part.buried>
-1.9128

> <Gold.PLP.part.nonpolar>
-37.7150

> <Gold.PLP.part.repulsive>
0.6103

> <Gold.PLP.ligand.clash>
0.0000

> <Gold.PLP.ligand.torsion>
1.2164

> <Gold.PLP.Chemscore.Hbond>
2.9360

> <Gold.PLP.Chemscore.CHOScore>
1.0000

> <Gold.PLP.Chemscore.Metal>
0.0000

> <Gold.Chemscore.Hbonds>
donor molecule, donor type, donor heavy atom, donor atom, acceptor molecule, acceptor atom, score
      L1  H     3    25       P1  7948  0.92
      L1  H    18    45       P1  7948  0.96
      P1  H  7997  8008       L1    11  1.00
      L1  C    23    49       P1 10186  1.00

> <Gold.PLP.Chemscore.Internal.Correction>
0.4460

> <Gold.Rescore>
     Score         DG    S(hbond)    S(metal)    S(lipo)     H(rot)  DE(clash)    DE(int)     intcor
     18.89     -23.07       2.89        0.00     106.87       1.79       1.69       2.49       ----

> <Gold.Chemscore.Fitness>
18.8861

> <Gold.Chemscore.DG>
-23.0698

> <Gold.Chemscore.ZeroCoef>
-5.4800

> <Gold.Chemscore.Hbond>
2.8944

> <Gold.Chemscore.Metal>
0.0000

> <Gold.Chemscore.Lipo>
106.8661

> <Gold.Chemscore.Internal_Hbond>
0.0000

> <Gold.Chemscore.DEClash>
1.6940

> <Gold.Chemscore.DEInternal>
2.4896

> <Gold.Chemscore.Rot>
1.7894

> <Gold.Chemscore.Internal.Correction>
   9.000000E+99

> <Gold.Chemscore.Hbonds>
donor molecule, donor type, donor heavy atom, donor atom, acceptor molecule, acceptor atom, score
      L1  H     3    25       P1  7948  0.83
      L1  H    18    45       P1  7948  0.85
      P1  H  7997  8008       L1    11  0.94

> <Gold.Chemscore.Hbond.Weighted>
-9.6672

> <Gold.Chemscore.Metal.Weighted>
-0.0000

> <Gold.Chemscore.Lipo.Weighted>
-12.5033

> <Gold.Chemscore.Internal_Hbond.Weighted>
0.0000

> <Gold.Chemscore.DEClash.Weighted>
1.6940

> <Gold.Chemscore.DEInternal.Weighted>
2.4896

> <Gold.Chemscore.Rot.Weighted>
4.5807

> <Gold.Chemscore.Internal.Correction.Weighted>
   9.000000E+99

> <Gold.Protein.RotatedTorsions>
[ 6907 6896 6895 6894 ] final   59.44 input  -60.11 | X-H torsion
[ 7974 7965 7964 7962 ] final   -0.68 input  175.53 | X-H torsion
[ 8008 7997 7996 7995 ] final  -65.70 input   59.86 | X-H torsion
[ 10167 10162 10161 10158 ] final  -62.33 input  -65.29 | X-H torsion
[ 10718 10713 10712 10709 ] final   34.56 input   66.30 | X-H torsion
[ 10763 10752 10751 10750 ] final -125.53 input  -60.55 | X-H torsion
[ 11005 11000 10999 10996 ] final   29.77 input  -57.11 | X-H torsion

> <Gold.Protein.ActiveResidues>
 VAL166  LYS551  ARG553  GLY616  TRP617  ASP618  TYR619  PRO620  LYS621  CYS622 
 ASP623  PHE694  ASN695  SER759  ASP760  ASP761  ALA762  ILE779  LEU786  VAL792 
 PHE793  MET794  SER795  GLU796  ALA797  LYS798  CYS799  TRP800  GLU811  SER814 

> <Gold.Protein.RotatedAtoms>
  152.3915  134.6433  160.0105 H   0  0  0  0  0  0  0  0  0  0  0  0  # atno 6907 bound_to 6896
  151.6666  133.3309  159.3194 H   0  0  0  0  0  0  0  0  0  0  0  0  # atno 6908 bound_to 6896
  150.7830  134.6835  159.6502 H   0  0  0  0  0  0  0  0  0  0  0  0  # atno 6909 bound_to 6896
  146.2425  140.1305  142.8338 H   0  0  0  0  0  0  0  0  0  0  0  0  # atno 7974 bound_to 7965
  154.4688  140.0928  156.7090 H   0  0  0  0  0  0  0  0  0  0  0  0  # atno 8008 bound_to 7997
  155.4783  140.3467  155.4317 H   0  0  0  0  0  0  0  0  0  0  0  0  # atno 8009 bound_to 7997
  156.1003  140.1420  156.9465 H   0  0  0  0  0  0  0  0  0  0  0  0  # atno 8010 bound_to 7997
  140.5946  143.2348  151.6064 H   0  0  0  0  0  0  0  0  0  0  0  0  # atno 10167 bound_to 10162
  157.3118  130.7403  149.6730 H   0  0  0  0  0  0  0  0  0  0  0  0  # atno 10718 bound_to 10713
  154.8737  135.4026  154.3283 H   0  0  0  0  0  0  0  0  0  0  0  0  # atno 10763 bound_to 10752
  153.4100  135.7020  153.6371 H   0  0  0  0  0  0  0  0  0  0  0  0  # atno 10764 bound_to 10752
  153.5078  135.3714  155.2542 H   0  0  0  0  0  0  0  0  0  0  0  0  # atno 10765 bound_to 10752
  140.3015  134.2752  155.7753 H   0  0  0  0  0  0  0  0  0  0  0  0  # atno 11005 bound_to 11000
  145.0330  140.8885  143.5098 LP  0  0  0  0  0  0  0  0  0  0  0  0  # atno 17320 bound_to 7965
  145.1373  139.2594  143.5508 LP  0  0  0  0  0  0  0  0  0  0  0  0  # atno 17321 bound_to 7965
  139.5250  144.3088  152.1010 LP  0  0  0  0  0  0  0  0  0  0  0  0  # atno 17342 bound_to 10162
  140.2258  144.4419  150.6321 LP  0  0  0  0  0  0  0  0  0  0  0  0  # atno 17343 bound_to 10162
  155.9678  130.4249  150.4629 LP  0  0  0  0  0  0  0  0  0  0  0  0  # atno 17370 bound_to 10713
  157.2629  131.0570  151.2309 LP  0  0  0  0  0  0  0  0  0  0  0  0  # atno 17371 bound_to 10713
  141.2127  133.7649  156.9773 LP  0  0  0  0  0  0  0  0  0  0  0  0  # atno 17394 bound_to 11000
  140.1105  134.9479  157.2058 LP  0  0  0  0  0  0  0  0  0  0  0  0  # atno 17395 bound_to 11000

$$$$
