AV-unprocessed.smi:2451|AV-procd|sdf|9676|dock7
  -GOLD-   2272013313D 1   1.00000     0.00000
 Structure written by MMmdl.
 38 39  0  0  0  0  0  0  0  0  1 V2000
  152.8011  143.6959  162.3746 C   0  0  0  0  0  0  0  0  0  0  0  0
  152.1098  143.6998  160.9998 C   0  0  1  0  0  0  0  0  0  0  0  0
  151.9719  145.1481  160.4888 C   0  0  0  0  0  0  0  0  0  0  0  0
  151.2647  145.2137  159.1294 C   0  0  0  0  0  0  0  0  0  0  0  0
  151.9903  144.3560  158.0835 C   0  0  0  0  0  0  0  0  0  0  0  0
  152.1718  142.8994  158.5556 C   0  0  2  0  0  0  0  0  0  0  0  0
  150.8889  142.1813  158.5437 N   0  0  0  0  0  0  0  0  0  0  0  0
  150.7776  140.6348  157.7837 S   0  0  0  0  0  0  0  0  0  0  0  0
  151.7162  139.7346  158.4708 O   0  0  0  0  0  0  0  0  0  0  0  0
  149.3542  140.2774  157.6807 O   0  0  0  0  0  0  0  0  0  0  0  0
  151.4133  140.9836  156.0906 C   0  0  0  0  0  0  0  0  0  0  0  0
  151.6658  139.6891  155.3722 C   0  0  0  0  0  0  0  0  0  0  0  0
  150.7164  138.7460  154.8896 C   0  0  0  0  0  0  0  0  0  0  0  0
  151.4916  137.7716  154.3297 C   0  0  0  0  0  0  0  0  0  0  0  0
  152.8067  138.0840  154.4487 O   0  0  0  0  0  0  0  0  0  0  0  0
  152.9078  139.3113  155.1134 N   0  0  0  0  0  0  0  0  0  0  0  0
  152.8410  142.8163  159.9519 C   0  0  2  0  0  0  0  0  0  0  0  0
  153.0353  141.3532  160.3985 C   0  0  0  0  0  0  0  0  0  0  0  0
  153.8400  144.0179  162.2979 H   0  0  0  0  0  0  0  0  0  0  0  0
  152.7882  142.7064  162.8310 H   0  0  0  0  0  0  0  0  0  0  0  0
  152.2965  144.3694  163.0678 H   0  0  0  0  0  0  0  0  0  0  0  0
  151.1046  143.3001  161.1416 H   0  0  0  0  0  0  0  0  0  0  0  0
  151.4166  145.7473  161.2114 H   0  0  0  0  0  0  0  0  0  0  0  0
  152.9589  145.6055  160.4054 H   0  0  0  0  0  0  0  0  0  0  0  0
  150.2335  144.8742  159.2343 H   0  0  0  0  0  0  0  0  0  0  0  0
  151.2135  146.2479  158.7878 H   0  0  0  0  0  0  0  0  0  0  0  0
  151.4633  144.3967  157.1301 H   0  0  0  0  0  0  0  0  0  0  0  0
  152.9734  144.7897  157.8962 H   0  0  0  0  0  0  0  0  0  0  0  0
  152.8319  142.3995  157.8459 H   0  0  0  0  0  0  0  0  0  0  0  0
  150.1322  142.7929  158.2384 H   0  0  0  0  0  0  0  0  0  0  0  0
  150.6740  141.5860  155.5632 H   0  0  0  0  0  0  0  0  0  0  0  0
  152.3239  141.5766  156.1800 H   0  0  0  0  0  0  0  0  0  0  0  0
  149.6387  138.7773  154.9501 H   0  0  0  0  0  0  0  0  0  0  0  0
  151.2678  136.8403  153.8309 H   0  0  0  0  0  0  0  0  0  0  0  0
  153.8428  143.2323  159.8342 H   0  0  0  0  0  0  0  0  0  0  0  0
  152.0878  140.8854  160.6670 H   0  0  0  0  0  0  0  0  0  0  0  0
  153.6976  141.2804  161.2609 H   0  0  0  0  0  0  0  0  0  0  0  0
  153.4855  140.7580  159.6035 H   0  0  0  0  0  0  0  0  0  0  0  0
  1  2  1  0  0  0  0
  1 19  1  0  0  0  0
  1 20  1  0  0  0  0
  1 21  1  0  0  0  0
  2 17  1  0  0  0  0
  2  3  1  0  0  0  0
  2 22  1  0  0  0  0
  3  4  1  0  0  0  0
  3 23  1  0  0  0  0
  3 24  1  0  0  0  0
  4  5  1  0  0  0  0
  4 25  1  0  0  0  0
  4 26  1  0  0  0  0
  5  6  1  0  0  0  0
  5 27  1  0  0  0  0
  5 28  1  0  0  0  0
  6  7  1  0  0  0  0
  6 17  1  0  0  0  0
  6 29  1  0  0  0  0
  7  8  1  0  0  0  0
  7 30  1  0  0  0  0
  8  9  2  0  0  0  0
  8 10  2  0  0  0  0
  8 11  1  0  0  0  0
 11 12  1  0  0  0  0
 11 31  1  0  0  0  0
 11 32  1  0  0  0  0
 12 16  2  0  0  0  0
 12 13  1  0  0  0  0
 13 14  2  0  0  0  0
 13 33  1  0  0  0  0
 14 15  1  0  0  0  0
 14 34  1  0  0  0  0
 15 16  1  0  0  0  0
 17 18  1  0  0  0  0
 17 35  1  0  0  0  0
 18 36  1  0  0  0  0
 18 37  1  0  0  0  0
 18 38  1  0  0  0  0
M  END
> <s_m_source_file>
AV-unprocessed.smi

> <i_m_source_file_index>
2451

> <i_lp_mmshare_version>
43012

> <i_f3d_flags>
0

> <s_epik_input>
W0NIM11bQ0BASF0xW0NIMl1bQ0gyXVtDSDJdW0NASF0oW0NASF0xW0NIM10pW05IXVMoPU8pKD1PKVtDSDJdYzJbY0hdW2NIXW9uMg==

> <s_epik_cmdline>
J2VwaWtfcHl0aG9uJywgJy1waCcsICc3LjAnLCAnLXRuJywgJzgnLCAnLW1hJywgJzIwMCcsICctbWV0YWxfYmluZGluZycsICctaW1hZScsICc8aW5maWxlLm1hZT4nLCAnLW9tYWUnLCAnPG91dGZpbGUubWFlPic=

> <r_lp_tautomer_probability>
1

> <r_epik_Ionization_Penalty>
8.73668e-05

> <r_epik_Ionization_Penalty_Charging>
0

> <r_epik_Ionization_Penalty_Neutral>
8.73668e-05

> <r_epik_State_Penalty>
-0

> <r_epik_Charging_Adjusted_Penalty>
0

> <i_epik_Tot_Q>
0

> <i_epik_Tot_abs_Q>
0

> <r_epik_Metal_State_Penalty>
0.0716439

> <b_epik_Metal_Only>
0

> <s_lp_Force_Field>
OPLS_2005

> <r_lp_Energy>
8.50206

> <b_lp_Chiralities_Consistent>
1

> <s_lp_Variant>
AV-unprocessed.smi:2451-8

> <Gold.Version>
5.8.1

> <Gold.Id.Protein>
6NUR|6NUR_protein|mol2

> <Gold.PLP.Fitness>
51.2902

> <Gold.PLP.PLP>
-47.2006

> <Gold.PLP.part.hbond>
-2.1971

> <Gold.PLP.part.metal>
0.0000

> <Gold.PLP.part.buried>
-6.3742

> <Gold.PLP.part.nonpolar>
-38.9001

> <Gold.PLP.part.repulsive>
0.0514

> <Gold.PLP.ligand.clash>
0.0000

> <Gold.PLP.ligand.torsion>
1.0300

> <Gold.PLP.Chemscore.Hbond>
1.0000

> <Gold.PLP.Chemscore.CHOScore>
1.0000

> <Gold.PLP.Chemscore.Metal>
0.0000

> <Gold.Chemscore.Hbonds>
donor molecule, donor type, donor heavy atom, donor atom, acceptor molecule, acceptor atom, score
      P1  H  7997  8010       L1    16  1.00
      L1  C    14    34       P1  7949  1.00

> <Gold.PLP.Chemscore.Internal.Correction>
0.1496

> <Gold.Rescore>
     Score         DG    S(hbond)    S(metal)    S(lipo)     H(rot)  DE(clash)    DE(int)     intcor
     16.55     -18.89       0.97        0.00     123.27       1.66       0.02       2.32       ----

> <Gold.Chemscore.Fitness>
16.5508

> <Gold.Chemscore.DG>
-18.8866

> <Gold.Chemscore.ZeroCoef>
-5.4800

> <Gold.Chemscore.Hbond>
0.9673

> <Gold.Chemscore.Metal>
0.0000

> <Gold.Chemscore.Lipo>
123.2688

> <Gold.Chemscore.Internal_Hbond>
0.0000

> <Gold.Chemscore.DEClash>
0.0190

> <Gold.Chemscore.DEInternal>
2.3168

> <Gold.Chemscore.Rot>
1.6588

> <Gold.Chemscore.Internal.Correction>
   9.000000E+99

> <Gold.Chemscore.Hbonds>
donor molecule, donor type, donor heavy atom, donor atom, acceptor molecule, acceptor atom, score
      P1  H  7997  8010       L1    16  0.97

> <Gold.Chemscore.Hbond.Weighted>
-3.2307

> <Gold.Chemscore.Metal.Weighted>
-0.0000

> <Gold.Chemscore.Lipo.Weighted>
-14.4225

> <Gold.Chemscore.Internal_Hbond.Weighted>
0.0000

> <Gold.Chemscore.DEClash.Weighted>
0.0190

> <Gold.Chemscore.DEInternal.Weighted>
2.3168

> <Gold.Chemscore.Rot.Weighted>
4.2466

> <Gold.Chemscore.Internal.Correction.Weighted>
   9.000000E+99

> <Gold.Protein.RotatedTorsions>
[ 6907 6896 6895 6894 ] final  131.57 input  -60.11 | X-H torsion
[ 7974 7965 7964 7962 ] final -133.01 input  175.53 | X-H torsion
[ 8008 7997 7996 7995 ] final   93.67 input   59.86 | X-H torsion
[ 10167 10162 10161 10158 ] final  -60.97 input  -65.29 | X-H torsion
[ 10718 10713 10712 10709 ] final  151.30 input   66.30 | X-H torsion
[ 10763 10752 10751 10750 ] final   78.18 input  -60.55 | X-H torsion
[ 11005 11000 10999 10996 ] final -136.31 input  -57.11 | X-H torsion

> <Gold.Protein.ActiveResidues>
 VAL166  LYS551  ARG553  GLY616  TRP617  ASP618  TYR619  PRO620  LYS621  CYS622 
 ASP623  PHE694  ASN695  SER759  ASP760  ASP761  ALA762  ILE779  LEU786  VAL792 
 PHE793  MET794  SER795  GLU796  ALA797  LYS798  CYS799  TRP800  GLU811  SER814 

> <Gold.Protein.RotatedAtoms>
  152.3413  133.6070  159.5878 H   0  0  0  0  0  0  0  0  0  0  0  0  # atno 6907 bound_to 6896
  150.7480  133.9718  159.3557 H   0  0  0  0  0  0  0  0  0  0  0  0  # atno 6908 bound_to 6896
  151.7582  135.0817  160.0392 H   0  0  0  0  0  0  0  0  0  0  0  0  # atno 6909 bound_to 6896
  144.9232  140.7039  143.4952 H   0  0  0  0  0  0  0  0  0  0  0  0  # atno 7974 bound_to 7965
  156.0494  140.3310  155.7333 H   0  0  0  0  0  0  0  0  0  0  0  0  # atno 8008 bound_to 7997
  155.5624  140.0620  157.2843 H   0  0  0  0  0  0  0  0  0  0  0  0  # atno 8009 bound_to 7997
  154.4428  140.1875  156.0785 H   0  0  0  0  0  0  0  0  0  0  0  0  # atno 8010 bound_to 7997
  140.6037  143.2368  151.5871 H   0  0  0  0  0  0  0  0  0  0  0  0  # atno 10167 bound_to 10162
  157.2725  131.0819  151.1590 H   0  0  0  0  0  0  0  0  0  0  0  0  # atno 10718 bound_to 10713
  153.0855  135.4886  154.8588 H   0  0  0  0  0  0  0  0  0  0  0  0  # atno 10763 bound_to 10752
  154.7205  135.3038  154.9058 H   0  0  0  0  0  0  0  0  0  0  0  0  # atno 10764 bound_to 10752
  153.9723  135.6799  153.4800 H   0  0  0  0  0  0  0  0  0  0  0  0  # atno 10765 bound_to 10752
  140.8817  134.1923  157.4587 H   0  0  0  0  0  0  0  0  0  0  0  0  # atno 11005 bound_to 11000
  145.3262  139.1773  143.4561 LP  0  0  0  0  0  0  0  0  0  0  0  0  # atno 17320 bound_to 7965
  146.3214  140.3285  142.8638 LP  0  0  0  0  0  0  0  0  0  0  0  0  # atno 17321 bound_to 7965
  139.5309  144.2919  152.1145 LP  0  0  0  0  0  0  0  0  0  0  0  0  # atno 17342 bound_to 10162
  140.2104  144.4568  150.6388 LP  0  0  0  0  0  0  0  0  0  0  0  0  # atno 17343 bound_to 10162
  157.3056  130.6864  149.6187 LP  0  0  0  0  0  0  0  0  0  0  0  0  # atno 17370 bound_to 10713
  155.9663  130.4379  150.5194 LP  0  0  0  0  0  0  0  0  0  0  0  0  # atno 17371 bound_to 10713
  139.8720  134.9820  156.5139 LP  0  0  0  0  0  0  0  0  0  0  0  0  # atno 17394 bound_to 11000
  140.8453  133.8173  155.9115 LP  0  0  0  0  0  0  0  0  0  0  0  0  # atno 17395 bound_to 11000

$$$$
