AV-unprocessed.smi:1744|AV-procd|sdf|7028|dock4
  -GOLD-   22720 8243D 1   1.00000     0.00000
 Structure written by MMmdl.
 43 44  0  0  0  0  0  0  0  0  3 V2000
  149.7539  141.6466  157.4481 C   0  0  0  0  0  0  0  0  0  0  0  0
  150.3800  141.7290  156.0505 C   0  0  0  0  0  0  0  0  0  0  0  0
  150.1991  140.4976  155.3069 N   0  0  0  0  0  0  0  0  0  0  0  0
  149.0221  139.8301  155.0317 C   0  0  0  0  0  0  0  0  0  0  0  0
  149.3777  138.7357  154.3020 C   0  0  0  0  0  0  0  0  0  0  0  0
  148.4720  137.7694  153.7971 N   0  0  0  0  0  0  0  0  0  0  0  0
  147.1997  137.5733  154.1796 C   0  0  0  0  0  0  0  0  0  0  0  0
  146.6049  138.2384  155.0272 O   0  0  0  0  0  0  0  0  0  0  0  0
  146.6427  136.5487  153.5177 N   0  0  0  0  0  0  0  0  0  0  0  0
  145.2713  136.0727  153.6993 C   0  0  2  0  0  0  0  0  0  0  0  0
  145.2139  134.5425  153.8767 C   0  0  0  0  0  0  0  0  0  0  0  0
  145.5430  133.7984  152.5708 C   0  0  0  0  0  0  0  0  0  0  0  0
  144.6458  134.2310  151.4655 N   0  3  2  0  0  0  0  0  0  0  0  0
  144.8365  133.4494  150.2182 C   0  0  0  0  0  0  0  0  0  0  0  0
  144.0482  132.1372  150.2873 C   0  0  0  0  0  0  0  0  0  0  0  0
  143.0202  132.1083  149.4181 N   0  5  0  0  0  0  0  0  0  0  0  0
  144.3996  131.2578  151.0711 O   0  0  0  0  0  0  0  0  0  0  0  0
  144.7326  135.6948  151.2311 C   0  0  0  0  0  0  0  0  0  0  0  0
  144.3928  136.4881  152.5066 C   0  0  0  0  0  0  0  0  0  0  0  0
  150.7941  138.7990  154.1716 C   0  0  0  0  0  0  0  0  0  0  0  0
  151.2802  139.8681  154.7840 N   0  0  0  0  0  0  0  0  0  0  0  0
  149.9007  142.5786  157.9942 H   0  0  0  0  0  0  0  0  0  0  0  0
  150.2020  140.8433  158.0337 H   0  0  0  0  0  0  0  0  0  0  0  0
  148.6809  141.4612  157.3903 H   0  0  0  0  0  0  0  0  0  0  0  0
  149.9374  142.5494  155.4841 H   0  0  0  0  0  0  0  0  0  0  0  0
  151.4477  141.9370  156.1279 H   0  0  0  0  0  0  0  0  0  0  0  0
  148.0598  140.1861  155.3689 H   0  0  0  0  0  0  0  0  0  0  0  0
  148.8339  137.1597  153.0788 H   0  0  0  0  0  0  0  0  0  0  0  0
  147.2072  136.0643  152.8352 H   0  0  0  0  0  0  0  0  0  0  0  0
  144.8681  136.5461  154.5966 H   0  0  0  0  0  0  0  0  0  0  0  0
  145.8882  134.2204  154.6709 H   0  0  0  0  0  0  0  0  0  0  0  0
  144.2121  134.2586  154.2020 H   0  0  0  0  0  0  0  0  0  0  0  0
  146.5824  133.9717  152.2883 H   0  0  0  0  0  0  0  0  0  0  0  0
  145.4414  132.7264  152.7417 H   0  0  0  0  0  0  0  0  0  0  0  0
  144.4437  134.0063  149.3663 H   0  0  0  0  0  0  0  0  0  0  0  0
  145.9002  133.2952  150.0238 H   0  0  0  0  0  0  0  0  0  0  0  0
  142.2766  132.8107  149.5109 H   0  0  0  0  0  0  0  0  0  0  0  0
  145.7337  135.9480  150.8792 H   0  0  0  0  0  0  0  0  0  0  0  0
  144.0388  135.9816  150.4399 H   0  0  0  0  0  0  0  0  0  0  0  0
  143.3452  136.3185  152.7600 H   0  0  0  0  0  0  0  0  0  0  0  0
  144.4886  137.5585  152.3203 H   0  0  0  0  0  0  0  0  0  0  0  0
  151.4767  138.1316  153.6673 H   0  0  0  0  0  0  0  0  0  0  0  0
  143.6988  134.0442  151.7639 H   0  0  0  0  0  0  0  0  0  0  0  0
  1  2  1  0  0  0  0
  1 22  1  0  0  0  0
  1 23  1  0  0  0  0
  1 24  1  0  0  0  0
  2  3  1  0  0  0  0
  2 25  1  0  0  0  0
  2 26  1  0  0  0  0
  3 21  1  0  0  0  0
  3  4  1  0  0  0  0
  4  5  2  0  0  0  0
  4 27  1  0  0  0  0
  5  6  1  0  0  0  0
  5 20  1  0  0  0  0
  6  7  1  0  0  0  0
  6 28  1  0  0  0  0
  7  8  2  0  0  0  0
  7  9  1  0  0  0  0
  9 10  1  0  0  0  0
  9 29  1  0  0  0  0
 10 19  1  0  0  0  0
 10 11  1  0  0  0  0
 10 30  1  0  0  0  0
 11 12  1  0  0  0  0
 11 31  1  0  0  0  0
 11 32  1  0  0  0  0
 12 13  1  0  0  0  0
 12 33  1  0  0  0  0
 12 34  1  0  0  0  0
 13 14  1  0  0  0  0
 13 18  1  0  0  0  0
 13 43  1  0  0  0  0
 14 15  1  0  0  0  0
 14 35  1  0  0  0  0
 14 36  1  0  0  0  0
 15 16  1  0  0  0  0
 15 17  2  0  0  0  0
 16 37  1  0  0  0  0
 18 19  1  0  0  0  0
 18 38  1  0  0  0  0
 18 39  1  0  0  0  0
 19 40  1  0  0  0  0
 19 41  1  0  0  0  0
 20 21  2  0  0  0  0
 20 42  1  0  0  0  0
M  CHG  1  13   1
M  CHG  1  16  -1
M  END
> <s_m_source_file>
AV-unprocessed.smi

> <i_m_source_file_index>
1744

> <i_lp_mmshare_version>
43012

> <i_f3d_flags>
0

> <s_epik_input>
W0NIM11bQ0gyXW4xW2NIXWMoW2NIXW4xKVtOSF1DKD1PKVtOSF1bQ0hdMltDSDJdW0NIMl1OKFtDSDJdW0NIMl0yKVtDSDJdQyg9TylbTkgyXQ==

> <s_epik_cmdline>
J2VwaWtfcHl0aG9uJywgJy1waCcsICc3LjAnLCAnLXRuJywgJzgnLCAnLW1hJywgJzIwMCcsICctbWV0YWxfYmluZGluZycsICctaW1hZScsICc8aW5maWxlLm1hZT4nLCAnLW9tYWUnLCAnPG91dGZpbGUubWFlPic=

> <r_lp_tautomer_probability>
1

> <r_epik_Ionization_Penalty>
5.72895

> <r_epik_Ionization_Penalty_Charging>
5.7288

> <r_epik_Ionization_Penalty_Neutral>
0.000148676

> <r_epik_State_Penalty>
6.54882

> <r_epik_Charging_Adjusted_Penalty>
12.2776

> <i_epik_Tot_Q>
0

> <i_epik_Tot_abs_Q>
2

> <r_epik_Metal_State_Penalty>
2.51309

> <b_epik_Metal_Only>
1

> <s_lp_Force_Field>
OPLS_2005

> <r_lp_Energy>
11.9421

> <b_lp_Chiralities_Consistent>
1

> <s_lp_Variant>
AV-unprocessed.smi:1744-5

> <Gold.Version>
5.8.1

> <Gold.Id.Protein>
6NUR|6NUR_protein|mol2

> <Gold.PLP.Fitness>
46.2914

> <Gold.PLP.PLP>
-33.5383

> <Gold.PLP.part.hbond>
-5.6924

> <Gold.PLP.part.metal>
0.0000

> <Gold.PLP.part.buried>
-6.3986

> <Gold.PLP.part.nonpolar>
-22.1532

> <Gold.PLP.part.repulsive>
0.2897

> <Gold.PLP.ligand.clash>
0.0000

> <Gold.PLP.ligand.torsion>
0.6074

> <Gold.PLP.Chemscore.Hbond>
4.6433

> <Gold.PLP.Chemscore.CHOScore>
0.0000

> <Gold.PLP.Chemscore.Metal>
0.0000

> <Gold.Chemscore.Hbonds>
donor molecule, donor type, donor heavy atom, donor atom, acceptor molecule, acceptor atom, score
      L1  H     6    28       P1  7948  0.98
      L1  H     9    29       P1  7948  0.83
      L1  H    16    37       P1 10186  0.98
      P1  H  7989  7998       L1    21  1.00
      P1  H 10785 10796       L1    16  0.86

> <Gold.PLP.Chemscore.Internal.Correction>
0.0381

> <Gold.Rescore>
     Score         DG    S(hbond)    S(metal)    S(lipo)     H(rot)  DE(clash)    DE(int)     intcor
     15.14     -17.00       3.09        0.00      58.02       2.18       0.03       1.83       ----

> <Gold.Chemscore.Fitness>
15.1424

> <Gold.Chemscore.DG>
-17.0047

> <Gold.Chemscore.ZeroCoef>
-5.4800

> <Gold.Chemscore.Hbond>
3.0915

> <Gold.Chemscore.Metal>
0.0000

> <Gold.Chemscore.Lipo>
58.0201

> <Gold.Chemscore.Internal_Hbond>
0.0000

> <Gold.Chemscore.DEClash>
0.0291

> <Gold.Chemscore.DEInternal>
1.8331

> <Gold.Chemscore.Rot>
2.1833

> <Gold.Chemscore.Internal.Correction>
   9.000000E+99

> <Gold.Chemscore.Hbonds>
donor molecule, donor type, donor heavy atom, donor atom, acceptor molecule, acceptor atom, score
      L1  H     6    28       P1  7948  0.91
      L1  H     9    29       P1  7948  0.80
      L1  H    16    37       P1 10186  0.91
      P1  H  7989  7998       L1    21  0.10
      P1  H 10785 10796       L1    16  0.21

> <Gold.Chemscore.Hbond.Weighted>
-10.3255

> <Gold.Chemscore.Metal.Weighted>
-0.0000

> <Gold.Chemscore.Lipo.Weighted>
-6.7884

> <Gold.Chemscore.Internal_Hbond.Weighted>
0.0000

> <Gold.Chemscore.DEClash.Weighted>
0.0291

> <Gold.Chemscore.DEInternal.Weighted>
1.8331

> <Gold.Chemscore.Rot.Weighted>
5.5892

> <Gold.Chemscore.Internal.Correction.Weighted>
   9.000000E+99

> <Gold.Protein.RotatedTorsions>
[ 6907 6896 6895 6894 ] final -144.98 input  -60.11 | X-H torsion
[ 7974 7965 7964 7962 ] final   48.51 input  175.53 | X-H torsion
[ 8008 7997 7996 7995 ] final  102.95 input   59.86 | X-H torsion
[ 10167 10162 10161 10158 ] final    3.64 input  -65.29 | X-H torsion
[ 10718 10713 10712 10709 ] final  134.49 input   66.30 | X-H torsion
[ 10763 10752 10751 10750 ] final   38.30 input  -60.55 | X-H torsion
[ 11005 11000 10999 10996 ] final  163.88 input  -57.11 | X-H torsion

> <Gold.Protein.ActiveResidues>
 VAL166  LYS551  ARG553  GLY616  TRP617  ASP618  TYR619  PRO620  LYS621  CYS622 
 ASP623  PHE694  ASN695  SER759  ASP760  ASP761  ALA762  ILE779  LEU786  VAL792 
 PHE793  MET794  SER795  GLU796  ALA797  LYS798  CYS799  TRP800  GLU811  SER814 

> <Gold.Protein.RotatedAtoms>
  151.1214  133.5101  159.2601 H   0  0  0  0  0  0  0  0  0  0  0  0  # atno 6907 bound_to 6896
  151.1857  135.0380  159.8821 H   0  0  0  0  0  0  0  0  0  0  0  0  # atno 6908 bound_to 6896
  152.5456  134.1061  159.8392 H   0  0  0  0  0  0  0  0  0  0  0  0  # atno 6909 bound_to 6896
  146.0197  139.4637  142.9905 H   0  0  0  0  0  0  0  0  0  0  0  0  # atno 7974 bound_to 7965
  156.1440  140.3173  155.8540 H   0  0  0  0  0  0  0  0  0  0  0  0  # atno 8008 bound_to 7997
  155.4100  140.0505  157.3049 H   0  0  0  0  0  0  0  0  0  0  0  0  # atno 8009 bound_to 7997
  154.5000  140.2125  155.9378 H   0  0  0  0  0  0  0  0  0  0  0  0  # atno 8010 bound_to 7997
  140.6575  143.7389  150.7680 H   0  0  0  0  0  0  0  0  0  0  0  0  # atno 10167 bound_to 10162
  157.4667  131.1077  150.9853 H   0  0  0  0  0  0  0  0  0  0  0  0  # atno 10718 bound_to 10713
  153.0006  135.6253  154.2283 H   0  0  0  0  0  0  0  0  0  0  0  0  # atno 10763 bound_to 10752
  154.2025  135.2803  155.2987 H   0  0  0  0  0  0  0  0  0  0  0  0  # atno 10764 bound_to 10752
  154.5672  135.5687  153.7120 H   0  0  0  0  0  0  0  0  0  0  0  0  # atno 10765 bound_to 10752
  140.2402  134.8056  157.3404 H   0  0  0  0  0  0  0  0  0  0  0  0  # atno 11005 bound_to 11000
  145.7213  141.0074  143.1401 LP  0  0  0  0  0  0  0  0  0  0  0  0  # atno 17320 bound_to 7965
  144.6985  139.8873  143.7451 LP  0  0  0  0  0  0  0  0  0  0  0  0  # atno 17321 bound_to 7965
  140.1051  143.4751  152.2403 LP  0  0  0  0  0  0  0  0  0  0  0  0  # atno 17342 bound_to 10162
  139.5801  144.7506  151.3662 LP  0  0  0  0  0  0  0  0  0  0  0  0  # atno 17343 bound_to 10162
  157.0632  130.5834  149.5389 LP  0  0  0  0  0  0  0  0  0  0  0  0  # atno 17370 bound_to 10713
  156.0054  130.5139  150.7810 LP  0  0  0  0  0  0  0  0  0  0  0  0  # atno 17371 bound_to 10713
  140.1660  134.4668  155.7862 LP  0  0  0  0  0  0  0  0  0  0  0  0  # atno 17394 bound_to 11000
  141.2211  133.6921  156.7627 LP  0  0  0  0  0  0  0  0  0  0  0  0  # atno 17395 bound_to 11000

$$$$
