AV-unprocessed.smi:44|AV-procd|sdf|404|dock3
  -GOLD-   2262016253D 1   1.00000     0.00000
 Structure written by MMmdl.
 28 30  0  0  0  0  0  0  0  0  2 V2000
  152.4746  137.7254  154.7077 O   0  0  0  0  0  0  0  0  0  0  0  0
  151.7488  138.6888  154.9453 C   0  0  0  0  0  0  0  0  0  0  0  0
  150.7471  139.1463  154.1283 N   0  5  0  0  0  0  0  0  0  0  0  0
  149.9948  140.2542  154.5137 C   0  0  0  0  0  0  0  0  0  0  0  0
  150.1135  140.9501  155.5932 N   0  0  0  0  0  0  0  0  0  0  0  0
  151.1136  140.5086  156.4348 C   0  0  0  0  0  0  0  0  0  0  0  0
  151.9456  139.4441  156.2149 C   0  0  0  0  0  0  0  0  0  0  0  0
  152.8426  139.2808  157.2640 N   0  0  0  0  0  0  0  0  0  0  0  0
  152.4993  140.2758  158.0822 C   0  0  0  0  0  0  0  0  0  0  0  0
  151.4785  141.0512  157.6603 N   0  0  0  0  0  0  0  0  0  0  0  0
  150.8758  142.2333  158.3474 C   0  0  2  0  0  0  0  0  0  0  0  0
  151.2927  143.5267  157.6372 C   0  0  0  0  0  0  0  0  0  0  0  0
  151.6201  144.4271  158.8079 C   0  0  0  0  0  0  0  0  0  0  0  0
  152.2156  143.4282  159.7983 C   0  0  1  0  0  0  0  0  0  0  0  0
  152.2171  143.9008  161.2584 C   0  0  0  0  0  0  0  0  0  0  0  0
  150.8957  144.1300  161.7000 O   0  0  0  0  0  0  0  0  0  0  0  0
  151.3712  142.2913  159.6541 O   0  0  0  0  0  0  0  0  0  0  0  0
  149.8001  142.0557  158.3557 H   0  0  0  0  0  0  0  0  0  0  0  0
  153.2243  143.1506  159.4882 H   0  0  0  0  0  0  0  0  0  0  0  0
  149.2354  140.5079  153.7697 H   0  0  0  0  0  0  0  0  0  0  0  0
  153.0097  140.4456  159.0181 H   0  0  0  0  0  0  0  0  0  0  0  0
  152.1818  143.3566  157.0274 H   0  0  0  0  0  0  0  0  0  0  0  0
  150.4909  143.9040  157.0022 H   0  0  0  0  0  0  0  0  0  0  0  0
  152.3084  145.2312  158.5467 H   0  0  0  0  0  0  0  0  0  0  0  0
  150.7075  144.8706  159.2080 H   0  0  0  0  0  0  0  0  0  0  0  0
  152.6992  143.1679  161.9061 H   0  0  0  0  0  0  0  0  0  0  0  0
  152.7776  144.8314  161.3501 H   0  0  0  0  0  0  0  0  0  0  0  0
  150.7816  143.7067  162.5370 H   0  0  0  0  0  0  0  0  0  0  0  0
  1  2  2  0  0  0  0
  2  7  1  0  0  0  0
  2  3  1  0  0  0  0
  3  4  1  0  0  0  0
  4  5  2  0  0  0  0
  4 20  1  0  0  0  0
  5  6  1  0  0  0  0
  6 10  1  0  0  0  0
  6  7  2  0  0  0  0
  7  8  1  0  0  0  0
  8  9  2  0  0  0  0
  9 10  1  0  0  0  0
  9 21  1  0  0  0  0
 10 11  1  0  0  0  0
 11 18  1  0  0  0  0
 11 17  1  0  0  0  0
 11 12  1  0  0  0  0
 12 13  1  0  0  0  0
 12 22  1  0  0  0  0
 12 23  1  0  0  0  0
 13 14  1  0  0  0  0
 13 24  1  0  0  0  0
 13 25  1  0  0  0  0
 14 19  1  0  0  0  0
 14 15  1  0  0  0  0
 14 17  1  0  0  0  0
 15 16  1  0  0  0  0
 15 26  1  0  0  0  0
 15 27  1  0  0  0  0
 16 28  1  0  0  0  0
M  CHG  1   3  -1
M  END
> <s_m_source_file>
AV-unprocessed.smi

> <i_m_source_file_index>
44

> <i_lp_mmshare_version>
43012

> <i_f3d_flags>
0

> <s_epik_input>
bjFbY0hdW25IXWMoPU8pYyhjMTIpbltjSF1uMltDQEhdM1tDSDJdW0NIMl1bQ0BIXShPMylbQ0gyXVtPSF0=

> <s_epik_cmdline>
J2VwaWtfcHl0aG9uJywgJy1waCcsICc3LjAnLCAnLXRuJywgJzgnLCAnLW1hJywgJzIwMCcsICctbWV0YWxfYmluZGluZycsICctaW1hZScsICc8aW5maWxlLm1hZT4nLCAnLW9tYWUnLCAnPG91dGZpbGUubWFlPic=

> <r_lp_tautomer_probability>
0.85571

> <r_epik_Ionization_Penalty>
2.55863

> <r_epik_Ionization_Penalty_Charging>
1.36424e-10

> <r_epik_Ionization_Penalty_Neutral>
2.55863

> <r_epik_State_Penalty>
2.63326

> <r_epik_Charging_Adjusted_Penalty>
2.63326

> <i_epik_Tot_Q>
-1

> <i_epik_Tot_abs_Q>
1

> <r_epik_Metal_State_Penalty>
0.475154

> <b_epik_Metal_Only>
1

> <s_epik_Chemistry_Notes>
This compound contains an acetal/aminal-like group ( X-CH(R)-Y where X, Y are N, S, or O) that may be acid/base labile, releasing an aldehyde.

> <s_lp_Force_Field>
OPLS_2005

> <r_lp_Energy>
46.6553

> <b_lp_Chiralities_Consistent>
1

> <s_lp_Variant>
AV-unprocessed.smi:44-10

> <Gold.Version>
5.8.1

> <Gold.Id.Protein>
6NUR|6NUR_protein|mol2

> <Gold.PLP.Fitness>
43.3281

> <Gold.PLP.PLP>
-38.1992

> <Gold.PLP.part.hbond>
-6.5748

> <Gold.PLP.part.metal>
0.0000

> <Gold.PLP.part.buried>
-2.1681

> <Gold.PLP.part.nonpolar>
-29.7221

> <Gold.PLP.part.repulsive>
0.3420

> <Gold.PLP.ligand.clash>
0.0000

> <Gold.PLP.ligand.torsion>
0.2640

> <Gold.PLP.Chemscore.Hbond>
1.2668

> <Gold.PLP.Chemscore.CHOScore>
0.6150

> <Gold.PLP.Chemscore.Metal>
0.0000

> <Gold.Chemscore.Hbonds>
donor molecule, donor type, donor heavy atom, donor atom, acceptor molecule, acceptor atom, score
      P1  H  7997  8009       L1     8  0.86
      P1  H 10752 10765       L1     1  0.43
      L1  C     4    20       P1  7957  0.53

> <Gold.PLP.Chemscore.Internal.Correction>
0.0115

> <Gold.Rescore>
     Score         DG    S(hbond)    S(metal)    S(lipo)     H(rot)  DE(clash)    DE(int)     intcor
      8.96      -9.39       0.95        0.00      55.71       2.26       0.07       0.37       ----

> <Gold.Chemscore.Fitness>
8.9597

> <Gold.Chemscore.DG>
-9.3938

> <Gold.Chemscore.ZeroCoef>
-5.4800

> <Gold.Chemscore.Hbond>
0.9514

> <Gold.Chemscore.Metal>
0.0000

> <Gold.Chemscore.Lipo>
55.7148

> <Gold.Chemscore.Internal_Hbond>
0.0000

> <Gold.Chemscore.DEClash>
0.0662

> <Gold.Chemscore.DEInternal>
0.3679

> <Gold.Chemscore.Rot>
2.2588

> <Gold.Chemscore.Internal.Correction>
   9.000000E+99

> <Gold.Chemscore.Hbonds>
donor molecule, donor type, donor heavy atom, donor atom, acceptor molecule, acceptor atom, score
      P1  H  7997  8009       L1     8  0.04
      P1  H 10752 10765       L1     1  0.42

> <Gold.Chemscore.Hbond.Weighted>
-3.1776

> <Gold.Chemscore.Metal.Weighted>
-0.0000

> <Gold.Chemscore.Lipo.Weighted>
-6.5186

> <Gold.Chemscore.Internal_Hbond.Weighted>
0.0000

> <Gold.Chemscore.DEClash.Weighted>
0.0662

> <Gold.Chemscore.DEInternal.Weighted>
0.3679

> <Gold.Chemscore.Rot.Weighted>
5.7825

> <Gold.Chemscore.Internal.Correction.Weighted>
   9.000000E+99

> <Gold.Protein.RotatedTorsions>
[ 6907 6896 6895 6894 ] final  166.13 input  -60.11 | X-H torsion
[ 7974 7965 7964 7962 ] final  -18.58 input  175.53 | X-H torsion
[ 8008 7997 7996 7995 ] final -170.91 input   59.86 | X-H torsion
[ 10167 10162 10161 10158 ] final -102.11 input  -65.29 | X-H torsion
[ 10718 10713 10712 10709 ] final   70.56 input   66.30 | X-H torsion
[ 10763 10752 10751 10750 ] final  167.39 input  -60.55 | X-H torsion
[ 11005 11000 10999 10996 ] final  -75.99 input  -57.11 | X-H torsion

> <Gold.Protein.ActiveResidues>
 VAL166  LYS551  ARG553  GLY616  TRP617  ASP618  TYR619  PRO620  LYS621  CYS622 
 ASP623  PHE694  ASN695  SER759  ASP760  ASP761  ALA762  ILE779  LEU786  VAL792 
 PHE793  MET794  SER795  GLU796  ALA797  LYS798  CYS799  TRP800  GLU811  SER814 

> <Gold.Protein.RotatedAtoms>
  151.8836  133.3500  159.3774 H   0  0  0  0  0  0  0  0  0  0  0  0  # atno 6907 bound_to 6896
  150.7121  134.4994  159.5563 H   0  0  0  0  0  0  0  0  0  0  0  0  # atno 6908 bound_to 6896
  152.2550  134.8094  160.0491 H   0  0  0  0  0  0  0  0  0  0  0  0  # atno 6909 bound_to 6896
  146.1885  140.3941  142.8467 H   0  0  0  0  0  0  0  0  0  0  0  0  # atno 7974 bound_to 7965
  155.9246  140.1080  157.1180 H   0  0  0  0  0  0  0  0  0  0  0  0  # atno 8008 bound_to 7997
  154.4060  140.1249  156.4789 H   0  0  0  0  0  0  0  0  0  0  0  0  # atno 8009 bound_to 7997
  155.7154  140.3470  155.4995 H   0  0  0  0  0  0  0  0  0  0  0  0  # atno 8010 bound_to 7997
  140.2341  143.3585  152.0860 H   0  0  0  0  0  0  0  0  0  0  0  0  # atno 10167 bound_to 10162
  157.6406  130.9484  150.0668 H   0  0  0  0  0  0  0  0  0  0  0  0  # atno 10718 bound_to 10713
  154.3531  135.2753  155.2361 H   0  0  0  0  0  0  0  0  0  0  0  0  # atno 10763 bound_to 10752
  154.4581  135.5914  153.6241 H   0  0  0  0  0  0  0  0  0  0  0  0  # atno 10764 bound_to 10752
  152.9848  135.6058  154.3744 H   0  0  0  0  0  0  0  0  0  0  0  0  # atno 10765 bound_to 10752
  141.1650  133.6967  156.7600 H   0  0  0  0  0  0  0  0  0  0  0  0  # atno 11005 bound_to 11000
  144.8442  140.6903  143.6210 LP  0  0  0  0  0  0  0  0  0  0  0  0  # atno 17320 bound_to 7965
  145.3865  139.1625  143.4252 LP  0  0  0  0  0  0  0  0  0  0  0  0  # atno 17321 bound_to 7965
  139.5100  144.6876  151.5846 LP  0  0  0  0  0  0  0  0  0  0  0  0  # atno 17342 bound_to 10162
  140.6163  143.9342  150.6491 LP  0  0  0  0  0  0  0  0  0  0  0  0  # atno 17343 bound_to 10162
  156.1684  130.3645  149.9199 LP  0  0  0  0  0  0  0  0  0  0  0  0  # atno 17370 bound_to 10713
  156.7181  130.8996  151.3615 LP  0  0  0  0  0  0  0  0  0  0  0  0  # atno 17371 bound_to 10713
  140.2540  134.8518  157.3695 LP  0  0  0  0  0  0  0  0  0  0  0  0  # atno 17394 bound_to 11000
  140.1675  134.4651  155.7854 LP  0  0  0  0  0  0  0  0  0  0  0  0  # atno 17395 bound_to 11000

$$$$
