AV-unprocessed.smi:1005|AV-procd|sdf|4363|dock2
  -GOLD-   22720 2263D 1   1.00000     0.00000
 Structure written by MMmdl.
 56 58  0  0  0  0  0  0  0  0  2 V2000
  153.2768  142.5444  161.8659 C   0  0  0  0  0  0  0  0  0  0  0  0
  152.6930  142.2550  160.4941 C   0  0  0  0  0  0  0  0  0  0  0  0
  152.9755  141.0168  159.8741 C   0  0  0  0  0  0  0  0  0  0  0  0
  152.4498  140.7081  158.6001 C   0  0  0  0  0  0  0  0  0  0  0  0
  152.5935  139.5748  157.8182 N   0  0  0  0  0  0  0  0  0  0  0  0
  151.8646  139.8906  156.7517 C   0  0  0  0  0  0  0  0  0  0  0  0
  151.2638  141.0962  156.7507 N   0  0  0  0  0  0  0  0  0  0  0  0
  150.4186  141.6567  155.7118 C   0  0  0  0  0  0  0  0  0  0  0  0
  149.0406  140.9724  155.6380 C   0  0  1  0  0  0  0  0  0  0  0  0
  148.0292  141.9597  155.6975 O   0  0  0  0  0  0  0  0  0  0  0  0
  148.8835  140.1688  154.3308 C   0  0  0  0  0  0  0  0  0  0  0  0
  147.7545  139.2369  154.2805 N   0  0  0  0  0  0  0  0  0  0  0  0
  147.2420  139.1228  152.9192 C   0  0  0  0  0  0  0  0  0  0  0  0
  146.0567  138.1483  152.8278 C   0  0  0  0  0  0  0  0  0  0  0  0
  146.4485  136.8778  153.3368 O   0  0  0  0  0  0  0  0  0  0  0  0
  146.8945  136.9343  154.6895 C   0  0  1  0  0  0  0  0  0  0  0  0
  147.2780  135.5100  155.1290 C   0  0  0  0  0  0  0  0  0  0  0  0
  148.4522  134.9791  154.3900 N   0  3  0  0  0  0  0  0  0  0  0  0
  148.3213  133.5510  154.0193 C   0  0  0  0  0  0  0  0  0  0  0  0
  149.7221  135.2397  155.1029 C   0  0  0  0  0  0  0  0  0  0  0  0
  148.0921  137.9028  154.7737 C   0  0  0  0  0  0  0  0  0  0  0  0
  151.6256  141.6791  157.9598 C   0  0  0  0  0  0  0  0  0  0  0  0
  151.3394  142.9155  158.5651 C   0  0  0  0  0  0  0  0  0  0  0  0
  151.8749  143.2087  159.8368 C   0  0  0  0  0  0  0  0  0  0  0  0
  151.5636  144.5482  160.4807 C   0  0  0  0  0  0  0  0  0  0  0  0
  153.8527  141.6978  162.2409 H   0  0  0  0  0  0  0  0  0  0  0  0
  152.4826  142.7509  162.5837 H   0  0  0  0  0  0  0  0  0  0  0  0
  153.9397  143.4086  161.8242 H   0  0  0  0  0  0  0  0  0  0  0  0
  153.5999  140.2908  160.3735 H   0  0  0  0  0  0  0  0  0  0  0  0
  151.7610  139.2068  155.9220 H   0  0  0  0  0  0  0  0  0  0  0  0
  150.3079  142.7276  155.8891 H   0  0  0  0  0  0  0  0  0  0  0  0
  150.9417  141.5527  154.7603 H   0  0  0  0  0  0  0  0  0  0  0  0
  148.9369  140.3200  156.5041 H   0  0  0  0  0  0  0  0  0  0  0  0
  148.3994  142.7869  155.4298 H   0  0  0  0  0  0  0  0  0  0  0  0
  148.7935  140.8805  153.5085 H   0  0  0  0  0  0  0  0  0  0  0  0
  149.8062  139.6175  154.1421 H   0  0  0  0  0  0  0  0  0  0  0  0
  146.9296  140.1031  152.5576 H   0  0  0  0  0  0  0  0  0  0  0  0
  148.0365  138.7838  152.2524 H   0  0  0  0  0  0  0  0  0  0  0  0
  145.1995  138.5256  153.3877 H   0  0  0  0  0  0  0  0  0  0  0  0
  145.7386  138.0348  151.7915 H   0  0  0  0  0  0  0  0  0  0  0  0
  146.0913  137.3197  155.3181 H   0  0  0  0  0  0  0  0  0  0  0  0
  147.5016  135.5316  156.1968 H   0  0  0  0  0  0  0  0  0  0  0  0
  146.4337  134.8297  155.0059 H   0  0  0  0  0  0  0  0  0  0  0  0
  148.2298  132.9228  154.9063 H   0  0  0  0  0  0  0  0  0  0  0  0
  149.1968  133.2202  153.4594 H   0  0  0  0  0  0  0  0  0  0  0  0
  147.4526  133.3777  153.3857 H   0  0  0  0  0  0  0  0  0  0  0  0
  149.7425  134.7258  156.0650 H   0  0  0  0  0  0  0  0  0  0  0  0
  149.8546  136.3074  155.2813 H   0  0  0  0  0  0  0  0  0  0  0  0
  150.5736  134.8979  154.5137 H   0  0  0  0  0  0  0  0  0  0  0  0
  148.9302  137.4993  154.2031 H   0  0  0  0  0  0  0  0  0  0  0  0
  148.4164  137.9554  155.8121 H   0  0  0  0  0  0  0  0  0  0  0  0
  150.7135  143.6314  158.0536 H   0  0  0  0  0  0  0  0  0  0  0  0
  150.9232  145.1573  159.8422 H   0  0  0  0  0  0  0  0  0  0  0  0
  152.4821  145.1062  160.6631 H   0  0  0  0  0  0  0  0  0  0  0  0
  151.0496  144.4055  161.4314 H   0  0  0  0  0  0  0  0  0  0  0  0
  148.5056  135.5027  153.5273 H   0  0  0  0  0  0  0  0  0  0  0  0
  1  2  1  0  0  0  0
  1 26  1  0  0  0  0
  1 27  1  0  0  0  0
  1 28  1  0  0  0  0
  2 24  1  0  0  0  0
  2  3  2  0  0  0  0
  3  4  1  0  0  0  0
  3 29  1  0  0  0  0
  4 22  2  0  0  0  0
  4  5  1  0  0  0  0
  5  6  2  0  0  0  0
  6  7  1  0  0  0  0
  6 30  1  0  0  0  0
  7  8  1  0  0  0  0
  7 22  1  0  0  0  0
  8  9  1  0  0  0  0
  8 31  1  0  0  0  0
  8 32  1  0  0  0  0
  9 10  1  0  0  0  0
  9 11  1  0  0  0  0
  9 33  1  0  0  0  0
 10 34  1  0  0  0  0
 11 12  1  0  0  0  0
 11 35  1  0  0  0  0
 11 36  1  0  0  0  0
 12 21  1  0  0  0  0
 12 13  1  0  0  0  0
 13 14  1  0  0  0  0
 13 37  1  0  0  0  0
 13 38  1  0  0  0  0
 14 15  1  0  0  0  0
 14 39  1  0  0  0  0
 14 40  1  0  0  0  0
 15 16  1  0  0  0  0
 16 17  1  0  0  0  0
 16 21  1  0  0  0  0
 16 41  1  0  0  0  0
 17 18  1  0  0  0  0
 17 42  1  0  0  0  0
 17 43  1  0  0  0  0
 18 19  1  0  0  0  0
 18 20  1  0  0  0  0
 18 56  1  0  0  0  0
 19 44  1  0  0  0  0
 19 45  1  0  0  0  0
 19 46  1  0  0  0  0
 20 47  1  0  0  0  0
 20 48  1  0  0  0  0
 20 49  1  0  0  0  0
 21 50  1  0  0  0  0
 21 51  1  0  0  0  0
 22 23  1  0  0  0  0
 23 24  2  0  0  0  0
 23 52  1  0  0  0  0
 24 25  1  0  0  0  0
 25 53  1  0  0  0  0
 25 54  1  0  0  0  0
 25 55  1  0  0  0  0
M  CHG  1  18   1
M  END
> <s_m_source_file>
AV-unprocessed.smi

> <i_m_source_file_index>
1005

> <i_lp_mmshare_version>
43012

> <i_f3d_flags>
0

> <s_epik_input>
W0NIM11jKFtjSF0xKWMoW0NIM10pW2NIXWMoYzEyKW4oW2NIXW4yKVtDSDJdW0NASF0oW09IXSlbQ0gyXU4zW0NIMl1bQ0gyXU9bQ0BIXShbQ0gyXTMpW0NIMl1OKFtDSDNdKVtDSDNd

> <s_epik_cmdline>
J2VwaWtfcHl0aG9uJywgJy1waCcsICc3LjAnLCAnLXRuJywgJzgnLCAnLW1hJywgJzIwMCcsICctbWV0YWxfYmluZGluZycsICctaW1hZScsICc8aW5maWxlLm1hZT4nLCAnLW9tYWUnLCAnPG91dGZpbGUubWFlPic=

> <r_epik_Ionization_Penalty>
0.226781

> <r_epik_Ionization_Penalty_Charging>
0.00915946

> <r_epik_Ionization_Penalty_Neutral>
0.217622

> <r_epik_State_Penalty>
0.173018

> <r_epik_Charging_Adjusted_Penalty>
0.182178

> <i_epik_Tot_Q>
1

> <i_epik_Tot_abs_Q>
1

> <r_epik_Metal_State_Penalty>
0.0905268

> <b_epik_Metal_Only>
0

> <s_lp_Force_Field>
OPLS_2005

> <r_lp_Energy>
37.2431

> <b_lp_Chiralities_Consistent>
1

> <s_lp_Variant>
AV-unprocessed.smi:1005-2

> <Gold.Version>
5.8.1

> <Gold.Id.Protein>
6NUR|6NUR_protein|mol2

> <Gold.PLP.Fitness>
53.4579

> <Gold.PLP.PLP>
-45.0311

> <Gold.PLP.part.hbond>
-3.0000

> <Gold.PLP.part.metal>
0.0000

> <Gold.PLP.part.buried>
-5.2681

> <Gold.PLP.part.nonpolar>
-37.5178

> <Gold.PLP.part.repulsive>
1.5362

> <Gold.PLP.ligand.clash>
0.0000

> <Gold.PLP.ligand.torsion>
1.8416

> <Gold.PLP.Chemscore.Hbond>
4.0000

> <Gold.PLP.Chemscore.CHOScore>
0.0000

> <Gold.PLP.Chemscore.Metal>
0.0000

> <Gold.Chemscore.Hbonds>
donor molecule, donor type, donor heavy atom, donor atom, acceptor molecule, acceptor atom, score
      L1  H    10    34       P1  8028  1.00
      L1  H    18    56       P1  7948  2.00
      P1  H  7997  8009       L1     5  0.47

> <Gold.PLP.Chemscore.Internal.Correction>
0.1101

> <Gold.Rescore>
     Score         DG    S(hbond)    S(metal)    S(lipo)     H(rot)  DE(clash)    DE(int)     intcor
     19.73     -22.38       2.39        0.00     128.94       2.41       0.71       1.94       ----

> <Gold.Chemscore.Fitness>
19.7308

> <Gold.Chemscore.DG>
-22.3849

> <Gold.Chemscore.ZeroCoef>
-5.4800

> <Gold.Chemscore.Hbond>
2.3944

> <Gold.Chemscore.Metal>
0.0000

> <Gold.Chemscore.Lipo>
128.9430

> <Gold.Chemscore.Internal_Hbond>
0.0000

> <Gold.Chemscore.DEClash>
0.7108

> <Gold.Chemscore.DEInternal>
1.9433

> <Gold.Chemscore.Rot>
2.4136

> <Gold.Chemscore.Internal.Correction>
   9.000000E+99

> <Gold.Chemscore.Hbonds>
donor molecule, donor type, donor heavy atom, donor atom, acceptor molecule, acceptor atom, score
      L1  H    10    34       P1  8028  0.95
      L1  H    18    56       P1  7948  0.99
      P1  H  7997  8009       L1     5  0.01

> <Gold.Chemscore.Hbond.Weighted>
-7.9973

> <Gold.Chemscore.Metal.Weighted>
-0.0000

> <Gold.Chemscore.Lipo.Weighted>
-15.0863

> <Gold.Chemscore.Internal_Hbond.Weighted>
0.0000

> <Gold.Chemscore.DEClash.Weighted>
0.7108

> <Gold.Chemscore.DEInternal.Weighted>
1.9433

> <Gold.Chemscore.Rot.Weighted>
6.1788

> <Gold.Chemscore.Internal.Correction.Weighted>
   9.000000E+99

> <Gold.Protein.RotatedTorsions>
[ 6907 6896 6895 6894 ] final -167.96 input  -60.11 | X-H torsion
[ 7974 7965 7964 7962 ] final -128.94 input  175.53 | X-H torsion
[ 8008 7997 7996 7995 ] final  160.46 input   59.86 | X-H torsion
[ 10167 10162 10161 10158 ] final   95.05 input  -65.29 | X-H torsion
[ 10718 10713 10712 10709 ] final -150.13 input   66.30 | X-H torsion
[ 10763 10752 10751 10750 ] final -155.26 input  -60.55 | X-H torsion
[ 11005 11000 10999 10996 ] final   58.51 input  -57.11 | X-H torsion

> <Gold.Protein.ActiveResidues>
 VAL166  LYS551  ARG553  GLY616  TRP617  ASP618  TYR619  PRO620  LYS621  CYS622 
 ASP623  PHE694  ASN695  SER759  ASP760  ASP761  ALA762  ILE779  LEU786  VAL792 
 PHE793  MET794  SER795  GLU796  ALA797  LYS798  CYS799  TRP800  GLU811  SER814 

> <Gold.Protein.RotatedAtoms>
  151.4679  133.3576  159.2818 H   0  0  0  0  0  0  0  0  0  0  0  0  # atno 6907 bound_to 6896
  150.8980  134.8392  159.7351 H   0  0  0  0  0  0  0  0  0  0  0  0  # atno 6908 bound_to 6896
  152.4863  134.4597  159.9653 H   0  0  0  0  0  0  0  0  0  0  0  0  # atno 6909 bound_to 6896
  144.9621  140.7457  143.4723 H   0  0  0  0  0  0  0  0  0  0  0  0  # atno 7974 bound_to 7965
  156.2171  140.1803  156.7564 H   0  0  0  0  0  0  0  0  0  0  0  0  # atno 8008 bound_to 7997
  154.5807  140.0666  156.9129 H   0  0  0  0  0  0  0  0  0  0  0  0  # atno 8009 bound_to 7997
  155.2507  140.3328  155.4285 H   0  0  0  0  0  0  0  0  0  0  0  0  # atno 8010 bound_to 7997
  139.8025  144.6807  150.9746 H   0  0  0  0  0  0  0  0  0  0  0  0  # atno 10167 bound_to 10162
  156.4421  130.8127  151.2356 H   0  0  0  0  0  0  0  0  0  0  0  0  # atno 10718 bound_to 10713
  154.7800  135.3172  154.8010 H   0  0  0  0  0  0  0  0  0  0  0  0  # atno 10763 bound_to 10752
  153.8724  135.6843  153.4777 H   0  0  0  0  0  0  0  0  0  0  0  0  # atno 10764 bound_to 10752
  153.1434  135.4729  154.9467 H   0  0  0  0  0  0  0  0  0  0  0  0  # atno 10765 bound_to 10752
  140.0372  134.5925  155.9428 H   0  0  0  0  0  0  0  0  0  0  0  0  # atno 11005 bound_to 11000
  145.2685  139.1964  143.4854 LP  0  0  0  0  0  0  0  0  0  0  0  0  # atno 17320 bound_to 7965
  146.3356  140.2627  142.8602 LP  0  0  0  0  0  0  0  0  0  0  0  0  # atno 17321 bound_to 7965
  140.7820  143.4267  151.0758 LP  0  0  0  0  0  0  0  0  0  0  0  0  # atno 17342 bound_to 10162
  139.7938  143.8181  152.3155 LP  0  0  0  0  0  0  0  0  0  0  0  0  # atno 17343 bound_to 10162
  157.7506  131.0165  150.3546 LP  0  0  0  0  0  0  0  0  0  0  0  0  # atno 17370 bound_to 10713
  156.3906  130.3897  149.7032 LP  0  0  0  0  0  0  0  0  0  0  0  0  # atno 17371 bound_to 10713
  141.1864  133.6557  156.5237 LP  0  0  0  0  0  0  0  0  0  0  0  0  # atno 17394 bound_to 11000
  140.4128  134.7257  157.4845 LP  0  0  0  0  0  0  0  0  0  0  0  0  # atno 17395 bound_to 11000

$$$$
