AV-unprocessed.smi:837|AV-procd|sdf|3905|dock7
  -GOLD-   22720 1363D 1   1.00000     0.00000
 Structure written by MMmdl.
 49 51  0  0  0  0  0  0  0  0  3 V2000
  147.9889  139.1397  153.6520 C   0  0  0  0  0  0  0  0  0  0  0  0
  148.7076  140.1086  154.6166 C   0  0  1  0  0  0  0  0  0  0  0  0
  147.6964  140.6863  155.6318 C   0  0  0  0  0  0  0  0  0  0  0  0
  148.3458  141.7178  156.5653 C   0  0  0  0  0  0  0  0  0  0  0  0
  149.5479  141.1180  157.3047 C   0  0  0  0  0  0  0  0  0  0  0  0
  150.5749  140.5444  156.3136 C   0  0  0  0  0  0  0  0  0  0  0  0
  149.9719  139.5127  155.3222 C   0  0  2  0  0  0  0  0  0  0  0  0
  150.9859  139.1735  154.3382 N   0  5  0  0  0  0  0  0  0  0  0  0
  151.2769  137.8565  154.4378 C   0  0  0  0  0  0  0  0  0  0  0  0
  152.1052  137.2359  153.7713 O   0  0  0  0  0  0  0  0  0  0  0  0
  150.5423  137.2692  155.4012 N   0  0  0  0  0  0  0  0  0  0  0  0
  150.6570  135.8607  155.7979 C   0  0  0  0  0  0  0  0  0  0  0  0
  149.3249  135.1323  155.6021 C   0  0  0  0  0  0  0  0  0  0  0  0
  148.7114  134.6872  156.5717 O   0  0  0  0  0  0  0  0  0  0  0  0
  148.9026  135.0065  154.3356 N   0  0  0  0  0  0  0  0  0  0  0  0
  147.7196  134.2690  153.9028 C   0  0  0  0  0  0  0  0  0  0  0  0
  148.0390  133.1023  152.9407 C   0  0  0  0  0  0  0  0  0  0  0  0
  146.9095  132.7456  151.9847 C   0  0  0  0  0  0  0  0  0  0  0  0
  146.1405  131.5774  152.1879 C   0  0  0  0  0  0  0  0  0  0  0  0
  145.1080  131.2605  151.2816 C   0  0  0  0  0  0  0  0  0  0  0  0
  144.8745  132.1110  150.1828 C   0  0  0  0  0  0  0  0  0  0  0  0
  145.6288  133.2194  150.0192 N   0  3  0  0  0  0  0  0  0  0  0  0
  146.6192  133.5644  150.8713 C   0  0  0  0  0  0  0  0  0  0  0  0
  149.7383  138.1596  155.9923 C   0  0  0  0  0  0  0  0  0  0  0  0
  148.9515  137.9516  156.9166 O   0  0  0  0  0  0  0  0  0  0  0  0
  147.5644  138.2834  154.1766 H   0  0  0  0  0  0  0  0  0  0  0  0
  148.6641  138.7602  152.8849 H   0  0  0  0  0  0  0  0  0  0  0  0
  147.1705  139.6425  153.1367 H   0  0  0  0  0  0  0  0  0  0  0  0
  149.0496  140.9473  154.0075 H   0  0  0  0  0  0  0  0  0  0  0  0
  146.8701  141.1590  155.1000 H   0  0  0  0  0  0  0  0  0  0  0  0
  147.2535  139.8848  156.2233 H   0  0  0  0  0  0  0  0  0  0  0  0
  148.6680  142.5836  155.9856 H   0  0  0  0  0  0  0  0  0  0  0  0
  147.6118  142.0822  157.2846 H   0  0  0  0  0  0  0  0  0  0  0  0
  150.0203  141.8833  157.9208 H   0  0  0  0  0  0  0  0  0  0  0  0
  149.2098  140.3430  157.9924 H   0  0  0  0  0  0  0  0  0  0  0  0
  151.0149  141.3718  155.7541 H   0  0  0  0  0  0  0  0  0  0  0  0
  151.3955  140.0973  156.8768 H   0  0  0  0  0  0  0  0  0  0  0  0
  151.4252  135.3570  155.2088 H   0  0  0  0  0  0  0  0  0  0  0  0
  150.9835  135.7838  156.8366 H   0  0  0  0  0  0  0  0  0  0  0  0
  149.4770  135.4110  153.6100 H   0  0  0  0  0  0  0  0  0  0  0  0
  147.1578  133.9121  154.7669 H   0  0  0  0  0  0  0  0  0  0  0  0
  147.0751  134.9853  153.3929 H   0  0  0  0  0  0  0  0  0  0  0  0
  148.9252  133.3547  152.3573 H   0  0  0  0  0  0  0  0  0  0  0  0
  148.3051  132.2149  153.5156 H   0  0  0  0  0  0  0  0  0  0  0  0
  146.3422  130.9223  153.0229 H   0  0  0  0  0  0  0  0  0  0  0  0
  144.5177  130.3658  151.4144 H   0  0  0  0  0  0  0  0  0  0  0  0
  144.1191  131.9341  149.4312 H   0  0  0  0  0  0  0  0  0  0  0  0
  147.1546  134.4706  150.6293 H   0  0  0  0  0  0  0  0  0  0  0  0
  145.4466  133.8174  149.2132 H   0  0  0  0  0  0  0  0  0  0  0  0
  1  2  1  0  0  0  0
  1 26  1  0  0  0  0
  1 27  1  0  0  0  0
  1 28  1  0  0  0  0
  2  7  1  0  0  0  0
  2  3  1  0  0  0  0
  2 29  1  0  0  0  0
  3  4  1  0  0  0  0
  3 30  1  0  0  0  0
  3 31  1  0  0  0  0
  4  5  1  0  0  0  0
  4 32  1  0  0  0  0
  4 33  1  0  0  0  0
  5  6  1  0  0  0  0
  5 34  1  0  0  0  0
  5 35  1  0  0  0  0
  6  7  1  0  0  0  0
  6 36  1  0  0  0  0
  6 37  1  0  0  0  0
  7 24  1  0  0  0  0
  7  8  1  0  0  0  0
  8  9  1  0  0  0  0
  9 10  2  0  0  0  0
  9 11  1  0  0  0  0
 11 12  1  0  0  0  0
 11 24  1  0  0  0  0
 12 13  1  0  0  0  0
 12 38  1  0  0  0  0
 12 39  1  0  0  0  0
 13 14  2  0  0  0  0
 13 15  1  0  0  0  0
 15 16  1  0  0  0  0
 15 40  1  0  0  0  0
 16 17  1  0  0  0  0
 16 41  1  0  0  0  0
 16 42  1  0  0  0  0
 17 18  1  0  0  0  0
 17 43  1  0  0  0  0
 17 44  1  0  0  0  0
 18 23  1  0  0  0  0
 18 19  2  0  0  0  0
 19 20  1  0  0  0  0
 19 45  1  0  0  0  0
 20 21  2  0  0  0  0
 20 46  1  0  0  0  0
 21 22  1  0  0  0  0
 21 47  1  0  0  0  0
 22 23  2  0  0  0  0
 22 49  1  0  0  0  0
 23 48  1  0  0  0  0
 24 25  2  0  0  0  0
M  CHG  1   8  -1
M  CHG  1  22   1
M  END
> <s_m_source_file>
AV-unprocessed.smi

> <i_m_source_file_index>
837

> <i_lp_mmshare_version>
43012

> <i_f3d_flags>
0

> <s_epik_input>
W0NIMl0xW0NIMl1bQ0gyXVtDSDJdW0NAQEhdKFtDSDNdKVtDQEBdMTJbTkhdQyg9TylOKEMyPU8pW0NIMl1DKD1PKVtOSF1bQ0gyXVtDSDJdYzNbY0hdW2NIXVtjSF1uW2NIXTM=

> <s_epik_cmdline>
J2VwaWtfcHl0aG9uJywgJy1waCcsICc3LjAnLCAnLXRuJywgJzgnLCAnLW1hJywgJzIwMCcsICctbWV0YWxfYmluZGluZycsICctaW1hZScsICc8aW5maWxlLm1hZT4nLCAnLW9tYWUnLCAnPG91dGZpbGUubWFlPic=

> <r_lp_tautomer_probability>
1

> <r_epik_Ionization_Penalty>
8.27169

> <r_epik_Ionization_Penalty_Charging>
8.27169

> <r_epik_Ionization_Penalty_Neutral>
1.56557e-07

> <r_epik_State_Penalty>
8.42098

> <r_epik_Charging_Adjusted_Penalty>
16.6927

> <i_epik_Tot_Q>
0

> <i_epik_Tot_abs_Q>
2

> <r_epik_Metal_State_Penalty>
4.38565

> <b_epik_Metal_Only>
1

> <s_lp_Force_Field>
OPLS_2005

> <r_lp_Energy>
12.2851

> <b_lp_Chiralities_Consistent>
1

> <s_lp_Variant>
AV-unprocessed.smi:837-14

> <Gold.Version>
5.8.1

> <Gold.Id.Protein>
6NUR|6NUR_protein|mol2

> <Gold.PLP.Fitness>
44.4056

> <Gold.PLP.PLP>
-34.3281

> <Gold.PLP.part.hbond>
-4.0000

> <Gold.PLP.part.metal>
0.0000

> <Gold.PLP.part.buried>
-4.3531

> <Gold.PLP.part.nonpolar>
-28.7139

> <Gold.PLP.part.repulsive>
2.5626

> <Gold.PLP.ligand.clash>
0.0000

> <Gold.PLP.ligand.torsion>
0.3747

> <Gold.PLP.Chemscore.Hbond>
3.6000

> <Gold.PLP.Chemscore.CHOScore>
0.0000

> <Gold.PLP.Chemscore.Metal>
0.0000

> <Gold.Chemscore.Hbonds>
donor molecule, donor type, donor heavy atom, donor atom, acceptor molecule, acceptor atom, score
      L1  H    15    40       P1  7948  0.56
      L1  H    22    49       P1  7921  0.98
      P1  H  7989  7998       L1     8  1.00
      P1  H 10752 10765       L1    10  1.00

> <Gold.PLP.Chemscore.Internal.Correction>
0.0270

> <Gold.Rescore>
     Score         DG    S(hbond)    S(metal)    S(lipo)     H(rot)  DE(clash)    DE(int)     intcor
     18.60     -19.95       2.95        0.00      81.36       1.92       0.94       0.41       ----

> <Gold.Chemscore.Fitness>
18.5972

> <Gold.Chemscore.DG>
-19.9524

> <Gold.Chemscore.ZeroCoef>
-5.4800

> <Gold.Chemscore.Hbond>
2.9528

> <Gold.Chemscore.Metal>
0.0000

> <Gold.Chemscore.Lipo>
81.3583

> <Gold.Chemscore.Internal_Hbond>
0.0000

> <Gold.Chemscore.DEClash>
0.9441

> <Gold.Chemscore.DEInternal>
0.4111

> <Gold.Chemscore.Rot>
1.9175

> <Gold.Chemscore.Internal.Correction>
   9.000000E+99

> <Gold.Chemscore.Hbonds>
donor molecule, donor type, donor heavy atom, donor atom, acceptor molecule, acceptor atom, score
      L1  H    15    40       P1  7948  0.11
      L1  H    22    49       P1  7921  0.59
      P1  H  7989  7998       L1     8  0.68
      P1  H 10752 10765       L1    10  0.95

> <Gold.Chemscore.Hbond.Weighted>
-9.8622

> <Gold.Chemscore.Metal.Weighted>
-0.0000

> <Gold.Chemscore.Lipo.Weighted>
-9.5189

> <Gold.Chemscore.Internal_Hbond.Weighted>
0.0000

> <Gold.Chemscore.DEClash.Weighted>
0.9441

> <Gold.Chemscore.DEInternal.Weighted>
0.4111

> <Gold.Chemscore.Rot.Weighted>
4.9087

> <Gold.Chemscore.Internal.Correction.Weighted>
   9.000000E+99

> <Gold.Protein.RotatedTorsions>
[ 6907 6896 6895 6894 ] final  149.91 input  -60.11 | X-H torsion
[ 7974 7965 7964 7962 ] final  -86.69 input  175.53 | X-H torsion
[ 8008 7997 7996 7995 ] final  -64.99 input   59.86 | X-H torsion
[ 10167 10162 10161 10158 ] final -158.22 input  -65.29 | X-H torsion
[ 10718 10713 10712 10709 ] final -126.26 input   66.30 | X-H torsion
[ 10763 10752 10751 10750 ] final  138.31 input  -60.55 | X-H torsion
[ 11005 11000 10999 10996 ] final -134.12 input  -57.11 | X-H torsion

> <Gold.Protein.ActiveResidues>
 VAL166  LYS551  ARG553  GLY616  TRP617  ASP618  TYR619  PRO620  LYS621  CYS622 
 ASP623  PHE694  ASN695  SER759  ASP760  ASP761  ALA762  ILE779  LEU786  VAL792 
 PHE793  MET794  SER795  GLU796  ALA797  LYS798  CYS799  TRP800  GLU811  SER814 

> <Gold.Protein.RotatedAtoms>
  152.1216  133.4357  159.4678 H   0  0  0  0  0  0  0  0  0  0  0  0  # atno 6907 bound_to 6896
  150.6872  134.2528  159.4526 H   0  0  0  0  0  0  0  0  0  0  0  0  # atno 6908 bound_to 6896
  152.0405  134.9714  160.0624 H   0  0  0  0  0  0  0  0  0  0  0  0  # atno 6909 bound_to 6896
  145.4765  140.9558  143.1888 H   0  0  0  0  0  0  0  0  0  0  0  0  # atno 7974 bound_to 7965
  154.4644  140.0942  156.6981 H   0  0  0  0  0  0  0  0  0  0  0  0  # atno 8008 bound_to 7997
  155.4900  140.3470  155.4335 H   0  0  0  0  0  0  0  0  0  0  0  0  # atno 8009 bound_to 7997
  156.0930  140.1402  156.9556 H   0  0  0  0  0  0  0  0  0  0  0  0  # atno 8010 bound_to 7997
  139.6709  143.9747  152.2283 H   0  0  0  0  0  0  0  0  0  0  0  0  # atno 10167 bound_to 10162
  156.1749  130.6693  151.0229 H   0  0  0  0  0  0  0  0  0  0  0  0  # atno 10718 bound_to 10713
  153.8875  135.3037  155.3447 H   0  0  0  0  0  0  0  0  0  0  0  0  # atno 10763 bound_to 10752
  154.7732  135.4875  153.9694 H   0  0  0  0  0  0  0  0  0  0  0  0  # atno 10764 bound_to 10752
  153.1316  135.6805  153.9267 H   0  0  0  0  0  0  0  0  0  0  0  0  # atno 10765 bound_to 10752
  140.9018  134.1680  157.4454 H   0  0  0  0  0  0  0  0  0  0  0  0  # atno 11005 bound_to 11000
  144.7914  139.6321  143.7112 LP  0  0  0  0  0  0  0  0  0  0  0  0  # atno 17320 bound_to 7965
  146.2366  139.5917  142.9520 LP  0  0  0  0  0  0  0  0  0  0  0  0  # atno 17321 bound_to 7965
  139.9511  144.6620  150.8171 LP  0  0  0  0  0  0  0  0  0  0  0  0  # atno 17342 bound_to 10162
  140.7617  143.3182  151.2684 LP  0  0  0  0  0  0  0  0  0  0  0  0  # atno 17343 bound_to 10162
  157.6829  131.0833  150.7322 LP  0  0  0  0  0  0  0  0  0  0  0  0  # atno 17370 bound_to 10713
  156.7380  130.4730  149.5484 LP  0  0  0  0  0  0  0  0  0  0  0  0  # atno 17371 bound_to 10713
  139.8743  134.9901  156.5488 LP  0  0  0  0  0  0  0  0  0  0  0  0  # atno 17394 bound_to 11000
  140.8220  133.8346  155.8904 LP  0  0  0  0  0  0  0  0  0  0  0  0  # atno 17395 bound_to 11000

$$$$
