AV-unprocessed.smi:1|AV-procd|sdf|21|dock1
  -GOLD-   2262015123D 1   1.00000     0.00000
 Structure written by MMmdl.
 56 61  0  0  0  0  0  0  0  0  2 V2000
  150.1032  140.8608  158.0961 O   0  0  0  0  0  0  0  0  0  0  0  0
  151.2971  141.1669  158.1319 C   0  0  0  0  0  0  0  0  0  0  0  0
  152.3452  140.4958  157.5904 N   0  5  0  0  0  0  0  0  0  0  0  0
  152.1214  139.3977  156.8522 C   0  0  0  0  0  0  0  0  0  0  0  0
  152.6960  139.2635  155.6298 N   0  0  0  0  0  0  0  0  0  0  0  0
  152.4658  138.1720  154.8911 C   0  0  0  0  0  0  0  0  0  0  0  0
  151.7074  137.1095  155.1766 N   0  0  0  0  0  0  0  0  0  0  0  0
  151.1334  137.2244  156.4096 C   0  0  0  0  0  0  0  0  0  0  0  0
  151.2987  138.3269  157.2983 C   0  0  0  0  0  0  0  0  0  0  0  0
  150.5839  138.1266  158.4695 N   0  0  0  0  0  0  0  0  0  0  0  0
  150.0242  136.9408  158.2429 C   0  0  0  0  0  0  0  0  0  0  0  0
  150.2818  136.3452  157.0613 N   0  0  0  0  0  0  0  0  0  0  0  0
  149.7662  135.0232  156.5912 C   0  0  2  0  0  0  0  0  0  0  0  0
  150.2538  134.0145  157.4259 O   0  0  0  0  0  0  0  0  0  0  0  0
  151.0972  133.1244  156.6995 C   0  0  1  0  0  0  0  0  0  0  0  0
  151.0329  131.7078  157.2807 C   0  0  0  0  0  0  0  0  0  0  0  0
  151.9330  130.8784  156.5650 O   0  0  0  0  0  0  0  0  0  0  0  0
  153.2615  131.0455  156.7021 C   0  0  0  0  0  0  0  0  0  0  0  0
  153.7716  131.9971  157.2971 O   0  0  0  0  0  0  0  0  0  0  0  0
  154.0513  129.9557  156.0595 C   0  0  0  0  0  0  0  0  0  0  0  0
  153.3751  128.9371  155.3477 C   0  0  0  0  0  0  0  0  0  0  0  0
  154.0940  127.8947  154.7308 C   0  0  0  0  0  0  0  0  0  0  0  0
  155.4980  127.8587  154.8169 C   0  0  0  0  0  0  0  0  0  0  0  0
  156.1825  128.8657  155.5221 C   0  0  0  0  0  0  0  0  0  0  0  0
  155.4653  129.9085  156.1406 C   0  0  0  0  0  0  0  0  0  0  0  0
  150.6094  133.2428  155.2571 C   0  0  1  0  0  0  0  0  0  0  0  0
  149.4486  132.4582  155.0362 O   0  0  0  0  0  0  0  0  0  0  0  0
  148.3650  133.3626  154.1423 S   0  0  0  0  0  0  0  0  0  0  0  0
  148.4275  132.9100  152.7444 O   0  0  0  0  0  0  0  0  0  0  0  0
  147.1037  133.4448  154.8944 O   0  0  0  0  0  0  0  0  0  0  0  0
  149.1368  134.8412  154.2466 O   0  0  0  0  0  0  0  0  0  0  0  0
  150.2173  134.7190  155.1546 C   0  0  1  0  0  0  0  0  0  0  0  0
  151.6944  142.4604  158.7908 C   0  0  0  0  0  0  0  0  0  0  0  0
  151.6222  143.6689  158.0613 C   0  0  0  0  0  0  0  0  0  0  0  0
  151.9619  144.8936  158.6685 C   0  0  0  0  0  0  0  0  0  0  0  0
  152.3682  144.9239  160.0156 C   0  0  0  0  0  0  0  0  0  0  0  0
  152.4310  143.7288  160.7562 C   0  0  0  0  0  0  0  0  0  0  0  0
  152.0920  142.5036  160.1494 C   0  0  0  0  0  0  0  0  0  0  0  0
  152.9581  138.1479  153.9302 H   0  0  0  0  0  0  0  0  0  0  0  0
  149.3825  136.4802  158.9797 H   0  0  0  0  0  0  0  0  0  0  0  0
  148.6828  135.0889  156.7011 H   0  0  0  0  0  0  0  0  0  0  0  0
  152.1228  133.4898  156.7455 H   0  0  0  0  0  0  0  0  0  0  0  0
  151.2749  131.7154  158.3444 H   0  0  0  0  0  0  0  0  0  0  0  0
  150.0234  131.3087  157.1731 H   0  0  0  0  0  0  0  0  0  0  0  0
  152.2975  128.9447  155.2671 H   0  0  0  0  0  0  0  0  0  0  0  0
  153.5665  127.1225  154.1902 H   0  0  0  0  0  0  0  0  0  0  0  0
  156.0492  127.0599  154.3429 H   0  0  0  0  0  0  0  0  0  0  0  0
  157.2602  128.8393  155.5897 H   0  0  0  0  0  0  0  0  0  0  0  0
  156.0222  130.6651  156.6742 H   0  0  0  0  0  0  0  0  0  0  0  0
  151.3744  132.9622  154.5324 H   0  0  0  0  0  0  0  0  0  0  0  0
  151.0666  135.3388  154.8656 H   0  0  0  0  0  0  0  0  0  0  0  0
  151.3089  143.6627  157.0272 H   0  0  0  0  0  0  0  0  0  0  0  0
  151.9086  145.8102  158.0999 H   0  0  0  0  0  0  0  0  0  0  0  0
  152.6271  145.8631  160.4817 H   0  0  0  0  0  0  0  0  0  0  0  0
  152.7357  143.7510  161.7920 H   0  0  0  0  0  0  0  0  0  0  0  0
  152.1358  141.5990  160.7387 H   0  0  0  0  0  0  0  0  0  0  0  0
  1  2  2  0  0  0  0
  2  3  1  0  0  0  0
  2 33  1  0  0  0  0
  3  4  1  0  0  0  0
  4  9  1  0  0  0  0
  4  5  2  0  0  0  0
  5  6  1  0  0  0  0
  6  7  2  0  0  0  0
  6 39  1  0  0  0  0
  7  8  1  0  0  0  0
  8 12  1  0  0  0  0
  8  9  2  0  0  0  0
  9 10  1  0  0  0  0
 10 11  2  0  0  0  0
 11 12  1  0  0  0  0
 11 40  1  0  0  0  0
 12 13  1  0  0  0  0
 13 32  1  0  0  0  0
 13 14  1  0  0  0  0
 13 41  1  0  0  0  0
 14 15  1  0  0  0  0
 15 16  1  0  0  0  0
 15 26  1  0  0  0  0
 15 42  1  0  0  0  0
 16 17  1  0  0  0  0
 16 43  1  0  0  0  0
 16 44  1  0  0  0  0
 17 18  1  0  0  0  0
 18 19  2  0  0  0  0
 18 20  1  0  0  0  0
 20 25  1  0  0  0  0
 20 21  2  0  0  0  0
 21 22  1  0  0  0  0
 21 45  1  0  0  0  0
 22 23  2  0  0  0  0
 22 46  1  0  0  0  0
 23 24  1  0  0  0  0
 23 47  1  0  0  0  0
 24 25  2  0  0  0  0
 24 48  1  0  0  0  0
 25 49  1  0  0  0  0
 26 32  1  0  0  0  0
 26 27  1  0  0  0  0
 26 50  1  0  0  0  0
 27 28  1  0  0  0  0
 28 29  2  0  0  0  0
 28 30  2  0  0  0  0
 28 31  1  0  0  0  0
 31 32  1  0  0  0  0
 32 51  1  0  0  0  0
 33 38  1  0  0  0  0
 33 34  2  0  0  0  0
 34 35  1  0  0  0  0
 34 52  1  0  0  0  0
 35 36  2  0  0  0  0
 35 53  1  0  0  0  0
 36 37  1  0  0  0  0
 36 54  1  0  0  0  0
 37 38  2  0  0  0  0
 37 55  1  0  0  0  0
 38 56  1  0  0  0  0
M  CHG  1   3  -1
M  END
> <s_m_source_file>
AV-unprocessed.smi

> <i_m_source_file_index>
1

> <i_lp_mmshare_version>
43012

> <i_f3d_flags>
0

> <s_epik_input>
W2NIXTFbY0hdW2NIXVtjSF1bY0hdYzFDKD1PKVtOSF1jKG5bY0hdbjIpYyhjMjMpbltjSF1uM1tDQEBIXShbQ0BIXShbQ0BIXTQ1KU9TKE81KSg9Tyk9TylPW0NASF00W0NIMl1PQyg9TyljNltjSF1bY0hdW2NIXVtjSF1bY0hdNg==

> <s_epik_cmdline>
J2VwaWtfcHl0aG9uJywgJy1waCcsICc3LjAnLCAnLXRuJywgJzgnLCAnLW1hJywgJzIwMCcsICctbWV0YWxfYmluZGluZycsICctaW1hZScsICc8aW5maWxlLm1hZT4nLCAnLW9tYWUnLCAnPG91dGZpbGUubWFlPic=

> <r_lp_tautomer_probability>
1

> <r_epik_Ionization_Penalty>
4.39121

> <r_epik_Ionization_Penalty_Charging>
3.39398

> <r_epik_Ionization_Penalty_Neutral>
0.997232

> <r_epik_State_Penalty>
3.39839

> <r_epik_Charging_Adjusted_Penalty>
6.79237

> <i_epik_Tot_Q>
-1

> <i_epik_Tot_abs_Q>
1

> <r_epik_Metal_State_Penalty>
0.497663

> <b_epik_Metal_Only>
1

> <s_epik_Chemistry_Notes>
This compound has an ester and may undergo hydrolysis at high or low pH. This compound contains an acetal/aminal-like group ( X-CH(R)-Y where X, Y are N, S, or O) that may be acid/base labile, releasing an aldehyde.

> <s_lp_Force_Field>
OPLS_2005

> <r_lp_Energy>
42.9256

> <b_lp_Chiralities_Consistent>
1

> <s_lp_Variant>
AV-unprocessed.smi:1-21

> <Gold.Version>
5.8.1

> <Gold.Id.Protein>
6NUR|6NUR_protein|mol2

> <Gold.PLP.Fitness>
53.3611

> <Gold.PLP.PLP>
-49.4976

> <Gold.PLP.part.hbond>
-3.7049

> <Gold.PLP.part.metal>
0.0000

> <Gold.PLP.part.buried>
-10.0404

> <Gold.PLP.part.nonpolar>
-38.4610

> <Gold.PLP.part.repulsive>
2.1549

> <Gold.PLP.ligand.clash>
0.0000

> <Gold.PLP.ligand.torsion>
2.0878

> <Gold.PLP.Chemscore.Hbond>
2.6000

> <Gold.PLP.Chemscore.CHOScore>
0.0000

> <Gold.PLP.Chemscore.Metal>
0.0000

> <Gold.Chemscore.Hbonds>
donor molecule, donor type, donor heavy atom, donor atom, acceptor molecule, acceptor atom, score
      P1  H  6896  6908       L1    14  0.83
      P1  H  7997  8010       L1     5  0.85
      P1  H 10752 10765       L1     7  0.94

> <Gold.PLP.Chemscore.Internal.Correction>
0.2391

> <Gold.Rescore>
     Score         DG    S(hbond)    S(metal)    S(lipo)     H(rot)  DE(clash)    DE(int)     intcor
     12.21     -16.81       0.92        0.00     116.89       2.11       0.06       4.54       ----

> <Gold.Chemscore.Fitness>
12.2149

> <Gold.Chemscore.DG>
-16.8130

> <Gold.Chemscore.ZeroCoef>
-5.4800

> <Gold.Chemscore.Hbond>
0.9184

> <Gold.Chemscore.Metal>
0.0000

> <Gold.Chemscore.Lipo>
116.8918

> <Gold.Chemscore.Internal_Hbond>
0.0000

> <Gold.Chemscore.DEClash>
0.0611

> <Gold.Chemscore.DEInternal>
4.5369

> <Gold.Chemscore.Rot>
2.1136

> <Gold.Chemscore.Internal.Correction>
   9.000000E+99

> <Gold.Chemscore.Hbonds>
donor molecule, donor type, donor heavy atom, donor atom, acceptor molecule, acceptor atom, score
      P1  H  6896  6908       L1    14  0.33
      P1  H  7997  8010       L1     5  0.14
      P1  H 10752 10765       L1     7  0.19

> <Gold.Chemscore.Hbond.Weighted>
-3.0674

> <Gold.Chemscore.Metal.Weighted>
-0.0000

> <Gold.Chemscore.Lipo.Weighted>
-13.6763

> <Gold.Chemscore.Internal_Hbond.Weighted>
0.0000

> <Gold.Chemscore.DEClash.Weighted>
0.0611

> <Gold.Chemscore.DEInternal.Weighted>
4.5369

> <Gold.Chemscore.Rot.Weighted>
5.4107

> <Gold.Chemscore.Internal.Correction.Weighted>
   9.000000E+99

> <Gold.Protein.RotatedTorsions>
[ 6907 6896 6895 6894 ] final  116.40 input  -60.11 | X-H torsion
[ 7974 7965 7964 7962 ] final  -95.41 input  175.53 | X-H torsion
[ 8008 7997 7996 7995 ] final   94.33 input   59.86 | X-H torsion
[ 10167 10162 10161 10158 ] final -171.97 input  -65.29 | X-H torsion
[ 10718 10713 10712 10709 ] final  -97.91 input   66.30 | X-H torsion
[ 10763 10752 10751 10750 ] final  174.35 input  -60.55 | X-H torsion
[ 11005 11000 10999 10996 ] final -149.04 input  -57.11 | X-H torsion

> <Gold.Protein.ActiveResidues>
 VAL166  LYS551  ARG553  GLY616  TRP617  ASP618  TYR619  PRO620  LYS621  CYS622 
 ASP623  PHE694  ASN695  SER759  ASP760  ASP761  ALA762  ILE779  LEU786  VAL792 
 PHE793  MET794  SER795  GLU796  ALA797  LYS798  CYS799  TRP800  GLU811  SER814 

> <Gold.Protein.RotatedAtoms>
  152.4680  133.7967  159.6930 H   0  0  0  0  0  0  0  0  0  0  0  0  # atno 6907 bound_to 6896
  150.8655  133.7571  159.2984 H   0  0  0  0  0  0  0  0  0  0  0  0  # atno 6908 bound_to 6896
  151.5123  135.1068  159.9909 H   0  0  0  0  0  0  0  0  0  0  0  0  # atno 6909 bound_to 6896
  145.3604  140.9491  143.2504 H   0  0  0  0  0  0  0  0  0  0  0  0  # atno 7974 bound_to 7965
  156.0567  140.3301  155.7413 H   0  0  0  0  0  0  0  0  0  0  0  0  # atno 8008 bound_to 7997
  155.5518  140.0611  157.2865 H   0  0  0  0  0  0  0  0  0  0  0  0  # atno 8009 bound_to 7997
  154.4461  140.1892  156.0683 H   0  0  0  0  0  0  0  0  0  0  0  0  # atno 8010 bound_to 7997
  139.5771  144.1507  152.1466 H   0  0  0  0  0  0  0  0  0  0  0  0  # atno 10167 bound_to 10162
  156.0095  130.5215  150.6445 H   0  0  0  0  0  0  0  0  0  0  0  0  # atno 10718 bound_to 10713
  154.4527  135.2765  155.1769 H   0  0  0  0  0  0  0  0  0  0  0  0  # atno 10763 bound_to 10752
  154.3589  135.6133  153.5684 H   0  0  0  0  0  0  0  0  0  0  0  0  # atno 10764 bound_to 10752
  152.9848  135.5829  154.4875 H   0  0  0  0  0  0  0  0  0  0  0  0  # atno 10765 bound_to 10752
  140.7549  134.3364  157.5116 H   0  0  0  0  0  0  0  0  0  0  0  0  # atno 11005 bound_to 11000
  144.8650  139.5121  143.6794 LP  0  0  0  0  0  0  0  0  0  0  0  0  # atno 17320 bound_to 7965
  146.2929  139.7193  142.9147 LP  0  0  0  0  0  0  0  0  0  0  0  0  # atno 17321 bound_to 7965
  140.1052  144.5505  150.6962 LP  0  0  0  0  0  0  0  0  0  0  0  0  # atno 17342 bound_to 10162
  140.7053  143.2463  151.4744 LP  0  0  0  0  0  0  0  0  0  0  0  0  # atno 17343 bound_to 10162
  157.4218  131.0838  151.1123 LP  0  0  0  0  0  0  0  0  0  0  0  0  # atno 17370 bound_to 10713
  157.1723  130.6272  149.5644 LP  0  0  0  0  0  0  0  0  0  0  0  0  # atno 17371 bound_to 10713
  139.8781  134.9166  156.3158 LP  0  0  0  0  0  0  0  0  0  0  0  0  # atno 17394 bound_to 11000
  140.9716  133.7323  156.0543 LP  0  0  0  0  0  0  0  0  0  0  0  0  # atno 17395 bound_to 11000

$$$$
