AV-unprocessed.smi:2859|AV-procd|sdf|11005|dock6
  -GOLD-   2272015463D 1   1.00000     0.00000
 Structure written by MMmdl.
 51 52  0  0  0  0  0  0  0  0  1 V2000
  153.0889  143.1284  159.9929 C   0  0  0  0  0  0  0  0  0  0  0  0
  152.0359  143.6231  158.9799 C   0  0  0  0  0  0  0  0  0  0  0  0
  150.8889  144.3394  159.7223 C   0  0  0  0  0  0  0  0  0  0  0  0
  152.7212  144.6637  158.0663 C   0  0  0  0  0  0  0  0  0  0  0  0
  151.4742  142.4280  158.1911 C   0  0  0  0  0  0  0  0  0  0  0  0
  150.4453  142.5415  157.2254 C   0  0  0  0  0  0  0  0  0  0  0  0
  150.0094  141.3484  156.5976 C   0  0  0  0  0  0  0  0  0  0  0  0
  148.9857  141.3254  155.6237 N   0  0  0  0  0  0  0  0  0  0  0  0
  147.8414  142.2145  155.7955 C   0  0  0  0  0  0  0  0  0  0  0  0
  147.0208  142.2895  154.4988 C   0  0  0  0  0  0  0  0  0  0  0  0
  146.6432  140.9784  154.0975 O   0  0  0  0  0  0  0  0  0  0  0  0
  147.7739  140.1590  153.7996 C   0  0  2  0  0  0  0  0  0  0  0  0
  147.2811  138.8001  153.2789 C   0  0  0  0  0  0  0  0  0  0  0  0
  147.6631  138.4370  152.0511 N   0  0  0  0  0  0  0  0  0  0  0  0
  146.5768  138.0736  153.9779 O   0  0  0  0  0  0  0  0  0  0  0  0
  148.6496  140.0156  155.0652 C   0  0  0  0  0  0  0  0  0  0  0  0
  150.5793  140.1645  156.9204 N   0  0  0  0  0  0  0  0  0  0  0  0
  151.5760  140.1532  157.8111 C   0  0  0  0  0  0  0  0  0  0  0  0
  152.0995  138.7815  158.2679 C   0  0  0  0  0  0  0  0  0  0  0  0
  152.7706  138.0288  157.0955 C   0  0  0  0  0  0  0  0  0  0  0  0
  150.9437  137.8757  158.7556 C   0  0  0  0  0  0  0  0  0  0  0  0
  153.1137  138.9755  159.4098 C   0  0  0  0  0  0  0  0  0  0  0  0
  152.0178  141.2235  158.4786 N   0  0  0  0  0  0  0  0  0  0  0  0
  153.5174  143.9572  160.5575 H   0  0  0  0  0  0  0  0  0  0  0  0
  153.9087  142.6140  159.4900 H   0  0  0  0  0  0  0  0  0  0  0  0
  152.6603  142.4346  160.7169 H   0  0  0  0  0  0  0  0  0  0  0  0
  150.3954  143.6807  160.4378 H   0  0  0  0  0  0  0  0  0  0  0  0
  150.1286  144.6947  159.0256 H   0  0  0  0  0  0  0  0  0  0  0  0
  151.2535  145.2027  160.2800 H   0  0  0  0  0  0  0  0  0  0  0  0
  153.1126  145.5009  158.6454 H   0  0  0  0  0  0  0  0  0  0  0  0
  152.0253  145.0799  157.3366 H   0  0  0  0  0  0  0  0  0  0  0  0
  153.5623  144.2313  157.5229 H   0  0  0  0  0  0  0  0  0  0  0  0
  149.9986  143.4942  156.9921 H   0  0  0  0  0  0  0  0  0  0  0  0
  147.2197  141.8492  156.6138 H   0  0  0  0  0  0  0  0  0  0  0  0
  148.1766  143.2189  156.0562 H   0  0  0  0  0  0  0  0  0  0  0  0
  146.1218  142.8847  154.6577 H   0  0  0  0  0  0  0  0  0  0  0  0
  147.5891  142.7767  153.7048 H   0  0  0  0  0  0  0  0  0  0  0  0
  148.3533  140.6253  153.0006 H   0  0  0  0  0  0  0  0  0  0  0  0
  147.3672  137.5462  151.6785 H   0  0  0  0  0  0  0  0  0  0  0  0
  148.2528  139.0488  151.5061 H   0  0  0  0  0  0  0  0  0  0  0  0
  149.5496  139.4573  154.8066 H   0  0  0  0  0  0  0  0  0  0  0  0
  148.1246  139.4382  155.8277 H   0  0  0  0  0  0  0  0  0  0  0  0
  153.1013  137.0348  157.3992 H   0  0  0  0  0  0  0  0  0  0  0  0
  153.6515  138.5529  156.7235 H   0  0  0  0  0  0  0  0  0  0  0  0
  152.0829  137.9040  156.2582 H   0  0  0  0  0  0  0  0  0  0  0  0
  150.1890  137.7416  157.9797 H   0  0  0  0  0  0  0  0  0  0  0  0
  150.4456  138.2868  159.6346 H   0  0  0  0  0  0  0  0  0  0  0  0
  151.3058  136.8857  159.0348 H   0  0  0  0  0  0  0  0  0  0  0  0
  153.5080  138.0207  159.7585 H   0  0  0  0  0  0  0  0  0  0  0  0
  152.6561  139.4752  160.2643 H   0  0  0  0  0  0  0  0  0  0  0  0
  153.9601  139.5837  159.0884 H   0  0  0  0  0  0  0  0  0  0  0  0
  1  2  1  0  0  0  0
  1 24  1  0  0  0  0
  1 25  1  0  0  0  0
  1 26  1  0  0  0  0
  2  3  1  0  0  0  0
  2  4  1  0  0  0  0
  2  5  1  0  0  0  0
  3 27  1  0  0  0  0
  3 28  1  0  0  0  0
  3 29  1  0  0  0  0
  4 30  1  0  0  0  0
  4 31  1  0  0  0  0
  4 32  1  0  0  0  0
  5 23  1  0  0  0  0
  5  6  2  0  0  0  0
  6  7  1  0  0  0  0
  6 33  1  0  0  0  0
  7  8  1  0  0  0  0
  7 17  2  0  0  0  0
  8 16  1  0  0  0  0
  8  9  1  0  0  0  0
  9 10  1  0  0  0  0
  9 34  1  0  0  0  0
  9 35  1  0  0  0  0
 10 11  1  0  0  0  0
 10 36  1  0  0  0  0
 10 37  1  0  0  0  0
 11 12  1  0  0  0  0
 12 13  1  0  0  0  0
 12 16  1  0  0  0  0
 12 38  1  0  0  0  0
 13 14  1  0  0  0  0
 13 15  2  0  0  0  0
 14 39  1  0  0  0  0
 14 40  1  0  0  0  0
 16 41  1  0  0  0  0
 16 42  1  0  0  0  0
 17 18  1  0  0  0  0
 18 19  1  0  0  0  0
 18 23  2  0  0  0  0
 19 20  1  0  0  0  0
 19 21  1  0  0  0  0
 19 22  1  0  0  0  0
 20 43  1  0  0  0  0
 20 44  1  0  0  0  0
 20 45  1  0  0  0  0
 21 46  1  0  0  0  0
 21 47  1  0  0  0  0
 21 48  1  0  0  0  0
 22 49  1  0  0  0  0
 22 50  1  0  0  0  0
 22 51  1  0  0  0  0
M  END
> <s_m_source_file>
AV-unprocessed.smi

> <i_m_source_file_index>
2859

> <i_lp_mmshare_version>
43012

> <i_f3d_flags>
0

> <s_epik_input>
W0NIM11DKFtDSDNdKShbQ0gzXSljMVtjSF1jKG5jKG4xKUMoW0NIM10pKFtDSDNdKVtDSDNdKU4yW0NIMl1bQ0gyXU9bQ0BIXShbQ0gyXTIpQyg9TylbTkgyXQ==

> <s_epik_cmdline>
J2VwaWtfcHl0aG9uJywgJy1waCcsICc3LjAnLCAnLXRuJywgJzgnLCAnLW1hJywgJzIwMCcsICctbWV0YWxfYmluZGluZycsICctaW1hZScsICc8aW5maWxlLm1hZT4nLCAnLW9tYWUnLCAnPG91dGZpbGUubWFlPic=

> <r_lp_tautomer_probability>
1

> <r_epik_Ionization_Penalty>
0.0011326

> <r_epik_Ionization_Penalty_Charging>
0

> <r_epik_Ionization_Penalty_Neutral>
0.0011326

> <r_epik_State_Penalty>
0.000721507

> <r_epik_Charging_Adjusted_Penalty>
0.000721507

> <i_epik_Tot_Q>
0

> <i_epik_Tot_abs_Q>
0

> <r_epik_Metal_State_Penalty>
-0

> <b_epik_Metal_Only>
0

> <s_lp_Force_Field>
OPLS_2005

> <r_lp_Energy>
9.68103

> <b_lp_Chiralities_Consistent>
1

> <s_lp_Variant>
AV-unprocessed.smi:2859-2

> <Gold.Version>
5.8.1

> <Gold.Id.Protein>
6NUR|6NUR_protein|mol2

> <Gold.PLP.Fitness>
40.2177

> <Gold.PLP.PLP>
-36.8973

> <Gold.PLP.part.hbond>
-2.0000

> <Gold.PLP.part.metal>
0.0000

> <Gold.PLP.part.buried>
-0.8826

> <Gold.PLP.part.nonpolar>
-34.6297

> <Gold.PLP.part.repulsive>
0.5027

> <Gold.PLP.ligand.clash>
0.0000

> <Gold.PLP.ligand.torsion>
0.4237

> <Gold.PLP.Chemscore.Hbond>
1.1903

> <Gold.PLP.Chemscore.CHOScore>
0.0000

> <Gold.PLP.Chemscore.Metal>
0.0000

> <Gold.Chemscore.Hbonds>
donor molecule, donor type, donor heavy atom, donor atom, acceptor molecule, acceptor atom, score
      L1  H    14    39       P1  7948  0.16
      L1  H    14    40       P1  7957  1.00

> <Gold.PLP.Chemscore.Internal.Correction>
0.5969

> <Gold.Rescore>
     Score         DG    S(hbond)    S(metal)    S(lipo)     H(rot)  DE(clash)    DE(int)     intcor
     14.70     -16.85       1.10        0.00     105.94       1.83       1.71       0.44       ----

> <Gold.Chemscore.Fitness>
14.6960

> <Gold.Chemscore.DG>
-16.8546

> <Gold.Chemscore.ZeroCoef>
-5.4800

> <Gold.Chemscore.Hbond>
1.0989

> <Gold.Chemscore.Metal>
0.0000

> <Gold.Chemscore.Lipo>
105.9403

> <Gold.Chemscore.Internal_Hbond>
0.0000

> <Gold.Chemscore.DEClash>
1.7146

> <Gold.Chemscore.DEInternal>
0.4440

> <Gold.Chemscore.Rot>
1.8323

> <Gold.Chemscore.Internal.Correction>
   9.000000E+99

> <Gold.Chemscore.Hbonds>
donor molecule, donor type, donor heavy atom, donor atom, acceptor molecule, acceptor atom, score
      L1  H    14    39       P1  7948  0.16
      L1  H    14    40       P1  7957  0.78

> <Gold.Chemscore.Hbond.Weighted>
-3.6703

> <Gold.Chemscore.Metal.Weighted>
-0.0000

> <Gold.Chemscore.Lipo.Weighted>
-12.3950

> <Gold.Chemscore.Internal_Hbond.Weighted>
0.0000

> <Gold.Chemscore.DEClash.Weighted>
1.7146

> <Gold.Chemscore.DEInternal.Weighted>
0.4440

> <Gold.Chemscore.Rot.Weighted>
4.6907

> <Gold.Chemscore.Internal.Correction.Weighted>
   9.000000E+99

> <Gold.Protein.RotatedTorsions>
[ 6907 6896 6895 6894 ] final  118.42 input  -60.11 | X-H torsion
[ 7974 7965 7964 7962 ] final   99.37 input  175.53 | X-H torsion
[ 8008 7997 7996 7995 ] final  -55.90 input   59.86 | X-H torsion
[ 10167 10162 10161 10158 ] final  -61.32 input  -65.29 | X-H torsion
[ 10718 10713 10712 10709 ] final -109.24 input   66.30 | X-H torsion
[ 10763 10752 10751 10750 ] final  179.22 input  -60.55 | X-H torsion
[ 11005 11000 10999 10996 ] final  -65.65 input  -57.11 | X-H torsion

> <Gold.Protein.ActiveResidues>
 VAL166  LYS551  ARG553  GLY616  TRP617  ASP618  TYR619  PRO620  LYS621  CYS622 
 ASP623  PHE694  ASN695  SER759  ASP760  ASP761  ALA762  ILE779  LEU786  VAL792 
 PHE793  MET794  SER795  GLU796  ALA797  LYS798  CYS799  TRP800  GLU811  SER814 

> <Gold.Protein.RotatedAtoms>
  152.4544  133.7693  159.6789 H   0  0  0  0  0  0  0  0  0  0  0  0  # atno 6907 bound_to 6896
  150.8466  133.7842  159.3047 H   0  0  0  0  0  0  0  0  0  0  0  0  # atno 6908 bound_to 6896
  151.5451  135.1071  159.9988 H   0  0  0  0  0  0  0  0  0  0  0  0  # atno 6909 bound_to 6896
  145.3997  139.2349  143.3306 H   0  0  0  0  0  0  0  0  0  0  0  0  # atno 7974 bound_to 7965
  154.4211  140.1142  156.5550 H   0  0  0  0  0  0  0  0  0  0  0  0  # atno 8008 bound_to 7997
  155.6370  140.3496  155.4683 H   0  0  0  0  0  0  0  0  0  0  0  0  # atno 8009 bound_to 7997
  155.9902  140.1178  157.0635 H   0  0  0  0  0  0  0  0  0  0  0  0  # atno 8010 bound_to 7997
  140.6014  143.2362  151.5920 H   0  0  0  0  0  0  0  0  0  0  0  0  # atno 10167 bound_to 10162
  156.0527  130.5754  150.8072 H   0  0  0  0  0  0  0  0  0  0  0  0  # atno 10718 bound_to 10713
  154.5178  135.2792  155.1288 H   0  0  0  0  0  0  0  0  0  0  0  0  # atno 10763 bound_to 10752
  154.2857  135.6276  153.5369 H   0  0  0  0  0  0  0  0  0  0  0  0  # atno 10764 bound_to 10752
  152.9931  135.5662  154.5660 H   0  0  0  0  0  0  0  0  0  0  0  0  # atno 10765 bound_to 10752
  141.1460  133.6685  156.6018 H   0  0  0  0  0  0  0  0  0  0  0  0  # atno 11005 bound_to 11000
  146.2757  140.4693  142.8796 LP  0  0  0  0  0  0  0  0  0  0  0  0  # atno 17320 bound_to 7965
  144.8382  140.6816  143.6246 LP  0  0  0  0  0  0  0  0  0  0  0  0  # atno 17321 bound_to 7965
  139.5294  144.2962  152.1111 LP  0  0  0  0  0  0  0  0  0  0  0  0  # atno 17342 bound_to 10162
  140.2144  144.4530  150.6371 LP  0  0  0  0  0  0  0  0  0  0  0  0  # atno 17343 bound_to 10162
  157.5468  131.0942  150.9751 LP  0  0  0  0  0  0  0  0  0  0  0  0  # atno 17370 bound_to 10713
  157.0021  130.5604  149.5312 LP  0  0  0  0  0  0  0  0  0  0  0  0  # atno 17371 bound_to 10713
  140.3683  134.7628  157.4581 LP  0  0  0  0  0  0  0  0  0  0  0  0  # atno 17394 bound_to 11000
  140.0731  134.5835  155.8620 LP  0  0  0  0  0  0  0  0  0  0  0  0  # atno 17395 bound_to 11000

$$$$
