AV-unprocessed.smi:2630|AV-procd|sdf|10247|dock5
  -GOLD-   2272014253D 1   1.00000     0.00000
 Structure written by MMmdl.
 34 35  0  0  0  0  0  0  0  0  2 V2000
  146.7223  136.2720  161.5275 C   0  0  0  0  0  0  0  0  0  0  0  0
  147.2196  137.0873  160.4819 O   0  0  0  0  0  0  0  0  0  0  0  0
  147.8749  136.3398  159.4710 C   0  0  0  0  0  0  0  0  0  0  0  0
  147.8702  137.1286  158.1503 C   0  0  0  0  0  0  0  0  0  0  0  0
  149.1949  137.7157  157.8554 N   0  0  0  0  0  0  0  0  0  0  0  0
  149.2799  139.1018  157.5580 C   0  0  0  0  0  0  0  0  0  0  0  0
  148.1339  139.8800  157.5426 N   0  0  0  0  0  0  0  0  0  0  0  0
  150.4874  139.6507  157.2971 C   0  0  0  0  0  0  0  0  0  0  0  0
  150.7958  141.3633  156.9256 S   0  0  0  0  0  0  0  0  0  0  0  0
  151.4686  141.9207  158.4564 C   0  0  0  0  0  0  0  0  0  0  0  0
  150.9474  143.0741  159.0756 C   0  0  0  0  0  0  0  0  0  0  0  0
  151.4828  143.5150  160.3018 C   0  0  0  0  0  0  0  0  0  0  0  0
  152.5385  142.8043  160.9064 C   0  0  0  0  0  0  0  0  0  0  0  0
  153.0603  141.6526  160.2849 C   0  0  0  0  0  0  0  0  0  0  0  0
  152.5261  141.2105  159.0589 C   0  0  0  0  0  0  0  0  0  0  0  0
  151.6980  138.8271  157.3139 C   0  0  0  0  0  0  0  0  0  0  0  0
  152.8039  139.3102  157.0671 O   0  0  0  0  0  0  0  0  0  0  0  0
  151.5349  137.5106  157.6169 N   0  5  0  0  0  0  0  0  0  0  0  0
  150.3243  136.9394  157.8928 C   0  0  0  0  0  0  0  0  0  0  0  0
  150.2259  135.7444  158.1741 O   0  0  0  0  0  0  0  0  0  0  0  0
  146.2279  136.8950  162.2728 H   0  0  0  0  0  0  0  0  0  0  0  0
  147.5285  135.7297  162.0226 H   0  0  0  0  0  0  0  0  0  0  0  0
  145.9929  135.5525  161.1532 H   0  0  0  0  0  0  0  0  0  0  0  0
  148.9049  136.1489  159.7755 H   0  0  0  0  0  0  0  0  0  0  0  0
  147.3923  135.3700  159.3410 H   0  0  0  0  0  0  0  0  0  0  0  0
  147.5157  136.4854  157.3435 H   0  0  0  0  0  0  0  0  0  0  0  0
  147.1172  137.9153  158.1976 H   0  0  0  0  0  0  0  0  0  0  0  0
  147.2253  139.4858  157.7394 H   0  0  0  0  0  0  0  0  0  0  0  0
  148.1769  140.8842  157.4474 H   0  0  0  0  0  0  0  0  0  0  0  0
  150.1371  143.6198  158.6149 H   0  0  0  0  0  0  0  0  0  0  0  0
  151.0836  144.3978  160.7786 H   0  0  0  0  0  0  0  0  0  0  0  0
  152.9480  143.1420  161.8470 H   0  0  0  0  0  0  0  0  0  0  0  0
  153.8693  141.1073  160.7481 H   0  0  0  0  0  0  0  0  0  0  0  0
  152.9258  140.3256  158.5852 H   0  0  0  0  0  0  0  0  0  0  0  0
  1  2  1  0  0  0  0
  1 21  1  0  0  0  0
  1 22  1  0  0  0  0
  1 23  1  0  0  0  0
  2  3  1  0  0  0  0
  3  4  1  0  0  0  0
  3 24  1  0  0  0  0
  3 25  1  0  0  0  0
  4  5  1  0  0  0  0
  4 26  1  0  0  0  0
  4 27  1  0  0  0  0
  5 19  1  0  0  0  0
  5  6  1  0  0  0  0
  6  7  1  0  0  0  0
  6  8  2  0  0  0  0
  7 28  1  0  0  0  0
  7 29  1  0  0  0  0
  8  9  1  0  0  0  0
  8 16  1  0  0  0  0
  9 10  1  0  0  0  0
 10 15  1  0  0  0  0
 10 11  2  0  0  0  0
 11 12  1  0  0  0  0
 11 30  1  0  0  0  0
 12 13  2  0  0  0  0
 12 31  1  0  0  0  0
 13 14  1  0  0  0  0
 13 32  1  0  0  0  0
 14 15  2  0  0  0  0
 14 33  1  0  0  0  0
 15 34  1  0  0  0  0
 16 17  2  0  0  0  0
 16 18  1  0  0  0  0
 18 19  1  0  0  0  0
 19 20  2  0  0  0  0
M  CHG  1  18  -1
M  END
> <s_m_source_file>
AV-unprocessed.smi

> <i_m_source_file_index>
2630

> <i_lp_mmshare_version>
43012

> <i_f3d_flags>
0

> <s_epik_input>
W0NIM11PW0NIMl1bQ0gyXW4xYyhbTkgyXSljKGMoPU8pW25IXWMxPU8pU2MyW2NIXVtjSF1bY0hdW2NIXVtjSF0y

> <s_epik_cmdline>
J2VwaWtfcHl0aG9uJywgJy1waCcsICc3LjAnLCAnLXRuJywgJzgnLCAnLW1hJywgJzIwMCcsICctbWV0YWxfYmluZGluZycsICctaW1hZScsICc8aW5maWxlLm1hZT4nLCAnLW9tYWUnLCAnPG91dGZpbGUubWFlPic=

> <r_lp_tautomer_probability>
1

> <r_epik_Ionization_Penalty>
6.52921

> <r_epik_Ionization_Penalty_Charging>
0.111036

> <r_epik_Ionization_Penalty_Neutral>
6.41817

> <r_epik_State_Penalty>
6.41816

> <r_epik_Charging_Adjusted_Penalty>
6.5292

> <i_epik_Tot_Q>
-1

> <i_epik_Tot_abs_Q>
1

> <r_epik_Metal_State_Penalty>
2.337

> <b_epik_Metal_Only>
1

> <s_epik_Chemistry_Notes>
This compound has an imine and may undergo hydrolysis.

> <s_lp_Force_Field>
OPLS_2005

> <r_lp_Energy>
30.4306

> <b_lp_Chiralities_Consistent>
1

> <s_lp_Variant>
AV-unprocessed.smi:2630-2

> <Gold.Version>
5.8.1

> <Gold.Id.Protein>
6NUR|6NUR_protein|mol2

> <Gold.PLP.Fitness>
43.5053

> <Gold.PLP.PLP>
-34.1818

> <Gold.PLP.part.hbond>
-3.5953

> <Gold.PLP.part.metal>
0.0000

> <Gold.PLP.part.buried>
-4.8999

> <Gold.PLP.part.nonpolar>
-26.5434

> <Gold.PLP.part.repulsive>
0.2223

> <Gold.PLP.ligand.clash>
0.0000

> <Gold.PLP.ligand.torsion>
0.7967

> <Gold.PLP.Chemscore.Hbond>
3.6240

> <Gold.PLP.Chemscore.CHOScore>
0.0000

> <Gold.PLP.Chemscore.Metal>
0.0000

> <Gold.Chemscore.Hbonds>
donor molecule, donor type, donor heavy atom, donor atom, acceptor molecule, acceptor atom, score
      P1  H  6896  6907       L1    20  0.80
      P1  H  6934  6947       L1     2  1.00
      P1  H  7997  8008       L1    17  1.00

> <Gold.PLP.Chemscore.Internal.Correction>
0.0450

> <Gold.Rescore>
     Score         DG    S(hbond)    S(metal)    S(lipo)     H(rot)  DE(clash)    DE(int)     intcor
     18.58     -21.62       3.55        0.00      80.87       2.02       0.25       2.78       ----

> <Gold.Chemscore.Fitness>
18.5831

> <Gold.Chemscore.DG>
-21.6212

> <Gold.Chemscore.ZeroCoef>
-5.4800

> <Gold.Chemscore.Hbond>
3.5505

> <Gold.Chemscore.Metal>
0.0000

> <Gold.Chemscore.Lipo>
80.8741

> <Gold.Chemscore.Internal_Hbond>
0.0000

> <Gold.Chemscore.DEClash>
0.2544

> <Gold.Chemscore.DEInternal>
2.7837

> <Gold.Chemscore.Rot>
2.0234

> <Gold.Chemscore.Internal.Correction>
   9.000000E+99

> <Gold.Chemscore.Hbonds>
donor molecule, donor type, donor heavy atom, donor atom, acceptor molecule, acceptor atom, score
      P1  H  6896  6907       L1    20  0.80
      P1  H  6934  6947       L1     2  0.83
      P1  H  7997  8008       L1    17  1.00

> <Gold.Chemscore.Hbond.Weighted>
-11.8588

> <Gold.Chemscore.Metal.Weighted>
-0.0000

> <Gold.Chemscore.Lipo.Weighted>
-9.4623

> <Gold.Chemscore.Internal_Hbond.Weighted>
0.0000

> <Gold.Chemscore.DEClash.Weighted>
0.2544

> <Gold.Chemscore.DEInternal.Weighted>
2.7837

> <Gold.Chemscore.Rot.Weighted>
5.1798

> <Gold.Chemscore.Internal.Correction.Weighted>
   9.000000E+99

> <Gold.Protein.RotatedTorsions>
[ 6907 6896 6895 6894 ] final  -50.75 input  -60.11 | X-H torsion
[ 7974 7965 7964 7962 ] final  -59.46 input  175.53 | X-H torsion
[ 8008 7997 7996 7995 ] final  -74.69 input   59.86 | X-H torsion
[ 10167 10162 10161 10158 ] final  -21.76 input  -65.29 | X-H torsion
[ 10718 10713 10712 10709 ] final   92.78 input   66.30 | X-H torsion
[ 10763 10752 10751 10750 ] final   61.54 input  -60.55 | X-H torsion
[ 11005 11000 10999 10996 ] final   44.68 input  -57.11 | X-H torsion

> <Gold.Protein.ActiveResidues>
 VAL166  LYS551  ARG553  GLY616  TRP617  ASP618  TYR619  PRO620  LYS621  CYS622 
 ASP623  PHE694  ASN695  SER759  ASP760  ASP761  ALA762  ILE779  LEU786  VAL792 
 PHE793  MET794  SER795  GLU796  ALA797  LYS798  CYS799  TRP800  GLU811  SER814 

> <Gold.Protein.RotatedAtoms>
  150.8677  134.8044  159.7130 H   0  0  0  0  0  0  0  0  0  0  0  0  # atno 6907 bound_to 6896
  152.4693  134.4997  159.9731 H   0  0  0  0  0  0  0  0  0  0  0  0  # atno 6908 bound_to 6896
  151.5091  133.3450  159.2917 H   0  0  0  0  0  0  0  0  0  0  0  0  # atno 6909 bound_to 6896
  145.8272  140.8503  143.0102 H   0  0  0  0  0  0  0  0  0  0  0  0  # atno 7974 bound_to 7965
  154.5352  140.0757  156.8415 H   0  0  0  0  0  0  0  0  0  0  0  0  # atno 8008 bound_to 7997
  155.3292  140.3401  155.4221 H   0  0  0  0  0  0  0  0  0  0  0  0  # atno 8009 bound_to 7997
  156.1821  140.1656  156.8241 H   0  0  0  0  0  0  0  0  0  0  0  0  # atno 8010 bound_to 7997
  140.7283  143.4598  151.0396 H   0  0  0  0  0  0  0  0  0  0  0  0  # atno 10167 bound_to 10162
  157.6957  131.0455  150.3934 H   0  0  0  0  0  0  0  0  0  0  0  0  # atno 10718 bound_to 10713
  152.9953  135.5497  154.6049 H   0  0  0  0  0  0  0  0  0  0  0  0  # atno 10763 bound_to 10752
  154.5383  135.2818  155.1121 H   0  0  0  0  0  0  0  0  0  0  0  0  # atno 10764 bound_to 10752
  154.2409  135.6416  153.5259 H   0  0  0  0  0  0  0  0  0  0  0  0  # atno 10765 bound_to 10752
  140.1529  134.4438  155.8369 H   0  0  0  0  0  0  0  0  0  0  0  0  # atno 11005 bound_to 11000
  144.6742  140.0619  143.7476 LP  0  0  0  0  0  0  0  0  0  0  0  0  # atno 17320 bound_to 7965
  145.9611  139.2801  143.1155 LP  0  0  0  0  0  0  0  0  0  0  0  0  # atno 17321 bound_to 7965
  139.8282  143.7727  152.3179 LP  0  0  0  0  0  0  0  0  0  0  0  0  # atno 17342 bound_to 10162
  139.7834  144.7436  151.0056 LP  0  0  0  0  0  0  0  0  0  0  0  0  # atno 17343 bound_to 10162
  156.4335  130.3977  149.6745 LP  0  0  0  0  0  0  0  0  0  0  0  0  # atno 17370 bound_to 10713
  156.3954  130.7648  151.2652 LP  0  0  0  0  0  0  0  0  0  0  0  0  # atno 17371 bound_to 10713
  141.2201  133.6880  156.7455 LP  0  0  0  0  0  0  0  0  0  0  0  0  # atno 17394 bound_to 11000
  140.2582  134.8487  157.3733 LP  0  0  0  0  0  0  0  0  0  0  0  0  # atno 17395 bound_to 11000

$$$$
