AV-unprocessed.smi:1971|AV-procd|sdf|7970|dock4
  -GOLD-   2272010143D 1   1.00000     0.00000
 Structure written by MMmdl.
 43 44  0  0  0  0  0  0  0  0  3 V2000
  150.8893  140.9060  156.3728 C   0  0  0  0  0  0  0  0  0  0  0  0
  149.6525  140.0452  156.0773 C   0  0  0  0  0  0  0  0  0  0  0  0
  149.6258  139.5812  154.6881 N   0  0  0  0  0  0  0  0  0  0  0  0
  150.8505  138.8752  154.3119 C   0  0  0  0  0  0  0  0  0  0  0  0
  150.9667  137.4966  154.9964 C   0  0  0  0  0  0  0  0  0  0  0  0
  149.7958  136.6360  154.6738 N   0  3  0  0  0  0  0  0  0  0  0  0
  149.8492  135.2533  155.2505 C   0  0  2  0  0  0  0  0  0  0  0  0
  148.5632  134.4399  154.9855 C   0  0  0  0  0  0  0  0  0  0  0  0
  150.1628  135.2700  156.7704 C   0  0  0  0  0  0  0  0  0  0  0  0
  149.0575  135.7948  157.5701 N   0  0  0  0  0  0  0  0  0  0  0  0
  149.1563  136.4114  158.7551 C   0  0  0  0  0  0  0  0  0  0  0  0
  150.2656  136.6411  159.2412 O   0  0  0  0  0  0  0  0  0  0  0  0
  147.9592  136.7080  159.3075 N   0  5  0  0  0  0  0  0  0  0  0  0
  147.7308  136.4301  160.6015 C   0  0  0  0  0  0  0  0  0  0  0  0
  147.6140  137.3755  161.5406 N   0  0  0  0  0  0  0  0  0  0  0  0
  147.3740  136.8632  162.8170 C   0  0  0  0  0  0  0  0  0  0  0  0
  147.2979  135.4959  162.8486 C   0  0  0  0  0  0  0  0  0  0  0  0
  147.5248  134.8069  161.2665 S   0  0  0  0  0  0  0  0  0  0  0  0
  148.5403  137.3568  155.0187 C   0  0  0  0  0  0  0  0  0  0  0  0
  148.4820  138.7371  154.3332 C   0  0  0  0  0  0  0  0  0  0  0  0
  150.9537  141.1248  157.4389 H   0  0  0  0  0  0  0  0  0  0  0  0
  150.8580  141.8617  155.8507 H   0  0  0  0  0  0  0  0  0  0  0  0
  151.8074  140.3919  156.0867 H   0  0  0  0  0  0  0  0  0  0  0  0
  149.6888  139.1711  156.7286 H   0  0  0  0  0  0  0  0  0  0  0  0
  148.7455  140.5874  156.3408 H   0  0  0  0  0  0  0  0  0  0  0  0
  150.8596  138.7455  153.2286 H   0  0  0  0  0  0  0  0  0  0  0  0
  151.7176  139.4912  154.5519 H   0  0  0  0  0  0  0  0  0  0  0  0
  151.8858  137.0407  154.6311 H   0  0  0  0  0  0  0  0  0  0  0  0
  151.0721  137.5975  156.0773 H   0  0  0  0  0  0  0  0  0  0  0  0
  150.6591  134.7169  154.7535 H   0  0  0  0  0  0  0  0  0  0  0  0
  148.5787  133.4929  155.5259 H   0  0  0  0  0  0  0  0  0  0  0  0
  148.4518  134.1870  153.9312 H   0  0  0  0  0  0  0  0  0  0  0  0
  147.6708  134.9822  155.2988 H   0  0  0  0  0  0  0  0  0  0  0  0
  150.4627  134.2814  157.1214 H   0  0  0  0  0  0  0  0  0  0  0  0
  151.0267  135.9062  156.9620 H   0  0  0  0  0  0  0  0  0  0  0  0
  148.1261  135.6549  157.2064 H   0  0  0  0  0  0  0  0  0  0  0  0
  147.2700  137.5461  163.6470 H   0  0  0  0  0  0  0  0  0  0  0  0
  147.1218  134.8557  163.6998 H   0  0  0  0  0  0  0  0  0  0  0  0
  147.6742  136.7876  154.6850 H   0  0  0  0  0  0  0  0  0  0  0  0
  148.4465  137.4508  156.1009 H   0  0  0  0  0  0  0  0  0  0  0  0
  147.5467  139.2409  154.5741 H   0  0  0  0  0  0  0  0  0  0  0  0
  148.4753  138.6012  153.2507 H   0  0  0  0  0  0  0  0  0  0  0  0
  149.7992  136.5215  153.6696 H   0  0  0  0  0  0  0  0  0  0  0  0
  1  2  1  0  0  0  0
  1 21  1  0  0  0  0
  1 22  1  0  0  0  0
  1 23  1  0  0  0  0
  2  3  1  0  0  0  0
  2 24  1  0  0  0  0
  2 25  1  0  0  0  0
  3 20  1  0  0  0  0
  3  4  1  0  0  0  0
  4  5  1  0  0  0  0
  4 26  1  0  0  0  0
  4 27  1  0  0  0  0
  5  6  1  0  0  0  0
  5 28  1  0  0  0  0
  5 29  1  0  0  0  0
  6  7  1  0  0  0  0
  6 19  1  0  0  0  0
  6 43  1  0  0  0  0
  7  8  1  0  0  0  0
  7  9  1  0  0  0  0
  7 30  1  0  0  0  0
  8 31  1  0  0  0  0
  8 32  1  0  0  0  0
  8 33  1  0  0  0  0
  9 10  1  0  0  0  0
  9 34  1  0  0  0  0
  9 35  1  0  0  0  0
 10 11  1  0  0  0  0
 10 36  1  0  0  0  0
 11 12  2  0  0  0  0
 11 13  1  0  0  0  0
 13 14  1  0  0  0  0
 14 18  1  0  0  0  0
 14 15  2  0  0  0  0
 15 16  1  0  0  0  0
 16 17  2  0  0  0  0
 16 37  1  0  0  0  0
 17 18  1  0  0  0  0
 17 38  1  0  0  0  0
 19 20  1  0  0  0  0
 19 39  1  0  0  0  0
 19 40  1  0  0  0  0
 20 41  1  0  0  0  0
 20 42  1  0  0  0  0
M  CHG  1   6   1
M  CHG  1  13  -1
M  END
> <s_m_source_file>
AV-unprocessed.smi

> <i_m_source_file_index>
1971

> <i_lp_mmshare_version>
43012

> <i_f3d_flags>
0

> <s_epik_input>
W0NIM11bQ0gyXU4xW0NIMl1bQ0gyXU4oW0NIMl1bQ0gyXTEpW0NASF0oW0NIM10pW0NIMl1bTkhdQyg9TylbTkhdYzJuW2NIXVtjSF1zMg==

> <s_epik_cmdline>
J2VwaWtfcHl0aG9uJywgJy1waCcsICc3LjAnLCAnLXRuJywgJzgnLCAnLW1hJywgJzIwMCcsICctbWV0YWxfYmluZGluZycsICctaW1hZScsICc8aW5maWxlLm1hZT4nLCAnLW9tYWUnLCAnPG91dGZpbGUubWFlPic=

> <r_epik_Ionization_Penalty>
6.3441

> <r_epik_Ionization_Penalty_Charging>
5.51153

> <r_epik_Ionization_Penalty_Neutral>
0.832567

> <r_epik_State_Penalty>
6.33945

> <r_epik_Charging_Adjusted_Penalty>
11.851

> <i_epik_Tot_Q>
0

> <i_epik_Tot_abs_Q>
2

> <r_epik_Metal_State_Penalty>
2.34542

> <b_epik_Metal_Only>
1

> <s_lp_Force_Field>
OPLS_2005

> <r_lp_Energy>
17.5564

> <b_lp_Chiralities_Consistent>
1

> <s_lp_Variant>
AV-unprocessed.smi:1971-9

> <Gold.Version>
5.8.1

> <Gold.Id.Protein>
6NUR|6NUR_protein|mol2

> <Gold.PLP.Fitness>
45.9167

> <Gold.PLP.PLP>
-34.1280

> <Gold.PLP.part.hbond>
-4.0000

> <Gold.PLP.part.metal>
0.0000

> <Gold.PLP.part.buried>
-5.4491

> <Gold.PLP.part.nonpolar>
-25.4315

> <Gold.PLP.part.repulsive>
0.2058

> <Gold.PLP.ligand.clash>
0.0000

> <Gold.PLP.ligand.torsion>
1.4000

> <Gold.PLP.Chemscore.Hbond>
4.8160

> <Gold.PLP.Chemscore.CHOScore>
0.0000

> <Gold.PLP.Chemscore.Metal>
0.0000

> <Gold.Chemscore.Hbonds>
donor molecule, donor type, donor heavy atom, donor atom, acceptor molecule, acceptor atom, score
      L1  H     6    43       P1  7948  2.00
      P1  H  6896  6908       L1    12  1.00
      P1  H  6931  6943       L1    15  0.79
      P1  H  6934  6947       L1    15  0.75

> <Gold.PLP.Chemscore.Internal.Correction>
0.1408

> <Gold.Rescore>
     Score         DG    S(hbond)    S(metal)    S(lipo)     H(rot)  DE(clash)    DE(int)     intcor
     16.63     -18.86       3.01        0.00      66.66       1.75       0.01       2.22       ----

> <Gold.Chemscore.Fitness>
16.6345

> <Gold.Chemscore.DG>
-18.8599

> <Gold.Chemscore.ZeroCoef>
-5.4800

> <Gold.Chemscore.Hbond>
3.0126

> <Gold.Chemscore.Metal>
0.0000

> <Gold.Chemscore.Lipo>
66.6591

> <Gold.Chemscore.Internal_Hbond>
0.0000

> <Gold.Chemscore.DEClash>
0.0059

> <Gold.Chemscore.DEInternal>
2.2196

> <Gold.Chemscore.Rot>
1.7505

> <Gold.Chemscore.Internal.Correction>
   9.000000E+99

> <Gold.Chemscore.Hbonds>
donor molecule, donor type, donor heavy atom, donor atom, acceptor molecule, acceptor atom, score
      L1  H     6    43       P1  7948  0.38
      P1  H  6896  6908       L1    12  0.39
      P1  H  6931  6943       L1    15  0.15
      P1  H  6934  6947       L1    15  0.70

> <Gold.Chemscore.Hbond.Weighted>
-10.0622

> <Gold.Chemscore.Metal.Weighted>
-0.0000

> <Gold.Chemscore.Lipo.Weighted>
-7.7991

> <Gold.Chemscore.Internal_Hbond.Weighted>
0.0000

> <Gold.Chemscore.DEClash.Weighted>
0.0059

> <Gold.Chemscore.DEInternal.Weighted>
2.2196

> <Gold.Chemscore.Rot.Weighted>
4.4813

> <Gold.Chemscore.Internal.Correction.Weighted>
   9.000000E+99

> <Gold.Protein.RotatedTorsions>
[ 6907 6896 6895 6894 ] final -166.97 input  -60.11 | X-H torsion
[ 7974 7965 7964 7962 ] final -163.71 input  175.53 | X-H torsion
[ 8008 7997 7996 7995 ] final -179.73 input   59.86 | X-H torsion
[ 10167 10162 10161 10158 ] final    9.28 input  -65.29 | X-H torsion
[ 10718 10713 10712 10709 ] final  135.88 input   66.30 | X-H torsion
[ 10763 10752 10751 10750 ] final -123.54 input  -60.55 | X-H torsion
[ 11005 11000 10999 10996 ] final -115.39 input  -57.11 | X-H torsion

> <Gold.Protein.ActiveResidues>
 VAL166  LYS551  ARG553  GLY616  TRP617  ASP618  TYR619  PRO620  LYS621  CYS622 
 ASP623  PHE694  ASN695  SER759  ASP760  ASP761  ALA762  ILE779  LEU786  VAL792 
 PHE793  MET794  SER795  GLU796  ALA797  LYS798  CYS799  TRP800  GLU811  SER814 

> <Gold.Protein.RotatedAtoms>
  151.4521  133.3615  159.2796 H   0  0  0  0  0  0  0  0  0  0  0  0  # atno 6907 bound_to 6896
  150.9084  134.8501  159.7419 H   0  0  0  0  0  0  0  0  0  0  0  0  # atno 6908 bound_to 6896
  152.4918  134.4448  159.9607 H   0  0  0  0  0  0  0  0  0  0  0  0  # atno 6909 bound_to 6896
  144.7318  140.3067  143.6195 H   0  0  0  0  0  0  0  0  0  0  0  0  # atno 7974 bound_to 7965
  156.0339  140.1288  157.0229 H   0  0  0  0  0  0  0  0  0  0  0  0  # atno 8008 bound_to 7997
  154.4361  140.1044  156.6209 H   0  0  0  0  0  0  0  0  0  0  0  0  # atno 8009 bound_to 7997
  155.5767  140.3467  155.4531 H   0  0  0  0  0  0  0  0  0  0  0  0  # atno 8010 bound_to 7997
  140.6264  143.8091  150.7239 H   0  0  0  0  0  0  0  0  0  0  0  0  # atno 10167 bound_to 10162
  157.4524  131.1067  151.0017 H   0  0  0  0  0  0  0  0  0  0  0  0  # atno 10718 bound_to 10713
  154.8709  135.4094  154.2961 H   0  0  0  0  0  0  0  0  0  0  0  0  # atno 10763 bound_to 10752
  153.3828  135.7012  153.6558 H   0  0  0  0  0  0  0  0  0  0  0  0  # atno 10764 bound_to 10752
  153.5373  135.3655  155.2674 H   0  0  0  0  0  0  0  0  0  0  0  0  # atno 10765 bound_to 10752
  141.0491  133.9716  157.2867 H   0  0  0  0  0  0  0  0  0  0  0  0  # atno 11005 bound_to 11000
  145.7706  139.1856  143.2214 LP  0  0  0  0  0  0  0  0  0  0  0  0  # atno 17320 bound_to 7965
  146.0914  140.7652  142.9593 LP  0  0  0  0  0  0  0  0  0  0  0  0  # atno 17321 bound_to 7965
  140.1693  143.4208  152.2012 LP  0  0  0  0  0  0  0  0  0  0  0  0  # atno 17342 bound_to 10162
  139.5484  144.7317  151.4511 LP  0  0  0  0  0  0  0  0  0  0  0  0  # atno 17343 bound_to 10162
  157.0843  130.5916  149.5426 LP  0  0  0  0  0  0  0  0  0  0  0  0  # atno 17370 bound_to 10713
  155.9993  130.5068  150.7601 LP  0  0  0  0  0  0  0  0  0  0  0  0  # atno 17371 bound_to 10713
  139.9335  135.0198  156.8480 LP  0  0  0  0  0  0  0  0  0  0  0  0  # atno 17394 bound_to 11000
  140.6090  134.0100  155.7569 LP  0  0  0  0  0  0  0  0  0  0  0  0  # atno 17395 bound_to 11000

$$$$
