AV-unprocessed.smi:1356|AV-procd|sdf|5545|dock4
  -GOLD-   22720 5133D 1   1.00000     0.00000
 Structure written by MMmdl.
 42 43  0  0  0  0  0  0  0  0  2 V2000
  143.1157  135.8146  152.4394 C   0  0  0  0  0  0  0  0  0  0  0  0
  144.4479  135.2239  152.0117 C   0  0  1  0  0  0  0  0  0  0  0  0
  145.3297  135.9438  151.0198 C   0  0  0  0  0  0  0  0  0  0  0  0
  145.8046  135.7618  152.4481 C   0  0  1  0  0  0  0  0  0  0  0  0
  145.8870  136.9752  153.3215 C   0  0  0  0  0  0  0  0  0  0  0  0
  144.9004  137.5633  153.7667 O   0  0  0  0  0  0  0  0  0  0  0  0
  147.1418  137.3746  153.5733 N   0  0  0  0  0  0  0  0  0  0  0  0
  147.4884  138.5242  154.3975 C   0  0  0  0  0  0  0  0  0  0  0  0
  148.9026  139.0262  154.0655 C   0  0  0  0  0  0  0  0  0  0  0  0
  149.2054  140.3558  154.7582 C   0  0  0  0  0  0  0  0  0  0  0  0
  149.5508  141.3334  154.0953 O   0  0  0  0  0  0  0  0  0  0  0  0
  149.0910  140.3749  156.0949 N   0  0  0  0  0  0  0  0  0  0  0  0
  149.3997  141.5177  156.9502 C   0  0  0  0  0  0  0  0  0  0  0  0
  150.8625  141.9945  156.8235 C   0  0  0  0  0  0  0  0  0  0  0  0
  151.2666  143.0163  157.8728 C   0  0  0  0  0  0  0  0  0  0  0  0
  152.2924  142.7643  158.8104 C   0  0  0  0  0  0  0  0  0  0  0  0
  152.6088  143.7498  159.7682 C   0  0  0  0  0  0  0  0  0  0  0  0
  151.8961  144.9667  159.7665 C   0  0  0  0  0  0  0  0  0  0  0  0
  150.8833  145.1668  158.8062 C   0  0  0  0  0  0  0  0  0  0  0  0
  150.6085  144.1974  157.9058 N   0  3  0  0  0  0  0  0  0  0  0  0
  143.0947  136.8963  152.3101 H   0  0  0  0  0  0  0  0  0  0  0  0
  142.9208  135.5812  153.4863 H   0  0  0  0  0  0  0  0  0  0  0  0
  142.3131  135.3899  151.8364 H   0  0  0  0  0  0  0  0  0  0  0  0
  144.4091  134.1395  151.9281 H   0  0  0  0  0  0  0  0  0  0  0  0
  145.8272  135.3498  150.2561 H   0  0  0  0  0  0  0  0  0  0  0  0
  145.0189  136.9352  150.6947 H   0  0  0  0  0  0  0  0  0  0  0  0
  146.5725  135.0082  152.6170 H   0  0  0  0  0  0  0  0  0  0  0  0
  147.9028  136.8436  153.1749 H   0  0  0  0  0  0  0  0  0  0  0  0
  146.7589  139.3187  154.2286 H   0  0  0  0  0  0  0  0  0  0  0  0
  147.4208  138.2420  155.4497 H   0  0  0  0  0  0  0  0  0  0  0  0
  149.6453  138.2934  154.3838 H   0  0  0  0  0  0  0  0  0  0  0  0
  149.0150  139.1370  152.9858 H   0  0  0  0  0  0  0  0  0  0  0  0
  148.7886  139.5286  156.5558 H   0  0  0  0  0  0  0  0  0  0  0  0
  148.7118  142.3390  156.7439 H   0  0  0  0  0  0  0  0  0  0  0  0
  149.2092  141.2089  157.9784 H   0  0  0  0  0  0  0  0  0  0  0  0
  151.5351  141.1387  156.8942 H   0  0  0  0  0  0  0  0  0  0  0  0
  151.0255  142.4187  155.8321 H   0  0  0  0  0  0  0  0  0  0  0  0
  152.8259  141.8246  158.8018 H   0  0  0  0  0  0  0  0  0  0  0  0
  153.3875  143.5734  160.4959 H   0  0  0  0  0  0  0  0  0  0  0  0
  152.1227  145.7351  160.4913 H   0  0  0  0  0  0  0  0  0  0  0  0
  150.2887  146.0656  158.7322 H   0  0  0  0  0  0  0  0  0  0  0  0
  149.8706  144.3636  157.2210 H   0  0  0  0  0  0  0  0  0  0  0  0
  1  2  1  0  0  0  0
  1 21  1  0  0  0  0
  1 22  1  0  0  0  0
  1 23  1  0  0  0  0
  2  4  1  0  0  0  0
  2  3  1  0  0  0  0
  2 24  1  0  0  0  0
  3  4  1  0  0  0  0
  3 25  1  0  0  0  0
  3 26  1  0  0  0  0
  4  5  1  0  0  0  0
  4 27  1  0  0  0  0
  5  6  2  0  0  0  0
  5  7  1  0  0  0  0
  7  8  1  0  0  0  0
  7 28  1  0  0  0  0
  8  9  1  0  0  0  0
  8 29  1  0  0  0  0
  8 30  1  0  0  0  0
  9 10  1  0  0  0  0
  9 31  1  0  0  0  0
  9 32  1  0  0  0  0
 10 11  2  0  0  0  0
 10 12  1  0  0  0  0
 12 13  1  0  0  0  0
 12 33  1  0  0  0  0
 13 14  1  0  0  0  0
 13 34  1  0  0  0  0
 13 35  1  0  0  0  0
 14 15  1  0  0  0  0
 14 36  1  0  0  0  0
 14 37  1  0  0  0  0
 15 20  1  0  0  0  0
 15 16  2  0  0  0  0
 16 17  1  0  0  0  0
 16 38  1  0  0  0  0
 17 18  2  0  0  0  0
 17 39  1  0  0  0  0
 18 19  1  0  0  0  0
 18 40  1  0  0  0  0
 19 20  2  0  0  0  0
 19 41  1  0  0  0  0
 20 42  1  0  0  0  0
M  CHG  1  20   1
M  END
> <s_m_source_file>
AV-unprocessed.smi

> <i_m_source_file_index>
1356

> <i_lp_mmshare_version>
43012

> <i_f3d_flags>
0

> <s_epik_input>
W0NIM11bQ0BASF0xW0NIMl1bQ0BIXTFDKD1PKVtOSF1bQ0gyXVtDSDJdQyg9TylbTkhdW0NIMl1bQ0gyXWMyW2NIXVtjSF1bY0hdW2NIXW4y

> <s_epik_cmdline>
J2VwaWtfcHl0aG9uJywgJy1waCcsICc3LjAnLCAnLXRuJywgJzgnLCAnLW1hJywgJzIwMCcsICctbWV0YWxfYmluZGluZycsICctaW1hZScsICc8aW5maWxlLm1hZT4nLCAnLW9tYWUnLCAnPG91dGZpbGUubWFlPic=

> <r_epik_Ionization_Penalty>
1.86966

> <r_epik_Ionization_Penalty_Charging>
1.86966

> <r_epik_Ionization_Penalty_Neutral>
5.0403e-08

> <r_epik_State_Penalty>
1.98858

> <r_epik_Charging_Adjusted_Penalty>
3.85824

> <i_epik_Tot_Q>
1

> <i_epik_Tot_abs_Q>
1

> <r_epik_Metal_State_Penalty>
2.01347

> <b_epik_Metal_Only>
0

> <s_lp_Force_Field>
OPLS_2005

> <r_lp_Energy>
15.5699

> <b_lp_Chiralities_Consistent>
1

> <s_lp_Variant>
AV-unprocessed.smi:1356-6

> <Gold.Version>
5.8.1

> <Gold.Id.Protein>
6NUR|6NUR_protein|mol2

> <Gold.PLP.Fitness>
50.4293

> <Gold.PLP.PLP>
-39.0584

> <Gold.PLP.part.hbond>
-4.0050

> <Gold.PLP.part.metal>
0.0000

> <Gold.PLP.part.buried>
-4.0061

> <Gold.PLP.part.nonpolar>
-30.9115

> <Gold.PLP.part.repulsive>
0.4005

> <Gold.PLP.ligand.clash>
0.0000

> <Gold.PLP.ligand.torsion>
0.3558

> <Gold.PLP.Chemscore.Hbond>
3.9435

> <Gold.PLP.Chemscore.CHOScore>
0.0000

> <Gold.PLP.Chemscore.Metal>
0.0000

> <Gold.Chemscore.Hbonds>
donor molecule, donor type, donor heavy atom, donor atom, acceptor molecule, acceptor atom, score
      L1  H     7    28       P1  7948  1.00
      L1  H    20    42       P1  8028  2.00
      P1  H  7989  7998       L1    11  0.20
      P1  H  8011  8017       L1    11  0.63

> <Gold.PLP.Chemscore.Internal.Correction>
0.2521

> <Gold.Rescore>
     Score         DG    S(hbond)    S(metal)    S(lipo)     H(rot)  DE(clash)    DE(int)     intcor
     18.92     -21.13       3.02        0.00      98.10       2.31       0.60       1.61       ----

> <Gold.Chemscore.Fitness>
18.9188

> <Gold.Chemscore.DG>
-21.1278

> <Gold.Chemscore.ZeroCoef>
-5.4800

> <Gold.Chemscore.Hbond>
3.0221

> <Gold.Chemscore.Metal>
0.0000

> <Gold.Chemscore.Lipo>
98.0993

> <Gold.Chemscore.Internal_Hbond>
0.0000

> <Gold.Chemscore.DEClash>
0.5950

> <Gold.Chemscore.DEInternal>
1.6140

> <Gold.Chemscore.Rot>
2.3140

> <Gold.Chemscore.Internal.Correction>
   9.000000E+99

> <Gold.Chemscore.Hbonds>
donor molecule, donor type, donor heavy atom, donor atom, acceptor molecule, acceptor atom, score
      L1  H     7    28       P1  7948  0.99
      L1  H    20    42       P1  8028  0.45
      P1  H  7989  7998       L1    11  0.10
      P1  H  8011  8017       L1    11  0.62

> <Gold.Chemscore.Hbond.Weighted>
-10.0940

> <Gold.Chemscore.Metal.Weighted>
-0.0000

> <Gold.Chemscore.Lipo.Weighted>
-11.4776

> <Gold.Chemscore.Internal_Hbond.Weighted>
0.0000

> <Gold.Chemscore.DEClash.Weighted>
0.5950

> <Gold.Chemscore.DEInternal.Weighted>
1.6140

> <Gold.Chemscore.Rot.Weighted>
5.9238

> <Gold.Chemscore.Internal.Correction.Weighted>
   9.000000E+99

> <Gold.Protein.RotatedTorsions>
[ 6907 6896 6895 6894 ] final   68.71 input  -60.11 | X-H torsion
[ 7974 7965 7964 7962 ] final -159.07 input  175.53 | X-H torsion
[ 8008 7997 7996 7995 ] final -106.41 input   59.86 | X-H torsion
[ 10167 10162 10161 10158 ] final  -24.17 input  -65.29 | X-H torsion
[ 10718 10713 10712 10709 ] final   89.58 input   66.30 | X-H torsion
[ 10763 10752 10751 10750 ] final   37.05 input  -60.55 | X-H torsion
[ 11005 11000 10999 10996 ] final  -64.47 input  -57.11 | X-H torsion

> <Gold.Protein.ActiveResidues>
 VAL166  LYS551  ARG553  GLY616  TRP617  ASP618  TYR619  PRO620  LYS621  CYS622 
 ASP623  PHE694  ASN695  SER759  ASP760  ASP761  ALA762  ILE779  LEU786  VAL792 
 PHE793  MET794  SER795  GLU796  ALA797  LYS798  CYS799  TRP800  GLU811  SER814 

> <Gold.Protein.RotatedAtoms>
  152.4638  134.5122  159.9757 H   0  0  0  0  0  0  0  0  0  0  0  0  # atno 6907 bound_to 6896
  151.5165  133.3469  159.2902 H   0  0  0  0  0  0  0  0  0  0  0  0  # atno 6908 bound_to 6896
  150.8613  134.7995  159.7147 H   0  0  0  0  0  0  0  0  0  0  0  0  # atno 6909 bound_to 6896
  144.7480  140.3738  143.6070 H   0  0  0  0  0  0  0  0  0  0  0  0  # atno 7974 bound_to 7965
  154.9141  140.0409  157.1962 H   0  0  0  0  0  0  0  0  0  0  0  0  # atno 8008 bound_to 7997
  154.8319  140.2900  155.5695 H   0  0  0  0  0  0  0  0  0  0  0  0  # atno 8009 bound_to 7997
  156.2987  140.2499  156.3245 H   0  0  0  0  0  0  0  0  0  0  0  0  # atno 8010 bound_to 7997
  140.7288  143.4377  151.0704 H   0  0  0  0  0  0  0  0  0  0  0  0  # atno 10167 bound_to 10162
  157.6956  131.0338  150.3447 H   0  0  0  0  0  0  0  0  0  0  0  0  # atno 10718 bound_to 10713
  153.0053  135.6289  154.2082 H   0  0  0  0  0  0  0  0  0  0  0  0  # atno 10763 bound_to 10752
  154.1826  135.2812  155.3049 H   0  0  0  0  0  0  0  0  0  0  0  0  # atno 10764 bound_to 10752
  154.5823  135.5643  153.7257 H   0  0  0  0  0  0  0  0  0  0  0  0  # atno 10765 bound_to 10752
  141.1425  133.6666  156.5837 H   0  0  0  0  0  0  0  0  0  0  0  0  # atno 11005 bound_to 11000
  145.7050  139.1670  143.2571 LP  0  0  0  0  0  0  0  0  0  0  0  0  # atno 17320 bound_to 7965
  146.1388  140.7086  142.9377 LP  0  0  0  0  0  0  0  0  0  0  0  0  # atno 17321 bound_to 7965
  139.8041  143.8043  152.3165 LP  0  0  0  0  0  0  0  0  0  0  0  0  # atno 17342 bound_to 10162
  139.8069  144.7351  150.9749 LP  0  0  0  0  0  0  0  0  0  0  0  0  # atno 17343 bound_to 10162
  156.3903  130.3896  149.7035 LP  0  0  0  0  0  0  0  0  0  0  0  0  # atno 17370 bound_to 10713
  156.4387  130.7850  151.2871 LP  0  0  0  0  0  0  0  0  0  0  0  0  # atno 17371 bound_to 10713
  140.3817  134.7517  157.4665 LP  0  0  0  0  0  0  0  0  0  0  0  0  # atno 17394 bound_to 11000
  140.0632  134.5966  155.8725 LP  0  0  0  0  0  0  0  0  0  0  0  0  # atno 17395 bound_to 11000

$$$$
