AV-unprocessed.smi:240|AV-procd|sdf|1835|dock5
  -GOLD-   2262020443D 1   1.00000     0.00000
 Structure written by MMmdl.
 55 59  0  0  0  0  0  0  0  0  1 V2000
  149.0403  143.5607  158.2825 O   0  0  0  0  0  0  0  0  0  0  0  0
  150.3547  143.2858  157.8407 C   0  0  1  0  0  0  0  0  0  0  0  0
  151.3792  143.8470  158.8438 C   0  0  0  0  0  0  0  0  0  0  0  0
  152.0936  142.6355  159.4463 C   0  0  0  0  0  0  0  0  0  0  0  0
  152.0124  141.5706  158.3564 C   0  0  0  0  0  0  0  0  0  0  0  0
  150.6078  141.7603  157.7669 C   0  0  2  0  0  0  0  0  0  0  0  0
  150.3712  141.0737  156.3841 C   0  0  2  0  0  0  0  0  0  0  0  0
  149.8305  142.0447  155.3005 C   0  0  0  0  0  0  0  0  0  0  0  0
  149.6159  141.3595  154.0730 O   0  0  0  0  0  0  0  0  0  0  0  0
  148.6427  140.3343  154.2072 C   0  0  0  0  0  0  0  0  0  0  0  0
  149.1709  139.2857  155.1925 C   0  0  0  0  0  0  0  0  0  0  0  0
  149.4875  139.9004  156.4775 N   0  0  0  0  0  0  0  0  0  0  0  0
  149.8226  138.9379  157.3693 C   0  0  0  0  0  0  0  0  0  0  0  0
  151.1243  138.7292  157.7014 N   0  0  0  0  0  0  0  0  0  0  0  0
  151.4439  137.7720  158.5775 C   0  0  0  0  0  0  0  0  0  0  0  0
  150.6360  136.9279  159.2234 N   0  0  0  0  0  0  0  0  0  0  0  0
  149.3293  137.1338  158.8883 C   0  0  0  0  0  0  0  0  0  0  0  0
  148.8437  138.1001  157.9643 C   0  0  0  0  0  0  0  0  0  0  0  0
  147.4635  138.0063  157.8532 N   0  0  0  0  0  0  0  0  0  0  0  0
  147.1488  137.0381  158.6694 C   0  0  0  0  0  0  0  0  0  0  0  0
  148.2033  136.4753  159.3552 N   0  0  0  0  0  0  0  0  0  0  0  0
  148.1332  135.3891  160.3234 C   0  0  0  0  0  0  0  0  0  0  0  0
  147.0890  135.5810  161.4553 C   0  0  2  0  0  0  0  0  0  0  0  0
  147.5211  136.6900  162.2221 O   0  0  0  0  0  0  0  0  0  0  0  0
  146.9279  134.3896  162.4036 C   0  0  0  0  0  0  0  0  0  0  0  0
  145.4548  134.4422  162.7854 C   0  0  0  0  0  0  0  0  0  0  0  0
  144.8427  134.8293  161.5688 O   0  0  0  0  0  0  0  0  0  0  0  0
  145.6409  135.8532  160.9895 C   0  0  0  0  0  0  0  0  0  0  0  0
  148.8445  144.4668  158.0981 H   0  0  0  0  0  0  0  0  0  0  0  0
  150.4929  143.7734  156.8774 H   0  0  0  0  0  0  0  0  0  0  0  0
  152.1040  144.4616  158.3083 H   0  0  0  0  0  0  0  0  0  0  0  0
  150.9311  144.4779  159.6129 H   0  0  0  0  0  0  0  0  0  0  0  0
  153.1190  142.8586  159.7429 H   0  0  0  0  0  0  0  0  0  0  0  0
  151.5564  142.2947  160.3325 H   0  0  0  0  0  0  0  0  0  0  0  0
  152.7902  141.7666  157.6200 H   0  0  0  0  0  0  0  0  0  0  0  0
  152.1688  140.5643  158.7461 H   0  0  0  0  0  0  0  0  0  0  0  0
  149.9517  141.2893  158.5003 H   0  0  0  0  0  0  0  0  0  0  0  0
  151.3385  140.7160  156.0276 H   0  0  0  0  0  0  0  0  0  0  0  0
  148.9001  142.5232  155.6048 H   0  0  0  0  0  0  0  0  0  0  0  0
  150.5439  142.8422  155.0999 H   0  0  0  0  0  0  0  0  0  0  0  0
  147.6920  140.7502  154.5458 H   0  0  0  0  0  0  0  0  0  0  0  0
  148.4657  139.8804  153.2322 H   0  0  0  0  0  0  0  0  0  0  0  0
  148.4245  138.5008  155.3248 H   0  0  0  0  0  0  0  0  0  0  0  0
  150.0656  138.8130  154.7840 H   0  0  0  0  0  0  0  0  0  0  0  0
  152.4973  137.6695  158.7937 H   0  0  0  0  0  0  0  0  0  0  0  0
  146.1275  136.7106  158.7991 H   0  0  0  0  0  0  0  0  0  0  0  0
  147.9222  134.4682  159.7779 H   0  0  0  0  0  0  0  0  0  0  0  0
  149.1266  135.2615  160.7554 H   0  0  0  0  0  0  0  0  0  0  0  0
  146.7764  137.0435  162.6842 H   0  0  0  0  0  0  0  0  0  0  0  0
  147.1055  133.4460  161.8928 H   0  0  0  0  0  0  0  0  0  0  0  0
  147.5932  134.4201  163.2677 H   0  0  0  0  0  0  0  0  0  0  0  0
  145.0753  133.4844  163.1419 H   0  0  0  0  0  0  0  0  0  0  0  0
  145.2704  135.1972  163.5512 H   0  0  0  0  0  0  0  0  0  0  0  0
  145.2775  136.8199  161.3427 H   0  0  0  0  0  0  0  0  0  0  0  0
  145.5196  135.8471  159.9093 H   0  0  0  0  0  0  0  0  0  0  0  0
  1  2  1  0  0  0  0
  1 29  1  0  0  0  0
  2  6  1  0  0  0  0
  2  3  1  0  0  0  0
  2 30  1  0  0  0  0
  3  4  1  0  0  0  0
  3 31  1  0  0  0  0
  3 32  1  0  0  0  0
  4  5  1  0  0  0  0
  4 33  1  0  0  0  0
  4 34  1  0  0  0  0
  5  6  1  0  0  0  0
  5 35  1  0  0  0  0
  5 36  1  0  0  0  0
  6  7  1  0  0  0  0
  6 37  1  0  0  0  0
  7 12  1  0  0  0  0
  7  8  1  0  0  0  0
  7 38  1  0  0  0  0
  8  9  1  0  0  0  0
  8 39  1  0  0  0  0
  8 40  1  0  0  0  0
  9 10  1  0  0  0  0
 10 11  1  0  0  0  0
 10 41  1  0  0  0  0
 10 42  1  0  0  0  0
 11 12  1  0  0  0  0
 11 43  1  0  0  0  0
 11 44  1  0  0  0  0
 12 13  1  0  0  0  0
 13 18  1  0  0  0  0
 13 14  2  0  0  0  0
 14 15  1  0  0  0  0
 15 16  2  0  0  0  0
 15 45  1  0  0  0  0
 16 17  1  0  0  0  0
 17 21  1  0  0  0  0
 17 18  2  0  0  0  0
 18 19  1  0  0  0  0
 19 20  2  0  0  0  0
 20 21  1  0  0  0  0
 20 46  1  0  0  0  0
 21 22  1  0  0  0  0
 22 23  1  0  0  0  0
 22 47  1  0  0  0  0
 22 48  1  0  0  0  0
 23 28  1  0  0  0  0
 23 24  1  0  0  0  0
 23 25  1  0  0  0  0
 24 49  1  0  0  0  0
 25 26  1  0  0  0  0
 25 50  1  0  0  0  0
 25 51  1  0  0  0  0
 26 27  1  0  0  0  0
 26 52  1  0  0  0  0
 26 53  1  0  0  0  0
 27 28  1  0  0  0  0
 28 54  1  0  0  0  0
 28 55  1  0  0  0  0
M  END
> <s_m_source_file>
AV-unprocessed.smi

> <i_m_source_file_index>
240

> <i_lp_mmshare_version>
43012

> <i_f3d_flags>
0

> <s_epik_input>
W09IXVtDQEBIXTFbQ0gyXVtDSDJdW0NIMl1bQ0BIXTFbQ0BASF0yW0NIMl1PW0NIMl1bQ0gyXU4yYyhuW2NIXW4zKWMoYzM0KW5bY0hdbjRbQ0gyXVtDQEBdNShbT0hdKVtDSDJdW0NIMl1PW0NIMl01

> <s_epik_cmdline>
J2VwaWtfcHl0aG9uJywgJy1waCcsICc3LjAnLCAnLXRuJywgJzgnLCAnLW1hJywgJzIwMCcsICctbWV0YWxfYmluZGluZycsICctaW1hZScsICc8aW5maWxlLm1hZT4nLCAnLW9tYWUnLCAnPG91dGZpbGUubWFlPic=

> <r_lp_tautomer_probability>
1

> <r_epik_Ionization_Penalty>
0.000130618

> <r_epik_Ionization_Penalty_Charging>
0

> <r_epik_Ionization_Penalty_Neutral>
0.000130618

> <r_epik_State_Penalty>
-0

> <r_epik_Charging_Adjusted_Penalty>
0

> <i_epik_Tot_Q>
0

> <i_epik_Tot_abs_Q>
0

> <r_epik_Metal_State_Penalty>
-0

> <b_epik_Metal_Only>
0

> <s_lp_Force_Field>
OPLS_2005

> <r_lp_Energy>
63.043

> <b_lp_Chiralities_Consistent>
1

> <s_lp_Variant>
AV-unprocessed.smi:240-12

> <Gold.Version>
5.8.1

> <Gold.Id.Protein>
6NUR|6NUR_protein|mol2

> <Gold.PLP.Fitness>
49.0723

> <Gold.PLP.PLP>
-41.4089

> <Gold.PLP.part.hbond>
-6.0000

> <Gold.PLP.part.metal>
0.0000

> <Gold.PLP.part.buried>
0.2247

> <Gold.PLP.part.nonpolar>
-34.6464

> <Gold.PLP.part.repulsive>
0.2047

> <Gold.PLP.ligand.clash>
0.0000

> <Gold.PLP.ligand.torsion>
2.1281

> <Gold.PLP.Chemscore.Hbond>
3.9092

> <Gold.PLP.Chemscore.CHOScore>
0.0000

> <Gold.PLP.Chemscore.Metal>
0.0000

> <Gold.Chemscore.Hbonds>
donor molecule, donor type, donor heavy atom, donor atom, acceptor molecule, acceptor atom, score
      L1  H     1    29       P1  8029  0.90
      P1  H  6896  6908       L1    16  1.00
      P1  H  6931  6943       L1    24  0.60
      P1  H  7989  7998       L1     9  0.24
      P1  H  8011  8017       L1     9  0.69

> <Gold.PLP.Chemscore.Internal.Correction>
0.1920

> <Gold.Rescore>
     Score         DG    S(hbond)    S(metal)    S(lipo)     H(rot)  DE(clash)    DE(int)     intcor
     15.47     -19.54       2.79        0.00     106.27       3.00       1.88       2.19       ----

> <Gold.Chemscore.Fitness>
15.4724

> <Gold.Chemscore.DG>
-19.5356

> <Gold.Chemscore.ZeroCoef>
-5.4800

> <Gold.Chemscore.Hbond>
2.7880

> <Gold.Chemscore.Metal>
0.0000

> <Gold.Chemscore.Lipo>
106.2706

> <Gold.Chemscore.Internal_Hbond>
0.0000

> <Gold.Chemscore.DEClash>
1.8762

> <Gold.Chemscore.DEInternal>
2.1871

> <Gold.Chemscore.Rot>
3.0039

> <Gold.Chemscore.Internal.Correction>
   9.000000E+99

> <Gold.Chemscore.Hbonds>
donor molecule, donor type, donor heavy atom, donor atom, acceptor molecule, acceptor atom, score
      L1  H     1    29       P1  8029  0.18
      P1  H  6896  6908       L1    16  0.90
      P1  H  6931  6943       L1    24  0.44
      P1  H  7989  7998       L1     9  0.08
      P1  H  8011  8017       L1     9  0.61

> <Gold.Chemscore.Hbond.Weighted>
-9.3119

> <Gold.Chemscore.Metal.Weighted>
-0.0000

> <Gold.Chemscore.Lipo.Weighted>
-12.4337

> <Gold.Chemscore.Internal_Hbond.Weighted>
0.0000

> <Gold.Chemscore.DEClash.Weighted>
1.8762

> <Gold.Chemscore.DEInternal.Weighted>
2.1871

> <Gold.Chemscore.Rot.Weighted>
7.6899

> <Gold.Chemscore.Internal.Correction.Weighted>
   9.000000E+99

> <Gold.Protein.RotatedTorsions>
[ 6907 6896 6895 6894 ] final -147.31 input  -60.11 | X-H torsion
[ 7974 7965 7964 7962 ] final   82.90 input  175.53 | X-H torsion
[ 8008 7997 7996 7995 ] final  144.51 input   59.86 | X-H torsion
[ 10167 10162 10161 10158 ] final  153.37 input  -65.29 | X-H torsion
[ 10718 10713 10712 10709 ] final  -54.64 input   66.30 | X-H torsion
[ 10763 10752 10751 10750 ] final -176.77 input  -60.55 | X-H torsion
[ 11005 11000 10999 10996 ] final -131.34 input  -57.11 | X-H torsion

> <Gold.Protein.ActiveResidues>
 VAL166  LYS551  ARG553  GLY616  TRP617  ASP618  TYR619  PRO620  LYS621  CYS622 
 ASP623  PHE694  ASN695  SER759  ASP760  ASP761  ALA762  ILE779  LEU786  VAL792 
 PHE793  MET794  SER795  GLU796  ALA797  LYS798  CYS799  TRP800  GLU811  SER814 

> <Gold.Protein.RotatedAtoms>
  151.1538  133.4889  159.2594 H   0  0  0  0  0  0  0  0  0  0  0  0  # atno 6907 bound_to 6896
  151.1525  135.0234  159.8685 H   0  0  0  0  0  0  0  0  0  0  0  0  # atno 6908 bound_to 6896
  152.5463  134.1421  159.8536 H   0  0  0  0  0  0  0  0  0  0  0  0  # atno 6909 bound_to 6896
  145.6190  139.2382  143.2149 H   0  0  0  0  0  0  0  0  0  0  0  0  # atno 7974 bound_to 7965
  156.2906  140.2234  156.5065 H   0  0  0  0  0  0  0  0  0  0  0  0  # atno 8008 bound_to 7997
  154.7645  140.0471  157.1022 H   0  0  0  0  0  0  0  0  0  0  0  0  # atno 8009 bound_to 7997
  154.9950  140.3095  155.4894 H   0  0  0  0  0  0  0  0  0  0  0  0  # atno 8010 bound_to 7997
  139.4827  144.5279  151.7771 H   0  0  0  0  0  0  0  0  0  0  0  0  # atno 10167 bound_to 10162
  156.1434  130.4153  150.0064 H   0  0  0  0  0  0  0  0  0  0  0  0  # atno 10718 bound_to 10713
  154.5682  135.2825  155.0853 H   0  0  0  0  0  0  0  0  0  0  0  0  # atno 10763 bound_to 10752
  154.2235  135.6387  153.5156 H   0  0  0  0  0  0  0  0  0  0  0  0  # atno 10764 bound_to 10752
  153.0049  135.5520  154.6298 H   0  0  0  0  0  0  0  0  0  0  0  0  # atno 10765 bound_to 10752
  140.9267  134.1373  157.4269 H   0  0  0  0  0  0  0  0  0  0  0  0  # atno 11005 bound_to 11000
  146.1446  140.7010  142.9351 LP  0  0  0  0  0  0  0  0  0  0  0  0  # atno 17320 bound_to 7965
  144.7239  140.4462  143.6988 LP  0  0  0  0  0  0  0  0  0  0  0  0  # atno 17321 bound_to 7965
  140.4801  144.1462  150.5931 LP  0  0  0  0  0  0  0  0  0  0  0  0  # atno 17342 bound_to 10162
  140.4287  143.2578  151.9623 LP  0  0  0  0  0  0  0  0  0  0  0  0  # atno 17343 bound_to 10162
  156.7943  130.9267  151.3646 LP  0  0  0  0  0  0  0  0  0  0  0  0  # atno 17370 bound_to 10713
  157.6596  130.8954  149.9801 LP  0  0  0  0  0  0  0  0  0  0  0  0  # atno 17371 bound_to 10713
  139.8787  134.9991  156.5935 LP  0  0  0  0  0  0  0  0  0  0  0  0  # atno 17394 bound_to 11000
  140.7916  133.8577  155.8651 LP  0  0  0  0  0  0  0  0  0  0  0  0  # atno 17395 bound_to 11000

$$$$
