AV-unprocessed.smi:1673|AV-procd|sdf|6709|dock3
  -GOLD-   22720 7453D 1   1.00000     0.00000
 Structure written by MMmdl.
 39 40  0  0  0  0  0  0  0  0  1 V2000
  150.1604  131.9315  155.5548 C   0  0  0  0  0  0  0  0  0  0  0  0
  150.5503  133.3833  155.5881 C   0  0  0  0  0  0  0  0  0  0  0  0
  151.4860  133.7790  156.4386 N   0  0  0  0  0  0  0  0  0  0  0  0
  151.5908  135.1721  156.3040 O   0  0  0  0  0  0  0  0  0  0  0  0
  150.7058  135.5905  155.3621 C   0  0  0  0  0  0  0  0  0  0  0  0
  150.6508  137.0554  155.0874 C   0  0  0  0  0  0  0  0  0  0  0  0
  150.0509  134.5041  154.8617 C   0  0  0  0  0  0  0  0  0  0  0  0
  149.0330  134.5585  153.8772 N   0  0  0  0  0  0  0  0  0  0  0  0
  147.9737  133.7421  153.7710 C   0  0  0  0  0  0  0  0  0  0  0  0
  147.7533  132.7794  154.5054 O   0  0  0  0  0  0  0  0  0  0  0  0
  147.1864  134.0961  152.7449 N   0  0  0  0  0  0  0  0  0  0  0  0
  145.9556  133.4200  152.3361 C   0  0  2  0  0  0  0  0  0  0  0  0
  146.2667  131.9289  152.1002 C   0  0  0  0  0  0  0  0  0  0  0  0
  145.0309  131.1603  151.6106 C   0  0  0  0  0  0  0  0  0  0  0  0
  144.4509  131.8035  150.3441 C   0  0  0  0  0  0  0  0  0  0  0  0
  144.1230  133.2853  150.5799 C   0  0  0  0  0  0  0  0  0  0  0  0
  145.3540  134.0773  151.0666 C   0  0  1  0  0  0  0  0  0  0  0  0
  144.9915  135.5591  151.2736 C   0  0  0  0  0  0  0  0  0  0  0  0
  149.1018  131.8119  155.3250 H   0  0  0  0  0  0  0  0  0  0  0  0
  150.3393  131.4486  156.5161 H   0  0  0  0  0  0  0  0  0  0  0  0
  150.7325  131.3897  154.8015 H   0  0  0  0  0  0  0  0  0  0  0  0
  149.8423  137.2956  154.3969 H   0  0  0  0  0  0  0  0  0  0  0  0
  151.5857  137.4000  154.6454 H   0  0  0  0  0  0  0  0  0  0  0  0
  150.4847  137.6146  156.0082 H   0  0  0  0  0  0  0  0  0  0  0  0
  149.1674  135.2303  153.1360 H   0  0  0  0  0  0  0  0  0  0  0  0
  147.4578  134.9013  152.2001 H   0  0  0  0  0  0  0  0  0  0  0  0
  145.2145  133.4785  153.1357 H   0  0  0  0  0  0  0  0  0  0  0  0
  147.0662  131.8295  151.3644 H   0  0  0  0  0  0  0  0  0  0  0  0
  146.6367  131.4749  153.0204 H   0  0  0  0  0  0  0  0  0  0  0  0
  145.2927  130.1204  151.4131 H   0  0  0  0  0  0  0  0  0  0  0  0
  144.2733  131.1457  152.3951 H   0  0  0  0  0  0  0  0  0  0  0  0
  145.1655  131.7111  149.5251 H   0  0  0  0  0  0  0  0  0  0  0  0
  143.5532  131.2682  150.0335 H   0  0  0  0  0  0  0  0  0  0  0  0
  143.7389  133.7224  149.6577 H   0  0  0  0  0  0  0  0  0  0  0  0
  143.3207  133.3657  151.3150 H   0  0  0  0  0  0  0  0  0  0  0  0
  146.1051  134.0338  150.2761 H   0  0  0  0  0  0  0  0  0  0  0  0
  144.2739  135.6806  152.0855 H   0  0  0  0  0  0  0  0  0  0  0  0
  144.5481  135.9830  150.3723 H   0  0  0  0  0  0  0  0  0  0  0  0
  145.8689  136.1604  151.5118 H   0  0  0  0  0  0  0  0  0  0  0  0
  1  2  1  0  0  0  0
  1 19  1  0  0  0  0
  1 20  1  0  0  0  0
  1 21  1  0  0  0  0
  2  7  1  0  0  0  0
  2  3  2  0  0  0  0
  3  4  1  0  0  0  0
  4  5  1  0  0  0  0
  5  6  1  0  0  0  0
  5  7  2  0  0  0  0
  6 22  1  0  0  0  0
  6 23  1  0  0  0  0
  6 24  1  0  0  0  0
  7  8  1  0  0  0  0
  8  9  1  0  0  0  0
  8 25  1  0  0  0  0
  9 10  2  0  0  0  0
  9 11  1  0  0  0  0
 11 12  1  0  0  0  0
 11 26  1  0  0  0  0
 12 17  1  0  0  0  0
 12 13  1  0  0  0  0
 12 27  1  0  0  0  0
 13 14  1  0  0  0  0
 13 28  1  0  0  0  0
 13 29  1  0  0  0  0
 14 15  1  0  0  0  0
 14 30  1  0  0  0  0
 14 31  1  0  0  0  0
 15 16  1  0  0  0  0
 15 32  1  0  0  0  0
 15 33  1  0  0  0  0
 16 17  1  0  0  0  0
 16 34  1  0  0  0  0
 16 35  1  0  0  0  0
 17 18  1  0  0  0  0
 17 36  1  0  0  0  0
 18 37  1  0  0  0  0
 18 38  1  0  0  0  0
 18 39  1  0  0  0  0
M  END
> <s_m_source_file>
AV-unprocessed.smi

> <i_m_source_file_index>
1673

> <i_lp_mmshare_version>
43012

> <i_f3d_flags>
0

> <s_epik_input>
W0NIM11jMW5vYyhbQ0gzXSljMVtOSF1DKD1PKVtOSF1bQ0BASF0yW0NIMl1bQ0gyXVtDSDJdW0NIMl1bQ0BIXTJbQ0gzXQ==

> <s_epik_cmdline>
J2VwaWtfcHl0aG9uJywgJy1waCcsICc3LjAnLCAnLXRuJywgJzgnLCAnLW1hJywgJzIwMCcsICctbWV0YWxfYmluZGluZycsICctaW1hZScsICc8aW5maWxlLm1hZT4nLCAnLW9tYWUnLCAnPG91dGZpbGUubWFlPic=

> <r_lp_tautomer_probability>
1

> <r_epik_Ionization_Penalty>
4.01865e-05

> <r_epik_Ionization_Penalty_Charging>
0

> <r_epik_Ionization_Penalty_Neutral>
4.01865e-05

> <r_epik_State_Penalty>
-0

> <r_epik_Charging_Adjusted_Penalty>
0

> <i_epik_Tot_Q>
0

> <i_epik_Tot_abs_Q>
0

> <r_epik_Metal_State_Penalty>
-0

> <b_epik_Metal_Only>
0

> <s_lp_Force_Field>
OPLS_2005

> <r_lp_Energy>
12.0287

> <b_lp_Chiralities_Consistent>
1

> <s_lp_Variant>
AV-unprocessed.smi:1673-1

> <Gold.Version>
5.8.1

> <Gold.Id.Protein>
6NUR|6NUR_protein|mol2

> <Gold.PLP.Fitness>
38.6208

> <Gold.PLP.PLP>
-30.8767

> <Gold.PLP.part.hbond>
-3.0000

> <Gold.PLP.part.metal>
0.0000

> <Gold.PLP.part.buried>
-3.1857

> <Gold.PLP.part.nonpolar>
-24.4058

> <Gold.PLP.part.repulsive>
0.0408

> <Gold.PLP.ligand.clash>
0.0000

> <Gold.PLP.ligand.torsion>
0.2164

> <Gold.PLP.Chemscore.Hbond>
2.6388

> <Gold.PLP.Chemscore.CHOScore>
0.0000

> <Gold.PLP.Chemscore.Metal>
0.0000

> <Gold.Chemscore.Hbonds>
donor molecule, donor type, donor heavy atom, donor atom, acceptor molecule, acceptor atom, score
      L1  H     8    25       P1  7948  0.85
      L1  H    11    26       P1  7948  0.88
      P1  H 10752 10763       L1     4  0.87

> <Gold.PLP.Chemscore.Internal.Correction>
0.2604

> <Gold.Rescore>
     Score         DG    S(hbond)    S(metal)    S(lipo)     H(rot)  DE(clash)    DE(int)     intcor
     14.58     -17.16       1.64        0.00      74.78       1.00       0.01       2.57       ----

> <Gold.Chemscore.Fitness>
14.5794

> <Gold.Chemscore.DG>
-17.1589

> <Gold.Chemscore.ZeroCoef>
-5.4800

> <Gold.Chemscore.Hbond>
1.6435

> <Gold.Chemscore.Metal>
0.0000

> <Gold.Chemscore.Lipo>
74.7838

> <Gold.Chemscore.Internal_Hbond>
0.0000

> <Gold.Chemscore.DEClash>
0.0082

> <Gold.Chemscore.DEInternal>
2.5712

> <Gold.Chemscore.Rot>
1.0000

> <Gold.Chemscore.Internal.Correction>
   9.000000E+99

> <Gold.Chemscore.Hbonds>
donor molecule, donor type, donor heavy atom, donor atom, acceptor molecule, acceptor atom, score
      L1  H     8    25       P1  7948  0.14
      L1  H    11    26       P1  7948  0.78
      P1  H 10752 10763       L1     4  0.06

> <Gold.Chemscore.Hbond.Weighted>
-5.4892

> <Gold.Chemscore.Metal.Weighted>
-0.0000

> <Gold.Chemscore.Lipo.Weighted>
-8.7497

> <Gold.Chemscore.Internal_Hbond.Weighted>
0.0000

> <Gold.Chemscore.DEClash.Weighted>
0.0082

> <Gold.Chemscore.DEInternal.Weighted>
2.5712

> <Gold.Chemscore.Rot.Weighted>
2.5600

> <Gold.Chemscore.Internal.Correction.Weighted>
   9.000000E+99

> <Gold.Protein.RotatedTorsions>
[ 6907 6896 6895 6894 ] final  150.65 input  -60.11 | X-H torsion
[ 7974 7965 7964 7962 ] final -167.87 input  175.53 | X-H torsion
[ 8008 7997 7996 7995 ] final  -67.72 input   59.86 | X-H torsion
[ 10167 10162 10161 10158 ] final  -49.75 input  -65.29 | X-H torsion
[ 10718 10713 10712 10709 ] final  135.48 input   66.30 | X-H torsion
[ 10763 10752 10751 10750 ] final  103.30 input  -60.55 | X-H torsion
[ 11005 11000 10999 10996 ] final  -90.13 input  -57.11 | X-H torsion

> <Gold.Protein.ActiveResidues>
 VAL166  LYS551  ARG553  GLY616  TRP617  ASP618  TYR619  PRO620  LYS621  CYS622 
 ASP623  PHE694  ASN695  SER759  ASP760  ASP761  ALA762  ILE779  LEU786  VAL792 
 PHE793  MET794  SER795  GLU796  ALA797  LYS798  CYS799  TRP800  GLU811  SER814 

> <Gold.Protein.RotatedAtoms>
  152.1114  133.4303  159.4632 H   0  0  0  0  0  0  0  0  0  0  0  0  # atno 6907 bound_to 6896
  150.6867  134.2643  159.4571 H   0  0  0  0  0  0  0  0  0  0  0  0  # atno 6908 bound_to 6896
  152.0512  134.9652  160.0625 H   0  0  0  0  0  0  0  0  0  0  0  0  # atno 6909 bound_to 6896
  144.7214  140.2454  143.6286 H   0  0  0  0  0  0  0  0  0  0  0  0  # atno 7974 bound_to 7965
  154.4819  140.0887  156.7397 H   0  0  0  0  0  0  0  0  0  0  0  0  # atno 8008 bound_to 7997
  155.4449  140.3455  155.4276 H   0  0  0  0  0  0  0  0  0  0  0  0  # atno 8009 bound_to 7997
  156.1204  140.1472  156.9201 H   0  0  0  0  0  0  0  0  0  0  0  0  # atno 8010 bound_to 7997
  140.6670  143.2685  151.4261 H   0  0  0  0  0  0  0  0  0  0  0  0  # atno 10167 bound_to 10162
  157.4566  131.1070  150.9970 H   0  0  0  0  0  0  0  0  0  0  0  0  # atno 10718 bound_to 10713
  153.3508  135.3981  155.1644 H   0  0  0  0  0  0  0  0  0  0  0  0  # atno 10763 bound_to 10752
  154.8662  135.3656  154.5224 H   0  0  0  0  0  0  0  0  0  0  0  0  # atno 10764 bound_to 10752
  153.5676  135.7079  153.5579 H   0  0  0  0  0  0  0  0  0  0  0  0  # atno 10765 bound_to 10752
  141.1571  133.7673  156.9694 H   0  0  0  0  0  0  0  0  0  0  0  0  # atno 11005 bound_to 11000
  145.8279  139.2073  143.1899 LP  0  0  0  0  0  0  0  0  0  0  0  0  # atno 17320 bound_to 7965
  146.0456  140.8121  142.9807 LP  0  0  0  0  0  0  0  0  0  0  0  0  # atno 17321 bound_to 7965
  139.5923  144.1473  152.2102 LP  0  0  0  0  0  0  0  0  0  0  0  0  # atno 17342 bound_to 10162
  140.0831  144.5684  150.7108 LP  0  0  0  0  0  0  0  0  0  0  0  0  # atno 17343 bound_to 10162
  157.0782  130.5892  149.5415 LP  0  0  0  0  0  0  0  0  0  0  0  0  # atno 17370 bound_to 10713
  156.0010  130.5089  150.7662 LP  0  0  0  0  0  0  0  0  0  0  0  0  # atno 17371 bound_to 10713
  140.1139  134.9459  157.2106 LP  0  0  0  0  0  0  0  0  0  0  0  0  # atno 17394 bound_to 11000
  140.3158  134.2972  155.7257 LP  0  0  0  0  0  0  0  0  0  0  0  0  # atno 17395 bound_to 11000

$$$$
