AV-unprocessed.smi:3004|AV-procd|sdf|11441|dock9
  -GOLD-   2272016373D 1   1.00000     0.00000
 Structure written by MMmdl.
 47 48  0  0  0  0  0  0  0  0  2 V2000
  153.9266  140.5044  160.9253 C   0  0  0  0  0  0  0  0  0  0  0  0
  153.2171  141.6921  160.3453 C   0  0  0  0  0  0  0  0  0  0  0  0
  153.0421  142.9817  160.9202 C   0  0  0  0  0  0  0  0  0  0  0  0
  152.3322  143.6766  159.9821 C   0  0  0  0  0  0  0  0  0  0  0  0
  151.8402  145.0865  159.9962 C   0  0  0  0  0  0  0  0  0  0  0  0
  152.1141  142.8130  158.9231 N   0  0  0  0  0  0  0  0  0  0  0  0
  151.4152  143.0543  157.6703 C   0  0  0  0  0  0  0  0  0  0  0  0
  150.7737  141.7725  157.1367 C   0  0  0  0  0  0  0  0  0  0  0  0
  150.9773  141.4170  155.9758 O   0  0  0  0  0  0  0  0  0  0  0  0
  150.0011  141.0868  157.9938 N   0  0  0  0  0  0  0  0  0  0  0  0
  149.3066  139.8444  157.6817 C   0  0  0  0  0  0  0  0  0  0  0  0
  147.8254  140.1008  157.3386 C   0  0  0  0  0  0  0  0  0  0  0  0
  147.6326  141.0588  156.2161 N   0  3  2  0  0  0  0  0  0  0  0  0
  146.2319  141.5570  156.1481 C   0  0  0  0  0  0  0  0  0  0  0  0
  146.0899  142.7006  155.1313 C   0  0  0  0  0  0  0  0  0  0  0  0
  146.5802  142.2690  153.7454 C   0  0  0  0  0  0  0  0  0  0  0  0
  148.0191  141.7447  153.8442 C   0  0  0  0  0  0  0  0  0  0  0  0
  148.1595  140.6144  154.8863 C   0  0  2  0  0  0  0  0  0  0  0  0
  147.5512  139.2845  154.3918 C   0  0  0  0  0  0  0  0  0  0  0  0
  152.6613  141.5981  159.1485 N   0  0  0  0  0  0  0  0  0  0  0  0
  154.2420  140.6966  161.9510 H   0  0  0  0  0  0  0  0  0  0  0  0
  154.8164  140.2577  160.3456 H   0  0  0  0  0  0  0  0  0  0  0  0
  153.2803  139.6263  160.9368 H   0  0  0  0  0  0  0  0  0  0  0  0
  153.3859  143.3422  161.8784 H   0  0  0  0  0  0  0  0  0  0  0  0
  152.1457  145.5963  160.9102 H   0  0  0  0  0  0  0  0  0  0  0  0
  150.7519  145.1194  159.9426 H   0  0  0  0  0  0  0  0  0  0  0  0
  152.2403  145.6470  159.1514 H   0  0  0  0  0  0  0  0  0  0  0  0
  150.6495  143.8170  157.8214 H   0  0  0  0  0  0  0  0  0  0  0  0
  152.1194  143.4542  156.9397 H   0  0  0  0  0  0  0  0  0  0  0  0
  149.8936  141.4523  158.9295 H   0  0  0  0  0  0  0  0  0  0  0  0
  149.8108  139.3746  156.8369 H   0  0  0  0  0  0  0  0  0  0  0  0
  149.4128  139.1668  158.5290 H   0  0  0  0  0  0  0  0  0  0  0  0
  147.3049  139.1670  157.1254 H   0  0  0  0  0  0  0  0  0  0  0  0
  147.3436  140.5121  158.2269 H   0  0  0  0  0  0  0  0  0  0  0  0
  145.5552  140.7393  155.8982 H   0  0  0  0  0  0  0  0  0  0  0  0
  145.9259  141.9219  157.1293 H   0  0  0  0  0  0  0  0  0  0  0  0
  145.0499  143.0234  155.0751 H   0  0  0  0  0  0  0  0  0  0  0  0
  146.6637  143.5643  155.4700 H   0  0  0  0  0  0  0  0  0  0  0  0
  145.9242  141.4976  153.3406 H   0  0  0  0  0  0  0  0  0  0  0  0
  146.5342  143.1098  153.0528 H   0  0  0  0  0  0  0  0  0  0  0  0
  148.3614  141.4046  152.8661 H   0  0  0  0  0  0  0  0  0  0  0  0
  148.6767  142.5697  154.1217 H   0  0  0  0  0  0  0  0  0  0  0  0
  149.2312  140.4507  154.9910 H   0  0  0  0  0  0  0  0  0  0  0  0
  147.9506  139.0205  153.4123 H   0  0  0  0  0  0  0  0  0  0  0  0
  146.4670  139.3332  154.2959 H   0  0  0  0  0  0  0  0  0  0  0  0
  147.7909  138.4565  155.0584 H   0  0  0  0  0  0  0  0  0  0  0  0
  148.1846  141.8682  156.4618 H   0  0  0  0  0  0  0  0  0  0  0  0
  1  2  1  0  0  0  0
  1 21  1  0  0  0  0
  1 22  1  0  0  0  0
  1 23  1  0  0  0  0
  2 20  2  0  0  0  0
  2  3  1  0  0  0  0
  3  4  2  0  0  0  0
  3 24  1  0  0  0  0
  4  5  1  0  0  0  0
  4  6  1  0  0  0  0
  5 25  1  0  0  0  0
  5 26  1  0  0  0  0
  5 27  1  0  0  0  0
  6  7  1  0  0  0  0
  6 20  1  0  0  0  0
  7  8  1  0  0  0  0
  7 28  1  0  0  0  0
  7 29  1  0  0  0  0
  8  9  2  0  0  0  0
  8 10  1  0  0  0  0
 10 11  1  0  0  0  0
 10 30  1  0  0  0  0
 11 12  1  0  0  0  0
 11 31  1  0  0  0  0
 11 32  1  0  0  0  0
 12 13  1  0  0  0  0
 12 33  1  0  0  0  0
 12 34  1  0  0  0  0
 13 18  1  0  0  0  0
 13 14  1  0  0  0  0
 13 47  1  0  0  0  0
 14 15  1  0  0  0  0
 14 35  1  0  0  0  0
 14 36  1  0  0  0  0
 15 16  1  0  0  0  0
 15 37  1  0  0  0  0
 15 38  1  0  0  0  0
 16 17  1  0  0  0  0
 16 39  1  0  0  0  0
 16 40  1  0  0  0  0
 17 18  1  0  0  0  0
 17 41  1  0  0  0  0
 17 42  1  0  0  0  0
 18 19  1  0  0  0  0
 18 43  1  0  0  0  0
 19 44  1  0  0  0  0
 19 45  1  0  0  0  0
 19 46  1  0  0  0  0
M  CHG  1  13   1
M  END
> <s_m_source_file>
AV-unprocessed.smi

> <i_m_source_file_index>
3004

> <i_lp_mmshare_version>
43012

> <i_f3d_flags>
0

> <s_epik_input>
W0NIM11jMVtjSF1jKFtDSDNdKW4objEpW0NIMl1DKD1PKVtOSF1bQ0gyXVtDSDJdTjJbQ0gyXVtDSDJdW0NIMl1bQ0gyXVtDQEhdMltDSDNd

> <s_epik_cmdline>
J2VwaWtfcHl0aG9uJywgJy1waCcsICc3LjAnLCAnLXRuJywgJzgnLCAnLW1hJywgJzIwMCcsICctbWV0YWxfYmluZGluZycsICctaW1hZScsICc8aW5maWxlLm1hZT4nLCAnLW9tYWUnLCAnPG91dGZpbGUubWFlPic=

> <r_lp_tautomer_probability>
1

> <r_epik_Ionization_Penalty>
0.00303644

> <r_epik_Ionization_Penalty_Charging>
0.00284254

> <r_epik_Ionization_Penalty_Neutral>
0.000193908

> <r_epik_State_Penalty>
-0

> <r_epik_Charging_Adjusted_Penalty>
0.00284254

> <i_epik_Tot_Q>
1

> <i_epik_Tot_abs_Q>
1

> <r_epik_Metal_State_Penalty>
-0

> <b_epik_Metal_Only>
0

> <s_lp_Force_Field>
OPLS_2005

> <r_lp_Energy>
17.6316

> <b_lp_Chiralities_Consistent>
1

> <s_lp_Variant>
AV-unprocessed.smi:3004-3

> <Gold.Version>
5.8.1

> <Gold.Id.Protein>
6NUR|6NUR_protein|mol2

> <Gold.PLP.Fitness>
39.1185

> <Gold.PLP.PLP>
-40.3897

> <Gold.PLP.part.hbond>
-0.1533

> <Gold.PLP.part.metal>
0.0000

> <Gold.PLP.part.buried>
-6.1449

> <Gold.PLP.part.nonpolar>
-33.6351

> <Gold.PLP.part.repulsive>
0.1998

> <Gold.PLP.ligand.clash>
0.0000

> <Gold.PLP.ligand.torsion>
0.6579

> <Gold.PLP.Chemscore.Hbond>
0.0000

> <Gold.PLP.Chemscore.CHOScore>
0.0000

> <Gold.PLP.Chemscore.Metal>
0.0000

> <Gold.PLP.Chemscore.Internal.Correction>
0.0447

> <Gold.Rescore>
     Score         DG    S(hbond)    S(metal)    S(lipo)     H(rot)  DE(clash)    DE(int)     intcor
     12.17     -12.82       0.00        0.00      99.15       1.67       0.05       0.61       ----

> <Gold.Chemscore.Fitness>
12.1685

> <Gold.Chemscore.DG>
-12.8231

> <Gold.Chemscore.ZeroCoef>
-5.4800

> <Gold.Chemscore.Hbond>
0.0020

> <Gold.Chemscore.Metal>
0.0000

> <Gold.Chemscore.Lipo>
99.1499

> <Gold.Chemscore.Internal_Hbond>
0.0000

> <Gold.Chemscore.DEClash>
0.0495

> <Gold.Chemscore.DEInternal>
0.6051

> <Gold.Chemscore.Rot>
1.6657

> <Gold.Chemscore.Internal.Correction>
   9.000000E+99

> <Gold.Chemscore.Hbond.Weighted>
-0.0066

> <Gold.Chemscore.Metal.Weighted>
-0.0000

> <Gold.Chemscore.Lipo.Weighted>
-11.6005

> <Gold.Chemscore.Internal_Hbond.Weighted>
0.0000

> <Gold.Chemscore.DEClash.Weighted>
0.0495

> <Gold.Chemscore.DEInternal.Weighted>
0.6051

> <Gold.Chemscore.Rot.Weighted>
4.2641

> <Gold.Chemscore.Internal.Correction.Weighted>
   9.000000E+99

> <Gold.Protein.RotatedTorsions>
[ 6907 6896 6895 6894 ] final  -32.87 input  -60.11 | X-H torsion
[ 7974 7965 7964 7962 ] final  164.48 input  175.53 | X-H torsion
[ 8008 7997 7996 7995 ] final -166.77 input   59.86 | X-H torsion
[ 10167 10162 10161 10158 ] final  -78.07 input  -65.29 | X-H torsion
[ 10718 10713 10712 10709 ] final   -9.93 input   66.30 | X-H torsion
[ 10763 10752 10751 10750 ] final   85.98 input  -60.55 | X-H torsion
[ 11005 11000 10999 10996 ] final -126.30 input  -57.11 | X-H torsion

> <Gold.Protein.ActiveResidues>
 VAL166  LYS551  ARG553  GLY616  TRP617  ASP618  TYR619  PRO620  LYS621  CYS622 
 ASP623  PHE694  ASN695  SER759  ASP760  ASP761  ALA762  ILE779  LEU786  VAL792 
 PHE793  MET794  SER795  GLU796  ALA797  LYS798  CYS799  TRP800  GLU811  SER814 

> <Gold.Protein.RotatedAtoms>
  151.0730  134.9810  159.8317 H   0  0  0  0  0  0  0  0  0  0  0  0  # atno 6907 bound_to 6896
  152.5411  134.2275  159.8822 H   0  0  0  0  0  0  0  0  0  0  0  0  # atno 6908 bound_to 6896
  151.2301  133.4411  159.2637 H   0  0  0  0  0  0  0  0  0  0  0  0  # atno 6909 bound_to 6896
  144.7543  139.8332  143.6355 H   0  0  0  0  0  0  0  0  0  0  0  0  # atno 7974 bound_to 7965
  155.8685  140.0989  157.1566 H   0  0  0  0  0  0  0  0  0  0  0  0  # atno 8008 bound_to 7997
  154.3995  140.1351  156.4112 H   0  0  0  0  0  0  0  0  0  0  0  0  # atno 8009 bound_to 7997
  155.7777  140.3459  155.5283 H   0  0  0  0  0  0  0  0  0  0  0  0  # atno 8010 bound_to 7997
  140.4715  143.2425  151.8198 H   0  0  0  0  0  0  0  0  0  0  0  0  # atno 10167 bound_to 10162
  156.6808  130.5036  149.5972 H   0  0  0  0  0  0  0  0  0  0  0  0  # atno 10718 bound_to 10713
  153.1527  135.4597  154.9659 H   0  0  0  0  0  0  0  0  0  0  0  0  # atno 10763 bound_to 10752
  154.7837  135.3197  154.7936 H   0  0  0  0  0  0  0  0  0  0  0  0  # atno 10764 bound_to 10752
  153.8439  135.6927  153.4854 H   0  0  0  0  0  0  0  0  0  0  0  0  # atno 10765 bound_to 10752
  140.9692  134.0829  157.3887 H   0  0  0  0  0  0  0  0  0  0  0  0  # atno 11005 bound_to 11000
  146.1534  139.4625  143.0034 LP  0  0  0  0  0  0  0  0  0  0  0  0  # atno 17320 bound_to 7965
  145.6833  141.0185  143.1595 LP  0  0  0  0  0  0  0  0  0  0  0  0  # atno 17321 bound_to 7965
  139.4819  144.4886  151.9214 LP  0  0  0  0  0  0  0  0  0  0  0  0  # atno 17342 bound_to 10162
  140.3971  144.2541  150.5895 LP  0  0  0  0  0  0  0  0  0  0  0  0  # atno 17343 bound_to 10162
  156.1869  130.6535  151.1016 LP  0  0  0  0  0  0  0  0  0  0  0  0  # atno 17370 bound_to 10713
  157.7044  131.0762  150.6715 LP  0  0  0  0  0  0  0  0  0  0  0  0  # atno 17371 bound_to 10713
  139.8906  135.0113  156.6744 LP  0  0  0  0  0  0  0  0  0  0  0  0  # atno 17394 bound_to 11000
  140.7354  133.9023  155.8240 LP  0  0  0  0  0  0  0  0  0  0  0  0  # atno 17395 bound_to 11000

$$$$
