AV-unprocessed.smi:1576|AV-procd|sdf|6347|dock7
  -GOLD-   22720 6563D 1   1.00000     0.00000
 Structure written by MMmdl.
 45 47  0  0  0  0  0  0  0  0  3 V2000
  139.8350  136.7689  155.3564 O   0  0  0  0  0  0  0  0  0  0  0  0
  140.3497  137.8539  155.0631 C   0  0  0  0  0  0  0  0  0  0  0  0
  141.4420  137.8991  154.2798 N   0  0  0  0  0  0  0  0  0  0  0  0
  142.1779  136.8263  153.7098 C   0  0  0  0  0  0  0  0  0  0  0  0
  143.0941  137.1300  152.6805 C   0  0  0  0  0  0  0  0  0  0  0  0
  143.8563  136.0978  152.0963 C   0  0  0  0  0  0  0  0  0  0  0  0
  143.6983  134.7726  152.5624 C   0  0  0  0  0  0  0  0  0  0  0  0
  144.4074  133.6828  152.0406 N   0  0  0  0  0  0  0  0  0  0  0  0
  143.9502  133.2968  150.7080 C   0  0  0  0  0  0  0  0  0  0  0  0
  144.6257  131.9916  150.2532 C   0  0  0  0  0  0  0  0  0  0  0  0
  146.1562  132.1072  150.3368 C   0  0  0  0  0  0  0  0  0  0  0  0
  146.5801  132.5433  151.7486 C   0  0  0  0  0  0  0  0  0  0  0  0
  145.8548  133.8342  152.1675 C   0  0  0  0  0  0  0  0  0  0  0  0
  142.8263  134.5241  153.5633 N   0  3  0  0  0  0  0  0  0  0  0  0
  142.0762  135.4836  154.1479 C   0  0  0  0  0  0  0  0  0  0  0  0
  139.9281  139.0959  155.4237 N   0  5  0  0  0  0  0  0  0  0  0  0
  138.5294  139.5419  155.4269 C   0  0  2  0  0  0  0  0  0  0  0  0
  137.9257  139.3902  154.0107 C   0  0  0  0  0  0  0  0  0  0  0  0
  138.3625  140.5729  153.1367 C   0  0  0  0  0  0  0  0  0  0  0  0
  138.4251  142.0095  154.2681 S   0  0  0  0  0  0  0  0  0  0  0  0
  139.7024  142.7169  154.0867 O   0  0  0  0  0  0  0  0  0  0  0  0
  137.1472  142.7355  154.1971 O   0  0  0  0  0  0  0  0  0  0  0  0
  138.4627  141.0299  155.8233 C   0  0  0  0  0  0  0  0  0  0  0  0
  141.7379  138.8257  154.0097 H   0  0  0  0  0  0  0  0  0  0  0  0
  143.2077  138.1466  152.3331 H   0  0  0  0  0  0  0  0  0  0  0  0
  144.5511  136.3258  151.3014 H   0  0  0  0  0  0  0  0  0  0  0  0
  142.8668  133.1700  150.7139 H   0  0  0  0  0  0  0  0  0  0  0  0
  144.1749  134.0944  149.9987 H   0  0  0  0  0  0  0  0  0  0  0  0
  144.2869  131.1669  150.8817 H   0  0  0  0  0  0  0  0  0  0  0  0
  144.3227  131.7494  149.2343 H   0  0  0  0  0  0  0  0  0  0  0  0
  146.6212  131.1549  150.0800 H   0  0  0  0  0  0  0  0  0  0  0  0
  146.5098  132.8353  149.6056 H   0  0  0  0  0  0  0  0  0  0  0  0
  146.3511  131.7487  152.4599 H   0  0  0  0  0  0  0  0  0  0  0  0
  147.6596  132.6917  151.7870 H   0  0  0  0  0  0  0  0  0  0  0  0
  146.1914  134.6649  151.5456 H   0  0  0  0  0  0  0  0  0  0  0  0
  146.1091  134.0832  153.1987 H   0  0  0  0  0  0  0  0  0  0  0  0
  141.4361  135.1400  154.9469 H   0  0  0  0  0  0  0  0  0  0  0  0
  137.9361  138.9642  156.1373 H   0  0  0  0  0  0  0  0  0  0  0  0
  138.1739  138.4338  153.5484 H   0  0  0  0  0  0  0  0  0  0  0  0
  136.8391  139.4144  154.0992 H   0  0  0  0  0  0  0  0  0  0  0  0
  139.3627  140.4141  152.7304 H   0  0  0  0  0  0  0  0  0  0  0  0
  137.6793  140.7708  152.3110 H   0  0  0  0  0  0  0  0  0  0  0  0
  137.5384  141.2366  156.3625 H   0  0  0  0  0  0  0  0  0  0  0  0
  139.2947  141.3533  156.4498 H   0  0  0  0  0  0  0  0  0  0  0  0
  142.7289  133.5646  153.8959 H   0  0  0  0  0  0  0  0  0  0  0  0
  1  2  2  0  0  0  0
  2  3  1  0  0  0  0
  2 16  1  0  0  0  0
  3  4  1  0  0  0  0
  3 24  1  0  0  0  0
  4 15  1  0  0  0  0
  4  5  2  0  0  0  0
  5  6  1  0  0  0  0
  5 25  1  0  0  0  0
  6  7  2  0  0  0  0
  6 26  1  0  0  0  0
  7  8  1  0  0  0  0
  7 14  1  0  0  0  0
  8 13  1  0  0  0  0
  8  9  1  0  0  0  0
  9 10  1  0  0  0  0
  9 27  1  0  0  0  0
  9 28  1  0  0  0  0
 10 11  1  0  0  0  0
 10 29  1  0  0  0  0
 10 30  1  0  0  0  0
 11 12  1  0  0  0  0
 11 31  1  0  0  0  0
 11 32  1  0  0  0  0
 12 13  1  0  0  0  0
 12 33  1  0  0  0  0
 12 34  1  0  0  0  0
 13 35  1  0  0  0  0
 13 36  1  0  0  0  0
 14 15  2  0  0  0  0
 14 45  1  0  0  0  0
 15 37  1  0  0  0  0
 16 17  1  0  0  0  0
 17 23  1  0  0  0  0
 17 18  1  0  0  0  0
 17 38  1  0  0  0  0
 18 19  1  0  0  0  0
 18 39  1  0  0  0  0
 18 40  1  0  0  0  0
 19 20  1  0  0  0  0
 19 41  1  0  0  0  0
 19 42  1  0  0  0  0
 20 21  2  0  0  0  0
 20 22  2  0  0  0  0
 20 23  1  0  0  0  0
 23 43  1  0  0  0  0
 23 44  1  0  0  0  0
M  CHG  1  14   1
M  CHG  1  16  -1
M  END
> <s_m_source_file>
AV-unprocessed.smi

> <i_m_source_file_index>
1576

> <i_lp_mmshare_version>
43012

> <i_f3d_flags>
0

> <s_epik_input>
Tz1TMSg9TylbQ0gyXVtDSDJdW0NASF0oW0NIMl0xKVtOSF1DKD1PKVtOSF1jMltjSF1bY0hdYyhuW2NIXTIpTjNbQ0gyXVtDSDJdW0NIMl1bQ0gyXVtDSDJdMw==

> <s_epik_cmdline>
J2VwaWtfcHl0aG9uJywgJy1waCcsICc3LjAnLCAnLXRuJywgJzgnLCAnLW1hJywgJzIwMCcsICctbWV0YWxfYmluZGluZycsICctaW1hZScsICc8aW5maWxlLm1hZT4nLCAnLW9tYWUnLCAnPG91dGZpbGUubWFlPic=

> <r_lp_tautomer_probability>
0.999994

> <r_epik_Ionization_Penalty>
8.26491

> <r_epik_Ionization_Penalty_Charging>
8.26491

> <r_epik_Ionization_Penalty_Neutral>
3.15169e-06

> <r_epik_State_Penalty>
7.8977

> <r_epik_Charging_Adjusted_Penalty>
16.1626

> <i_epik_Tot_Q>
0

> <i_epik_Tot_abs_Q>
2

> <r_epik_Metal_State_Penalty>
3.88896

> <b_epik_Metal_Only>
1

> <s_lp_Force_Field>
OPLS_2005

> <r_lp_Energy>
29.9243

> <b_lp_Chiralities_Consistent>
1

> <s_lp_Variant>
AV-unprocessed.smi:1576-5

> <Gold.Version>
5.8.1

> <Gold.Id.Protein>
6NUR|6NUR_protein|mol2

> <Gold.PLP.Fitness>
42.3895

> <Gold.PLP.PLP>
-31.3415

> <Gold.PLP.part.hbond>
-3.0000

> <Gold.PLP.part.metal>
0.0000

> <Gold.PLP.part.buried>
-3.9991

> <Gold.PLP.part.nonpolar>
-25.5165

> <Gold.PLP.part.repulsive>
0.3009

> <Gold.PLP.ligand.clash>
0.0000

> <Gold.PLP.ligand.torsion>
0.5504

> <Gold.PLP.Chemscore.Hbond>
4.0000

> <Gold.PLP.Chemscore.CHOScore>
0.0000

> <Gold.PLP.Chemscore.Metal>
0.0000

> <Gold.Chemscore.Hbonds>
donor molecule, donor type, donor heavy atom, donor atom, acceptor molecule, acceptor atom, score
      L1  H    14    45       P1 10957  2.00
      P1  H 10162 10167       L1    21  1.00
      P1  H 11000 11005       L1     1  0.89

> <Gold.PLP.Chemscore.Internal.Correction>
0.1487

> <Gold.Rescore>
     Score         DG    S(hbond)    S(metal)    S(lipo)     H(rot)  DE(clash)    DE(int)     intcor
     19.00     -20.93       2.92        0.00      75.73       1.24       0.00       1.93       ----

> <Gold.Chemscore.Fitness>
18.9985

> <Gold.Chemscore.DG>
-20.9339

> <Gold.Chemscore.ZeroCoef>
-5.4800

> <Gold.Chemscore.Hbond>
2.9218

> <Gold.Chemscore.Metal>
0.0000

> <Gold.Chemscore.Lipo>
75.7340

> <Gold.Chemscore.Internal_Hbond>
0.0000

> <Gold.Chemscore.DEClash>
0.0015

> <Gold.Chemscore.DEInternal>
1.9339

> <Gold.Chemscore.Rot>
1.2366

> <Gold.Chemscore.Internal.Correction>
   9.000000E+99

> <Gold.Chemscore.Hbonds>
donor molecule, donor type, donor heavy atom, donor atom, acceptor molecule, acceptor atom, score
      L1  H    14    45       P1 10957  0.96
      P1  H 10162 10167       L1    21  0.83
      P1  H 11000 11005       L1     1  0.83

> <Gold.Chemscore.Hbond.Weighted>
-9.7587

> <Gold.Chemscore.Metal.Weighted>
-0.0000

> <Gold.Chemscore.Lipo.Weighted>
-8.8609

> <Gold.Chemscore.Internal_Hbond.Weighted>
0.0000

> <Gold.Chemscore.DEClash.Weighted>
0.0015

> <Gold.Chemscore.DEInternal.Weighted>
1.9339

> <Gold.Chemscore.Rot.Weighted>
3.1657

> <Gold.Chemscore.Internal.Correction.Weighted>
   9.000000E+99

> <Gold.Protein.RotatedTorsions>
[ 6907 6896 6895 6894 ] final  -18.04 input  -60.11 | X-H torsion
[ 7974 7965 7964 7962 ] final   53.97 input  175.53 | X-H torsion
[ 8008 7997 7996 7995 ] final  147.86 input   59.86 | X-H torsion
[ 10167 10162 10161 10158 ] final -137.59 input  -65.29 | X-H torsion
[ 10718 10713 10712 10709 ] final  165.23 input   66.30 | X-H torsion
[ 10763 10752 10751 10750 ] final   87.23 input  -60.55 | X-H torsion
[ 11005 11000 10999 10996 ] final   92.58 input  -57.11 | X-H torsion

> <Gold.Protein.ActiveResidues>
 VAL166  LYS551  ARG553  GLY616  TRP617  ASP618  TYR619  PRO620  LYS621  CYS622 
 ASP623  PHE694  ASN695  SER759  ASP760  ASP761  ALA762  ILE779  LEU786  VAL792 
 PHE793  MET794  SER795  GLU796  ALA797  LYS798  CYS799  TRP800  GLU811  SER814 

> <Gold.Protein.RotatedAtoms>
  151.2842  135.0723  159.9180 H   0  0  0  0  0  0  0  0  0  0  0  0  # atno 6907 bound_to 6896
  152.5328  133.9999  159.7900 H   0  0  0  0  0  0  0  0  0  0  0  0  # atno 6908 bound_to 6896
  151.0258  133.5784  159.2697 H   0  0  0  0  0  0  0  0  0  0  0  0  # atno 6909 bound_to 6896
  145.9657  139.4101  143.0221 H   0  0  0  0  0  0  0  0  0  0  0  0  # atno 7974 bound_to 7965
  156.2811  140.2144  156.5605 H   0  0  0  0  0  0  0  0  0  0  0  0  # atno 8008 bound_to 7997
  154.7217  140.0503  157.0668 H   0  0  0  0  0  0  0  0  0  0  0  0  # atno 8009 bound_to 7997
  155.0470  140.3152  155.4708 H   0  0  0  0  0  0  0  0  0  0  0  0  # atno 8010 bound_to 7997
  139.8562  143.7135  152.2654 H   0  0  0  0  0  0  0  0  0  0  0  0  # atno 10167 bound_to 10162
  157.0830  131.0397  151.2567 H   0  0  0  0  0  0  0  0  0  0  0  0  # atno 10718 bound_to 10713
  153.1648  135.4551  154.9822 H   0  0  0  0  0  0  0  0  0  0  0  0  # atno 10763 bound_to 10752
  154.7924  135.3225  154.7749 H   0  0  0  0  0  0  0  0  0  0  0  0  # atno 10764 bound_to 10752
  153.8233  135.6945  153.4879 H   0  0  0  0  0  0  0  0  0  0  0  0  # atno 10765 bound_to 10752
  139.8821  134.8741  156.3593 H   0  0  0  0  0  0  0  0  0  0  0  0  # atno 11005 bound_to 11000
  145.7977  140.9785  143.1015 LP  0  0  0  0  0  0  0  0  0  0  0  0  # atno 17320 bound_to 7965
  144.6825  139.9762  143.7483 LP  0  0  0  0  0  0  0  0  0  0  0  0  # atno 17321 bound_to 7965
  139.7417  144.7557  151.0642 LP  0  0  0  0  0  0  0  0  0  0  0  0  # atno 17342 bound_to 10162
  140.7781  143.4964  150.9827 LP  0  0  0  0  0  0  0  0  0  0  0  0  # atno 17343 bound_to 10162
  157.4784  130.7750  149.7390 LP  0  0  0  0  0  0  0  0  0  0  0  0  # atno 17370 bound_to 10713
  155.9918  130.3935  150.2968 LP  0  0  0  0  0  0  0  0  0  0  0  0  # atno 17371 bound_to 10713
  140.9541  133.7432  156.0311 LP  0  0  0  0  0  0  0  0  0  0  0  0  # atno 17394 bound_to 11000
  140.8070  134.3443  157.5423 LP  0  0  0  0  0  0  0  0  0  0  0  0  # atno 17395 bound_to 11000

$$$$
