AV-unprocessed.smi:3154|AV-procd|sdf|12023|dock6
  -GOLD-   2272017433D 1   1.00000     0.00000
 Structure written by MMmdl.
 34 35  0  0  0  0  0  0  0  0  1 V2000
  147.6592  141.6362  155.0351 C   0  0  0  0  0  0  0  0  0  0  0  0
  149.1548  141.4415  154.7361 C   0  0  2  0  0  0  0  0  0  0  0  0
  149.5781  139.9499  154.7487 C   0  0  0  0  0  0  0  0  0  0  0  0
  150.9260  139.7118  154.2573 N   0  0  0  0  0  0  0  0  0  0  0  0
  151.3912  138.6519  153.5067 C   0  0  0  0  0  0  0  0  0  0  0  0
  152.7208  138.8653  153.2805 C   0  0  0  0  0  0  0  0  0  0  0  0
  152.9803  140.1012  153.9363 C   0  0  0  0  0  0  0  0  0  0  0  0
  151.9037  140.6077  154.5149 N   0  0  0  0  0  0  0  0  0  0  0  0
  149.8993  142.2514  155.6976 N   0  0  0  0  0  0  0  0  0  0  0  0
  149.6665  141.8554  157.0939 C   0  0  0  0  0  0  0  0  0  0  0  0
  150.4556  142.7142  158.0859 C   0  0  0  0  0  0  0  0  0  0  0  0
  151.1591  142.1922  158.9522 O   0  0  0  0  0  0  0  0  0  0  0  0
  150.3258  144.0413  157.9420 N   0  0  0  0  0  0  0  0  0  0  0  0
  150.9647  145.0305  158.7486 C   0  0  0  0  0  0  0  0  0  0  0  0
  152.2939  144.6736  159.3780 C   0  0  0  0  0  0  0  0  0  0  0  0
  151.0623  144.7675  160.2358 C   0  0  0  0  0  0  0  0  0  0  0  0
  147.0448  141.0495  154.3514 H   0  0  0  0  0  0  0  0  0  0  0  0
  147.3683  142.6809  154.9201 H   0  0  0  0  0  0  0  0  0  0  0  0
  147.4050  141.3352  156.0520 H   0  0  0  0  0  0  0  0  0  0  0  0
  149.3382  141.8420  153.7379 H   0  0  0  0  0  0  0  0  0  0  0  0
  149.5309  139.5770  155.7727 H   0  0  0  0  0  0  0  0  0  0  0  0
  148.8824  139.3282  154.1853 H   0  0  0  0  0  0  0  0  0  0  0  0
  150.7446  137.8417  153.2030 H   0  0  0  0  0  0  0  0  0  0  0  0
  153.4035  138.2350  152.7305 H   0  0  0  0  0  0  0  0  0  0  0  0
  153.9121  140.6428  154.0068 H   0  0  0  0  0  0  0  0  0  0  0  0
  150.8819  142.1967  155.4706 H   0  0  0  0  0  0  0  0  0  0  0  0
  148.6108  141.9516  157.3440 H   0  0  0  0  0  0  0  0  0  0  0  0
  149.9426  140.8083  157.2274 H   0  0  0  0  0  0  0  0  0  0  0  0
  149.7299  144.3775  157.1995 H   0  0  0  0  0  0  0  0  0  0  0  0
  150.8350  146.0723  158.4584 H   0  0  0  0  0  0  0  0  0  0  0  0
  152.6979  143.6812  159.1867 H   0  0  0  0  0  0  0  0  0  0  0  0
  153.0331  145.4666  159.4715 H   0  0  0  0  0  0  0  0  0  0  0  0
  150.9788  145.6231  160.9028 H   0  0  0  0  0  0  0  0  0  0  0  0
  150.6454  143.8376  160.6182 H   0  0  0  0  0  0  0  0  0  0  0  0
  1  2  1  0  0  0  0
  1 17  1  0  0  0  0
  1 18  1  0  0  0  0
  1 19  1  0  0  0  0
  2  3  1  0  0  0  0
  2  9  1  0  0  0  0
  2 20  1  0  0  0  0
  3  4  1  0  0  0  0
  3 21  1  0  0  0  0
  3 22  1  0  0  0  0
  4  8  1  0  0  0  0
  4  5  1  0  0  0  0
  5  6  2  0  0  0  0
  5 23  1  0  0  0  0
  6  7  1  0  0  0  0
  6 24  1  0  0  0  0
  7  8  2  0  0  0  0
  7 25  1  0  0  0  0
  9 10  1  0  0  0  0
  9 26  1  0  0  0  0
 10 11  1  0  0  0  0
 10 27  1  0  0  0  0
 10 28  1  0  0  0  0
 11 12  2  0  0  0  0
 11 13  1  0  0  0  0
 13 14  1  0  0  0  0
 13 29  1  0  0  0  0
 14 16  1  0  0  0  0
 14 15  1  0  0  0  0
 14 30  1  0  0  0  0
 15 16  1  0  0  0  0
 15 31  1  0  0  0  0
 15 32  1  0  0  0  0
 16 33  1  0  0  0  0
 16 34  1  0  0  0  0
M  END
> <s_m_source_file>
AV-unprocessed.smi

> <i_m_source_file_index>
3154

> <i_lp_mmshare_version>
43012

> <i_f3d_flags>
0

> <s_epik_input>
bjFbY0hdW2NIXVtjSF1uMVtDSDJdW0NAQEhdKFtDSDNdKVtOSF1bQ0gyXUMoPU8pW05IXVtDSF0yW0NIMl1bQ0gyXTI=

> <s_epik_cmdline>
J2VwaWtfcHl0aG9uJywgJy1waCcsICc3LjAnLCAnLXRuJywgJzgnLCAnLW1hJywgJzIwMCcsICctbWV0YWxfYmluZGluZycsICctaW1hZScsICc8aW5maWxlLm1hZT4nLCAnLW9tYWUnLCAnPG91dGZpbGUubWFlPic=

> <r_lp_tautomer_probability>
1

> <r_epik_Ionization_Penalty>
1.00229

> <r_epik_Ionization_Penalty_Charging>
0

> <r_epik_Ionization_Penalty_Neutral>
1.00229

> <r_epik_State_Penalty>
1.0509

> <r_epik_Charging_Adjusted_Penalty>
1.0509

> <i_epik_Tot_Q>
0

> <i_epik_Tot_abs_Q>
0

> <r_epik_Metal_State_Penalty>
1.05084

> <b_epik_Metal_Only>
0

> <s_lp_Force_Field>
OPLS_2005

> <r_lp_Energy>
19.1763

> <b_lp_Chiralities_Consistent>
1

> <s_lp_Variant>
AV-unprocessed.smi:3154-3

> <Gold.Version>
5.8.1

> <Gold.Id.Protein>
6NUR|6NUR_protein|mol2

> <Gold.PLP.Fitness>
45.2052

> <Gold.PLP.PLP>
-38.6676

> <Gold.PLP.part.hbond>
-3.3435

> <Gold.PLP.part.metal>
0.0000

> <Gold.PLP.part.buried>
-2.5691

> <Gold.PLP.part.nonpolar>
-32.0033

> <Gold.PLP.part.repulsive>
0.0690

> <Gold.PLP.ligand.clash>
0.0000

> <Gold.PLP.ligand.torsion>
0.7786

> <Gold.PLP.Chemscore.Hbond>
1.6448

> <Gold.PLP.Chemscore.CHOScore>
1.0290

> <Gold.PLP.Chemscore.Metal>
0.0000

> <Gold.Chemscore.Hbonds>
donor molecule, donor type, donor heavy atom, donor atom, acceptor molecule, acceptor atom, score
      L1  H    13    29       P1  8028  1.00
      L1  C     5    23       P1  7948  0.27
      L1  C     5    23       P1  7949  0.73

> <Gold.PLP.Chemscore.Internal.Correction>
0.0734

> <Gold.Rescore>
     Score         DG    S(hbond)    S(metal)    S(lipo)     H(rot)  DE(clash)    DE(int)     intcor
     10.04     -13.88       0.90        0.00      92.46       2.12       0.72       3.13       ----

> <Gold.Chemscore.Fitness>
10.0395

> <Gold.Chemscore.DG>
-13.8838

> <Gold.Chemscore.ZeroCoef>
-5.4800

> <Gold.Chemscore.Hbond>
0.9040

> <Gold.Chemscore.Metal>
0.0000

> <Gold.Chemscore.Lipo>
92.4628

> <Gold.Chemscore.Internal_Hbond>
0.0000

> <Gold.Chemscore.DEClash>
0.7161

> <Gold.Chemscore.DEInternal>
3.1283

> <Gold.Chemscore.Rot>
2.1225

> <Gold.Chemscore.Internal.Correction>
   9.000000E+99

> <Gold.Chemscore.Hbonds>
donor molecule, donor type, donor heavy atom, donor atom, acceptor molecule, acceptor atom, score
      L1  H    13    29       P1  8028  0.30

> <Gold.Chemscore.Hbond.Weighted>
-3.0194

> <Gold.Chemscore.Metal.Weighted>
-0.0000

> <Gold.Chemscore.Lipo.Weighted>
-10.8181

> <Gold.Chemscore.Internal_Hbond.Weighted>
0.0000

> <Gold.Chemscore.DEClash.Weighted>
0.7161

> <Gold.Chemscore.DEInternal.Weighted>
3.1283

> <Gold.Chemscore.Rot.Weighted>
5.4337

> <Gold.Chemscore.Internal.Correction.Weighted>
   9.000000E+99

> <Gold.Protein.RotatedTorsions>
[ 6907 6896 6895 6894 ] final -114.04 input  -60.11 | X-H torsion
[ 7974 7965 7964 7962 ] final  -53.85 input  175.53 | X-H torsion
[ 8008 7997 7996 7995 ] final   95.85 input   59.86 | X-H torsion
[ 10167 10162 10161 10158 ] final -153.97 input  -65.29 | X-H torsion
[ 10718 10713 10712 10709 ] final  134.93 input   66.30 | X-H torsion
[ 10763 10752 10751 10750 ] final  104.08 input  -60.55 | X-H torsion
[ 11005 11000 10999 10996 ] final -164.12 input  -57.11 | X-H torsion

> <Gold.Protein.ActiveResidues>
 VAL166  LYS551  ARG553  GLY616  TRP617  ASP618  TYR619  PRO620  LYS621  CYS622 
 ASP623  PHE694  ASN695  SER759  ASP760  ASP761  ALA762  ILE779  LEU786  VAL792 
 PHE793  MET794  SER795  GLU796  ALA797  LYS798  CYS799  TRP800  GLU811  SER814 

> <Gold.Protein.RotatedAtoms>
  150.7873  133.8859  159.3298 H   0  0  0  0  0  0  0  0  0  0  0  0  # atno 6907 bound_to 6896
  151.6706  135.0975  160.0206 H   0  0  0  0  0  0  0  0  0  0  0  0  # atno 6908 bound_to 6896
  152.3939  133.6680  159.6295 H   0  0  0  0  0  0  0  0  0  0  0  0  # atno 6909 bound_to 6896
  145.8922  140.8061  142.9786 H   0  0  0  0  0  0  0  0  0  0  0  0  # atno 7974 bound_to 7965
  156.0733  140.3281  155.7603 H   0  0  0  0  0  0  0  0  0  0  0  0  # atno 8008 bound_to 7997
  155.5270  140.0590  157.2913 H   0  0  0  0  0  0  0  0  0  0  0  0  # atno 8009 bound_to 7997
  154.4542  140.1934  156.0446 H   0  0  0  0  0  0  0  0  0  0  0  0  # atno 8010 bound_to 7997
  139.7052  143.9197  152.2446 H   0  0  0  0  0  0  0  0  0  0  0  0  # atno 10167 bound_to 10162
  157.4623  131.1074  150.9905 H   0  0  0  0  0  0  0  0  0  0  0  0  # atno 10718 bound_to 10713
  153.3612  135.3955  155.1719 H   0  0  0  0  0  0  0  0  0  0  0  0  # atno 10763 bound_to 10752
  154.8679  135.3680  154.5097 H   0  0  0  0  0  0  0  0  0  0  0  0  # atno 10764 bound_to 10752
  153.5557  135.7082  153.5631 H   0  0  0  0  0  0  0  0  0  0  0  0  # atno 10765 bound_to 10752
  140.5905  134.5050  157.5192 H   0  0  0  0  0  0  0  0  0  0  0  0  # atno 11005 bound_to 11000
  144.6731  140.1547  143.7427 LP  0  0  0  0  0  0  0  0  0  0  0  0  # atno 17320 bound_to 7965
  145.8894  139.2367  143.1558 LP  0  0  0  0  0  0  0  0  0  0  0  0  # atno 17321 bound_to 7965
  139.9051  144.6889  150.8623 LP  0  0  0  0  0  0  0  0  0  0  0  0  # atno 17342 bound_to 10162
  140.7720  143.3485  151.2063 LP  0  0  0  0  0  0  0  0  0  0  0  0  # atno 17343 bound_to 10162
  157.0698  130.5859  149.5400 LP  0  0  0  0  0  0  0  0  0  0  0  0  # atno 17370 bound_to 10713
  156.0034  130.5117  150.7745 LP  0  0  0  0  0  0  0  0  0  0  0  0  # atno 17371 bound_to 10713
  139.9276  134.8025  156.1022 LP  0  0  0  0  0  0  0  0  0  0  0  0  # atno 17394 bound_to 11000
  141.0938  133.6703  156.2599 LP  0  0  0  0  0  0  0  0  0  0  0  0  # atno 17395 bound_to 11000

$$$$
