AV-unprocessed.smi:2802|AV-procd|sdf|10804|dock4
  -GOLD-   2272015233D 1   1.00000     0.00000
 Structure written by MMmdl.
 47 48  0  0  0  0  0  0  0  0  1 V2000
  146.2000  139.6102  157.5233 C   0  0  0  0  0  0  0  0  0  0  0  0
  146.9630  140.2189  156.3373 C   0  0  1  0  0  0  0  0  0  0  0  0
  146.0636  141.1732  155.5340 C   0  0  0  0  0  0  0  0  0  0  0  0
  146.7697  141.7964  154.3098 C   0  0  0  0  0  0  0  0  0  0  0  0
  146.9162  140.7630  153.1706 C   0  0  0  0  0  0  0  0  0  0  0  0
  145.8786  142.9312  153.7617 C   0  0  0  0  0  0  0  0  0  0  0  0
  148.1359  142.4137  154.7265 C   0  0  0  0  0  0  0  0  0  0  0  0
  149.0671  141.5841  155.6692 C   0  0  1  0  0  0  0  0  0  0  0  0
  149.8734  140.4950  154.9030 C   0  0  0  0  0  0  0  0  0  0  0  0
  150.0762  140.8344  153.5440 O   0  0  0  0  0  0  0  0  0  0  0  0
  150.0039  142.5103  156.3282 N   0  0  0  0  0  0  0  0  0  0  0  0
  151.1035  142.2233  157.0480 C   0  0  0  0  0  0  0  0  0  0  0  0
  151.5105  141.0780  157.2473 O   0  0  0  0  0  0  0  0  0  0  0  0
  151.8450  143.4365  157.6224 C   0  0  0  0  0  0  0  0  0  0  0  0
  152.0944  143.3088  159.1165 C   0  0  0  0  0  0  0  0  0  0  0  0
  151.6576  144.3070  160.0122 C   0  0  0  0  0  0  0  0  0  0  0  0
  151.9137  144.1437  161.3871 C   0  0  0  0  0  0  0  0  0  0  0  0
  152.5983  142.9862  161.8089 C   0  0  0  0  0  0  0  0  0  0  0  0
  153.0215  142.0240  160.9608 N   0  0  0  0  0  0  0  0  0  0  0  0
  152.7718  142.1884  159.6438 C   0  0  0  0  0  0  0  0  0  0  0  0
  148.2245  140.9610  156.8124 C   0  0  0  0  0  0  0  0  0  0  0  0
  145.8643  140.3809  158.2179 H   0  0  0  0  0  0  0  0  0  0  0  0
  146.8278  138.9127  158.0783 H   0  0  0  0  0  0  0  0  0  0  0  0
  145.3205  139.0617  157.1848 H   0  0  0  0  0  0  0  0  0  0  0  0
  147.2622  139.3885  155.6991 H   0  0  0  0  0  0  0  0  0  0  0  0
  145.1613  140.6507  155.2131 H   0  0  0  0  0  0  0  0  0  0  0  0
  145.7249  141.9689  156.1995 H   0  0  0  0  0  0  0  0  0  0  0  0
  147.4922  141.1689  152.3385 H   0  0  0  0  0  0  0  0  0  0  0  0
  145.9405  140.4762  152.7770 H   0  0  0  0  0  0  0  0  0  0  0  0
  147.3955  139.8404  153.4829 H   0  0  0  0  0  0  0  0  0  0  0  0
  146.3324  143.4070  152.8917 H   0  0  0  0  0  0  0  0  0  0  0  0
  145.7095  143.7089  154.5073 H   0  0  0  0  0  0  0  0  0  0  0  0
  144.8996  142.5585  153.4578 H   0  0  0  0  0  0  0  0  0  0  0  0
  148.6787  142.7164  153.8304 H   0  0  0  0  0  0  0  0  0  0  0  0
  147.9122  143.3475  155.2459 H   0  0  0  0  0  0  0  0  0  0  0  0
  150.8582  140.3431  155.3332 H   0  0  0  0  0  0  0  0  0  0  0  0
  149.3683  139.5300  154.9443 H   0  0  0  0  0  0  0  0  0  0  0  0
  149.8330  140.0934  153.0103 H   0  0  0  0  0  0  0  0  0  0  0  0
  149.7723  143.4888  156.2388 H   0  0  0  0  0  0  0  0  0  0  0  0
  152.7949  143.5550  157.0997 H   0  0  0  0  0  0  0  0  0  0  0  0
  151.2638  144.3400  157.4321 H   0  0  0  0  0  0  0  0  0  0  0  0
  151.1379  145.1835  159.6537 H   0  0  0  0  0  0  0  0  0  0  0  0
  151.5945  144.8881  162.1014 H   0  0  0  0  0  0  0  0  0  0  0  0
  152.8114  142.8292  162.8560 H   0  0  0  0  0  0  0  0  0  0  0  0
  153.1250  141.4034  158.9913 H   0  0  0  0  0  0  0  0  0  0  0  0
  147.9077  141.7522  157.4948 H   0  0  0  0  0  0  0  0  0  0  0  0
  148.8409  140.2914  157.4136 H   0  0  0  0  0  0  0  0  0  0  0  0
  1  2  1  0  0  0  0
  1 22  1  0  0  0  0
  1 23  1  0  0  0  0
  1 24  1  0  0  0  0
  2 21  1  0  0  0  0
  2  3  1  0  0  0  0
  2 25  1  0  0  0  0
  3  4  1  0  0  0  0
  3 26  1  0  0  0  0
  3 27  1  0  0  0  0
  4  5  1  0  0  0  0
  4  6  1  0  0  0  0
  4  7  1  0  0  0  0
  5 28  1  0  0  0  0
  5 29  1  0  0  0  0
  5 30  1  0  0  0  0
  6 31  1  0  0  0  0
  6 32  1  0  0  0  0
  6 33  1  0  0  0  0
  7  8  1  0  0  0  0
  7 34  1  0  0  0  0
  7 35  1  0  0  0  0
  8  9  1  0  0  0  0
  8 11  1  0  0  0  0
  8 21  1  0  0  0  0
  9 10  1  0  0  0  0
  9 36  1  0  0  0  0
  9 37  1  0  0  0  0
 10 38  1  0  0  0  0
 11 12  1  0  0  0  0
 11 39  1  0  0  0  0
 12 13  2  0  0  0  0
 12 14  1  0  0  0  0
 14 15  1  0  0  0  0
 14 40  1  0  0  0  0
 14 41  1  0  0  0  0
 15 20  1  0  0  0  0
 15 16  2  0  0  0  0
 16 17  1  0  0  0  0
 16 42  1  0  0  0  0
 17 18  2  0  0  0  0
 17 43  1  0  0  0  0
 18 19  1  0  0  0  0
 18 44  1  0  0  0  0
 19 20  2  0  0  0  0
 20 45  1  0  0  0  0
 21 46  1  0  0  0  0
 21 47  1  0  0  0  0
M  END
> <s_m_source_file>
AV-unprocessed.smi

> <i_m_source_file_index>
2802

> <i_lp_mmshare_version>
43012

> <i_f3d_flags>
0

> <s_epik_input>
W0NIM11DMShbQ0gzXSlbQ0gyXVtDQEBIXShbQ0gzXSlbQ0gyXVtDQF0oW0NIMl0xKShbQ0gyXVtPSF0pW05IXUMoPU8pW0NIMl1jMltjSF1bY0hdW2NIXW5bY0hdMg==

> <s_epik_cmdline>
J2VwaWtfcHl0aG9uJywgJy1waCcsICc3LjAnLCAnLXRuJywgJzgnLCAnLW1hJywgJzIwMCcsICctbWV0YWxfYmluZGluZycsICctaW1hZScsICc8aW5maWxlLm1hZT4nLCAnLW9tYWUnLCAnPG91dGZpbGUubWFlPic=

> <r_epik_Ionization_Penalty>
0.004793

> <r_epik_Ionization_Penalty_Charging>
0

> <r_epik_Ionization_Penalty_Neutral>
0.004793

> <r_epik_State_Penalty>
0.00347421

> <r_epik_Charging_Adjusted_Penalty>
0.00347421

> <i_epik_Tot_Q>
0

> <i_epik_Tot_abs_Q>
0

> <r_epik_Metal_State_Penalty>
-0

> <b_epik_Metal_Only>
0

> <s_lp_Force_Field>
OPLS_2005

> <r_lp_Energy>
22.6817

> <b_lp_Chiralities_Consistent>
1

> <s_lp_Variant>
AV-unprocessed.smi:2802-2

> <Gold.Version>
5.8.1

> <Gold.Id.Protein>
6NUR|6NUR_protein|mol2

> <Gold.PLP.Fitness>
47.8322

> <Gold.PLP.PLP>
-41.0622

> <Gold.PLP.part.hbond>
-3.2533

> <Gold.PLP.part.metal>
0.0000

> <Gold.PLP.part.buried>
0.4668

> <Gold.PLP.part.nonpolar>
-37.7361

> <Gold.PLP.part.repulsive>
0.0927

> <Gold.PLP.ligand.clash>
0.0000

> <Gold.PLP.ligand.torsion>
0.9600

> <Gold.PLP.Chemscore.Hbond>
2.8870

> <Gold.PLP.Chemscore.CHOScore>
0.0000

> <Gold.PLP.Chemscore.Metal>
0.0000

> <Gold.Chemscore.Hbonds>
donor molecule, donor type, donor heavy atom, donor atom, acceptor molecule, acceptor atom, score
      L1  H    10    38       P1  7957  0.56
      L1  H    11    39       P1  8028  1.00
      P1  H  7989  7998       L1    10  0.36
      P1  H  8011  8017       L1    10  0.98

> <Gold.PLP.Chemscore.Internal.Correction>
0.0289

> <Gold.Rescore>
     Score         DG    S(hbond)    S(metal)    S(lipo)     H(rot)  DE(clash)    DE(int)     intcor
     16.01     -20.38       2.14        0.00     109.96       2.00       2.14       2.24       ----

> <Gold.Chemscore.Fitness>
16.0064

> <Gold.Chemscore.DG>
-20.3824

> <Gold.Chemscore.ZeroCoef>
-5.4800

> <Gold.Chemscore.Hbond>
2.1447

> <Gold.Chemscore.Metal>
0.0000

> <Gold.Chemscore.Lipo>
109.9641

> <Gold.Chemscore.Internal_Hbond>
0.0000

> <Gold.Chemscore.DEClash>
2.1357

> <Gold.Chemscore.DEInternal>
2.2403

> <Gold.Chemscore.Rot>
2.0026

> <Gold.Chemscore.Internal.Correction>
   9.000000E+99

> <Gold.Chemscore.Hbonds>
donor molecule, donor type, donor heavy atom, donor atom, acceptor molecule, acceptor atom, score
      L1  H    10    38       P1  7957  0.56
      L1  H    11    39       P1  8028  0.97
      P1  H  7989  7998       L1    10  0.06
      P1  H  8011  8017       L1    10  0.40

> <Gold.Chemscore.Hbond.Weighted>
-7.1633

> <Gold.Chemscore.Metal.Weighted>
-0.0000

> <Gold.Chemscore.Lipo.Weighted>
-12.8658

> <Gold.Chemscore.Internal_Hbond.Weighted>
0.0000

> <Gold.Chemscore.DEClash.Weighted>
2.1357

> <Gold.Chemscore.DEInternal.Weighted>
2.2403

> <Gold.Chemscore.Rot.Weighted>
5.1267

> <Gold.Chemscore.Internal.Correction.Weighted>
   9.000000E+99

> <Gold.Protein.RotatedTorsions>
[ 6907 6896 6895 6894 ] final    8.14 input  -60.11 | X-H torsion
[ 7974 7965 7964 7962 ] final    9.78 input  175.53 | X-H torsion
[ 8008 7997 7996 7995 ] final -149.41 input   59.86 | X-H torsion
[ 10167 10162 10161 10158 ] final   73.32 input  -65.29 | X-H torsion
[ 10718 10713 10712 10709 ] final  -93.58 input   66.30 | X-H torsion
[ 10763 10752 10751 10750 ] final   10.78 input  -60.55 | X-H torsion
[ 11005 11000 10999 10996 ] final -108.86 input  -57.11 | X-H torsion

> <Gold.Protein.ActiveResidues>
 VAL166  LYS551  ARG553  GLY616  TRP617  ASP618  TYR619  PRO620  LYS621  CYS622 
 ASP623  PHE694  ASN695  SER759  ASP760  ASP761  ALA762  ILE779  LEU786  VAL792 
 PHE793  MET794  SER795  GLU796  ALA797  LYS798  CYS799  TRP800  GLU811  SER814 

> <Gold.Protein.RotatedAtoms>
  151.7012  135.0930  160.0250 H   0  0  0  0  0  0  0  0  0  0  0  0  # atno 6907 bound_to 6896
  152.3719  133.6426  159.6102 H   0  0  0  0  0  0  0  0  0  0  0  0  # atno 6908 bound_to 6896
  150.7680  133.9172  159.3428 H   0  0  0  0  0  0  0  0  0  0  0  0  # atno 6909 bound_to 6896
  146.2398  139.9732  142.8444 H   0  0  0  0  0  0  0  0  0  0  0  0  # atno 7974 bound_to 7965
  155.6072  140.0668  157.2716 H   0  0  0  0  0  0  0  0  0  0  0  0  # atno 8008 bound_to 7997
  154.4263  140.1808  156.1282 H   0  0  0  0  0  0  0  0  0  0  0  0  # atno 8009 bound_to 7997
  156.0113  140.3326  155.6947 H   0  0  0  0  0  0  0  0  0  0  0  0  # atno 8010 bound_to 7997
  140.0258  144.5505  150.7546 H   0  0  0  0  0  0  0  0  0  0  0  0  # atno 10167 bound_to 10162
  156.0015  130.5033  150.5797 H   0  0  0  0  0  0  0  0  0  0  0  0  # atno 10718 bound_to 10713
  153.1996  135.6854  153.8248 H   0  0  0  0  0  0  0  0  0  0  0  0  # atno 10763 bound_to 10752
  153.7519  135.3222  155.3323 H   0  0  0  0  0  0  0  0  0  0  0  0  # atno 10764 bound_to 10752
  154.8164  135.4683  154.0756 H   0  0  0  0  0  0  0  0  0  0  0  0  # atno 10765 bound_to 10752
  141.0879  133.9107  157.2143 H   0  0  0  0  0  0  0  0  0  0  0  0  # atno 11005 bound_to 11000
  145.1661  140.9697  143.4349 LP  0  0  0  0  0  0  0  0  0  0  0  0  # atno 17320 bound_to 7965
  145.0071  139.3544  143.6138 LP  0  0  0  0  0  0  0  0  0  0  0  0  # atno 17321 bound_to 7965
  140.7323  143.2704  151.3906 LP  0  0  0  0  0  0  0  0  0  0  0  0  # atno 17342 bound_to 10162
  139.6109  144.1100  152.2298 LP  0  0  0  0  0  0  0  0  0  0  0  0  # atno 17343 bound_to 10162
  157.3679  131.0761  151.1582 LP  0  0  0  0  0  0  0  0  0  0  0  0  # atno 17370 bound_to 10713
  157.2345  130.6540  149.5863 LP  0  0  0  0  0  0  0  0  0  0  0  0  # atno 17371 bound_to 10713
  139.9700  135.0131  156.9487 LP  0  0  0  0  0  0  0  0  0  0  0  0  # atno 17394 bound_to 11000
  140.5320  134.0804  155.7318 LP  0  0  0  0  0  0  0  0  0  0  0  0  # atno 17395 bound_to 11000

$$$$
