AV-unprocessed.smi:113|AV-procd|sdf|1091|dock1
  -GOLD-   2262018193D 1   1.00000     0.00000
 Structure written by MMmdl.
 52 55  0  0  0  0  0  0  0  0  1 V2000
  154.3555  140.0860  162.0280 C   0  0  0  0  0  0  0  0  0  0  0  0
  153.5474  140.8963  161.0359 C   0  0  0  0  0  0  0  0  0  0  0  0
  153.3268  140.4200  159.7313 C   0  0  0  0  0  0  0  0  0  0  0  0
  152.5716  141.2071  158.8320 C   0  0  0  0  0  0  0  0  0  0  0  0
  152.3030  140.7354  157.3985 C   0  0  0  0  0  0  0  0  0  0  0  0
  151.0175  140.1003  157.1442 N   0  0  0  0  0  0  0  0  0  0  0  0
  150.6365  139.0195  157.9759 C   0  0  0  0  0  0  0  0  0  0  0  0
  151.3647  138.6178  158.8861 O   0  0  0  0  0  0  0  0  0  0  0  0
  149.3379  138.4198  157.6606 C   0  0  0  0  0  0  0  0  0  0  0  0
  148.8510  137.2693  158.5278 C   0  0  0  0  0  0  0  0  0  0  0  0
  148.6107  138.8950  156.6209 C   0  0  0  0  0  0  0  0  0  0  0  0
  149.0187  139.9396  155.8059 N   0  0  0  0  0  0  0  0  0  0  0  0
  148.1799  140.4342  154.6416 C   0  0  2  0  0  0  0  0  0  0  0  0
  146.6961  140.1690  154.8958 C   0  0  0  0  0  0  0  0  0  0  0  0
  146.5354  138.7792  154.3174 C   0  0  1  0  0  0  0  0  0  0  0  0
  145.1872  138.5077  153.9899 O   0  0  0  0  0  0  0  0  0  0  0  0
  147.5076  138.7922  153.1230 C   0  0  1  0  0  0  0  0  0  0  0  0
  146.9134  139.2556  151.7775 C   0  0  0  0  0  0  0  0  0  0  0  0
  145.8778  138.3896  151.3614 O   0  0  0  0  0  0  0  0  0  0  0  0
  148.5201  139.7399  153.4766 O   0  0  0  0  0  0  0  0  0  0  0  0
  150.2530  140.5753  156.0554 C   0  0  0  0  0  0  0  0  0  0  0  0
  150.6427  141.5022  155.3409 O   0  0  0  0  0  0  0  0  0  0  0  0
  152.0687  142.4518  159.2983 C   0  0  0  0  0  0  0  0  0  0  0  0
  151.3010  143.2992  158.4628 C   0  0  0  0  0  0  0  0  0  0  0  0
  150.8129  144.5273  158.9435 C   0  0  0  0  0  0  0  0  0  0  0  0
  151.0874  144.9223  160.2632 C   0  0  0  0  0  0  0  0  0  0  0  0
  151.8491  144.0863  161.0994 C   0  0  0  0  0  0  0  0  0  0  0  0
  152.3482  142.8488  160.6393 C   0  0  0  0  0  0  0  0  0  0  0  0
  153.0744  142.0778  161.4781 N   0  0  0  0  0  0  0  0  0  0  0  0
  154.3171  139.0237  161.7855 H   0  0  0  0  0  0  0  0  0  0  0  0
  153.9725  140.2139  163.0412 H   0  0  0  0  0  0  0  0  0  0  0  0
  155.3981  140.4041  162.0115 H   0  0  0  0  0  0  0  0  0  0  0  0
  153.7376  139.4649  159.4404 H   0  0  0  0  0  0  0  0  0  0  0  0
  152.3969  141.5717  156.7041 H   0  0  0  0  0  0  0  0  0  0  0  0
  153.0777  140.0352  157.0820 H   0  0  0  0  0  0  0  0  0  0  0  0
  147.8726  136.9065  158.2113 H   0  0  0  0  0  0  0  0  0  0  0  0
  148.7679  137.5848  159.5683 H   0  0  0  0  0  0  0  0  0  0  0  0
  149.5482  136.4323  158.4774 H   0  0  0  0  0  0  0  0  0  0  0  0
  147.6596  138.4222  156.4303 H   0  0  0  0  0  0  0  0  0  0  0  0
  148.4302  141.4897  154.5238 H   0  0  0  0  0  0  0  0  0  0  0  0
  146.4294  140.2471  155.9502 H   0  0  0  0  0  0  0  0  0  0  0  0
  146.1157  140.8990  154.3298 H   0  0  0  0  0  0  0  0  0  0  0  0
  146.8716  138.0443  155.0497 H   0  0  0  0  0  0  0  0  0  0  0  0
  144.8258  139.2639  153.5528 H   0  0  0  0  0  0  0  0  0  0  0  0
  147.9739  137.8144  152.9966 H   0  0  0  0  0  0  0  0  0  0  0  0
  146.5479  140.2814  151.8324 H   0  0  0  0  0  0  0  0  0  0  0  0
  147.6832  139.2337  151.0057 H   0  0  0  0  0  0  0  0  0  0  0  0
  145.2503  138.8908  150.8630 H   0  0  0  0  0  0  0  0  0  0  0  0
  151.0720  143.0265  157.4441 H   0  0  0  0  0  0  0  0  0  0  0  0
  150.2277  145.1663  158.2986 H   0  0  0  0  0  0  0  0  0  0  0  0
  150.7144  145.8653  160.6347 H   0  0  0  0  0  0  0  0  0  0  0  0
  152.0534  144.4009  162.1125 H   0  0  0  0  0  0  0  0  0  0  0  0
  1  2  1  0  0  0  0
  1 30  1  0  0  0  0
  1 31  1  0  0  0  0
  1 32  1  0  0  0  0
  2 29  1  0  0  0  0
  2  3  2  0  0  0  0
  3  4  1  0  0  0  0
  3 33  1  0  0  0  0
  4  5  1  0  0  0  0
  4 23  2  0  0  0  0
  5  6  1  0  0  0  0
  5 34  1  0  0  0  0
  5 35  1  0  0  0  0
  6 21  1  0  0  0  0
  6  7  1  0  0  0  0
  7  8  2  0  0  0  0
  7  9  1  0  0  0  0
  9 10  1  0  0  0  0
  9 11  2  0  0  0  0
 10 36  1  0  0  0  0
 10 37  1  0  0  0  0
 10 38  1  0  0  0  0
 11 12  1  0  0  0  0
 11 39  1  0  0  0  0
 12 13  1  0  0  0  0
 12 21  1  0  0  0  0
 13 20  1  0  0  0  0
 13 14  1  0  0  0  0
 13 40  1  0  0  0  0
 14 15  1  0  0  0  0
 14 41  1  0  0  0  0
 14 42  1  0  0  0  0
 15 16  1  0  0  0  0
 15 17  1  0  0  0  0
 15 43  1  0  0  0  0
 16 44  1  0  0  0  0
 17 18  1  0  0  0  0
 17 20  1  0  0  0  0
 17 45  1  0  0  0  0
 18 19  1  0  0  0  0
 18 46  1  0  0  0  0
 18 47  1  0  0  0  0
 19 48  1  0  0  0  0
 21 22  2  0  0  0  0
 23 28  1  0  0  0  0
 23 24  1  0  0  0  0
 24 25  2  0  0  0  0
 24 49  1  0  0  0  0
 25 26  1  0  0  0  0
 25 50  1  0  0  0  0
 26 27  2  0  0  0  0
 26 51  1  0  0  0  0
 27 28  1  0  0  0  0
 27 52  1  0  0  0  0
 28 29  2  0  0  0  0
M  END
> <s_m_source_file>
AV-unprocessed.smi

> <i_m_source_file_index>
113

> <i_lp_mmshare_version>
43012

> <i_f3d_flags>
0

> <s_epik_input>
W2NIXTFbY0hdW2NIXVtjSF1jKGMxMiluYyhbQ0gzXSlbY0hdYzJbQ0gyXW4zYyg9TyljKFtDSDNdKVtjSF1uKGMzPU8pW0NAQEhdNFtDSDJdW0NAQEhdKFtPSF0pW0NASF0oTzQpW0NIMl1bT0hd

> <s_epik_cmdline>
J2VwaWtfcHl0aG9uJywgJy1waCcsICc3LjAnLCAnLXRuJywgJzgnLCAnLW1hJywgJzIwMCcsICctbWV0YWxfYmluZGluZycsICctaW1hZScsICc8aW5maWxlLm1hZT4nLCAnLW9tYWUnLCAnPG91dGZpbGUubWFlPic=

> <r_lp_tautomer_probability>
1

> <r_epik_Ionization_Penalty>
0.214728

> <r_epik_Ionization_Penalty_Charging>
3.04883e-08

> <r_epik_Ionization_Penalty_Neutral>
0.214728

> <r_epik_State_Penalty>
0.204913

> <r_epik_Charging_Adjusted_Penalty>
0.204913

> <i_epik_Tot_Q>
0

> <i_epik_Tot_abs_Q>
0

> <r_epik_Metal_State_Penalty>
0.000244761

> <b_epik_Metal_Only>
0

> <s_epik_Chemistry_Notes>
This compound contains an acetal/aminal-like group ( X-CH(R)-Y where X, Y are N, S, or O) that may be acid/base labile, releasing an aldehyde.

> <s_lp_Force_Field>
OPLS_2005

> <r_lp_Energy>
41.1863

> <b_lp_Chiralities_Consistent>
1

> <s_lp_Variant>
AV-unprocessed.smi:113-1

> <Gold.Version>
5.8.1

> <Gold.Id.Protein>
6NUR|6NUR_protein|mol2

> <Gold.PLP.Fitness>
52.6717

> <Gold.PLP.PLP>
-47.2955

> <Gold.PLP.part.hbond>
-3.8347

> <Gold.PLP.part.metal>
0.0000

> <Gold.PLP.part.buried>
-5.5226

> <Gold.PLP.part.nonpolar>
-40.3272

> <Gold.PLP.part.repulsive>
2.3337

> <Gold.PLP.ligand.clash>
0.0000

> <Gold.PLP.ligand.torsion>
1.1278

> <Gold.PLP.Chemscore.Hbond>
2.5392

> <Gold.PLP.Chemscore.CHOScore>
0.0000

> <Gold.PLP.Chemscore.Metal>
0.0000

> <Gold.Chemscore.Hbonds>
donor molecule, donor type, donor heavy atom, donor atom, acceptor molecule, acceptor atom, score
      L1  H    16    44       P1 10175  1.00
      L1  H    19    48       P1 10171  0.78
      P1  H  7989  7998       L1    22  0.31

> <Gold.PLP.Chemscore.Internal.Correction>
0.0141

> <Gold.Rescore>
     Score         DG    S(hbond)    S(metal)    S(lipo)     H(rot)  DE(clash)    DE(int)     intcor
     15.21     -21.82       2.47        0.00     133.50       2.95       2.80       3.81       ----

> <Gold.Chemscore.Fitness>
15.2121

> <Gold.Chemscore.DG>
-21.8200

> <Gold.Chemscore.ZeroCoef>
-5.4800

> <Gold.Chemscore.Hbond>
2.4745

> <Gold.Chemscore.Metal>
0.0000

> <Gold.Chemscore.Lipo>
133.4974

> <Gold.Chemscore.Internal_Hbond>
0.0000

> <Gold.Chemscore.DEClash>
2.7975

> <Gold.Chemscore.DEInternal>
3.8105

> <Gold.Chemscore.Rot>
2.9469

> <Gold.Chemscore.Internal.Correction>
   9.000000E+99

> <Gold.Chemscore.Hbonds>
donor molecule, donor type, donor heavy atom, donor atom, acceptor molecule, acceptor atom, score
      L1  H    16    44       P1 10175  0.97
      L1  H    19    48       P1 10171  0.78
      P1  H  7989  7998       L1    22  0.28

> <Gold.Chemscore.Hbond.Weighted>
-8.2647

> <Gold.Chemscore.Metal.Weighted>
-0.0000

> <Gold.Chemscore.Lipo.Weighted>
-15.6192

> <Gold.Chemscore.Internal_Hbond.Weighted>
0.0000

> <Gold.Chemscore.DEClash.Weighted>
2.7975

> <Gold.Chemscore.DEInternal.Weighted>
3.8105

> <Gold.Chemscore.Rot.Weighted>
7.5439

> <Gold.Chemscore.Internal.Correction.Weighted>
   9.000000E+99

> <Gold.Protein.RotatedTorsions>
[ 6907 6896 6895 6894 ] final   62.78 input  -60.11 | X-H torsion
[ 7974 7965 7964 7962 ] final  111.52 input  175.53 | X-H torsion
[ 8008 7997 7996 7995 ] final -147.51 input   59.86 | X-H torsion
[ 10167 10162 10161 10158 ] final  177.36 input  -65.29 | X-H torsion
[ 10718 10713 10712 10709 ] final -177.22 input   66.30 | X-H torsion
[ 10763 10752 10751 10750 ] final   75.57 input  -60.55 | X-H torsion
[ 11005 11000 10999 10996 ] final  -29.01 input  -57.11 | X-H torsion

> <Gold.Protein.ActiveResidues>
 VAL166  LYS551  ARG553  GLY616  TRP617  ASP618  TYR619  PRO620  LYS621  CYS622 
 ASP623  PHE694  ASN695  SER759  ASP760  ASP761  ALA762  ILE779  LEU786  VAL792 
 PHE793  MET794  SER795  GLU796  ALA797  LYS798  CYS799  TRP800  GLU811  SER814 

> <Gold.Protein.RotatedAtoms>
  152.4200  134.5973  159.9990 H   0  0  0  0  0  0  0  0  0  0  0  0  # atno 6907 bound_to 6896
  151.6125  133.3340  159.3078 H   0  0  0  0  0  0  0  0  0  0  0  0  # atno 6908 bound_to 6896
  150.8088  134.7268  159.6734 H   0  0  0  0  0  0  0  0  0  0  0  0  # atno 6909 bound_to 6896
  145.2412  139.2778  143.4117 H   0  0  0  0  0  0  0  0  0  0  0  0  # atno 7974 bound_to 7965
  155.5767  140.0639  157.2793 H   0  0  0  0  0  0  0  0  0  0  0  0  # atno 8008 bound_to 7997
  154.4344  140.1859  156.0981 H   0  0  0  0  0  0  0  0  0  0  0  0  # atno 8009 bound_to 7997
  156.0335  140.3303  155.7169 H   0  0  0  0  0  0  0  0  0  0  0  0  # atno 8010 bound_to 7997
  139.5250  144.2807  152.0549 H   0  0  0  0  0  0  0  0  0  0  0  0  # atno 10167 bound_to 10162
  156.8262  130.9637  151.3109 H   0  0  0  0  0  0  0  0  0  0  0  0  # atno 10718 bound_to 10713
  153.0664  135.4983  154.8209 H   0  0  0  0  0  0  0  0  0  0  0  0  # atno 10763 bound_to 10752
  154.6960  135.2993  154.9413 H   0  0  0  0  0  0  0  0  0  0  0  0  # atno 10764 bound_to 10752
  154.0153  135.6749  153.4821 H   0  0  0  0  0  0  0  0  0  0  0  0  # atno 10765 bound_to 10752
  140.9259  133.7369  156.0866 H   0  0  0  0  0  0  0  0  0  0  0  0  # atno 11005 bound_to 11000
  146.3328  140.2775  142.8608 LP  0  0  0  0  0  0  0  0  0  0  0  0  # atno 17320 bound_to 7965
  144.9587  140.8253  143.5526 LP  0  0  0  0  0  0  0  0  0  0  0  0  # atno 17321 bound_to 7965
  140.2262  144.4415  150.6320 LP  0  0  0  0  0  0  0  0  0  0  0  0  # atno 17342 bound_to 10162
  140.6386  143.2199  151.6341 LP  0  0  0  0  0  0  0  0  0  0  0  0  # atno 17343 bound_to 10162
  157.6431  130.8822  149.9486 LP  0  0  0  0  0  0  0  0  0  0  0  0  # atno 17370 bound_to 10713
  156.0960  130.3659  150.0305 LP  0  0  0  0  0  0  0  0  0  0  0  0  # atno 17371 bound_to 10713
  140.7927  134.3599  157.5460 LP  0  0  0  0  0  0  0  0  0  0  0  0  # atno 17394 bound_to 11000
  139.8785  134.9150  156.3120 LP  0  0  0  0  0  0  0  0  0  0  0  0  # atno 17395 bound_to 11000

$$$$
