AV-unprocessed.smi:234|AV-procd|sdf|1785|dock2
  -GOLD-   2262020333D 1   1.00000     0.00000
 Structure written by MMmdl.
 59 62  0  0  0  0  0  0  0  0  1 V2000
  148.6082  130.2569  153.3349 C   0  0  0  0  0  0  0  0  0  0  0  0
  148.2633  131.7345  153.5322 C   0  0  0  0  0  0  0  0  0  0  0  0
  148.8436  132.1834  154.7455 O   0  0  0  0  0  0  0  0  0  0  0  0
  148.9293  133.5981  154.8275 C   0  0  2  0  0  0  0  0  0  0  0  0
  149.9420  134.2301  153.8630 C   0  0  0  0  0  0  0  0  0  0  0  0
  150.3968  135.1195  155.0281 C   0  0  1  0  0  0  0  0  0  0  0  0
  149.8147  136.4772  155.0260 N   0  0  0  0  0  0  0  0  0  0  0  0
  148.3859  136.7553  155.2054 C   0  0  0  0  0  0  0  0  0  0  0  0
  150.6688  137.4769  155.3728 C   0  0  0  0  0  0  0  0  0  0  0  0
  152.0091  137.2437  155.3468 N   0  0  0  0  0  0  0  0  0  0  0  0
  152.8732  138.2133  155.6589 C   0  0  0  0  0  0  0  0  0  0  0  0
  152.6193  139.4707  156.0227 N   0  0  0  0  0  0  0  0  0  0  0  0
  151.2779  139.7111  156.0654 C   0  0  0  0  0  0  0  0  0  0  0  0
  150.2428  138.7796  155.7652 C   0  0  0  0  0  0  0  0  0  0  0  0
  149.0036  139.3831  155.9493 N   0  0  0  0  0  0  0  0  0  0  0  0
  149.2890  140.6021  156.3148 C   0  0  0  0  0  0  0  0  0  0  0  0
  150.6320  140.8892  156.3987 N   0  0  0  0  0  0  0  0  0  0  0  0
  151.2305  142.1627  156.7691 C   0  0  0  0  0  0  0  0  0  0  0  0
  151.3161  142.3770  158.3036 C   0  0  1  0  0  0  0  0  0  0  0  0
  150.0138  142.2248  158.8430 O   0  0  0  0  0  0  0  0  0  0  0  0
  152.2305  141.3758  159.0064 C   0  0  0  0  0  0  0  0  0  0  0  0
  152.7472  142.1590  160.2030 C   0  0  0  0  0  0  0  0  0  0  0  0
  152.9525  143.4476  159.6528 O   0  0  0  0  0  0  0  0  0  0  0  0
  151.8670  143.7507  158.7809 C   0  0  1  0  0  0  0  0  0  0  0  0
  152.3857  144.7069  157.6957 C   0  0  0  0  0  0  0  0  0  0  0  0
  149.7834  134.0897  156.0218 C   0  0  0  0  0  0  0  0  0  0  0  0
  149.0260  134.5982  157.2547 C   0  0  0  0  0  0  0  0  0  0  0  0
  150.8132  133.0836  156.5555 C   0  0  0  0  0  0  0  0  0  0  0  0
  148.1773  129.8767  152.4085 H   0  0  0  0  0  0  0  0  0  0  0  0
  148.2224  129.6524  154.1562 H   0  0  0  0  0  0  0  0  0  0  0  0
  149.6872  130.1096  153.2880 H   0  0  0  0  0  0  0  0  0  0  0  0
  148.6407  132.3181  152.6913 H   0  0  0  0  0  0  0  0  0  0  0  0
  147.1803  131.8626  153.5636 H   0  0  0  0  0  0  0  0  0  0  0  0
  147.9510  134.0803  154.7953 H   0  0  0  0  0  0  0  0  0  0  0  0
  150.7182  133.5286  153.5539 H   0  0  0  0  0  0  0  0  0  0  0  0
  149.5166  134.7361  152.9975 H   0  0  0  0  0  0  0  0  0  0  0  0
  151.4836  135.1184  155.0858 H   0  0  0  0  0  0  0  0  0  0  0  0
  148.1489  137.7547  154.8385 H   0  0  0  0  0  0  0  0  0  0  0  0
  148.0904  136.7086  156.2519 H   0  0  0  0  0  0  0  0  0  0  0  0
  147.7574  136.0640  154.6478 H   0  0  0  0  0  0  0  0  0  0  0  0
  153.9177  137.9436  155.6073 H   0  0  0  0  0  0  0  0  0  0  0  0
  148.5214  141.3314  156.5292 H   0  0  0  0  0  0  0  0  0  0  0  0
  152.2242  142.2006  156.3217 H   0  0  0  0  0  0  0  0  0  0  0  0
  150.6506  142.9605  156.3032 H   0  0  0  0  0  0  0  0  0  0  0  0
  149.4235  141.9974  158.1411 H   0  0  0  0  0  0  0  0  0  0  0  0
  151.7367  140.4431  159.2830 H   0  0  0  0  0  0  0  0  0  0  0  0
  153.0761  141.1255  158.3645 H   0  0  0  0  0  0  0  0  0  0  0  0
  152.0004  142.2077  160.9970 H   0  0  0  0  0  0  0  0  0  0  0  0
  153.6673  141.7442  160.6150 H   0  0  0  0  0  0  0  0  0  0  0  0
  151.1136  144.2776  159.3699 H   0  0  0  0  0  0  0  0  0  0  0  0
  151.5943  144.9884  157.0011 H   0  0  0  0  0  0  0  0  0  0  0  0
  153.2009  144.2620  157.1249 H   0  0  0  0  0  0  0  0  0  0  0  0
  152.7659  145.6247  158.1446 H   0  0  0  0  0  0  0  0  0  0  0  0
  149.6687  135.2008  157.8971 H   0  0  0  0  0  0  0  0  0  0  0  0
  148.6442  133.7737  157.8575 H   0  0  0  0  0  0  0  0  0  0  0  0
  148.1643  135.2072  156.9923 H   0  0  0  0  0  0  0  0  0  0  0  0
  151.4985  133.5525  157.2624 H   0  0  0  0  0  0  0  0  0  0  0  0
  151.4212  132.6602  155.7555 H   0  0  0  0  0  0  0  0  0  0  0  0
  150.3334  132.2484  157.0672 H   0  0  0  0  0  0  0  0  0  0  0  0
  1  2  1  0  0  0  0
  1 29  1  0  0  0  0
  1 30  1  0  0  0  0
  1 31  1  0  0  0  0
  2  3  1  0  0  0  0
  2 32  1  0  0  0  0
  2 33  1  0  0  0  0
  3  4  1  0  0  0  0
  4 26  1  0  0  0  0
  4  5  1  0  0  0  0
  4 34  1  0  0  0  0
  5  6  1  0  0  0  0
  5 35  1  0  0  0  0
  5 36  1  0  0  0  0
  6  7  1  0  0  0  0
  6 26  1  0  0  0  0
  6 37  1  0  0  0  0
  7  8  1  0  0  0  0
  7  9  1  0  0  0  0
  8 38  1  0  0  0  0
  8 39  1  0  0  0  0
  8 40  1  0  0  0  0
  9 14  1  0  0  0  0
  9 10  2  0  0  0  0
 10 11  1  0  0  0  0
 11 12  2  0  0  0  0
 11 41  1  0  0  0  0
 12 13  1  0  0  0  0
 13 17  1  0  0  0  0
 13 14  2  0  0  0  0
 14 15  1  0  0  0  0
 15 16  2  0  0  0  0
 16 17  1  0  0  0  0
 16 42  1  0  0  0  0
 17 18  1  0  0  0  0
 18 19  1  0  0  0  0
 18 43  1  0  0  0  0
 18 44  1  0  0  0  0
 19 24  1  0  0  0  0
 19 20  1  0  0  0  0
 19 21  1  0  0  0  0
 20 45  1  0  0  0  0
 21 22  1  0  0  0  0
 21 46  1  0  0  0  0
 21 47  1  0  0  0  0
 22 23  1  0  0  0  0
 22 48  1  0  0  0  0
 22 49  1  0  0  0  0
 23 24  1  0  0  0  0
 24 25  1  0  0  0  0
 24 50  1  0  0  0  0
 25 51  1  0  0  0  0
 25 52  1  0  0  0  0
 25 53  1  0  0  0  0
 26 27  1  0  0  0  0
 26 28  1  0  0  0  0
 27 54  1  0  0  0  0
 27 55  1  0  0  0  0
 27 56  1  0  0  0  0
 28 57  1  0  0  0  0
 28 58  1  0  0  0  0
 28 59  1  0  0  0  0
M  END
> <s_m_source_file>
AV-unprocessed.smi

> <i_m_source_file_index>
234

> <i_lp_mmshare_version>
43012

> <i_f3d_flags>
0

> <s_epik_input>
W0NIM11bQ0gyXU9bQ0BASF0oQzEoW0NIM10pW0NIM10pW0NIMl1bQ0BIXTFOKFtDSDNdKWMobltjSF1uMiljKGMyMyluW2NIXW4zW0NIMl1bQ0BAXTQoW09IXSlbQ0gyXVtDSDJdT1tDQEhdNFtDSDNd

> <s_epik_cmdline>
J2VwaWtfcHl0aG9uJywgJy1waCcsICc3LjAnLCAnLXRuJywgJzgnLCAnLW1hJywgJzIwMCcsICctbWV0YWxfYmluZGluZycsICctaW1hZScsICc8aW5maWxlLm1hZT4nLCAnLW9tYWUnLCAnPG91dGZpbGUubWFlPic=

> <r_lp_tautomer_probability>
1

> <r_epik_Ionization_Penalty>
0.00349132

> <r_epik_Ionization_Penalty_Charging>
0

> <r_epik_Ionization_Penalty_Neutral>
0.00349132

> <r_epik_State_Penalty>
0.00242418

> <r_epik_Charging_Adjusted_Penalty>
0.00242418

> <i_epik_Tot_Q>
0

> <i_epik_Tot_abs_Q>
0

> <r_epik_Metal_State_Penalty>
-0

> <b_epik_Metal_Only>
0

> <s_lp_Force_Field>
OPLS_2005

> <r_lp_Energy>
52.3915

> <b_lp_Chiralities_Consistent>
1

> <s_lp_Variant>
AV-unprocessed.smi:234-1

> <Gold.Version>
5.8.1

> <Gold.Id.Protein>
6NUR|6NUR_protein|mol2

> <Gold.PLP.Fitness>
48.2580

> <Gold.PLP.PLP>
-42.9996

> <Gold.PLP.part.hbond>
-2.9581

> <Gold.PLP.part.metal>
0.0000

> <Gold.PLP.part.buried>
-7.1363

> <Gold.PLP.part.nonpolar>
-33.9255

> <Gold.PLP.part.repulsive>
0.0467

> <Gold.PLP.ligand.clash>
0.0000

> <Gold.PLP.ligand.torsion>
0.8494

> <Gold.PLP.Chemscore.Hbond>
1.9280

> <Gold.PLP.Chemscore.CHOScore>
0.0000

> <Gold.PLP.Chemscore.Metal>
0.0000

> <Gold.Chemscore.Hbonds>
donor molecule, donor type, donor heavy atom, donor atom, acceptor molecule, acceptor atom, score
      P1  H  7997  8010       L1    12  1.00
      P1  H 10752 10764       L1    10  0.90

> <Gold.PLP.Chemscore.Internal.Correction>
1.1732

> <Gold.Rescore>
     Score         DG    S(hbond)    S(metal)    S(lipo)     H(rot)  DE(clash)    DE(int)     intcor
     13.62     -17.34       1.53        0.00     109.36       2.37       1.42       2.29       ----

> <Gold.Chemscore.Fitness>
13.6250

> <Gold.Chemscore.DG>
-17.3370

> <Gold.Chemscore.ZeroCoef>
-5.4800

> <Gold.Chemscore.Hbond>
1.5338

> <Gold.Chemscore.Metal>
0.0000

> <Gold.Chemscore.Lipo>
109.3585

> <Gold.Chemscore.Internal_Hbond>
0.0000

> <Gold.Chemscore.DEClash>
1.4207

> <Gold.Chemscore.DEInternal>
2.2913

> <Gold.Chemscore.Rot>
2.3676

> <Gold.Chemscore.Internal.Correction>
   9.000000E+99

> <Gold.Chemscore.Hbonds>
donor molecule, donor type, donor heavy atom, donor atom, acceptor molecule, acceptor atom, score
      P1  H  7997  8010       L1    12  0.30
      P1  H 10752 10764       L1    10  0.61

> <Gold.Chemscore.Hbond.Weighted>
-5.1230

> <Gold.Chemscore.Metal.Weighted>
-0.0000

> <Gold.Chemscore.Lipo.Weighted>
-12.7949

> <Gold.Chemscore.Internal_Hbond.Weighted>
0.0000

> <Gold.Chemscore.DEClash.Weighted>
1.4207

> <Gold.Chemscore.DEInternal.Weighted>
2.2913

> <Gold.Chemscore.Rot.Weighted>
6.0610

> <Gold.Chemscore.Internal.Correction.Weighted>
   9.000000E+99

> <Gold.Protein.RotatedTorsions>
[ 6907 6896 6895 6894 ] final  138.52 input  -60.11 | X-H torsion
[ 7974 7965 7964 7962 ] final  125.14 input  175.53 | X-H torsion
[ 8008 7997 7996 7995 ] final   85.19 input   59.86 | X-H torsion
[ 10167 10162 10161 10158 ] final  -90.41 input  -65.29 | X-H torsion
[ 10718 10713 10712 10709 ] final -112.09 input   66.30 | X-H torsion
[ 10763 10752 10751 10750 ] final  -49.16 input  -60.55 | X-H torsion
[ 11005 11000 10999 10996 ] final  107.39 input  -57.11 | X-H torsion

> <Gold.Protein.ActiveResidues>
 VAL166  LYS551  ARG553  GLY616  TRP617  ASP618  TYR619  PRO620  LYS621  CYS622 
 ASP623  PHE694  ASN695  SER759  ASP760  ASP761  ALA762  ILE779  LEU786  VAL792 
 PHE793  MET794  SER795  GLU796  ALA797  LYS798  CYS799  TRP800  GLU811  SER814 

> <Gold.Protein.RotatedAtoms>
  152.2656  133.5336  159.5407 H   0  0  0  0  0  0  0  0  0  0  0  0  # atno 6907 bound_to 6896
  150.7140  134.0769  159.3893 H   0  0  0  0  0  0  0  0  0  0  0  0  # atno 6908 bound_to 6896
  151.8685  135.0498  160.0527 H   0  0  0  0  0  0  0  0  0  0  0  0  # atno 6909 bound_to 6896
  145.0763  139.3691  143.4932 H   0  0  0  0  0  0  0  0  0  0  0  0  # atno 7974 bound_to 7965
  155.9468  140.3404  155.6374 H   0  0  0  0  0  0  0  0  0  0  0  0  # atno 8008 bound_to 7997
  155.6970  140.0755  157.2444 H   0  0  0  0  0  0  0  0  0  0  0  0  # atno 8009 bound_to 7997
  154.4113  140.1647  156.2136 H   0  0  0  0  0  0  0  0  0  0  0  0  # atno 8010 bound_to 7997
  140.3552  143.2870  151.9679 H   0  0  0  0  0  0  0  0  0  0  0  0  # atno 10167 bound_to 10162
  156.0685  130.5902  150.8462 H   0  0  0  0  0  0  0  0  0  0  0  0  # atno 10718 bound_to 10713
  154.0896  135.6579  153.4850 H   0  0  0  0  0  0  0  0  0  0  0  0  # atno 10763 bound_to 10752
  153.0326  135.5199  154.7393 H   0  0  0  0  0  0  0  0  0  0  0  0  # atno 10764 bound_to 10752
  154.6513  135.3001  154.9952 H   0  0  0  0  0  0  0  0  0  0  0  0  # atno 10765 bound_to 10752
  139.8827  134.9399  156.5812 H   0  0  0  0  0  0  0  0  0  0  0  0  # atno 11005 bound_to 11000
  146.3530  140.0533  142.8634 LP  0  0  0  0  0  0  0  0  0  0  0  0  # atno 17320 bound_to 7965
  145.1231  140.9474  143.4588 LP  0  0  0  0  0  0  0  0  0  0  0  0  # atno 17321 bound_to 7965
  139.4821  144.6041  151.7552 LP  0  0  0  0  0  0  0  0  0  0  0  0  # atno 17342 bound_to 10162
  140.5181  144.0922  150.6014 LP  0  0  0  0  0  0  0  0  0  0  0  0  # atno 17343 bound_to 10162
  157.5742  131.0946  150.9372 LP  0  0  0  0  0  0  0  0  0  0  0  0  # atno 17370 bound_to 10713
  156.9581  130.5445  149.5285 LP  0  0  0  0  0  0  0  0  0  0  0  0  # atno 17371 bound_to 10713
  140.8025  133.8493  155.8739 LP  0  0  0  0  0  0  0  0  0  0  0  0  # atno 17394 bound_to 11000
  140.9579  134.1693  157.4677 LP  0  0  0  0  0  0  0  0  0  0  0  0  # atno 17395 bound_to 11000

$$$$
