AV-unprocessed.smi:467|AV-procd|sdf|2645|dock2
  -GOLD-   2262023 53D 1   1.00000     0.00000
 Structure written by MMmdl.
 45 47  0  0  0  0  0  0  0  0  2 V2000
  153.1802  142.4957  161.5981 C   0  0  0  0  0  0  0  0  0  0  0  0
  152.4945  142.3099  160.2558 C   0  0  0  0  0  0  0  0  0  0  0  0
  152.7819  141.1563  159.4922 C   0  0  0  0  0  0  0  0  0  0  0  0
  152.1681  140.9464  158.2381 C   0  0  0  0  0  0  0  0  0  0  0  0
  152.2975  139.9033  157.3372 N   0  0  0  0  0  0  0  0  0  0  0  0
  151.4751  140.2847  156.3647 C   0  0  0  0  0  0  0  0  0  0  0  0
  150.8211  141.4502  156.5320 N   0  0  0  0  0  0  0  0  0  0  0  0
  149.8761  142.0580  155.6131 C   0  0  0  0  0  0  0  0  0  0  0  0
  149.1048  141.0136  154.7829 C   0  0  2  0  0  0  0  0  0  0  0  0
  149.8756  140.7377  153.6303 O   0  0  0  0  0  0  0  0  0  0  0  0
  147.7004  141.4927  154.3503 C   0  0  0  0  0  0  0  0  0  0  0  0
  147.1065  142.4708  155.2969 N   0  3  0  0  0  0  0  0  0  0  0  0
  145.8119  143.0321  154.8361 C   0  0  0  0  0  0  0  0  0  0  0  0
  145.2807  144.0603  155.8493 C   0  0  0  0  0  0  0  0  0  0  0  0
  145.1540  143.4514  157.1281 O   0  0  0  0  0  0  0  0  0  0  0  0
  146.4034  142.9850  157.6213 C   0  0  0  0  0  0  0  0  0  0  0  0
  146.9704  141.9207  156.6665 C   0  0  0  0  0  0  0  0  0  0  0  0
  151.2521  141.9308  157.7641 C   0  0  0  0  0  0  0  0  0  0  0  0
  150.9562  143.0817  158.5157 C   0  0  0  0  0  0  0  0  0  0  0  0
  151.5765  143.2746  159.7679 C   0  0  0  0  0  0  0  0  0  0  0  0
  151.2490  144.5200  160.5723 C   0  0  0  0  0  0  0  0  0  0  0  0
  153.9244  141.7188  161.7759 H   0  0  0  0  0  0  0  0  0  0  0  0
  152.4503  142.4532  162.4065 H   0  0  0  0  0  0  0  0  0  0  0  0
  153.6892  143.4589  161.6409 H   0  0  0  0  0  0  0  0  0  0  0  0
  153.4791  140.4203  159.8650 H   0  0  0  0  0  0  0  0  0  0  0  0
  151.3358  139.6798  155.4803 H   0  0  0  0  0  0  0  0  0  0  0  0
  149.1853  142.6817  156.1821 H   0  0  0  0  0  0  0  0  0  0  0  0
  150.4298  142.7296  154.9551 H   0  0  0  0  0  0  0  0  0  0  0  0
  149.0354  140.0973  155.3683 H   0  0  0  0  0  0  0  0  0  0  0  0
  149.5335  139.9647  153.2092 H   0  0  0  0  0  0  0  0  0  0  0  0
  147.7270  141.9476  153.3596 H   0  0  0  0  0  0  0  0  0  0  0  0
  147.0501  140.6206  154.2630 H   0  0  0  0  0  0  0  0  0  0  0  0
  145.9243  143.5108  153.8641 H   0  0  0  0  0  0  0  0  0  0  0  0
  145.0863  142.2263  154.7119 H   0  0  0  0  0  0  0  0  0  0  0  0
  145.9417  144.9264  155.9087 H   0  0  0  0  0  0  0  0  0  0  0  0
  144.3032  144.4267  155.5350 H   0  0  0  0  0  0  0  0  0  0  0  0
  147.0986  143.8185  157.7343 H   0  0  0  0  0  0  0  0  0  0  0  0
  146.2544  142.5585  158.6133 H   0  0  0  0  0  0  0  0  0  0  0  0
  146.3153  141.0481  156.6474 H   0  0  0  0  0  0  0  0  0  0  0  0
  147.9427  141.5851  157.0297 H   0  0  0  0  0  0  0  0  0  0  0  0
  150.2575  143.8104  158.1325 H   0  0  0  0  0  0  0  0  0  0  0  0
  150.4647  145.1073  160.0940 H   0  0  0  0  0  0  0  0  0  0  0  0
  152.1312  145.1531  160.6683 H   0  0  0  0  0  0  0  0  0  0  0  0
  150.9033  144.2528  161.5712 H   0  0  0  0  0  0  0  0  0  0  0  0
  147.7585  143.2388  155.3662 H   0  0  0  0  0  0  0  0  0  0  0  0
  1  2  1  0  0  0  0
  1 22  1  0  0  0  0
  1 23  1  0  0  0  0
  1 24  1  0  0  0  0
  2 20  1  0  0  0  0
  2  3  2  0  0  0  0
  3  4  1  0  0  0  0
  3 25  1  0  0  0  0
  4 18  2  0  0  0  0
  4  5  1  0  0  0  0
  5  6  2  0  0  0  0
  6  7  1  0  0  0  0
  6 26  1  0  0  0  0
  7  8  1  0  0  0  0
  7 18  1  0  0  0  0
  8  9  1  0  0  0  0
  8 27  1  0  0  0  0
  8 28  1  0  0  0  0
  9 10  1  0  0  0  0
  9 11  1  0  0  0  0
  9 29  1  0  0  0  0
 10 30  1  0  0  0  0
 11 12  1  0  0  0  0
 11 31  1  0  0  0  0
 11 32  1  0  0  0  0
 12 17  1  0  0  0  0
 12 13  1  0  0  0  0
 12 45  1  0  0  0  0
 13 14  1  0  0  0  0
 13 33  1  0  0  0  0
 13 34  1  0  0  0  0
 14 15  1  0  0  0  0
 14 35  1  0  0  0  0
 14 36  1  0  0  0  0
 15 16  1  0  0  0  0
 16 17  1  0  0  0  0
 16 37  1  0  0  0  0
 16 38  1  0  0  0  0
 17 39  1  0  0  0  0
 17 40  1  0  0  0  0
 18 19  1  0  0  0  0
 19 20  2  0  0  0  0
 19 41  1  0  0  0  0
 20 21  1  0  0  0  0
 21 42  1  0  0  0  0
 21 43  1  0  0  0  0
 21 44  1  0  0  0  0
M  CHG  1  12   1
M  END
> <s_m_source_file>
AV-unprocessed.smi

> <i_m_source_file_index>
467

> <i_lp_mmshare_version>
43012

> <i_f3d_flags>
0

> <s_epik_input>
W0NIM11jKFtjSF0xKWMoW0NIM10pW2NIXWMoYzEyKW4oW2NIXW4yKVtDSDJdW0NASF0oW09IXSlbQ0gyXU4zW0NIMl1bQ0gyXU9bQ0gyXVtDSDJdMw==

> <s_epik_cmdline>
J2VwaWtfcHl0aG9uJywgJy1waCcsICc3LjAnLCAnLXRuJywgJzgnLCAnLW1hJywgJzIwMCcsICctbWV0YWxfYmluZGluZycsICctaW1hZScsICc8aW5maWxlLm1hZT4nLCAnLW9tYWUnLCAnPG91dGZpbGUubWFlPic=

> <r_epik_Ionization_Penalty>
0.695168

> <r_epik_Ionization_Penalty_Charging>
0.608065

> <r_epik_Ionization_Penalty_Neutral>
0.0871028

> <r_epik_State_Penalty>
0.731876

> <r_epik_Charging_Adjusted_Penalty>
1.33994

> <i_epik_Tot_Q>
1

> <i_epik_Tot_abs_Q>
1

> <r_epik_Metal_State_Penalty>
0.652189

> <b_epik_Metal_Only>
0

> <s_lp_Force_Field>
OPLS_2005

> <r_lp_Energy>
23.0141

> <b_lp_Chiralities_Consistent>
1

> <s_lp_Variant>
AV-unprocessed.smi:467-3

> <Gold.Version>
5.8.1

> <Gold.Id.Protein>
6NUR|6NUR_protein|mol2

> <Gold.PLP.Fitness>
55.4562

> <Gold.PLP.PLP>
-43.6782

> <Gold.PLP.part.hbond>
-4.4277

> <Gold.PLP.part.metal>
0.0000

> <Gold.PLP.part.buried>
-3.5267

> <Gold.PLP.part.nonpolar>
-35.2209

> <Gold.PLP.part.repulsive>
0.1536

> <Gold.PLP.ligand.clash>
0.0000

> <Gold.PLP.ligand.torsion>
1.1245

> <Gold.PLP.Chemscore.Hbond>
4.6560

> <Gold.PLP.Chemscore.CHOScore>
0.0000

> <Gold.PLP.Chemscore.Metal>
0.0000

> <Gold.Chemscore.Hbonds>
donor molecule, donor type, donor heavy atom, donor atom, acceptor molecule, acceptor atom, score
      L1  H    10    30       P1  7957  0.26
      L1  H    12    45       P1  8028  2.00
      P1  H  7989  7998       L1    10  0.43
      P1  H  7997  8008       L1     5  0.44
      P1  H  8011  8017       L1    10  0.78

> <Gold.PLP.Chemscore.Internal.Correction>
0.0589

> <Gold.Rescore>
     Score         DG    S(hbond)    S(metal)    S(lipo)     H(rot)  DE(clash)    DE(int)     intcor
     18.75     -21.43       2.52        0.00     110.47       2.10       1.49       1.20       ----

> <Gold.Chemscore.Fitness>
18.7468

> <Gold.Chemscore.DG>
-21.4329

> <Gold.Chemscore.ZeroCoef>
-5.4800

> <Gold.Chemscore.Hbond>
2.5172

> <Gold.Chemscore.Metal>
0.0000

> <Gold.Chemscore.Lipo>
110.4653

> <Gold.Chemscore.Internal_Hbond>
0.0000

> <Gold.Chemscore.DEClash>
1.4900

> <Gold.Chemscore.DEInternal>
1.1961

> <Gold.Chemscore.Rot>
2.1011

> <Gold.Chemscore.Internal.Correction>
   9.000000E+99

> <Gold.Chemscore.Hbonds>
donor molecule, donor type, donor heavy atom, donor atom, acceptor molecule, acceptor atom, score
      L1  H    10    30       P1  7957  0.25
      L1  H    12    45       P1  8028  0.45
      P1  H  7989  7998       L1    10  0.38
      P1  H  7997  8008       L1     5  0.09
      P1  H  8011  8017       L1    10  0.41

> <Gold.Chemscore.Hbond.Weighted>
-8.4074

> <Gold.Chemscore.Metal.Weighted>
-0.0000

> <Gold.Chemscore.Lipo.Weighted>
-12.9244

> <Gold.Chemscore.Internal_Hbond.Weighted>
0.0000

> <Gold.Chemscore.DEClash.Weighted>
1.4900

> <Gold.Chemscore.DEInternal.Weighted>
1.1961

> <Gold.Chemscore.Rot.Weighted>
5.3789

> <Gold.Chemscore.Internal.Correction.Weighted>
   9.000000E+99

> <Gold.Protein.RotatedTorsions>
[ 6907 6896 6895 6894 ] final -144.35 input  -60.11 | X-H torsion
[ 7974 7965 7964 7962 ] final   82.58 input  175.53 | X-H torsion
[ 8008 7997 7996 7995 ] final  -45.29 input   59.86 | X-H torsion
[ 10167 10162 10161 10158 ] final -115.65 input  -65.29 | X-H torsion
[ 10718 10713 10712 10709 ] final   14.32 input   66.30 | X-H torsion
[ 10763 10752 10751 10750 ] final  -75.98 input  -60.55 | X-H torsion
[ 11005 11000 10999 10996 ] final   88.74 input  -57.11 | X-H torsion

> <Gold.Protein.ActiveResidues>
 VAL166  LYS551  ARG553  GLY616  TRP617  ASP618  TYR619  PRO620  LYS621  CYS622 
 ASP623  PHE694  ASN695  SER759  ASP760  ASP761  ALA762  ILE779  LEU786  VAL792 
 PHE793  MET794  SER795  GLU796  ALA797  LYS798  CYS799  TRP800  GLU811  SER814 

> <Gold.Protein.RotatedAtoms>
  151.1129  133.5160  159.2604 H   0  0  0  0  0  0  0  0  0  0  0  0  # atno 6907 bound_to 6896
  151.1947  135.0417  159.8857 H   0  0  0  0  0  0  0  0  0  0  0  0  # atno 6908 bound_to 6896
  152.5451  134.0965  159.8352 H   0  0  0  0  0  0  0  0  0  0  0  0  # atno 6909 bound_to 6896
  145.6232  139.2390  143.2126 H   0  0  0  0  0  0  0  0  0  0  0  0  # atno 7974 bound_to 7965
  154.4000  140.1400  156.3824 H   0  0  0  0  0  0  0  0  0  0  0  0  # atno 8008 bound_to 7997
  155.7991  140.3476  155.5372 H   0  0  0  0  0  0  0  0  0  0  0  0  # atno 8009 bound_to 7997
  155.8501  140.0940  157.1670 H   0  0  0  0  0  0  0  0  0  0  0  0  # atno 8010 bound_to 7997
  140.0877  143.4728  152.1888 H   0  0  0  0  0  0  0  0  0  0  0  0  # atno 10167 bound_to 10162
  157.0375  130.6217  149.5745 H   0  0  0  0  0  0  0  0  0  0  0  0  # atno 10718 bound_to 10713
  154.4938  135.5813  153.6479 H   0  0  0  0  0  0  0  0  0  0  0  0  # atno 10763 bound_to 10752
  152.9867  135.6119  154.3090 H   0  0  0  0  0  0  0  0  0  0  0  0  # atno 10764 bound_to 10752
  154.2992  135.2847  155.2598 H   0  0  0  0  0  0  0  0  0  0  0  0  # atno 10765 bound_to 10752
  139.8890  134.8507  156.3043 H   0  0  0  0  0  0  0  0  0  0  0  0  # atno 11005 bound_to 11000
  146.1414  140.7052  142.9365 LP  0  0  0  0  0  0  0  0  0  0  0  0  # atno 17320 bound_to 7965
  144.7223  140.4412  143.6999 LP  0  0  0  0  0  0  0  0  0  0  0  0  # atno 17321 bound_to 7965
  139.5742  144.7479  151.3808 LP  0  0  0  0  0  0  0  0  0  0  0  0  # atno 17342 bound_to 10162
  140.7045  143.7549  150.7458 LP  0  0  0  0  0  0  0  0  0  0  0  0  # atno 17343 bound_to 10162
  156.0049  130.5134  150.7794 LP  0  0  0  0  0  0  0  0  0  0  0  0  # atno 17370 bound_to 10713
  157.5130  131.0927  151.0174 LP  0  0  0  0  0  0  0  0  0  0  0  0  # atno 17371 bound_to 10713
  140.9892  133.7219  156.0789 LP  0  0  0  0  0  0  0  0  0  0  0  0  # atno 17394 bound_to 11000
  140.7647  134.3900  157.5519 LP  0  0  0  0  0  0  0  0  0  0  0  0  # atno 17395 bound_to 11000

$$$$
