AV-unprocessed.smi:2252|AV-procd|sdf|9105|dock1
  -GOLD-   2272012303D 1   1.00000     0.00000
 Structure written by MMmdl.
 45 47  0  0  0  0  0  0  0  0  2 V2000
  153.1106  142.2727  159.8897 C   0  0  0  0  0  0  0  0  0  0  0  0
  152.1696  143.3567  159.6827 N   0  0  0  0  0  0  0  0  0  0  0  0
  151.9891  144.4507  160.5186 C   0  0  0  0  0  0  0  0  0  0  0  0
  151.0105  145.2270  159.9463 C   0  0  0  0  0  0  0  0  0  0  0  0
  150.5805  144.6305  158.7660 N   0  0  0  0  0  0  0  0  0  0  0  0
  151.3019  143.5182  158.6651 C   0  0  0  0  0  0  0  0  0  0  0  0
  151.1864  142.5580  157.5227 C   0  0  0  0  0  0  0  0  0  0  0  0
  151.0279  141.1031  157.9952 C   0  0  0  0  0  0  0  0  0  0  0  0
  150.2699  140.3031  157.0407 N   0  0  0  0  0  0  0  0  0  0  0  0
  150.6255  140.0851  155.7651 C   0  0  0  0  0  0  0  0  0  0  0  0
  151.6521  140.5425  155.2621 O   0  0  0  0  0  0  0  0  0  0  0  0
  149.6856  139.2048  154.9281 C   0  0  2  0  0  0  0  0  0  0  0  0
  150.5286  138.1378  154.1976 C   0  0  0  0  0  0  0  0  0  0  0  0
  150.9332  136.8513  154.8843 C   0  0  0  0  0  0  0  0  0  0  0  0
  151.9744  137.8968  154.5775 C   0  0  0  0  0  0  0  0  0  0  0  0
  148.8828  140.0166  153.9696 N   0  3  0  0  0  0  0  0  0  0  0  0
  147.6481  139.3716  153.4744 C   0  0  0  0  0  0  0  0  0  0  0  0
  146.7612  140.5008  152.9402 C   0  0  0  0  0  0  0  0  0  0  0  0
  147.3286  141.7905  153.5415 C   0  0  0  0  0  0  0  0  0  0  0  0
  148.4560  141.3410  154.4720 C   0  0  0  0  0  0  0  0  0  0  0  0
  153.7507  142.4880  160.7456 H   0  0  0  0  0  0  0  0  0  0  0  0
  153.7360  142.1487  159.0052 H   0  0  0  0  0  0  0  0  0  0  0  0
  152.5681  141.3462  160.0800 H   0  0  0  0  0  0  0  0  0  0  0  0
  152.5580  144.5844  161.4270 H   0  0  0  0  0  0  0  0  0  0  0  0
  150.5871  146.1598  160.2885 H   0  0  0  0  0  0  0  0  0  0  0  0
  150.3492  142.8437  156.8857 H   0  0  0  0  0  0  0  0  0  0  0  0
  152.0813  142.6575  156.9071 H   0  0  0  0  0  0  0  0  0  0  0  0
  152.0045  140.6479  158.1698 H   0  0  0  0  0  0  0  0  0  0  0  0
  150.4996  141.0785  158.9487 H   0  0  0  0  0  0  0  0  0  0  0  0
  149.4169  139.8803  157.3778 H   0  0  0  0  0  0  0  0  0  0  0  0
  148.9918  138.7007  155.6040 H   0  0  0  0  0  0  0  0  0  0  0  0
  150.3114  138.0627  153.1331 H   0  0  0  0  0  0  0  0  0  0  0  0
  150.6508  136.7182  155.9268 H   0  0  0  0  0  0  0  0  0  0  0  0
  150.9380  135.9439  154.2838 H   0  0  0  0  0  0  0  0  0  0  0  0
  152.6769  137.6864  153.7736 H   0  0  0  0  0  0  0  0  0  0  0  0
  152.3819  138.4573  155.4167 H   0  0  0  0  0  0  0  0  0  0  0  0
  147.8607  138.6217  152.7116 H   0  0  0  0  0  0  0  0  0  0  0  0
  147.1403  138.8752  154.3028 H   0  0  0  0  0  0  0  0  0  0  0  0
  146.8086  140.5444  151.8515 H   0  0  0  0  0  0  0  0  0  0  0  0
  145.7177  140.3463  153.2174 H   0  0  0  0  0  0  0  0  0  0  0  0
  147.7293  142.4214  152.7473 H   0  0  0  0  0  0  0  0  0  0  0  0
  146.5720  142.3700  154.0716 H   0  0  0  0  0  0  0  0  0  0  0  0
  148.0712  141.2390  155.4881 H   0  0  0  0  0  0  0  0  0  0  0  0
  149.2769  142.0586  154.4943 H   0  0  0  0  0  0  0  0  0  0  0  0
  149.4630  140.1887  153.1606 H   0  0  0  0  0  0  0  0  0  0  0  0
  1  2  1  0  0  0  0
  1 21  1  0  0  0  0
  1 22  1  0  0  0  0
  1 23  1  0  0  0  0
  2  6  1  0  0  0  0
  2  3  1  0  0  0  0
  3  4  2  0  0  0  0
  3 24  1  0  0  0  0
  4  5  1  0  0  0  0
  4 25  1  0  0  0  0
  5  6  2  0  0  0  0
  6  7  1  0  0  0  0
  7  8  1  0  0  0  0
  7 26  1  0  0  0  0
  7 27  1  0  0  0  0
  8  9  1  0  0  0  0
  8 28  1  0  0  0  0
  8 29  1  0  0  0  0
  9 10  1  0  0  0  0
  9 30  1  0  0  0  0
 10 11  2  0  0  0  0
 10 12  1  0  0  0  0
 12 13  1  0  0  0  0
 12 16  1  0  0  0  0
 12 31  1  0  0  0  0
 13 15  1  0  0  0  0
 13 14  1  0  0  0  0
 13 32  1  0  0  0  0
 14 15  1  0  0  0  0
 14 33  1  0  0  0  0
 14 34  1  0  0  0  0
 15 35  1  0  0  0  0
 15 36  1  0  0  0  0
 16 20  1  0  0  0  0
 16 17  1  0  0  0  0
 16 45  1  0  0  0  0
 17 18  1  0  0  0  0
 17 37  1  0  0  0  0
 17 38  1  0  0  0  0
 18 19  1  0  0  0  0
 18 39  1  0  0  0  0
 18 40  1  0  0  0  0
 19 20  1  0  0  0  0
 19 41  1  0  0  0  0
 19 42  1  0  0  0  0
 20 43  1  0  0  0  0
 20 44  1  0  0  0  0
M  CHG  1  16   1
M  END
> <s_m_source_file>
AV-unprocessed.smi

> <i_m_source_file_index>
2252

> <i_lp_mmshare_version>
43012

> <i_f3d_flags>
0

> <s_epik_input>
W0NIM11uMVtjSF1bY0hdbmMxW0NIMl1bQ0gyXVtOSF1DKD1PKVtDQEhdKFtDSF0yW0NIMl1bQ0gyXTIpTjNbQ0gyXVtDSDJdW0NIMl1bQ0gyXTM=

> <s_epik_cmdline>
J2VwaWtfcHl0aG9uJywgJy1waCcsICc3LjAnLCAnLXRuJywgJzgnLCAnLW1hJywgJzIwMCcsICctbWV0YWxfYmluZGluZycsICctaW1hZScsICc8aW5maWxlLm1hZT4nLCAnLW9tYWUnLCAnPG91dGZpbGUubWFlPic=

> <r_lp_tautomer_probability>
1

> <r_epik_Ionization_Penalty>
1.07437

> <r_epik_Ionization_Penalty_Charging>
1.07435

> <r_epik_Ionization_Penalty_Neutral>
2.35578e-05

> <r_epik_State_Penalty>
1.18204

> <r_epik_Charging_Adjusted_Penalty>
2.25639

> <i_epik_Tot_Q>
1

> <i_epik_Tot_abs_Q>
1

> <r_epik_Metal_State_Penalty>
0.433434

> <b_epik_Metal_Only>
0

> <s_lp_Force_Field>
OPLS_2005

> <r_lp_Energy>
33.5931

> <b_lp_Chiralities_Consistent>
1

> <s_lp_Variant>
AV-unprocessed.smi:2252-3

> <Gold.Version>
5.8.1

> <Gold.Id.Protein>
6NUR|6NUR_protein|mol2

> <Gold.PLP.Fitness>
47.1914

> <Gold.PLP.PLP>
-44.6685

> <Gold.PLP.part.hbond>
-2.0000

> <Gold.PLP.part.metal>
0.0000

> <Gold.PLP.part.buried>
-4.2493

> <Gold.PLP.part.nonpolar>
-39.6088

> <Gold.PLP.part.repulsive>
0.3382

> <Gold.PLP.ligand.clash>
0.0000

> <Gold.PLP.ligand.torsion>
1.9455

> <Gold.PLP.Chemscore.Hbond>
1.7280

> <Gold.PLP.Chemscore.CHOScore>
0.0000

> <Gold.PLP.Chemscore.Metal>
0.0000

> <Gold.Chemscore.Hbonds>
donor molecule, donor type, donor heavy atom, donor atom, acceptor molecule, acceptor atom, score
      L1  H    16    45       P1  7957  0.91
      P1  H  7989  7998       L1    11  0.77

> <Gold.PLP.Chemscore.Internal.Correction>
1.2299

> <Gold.Rescore>
     Score         DG    S(hbond)    S(metal)    S(lipo)     H(rot)  DE(clash)    DE(int)     intcor
     14.16     -18.55       1.79        0.00     103.13       1.95       0.06       4.33       ----

> <Gold.Chemscore.Fitness>
14.1583

> <Gold.Chemscore.DG>
-18.5491

> <Gold.Chemscore.ZeroCoef>
-5.4800

> <Gold.Chemscore.Hbond>
1.7936

> <Gold.Chemscore.Metal>
0.0000

> <Gold.Chemscore.Lipo>
103.1342

> <Gold.Chemscore.Internal_Hbond>
0.0000

> <Gold.Chemscore.DEClash>
0.0644

> <Gold.Chemscore.DEInternal>
4.3264

> <Gold.Chemscore.Rot>
1.9485

> <Gold.Chemscore.Internal.Correction>
   9.000000E+99

> <Gold.Chemscore.Hbonds>
donor molecule, donor type, donor heavy atom, donor atom, acceptor molecule, acceptor atom, score
      L1  H    16    45       P1  7957  0.85
      P1  H  7989  7998       L1    11  0.75

> <Gold.Chemscore.Hbond.Weighted>
-5.9905

> <Gold.Chemscore.Metal.Weighted>
-0.0000

> <Gold.Chemscore.Lipo.Weighted>
-12.0667

> <Gold.Chemscore.Internal_Hbond.Weighted>
0.0000

> <Gold.Chemscore.DEClash.Weighted>
0.0644

> <Gold.Chemscore.DEInternal.Weighted>
4.3264

> <Gold.Chemscore.Rot.Weighted>
4.9881

> <Gold.Chemscore.Internal.Correction.Weighted>
   9.000000E+99

> <Gold.Protein.RotatedTorsions>
[ 6907 6896 6895 6894 ] final  -56.98 input  -60.11 | X-H torsion
[ 7974 7965 7964 7962 ] final   13.21 input  175.53 | X-H torsion
[ 8008 7997 7996 7995 ] final -119.28 input   59.86 | X-H torsion
[ 10167 10162 10161 10158 ] final   -8.56 input  -65.29 | X-H torsion
[ 10718 10713 10712 10709 ] final -142.62 input   66.30 | X-H torsion
[ 10763 10752 10751 10750 ] final   50.99 input  -60.55 | X-H torsion
[ 11005 11000 10999 10996 ] final   53.24 input  -57.11 | X-H torsion

> <Gold.Protein.ActiveResidues>
 VAL166  LYS551  ARG553  GLY616  TRP617  ASP618  TYR619  PRO620  LYS621  CYS622 
 ASP623  PHE694  ASN695  SER759  ASP760  ASP761  ALA762  ILE779  LEU786  VAL792 
 PHE793  MET794  SER795  GLU796  ALA797  LYS798  CYS799  TRP800  GLU811  SER814 

> <Gold.Protein.RotatedAtoms>
  150.8123  134.7284  159.6698 H   0  0  0  0  0  0  0  0  0  0  0  0  # atno 6907 bound_to 6896
  152.4242  134.5895  159.9980 H   0  0  0  0  0  0  0  0  0  0  0  0  # atno 6908 bound_to 6896
  151.6102  133.3311  159.3102 H   0  0  0  0  0  0  0  0  0  0  0  0  # atno 6909 bound_to 6896
  146.2334  139.9222  142.8508 H   0  0  0  0  0  0  0  0  0  0  0  0  # atno 7974 bound_to 7965
  155.1132  140.0397  157.2730 H   0  0  0  0  0  0  0  0  0  0  0  0  # atno 8008 bound_to 7997
  154.6669  140.2603  155.7023 H   0  0  0  0  0  0  0  0  0  0  0  0  # atno 8009 bound_to 7997
  156.2642  140.2805  156.1163 H   0  0  0  0  0  0  0  0  0  0  0  0  # atno 8010 bound_to 7997
  140.7062  143.5956  150.8850 H   0  0  0  0  0  0  0  0  0  0  0  0  # atno 10167 bound_to 10162
  156.3481  130.7673  151.1821 H   0  0  0  0  0  0  0  0  0  0  0  0  # atno 10718 bound_to 10713
  152.9785  135.5861  154.4342 H   0  0  0  0  0  0  0  0  0  0  0  0  # atno 10763 bound_to 10752
  154.3951  135.2768  155.2133 H   0  0  0  0  0  0  0  0  0  0  0  0  # atno 10764 bound_to 10752
  154.3988  135.6108  153.5939 H   0  0  0  0  0  0  0  0  0  0  0  0  # atno 10765 bound_to 10752
  140.0783  134.5374  155.8973 H   0  0  0  0  0  0  0  0  0  0  0  0  # atno 11005 bound_to 11000
  145.2126  140.9902  143.4092 LP  0  0  0  0  0  0  0  0  0  0  0  0  # atno 17320 bound_to 7965
  144.9678  139.3911  143.6324 LP  0  0  0  0  0  0  0  0  0  0  0  0  # atno 17321 bound_to 7965
  139.9681  143.6088  152.2982 LP  0  0  0  0  0  0  0  0  0  0  0  0  # atno 17342 bound_to 10162
  139.6665  144.7662  151.1864 LP  0  0  0  0  0  0  0  0  0  0  0  0  # atno 17343 bound_to 10162
  157.7457  131.0435  150.4748 LP  0  0  0  0  0  0  0  0  0  0  0  0  # atno 17370 bound_to 10713
  156.4939  130.4101  149.6391 LP  0  0  0  0  0  0  0  0  0  0  0  0  # atno 17371 bound_to 10713
  141.2037  133.6634  156.6081 LP  0  0  0  0  0  0  0  0  0  0  0  0  # atno 17394 bound_to 11000
  140.3525  134.7756  157.4477 LP  0  0  0  0  0  0  0  0  0  0  0  0  # atno 17395 bound_to 11000

$$$$
