AV-unprocessed.smi:152|AV-procd|sdf|1246|dock7
  -GOLD-   2262018473D 1   1.00000     0.00000
 Structure written by MMmdl.
 58 61  0  0  0  0  0  0  0  0  2 V2000
  144.3994  135.2274  153.4787 C   0  0  0  0  0  0  0  0  0  0  0  0
  145.8037  135.6341  153.0104 C   0  0  0  0  0  0  0  0  0  0  0  0
  146.4131  134.6523  152.0761 N   0  3  2  0  0  0  0  0  0  0  0  0
  145.5388  134.3484  150.9174 C   0  0  0  0  0  0  0  0  0  0  0  0
  145.0932  132.8994  151.0834 C   0  0  0  0  0  0  0  0  0  0  0  0
  146.2972  132.2629  151.7559 C   0  0  0  0  0  0  0  0  0  0  0  0
  146.8112  133.3604  152.7010 C   0  0  1  0  0  0  0  0  0  0  0  0
  148.3377  133.2991  152.9325 C   0  0  0  0  0  0  0  0  0  0  0  0
  148.7300  132.3448  153.9699 N   0  0  0  0  0  0  0  0  0  0  0  0
  149.2231  131.0411  153.5338 C   0  0  0  0  0  0  0  0  0  0  0  0
  149.1582  132.8226  155.1703 C   0  0  0  0  0  0  0  0  0  0  0  0
  149.6263  131.9451  156.0984 N   0  0  0  0  0  0  0  0  0  0  0  0
  150.0759  132.3776  157.2795 C   0  0  0  0  0  0  0  0  0  0  0  0
  150.1444  133.6279  157.7370 N   0  0  0  0  0  0  0  0  0  0  0  0
  149.6653  134.5157  156.8203 C   0  0  0  0  0  0  0  0  0  0  0  0
  149.1578  134.2039  155.5258 C   0  0  0  0  0  0  0  0  0  0  0  0
  148.7537  135.3733  154.8910 N   0  0  0  0  0  0  0  0  0  0  0  0
  149.0145  136.3174  155.7529 C   0  0  0  0  0  0  0  0  0  0  0  0
  149.5582  135.8899  156.9418 N   0  0  0  0  0  0  0  0  0  0  0  0
  149.9364  136.7209  158.0749 C   0  0  0  0  0  0  0  0  0  0  0  0
  151.2257  137.5471  157.8433 C   0  0  0  0  0  0  0  0  0  0  0  0
  152.3245  136.6530  157.8954 O   0  0  0  0  0  0  0  0  0  0  0  0
  151.2393  138.2581  156.4723 C   0  0  0  0  0  0  0  0  0  0  0  0
  152.4222  139.2335  156.3377 C   0  0  0  0  0  0  0  0  0  0  0  0
  152.4122  140.1675  157.4106 O   0  0  0  0  0  0  0  0  0  0  0  0
  152.5769  139.5489  158.6810 C   0  0  0  0  0  0  0  0  0  0  0  0
  151.4004  138.5967  158.9592 C   0  0  0  0  0  0  0  0  0  0  0  0
  144.0279  135.9275  154.2270 H   0  0  0  0  0  0  0  0  0  0  0  0
  144.4044  134.2350  153.9302 H   0  0  0  0  0  0  0  0  0  0  0  0
  143.6835  135.2244  152.6568 H   0  0  0  0  0  0  0  0  0  0  0  0
  145.7780  136.6223  152.5485 H   0  0  0  0  0  0  0  0  0  0  0  0
  146.4416  135.7189  153.8911 H   0  0  0  0  0  0  0  0  0  0  0  0
  144.6909  135.0280  150.8184 H   0  0  0  0  0  0  0  0  0  0  0  0
  146.1390  134.4452  150.0122 H   0  0  0  0  0  0  0  0  0  0  0  0
  144.2259  132.8464  151.7426 H   0  0  0  0  0  0  0  0  0  0  0  0
  144.8323  132.4243  150.1373 H   0  0  0  0  0  0  0  0  0  0  0  0
  146.0472  131.3384  152.2774 H   0  0  0  0  0  0  0  0  0  0  0  0
  147.0465  132.0271  150.9987 H   0  0  0  0  0  0  0  0  0  0  0  0
  146.2845  133.2590  153.6516 H   0  0  0  0  0  0  0  0  0  0  0  0
  148.8498  133.1090  151.9922 H   0  0  0  0  0  0  0  0  0  0  0  0
  148.6979  134.2773  153.2492 H   0  0  0  0  0  0  0  0  0  0  0  0
  149.1038  130.2976  154.3226 H   0  0  0  0  0  0  0  0  0  0  0  0
  150.2783  131.0941  153.2638 H   0  0  0  0  0  0  0  0  0  0  0  0
  148.6684  130.6909  152.6631 H   0  0  0  0  0  0  0  0  0  0  0  0
  150.4323  131.6125  157.9536 H   0  0  0  0  0  0  0  0  0  0  0  0
  148.8086  137.3580  155.5479 H   0  0  0  0  0  0  0  0  0  0  0  0
  149.1021  137.3866  158.2993 H   0  0  0  0  0  0  0  0  0  0  0  0
  150.0506  136.0760  158.9474 H   0  0  0  0  0  0  0  0  0  0  0  0
  153.0725  137.1169  158.2398 H   0  0  0  0  0  0  0  0  0  0  0  0
  151.2683  137.5340  155.6570 H   0  0  0  0  0  0  0  0  0  0  0  0
  150.3120  138.8195  156.3504 H   0  0  0  0  0  0  0  0  0  0  0  0
  153.3728  138.6985  156.3158 H   0  0  0  0  0  0  0  0  0  0  0  0
  152.3479  139.7799  155.3974 H   0  0  0  0  0  0  0  0  0  0  0  0
  153.5303  139.0203  158.7213 H   0  0  0  0  0  0  0  0  0  0  0  0
  152.6155  140.3252  159.4454 H   0  0  0  0  0  0  0  0  0  0  0  0
  150.4894  139.1914  159.0399 H   0  0  0  0  0  0  0  0  0  0  0  0
  151.5329  138.1100  159.9265 H   0  0  0  0  0  0  0  0  0  0  0  0
  147.2475  135.0791  151.6992 H   0  0  0  0  0  0  0  0  0  0  0  0
  1  2  1  0  0  0  0
  1 28  1  0  0  0  0
  1 29  1  0  0  0  0
  1 30  1  0  0  0  0
  2  3  1  0  0  0  0
  2 31  1  0  0  0  0
  2 32  1  0  0  0  0
  3  7  1  0  0  0  0
  3  4  1  0  0  0  0
  3 58  1  0  0  0  0
  4  5  1  0  0  0  0
  4 33  1  0  0  0  0
  4 34  1  0  0  0  0
  5  6  1  0  0  0  0
  5 35  1  0  0  0  0
  5 36  1  0  0  0  0
  6  7  1  0  0  0  0
  6 37  1  0  0  0  0
  6 38  1  0  0  0  0
  7  8  1  0  0  0  0
  7 39  1  0  0  0  0
  8  9  1  0  0  0  0
  8 40  1  0  0  0  0
  8 41  1  0  0  0  0
  9 10  1  0  0  0  0
  9 11  1  0  0  0  0
 10 42  1  0  0  0  0
 10 43  1  0  0  0  0
 10 44  1  0  0  0  0
 11 16  1  0  0  0  0
 11 12  2  0  0  0  0
 12 13  1  0  0  0  0
 13 14  2  0  0  0  0
 13 45  1  0  0  0  0
 14 15  1  0  0  0  0
 15 19  1  0  0  0  0
 15 16  2  0  0  0  0
 16 17  1  0  0  0  0
 17 18  2  0  0  0  0
 18 19  1  0  0  0  0
 18 46  1  0  0  0  0
 19 20  1  0  0  0  0
 20 21  1  0  0  0  0
 20 47  1  0  0  0  0
 20 48  1  0  0  0  0
 21 27  1  0  0  0  0
 21 22  1  0  0  0  0
 21 23  1  0  0  0  0
 22 49  1  0  0  0  0
 23 24  1  0  0  0  0
 23 50  1  0  0  0  0
 23 51  1  0  0  0  0
 24 25  1  0  0  0  0
 24 52  1  0  0  0  0
 24 53  1  0  0  0  0
 25 26  1  0  0  0  0
 26 27  1  0  0  0  0
 26 54  1  0  0  0  0
 26 55  1  0  0  0  0
 27 56  1  0  0  0  0
 27 57  1  0  0  0  0
M  CHG  1   3   1
M  END
> <s_m_source_file>
AV-unprocessed.smi

> <i_m_source_file_index>
152

> <i_lp_mmshare_version>
43012

> <i_f3d_flags>
0

> <s_epik_input>
W0NIM11bQ0gyXU4xW0NIMl1bQ0gyXVtDSDJdW0NASF0xW0NIMl1OKFtDSDNdKWMobltjSF1uMiljKGMyMyluW2NIXW4zW0NIMl1DNChbT0hdKVtDSDJdW0NIMl1PW0NIMl1bQ0gyXTQ=

> <s_epik_cmdline>
J2VwaWtfcHl0aG9uJywgJy1waCcsICc3LjAnLCAnLXRuJywgJzgnLCAnLW1hJywgJzIwMCcsICctbWV0YWxfYmluZGluZycsICctaW1hZScsICc8aW5maWxlLm1hZT4nLCAnLW9tYWUnLCAnPG91dGZpbGUubWFlPic=

> <r_lp_tautomer_probability>
1

> <r_epik_Ionization_Penalty>
0.00152183

> <r_epik_Ionization_Penalty_Charging>
0.00112577

> <r_epik_Ionization_Penalty_Neutral>
0.000396066

> <r_epik_State_Penalty>
-0

> <r_epik_Charging_Adjusted_Penalty>
0.00112577

> <i_epik_Tot_Q>
1

> <i_epik_Tot_abs_Q>
1

> <r_epik_Metal_State_Penalty>
-0

> <b_epik_Metal_Only>
0

> <s_lp_Force_Field>
OPLS_2005

> <r_lp_Energy>
43.1926

> <b_lp_Chiralities_Consistent>
1

> <s_lp_Variant>
AV-unprocessed.smi:152-1

> <Gold.Version>
5.8.1

> <Gold.Id.Protein>
6NUR|6NUR_protein|mol2

> <Gold.PLP.Fitness>
40.3884

> <Gold.PLP.PLP>
-32.4748

> <Gold.PLP.part.hbond>
-3.1986

> <Gold.PLP.part.metal>
0.0000

> <Gold.PLP.part.buried>
-2.7034

> <Gold.PLP.part.nonpolar>
-25.1266

> <Gold.PLP.part.repulsive>
0.5464

> <Gold.PLP.ligand.clash>
0.0000

> <Gold.PLP.ligand.torsion>
0.8843

> <Gold.PLP.Chemscore.Hbond>
3.0458

> <Gold.PLP.Chemscore.CHOScore>
0.0000

> <Gold.PLP.Chemscore.Metal>
0.0000

> <Gold.Chemscore.Hbonds>
donor molecule, donor type, donor heavy atom, donor atom, acceptor molecule, acceptor atom, score
      L1  H     3    58       P1  7948  2.00
      P1  H  6896  6908       L1    14  1.00
      P1  H  7997  8009       L1    25  0.01

> <Gold.PLP.Chemscore.Internal.Correction>
0.5449

> <Gold.Rescore>
     Score         DG    S(hbond)    S(metal)    S(lipo)     H(rot)  DE(clash)    DE(int)     intcor
     11.91     -14.02       1.92        0.00      72.14       2.46       0.20       1.91       ----

> <Gold.Chemscore.Fitness>
11.9111

> <Gold.Chemscore.DG>
-14.0241

> <Gold.Chemscore.ZeroCoef>
-5.4800

> <Gold.Chemscore.Hbond>
1.9177

> <Gold.Chemscore.Metal>
0.0000

> <Gold.Chemscore.Lipo>
72.1379

> <Gold.Chemscore.Internal_Hbond>
0.0000

> <Gold.Chemscore.DEClash>
0.2032

> <Gold.Chemscore.DEInternal>
1.9099

> <Gold.Chemscore.Rot>
2.4614

> <Gold.Chemscore.Internal.Correction>
   9.000000E+99

> <Gold.Chemscore.Hbonds>
donor molecule, donor type, donor heavy atom, donor atom, acceptor molecule, acceptor atom, score
      L1  H     3    58       P1  7948  0.83
      P1  H  6896  6908       L1    14  0.92

> <Gold.Chemscore.Hbond.Weighted>
-6.4052

> <Gold.Chemscore.Metal.Weighted>
-0.0000

> <Gold.Chemscore.Lipo.Weighted>
-8.4401

> <Gold.Chemscore.Internal_Hbond.Weighted>
0.0000

> <Gold.Chemscore.DEClash.Weighted>
0.2032

> <Gold.Chemscore.DEInternal.Weighted>
1.9099

> <Gold.Chemscore.Rot.Weighted>
6.3012

> <Gold.Chemscore.Internal.Correction.Weighted>
   9.000000E+99

> <Gold.Protein.RotatedTorsions>
[ 6907 6896 6895 6894 ] final  127.95 input  -60.11 | X-H torsion
[ 7974 7965 7964 7962 ] final -120.53 input  175.53 | X-H torsion
[ 8008 7997 7996 7995 ] final  147.52 input   59.86 | X-H torsion
[ 10167 10162 10161 10158 ] final -144.97 input  -65.29 | X-H torsion
[ 10718 10713 10712 10709 ] final  133.14 input   66.30 | X-H torsion
[ 10763 10752 10751 10750 ] final   84.67 input  -60.55 | X-H torsion
[ 11005 11000 10999 10996 ] final   85.95 input  -57.11 | X-H torsion

> <Gold.Protein.ActiveResidues>
 VAL166  LYS551  ARG553  GLY616  TRP617  ASP618  TYR619  PRO620  LYS621  CYS622 
 ASP623  PHE694  ASN695  SER759  ASP760  ASP761  ALA762  ILE779  LEU786  VAL792 
 PHE793  MET794  SER795  GLU796  ALA797  LYS798  CYS799  TRP800  GLU811  SER814 

> <Gold.Protein.RotatedAtoms>
  152.3765  133.6488  159.6127 H   0  0  0  0  0  0  0  0  0  0  0  0  # atno 6907 bound_to 6896
  150.7707  133.9185  159.3400 H   0  0  0  0  0  0  0  0  0  0  0  0  # atno 6908 bound_to 6896
  151.6999  135.0933  160.0300 H   0  0  0  0  0  0  0  0  0  0  0  0  # atno 6909 bound_to 6896
  145.0504  140.8214  143.4213 H   0  0  0  0  0  0  0  0  0  0  0  0  # atno 7974 bound_to 7965
  156.2822  140.2153  156.5551 H   0  0  0  0  0  0  0  0  0  0  0  0  # atno 8008 bound_to 7997
  154.7259  140.0499  157.0705 H   0  0  0  0  0  0  0  0  0  0  0  0  # atno 8009 bound_to 7997
  155.0417  140.3146  155.4725 H   0  0  0  0  0  0  0  0  0  0  0  0  # atno 8010 bound_to 7997
  139.7850  143.8047  152.2643 H   0  0  0  0  0  0  0  0  0  0  0  0  # atno 10167 bound_to 10162
  157.4802  131.1085  150.9692 H   0  0  0  0  0  0  0  0  0  0  0  0  # atno 10718 bound_to 10713
  153.1403  135.4645  154.9486 H   0  0  0  0  0  0  0  0  0  0  0  0  # atno 10763 bound_to 10752
  154.7741  135.3168  154.8130 H   0  0  0  0  0  0  0  0  0  0  0  0  # atno 10764 bound_to 10752
  153.8654  135.6908  153.4833 H   0  0  0  0  0  0  0  0  0  0  0  0  # atno 10765 bound_to 10752
  139.8957  134.8322  156.2653 H   0  0  0  0  0  0  0  0  0  0  0  0  # atno 11005 bound_to 11000
  145.1534  139.2501  143.5429 LP  0  0  0  0  0  0  0  0  0  0  0  0  # atno 17320 bound_to 7965
  146.3517  140.1243  142.8599 LP  0  0  0  0  0  0  0  0  0  0  0  0  # atno 17321 bound_to 7965
  139.8121  144.7331  150.9683 LP  0  0  0  0  0  0  0  0  0  0  0  0  # atno 17342 bound_to 10162
  140.7819  143.4240  151.0797 LP  0  0  0  0  0  0  0  0  0  0  0  0  # atno 17343 bound_to 10162
  157.0427  130.5756  149.5358 LP  0  0  0  0  0  0  0  0  0  0  0  0  # atno 17370 bound_to 10713
  156.0117  130.5209  150.8010 LP  0  0  0  0  0  0  0  0  0  0  0  0  # atno 17371 bound_to 10713
  141.0136  133.7081  156.1152 LP  0  0  0  0  0  0  0  0  0  0  0  0  # atno 17394 bound_to 11000
  140.7333  134.4231  157.5563 LP  0  0  0  0  0  0  0  0  0  0  0  0  # atno 17395 bound_to 11000

$$$$
