AV-unprocessed.smi:2168|AV-procd|sdf|8818|dock1
  -GOLD-   2272012 03D 1   1.00000     0.00000
 Structure written by MMmdl.
 46 47  0  0  0  0  0  0  0  0  1 V2000
  154.2749  137.6403  164.8296 C   0  0  0  0  0  0  0  0  0  0  0  0
  153.4156  137.0650  163.6940 C   0  0  0  0  0  0  0  0  0  0  0  0
  154.2217  136.3179  162.7115 N   0  0  0  0  0  0  0  0  0  0  0  0
  154.3558  134.8722  162.9773 C   0  0  0  0  0  0  0  0  0  0  0  0
  155.5091  134.2656  162.1658 C   0  0  0  0  0  0  0  0  0  0  0  0
  154.1648  136.8503  161.0599 S   0  0  0  0  0  0  0  0  0  0  0  0
  154.1700  135.6703  160.1817 O   0  0  0  0  0  0  0  0  0  0  0  0
  153.1279  137.8847  160.9222 O   0  0  0  0  0  0  0  0  0  0  0  0
  155.7016  137.6177  160.9451 N   0  0  0  0  0  0  0  0  0  0  0  0
  156.0168  138.7932  161.7498 C   0  0  0  0  0  0  0  0  0  0  0  0
  155.2323  140.0100  161.3043 C   0  0  0  0  0  0  0  0  0  0  0  0
  154.3183  140.6353  162.1737 C   0  0  0  0  0  0  0  0  0  0  0  0
  153.5940  141.7509  161.7126 C   0  0  0  0  0  0  0  0  0  0  0  0
  153.8007  142.2112  160.3898 C   0  0  0  0  0  0  0  0  0  0  0  0
  153.0778  143.3224  159.9025 N   0  0  0  0  0  0  0  0  0  0  0  0
  152.2251  144.0006  160.8763 C   0  0  0  0  0  0  0  0  0  0  0  0
  151.7424  145.3509  160.3188 C   0  0  0  0  0  0  0  0  0  0  0  0
  151.0992  145.1529  159.0645 O   0  0  0  0  0  0  0  0  0  0  0  0
  151.9846  144.5965  158.0988 C   0  0  0  0  0  0  0  0  0  0  0  0
  152.4713  143.2180  158.5763 C   0  0  0  0  0  0  0  0  0  0  0  0
  154.6908  141.6096  159.5612 N   0  0  0  0  0  0  0  0  0  0  0  0
  155.3822  140.5396  160.0075 C   0  0  0  0  0  0  0  0  0  0  0  0
  153.6672  138.2497  165.4987 H   0  0  0  0  0  0  0  0  0  0  0  0
  155.0706  138.2739  164.4370 H   0  0  0  0  0  0  0  0  0  0  0  0
  154.7337  136.8571  165.4330 H   0  0  0  0  0  0  0  0  0  0  0  0
  152.6332  136.4168  164.0901 H   0  0  0  0  0  0  0  0  0  0  0  0
  152.9081  137.8893  163.1931 H   0  0  0  0  0  0  0  0  0  0  0  0
  154.5112  134.6920  164.0415 H   0  0  0  0  0  0  0  0  0  0  0  0
  153.4232  134.3674  162.7236 H   0  0  0  0  0  0  0  0  0  0  0  0
  155.6040  133.1992  162.3706 H   0  0  0  0  0  0  0  0  0  0  0  0
  156.4607  134.7347  162.4147 H   0  0  0  0  0  0  0  0  0  0  0  0
  155.3533  134.3802  161.0935 H   0  0  0  0  0  0  0  0  0  0  0  0
  156.4830  137.0070  160.7086 H   0  0  0  0  0  0  0  0  0  0  0  0
  155.8058  138.5774  162.7976 H   0  0  0  0  0  0  0  0  0  0  0  0
  157.0851  139.0007  161.6765 H   0  0  0  0  0  0  0  0  0  0  0  0
  154.1720  140.2661  163.1783 H   0  0  0  0  0  0  0  0  0  0  0  0
  152.9020  142.2432  162.3792 H   0  0  0  0  0  0  0  0  0  0  0  0
  151.3692  143.3620  161.0981 H   0  0  0  0  0  0  0  0  0  0  0  0
  152.7431  144.1735  161.8183 H   0  0  0  0  0  0  0  0  0  0  0  0
  151.0368  145.8116  161.0101 H   0  0  0  0  0  0  0  0  0  0  0  0
  152.5768  146.0452  160.2063 H   0  0  0  0  0  0  0  0  0  0  0  0
  151.4592  144.5005  157.1487 H   0  0  0  0  0  0  0  0  0  0  0  0
  152.8269  145.2696  157.9308 H   0  0  0  0  0  0  0  0  0  0  0  0
  153.1931  142.8231  157.8601 H   0  0  0  0  0  0  0  0  0  0  0  0
  151.6338  142.5199  158.6155 H   0  0  0  0  0  0  0  0  0  0  0  0
  156.0692  140.0912  159.3049 H   0  0  0  0  0  0  0  0  0  0  0  0
  1  2  1  0  0  0  0
  1 23  1  0  0  0  0
  1 24  1  0  0  0  0
  1 25  1  0  0  0  0
  2  3  1  0  0  0  0
  2 26  1  0  0  0  0
  2 27  1  0  0  0  0
  3  4  1  0  0  0  0
  3  6  1  0  0  0  0
  4  5  1  0  0  0  0
  4 28  1  0  0  0  0
  4 29  1  0  0  0  0
  5 30  1  0  0  0  0
  5 31  1  0  0  0  0
  5 32  1  0  0  0  0
  6  7  2  0  0  0  0
  6  8  2  0  0  0  0
  6  9  1  0  0  0  0
  9 10  1  0  0  0  0
  9 33  1  0  0  0  0
 10 11  1  0  0  0  0
 10 34  1  0  0  0  0
 10 35  1  0  0  0  0
 11 22  1  0  0  0  0
 11 12  2  0  0  0  0
 12 13  1  0  0  0  0
 12 36  1  0  0  0  0
 13 14  2  0  0  0  0
 13 37  1  0  0  0  0
 14 15  1  0  0  0  0
 14 21  1  0  0  0  0
 15 20  1  0  0  0  0
 15 16  1  0  0  0  0
 16 17  1  0  0  0  0
 16 38  1  0  0  0  0
 16 39  1  0  0  0  0
 17 18  1  0  0  0  0
 17 40  1  0  0  0  0
 17 41  1  0  0  0  0
 18 19  1  0  0  0  0
 19 20  1  0  0  0  0
 19 42  1  0  0  0  0
 19 43  1  0  0  0  0
 20 44  1  0  0  0  0
 20 45  1  0  0  0  0
 21 22  2  0  0  0  0
 22 46  1  0  0  0  0
M  END
> <s_m_source_file>
AV-unprocessed.smi

> <i_m_source_file_index>
2168

> <i_lp_mmshare_version>
43012

> <i_f3d_flags>
0

> <s_epik_input>
W0NIM11bQ0gyXU4oW0NIMl1bQ0gzXSlTKD1PKSg9TylbTkhdW0NIMl1jMVtjSF1bY0hdYyhuW2NIXTEpTjJbQ0gyXVtDSDJdT1tDSDJdW0NIMl0y

> <s_epik_cmdline>
J2VwaWtfcHl0aG9uJywgJy1waCcsICc3LjAnLCAnLXRuJywgJzgnLCAnLW1hJywgJzIwMCcsICctbWV0YWxfYmluZGluZycsICctaW1hZScsICc8aW5maWxlLm1hZT4nLCAnLW9tYWUnLCAnPG91dGZpbGUubWFlPic=

> <r_lp_tautomer_probability>
1

> <r_epik_Ionization_Penalty>
0.0173889

> <r_epik_Ionization_Penalty_Charging>
0

> <r_epik_Ionization_Penalty_Neutral>
0.0173889

> <r_epik_State_Penalty>
0.0135122

> <r_epik_Charging_Adjusted_Penalty>
0.0135122

> <i_epik_Tot_Q>
0

> <i_epik_Tot_abs_Q>
0

> <r_epik_Metal_State_Penalty>
0.283451

> <b_epik_Metal_Only>
0

> <s_lp_Force_Field>
OPLS_2005

> <r_lp_Energy>
21.8709

> <b_lp_Chiralities_Consistent>
1

> <s_lp_Variant>
AV-unprocessed.smi:2168-1

> <Gold.Version>
5.8.1

> <Gold.Id.Protein>
6NUR|6NUR_protein|mol2

> <Gold.PLP.Fitness>
47.0110

> <Gold.PLP.PLP>
-44.1957

> <Gold.PLP.part.hbond>
-1.6113

> <Gold.PLP.part.metal>
0.0000

> <Gold.PLP.part.buried>
-3.9086

> <Gold.PLP.part.nonpolar>
-39.5720

> <Gold.PLP.part.repulsive>
0.1360

> <Gold.PLP.ligand.clash>
0.0000

> <Gold.PLP.ligand.torsion>
2.1104

> <Gold.PLP.Chemscore.Hbond>
1.0000

> <Gold.PLP.Chemscore.CHOScore>
0.0000

> <Gold.PLP.Chemscore.Metal>
0.0000

> <Gold.Chemscore.Hbonds>
donor molecule, donor type, donor heavy atom, donor atom, acceptor molecule, acceptor atom, score
      P1  H  6896  6908       L1     7  1.00

> <Gold.PLP.Chemscore.Internal.Correction>
4.0360

> <Gold.Rescore>
     Score         DG    S(hbond)    S(metal)    S(lipo)     H(rot)  DE(clash)    DE(int)     intcor
     14.47     -18.05       0.99        0.00     116.64       1.72       1.35       2.23       ----

> <Gold.Chemscore.Fitness>
14.4711

> <Gold.Chemscore.DG>
-18.0522

> <Gold.Chemscore.ZeroCoef>
-5.4800

> <Gold.Chemscore.Hbond>
0.9949

> <Gold.Chemscore.Metal>
0.0000

> <Gold.Chemscore.Lipo>
116.6384

> <Gold.Chemscore.Internal_Hbond>
0.0000

> <Gold.Chemscore.DEClash>
1.3497

> <Gold.Chemscore.DEInternal>
2.2314

> <Gold.Chemscore.Rot>
1.7177

> <Gold.Chemscore.Internal.Correction>
   9.000000E+99

> <Gold.Chemscore.Hbonds>
donor molecule, donor type, donor heavy atom, donor atom, acceptor molecule, acceptor atom, score
      P1  H  6896  6908       L1     7  0.94

> <Gold.Chemscore.Hbond.Weighted>
-3.3229

> <Gold.Chemscore.Metal.Weighted>
-0.0000

> <Gold.Chemscore.Lipo.Weighted>
-13.6467

> <Gold.Chemscore.Internal_Hbond.Weighted>
0.0000

> <Gold.Chemscore.DEClash.Weighted>
1.3497

> <Gold.Chemscore.DEInternal.Weighted>
2.2314

> <Gold.Chemscore.Rot.Weighted>
4.3974

> <Gold.Chemscore.Internal.Correction.Weighted>
   9.000000E+99

> <Gold.Protein.RotatedTorsions>
[ 6907 6896 6895 6894 ] final  -54.39 input  -60.11 | X-H torsion
[ 7974 7965 7964 7962 ] final -169.50 input  175.53 | X-H torsion
[ 8008 7997 7996 7995 ] final  -32.00 input   59.86 | X-H torsion
[ 10167 10162 10161 10158 ] final -168.63 input  -65.29 | X-H torsion
[ 10718 10713 10712 10709 ] final   13.54 input   66.30 | X-H torsion
[ 10763 10752 10751 10750 ] final  -93.53 input  -60.55 | X-H torsion
[ 11005 11000 10999 10996 ] final -117.98 input  -57.11 | X-H torsion

> <Gold.Protein.ActiveResidues>
 VAL166  LYS551  ARG553  GLY616  TRP617  ASP618  TYR619  PRO620  LYS621  CYS622 
 ASP623  PHE694  ASN695  SER759  ASP760  ASP761  ALA762  ILE779  LEU786  VAL792 
 PHE793  MET794  SER795  GLU796  ALA797  LYS798  CYS799  TRP800  GLU811  SER814 

> <Gold.Protein.RotatedAtoms>
  150.8342  134.7608  159.6878 H   0  0  0  0  0  0  0  0  0  0  0  0  # atno 6907 bound_to 6896
  152.4442  134.5526  159.9881 H   0  0  0  0  0  0  0  0  0  0  0  0  # atno 6908 bound_to 6896
  151.5680  133.3356  159.3020 H   0  0  0  0  0  0  0  0  0  0  0  0  # atno 6909 bound_to 6896
  144.7184  140.2212  143.6316 H   0  0  0  0  0  0  0  0  0  0  0  0  # atno 7974 bound_to 7965
  154.4194  140.1749  156.1657 H   0  0  0  0  0  0  0  0  0  0  0  0  # atno 8008 bound_to 7997
  155.9801  140.3378  155.6631 H   0  0  0  0  0  0  0  0  0  0  0  0  # atno 8009 bound_to 7997
  155.6511  140.0690  157.2577 H   0  0  0  0  0  0  0  0  0  0  0  0  # atno 8010 bound_to 7997
  139.5973  144.1085  152.1703 H   0  0  0  0  0  0  0  0  0  0  0  0  # atno 10167 bound_to 10162
  157.0262  130.6174  149.5728 H   0  0  0  0  0  0  0  0  0  0  0  0  # atno 10718 bound_to 10713
  154.6968  135.5191  153.8469 H   0  0  0  0  0  0  0  0  0  0  0  0  # atno 10763 bound_to 10752
  153.0673  135.6589  154.0335 H   0  0  0  0  0  0  0  0  0  0  0  0  # atno 10764 bound_to 10752
  154.0200  135.2994  155.3361 H   0  0  0  0  0  0  0  0  0  0  0  0  # atno 10765 bound_to 10752
  141.0318  133.9970  157.3132 H   0  0  0  0  0  0  0  0  0  0  0  0  # atno 11005 bound_to 11000
  145.8500  139.2170  143.1778 LP  0  0  0  0  0  0  0  0  0  0  0  0  # atno 17320 bound_to 7965
  146.0269  140.8295  142.9895 LP  0  0  0  0  0  0  0  0  0  0  0  0  # atno 17321 bound_to 7965
  140.0673  144.5808  150.7218 LP  0  0  0  0  0  0  0  0  0  0  0  0  # atno 17342 bound_to 10162
  140.7222  143.2600  151.4241 LP  0  0  0  0  0  0  0  0  0  0  0  0  # atno 17343 bound_to 10162
  156.0085  130.5174  150.7911 LP  0  0  0  0  0  0  0  0  0  0  0  0  # atno 17370 bound_to 10713
  157.5212  131.0931  151.0075 LP  0  0  0  0  0  0  0  0  0  0  0  0  # atno 17371 bound_to 10713
  139.9213  135.0200  156.8073 LP  0  0  0  0  0  0  0  0  0  0  0  0  # atno 17394 bound_to 11000
  140.6394  133.9833  155.7700 LP  0  0  0  0  0  0  0  0  0  0  0  0  # atno 17395 bound_to 11000

$$$$
