AV-unprocessed.smi:1912|AV-procd|sdf|7750|dock1
  -GOLD-   22720 9493D 1   1.00000     0.00000
 Structure written by MMmdl.
 44 46  0  0  0  0  0  0  0  0  2 V2000
  154.9254  139.9830  161.9959 C   0  0  0  0  0  0  0  0  0  0  0  0
  154.0158  139.5560  160.9926 O   0  0  0  0  0  0  0  0  0  0  0  0
  153.4124  140.5182  160.2118 C   0  0  0  0  0  0  0  0  0  0  0  0
  153.6960  141.9015  160.2913 C   0  0  0  0  0  0  0  0  0  0  0  0
  153.0381  142.8139  159.4464 C   0  0  0  0  0  0  0  0  0  0  0  0
  152.0786  142.3695  158.5031 C   0  0  0  0  0  0  0  0  0  0  0  0
  151.4215  143.2186  157.6355 O   0  0  0  0  0  0  0  0  0  0  0  0
  151.8288  144.5773  157.5797 C   0  0  0  0  0  0  0  0  0  0  0  0
  151.7848  140.9854  158.4281 C   0  0  0  0  0  0  0  0  0  0  0  0
  150.7778  140.4594  157.4056 C   0  0  2  0  0  0  0  0  0  0  0  0
  150.3751  139.1311  157.6727 O   0  0  0  0  0  0  0  0  0  0  0  0
  151.3208  140.5092  155.9618 C   0  0  0  0  0  0  0  0  0  0  0  0
  150.4107  139.8776  154.9930 N   0  0  0  0  0  0  0  0  0  0  0  0
  150.5082  138.6738  154.3603 C   0  0  0  0  0  0  0  0  0  0  0  0
  151.6144  137.6826  154.4962 C   0  0  0  0  0  0  0  0  0  0  0  0
  149.3966  138.5327  153.5851 N   0  3  0  0  0  0  0  0  0  0  0  0
  148.5794  139.6552  153.7229 C   0  0  0  0  0  0  0  0  0  0  0  0
  147.3515  139.9630  153.1453 C   0  0  0  0  0  0  0  0  0  0  0  0
  146.7740  141.1978  153.5068 C   0  0  0  0  0  0  0  0  0  0  0  0
  147.4163  142.0731  154.4060 C   0  0  0  0  0  0  0  0  0  0  0  0
  148.6634  141.7525  154.9807 C   0  0  0  0  0  0  0  0  0  0  0  0
  149.2267  140.5276  154.6222 C   0  0  0  0  0  0  0  0  0  0  0  0
  152.4567  140.0780  159.2771 C   0  0  0  0  0  0  0  0  0  0  0  0
  155.3116  139.1117  162.5248 H   0  0  0  0  0  0  0  0  0  0  0  0
  154.4366  140.6248  162.7302 H   0  0  0  0  0  0  0  0  0  0  0  0
  155.7771  140.5104  161.5641 H   0  0  0  0  0  0  0  0  0  0  0  0
  154.4196  142.2901  160.9917 H   0  0  0  0  0  0  0  0  0  0  0  0
  153.2931  143.8582  159.5427 H   0  0  0  0  0  0  0  0  0  0  0  0
  151.2568  145.0908  156.8068 H   0  0  0  0  0  0  0  0  0  0  0  0
  152.8849  144.6664  157.3206 H   0  0  0  0  0  0  0  0  0  0  0  0
  151.6412  145.0895  158.5241 H   0  0  0  0  0  0  0  0  0  0  0  0
  149.8649  141.0520  157.4630 H   0  0  0  0  0  0  0  0  0  0  0  0
  150.8483  138.8210  158.4300 H   0  0  0  0  0  0  0  0  0  0  0  0
  151.5415  141.5303  155.6501 H   0  0  0  0  0  0  0  0  0  0  0  0
  152.2648  139.9659  155.9031 H   0  0  0  0  0  0  0  0  0  0  0  0
  151.4435  136.8258  153.8441 H   0  0  0  0  0  0  0  0  0  0  0  0
  151.6779  137.3282  155.5250 H   0  0  0  0  0  0  0  0  0  0  0  0
  152.5660  138.1398  154.2244 H   0  0  0  0  0  0  0  0  0  0  0  0
  146.8572  139.2935  152.4568 H   0  0  0  0  0  0  0  0  0  0  0  0
  145.8192  141.4787  153.0867 H   0  0  0  0  0  0  0  0  0  0  0  0
  146.9428  143.0097  154.6622 H   0  0  0  0  0  0  0  0  0  0  0  0
  149.1409  142.4299  155.6727 H   0  0  0  0  0  0  0  0  0  0  0  0
  152.2472  139.0206  159.2084 H   0  0  0  0  0  0  0  0  0  0  0  0
  149.2104  137.7232  153.0073 H   0  0  0  0  0  0  0  0  0  0  0  0
  1  2  1  0  0  0  0
  1 24  1  0  0  0  0
  1 25  1  0  0  0  0
  1 26  1  0  0  0  0
  2  3  1  0  0  0  0
  3 23  1  0  0  0  0
  3  4  2  0  0  0  0
  4  5  1  0  0  0  0
  4 27  1  0  0  0  0
  5  6  2  0  0  0  0
  5 28  1  0  0  0  0
  6  7  1  0  0  0  0
  6  9  1  0  0  0  0
  7  8  1  0  0  0  0
  8 29  1  0  0  0  0
  8 30  1  0  0  0  0
  8 31  1  0  0  0  0
  9 10  1  0  0  0  0
  9 23  2  0  0  0  0
 10 11  1  0  0  0  0
 10 12  1  0  0  0  0
 10 32  1  0  0  0  0
 11 33  1  0  0  0  0
 12 13  1  0  0  0  0
 12 34  1  0  0  0  0
 12 35  1  0  0  0  0
 13 22  1  0  0  0  0
 13 14  1  0  0  0  0
 14 15  1  0  0  0  0
 14 16  2  0  0  0  0
 15 36  1  0  0  0  0
 15 37  1  0  0  0  0
 15 38  1  0  0  0  0
 16 17  1  0  0  0  0
 16 44  1  0  0  0  0
 17 22  2  0  0  0  0
 17 18  1  0  0  0  0
 18 19  2  0  0  0  0
 18 39  1  0  0  0  0
 19 20  1  0  0  0  0
 19 40  1  0  0  0  0
 20 21  2  0  0  0  0
 20 41  1  0  0  0  0
 21 22  1  0  0  0  0
 21 42  1  0  0  0  0
 23 43  1  0  0  0  0
M  CHG  1  16   1
M  END
> <s_m_source_file>
AV-unprocessed.smi

> <i_m_source_file_index>
1912

> <i_lp_mmshare_version>
43012

> <i_f3d_flags>
0

> <s_epik_input>
W0NIM11PYzFbY0hdW2NIXWMoT1tDSDNdKWMoW2NIXTEpW0NASF0oW09IXSlbQ0gyXW4oYyhuMilbQ0gzXSljKGMyMylbY0hdW2NIXVtjSF1bY0hdMw==

> <s_epik_cmdline>
J2VwaWtfcHl0aG9uJywgJy1waCcsICc3LjAnLCAnLXRuJywgJzgnLCAnLW1hJywgJzIwMCcsICctbWV0YWxfYmluZGluZycsICctaW1hZScsICc8aW5maWxlLm1hZT4nLCAnLW9tYWUnLCAnPG91dGZpbGUubWFlPic=

> <r_lp_tautomer_probability>
1

> <r_epik_Ionization_Penalty>
0.963869

> <r_epik_Ionization_Penalty_Charging>
0.963868

> <r_epik_Ionization_Penalty_Neutral>
1.34362e-06

> <r_epik_State_Penalty>
1.00924

> <r_epik_Charging_Adjusted_Penalty>
1.9731

> <i_epik_Tot_Q>
1

> <i_epik_Tot_abs_Q>
1

> <r_epik_Metal_State_Penalty>
4.98304

> <b_epik_Metal_Only>
0

> <s_lp_Force_Field>
OPLS_2005

> <r_lp_Energy>
21.5299

> <b_lp_Chiralities_Consistent>
1

> <s_lp_Variant>
AV-unprocessed.smi:1912-3

> <Gold.Version>
5.8.1

> <Gold.Id.Protein>
6NUR|6NUR_protein|mol2

> <Gold.PLP.Fitness>
55.6768

> <Gold.PLP.PLP>
-50.6357

> <Gold.PLP.part.hbond>
-2.0000

> <Gold.PLP.part.metal>
0.0000

> <Gold.PLP.part.buried>
0.0097

> <Gold.PLP.part.nonpolar>
-49.1913

> <Gold.PLP.part.repulsive>
0.1753

> <Gold.PLP.ligand.clash>
0.0000

> <Gold.PLP.ligand.torsion>
0.6084

> <Gold.PLP.Chemscore.Hbond>
2.0000

> <Gold.PLP.Chemscore.CHOScore>
0.0000

> <Gold.PLP.Chemscore.Metal>
0.0000

> <Gold.Chemscore.Hbonds>
donor molecule, donor type, donor heavy atom, donor atom, acceptor molecule, acceptor atom, score
      L1  H    16    44       P1  7948  2.00

> <Gold.PLP.Chemscore.Internal.Correction>
0.2578

> <Gold.Rescore>
     Score         DG    S(hbond)    S(metal)    S(lipo)     H(rot)  DE(clash)    DE(int)     intcor
     17.82     -18.48       0.99        0.00     131.87       2.24       0.10       0.56       ----

> <Gold.Chemscore.Fitness>
17.8245

> <Gold.Chemscore.DG>
-18.4828

> <Gold.Chemscore.ZeroCoef>
-5.4800

> <Gold.Chemscore.Hbond>
0.9944

> <Gold.Chemscore.Metal>
0.0000

> <Gold.Chemscore.Lipo>
131.8666

> <Gold.Chemscore.Internal_Hbond>
0.0000

> <Gold.Chemscore.DEClash>
0.0959

> <Gold.Chemscore.DEInternal>
0.5624

> <Gold.Chemscore.Rot>
2.2448

> <Gold.Chemscore.Internal.Correction>
   9.000000E+99

> <Gold.Chemscore.Hbonds>
donor molecule, donor type, donor heavy atom, donor atom, acceptor molecule, acceptor atom, score
      L1  H    16    44       P1  7948  0.98

> <Gold.Chemscore.Hbond.Weighted>
-3.3211

> <Gold.Chemscore.Metal.Weighted>
-0.0000

> <Gold.Chemscore.Lipo.Weighted>
-15.4284

> <Gold.Chemscore.Internal_Hbond.Weighted>
0.0000

> <Gold.Chemscore.DEClash.Weighted>
0.0959

> <Gold.Chemscore.DEInternal.Weighted>
0.5624

> <Gold.Chemscore.Rot.Weighted>
5.7467

> <Gold.Chemscore.Internal.Correction.Weighted>
   9.000000E+99

> <Gold.Protein.RotatedTorsions>
[ 6907 6896 6895 6894 ] final   28.11 input  -60.11 | X-H torsion
[ 7974 7965 7964 7962 ] final  166.59 input  175.53 | X-H torsion
[ 8008 7997 7996 7995 ] final  -19.90 input   59.86 | X-H torsion
[ 10167 10162 10161 10158 ] final   60.44 input  -65.29 | X-H torsion
[ 10718 10713 10712 10709 ] final -160.95 input   66.30 | X-H torsion
[ 10763 10752 10751 10750 ] final  167.06 input  -60.55 | X-H torsion
[ 11005 11000 10999 10996 ] final  101.68 input  -57.11 | X-H torsion

> <Gold.Protein.ActiveResidues>
 VAL166  LYS551  ARG553  GLY616  TRP617  ASP618  TYR619  PRO620  LYS621  CYS622 
 ASP623  PHE694  ASN695  SER759  ASP760  ASP761  ALA762  ILE779  LEU786  VAL792 
 PHE793  MET794  SER795  GLU796  ALA797  LYS798  CYS799  TRP800  GLU811  SER814 

> <Gold.Protein.RotatedAtoms>
  152.0121  134.9870  160.0568 H   0  0  0  0  0  0  0  0  0  0  0  0  # atno 6907 bound_to 6896
  152.1419  133.4464  159.4779 H   0  0  0  0  0  0  0  0  0  0  0  0  # atno 6908 bound_to 6896
  150.6866  134.2213  159.4441 H   0  0  0  0  0  0  0  0  0  0  0  0  # atno 6909 bound_to 6896
  144.7456  139.8638  143.6383 H   0  0  0  0  0  0  0  0  0  0  0  0  # atno 7974 bound_to 7965
  154.4805  140.2076  155.9775 H   0  0  0  0  0  0  0  0  0  0  0  0  # atno 8008 bound_to 7997
  156.1157  140.3221  155.8106 H   0  0  0  0  0  0  0  0  0  0  0  0  # atno 8009 bound_to 7997
  155.4556  140.0520  157.2987 H   0  0  0  0  0  0  0  0  0  0  0  0  # atno 8010 bound_to 7997
  140.1655  144.4328  150.6687 H   0  0  0  0  0  0  0  0  0  0  0  0  # atno 10167 bound_to 10162
  156.5893  130.8763  151.2886 H   0  0  0  0  0  0  0  0  0  0  0  0  # atno 10718 bound_to 10713
  154.3482  135.2753  155.2386 H   0  0  0  0  0  0  0  0  0  0  0  0  # atno 10763 bound_to 10752
  154.4627  135.5903  153.6270 H   0  0  0  0  0  0  0  0  0  0  0  0  # atno 10764 bound_to 10752
  152.9852  135.6069  154.3690 H   0  0  0  0  0  0  0  0  0  0  0  0  # atno 10765 bound_to 10752
  139.8774  134.9193  156.4944 H   0  0  0  0  0  0  0  0  0  0  0  0  # atno 11005 bound_to 11000
  146.1329  139.4368  143.0157 LP  0  0  0  0  0  0  0  0  0  0  0  0  # atno 17320 bound_to 7965
  145.7135  141.0098  143.1440 LP  0  0  0  0  0  0  0  0  0  0  0  0  # atno 17321 bound_to 7965
  140.6615  143.2254  151.5843 LP  0  0  0  0  0  0  0  0  0  0  0  0  # atno 17342 bound_to 10162
  139.5361  144.2776  152.1255 LP  0  0  0  0  0  0  0  0  0  0  0  0  # atno 17343 bound_to 10162
  157.7307  130.9690  150.1847 LP  0  0  0  0  0  0  0  0  0  0  0  0  # atno 17370 bound_to 10713
  156.2563  130.3706  149.8178 LP  0  0  0  0  0  0  0  0  0  0  0  0  # atno 17371 bound_to 10713
  140.8635  133.8042  155.9290 LP  0  0  0  0  0  0  0  0  0  0  0  0  # atno 17394 bound_to 11000
  140.9025  134.2361  157.5033 LP  0  0  0  0  0  0  0  0  0  0  0  0  # atno 17395 bound_to 11000

$$$$
