AV-unprocessed.smi:3208|AV-procd|sdf|12261|dock1
  -GOLD-   2272018 93D 1   1.00000     0.00000
 Structure written by MMmdl.
 30 30  0  0  0  0  0  0  0  0  1 V2000
  146.7184  141.9575  153.9614 C   0  0  0  0  0  0  0  0  0  0  0  0
  147.8420  141.2284  153.8889 C   0  0  0  0  0  0  0  0  0  0  0  0
  149.1441  141.5895  154.5685 C   0  0  0  0  0  0  0  0  0  0  0  0
  150.1402  140.6187  154.2701 O   0  0  0  0  0  0  0  0  0  0  0  0
  150.4099  139.6766  155.3058 C   0  0  1  0  0  0  0  0  0  0  0  0
  151.0276  138.4320  154.6506 C   0  0  0  0  0  0  0  0  0  0  0  0
  151.3534  140.2872  156.3551 C   0  0  0  0  0  0  0  0  0  0  0  0
  152.4673  139.7940  156.5355 O   0  0  0  0  0  0  0  0  0  0  0  0
  150.8776  141.3631  157.0090 N   0  0  0  0  0  0  0  0  0  0  0  0
  151.5134  142.1449  158.0125 C   0  0  0  0  0  0  0  0  0  0  0  0
  151.9461  141.6284  159.1903 N   0  0  0  0  0  0  0  0  0  0  0  0
  152.5416  142.4383  160.0900 C   0  0  0  0  0  0  0  0  0  0  0  0
  152.7427  143.8130  159.8729 C   0  0  0  0  0  0  0  0  0  0  0  0
  152.2992  144.3630  158.6576 C   0  0  0  0  0  0  0  0  0  0  0  0
  151.6765  143.5219  157.7136 C   0  0  0  0  0  0  0  0  0  0  0  0
  151.2436  144.0504  156.5288 O   0  0  0  0  0  0  0  0  0  0  0  0
  146.6794  142.8751  154.5299 H   0  0  0  0  0  0  0  0  0  0  0  0
  145.8201  141.6432  153.4508 H   0  0  0  0  0  0  0  0  0  0  0  0
  147.8436  140.3163  153.3102 H   0  0  0  0  0  0  0  0  0  0  0  0
  149.4432  142.5785  154.2204 H   0  0  0  0  0  0  0  0  0  0  0  0
  148.9908  141.6515  155.6470 H   0  0  0  0  0  0  0  0  0  0  0  0
  149.4711  139.3811  155.7788 H   0  0  0  0  0  0  0  0  0  0  0  0
  151.2750  137.6735  155.3942 H   0  0  0  0  0  0  0  0  0  0  0  0
  151.9389  138.6761  154.1034 H   0  0  0  0  0  0  0  0  0  0  0  0
  150.3308  137.9830  153.9425 H   0  0  0  0  0  0  0  0  0  0  0  0
  149.9483  141.6658  156.7549 H   0  0  0  0  0  0  0  0  0  0  0  0
  152.8670  141.9760  161.0102 H   0  0  0  0  0  0  0  0  0  0  0  0
  153.2243  144.4280  160.6188 H   0  0  0  0  0  0  0  0  0  0  0  0
  152.4361  145.4149  158.4538 H   0  0  0  0  0  0  0  0  0  0  0  0
  150.3092  144.1909  156.5054 H   0  0  0  0  0  0  0  0  0  0  0  0
  1  2  2  0  0  0  0
  1 17  1  0  0  0  0
  1 18  1  0  0  0  0
  2  3  1  0  0  0  0
  2 19  1  0  0  0  0
  3  4  1  0  0  0  0
  3 20  1  0  0  0  0
  3 21  1  0  0  0  0
  4  5  1  0  0  0  0
  5  6  1  0  0  0  0
  5  7  1  0  0  0  0
  5 22  1  0  0  0  0
  6 23  1  0  0  0  0
  6 24  1  0  0  0  0
  6 25  1  0  0  0  0
  7  8  2  0  0  0  0
  7  9  1  0  0  0  0
  9 10  1  0  0  0  0
  9 26  1  0  0  0  0
 10 15  1  0  0  0  0
 10 11  2  0  0  0  0
 11 12  1  0  0  0  0
 12 13  2  0  0  0  0
 12 27  1  0  0  0  0
 13 14  1  0  0  0  0
 13 28  1  0  0  0  0
 14 15  2  0  0  0  0
 14 29  1  0  0  0  0
 15 16  1  0  0  0  0
 16 30  1  0  0  0  0
M  END
> <s_m_source_file>
AV-unprocessed.smi

> <i_m_source_file_index>
3208

> <i_lp_mmshare_version>
43012

> <i_f3d_flags>
0

> <s_epik_input>
W0NIMl09W0NIXVtDSDJdT1tDQEhdKFtDSDNdKUMoPU8pW05IXWMxbltjSF1bY0hdW2NIXWMxW09IXQ==

> <s_epik_cmdline>
J2VwaWtfcHl0aG9uJywgJy1waCcsICc3LjAnLCAnLXRuJywgJzgnLCAnLW1hJywgJzIwMCcsICctbWV0YWxfYmluZGluZycsICctaW1hZScsICc8aW5maWxlLm1hZT4nLCAnLW9tYWUnLCAnPG91dGZpbGUubWFlPic=

> <r_lp_tautomer_probability>
0.43658

> <r_epik_Ionization_Penalty>
0.0201706

> <r_epik_Ionization_Penalty_Charging>
0

> <r_epik_Ionization_Penalty_Neutral>
0.0201706

> <r_epik_State_Penalty>
0.426656

> <r_epik_Charging_Adjusted_Penalty>
0.426656

> <i_epik_Tot_Q>
0

> <i_epik_Tot_abs_Q>
0

> <r_epik_Metal_State_Penalty>
0.386934

> <b_epik_Metal_Only>
0

> <s_lp_Force_Field>
OPLS_2005

> <r_lp_Energy>
5.92965

> <b_lp_Chiralities_Consistent>
1

> <s_lp_Variant>
AV-unprocessed.smi:3208-2

> <Gold.Version>
5.8.1

> <Gold.Id.Protein>
6NUR|6NUR_protein|mol2

> <Gold.PLP.Fitness>
45.8798

> <Gold.PLP.PLP>
-39.8080

> <Gold.PLP.part.hbond>
-2.6585

> <Gold.PLP.part.metal>
0.0000

> <Gold.PLP.part.buried>
-2.6168

> <Gold.PLP.part.nonpolar>
-32.7082

> <Gold.PLP.part.repulsive>
0.2295

> <Gold.PLP.ligand.clash>
0.0000

> <Gold.PLP.ligand.torsion>
1.0839

> <Gold.PLP.Chemscore.Hbond>
2.7040

> <Gold.PLP.Chemscore.CHOScore>
0.0000

> <Gold.PLP.Chemscore.Metal>
0.0000

> <Gold.Chemscore.Hbonds>
donor molecule, donor type, donor heavy atom, donor atom, acceptor molecule, acceptor atom, score
      L1  H    16    30       P1  8028  0.99
      P1  H  7989  7998       L1     4  0.78
      P1  H  7997  8008       L1     8  0.98

> <Gold.PLP.Chemscore.Internal.Correction>
0.1276

> <Gold.Rescore>
     Score         DG    S(hbond)    S(metal)    S(lipo)     H(rot)  DE(clash)    DE(int)     intcor
     17.70     -19.07       2.79        0.00      85.51       2.24       0.07       1.30       ----

> <Gold.Chemscore.Fitness>
17.7003

> <Gold.Chemscore.DG>
-19.0723

> <Gold.Chemscore.ZeroCoef>
-5.4800

> <Gold.Chemscore.Hbond>
2.7943

> <Gold.Chemscore.Metal>
0.0000

> <Gold.Chemscore.Lipo>
85.5140

> <Gold.Chemscore.Internal_Hbond>
0.0000

> <Gold.Chemscore.DEClash>
0.0681

> <Gold.Chemscore.DEInternal>
1.3040

> <Gold.Chemscore.Rot>
2.2445

> <Gold.Chemscore.Internal.Correction>
   9.000000E+99

> <Gold.Chemscore.Hbonds>
donor molecule, donor type, donor heavy atom, donor atom, acceptor molecule, acceptor atom, score
      L1  H    16    30       P1  8028  0.94
      P1  H  7989  7998       L1     4  0.43
      P1  H  7997  8008       L1     8  0.91

> <Gold.Chemscore.Hbond.Weighted>
-9.3330

> <Gold.Chemscore.Metal.Weighted>
-0.0000

> <Gold.Chemscore.Lipo.Weighted>
-10.0051

> <Gold.Chemscore.Internal_Hbond.Weighted>
0.0000

> <Gold.Chemscore.DEClash.Weighted>
0.0681

> <Gold.Chemscore.DEInternal.Weighted>
1.3040

> <Gold.Chemscore.Rot.Weighted>
5.7458

> <Gold.Chemscore.Internal.Correction.Weighted>
   9.000000E+99

> <Gold.Protein.RotatedTorsions>
[ 6907 6896 6895 6894 ] final   95.36 input  -60.11 | X-H torsion
[ 7974 7965 7964 7962 ] final   -4.49 input  175.53 | X-H torsion
[ 8008 7997 7996 7995 ] final  -28.63 input   59.86 | X-H torsion
[ 10167 10162 10161 10158 ] final  -96.65 input  -65.29 | X-H torsion
[ 10718 10713 10712 10709 ] final   70.18 input   66.30 | X-H torsion
[ 10763 10752 10751 10750 ] final  -96.31 input  -60.55 | X-H torsion
[ 11005 11000 10999 10996 ] final  -67.29 input  -57.11 | X-H torsion

> <Gold.Protein.ActiveResidues>
 VAL166  LYS551  ARG553  GLY616  TRP617  ASP618  TYR619  PRO620  LYS621  CYS622 
 ASP623  PHE694  ASN695  SER759  ASP760  ASP761  ALA762  ILE779  LEU786  VAL792 
 PHE793  MET794  SER795  GLU796  ALA797  LYS798  CYS799  TRP800  GLU811  SER814 

> <Gold.Protein.RotatedAtoms>
  152.5444  134.1052  159.8334 H   0  0  0  0  0  0  0  0  0  0  0  0  # atno 6907 bound_to 6896
  151.1125  133.5155  159.2612 H   0  0  0  0  0  0  0  0  0  0  0  0  # atno 6908 bound_to 6896
  151.1868  135.0395  159.8870 H   0  0  0  0  0  0  0  0  0  0  0  0  # atno 6909 bound_to 6896
  146.2371  140.1880  142.8332 H   0  0  0  0  0  0  0  0  0  0  0  0  # atno 7974 bound_to 7965
  154.4324  140.1840  156.1121 H   0  0  0  0  0  0  0  0  0  0  0  0  # atno 8008 bound_to 7997
  156.0210  140.3341  155.7013 H   0  0  0  0  0  0  0  0  0  0  0  0  # atno 8009 bound_to 7997
  155.5976  140.0637  157.2732 H   0  0  0  0  0  0  0  0  0  0  0  0  # atno 8010 bound_to 7997
  140.2916  143.3218  152.0340 H   0  0  0  0  0  0  0  0  0  0  0  0  # atno 10167 bound_to 10162
  157.6386  130.9464  150.0616 H   0  0  0  0  0  0  0  0  0  0  0  0  # atno 10718 bound_to 10713
  154.7228  135.5088  153.8839 H   0  0  0  0  0  0  0  0  0  0  0  0  # atno 10763 bound_to 10752
  153.0877  135.6650  153.9924 H   0  0  0  0  0  0  0  0  0  0  0  0  # atno 10764 bound_to 10752
  153.9743  135.3035  155.3404 H   0  0  0  0  0  0  0  0  0  0  0  0  # atno 10765 bound_to 10752
  141.1504  133.6716  156.6271 H   0  0  0  0  0  0  0  0  0  0  0  0  # atno 11005 bound_to 11000
  144.9881  140.8521  143.5356 LP  0  0  0  0  0  0  0  0  0  0  0  0  # atno 17320 bound_to 7965
  145.1882  139.2315  143.5256 LP  0  0  0  0  0  0  0  0  0  0  0  0  # atno 17321 bound_to 7965
  139.4937  144.6521  151.6653 LP  0  0  0  0  0  0  0  0  0  0  0  0  # atno 17342 bound_to 10162
  140.5728  144.0080  150.6225 LP  0  0  0  0  0  0  0  0  0  0  0  0  # atno 17343 bound_to 10162
  156.1647  130.3645  149.9250 LP  0  0  0  0  0  0  0  0  0  0  0  0  # atno 17370 bound_to 10713
  156.7239  130.9017  151.3620 LP  0  0  0  0  0  0  0  0  0  0  0  0  # atno 17371 bound_to 10713
  140.3496  134.7780  157.4457 LP  0  0  0  0  0  0  0  0  0  0  0  0  # atno 17394 bound_to 11000
  140.0872  134.5651  155.8481 LP  0  0  0  0  0  0  0  0  0  0  0  0  # atno 17395 bound_to 11000

$$$$
