AV-unprocessed.smi:2976|AV-procd|sdf|11365|dock4
  -GOLD-   2272016283D 1   1.00000     0.00000
 Structure written by MMmdl.
 40 41  0  0  0  0  0  0  0  0  1 V2000
  150.8234  145.3087  160.1761 C   0  0  0  0  0  0  0  0  0  0  0  0
  151.3464  143.8642  160.1055 C   0  0  2  0  0  0  0  0  0  0  0  0
  152.7732  143.7426  160.6775 C   0  0  0  0  0  0  0  0  0  0  0  0
  153.2468  142.2808  160.7002 C   0  0  0  0  0  0  0  0  0  0  0  0
  153.1369  141.6291  159.3133 C   0  0  0  0  0  0  0  0  0  0  0  0
  151.7087  141.7528  158.7478 C   0  0  2  0  0  0  0  0  0  0  0  0
  151.6333  141.0918  157.4465 N   0  0  0  0  0  0  0  0  0  0  0  0
  151.8270  139.7823  157.2267 C   0  0  0  0  0  0  0  0  0  0  0  0
  152.0910  138.9807  158.1244 O   0  0  0  0  0  0  0  0  0  0  0  0
  151.6820  139.3225  155.7681 C   0  0  0  0  0  0  0  0  0  0  0  0
  150.4296  139.7594  155.1334 N   0  0  0  0  0  0  0  0  0  0  0  0
  150.2772  141.1337  155.0781 N   0  0  0  0  0  0  0  0  0  0  0  0
  149.2059  141.6332  154.5655 C   0  0  0  0  0  0  0  0  0  0  0  0
  148.1462  140.8040  154.0356 C   0  0  0  0  0  0  0  0  0  0  0  0
  146.7310  141.5319  153.3612 Cl  0  0  0  0  0  0  0  0  0  0  0  0
  148.3085  139.4580  154.0883 C   0  0  0  0  0  0  0  0  0  0  0  0
  147.0839  138.4007  153.4746 Cl  0  0  0  0  0  0  0  0  0  0  0  0
  149.5173  138.8528  154.6648 C   0  0  0  0  0  0  0  0  0  0  0  0
  149.7029  137.6369  154.7291 O   0  0  0  0  0  0  0  0  0  0  0  0
  151.2421  143.2344  158.6909 C   0  0  2  0  0  0  0  0  0  0  0  0
  151.9567  144.0574  157.5937 C   0  0  0  0  0  0  0  0  0  0  0  0
  151.4729  146.0022  159.6422 H   0  0  0  0  0  0  0  0  0  0  0  0
  150.7663  145.6493  161.2103 H   0  0  0  0  0  0  0  0  0  0  0  0
  149.8229  145.3869  159.7502 H   0  0  0  0  0  0  0  0  0  0  0  0
  150.6947  143.2784  160.7560 H   0  0  0  0  0  0  0  0  0  0  0  0
  153.4673  144.3456  160.0914 H   0  0  0  0  0  0  0  0  0  0  0  0
  152.8024  144.1455  161.6904 H   0  0  0  0  0  0  0  0  0  0  0  0
  154.2764  142.2289  161.0554 H   0  0  0  0  0  0  0  0  0  0  0  0
  152.6460  141.7161  161.4145 H   0  0  0  0  0  0  0  0  0  0  0  0
  153.8540  142.0908  158.6340 H   0  0  0  0  0  0  0  0  0  0  0  0
  153.4188  140.5778  159.3852 H   0  0  0  0  0  0  0  0  0  0  0  0
  151.0464  141.2142  159.4290 H   0  0  0  0  0  0  0  0  0  0  0  0
  151.4170  141.6771  156.6527 H   0  0  0  0  0  0  0  0  0  0  0  0
  152.5374  139.7019  155.2062 H   0  0  0  0  0  0  0  0  0  0  0  0
  151.7661  138.2349  155.7261 H   0  0  0  0  0  0  0  0  0  0  0  0
  149.0410  142.7090  154.5041 H   0  0  0  0  0  0  0  0  0  0  0  0
  150.1838  143.2300  158.4259 H   0  0  0  0  0  0  0  0  0  0  0  0
  153.0264  144.1475  157.7790 H   0  0  0  0  0  0  0  0  0  0  0  0
  151.5493  145.0652  157.5218 H   0  0  0  0  0  0  0  0  0  0  0  0
  151.8318  143.6067  156.6093 H   0  0  0  0  0  0  0  0  0  0  0  0
  1  2  1  0  0  0  0
  1 22  1  0  0  0  0
  1 23  1  0  0  0  0
  1 24  1  0  0  0  0
  2 20  1  0  0  0  0
  2  3  1  0  0  0  0
  2 25  1  0  0  0  0
  3  4  1  0  0  0  0
  3 26  1  0  0  0  0
  3 27  1  0  0  0  0
  4  5  1  0  0  0  0
  4 28  1  0  0  0  0
  4 29  1  0  0  0  0
  5  6  1  0  0  0  0
  5 30  1  0  0  0  0
  5 31  1  0  0  0  0
  6  7  1  0  0  0  0
  6 20  1  0  0  0  0
  6 32  1  0  0  0  0
  7  8  1  0  0  0  0
  7 33  1  0  0  0  0
  8  9  2  0  0  0  0
  8 10  1  0  0  0  0
 10 11  1  0  0  0  0
 10 34  1  0  0  0  0
 10 35  1  0  0  0  0
 11 18  1  0  0  0  0
 11 12  1  0  0  0  0
 12 13  2  0  0  0  0
 13 14  1  0  0  0  0
 13 36  1  0  0  0  0
 14 15  1  0  0  0  0
 14 16  2  0  0  0  0
 16 17  1  0  0  0  0
 16 18  1  0  0  0  0
 18 19  2  0  0  0  0
 20 21  1  0  0  0  0
 20 37  1  0  0  0  0
 21 38  1  0  0  0  0
 21 39  1  0  0  0  0
 21 40  1  0  0  0  0
M  END
> <s_m_source_file>
AV-unprocessed.smi

> <i_m_source_file_index>
2976

> <i_lp_mmshare_version>
43012

> <i_f3d_flags>
0

> <s_epik_input>
W0NIM11bQ0BASF0xW0NIMl1bQ0gyXVtDSDJdW0NASF0oW0NASF0xW0NIM10pW05IXUMoPU8pW0NIMl1uMm5bY0hdYyhDbCljKENsKWMyPU8=

> <s_epik_cmdline>
J2VwaWtfcHl0aG9uJywgJy1waCcsICc3LjAnLCAnLXRuJywgJzgnLCAnLW1hJywgJzIwMCcsICctbWV0YWxfYmluZGluZycsICctaW1hZScsICc8aW5maWxlLm1hZT4nLCAnLW9tYWUnLCAnPG91dGZpbGUubWFlPic=

> <r_lp_tautomer_probability>
1

> <r_epik_Ionization_Penalty>
1.90777e-08

> <r_epik_Ionization_Penalty_Charging>
3.07942e-11

> <r_epik_Ionization_Penalty_Neutral>
1.90469e-08

> <r_epik_State_Penalty>
-0

> <r_epik_Charging_Adjusted_Penalty>
3.07942e-11

> <i_epik_Tot_Q>
0

> <i_epik_Tot_abs_Q>
0

> <r_epik_Metal_State_Penalty>
-0

> <b_epik_Metal_Only>
0

> <s_lp_Force_Field>
OPLS_2005

> <r_lp_Energy>
28.3124

> <b_lp_Chiralities_Consistent>
1

> <s_lp_Variant>
AV-unprocessed.smi:2976-7

> <Gold.Version>
5.8.1

> <Gold.Id.Protein>
6NUR|6NUR_protein|mol2

> <Gold.PLP.Fitness>
45.1453

> <Gold.PLP.PLP>
-42.1694

> <Gold.PLP.part.hbond>
-1.0000

> <Gold.PLP.part.metal>
0.0000

> <Gold.PLP.part.buried>
-4.0980

> <Gold.PLP.part.nonpolar>
-37.3958

> <Gold.PLP.part.repulsive>
0.3680

> <Gold.PLP.ligand.clash>
0.0000

> <Gold.PLP.ligand.torsion>
0.1015

> <Gold.PLP.Chemscore.Hbond>
0.0551

> <Gold.PLP.Chemscore.CHOScore>
1.0000

> <Gold.PLP.Chemscore.Metal>
0.0000

> <Gold.Chemscore.Hbonds>
donor molecule, donor type, donor heavy atom, donor atom, acceptor molecule, acceptor atom, score
      P1  H  7989  7998       L1    12  0.06
      L1  C    13    36       P1  8028  1.00

> <Gold.PLP.Chemscore.Internal.Correction>
0.0135

> <Gold.Rescore>
     Score         DG    S(hbond)    S(metal)    S(lipo)     H(rot)  DE(clash)    DE(int)     intcor
     14.45     -16.02       0.00        0.00     122.63       1.49       0.01       1.55       ----

> <Gold.Chemscore.Fitness>
14.4548

> <Gold.Chemscore.DG>
-16.0226

> <Gold.Chemscore.ZeroCoef>
-5.4800

> <Gold.Chemscore.Hbond>
0.0002

> <Gold.Chemscore.Metal>
0.0000

> <Gold.Chemscore.Lipo>
122.6278

> <Gold.Chemscore.Internal_Hbond>
0.0000

> <Gold.Chemscore.DEClash>
0.0130

> <Gold.Chemscore.DEInternal>
1.5548

> <Gold.Chemscore.Rot>
1.4866

> <Gold.Chemscore.Internal.Correction>
   9.000000E+99

> <Gold.Chemscore.Hbond.Weighted>
-0.0008

> <Gold.Chemscore.Metal.Weighted>
-0.0000

> <Gold.Chemscore.Lipo.Weighted>
-14.3475

> <Gold.Chemscore.Internal_Hbond.Weighted>
0.0000

> <Gold.Chemscore.DEClash.Weighted>
0.0130

> <Gold.Chemscore.DEInternal.Weighted>
1.5548

> <Gold.Chemscore.Rot.Weighted>
3.8057

> <Gold.Chemscore.Internal.Correction.Weighted>
   9.000000E+99

> <Gold.Protein.RotatedTorsions>
[ 6907 6896 6895 6894 ] final  121.74 input  -60.11 | X-H torsion
[ 7974 7965 7964 7962 ] final   31.59 input  175.53 | X-H torsion
[ 8008 7997 7996 7995 ] final  172.20 input   59.86 | X-H torsion
[ 10167 10162 10161 10158 ] final  -51.65 input  -65.29 | X-H torsion
[ 10718 10713 10712 10709 ] final  108.24 input   66.30 | X-H torsion
[ 10763 10752 10751 10750 ] final  172.89 input  -60.55 | X-H torsion
[ 11005 11000 10999 10996 ] final   -2.43 input  -57.11 | X-H torsion

> <Gold.Protein.ActiveResidues>
 VAL166  LYS551  ARG553  GLY616  TRP617  ASP618  TYR619  PRO620  LYS621  CYS622 
 ASP623  PHE694  ASN695  SER759  ASP760  ASP761  ALA762  ILE779  LEU786  VAL792 
 PHE793  MET794  SER795  GLU796  ALA797  LYS798  CYS799  TRP800  GLU811  SER814 

> <Gold.Protein.RotatedAtoms>
  152.4298  133.7258  159.6559 H   0  0  0  0  0  0  0  0  0  0  0  0  # atno 6907 bound_to 6896
  150.8177  133.8297  159.3159 H   0  0  0  0  0  0  0  0  0  0  0  0  # atno 6908 bound_to 6896
  151.5989  135.1051  160.0107 H   0  0  0  0  0  0  0  0  0  0  0  0  # atno 6909 bound_to 6896
  146.1540  139.6636  142.9079 H   0  0  0  0  0  0  0  0  0  0  0  0  # atno 7974 bound_to 7965
  156.1197  140.1492  156.9222 H   0  0  0  0  0  0  0  0  0  0  0  0  # atno 8008 bound_to 7997
  154.4827  140.0874  156.7456 H   0  0  0  0  0  0  0  0  0  0  0  0  # atno 8009 bound_to 7997
  155.4450  140.3432  155.4296 H   0  0  0  0  0  0  0  0  0  0  0  0  # atno 8010 bound_to 7997
  140.6577  143.2612  151.4534 H   0  0  0  0  0  0  0  0  0  0  0  0  # atno 10167 bound_to 10162
  157.6594  131.0889  150.6276 H   0  0  0  0  0  0  0  0  0  0  0  0  # atno 10718 bound_to 10713
  154.4324  135.2760  155.1903 H   0  0  0  0  0  0  0  0  0  0  0  0  # atno 10763 bound_to 10752
  154.3804  135.6089  153.5791 H   0  0  0  0  0  0  0  0  0  0  0  0  # atno 10764 bound_to 10752
  152.9837  135.5879  154.4637 H   0  0  0  0  0  0  0  0  0  0  0  0  # atno 10765 bound_to 10752
  140.6583  133.9343  155.8421 H   0  0  0  0  0  0  0  0  0  0  0  0  # atno 11005 bound_to 11000
  145.4753  141.0437  143.2676 LP  0  0  0  0  0  0  0  0  0  0  0  0  # atno 17320 bound_to 7965
  144.7940  139.6271  143.7101 LP  0  0  0  0  0  0  0  0  0  0  0  0  # atno 17321 bound_to 7965
  139.5804  144.1723  152.1960 LP  0  0  0  0  0  0  0  0  0  0  0  0  # atno 17342 bound_to 10162
  140.1047  144.5509  150.6965 LP  0  0  0  0  0  0  0  0  0  0  0  0  # atno 17343 bound_to 10162
  156.6580  130.4504  149.5697 LP  0  0  0  0  0  0  0  0  0  0  0  0  # atno 17370 bound_to 10713
  156.2088  130.6666  151.1247 LP  0  0  0  0  0  0  0  0  0  0  0  0  # atno 17371 bound_to 10713
  141.0484  134.0520  157.3814 LP  0  0  0  0  0  0  0  0  0  0  0  0  # atno 17394 bound_to 11000
  139.9022  135.0168  156.7320 LP  0  0  0  0  0  0  0  0  0  0  0  0  # atno 17395 bound_to 11000

$$$$
