AV-unprocessed.smi:1145|AV-procd|sdf|4882|dock8
  -GOLD-   22720 3453D 1   1.00000     0.00000
 Structure written by MMmdl.
 36 37  0  0  0  0  0  0  0  0  1 V2000
  147.3117  132.5723  154.1118 C   0  0  0  0  0  0  0  0  0  0  0  0
  146.8594  133.8229  153.3445 C   0  0  2  0  0  0  0  0  0  0  0  0
  147.0418  133.6598  151.8234 C   0  0  0  0  0  0  0  0  0  0  0  0
  145.8254  133.2070  151.1704 N   0  0  0  0  0  0  0  0  0  0  0  0
  145.6804  132.2076  150.2314 C   0  0  0  0  0  0  0  0  0  0  0  0
  144.3537  132.1350  149.9167 C   0  0  0  0  0  0  0  0  0  0  0  0
  143.7586  133.1421  150.7269 C   0  0  0  0  0  0  0  0  0  0  0  0
  144.6417  133.7820  151.4762 N   0  0  0  0  0  0  0  0  0  0  0  0
  147.6095  134.9854  153.8153 N   0  0  0  0  0  0  0  0  0  0  0  0
  147.4867  135.5590  155.0219 C   0  0  0  0  0  0  0  0  0  0  0  0
  146.7432  135.1285  155.9044 O   0  0  0  0  0  0  0  0  0  0  0  0
  148.3300  136.8174  155.2649 C   0  0  2  0  0  0  0  0  0  0  0  0
  147.8828  137.9724  154.3539 C   0  0  0  0  0  0  0  0  0  0  0  0
  148.6953  139.2453  154.6399 C   0  0  0  0  0  0  0  0  0  0  0  0
  150.2072  138.9937  154.7410 C   0  0  0  0  0  0  0  0  0  0  0  0
  150.9854  139.9393  154.6386 O   0  0  0  0  0  0  0  0  0  0  0  0
  150.6459  137.7445  154.9762 N   0  0  0  0  0  0  0  0  0  0  0  0
  149.8285  136.5320  155.0303 C   0  0  0  0  0  0  0  0  0  0  0  0
  146.7478  131.6940  153.7963 H   0  0  0  0  0  0  0  0  0  0  0  0
  147.1571  132.6925  155.1848 H   0  0  0  0  0  0  0  0  0  0  0  0
  148.3698  132.3658  153.9485 H   0  0  0  0  0  0  0  0  0  0  0  0
  145.7943  133.9646  153.5375 H   0  0  0  0  0  0  0  0  0  0  0  0
  147.3670  134.5977  151.3698 H   0  0  0  0  0  0  0  0  0  0  0  0
  147.8229  132.9274  151.6167 H   0  0  0  0  0  0  0  0  0  0  0  0
  146.5238  131.6363  149.8724 H   0  0  0  0  0  0  0  0  0  0  0  0
  143.8799  131.4637  149.2156 H   0  0  0  0  0  0  0  0  0  0  0  0
  142.7183  133.4253  150.7915 H   0  0  0  0  0  0  0  0  0  0  0  0
  148.2439  135.4110  153.1549 H   0  0  0  0  0  0  0  0  0  0  0  0
  148.1964  137.1325  156.3018 H   0  0  0  0  0  0  0  0  0  0  0  0
  148.0032  137.6955  153.3048 H   0  0  0  0  0  0  0  0  0  0  0  0
  146.8213  138.1789  154.4975 H   0  0  0  0  0  0  0  0  0  0  0  0
  148.5013  139.9928  153.8700 H   0  0  0  0  0  0  0  0  0  0  0  0
  148.3699  139.6796  155.5857 H   0  0  0  0  0  0  0  0  0  0  0  0
  151.6433  137.6160  155.0684 H   0  0  0  0  0  0  0  0  0  0  0  0
  150.2145  135.8861  155.8199 H   0  0  0  0  0  0  0  0  0  0  0  0
  149.9774  135.9982  154.0904 H   0  0  0  0  0  0  0  0  0  0  0  0
  1  2  1  0  0  0  0
  1 19  1  0  0  0  0
  1 20  1  0  0  0  0
  1 21  1  0  0  0  0
  2  3  1  0  0  0  0
  2  9  1  0  0  0  0
  2 22  1  0  0  0  0
  3  4  1  0  0  0  0
  3 23  1  0  0  0  0
  3 24  1  0  0  0  0
  4  8  1  0  0  0  0
  4  5  1  0  0  0  0
  5  6  2  0  0  0  0
  5 25  1  0  0  0  0
  6  7  1  0  0  0  0
  6 26  1  0  0  0  0
  7  8  2  0  0  0  0
  7 27  1  0  0  0  0
  9 10  1  0  0  0  0
  9 28  1  0  0  0  0
 10 11  2  0  0  0  0
 10 12  1  0  0  0  0
 12 18  1  0  0  0  0
 12 13  1  0  0  0  0
 12 29  1  0  0  0  0
 13 14  1  0  0  0  0
 13 30  1  0  0  0  0
 13 31  1  0  0  0  0
 14 15  1  0  0  0  0
 14 32  1  0  0  0  0
 14 33  1  0  0  0  0
 15 16  2  0  0  0  0
 15 17  1  0  0  0  0
 17 18  1  0  0  0  0
 17 34  1  0  0  0  0
 18 35  1  0  0  0  0
 18 36  1  0  0  0  0
M  END
> <s_m_source_file>
AV-unprocessed.smi

> <i_m_source_file_index>
1145

> <i_lp_mmshare_version>
43012

> <i_f3d_flags>
0

> <s_epik_input>
bjFbY0hdW2NIXVtjSF1uMVtDSDJdW0NAQEhdKFtDSDNdKVtOSF1DKD1PKVtDQEBIXTJbQ0gyXVtDSDJdQyg9TylbTkhdW0NIMl0y

> <s_epik_cmdline>
J2VwaWtfcHl0aG9uJywgJy1waCcsICc3LjAnLCAnLXRuJywgJzgnLCAnLW1hJywgJzIwMCcsICctbWV0YWxfYmluZGluZycsICctaW1hZScsICc8aW5maWxlLm1hZT4nLCAnLW9tYWUnLCAnPG91dGZpbGUubWFlPic=

> <r_lp_tautomer_probability>
1

> <r_epik_Ionization_Penalty>
0.000314064

> <r_epik_Ionization_Penalty_Charging>
0

> <r_epik_Ionization_Penalty_Neutral>
0.000314064

> <r_epik_State_Penalty>
-0

> <r_epik_Charging_Adjusted_Penalty>
0

> <i_epik_Tot_Q>
0

> <i_epik_Tot_abs_Q>
0

> <r_epik_Metal_State_Penalty>
-0

> <b_epik_Metal_Only>
0

> <s_lp_Force_Field>
OPLS_2005

> <r_lp_Energy>
12.6815

> <b_lp_Chiralities_Consistent>
1

> <s_lp_Variant>
AV-unprocessed.smi:1145-1

> <Gold.Version>
5.8.1

> <Gold.Id.Protein>
6NUR|6NUR_protein|mol2

> <Gold.PLP.Fitness>
35.8057

> <Gold.PLP.PLP>
-25.4363

> <Gold.PLP.part.hbond>
-2.0000

> <Gold.PLP.part.metal>
0.0000

> <Gold.PLP.part.buried>
-3.9620

> <Gold.PLP.part.nonpolar>
-19.9789

> <Gold.PLP.part.repulsive>
0.2683

> <Gold.PLP.ligand.clash>
0.0000

> <Gold.PLP.ligand.torsion>
0.8206

> <Gold.PLP.Chemscore.Hbond>
2.0000

> <Gold.PLP.Chemscore.CHOScore>
1.9964

> <Gold.PLP.Chemscore.Metal>
0.0000

> <Gold.Chemscore.Hbonds>
donor molecule, donor type, donor heavy atom, donor atom, acceptor molecule, acceptor atom, score
      L1  H     9    28       P1  7948  1.00
      P1  H  7989  7998       L1    16  1.00
      L1  C     5    25       P1 10747  0.85
      L1  C     7    27       P1 10186  1.00

> <Gold.PLP.Chemscore.Internal.Correction>
0.0213

> <Gold.Rescore>
     Score         DG    S(hbond)    S(metal)    S(lipo)     H(rot)  DE(clash)    DE(int)     intcor
     13.67     -14.38       1.98        0.00      58.86       1.80       0.05       0.66       ----

> <Gold.Chemscore.Fitness>
13.6660

> <Gold.Chemscore.DG>
-14.3795

> <Gold.Chemscore.ZeroCoef>
-5.4800

> <Gold.Chemscore.Hbond>
1.9811

> <Gold.Chemscore.Metal>
0.0000

> <Gold.Chemscore.Lipo>
58.8551

> <Gold.Chemscore.Internal_Hbond>
0.0000

> <Gold.Chemscore.DEClash>
0.0492

> <Gold.Chemscore.DEInternal>
0.6643

> <Gold.Chemscore.Rot>
1.7982

> <Gold.Chemscore.Internal.Correction>
   9.000000E+99

> <Gold.Chemscore.Hbonds>
donor molecule, donor type, donor heavy atom, donor atom, acceptor molecule, acceptor atom, score
      L1  H     9    28       P1  7948  1.00
      P1  H  7989  7998       L1    16  0.99

> <Gold.Chemscore.Hbond.Weighted>
-6.6169

> <Gold.Chemscore.Metal.Weighted>
-0.0000

> <Gold.Chemscore.Lipo.Weighted>
-6.8861

> <Gold.Chemscore.Internal_Hbond.Weighted>
0.0000

> <Gold.Chemscore.DEClash.Weighted>
0.0492

> <Gold.Chemscore.DEInternal.Weighted>
0.6643

> <Gold.Chemscore.Rot.Weighted>
4.6035

> <Gold.Chemscore.Internal.Correction.Weighted>
   9.000000E+99

> <Gold.Protein.RotatedTorsions>
[ 6907 6896 6895 6894 ] final  -27.06 input  -60.11 | X-H torsion
[ 7974 7965 7964 7962 ] final   65.33 input  175.53 | X-H torsion
[ 8008 7997 7996 7995 ] final  -80.88 input   59.86 | X-H torsion
[ 10167 10162 10161 10158 ] final    4.07 input  -65.29 | X-H torsion
[ 10718 10713 10712 10709 ] final  -80.47 input   66.30 | X-H torsion
[ 10763 10752 10751 10750 ] final   75.70 input  -60.55 | X-H torsion
[ 11005 11000 10999 10996 ] final  168.03 input  -57.11 | X-H torsion

> <Gold.Protein.ActiveResidues>
 VAL166  LYS551  ARG553  GLY616  TRP617  ASP618  TYR619  PRO620  LYS621  CYS622 
 ASP623  PHE694  ASN695  SER759  ASP760  ASP761  ALA762  ILE779  LEU786  VAL792 
 PHE793  MET794  SER795  GLU796  ALA797  LYS798  CYS799  TRP800  GLU811  SER814 

> <Gold.Protein.RotatedAtoms>
  151.1522  135.0233  159.8673 H   0  0  0  0  0  0  0  0  0  0  0  0  # atno 6907 bound_to 6896
  152.5452  134.1375  159.8475 H   0  0  0  0  0  0  0  0  0  0  0  0  # atno 6908 bound_to 6896
  151.1462  133.4892  159.2628 H   0  0  0  0  0  0  0  0  0  0  0  0  # atno 6909 bound_to 6896
  145.8397  139.3188  143.0939 H   0  0  0  0  0  0  0  0  0  0  0  0  # atno 7974 bound_to 7965
  154.5927  140.0656  156.9261 H   0  0  0  0  0  0  0  0  0  0  0  0  # atno 8008 bound_to 7997
  155.2267  140.3334  155.4290 H   0  0  0  0  0  0  0  0  0  0  0  0  # atno 8009 bound_to 7997
  156.2266  140.1822  156.7331 H   0  0  0  0  0  0  0  0  0  0  0  0  # atno 8010 bound_to 7997
  140.6553  143.7442  150.7644 H   0  0  0  0  0  0  0  0  0  0  0  0  # atno 10167 bound_to 10162
  156.0069  130.4575  150.3805 H   0  0  0  0  0  0  0  0  0  0  0  0  # atno 10718 bound_to 10713
  153.0673  135.4979  154.8228 H   0  0  0  0  0  0  0  0  0  0  0  0  # atno 10763 bound_to 10752
  154.6972  135.2995  154.9396 H   0  0  0  0  0  0  0  0  0  0  0  0  # atno 10764 bound_to 10752
  154.0131  135.6751  153.4819 H   0  0  0  0  0  0  0  0  0  0  0  0  # atno 10765 bound_to 10752
  140.2830  134.7735  157.3774 H   0  0  0  0  0  0  0  0  0  0  0  0  # atno 11005 bound_to 11000
  145.9479  140.8931  143.0274 LP  0  0  0  0  0  0  0  0  0  0  0  0  # atno 17320 bound_to 7965
  144.6734  140.1639  143.7420 LP  0  0  0  0  0  0  0  0  0  0  0  0  # atno 17321 bound_to 7965
  140.1100  143.4708  152.2375 LP  0  0  0  0  0  0  0  0  0  0  0  0  # atno 17342 bound_to 10162
  139.5775  144.7494  151.3726 LP  0  0  0  0  0  0  0  0  0  0  0  0  # atno 17343 bound_to 10162
  157.1885  131.0409  151.2712 LP  0  0  0  0  0  0  0  0  0  0  0  0  # atno 17370 bound_to 10713
  157.4082  130.7371  149.6819 LP  0  0  0  0  0  0  0  0  0  0  0  0  # atno 17371 bound_to 10713
  140.1266  134.5150  155.8140 LP  0  0  0  0  0  0  0  0  0  0  0  0  # atno 17394 bound_to 11000
  141.2159  133.6775  156.6962 LP  0  0  0  0  0  0  0  0  0  0  0  0  # atno 17395 bound_to 11000

$$$$
