AV-unprocessed.smi:1696|AV-procd|sdf|6800|dock10
  -GOLD-   22720 7573D 1   1.00000     0.00000
 Structure written by MMmdl.
 39 40  0  0  0  0  0  0  0  0  2 V2000
  146.8200  141.5387  153.4476 C   0  0  0  0  0  0  0  0  0  0  0  0
  147.8321  140.3890  153.3297 C   0  0  0  0  0  0  0  0  0  0  0  0
  147.4296  139.0950  154.0880 C   0  0  1  0  0  0  0  0  0  0  0  0
  146.1919  138.3997  153.4528 C   0  0  0  0  0  0  0  0  0  0  0  0
  146.5155  137.1510  152.7633 N   0  0  0  0  0  0  0  0  0  0  0  0
  145.6258  136.2783  152.2693 C   0  0  0  0  0  0  0  0  0  0  0  0
  144.4084  136.4453  152.3250 O   0  0  0  0  0  0  0  0  0  0  0  0
  146.2398  135.2201  151.7158 N   0  0  0  0  0  0  0  0  0  0  0  0
  145.6405  134.1047  151.0801 C   0  0  0  0  0  0  0  0  0  0  0  0
  144.4006  134.2254  150.6025 N   0  0  0  0  0  0  0  0  0  0  0  0
  143.9515  133.0444  150.0041 C   0  0  0  0  0  0  0  0  0  0  0  0
  144.8701  132.0247  150.0384 C   0  0  0  0  0  0  0  0  0  0  0  0
  146.3469  132.5064  150.8292 S   0  0  0  0  0  0  0  0  0  0  0  0
  148.5763  138.1423  154.2009 N   0  3  0  0  0  0  0  0  0  0  0  0
  149.9107  138.7448  154.4149 C   0  0  0  0  0  0  0  0  0  0  0  0
  150.7707  137.6163  154.9709 C   0  0  0  0  0  0  0  0  0  0  0  0
  149.8008  136.8509  155.8625 C   0  0  0  0  0  0  0  0  0  0  0  0
  148.4196  137.0882  155.2367 C   0  0  0  0  0  0  0  0  0  0  0  0
  147.2199  142.4467  152.9960 H   0  0  0  0  0  0  0  0  0  0  0  0
  146.5954  141.7614  154.4908 H   0  0  0  0  0  0  0  0  0  0  0  0
  145.8823  141.3172  152.9398 H   0  0  0  0  0  0  0  0  0  0  0  0
  148.0203  140.1707  152.2785 H   0  0  0  0  0  0  0  0  0  0  0  0
  148.7703  140.7769  153.7241 H   0  0  0  0  0  0  0  0  0  0  0  0
  147.1574  139.3913  155.1024 H   0  0  0  0  0  0  0  0  0  0  0  0
  145.4750  138.1464  154.2336 H   0  0  0  0  0  0  0  0  0  0  0  0
  145.6451  139.0751  152.7953 H   0  0  0  0  0  0  0  0  0  0  0  0
  147.4949  136.9198  152.6806 H   0  0  0  0  0  0  0  0  0  0  0  0
  147.2482  135.2071  151.7529 H   0  0  0  0  0  0  0  0  0  0  0  0
  142.9606  133.0176  149.5754 H   0  0  0  0  0  0  0  0  0  0  0  0
  144.7681  131.0233  149.6469 H   0  0  0  0  0  0  0  0  0  0  0  0
  150.3293  139.1519  153.4941 H   0  0  0  0  0  0  0  0  0  0  0  0
  149.8393  139.5507  155.1476 H   0  0  0  0  0  0  0  0  0  0  0  0
  151.1116  136.9747  154.1572 H   0  0  0  0  0  0  0  0  0  0  0  0
  151.6491  137.9759  155.5079 H   0  0  0  0  0  0  0  0  0  0  0  0
  150.0519  135.7923  155.9357 H   0  0  0  0  0  0  0  0  0  0  0  0
  149.8234  137.2665  156.8709 H   0  0  0  0  0  0  0  0  0  0  0  0
  147.7161  137.3886  156.0146 H   0  0  0  0  0  0  0  0  0  0  0  0
  148.0328  136.1809  154.7720 H   0  0  0  0  0  0  0  0  0  0  0  0
  148.6384  137.6561  153.3178 H   0  0  0  0  0  0  0  0  0  0  0  0
  1  2  1  0  0  0  0
  1 19  1  0  0  0  0
  1 20  1  0  0  0  0
  1 21  1  0  0  0  0
  2  3  1  0  0  0  0
  2 22  1  0  0  0  0
  2 23  1  0  0  0  0
  3  4  1  0  0  0  0
  3 14  1  0  0  0  0
  3 24  1  0  0  0  0
  4  5  1  0  0  0  0
  4 25  1  0  0  0  0
  4 26  1  0  0  0  0
  5  6  1  0  0  0  0
  5 27  1  0  0  0  0
  6  7  2  0  0  0  0
  6  8  1  0  0  0  0
  8  9  1  0  0  0  0
  8 28  1  0  0  0  0
  9 13  1  0  0  0  0
  9 10  2  0  0  0  0
 10 11  1  0  0  0  0
 11 12  2  0  0  0  0
 11 29  1  0  0  0  0
 12 13  1  0  0  0  0
 12 30  1  0  0  0  0
 14 18  1  0  0  0  0
 14 15  1  0  0  0  0
 14 39  1  0  0  0  0
 15 16  1  0  0  0  0
 15 31  1  0  0  0  0
 15 32  1  0  0  0  0
 16 17  1  0  0  0  0
 16 33  1  0  0  0  0
 16 34  1  0  0  0  0
 17 18  1  0  0  0  0
 17 35  1  0  0  0  0
 17 36  1  0  0  0  0
 18 37  1  0  0  0  0
 18 38  1  0  0  0  0
M  CHG  1  14   1
M  END
> <s_m_source_file>
AV-unprocessed.smi

> <i_m_source_file_index>
1696

> <i_lp_mmshare_version>
43012

> <i_f3d_flags>
0

> <s_epik_input>
W0NIMl0xW0NIMl1bQ0gyXVtDSDJdTjFbQ0BIXShbQ0gyXVtDSDNdKVtDSDJdW05IXUMoPU8pW05IXWMybltjSF1bY0hdczI=

> <s_epik_cmdline>
J2VwaWtfcHl0aG9uJywgJy1waCcsICc3LjAnLCAnLXRuJywgJzgnLCAnLW1hJywgJzIwMCcsICctbWV0YWxfYmluZGluZycsICctaW1hZScsICc8aW5maWxlLm1hZT4nLCAnLW9tYWUnLCAnPG91dGZpbGUubWFlPic=

> <r_lp_tautomer_probability>
1

> <r_epik_Ionization_Penalty>
0.0013883

> <r_epik_Ionization_Penalty_Charging>
0.00115997

> <r_epik_Ionization_Penalty_Neutral>
0.000228323

> <r_epik_State_Penalty>
-0

> <r_epik_Charging_Adjusted_Penalty>
0.00115997

> <i_epik_Tot_Q>
1

> <i_epik_Tot_abs_Q>
1

> <r_epik_Metal_State_Penalty>
0.0131845

> <b_epik_Metal_Only>
0

> <s_lp_Force_Field>
OPLS_2005

> <r_lp_Energy>
36.9264

> <b_lp_Chiralities_Consistent>
1

> <s_lp_Variant>
AV-unprocessed.smi:1696-2

> <Gold.Version>
5.8.1

> <Gold.Id.Protein>
6NUR|6NUR_protein|mol2

> <Gold.PLP.Fitness>
41.9344

> <Gold.PLP.PLP>
-29.1325

> <Gold.PLP.part.hbond>
-3.0000

> <Gold.PLP.part.metal>
0.0000

> <Gold.PLP.part.buried>
-1.1926

> <Gold.PLP.part.nonpolar>
-25.4704

> <Gold.PLP.part.repulsive>
0.5000

> <Gold.PLP.ligand.clash>
0.0000

> <Gold.PLP.ligand.torsion>
1.1439

> <Gold.PLP.Chemscore.Hbond>
4.0000

> <Gold.PLP.Chemscore.CHOScore>
1.0000

> <Gold.PLP.Chemscore.Metal>
0.0000

> <Gold.Chemscore.Hbonds>
donor molecule, donor type, donor heavy atom, donor atom, acceptor molecule, acceptor atom, score
      L1  H     5    27       P1  7948  1.00
      L1  H     8    28       P1  7948  0.99
      L1  H    14    39       P1  7948  1.92
      L1  C    11    29       P1 10186  1.00

> <Gold.PLP.Chemscore.Internal.Correction>
0.0897

> <Gold.Rescore>
     Score         DG    S(hbond)    S(metal)    S(lipo)     H(rot)  DE(clash)    DE(int)     intcor
     16.29     -19.03       2.82        0.00      74.11       1.77       0.16       2.59       ----

> <Gold.Chemscore.Fitness>
16.2860

> <Gold.Chemscore.DG>
-19.0309

> <Gold.Chemscore.ZeroCoef>
-5.4800

> <Gold.Chemscore.Hbond>
2.8180

> <Gold.Chemscore.Metal>
0.0000

> <Gold.Chemscore.Lipo>
74.1124

> <Gold.Chemscore.Internal_Hbond>
0.0000

> <Gold.Chemscore.DEClash>
0.1598

> <Gold.Chemscore.DEInternal>
2.5851

> <Gold.Chemscore.Rot>
1.7705

> <Gold.Chemscore.Internal.Correction>
   9.000000E+99

> <Gold.Chemscore.Hbonds>
donor molecule, donor type, donor heavy atom, donor atom, acceptor molecule, acceptor atom, score
      L1  H     5    27       P1  7948  0.98
      L1  H     8    28       P1  7948  0.88
      L1  H    14    39       P1  7948  0.91

> <Gold.Chemscore.Hbond.Weighted>
-9.4122

> <Gold.Chemscore.Metal.Weighted>
-0.0000

> <Gold.Chemscore.Lipo.Weighted>
-8.6711

> <Gold.Chemscore.Internal_Hbond.Weighted>
0.0000

> <Gold.Chemscore.DEClash.Weighted>
0.1598

> <Gold.Chemscore.DEInternal.Weighted>
2.5851

> <Gold.Chemscore.Rot.Weighted>
4.5324

> <Gold.Chemscore.Internal.Correction.Weighted>
   9.000000E+99

> <Gold.Protein.RotatedTorsions>
[ 6907 6896 6895 6894 ] final  160.84 input  -60.11 | X-H torsion
[ 7974 7965 7964 7962 ] final  164.01 input  175.53 | X-H torsion
[ 8008 7997 7996 7995 ] final  -51.84 input   59.86 | X-H torsion
[ 10167 10162 10161 10158 ] final  129.73 input  -65.29 | X-H torsion
[ 10718 10713 10712 10709 ] final -172.36 input   66.30 | X-H torsion
[ 10763 10752 10751 10750 ] final   61.83 input  -60.55 | X-H torsion
[ 11005 11000 10999 10996 ] final   69.72 input  -57.11 | X-H torsion

> <Gold.Protein.ActiveResidues>
 VAL166  LYS551  ARG553  GLY616  TRP617  ASP618  TYR619  PRO620  LYS621  CYS622 
 ASP623  PHE694  ASN695  SER759  ASP760  ASP761  ALA762  ILE779  LEU786  VAL792 
 PHE793  MET794  SER795  GLU796  ALA797  LYS798  CYS799  TRP800  GLU811  SER814 

> <Gold.Protein.RotatedAtoms>
  151.9646  133.3706  159.4047 H   0  0  0  0  0  0  0  0  0  0  0  0  # atno 6907 bound_to 6896
  150.6958  134.4204  159.5212 H   0  0  0  0  0  0  0  0  0  0  0  0  # atno 6908 bound_to 6896
  152.1899  134.8681  160.0569 H   0  0  0  0  0  0  0  0  0  0  0  0  # atno 6909 bound_to 6896
  144.7564  139.8265  143.6348 H   0  0  0  0  0  0  0  0  0  0  0  0  # atno 7974 bound_to 7965
  154.4092  140.1238  156.4895 H   0  0  0  0  0  0  0  0  0  0  0  0  # atno 8008 bound_to 7997
  155.7004  140.3495  155.4911 H   0  0  0  0  0  0  0  0  0  0  0  0  # atno 8009 bound_to 7997
  155.9390  140.1083  157.1061 H   0  0  0  0  0  0  0  0  0  0  0  0  # atno 8010 bound_to 7997
  139.5464  144.6776  151.4461 H   0  0  0  0  0  0  0  0  0  0  0  0  # atno 10167 bound_to 10162
  156.7544  130.9390  151.3116 H   0  0  0  0  0  0  0  0  0  0  0  0  # atno 10718 bound_to 10713
  152.9963  135.5487  154.6096 H   0  0  0  0  0  0  0  0  0  0  0  0  # atno 10763 bound_to 10752
  154.5419  135.2820  155.1089 H   0  0  0  0  0  0  0  0  0  0  0  0  # atno 10764 bound_to 10752
  154.2363  135.6424  153.5245 H   0  0  0  0  0  0  0  0  0  0  0  0  # atno 10765 bound_to 10752
  139.9638  134.7016  156.0589 H   0  0  0  0  0  0  0  0  0  0  0  0  # atno 11005 bound_to 11000
  146.1578  139.4682  143.0007 LP  0  0  0  0  0  0  0  0  0  0  0  0  # atno 17320 bound_to 7965
  145.6765  141.0202  143.1629 LP  0  0  0  0  0  0  0  0  0  0  0  0  # atno 17321 bound_to 7965
  140.6713  143.8288  150.7003 LP  0  0  0  0  0  0  0  0  0  0  0  0  # atno 17342 bound_to 10162
  140.1713  143.4192  152.1999 LP  0  0  0  0  0  0  0  0  0  0  0  0  # atno 17343 bound_to 10162
  157.6763  130.9097  150.0158 LP  0  0  0  0  0  0  0  0  0  0  0  0  # atno 17370 bound_to 10713
  156.1380  130.3642  149.9626 LP  0  0  0  0  0  0  0  0  0  0  0  0  # atno 17371 bound_to 10713
  141.1316  133.6585  156.3481 LP  0  0  0  0  0  0  0  0  0  0  0  0  # atno 17394 bound_to 11000
  140.5442  134.6091  157.5389 LP  0  0  0  0  0  0  0  0  0  0  0  0  # atno 17395 bound_to 11000

$$$$
