AV-unprocessed.smi:2631|AV-procd|sdf|10248|dock5
  -GOLD-   2272014253D 1   1.00000     0.00000
 Structure written by MMmdl.
 35 36  0  0  0  0  0  0  0  0  1 V2000
  146.0726  137.7333  151.2935 C   0  0  0  0  0  0  0  0  0  0  0  0
  146.5745  139.0282  151.5706 O   0  0  0  0  0  0  0  0  0  0  0  0
  146.7681  139.2527  152.9575 C   0  0  0  0  0  0  0  0  0  0  0  0
  147.1523  140.7235  153.1896 C   0  0  0  0  0  0  0  0  0  0  0  0
  147.7024  140.9631  154.5090 N   0  0  0  0  0  0  0  0  0  0  0  0
  149.0475  140.7727  154.8366 C   0  0  0  0  0  0  0  0  0  0  0  0
  149.9267  140.3435  153.8571 N   0  0  0  0  0  0  0  0  0  0  0  0
  149.4956  140.9846  156.1014 C   0  0  0  0  0  0  0  0  0  0  0  0
  151.1692  140.7511  156.6510 S   0  0  0  0  0  0  0  0  0  0  0  0
  151.4671  142.2782  157.4804 C   0  0  0  0  0  0  0  0  0  0  0  0
  151.7695  142.2845  158.8569 C   0  0  0  0  0  0  0  0  0  0  0  0
  151.9978  143.5061  159.5198 C   0  0  0  0  0  0  0  0  0  0  0  0
  151.9249  144.7194  158.8067 C   0  0  0  0  0  0  0  0  0  0  0  0
  152.2026  146.2157  159.6196 Cl  0  0  0  0  0  0  0  0  0  0  0  0
  151.6240  144.7109  157.4299 C   0  0  0  0  0  0  0  0  0  0  0  0
  151.3953  143.4901  156.7657 C   0  0  0  0  0  0  0  0  0  0  0  0
  148.6113  141.4244  157.1828 C   0  0  0  0  0  0  0  0  0  0  0  0
  148.9321  141.6525  158.3489 O   0  0  0  0  0  0  0  0  0  0  0  0
  147.2819  141.5804  156.7916 N   0  0  0  0  0  0  0  0  0  0  0  0
  146.7803  141.3621  155.5096 C   0  0  0  0  0  0  0  0  0  0  0  0
  145.5769  141.5170  155.2985 O   0  0  0  0  0  0  0  0  0  0  0  0
  146.6247  141.8727  157.5001 H   0  0  0  0  0  0  0  0  0  0  0  0
  145.9400  137.6152  150.2182 H   0  0  0  0  0  0  0  0  0  0  0  0
  145.1059  137.5744  151.7726 H   0  0  0  0  0  0  0  0  0  0  0  0
  146.7638  136.9612  151.6339 H   0  0  0  0  0  0  0  0  0  0  0  0
  145.8453  139.0285  153.4942 H   0  0  0  0  0  0  0  0  0  0  0  0
  147.5388  138.5866  153.3483 H   0  0  0  0  0  0  0  0  0  0  0  0
  147.8861  141.0647  152.4604 H   0  0  0  0  0  0  0  0  0  0  0  0
  146.2967  141.3895  153.0652 H   0  0  0  0  0  0  0  0  0  0  0  0
  149.6212  140.1642  152.9113 H   0  0  0  0  0  0  0  0  0  0  0  0
  150.9195  140.2718  154.0285 H   0  0  0  0  0  0  0  0  0  0  0  0
  151.8233  141.3568  159.4075 H   0  0  0  0  0  0  0  0  0  0  0  0
  152.2275  143.5107  160.5753 H   0  0  0  0  0  0  0  0  0  0  0  0
  151.5668  145.6402  156.8822 H   0  0  0  0  0  0  0  0  0  0  0  0
  151.1611  143.4863  155.7113 H   0  0  0  0  0  0  0  0  0  0  0  0
  1  2  1  0  0  0  0
  1 23  1  0  0  0  0
  1 24  1  0  0  0  0
  1 25  1  0  0  0  0
  2  3  1  0  0  0  0
  3  4  1  0  0  0  0
  3 26  1  0  0  0  0
  3 27  1  0  0  0  0
  4  5  1  0  0  0  0
  4 28  1  0  0  0  0
  4 29  1  0  0  0  0
  5 20  1  0  0  0  0
  5  6  1  0  0  0  0
  6  7  1  0  0  0  0
  6  8  2  0  0  0  0
  7 30  1  0  0  0  0
  7 31  1  0  0  0  0
  8  9  1  0  0  0  0
  8 17  1  0  0  0  0
  9 10  1  0  0  0  0
 10 16  1  0  0  0  0
 10 11  2  0  0  0  0
 11 12  1  0  0  0  0
 11 32  1  0  0  0  0
 12 13  2  0  0  0  0
 12 33  1  0  0  0  0
 13 14  1  0  0  0  0
 13 15  1  0  0  0  0
 15 16  2  0  0  0  0
 15 34  1  0  0  0  0
 16 35  1  0  0  0  0
 17 18  2  0  0  0  0
 17 19  1  0  0  0  0
 19 22  1  0  0  0  0
 19 20  1  0  0  0  0
 20 21  2  0  0  0  0
M  END
> <s_m_source_file>
AV-unprocessed.smi

> <i_m_source_file_index>
2631

> <i_lp_mmshare_version>
43012

> <i_f3d_flags>
0

> <s_epik_input>
W0NIM11PW0NIMl1bQ0gyXW4xYyhbTkgyXSljKGMoPU8pW25IXWMxPU8pU2MyW2NIXVtjSF1jKENsKVtjSF1bY0hdMg==

> <s_epik_cmdline>
J2VwaWtfcHl0aG9uJywgJy1waCcsICc3LjAnLCAnLXRuJywgJzgnLCAnLW1hJywgJzIwMCcsICctbWV0YWxfYmluZGluZycsICctaW1hZScsICc8aW5maWxlLm1hZT4nLCAnLW9tYWUnLCAnPG91dGZpbGUubWFlPic=

> <r_lp_tautomer_probability>
1

> <r_epik_Ionization_Penalty>
9.0495e-05

> <r_epik_Ionization_Penalty_Charging>
7.40646e-05

> <r_epik_Ionization_Penalty_Neutral>
1.64304e-05

> <r_epik_State_Penalty>
-0

> <r_epik_Charging_Adjusted_Penalty>
7.40646e-05

> <i_epik_Tot_Q>
0

> <i_epik_Tot_abs_Q>
0

> <r_epik_Metal_State_Penalty>
0.0697747

> <b_epik_Metal_Only>
0

> <s_epik_Chemistry_Notes>
This compound has an imine and may undergo hydrolysis.

> <s_lp_Force_Field>
OPLS_2005

> <r_lp_Energy>
18.0154

> <b_lp_Chiralities_Consistent>
1

> <s_lp_Variant>
AV-unprocessed.smi:2631-1

> <Gold.Version>
5.8.1

> <Gold.Id.Protein>
6NUR|6NUR_protein|mol2

> <Gold.PLP.Fitness>
38.5109

> <Gold.PLP.PLP>
-36.5101

> <Gold.PLP.part.hbond>
-1.9790

> <Gold.PLP.part.metal>
0.0000

> <Gold.PLP.part.buried>
-2.1458

> <Gold.PLP.part.nonpolar>
-36.6050

> <Gold.PLP.part.repulsive>
3.9757

> <Gold.PLP.ligand.clash>
0.0000

> <Gold.PLP.ligand.torsion>
0.5170

> <Gold.PLP.Chemscore.Hbond>
1.0000

> <Gold.PLP.Chemscore.CHOScore>
0.0000

> <Gold.PLP.Chemscore.Metal>
0.0000

> <Gold.Chemscore.Hbonds>
donor molecule, donor type, donor heavy atom, donor atom, acceptor molecule, acceptor atom, score
      L1  H     7    30       P1  7957  1.00

> <Gold.PLP.Chemscore.Internal.Correction>
0.0347

> <Gold.Rescore>
     Score         DG    S(hbond)    S(metal)    S(lipo)     H(rot)  DE(clash)    DE(int)     intcor
     11.55     -16.55       1.00        0.00     111.28       2.07       3.44       1.56       ----

> <Gold.Chemscore.Fitness>
11.5480

> <Gold.Chemscore.DG>
-16.5450

> <Gold.Chemscore.ZeroCoef>
-5.4800

> <Gold.Chemscore.Hbond>
0.9998

> <Gold.Chemscore.Metal>
0.0000

> <Gold.Chemscore.Lipo>
111.2791

> <Gold.Chemscore.Internal_Hbond>
0.0000

> <Gold.Chemscore.DEClash>
3.4385

> <Gold.Chemscore.DEInternal>
1.5585

> <Gold.Chemscore.Rot>
2.0680

> <Gold.Chemscore.Internal.Correction>
   9.000000E+99

> <Gold.Chemscore.Hbonds>
donor molecule, donor type, donor heavy atom, donor atom, acceptor molecule, acceptor atom, score
      L1  H     7    30       P1  7957  1.00

> <Gold.Chemscore.Hbond.Weighted>
-3.3395

> <Gold.Chemscore.Metal.Weighted>
-0.0000

> <Gold.Chemscore.Lipo.Weighted>
-13.0197

> <Gold.Chemscore.Internal_Hbond.Weighted>
0.0000

> <Gold.Chemscore.DEClash.Weighted>
3.4385

> <Gold.Chemscore.DEInternal.Weighted>
1.5585

> <Gold.Chemscore.Rot.Weighted>
5.2941

> <Gold.Chemscore.Internal.Correction.Weighted>
   9.000000E+99

> <Gold.Protein.RotatedTorsions>
[ 6907 6896 6895 6894 ] final   88.87 input  -60.11 | X-H torsion
[ 7974 7965 7964 7962 ] final  145.69 input  175.53 | X-H torsion
[ 8008 7997 7996 7995 ] final -157.39 input   59.86 | X-H torsion
[ 10167 10162 10161 10158 ] final  -76.23 input  -65.29 | X-H torsion
[ 10718 10713 10712 10709 ] final  114.75 input   66.30 | X-H torsion
[ 10763 10752 10751 10750 ] final -102.62 input  -60.55 | X-H torsion
[ 11005 11000 10999 10996 ] final  -93.29 input  -57.11 | X-H torsion

> <Gold.Protein.ActiveResidues>
 VAL166  LYS551  ARG553  GLY616  TRP617  ASP618  TYR619  PRO620  LYS621  CYS622 
 ASP623  PHE694  ASN695  SER759  ASP760  ASP761  ALA762  ILE779  LEU786  VAL792 
 PHE793  MET794  SER795  GLU796  ALA797  LYS798  CYS799  TRP800  GLU811  SER814 

> <Gold.Protein.RotatedAtoms>
  152.5430  134.2054  159.8728 H   0  0  0  0  0  0  0  0  0  0  0  0  # atno 6907 bound_to 6896
  151.2040  133.4587  159.2604 H   0  0  0  0  0  0  0  0  0  0  0  0  # atno 6908 bound_to 6896
  151.0961  134.9957  159.8482 H   0  0  0  0  0  0  0  0  0  0  0  0  # atno 6909 bound_to 6896
  144.8732  139.5814  143.5877 H   0  0  0  0  0  0  0  0  0  0  0  0  # atno 7974 bound_to 7965
  155.7317  140.0803  157.2286 H   0  0  0  0  0  0  0  0  0  0  0  0  # atno 8008 bound_to 7997
  154.4032  140.1594  156.2571 H   0  0  0  0  0  0  0  0  0  0  0  0  # atno 8009 bound_to 7997
  155.9103  140.3404  155.6096 H   0  0  0  0  0  0  0  0  0  0  0  0  # atno 8010 bound_to 7997
  140.4875  143.2388  151.7960 H   0  0  0  0  0  0  0  0  0  0  0  0  # atno 10167 bound_to 10162
  157.6263  131.1003  150.7231 H   0  0  0  0  0  0  0  0  0  0  0  0  # atno 10718 bound_to 10713
  154.7747  135.4854  153.9721 H   0  0  0  0  0  0  0  0  0  0  0  0  # atno 10763 bound_to 10752
  153.1414  135.6773  153.9029 H   0  0  0  0  0  0  0  0  0  0  0  0  # atno 10764 bound_to 10752
  153.8703  135.3144  155.3420 H   0  0  0  0  0  0  0  0  0  0  0  0  # atno 10765 bound_to 10752
  141.1501  133.7878  157.0139 H   0  0  0  0  0  0  0  0  0  0  0  0  # atno 11005 bound_to 11000
  146.2944  139.7235  142.9137 LP  0  0  0  0  0  0  0  0  0  0  0  0  # atno 17320 bound_to 7965
  145.4092  141.0394  143.3027 LP  0  0  0  0  0  0  0  0  0  0  0  0  # atno 17321 bound_to 7965
  139.4845  144.4693  151.9446 LP  0  0  0  0  0  0  0  0  0  0  0  0  # atno 17342 bound_to 10162
  140.3779  144.2774  150.5912 LP  0  0  0  0  0  0  0  0  0  0  0  0  # atno 17343 bound_to 10162
  156.7579  130.4789  149.5443 LP  0  0  0  0  0  0  0  0  0  0  0  0  # atno 17370 bound_to 10713
  156.1437  130.6262  151.0502 LP  0  0  0  0  0  0  0  0  0  0  0  0  # atno 17371 bound_to 10713
  140.0860  134.9621  157.1700 LP  0  0  0  0  0  0  0  0  0  0  0  0  # atno 17394 bound_to 11000
  140.3512  134.2597  155.7198 LP  0  0  0  0  0  0  0  0  0  0  0  0  # atno 17395 bound_to 11000

$$$$
