AV-unprocessed.smi:79|AV-procd|sdf|779|dock5
  -GOLD-   2262017133D 1   1.00000     0.00000
 Structure written by MMmdl.
 56 59  0  0  0  0  0  0  0  0  2 V2000
  145.3047  133.3418  152.1412 C   0  0  0  0  0  0  0  0  0  0  0  0
  145.5655  134.7000  152.8056 C   0  0  2  0  0  0  0  0  0  0  0  0
  146.2581  135.5101  151.8768 O   0  0  0  0  0  0  0  0  0  0  0  0
  146.4078  134.5549  154.0893 C   0  0  0  0  0  0  0  0  0  0  0  0
  147.5318  135.5237  154.1575 N   0  3  1  0  0  0  0  0  0  0  0  0
  147.0934  136.9210  154.4035 C   0  0  0  0  0  0  0  0  0  0  0  0
  148.2904  137.8824  154.3766 C   0  0  0  0  0  0  0  0  0  0  0  0
  149.3350  137.4503  155.2996 N   0  0  0  0  0  0  0  0  0  0  0  0
  150.3130  138.3781  155.4002 C   0  0  0  0  0  0  0  0  0  0  0  0
  151.5534  138.0143  154.9938 N   0  0  0  0  0  0  0  0  0  0  0  0
  152.5619  138.8887  155.0663 C   0  0  0  0  0  0  0  0  0  0  0  0
  152.5446  140.1483  155.5085 N   0  0  0  0  0  0  0  0  0  0  0  0
  151.2974  140.5137  155.9223 C   0  0  0  0  0  0  0  0  0  0  0  0
  150.1324  139.6971  155.9039 C   0  0  0  0  0  0  0  0  0  0  0  0
  149.0476  140.4056  156.4057 N   0  0  0  0  0  0  0  0  0  0  0  0
  149.5439  141.5754  156.7045 C   0  0  0  0  0  0  0  0  0  0  0  0
  150.8862  141.7304  156.4387 N   0  0  0  0  0  0  0  0  0  0  0  0
  151.6914  142.9191  156.6748 C   0  0  0  0  0  0  0  0  0  0  0  0
  151.7904  143.3199  158.1602 C   0  0  0  0  0  0  0  0  0  0  0  0
  152.2973  142.1402  159.0084 C   0  0  0  0  0  0  0  0  0  0  0  0
  152.4134  142.4928  160.3719 O   0  0  0  0  0  0  0  0  0  0  0  0
  152.4954  144.6536  158.4470 C   0  0  0  0  0  0  0  0  0  0  0  0
  151.3907  145.1346  159.2408 O   0  0  0  0  0  0  0  0  0  0  0  0
  150.5739  144.0558  158.7382 C   0  0  0  0  0  0  0  0  0  0  0  0
  149.7858  136.0663  155.1131 C   0  0  1  0  0  0  0  0  0  0  0  0
  150.8198  135.6273  156.1698 C   0  0  0  0  0  0  0  0  0  0  0  0
  148.5758  135.1081  155.1277 C   0  0  0  0  0  0  0  0  0  0  0  0
  144.7501  132.6806  152.8076 H   0  0  0  0  0  0  0  0  0  0  0  0
  146.2366  132.8405  151.8770 H   0  0  0  0  0  0  0  0  0  0  0  0
  144.7179  133.4561  151.2290 H   0  0  0  0  0  0  0  0  0  0  0  0
  144.6035  135.1650  153.0179 H   0  0  0  0  0  0  0  0  0  0  0  0
  147.1803  135.4941  152.0809 H   0  0  0  0  0  0  0  0  0  0  0  0
  145.7801  134.6760  154.9736 H   0  0  0  0  0  0  0  0  0  0  0  0
  146.7954  133.5356  154.1327 H   0  0  0  0  0  0  0  0  0  0  0  0
  146.3692  137.2360  153.6533 H   0  0  0  0  0  0  0  0  0  0  0  0
  146.5928  136.9801  155.3713 H   0  0  0  0  0  0  0  0  0  0  0  0
  148.6950  137.9328  153.3646 H   0  0  0  0  0  0  0  0  0  0  0  0
  147.9578  138.8888  154.6366 H   0  0  0  0  0  0  0  0  0  0  0  0
  153.5196  138.5277  154.7208 H   0  0  0  0  0  0  0  0  0  0  0  0
  148.9387  142.3616  157.1317 H   0  0  0  0  0  0  0  0  0  0  0  0
  152.6846  142.7288  156.2657 H   0  0  0  0  0  0  0  0  0  0  0  0
  151.2867  143.7375  156.0785 H   0  0  0  0  0  0  0  0  0  0  0  0
  151.6485  141.2690  158.9183 H   0  0  0  0  0  0  0  0  0  0  0  0
  153.2815  141.8189  158.6655 H   0  0  0  0  0  0  0  0  0  0  0  0
  151.9346  143.2949  160.5168 H   0  0  0  0  0  0  0  0  0  0  0  0
  153.4164  144.5558  159.0231 H   0  0  0  0  0  0  0  0  0  0  0  0
  152.6529  145.2752  157.5646 H   0  0  0  0  0  0  0  0  0  0  0  0
  149.8653  144.4021  157.9842 H   0  0  0  0  0  0  0  0  0  0  0  0
  150.0609  143.5134  159.5331 H   0  0  0  0  0  0  0  0  0  0  0  0
  150.2535  135.9930  154.1305 H   0  0  0  0  0  0  0  0  0  0  0  0
  151.0981  134.5819  156.0328 H   0  0  0  0  0  0  0  0  0  0  0  0
  150.4228  135.7339  157.1800 H   0  0  0  0  0  0  0  0  0  0  0  0
  151.7393  136.2102  156.1093 H   0  0  0  0  0  0  0  0  0  0  0  0
  148.1385  135.0699  156.1272 H   0  0  0  0  0  0  0  0  0  0  0  0
  148.9129  134.0981  154.8901 H   0  0  0  0  0  0  0  0  0  0  0  0
  147.9760  135.5085  153.2508 H   0  0  0  0  0  0  0  0  0  0  0  0
  1  2  1  0  0  0  0
  1 28  1  0  0  0  0
  1 29  1  0  0  0  0
  1 30  1  0  0  0  0
  2  3  1  0  0  0  0
  2  4  1  0  0  0  0
  2 31  1  0  0  0  0
  3 32  1  0  0  0  0
  4  5  1  0  0  0  0
  4 33  1  0  0  0  0
  4 34  1  0  0  0  0
  5 27  1  0  0  0  0
  5  6  1  0  0  0  0
  5 56  1  0  0  0  0
  6  7  1  0  0  0  0
  6 35  1  0  0  0  0
  6 36  1  0  0  0  0
  7  8  1  0  0  0  0
  7 37  1  0  0  0  0
  7 38  1  0  0  0  0
  8  9  1  0  0  0  0
  8 25  1  0  0  0  0
  9 14  1  0  0  0  0
  9 10  2  0  0  0  0
 10 11  1  0  0  0  0
 11 12  2  0  0  0  0
 11 39  1  0  0  0  0
 12 13  1  0  0  0  0
 13 17  1  0  0  0  0
 13 14  2  0  0  0  0
 14 15  1  0  0  0  0
 15 16  2  0  0  0  0
 16 17  1  0  0  0  0
 16 40  1  0  0  0  0
 17 18  1  0  0  0  0
 18 19  1  0  0  0  0
 18 41  1  0  0  0  0
 18 42  1  0  0  0  0
 19 24  1  0  0  0  0
 19 20  1  0  0  0  0
 19 22  1  0  0  0  0
 20 21  1  0  0  0  0
 20 43  1  0  0  0  0
 20 44  1  0  0  0  0
 21 45  1  0  0  0  0
 22 23  1  0  0  0  0
 22 46  1  0  0  0  0
 22 47  1  0  0  0  0
 23 24  1  0  0  0  0
 24 48  1  0  0  0  0
 24 49  1  0  0  0  0
 25 26  1  0  0  0  0
 25 27  1  0  0  0  0
 25 50  1  0  0  0  0
 26 51  1  0  0  0  0
 26 52  1  0  0  0  0
 26 53  1  0  0  0  0
 27 54  1  0  0  0  0
 27 55  1  0  0  0  0
M  CHG  1   5   1
M  END
> <s_m_source_file>
AV-unprocessed.smi

> <i_m_source_file_index>
79

> <i_lp_mmshare_version>
43012

> <i_f3d_flags>
0

> <s_epik_input>
W0NIM11bQ0BIXShbT0hdKVtDSDJdTjFbQ0gyXVtDSDJdTihbQ0BASF0oW0NIM10pW0NIMl0xKWMobltjSF1uMiljKGMyMyluW2NIXW4zW0NIMl1DNChbQ0gyXVtPSF0pW0NIMl1PW0NIMl00

> <s_epik_cmdline>
J2VwaWtfcHl0aG9uJywgJy1waCcsICc3LjAnLCAnLXRuJywgJzgnLCAnLW1hJywgJzIwMCcsICctbWV0YWxfYmluZGluZycsICctaW1hZScsICc8aW5maWxlLm1hZT4nLCAnLW9tYWUnLCAnPG91dGZpbGUubWFlPic=

> <r_lp_tautomer_probability>
1

> <r_epik_Ionization_Penalty>
0.00515943

> <r_epik_Ionization_Penalty_Charging>
0.00509693

> <r_epik_Ionization_Penalty_Neutral>
6.25007e-05

> <r_epik_State_Penalty>
-0

> <r_epik_Charging_Adjusted_Penalty>
0.00509693

> <i_epik_Tot_Q>
1

> <i_epik_Tot_abs_Q>
1

> <r_epik_Metal_State_Penalty>
-0

> <b_epik_Metal_Only>
0

> <s_lp_Force_Field>
OPLS_2005

> <r_lp_Energy>
50.7064

> <b_lp_Chiralities_Consistent>
1

> <s_lp_Variant>
AV-unprocessed.smi:79-3

> <Gold.Version>
5.8.1

> <Gold.Id.Protein>
6NUR|6NUR_protein|mol2

> <Gold.PLP.Fitness>
46.4160

> <Gold.PLP.PLP>
-36.4935

> <Gold.PLP.part.hbond>
-4.0000

> <Gold.PLP.part.metal>
0.0000

> <Gold.PLP.part.buried>
-4.3089

> <Gold.PLP.part.nonpolar>
-28.9917

> <Gold.PLP.part.repulsive>
0.3487

> <Gold.PLP.ligand.clash>
0.0000

> <Gold.PLP.ligand.torsion>
1.1998

> <Gold.PLP.Chemscore.Hbond>
3.7977

> <Gold.PLP.Chemscore.CHOScore>
0.1346

> <Gold.PLP.Chemscore.Metal>
0.0000

> <Gold.Chemscore.Hbonds>
donor molecule, donor type, donor heavy atom, donor atom, acceptor molecule, acceptor atom, score
      L1  H     3    32       P1  7948  0.99
      L1  H     5    56       P1  7948  2.00
      P1  H  7989  7998       L1    12  0.01
      P1  H  7997  8010       L1    12  0.82
      L1  C    16    40       P1  8028  0.28

> <Gold.PLP.Chemscore.Internal.Correction>
0.5252

> <Gold.Rescore>
     Score         DG    S(hbond)    S(metal)    S(lipo)     H(rot)  DE(clash)    DE(int)     intcor
      8.85     -14.61       2.57        0.00      86.11       3.72       2.33       3.43       ----

> <Gold.Chemscore.Fitness>
8.8464

> <Gold.Chemscore.DG>
-14.6110

> <Gold.Chemscore.ZeroCoef>
-5.4800

> <Gold.Chemscore.Hbond>
2.5705

> <Gold.Chemscore.Metal>
0.0000

> <Gold.Chemscore.Lipo>
86.1143

> <Gold.Chemscore.Internal_Hbond>
0.0000

> <Gold.Chemscore.DEClash>
2.3336

> <Gold.Chemscore.DEInternal>
3.4310

> <Gold.Chemscore.Rot>
3.7226

> <Gold.Chemscore.Internal.Correction>
   9.000000E+99

> <Gold.Chemscore.Hbonds>
donor molecule, donor type, donor heavy atom, donor atom, acceptor molecule, acceptor atom, score
      L1  H     3    32       P1  7948  0.94
      L1  H     5    56       P1  7948  0.99
      P1  H  7997  8010       L1    12  0.13

> <Gold.Chemscore.Hbond.Weighted>
-8.5855

> <Gold.Chemscore.Metal.Weighted>
-0.0000

> <Gold.Chemscore.Lipo.Weighted>
-10.0754

> <Gold.Chemscore.Internal_Hbond.Weighted>
0.0000

> <Gold.Chemscore.DEClash.Weighted>
2.3336

> <Gold.Chemscore.DEInternal.Weighted>
3.4310

> <Gold.Chemscore.Rot.Weighted>
9.5298

> <Gold.Chemscore.Internal.Correction.Weighted>
   9.000000E+99

> <Gold.Protein.RotatedTorsions>
[ 6907 6896 6895 6894 ] final -132.65 input  -60.11 | X-H torsion
[ 7974 7965 7964 7962 ] final   -5.85 input  175.53 | X-H torsion
[ 8008 7997 7996 7995 ] final   74.87 input   59.86 | X-H torsion
[ 10167 10162 10161 10158 ] final   34.55 input  -65.29 | X-H torsion
[ 10718 10713 10712 10709 ] final   40.78 input   66.30 | X-H torsion
[ 10763 10752 10751 10750 ] final   71.97 input  -60.55 | X-H torsion
[ 11005 11000 10999 10996 ] final -125.87 input  -57.11 | X-H torsion

> <Gold.Protein.ActiveResidues>
 VAL166  LYS551  ARG553  GLY616  TRP617  ASP618  TYR619  PRO620  LYS621  CYS622 
 ASP623  PHE694  ASN695  SER759  ASP760  ASP761  ALA762  ILE779  LEU786  VAL792 
 PHE793  MET794  SER795  GLU796  ALA797  LYS798  CYS799  TRP800  GLU811  SER814 

> <Gold.Protein.RotatedAtoms>
  150.9649  133.6406  159.2747 H   0  0  0  0  0  0  0  0  0  0  0  0  # atno 6907 bound_to 6896
  151.3715  135.0922  159.9477 H   0  0  0  0  0  0  0  0  0  0  0  0  # atno 6908 bound_to 6896
  152.5161  133.9202  159.7585 H   0  0  0  0  0  0  0  0  0  0  0  0  # atno 6909 bound_to 6896
  146.2344  140.2083  142.8335 H   0  0  0  0  0  0  0  0  0  0  0  0  # atno 7974 bound_to 7965
  155.8046  140.3475  155.5422 H   0  0  0  0  0  0  0  0  0  0  0  0  # atno 8008 bound_to 7997
  155.8503  140.0955  157.1699 H   0  0  0  0  0  0  0  0  0  0  0  0  # atno 8009 bound_to 7997
  154.4007  140.1378  156.3823 H   0  0  0  0  0  0  0  0  0  0  0  0  # atno 8010 bound_to 7997
  140.4305  144.1332  150.6159 H   0  0  0  0  0  0  0  0  0  0  0  0  # atno 10167 bound_to 10162
  157.3860  130.7780  149.7231 H   0  0  0  0  0  0  0  0  0  0  0  0  # atno 10718 bound_to 10713
  153.0430  135.5117  154.7673 H   0  0  0  0  0  0  0  0  0  0  0  0  # atno 10763 bound_to 10752
  154.6595  135.2936  154.9887 H   0  0  0  0  0  0  0  0  0  0  0  0  # atno 10764 bound_to 10752
  154.0743  135.6673  153.4881 H   0  0  0  0  0  0  0  0  0  0  0  0  # atno 10765 bound_to 10752
  140.9727  134.0782  157.3851 H   0  0  0  0  0  0  0  0  0  0  0  0  # atno 11005 bound_to 11000
  144.9727  140.8384  143.5445 LP  0  0  0  0  0  0  0  0  0  0  0  0  # atno 17320 bound_to 7965
  145.2066  139.2225  143.5165 LP  0  0  0  0  0  0  0  0  0  0  0  0  # atno 17321 bound_to 7965
  140.4433  143.2517  151.9444 LP  0  0  0  0  0  0  0  0  0  0  0  0  # atno 17342 bound_to 10162
  139.4785  144.5633  151.8204 LP  0  0  0  0  0  0  0  0  0  0  0  0  # atno 17343 bound_to 10162
  155.9787  130.4048  150.3634 LP  0  0  0  0  0  0  0  0  0  0  0  0  # atno 17370 bound_to 10713
  157.1744  131.0376  151.2780 LP  0  0  0  0  0  0  0  0  0  0  0  0  # atno 17371 bound_to 10713
  139.8918  135.0121  156.6814 LP  0  0  0  0  0  0  0  0  0  0  0  0  # atno 17394 bound_to 11000
  140.7304  133.9064  155.8207 LP  0  0  0  0  0  0  0  0  0  0  0  0  # atno 17395 bound_to 11000

$$$$
