AV-unprocessed.smi:1417|AV-procd|sdf|5767|dock3
  -GOLD-   22720 5403D 1   1.00000     0.00000
 Structure written by MMmdl.
 40 41  0  0  0  0  0  0  0  0  2 V2000
  137.2428  137.6306  154.2332 C   0  0  0  0  0  0  0  0  0  0  0  0
  138.7239  137.5250  154.1056 C   0  0  0  0  0  0  0  0  0  0  0  0
  139.6408  138.1843  153.3366 C   0  0  0  0  0  0  0  0  0  0  0  0
  140.8735  137.5821  153.7235 C   0  0  0  0  0  0  0  0  0  0  0  0
  142.1609  137.9011  153.2200 N   0  0  0  0  0  0  0  0  0  0  0  0
  143.1241  137.0646  152.7988 C   0  0  0  0  0  0  0  0  0  0  0  0
  143.0439  135.8368  152.7746 O   0  0  0  0  0  0  0  0  0  0  0  0
  144.2115  137.7406  152.3994 N   0  0  0  0  0  0  0  0  0  0  0  0
  145.4373  137.1398  151.8740 C   0  0  2  0  0  0  0  0  0  0  0  0
  146.0923  136.1859  152.8932 C   0  0  0  0  0  0  0  0  0  0  0  0
  146.7021  136.9461  154.0839 C   0  0  0  0  0  0  0  0  0  0  0  0
  147.6788  137.9681  153.6219 N   0  3  2  0  0  0  0  0  0  0  0  0
  148.3995  138.6324  154.7388 C   0  0  0  0  0  0  0  0  0  0  0  0
  149.8576  138.9614  154.4013 C   0  0  0  0  0  0  0  0  0  0  0  0
  150.5012  138.1017  153.6082 N   0  0  0  0  0  0  0  0  0  0  0  0
  150.4025  139.9644  154.8587 O   0  0  0  0  0  0  0  0  0  0  0  0
  147.0516  138.9421  152.6925 C   0  0  0  0  0  0  0  0  0  0  0  0
  146.4412  138.2332  151.4693 C   0  0  0  0  0  0  0  0  0  0  0  0
  140.7164  136.6435  154.6383 N   0  0  0  0  0  0  0  0  0  0  0  0
  139.3402  136.6009  154.8905 O   0  0  0  0  0  0  0  0  0  0  0  0
  136.8355  138.3145  153.4884 H   0  0  0  0  0  0  0  0  0  0  0  0
  136.9660  138.0014  155.2203 H   0  0  0  0  0  0  0  0  0  0  0  0
  136.7717  136.6578  154.0919 H   0  0  0  0  0  0  0  0  0  0  0  0
  139.4426  138.9671  152.6202 H   0  0  0  0  0  0  0  0  0  0  0  0
  142.3698  138.8873  153.1723 H   0  0  0  0  0  0  0  0  0  0  0  0
  144.1835  138.7486  152.4484 H   0  0  0  0  0  0  0  0  0  0  0  0
  145.1754  136.5730  150.9784 H   0  0  0  0  0  0  0  0  0  0  0  0
  145.3726  135.4481  153.2495 H   0  0  0  0  0  0  0  0  0  0  0  0
  146.8798  135.6184  152.3953 H   0  0  0  0  0  0  0  0  0  0  0  0
  145.9159  137.4273  154.6674 H   0  0  0  0  0  0  0  0  0  0  0  0
  147.1906  136.2323  154.7474 H   0  0  0  0  0  0  0  0  0  0  0  0
  147.9146  139.5803  154.9759 H   0  0  0  0  0  0  0  0  0  0  0  0
  148.3430  138.0179  155.6389 H   0  0  0  0  0  0  0  0  0  0  0  0
  151.4627  138.2695  153.3489 H   0  0  0  0  0  0  0  0  0  0  0  0
  150.0203  137.2825  153.2641 H   0  0  0  0  0  0  0  0  0  0  0  0
  146.2886  139.5139  153.2229 H   0  0  0  0  0  0  0  0  0  0  0  0
  147.8001  139.6574  152.3497 H   0  0  0  0  0  0  0  0  0  0  0  0
  147.2444  137.7812  150.8853 H   0  0  0  0  0  0  0  0  0  0  0  0
  145.9641  138.9618  150.8125 H   0  0  0  0  0  0  0  0  0  0  0  0
  148.3838  137.4797  153.0873 H   0  0  0  0  0  0  0  0  0  0  0  0
  1  2  1  0  0  0  0
  1 21  1  0  0  0  0
  1 22  1  0  0  0  0
  1 23  1  0  0  0  0
  2 20  1  0  0  0  0
  2  3  2  0  0  0  0
  3  4  1  0  0  0  0
  3 24  1  0  0  0  0
  4  5  1  0  0  0  0
  4 19  2  0  0  0  0
  5  6  1  0  0  0  0
  5 25  1  0  0  0  0
  6  7  2  0  0  0  0
  6  8  1  0  0  0  0
  8  9  1  0  0  0  0
  8 26  1  0  0  0  0
  9 18  1  0  0  0  0
  9 10  1  0  0  0  0
  9 27  1  0  0  0  0
 10 11  1  0  0  0  0
 10 28  1  0  0  0  0
 10 29  1  0  0  0  0
 11 12  1  0  0  0  0
 11 30  1  0  0  0  0
 11 31  1  0  0  0  0
 12 13  1  0  0  0  0
 12 17  1  0  0  0  0
 12 40  1  0  0  0  0
 13 14  1  0  0  0  0
 13 32  1  0  0  0  0
 13 33  1  0  0  0  0
 14 15  1  0  0  0  0
 14 16  2  0  0  0  0
 15 34  1  0  0  0  0
 15 35  1  0  0  0  0
 17 18  1  0  0  0  0
 17 36  1  0  0  0  0
 17 37  1  0  0  0  0
 18 38  1  0  0  0  0
 18 39  1  0  0  0  0
 19 20  1  0  0  0  0
M  CHG  1  12   1
M  END
> <s_m_source_file>
AV-unprocessed.smi

> <i_m_source_file_index>
1417

> <i_lp_mmshare_version>
43012

> <i_f3d_flags>
0

> <s_epik_input>
W0NIM11jMVtjSF1jKG5vMSlbTkhdQyg9TylbTkhdW0NIXTJbQ0gyXVtDSDJdTihbQ0gyXVtDSDJdMilbQ0gyXUMoPU8pW05IMl0=

> <s_epik_cmdline>
J2VwaWtfcHl0aG9uJywgJy1waCcsICc3LjAnLCAnLXRuJywgJzgnLCAnLW1hJywgJzIwMCcsICctbWV0YWxfYmluZGluZycsICctaW1hZScsICc8aW5maWxlLm1hZT4nLCAnLW9tYWUnLCAnPG91dGZpbGUubWFlPic=

> <r_epik_Ionization_Penalty>
0.867698

> <r_epik_Ionization_Penalty_Charging>
0.867623

> <r_epik_Ionization_Penalty_Neutral>
7.46743e-05

> <r_epik_State_Penalty>
0.904669

> <r_epik_Charging_Adjusted_Penalty>
1.77229

> <i_epik_Tot_Q>
1

> <i_epik_Tot_abs_Q>
1

> <r_epik_Metal_State_Penalty>
0.930696

> <b_epik_Metal_Only>
0

> <s_lp_Force_Field>
OPLS_2005

> <r_lp_Energy>
12.5471

> <b_lp_Chiralities_Consistent>
1

> <s_lp_Variant>
AV-unprocessed.smi:1417-3

> <Gold.Version>
5.8.1

> <Gold.Id.Protein>
6NUR|6NUR_protein|mol2

> <Gold.PLP.Fitness>
48.1894

> <Gold.PLP.PLP>
-32.5626

> <Gold.PLP.part.hbond>
-8.8964

> <Gold.PLP.part.metal>
0.0000

> <Gold.PLP.part.buried>
1.3331

> <Gold.PLP.part.nonpolar>
-25.0936

> <Gold.PLP.part.repulsive>
0.4862

> <Gold.PLP.ligand.clash>
0.0000

> <Gold.PLP.ligand.torsion>
1.1771

> <Gold.PLP.Chemscore.Hbond>
5.9799

> <Gold.PLP.Chemscore.CHOScore>
0.0000

> <Gold.PLP.Chemscore.Metal>
0.0000

> <Gold.Chemscore.Hbonds>
donor molecule, donor type, donor heavy atom, donor atom, acceptor molecule, acceptor atom, score
      L1  H     5    25       P1 10175  0.82
      L1  H     8    26       P1 10175  1.00
      L1  H    12    40       P1  7948  2.00
      L1  H    15    35       P1  7948  1.00
      P1  H  7989  7998       L1    16  0.96
      P1  H 11000 11005       L1    20  0.09

> <Gold.PLP.Chemscore.Internal.Correction>
0.0414

> <Gold.Rescore>
     Score         DG    S(hbond)    S(metal)    S(lipo)     H(rot)  DE(clash)    DE(int)     intcor
     18.64     -20.21       4.05        0.00      55.02       2.05       0.32       1.26       ----

> <Gold.Chemscore.Fitness>
18.6354

> <Gold.Chemscore.DG>
-20.2079

> <Gold.Chemscore.ZeroCoef>
-5.4800

> <Gold.Chemscore.Hbond>
4.0502

> <Gold.Chemscore.Metal>
0.0000

> <Gold.Chemscore.Lipo>
55.0185

> <Gold.Chemscore.Internal_Hbond>
0.0000

> <Gold.Chemscore.DEClash>
0.3162

> <Gold.Chemscore.DEInternal>
1.2563

> <Gold.Chemscore.Rot>
2.0457

> <Gold.Chemscore.Internal.Correction>
   9.000000E+99

> <Gold.Chemscore.Hbonds>
donor molecule, donor type, donor heavy atom, donor atom, acceptor molecule, acceptor atom, score
      L1  H     5    25       P1 10175  0.76
      L1  H     8    26       P1 10175  1.00
      L1  H    12    40       P1  7948  0.98
      L1  H    15    35       P1  7948  0.24
      P1  H  7989  7998       L1    16  0.75

> <Gold.Chemscore.Hbond.Weighted>
-13.5278

> <Gold.Chemscore.Metal.Weighted>
-0.0000

> <Gold.Chemscore.Lipo.Weighted>
-6.4372

> <Gold.Chemscore.Internal_Hbond.Weighted>
0.0000

> <Gold.Chemscore.DEClash.Weighted>
0.3162

> <Gold.Chemscore.DEInternal.Weighted>
1.2563

> <Gold.Chemscore.Rot.Weighted>
5.2371

> <Gold.Chemscore.Internal.Correction.Weighted>
   9.000000E+99

> <Gold.Protein.RotatedTorsions>
[ 6907 6896 6895 6894 ] final -171.40 input  -60.11 | X-H torsion
[ 7974 7965 7964 7962 ] final  -74.25 input  175.53 | X-H torsion
[ 8008 7997 7996 7995 ] final -175.99 input   59.86 | X-H torsion
[ 10167 10162 10161 10158 ] final -139.62 input  -65.29 | X-H torsion
[ 10718 10713 10712 10709 ] final -146.32 input   66.30 | X-H torsion
[ 10763 10752 10751 10750 ] final  -56.47 input  -60.55 | X-H torsion
[ 11005 11000 10999 10996 ] final   90.37 input  -57.11 | X-H torsion

> <Gold.Protein.ActiveResidues>
 VAL166  LYS551  ARG553  GLY616  TRP617  ASP618  TYR619  PRO620  LYS621  CYS622 
 ASP623  PHE694  ASN695  SER759  ASP760  ASP761  ALA762  ILE779  LEU786  VAL792 
 PHE793  MET794  SER795  GLU796  ALA797  LYS798  CYS799  TRP800  GLU811  SER814 

> <Gold.Protein.RotatedAtoms>
  151.5232  133.3462  159.2904 H   0  0  0  0  0  0  0  0  0  0  0  0  # atno 6907 bound_to 6896
  150.8639  134.8000  159.7115 H   0  0  0  0  0  0  0  0  0  0  0  0  # atno 6908 bound_to 6896
  152.4650  134.5105  159.9804 H   0  0  0  0  0  0  0  0  0  0  0  0  # atno 6909 bound_to 6896
  145.6415  140.9309  143.1033 H   0  0  0  0  0  0  0  0  0  0  0  0  # atno 7974 bound_to 7965
  155.9894  140.1198  157.0652 H   0  0  0  0  0  0  0  0  0  0  0  0  # atno 8008 bound_to 7997
  154.4207  140.1128  156.5613 H   0  0  0  0  0  0  0  0  0  0  0  0  # atno 8009 bound_to 7997
  155.6363  140.3473  155.4702 H   0  0  0  0  0  0  0  0  0  0  0  0  # atno 8010 bound_to 7997
  139.8361  143.7382  152.2665 H   0  0  0  0  0  0  0  0  0  0  0  0  # atno 10167 bound_to 10162
  156.3934  130.7897  151.2101 H   0  0  0  0  0  0  0  0  0  0  0  0  # atno 10718 bound_to 10713
  154.2071  135.6401  153.5104 H   0  0  0  0  0  0  0  0  0  0  0  0  # atno 10763 bound_to 10752
  152.9998  135.5465  154.6254 H   0  0  0  0  0  0  0  0  0  0  0  0  # atno 10764 bound_to 10752
  154.5682  135.2914  155.0827 H   0  0  0  0  0  0  0  0  0  0  0  0  # atno 10765 bound_to 10752
  139.8857  134.8609  156.3275 H   0  0  0  0  0  0  0  0  0  0  0  0  # atno 11005 bound_to 11000
  144.7155  139.8211  143.7400 LP  0  0  0  0  0  0  0  0  0  0  0  0  # atno 17320 bound_to 7965
  146.1277  139.4306  143.0188 LP  0  0  0  0  0  0  0  0  0  0  0  0  # atno 17321 bound_to 7965
  139.7605  144.7508  151.0371 LP  0  0  0  0  0  0  0  0  0  0  0  0  # atno 17342 bound_to 10162
  140.7802  143.4756  151.0087 LP  0  0  0  0  0  0  0  0  0  0  0  0  # atno 17343 bound_to 10162
  157.7500  131.0308  150.4156 LP  0  0  0  0  0  0  0  0  0  0  0  0  # atno 17370 bound_to 10713
  156.4422  130.3994  149.6690 LP  0  0  0  0  0  0  0  0  0  0  0  0  # atno 17371 bound_to 10713
  140.9745  133.7306  156.0583 LP  0  0  0  0  0  0  0  0  0  0  0  0  # atno 17394 bound_to 11000
  140.7828  134.3706  157.5483 LP  0  0  0  0  0  0  0  0  0  0  0  0  # atno 17395 bound_to 11000

$$$$
