AV-unprocessed.smi:1610|AV-procd|sdf|6472|dock1
  -GOLD-   22720 7133D 1   1.00000     0.00000
 Structure written by MMmdl.
 43 44  0  0  0  0  0  0  0  0  2 V2000
  147.8505  134.6368  160.8186 C   0  0  0  0  0  0  0  0  0  0  0  0
  148.2827  136.3472  160.3079 S   0  0  0  0  0  0  0  0  0  0  0  0
  147.2374  136.7574  159.3565 O   0  0  0  0  0  0  0  0  0  0  0  0
  148.3986  137.1190  161.5555 O   0  0  0  0  0  0  0  0  0  0  0  0
  149.7140  136.0868  159.5929 N   0  5  0  0  0  0  0  0  0  0  0  0
  150.2208  137.0274  158.6036 C   0  0  0  0  0  0  0  0  0  0  0  0
  151.6273  136.5745  158.1235 C   0  0  0  0  0  0  0  0  0  0  0  0
  152.3769  137.6477  157.2859 C   0  0  0  0  0  0  0  0  0  0  0  0
  152.4898  138.9045  158.0546 N   0  0  0  0  0  0  0  0  0  0  0  0
  153.5750  139.3394  158.7414 C   0  0  0  0  0  0  0  0  0  0  0  0
  154.7202  138.9542  158.5007 O   0  0  0  0  0  0  0  0  0  0  0  0
  153.3098  140.2736  159.6716 N   0  0  0  0  0  0  0  0  0  0  0  0
  154.3046  141.1066  160.3449 C   0  0  0  0  0  0  0  0  0  0  0  0
  153.6406  142.1806  161.2317 C   0  0  0  0  0  0  0  0  0  0  0  0
  152.9683  143.3096  160.4616 C   0  0  0  0  0  0  0  0  0  0  0  0
  152.9238  143.3109  159.0510 C   0  0  0  0  0  0  0  0  0  0  0  0
  152.2493  144.3568  158.3922 C   0  0  0  0  0  0  0  0  0  0  0  0
  151.6581  145.3704  159.1718 C   0  0  0  0  0  0  0  0  0  0  0  0
  151.7152  145.3945  160.5205 N   0  0  0  0  0  0  0  0  0  0  0  0
  152.3540  144.3817  161.1443 C   0  0  0  0  0  0  0  0  0  0  0  0
  151.1412  139.4431  158.3024 C   0  0  0  0  0  0  0  0  0  0  0  0
  150.3322  138.4612  159.1980 C   0  0  0  0  0  0  0  0  0  0  0  0
  146.8824  134.6433  161.3183 H   0  0  0  0  0  0  0  0  0  0  0  0
  148.6103  134.2594  161.5024 H   0  0  0  0  0  0  0  0  0  0  0  0
  147.8014  133.9963  159.9385 H   0  0  0  0  0  0  0  0  0  0  0  0
  149.5762  137.0747  157.7251 H   0  0  0  0  0  0  0  0  0  0  0  0
  152.2443  136.3304  158.9877 H   0  0  0  0  0  0  0  0  0  0  0  0
  151.5396  135.6537  157.5459 H   0  0  0  0  0  0  0  0  0  0  0  0
  153.3430  137.2553  156.9687 H   0  0  0  0  0  0  0  0  0  0  0  0
  151.8442  137.8471  156.3536 H   0  0  0  0  0  0  0  0  0  0  0  0
  152.3420  140.5217  159.8169 H   0  0  0  0  0  0  0  0  0  0  0  0
  154.9522  140.4716  160.9497 H   0  0  0  0  0  0  0  0  0  0  0  0
  154.9567  141.5959  159.6202 H   0  0  0  0  0  0  0  0  0  0  0  0
  152.8937  141.6995  161.8645 H   0  0  0  0  0  0  0  0  0  0  0  0
  154.3795  142.6089  161.9093 H   0  0  0  0  0  0  0  0  0  0  0  0
  153.3788  142.5138  158.4821 H   0  0  0  0  0  0  0  0  0  0  0  0
  152.1793  144.3780  157.3150 H   0  0  0  0  0  0  0  0  0  0  0  0
  151.1281  146.1844  158.6999 H   0  0  0  0  0  0  0  0  0  0  0  0
  152.3641  144.4256  162.2233 H   0  0  0  0  0  0  0  0  0  0  0  0
  151.1732  140.4246  158.7773 H   0  0  0  0  0  0  0  0  0  0  0  0
  150.6343  139.6080  157.3492 H   0  0  0  0  0  0  0  0  0  0  0  0
  149.3365  138.8706  159.3684 H   0  0  0  0  0  0  0  0  0  0  0  0
  150.8116  138.4138  160.1775 H   0  0  0  0  0  0  0  0  0  0  0  0
  1  2  1  0  0  0  0
  1 23  1  0  0  0  0
  1 24  1  0  0  0  0
  1 25  1  0  0  0  0
  2  3  2  0  0  0  0
  2  4  2  0  0  0  0
  2  5  1  0  0  0  0
  5  6  1  0  0  0  0
  6 22  1  0  0  0  0
  6  7  1  0  0  0  0
  6 26  1  0  0  0  0
  7  8  1  0  0  0  0
  7 27  1  0  0  0  0
  7 28  1  0  0  0  0
  8  9  1  0  0  0  0
  8 29  1  0  0  0  0
  8 30  1  0  0  0  0
  9 10  1  0  0  0  0
  9 21  1  0  0  0  0
 10 11  2  0  0  0  0
 10 12  1  0  0  0  0
 12 13  1  0  0  0  0
 12 31  1  0  0  0  0
 13 14  1  0  0  0  0
 13 32  1  0  0  0  0
 13 33  1  0  0  0  0
 14 15  1  0  0  0  0
 14 34  1  0  0  0  0
 14 35  1  0  0  0  0
 15 20  1  0  0  0  0
 15 16  2  0  0  0  0
 16 17  1  0  0  0  0
 16 36  1  0  0  0  0
 17 18  2  0  0  0  0
 17 37  1  0  0  0  0
 18 19  1  0  0  0  0
 18 38  1  0  0  0  0
 19 20  2  0  0  0  0
 20 39  1  0  0  0  0
 21 22  1  0  0  0  0
 21 40  1  0  0  0  0
 21 41  1  0  0  0  0
 22 42  1  0  0  0  0
 22 43  1  0  0  0  0
M  CHG  1   5  -1
M  END
> <s_m_source_file>
AV-unprocessed.smi

> <i_m_source_file_index>
1610

> <i_lp_mmshare_version>
43012

> <i_f3d_flags>
0

> <s_epik_input>
W0NIM11TKD1PKSg9TylbTkhdW0NIXTFbQ0gyXVtDSDJdTihbQ0gyXVtDSDJdMSlDKD1PKVtOSF1bQ0gyXVtDSDJdYzJbY0hdW2NIXVtjSF1uW2NIXTI=

> <s_epik_cmdline>
J2VwaWtfcHl0aG9uJywgJy1waCcsICc3LjAnLCAnLXRuJywgJzgnLCAnLW1hJywgJzIwMCcsICctbWV0YWxfYmluZGluZycsICctaW1hZScsICc8aW5maWxlLm1hZT4nLCAnLW9tYWUnLCAnPG91dGZpbGUubWFlPic=

> <r_epik_Ionization_Penalty>
6.72257

> <r_epik_Ionization_Penalty_Charging>
6.70803

> <r_epik_Ionization_Penalty_Neutral>
0.0145361

> <r_epik_State_Penalty>
6.71933

> <r_epik_Charging_Adjusted_Penalty>
13.4274

> <i_epik_Tot_Q>
-1

> <i_epik_Tot_abs_Q>
1

> <r_epik_Metal_State_Penalty>
2.65475

> <b_epik_Metal_Only>
1

> <s_lp_Force_Field>
OPLS_2005

> <r_lp_Energy>
25.1746

> <b_lp_Chiralities_Consistent>
1

> <s_lp_Variant>
AV-unprocessed.smi:1610-3

> <Gold.Version>
5.8.1

> <Gold.Id.Protein>
6NUR|6NUR_protein|mol2

> <Gold.PLP.Fitness>
53.3741

> <Gold.PLP.PLP>
-41.5646

> <Gold.PLP.part.hbond>
-4.0000

> <Gold.PLP.part.metal>
0.0000

> <Gold.PLP.part.buried>
-4.3663

> <Gold.PLP.part.nonpolar>
-33.8362

> <Gold.PLP.part.repulsive>
0.2870

> <Gold.PLP.ligand.clash>
1.9522

> <Gold.PLP.ligand.torsion>
0.7837

> <Gold.PLP.Chemscore.Hbond>
4.7280

> <Gold.PLP.Chemscore.CHOScore>
0.0000

> <Gold.PLP.Chemscore.Metal>
0.0000

> <Gold.Chemscore.Hbonds>
donor molecule, donor type, donor heavy atom, donor atom, acceptor molecule, acceptor atom, score
      P1  H  6896  6907       L1     5  2.00
      P1  H  6931  6943       L1     4  0.52
      P1  H  6934  6947       L1     4  0.12
      P1  H  7997  8008       L1    11  1.00

> <Gold.PLP.Chemscore.Internal.Correction>
1.1451

> <Gold.Rescore>
     Score         DG    S(hbond)    S(metal)    S(lipo)     H(rot)  DE(clash)    DE(int)     intcor
     22.27     -24.38       3.23        0.00     106.12       1.68       0.96       1.15       ----

> <Gold.Chemscore.Fitness>
22.2711

> <Gold.Chemscore.DG>
-24.3796

> <Gold.Chemscore.ZeroCoef>
-5.4800

> <Gold.Chemscore.Hbond>
3.2297

> <Gold.Chemscore.Metal>
0.0000

> <Gold.Chemscore.Lipo>
106.1243

> <Gold.Chemscore.Internal_Hbond>
0.0000

> <Gold.Chemscore.DEClash>
0.9552

> <Gold.Chemscore.DEInternal>
1.1533

> <Gold.Chemscore.Rot>
1.6813

> <Gold.Chemscore.Internal.Correction>
   9.000000E+99

> <Gold.Chemscore.Hbonds>
donor molecule, donor type, donor heavy atom, donor atom, acceptor molecule, acceptor atom, score
      P1  H  6896  6907       L1     5  0.60
      P1  H  6931  6943       L1     4  0.52
      P1  H  6934  6947       L1     4  0.03
      P1  H  7997  8008       L1    11  0.49

> <Gold.Chemscore.Hbond.Weighted>
-10.7873

> <Gold.Chemscore.Metal.Weighted>
-0.0000

> <Gold.Chemscore.Lipo.Weighted>
-12.4165

> <Gold.Chemscore.Internal_Hbond.Weighted>
0.0000

> <Gold.Chemscore.DEClash.Weighted>
0.9552

> <Gold.Chemscore.DEInternal.Weighted>
1.1533

> <Gold.Chemscore.Rot.Weighted>
4.3042

> <Gold.Chemscore.Internal.Correction.Weighted>
   9.000000E+99

> <Gold.Protein.RotatedTorsions>
[ 6907 6896 6895 6894 ] final  -50.45 input  -60.11 | X-H torsion
[ 7974 7965 7964 7962 ] final   -2.71 input  175.53 | X-H torsion
[ 8008 7997 7996 7995 ] final -131.37 input   59.86 | X-H torsion
[ 10167 10162 10161 10158 ] final   31.78 input  -65.29 | X-H torsion
[ 10718 10713 10712 10709 ] final  152.35 input   66.30 | X-H torsion
[ 10763 10752 10751 10750 ] final -153.03 input  -60.55 | X-H torsion
[ 11005 11000 10999 10996 ] final  101.83 input  -57.11 | X-H torsion

> <Gold.Protein.ActiveResidues>
 VAL166  LYS551  ARG553  GLY616  TRP617  ASP618  TYR619  PRO620  LYS621  CYS622 
 ASP623  PHE694  ASN695  SER759  ASP760  ASP761  ALA762  ILE779  LEU786  VAL792 
 PHE793  MET794  SER795  GLU796  ALA797  LYS798  CYS799  TRP800  GLU811  SER814 

> <Gold.Protein.RotatedAtoms>
  150.8706  134.8079  159.7151 H   0  0  0  0  0  0  0  0  0  0  0  0  # atno 6907 bound_to 6896
  152.4712  134.4952  159.9717 H   0  0  0  0  0  0  0  0  0  0  0  0  # atno 6908 bound_to 6896
  151.5042  133.3459  159.2909 H   0  0  0  0  0  0  0  0  0  0  0  0  # atno 6909 bound_to 6896
  146.2400  140.1611  142.8333 H   0  0  0  0  0  0  0  0  0  0  0  0  # atno 7974 bound_to 7965
  155.3112  140.0457  157.3035 H   0  0  0  0  0  0  0  0  0  0  0  0  # atno 8008 bound_to 7997
  154.5432  140.2294  155.8573 H   0  0  0  0  0  0  0  0  0  0  0  0  # atno 8009 bound_to 7997
  156.1900  140.3053  155.9319 H   0  0  0  0  0  0  0  0  0  0  0  0  # atno 8010 bound_to 7997
  140.4557  144.0981  150.6201 H   0  0  0  0  0  0  0  0  0  0  0  0  # atno 10167 bound_to 10162
  157.2590  131.0794  151.1679 H   0  0  0  0  0  0  0  0  0  0  0  0  # atno 10718 bound_to 10713
  154.7955  135.3222  154.7677 H   0  0  0  0  0  0  0  0  0  0  0  0  # atno 10763 bound_to 10752
  153.8356  135.6875  153.4813 H   0  0  0  0  0  0  0  0  0  0  0  0  # atno 10764 bound_to 10752
  153.1645  135.4648  154.9759 H   0  0  0  0  0  0  0  0  0  0  0  0  # atno 10765 bound_to 10752
  139.8775  134.9199  156.4966 H   0  0  0  0  0  0  0  0  0  0  0  0  # atno 11005 bound_to 11000
  145.0088  140.8696  143.5236 LP  0  0  0  0  0  0  0  0  0  0  0  0  # atno 17320 bound_to 7965
  145.1642  139.2441  143.5376 LP  0  0  0  0  0  0  0  0  0  0  0  0  # atno 17321 bound_to 7965
  140.4153  143.2637  151.9782 LP  0  0  0  0  0  0  0  0  0  0  0  0  # atno 17342 bound_to 10162
  139.4801  144.5879  151.7822 LP  0  0  0  0  0  0  0  0  0  0  0  0  # atno 17343 bound_to 10162
  157.3196  130.6930  149.6261 LP  0  0  0  0  0  0  0  0  0  0  0  0  # atno 17370 bound_to 10713
  155.9664  130.4339  150.5027 LP  0  0  0  0  0  0  0  0  0  0  0  0  # atno 17371 bound_to 10713
  140.8620  133.8053  155.9274 LP  0  0  0  0  0  0  0  0  0  0  0  0  # atno 17394 bound_to 11000
  140.9040  134.2343  157.5025 LP  0  0  0  0  0  0  0  0  0  0  0  0  # atno 17395 bound_to 11000

$$$$
