AV-unprocessed.smi:1429|AV-procd|sdf|5821|dock6
  -GOLD-   22720 5473D 1   1.00000     0.00000
 Structure written by MMmdl.
 29 30  0  0  0  0  0  0  0  0  2 V2000
  145.3085  136.8187  162.5995 C   0  0  0  0  0  0  0  0  0  0  0  0
  146.3064  136.5451  161.5270 C   0  0  0  0  0  0  0  0  0  0  0  0
  146.8795  137.5156  160.8115 N   0  0  0  0  0  0  0  0  0  0  0  0
  147.7731  137.0163  159.8751 N   0  0  0  0  0  0  0  0  0  0  0  0
  147.8559  135.6783  159.8880 C   0  0  0  0  0  0  0  0  0  0  0  0
  148.6680  135.0005  159.0599 N   0  5  0  0  0  0  0  0  0  0  0  0
  149.0554  135.5550  157.8886 C   0  0  0  0  0  0  0  0  0  0  0  0
  148.3163  135.9117  156.9680 O   0  0  0  0  0  0  0  0  0  0  0  0
  150.3815  135.7055  157.7756 N   0  0  0  0  0  0  0  0  0  0  0  0
  151.0686  136.2800  156.6256 C   0  0  0  0  0  0  0  0  0  0  0  0
  152.5823  136.3698  156.8791 C   0  0  1  0  0  0  0  0  0  0  0  0
  153.2896  137.4016  156.0252 C   0  0  0  0  0  0  0  0  0  0  0  0
  154.5935  137.5987  156.7914 C   0  0  0  0  0  0  0  0  0  0  0  0
  154.2646  137.4163  158.1653 O   0  0  0  0  0  0  0  0  0  0  0  0
  152.9690  136.8342  158.2855 C   0  0  0  0  0  0  0  0  0  0  0  0
  146.8247  134.9223  161.1027 S   0  0  0  0  0  0  0  0  0  0  0  0
  144.3981  137.2321  162.1654 H   0  0  0  0  0  0  0  0  0  0  0  0
  145.7146  137.5339  163.3153 H   0  0  0  0  0  0  0  0  0  0  0  0
  145.0575  135.8992  163.1282 H   0  0  0  0  0  0  0  0  0  0  0  0
  150.9537  135.4016  158.5497 H   0  0  0  0  0  0  0  0  0  0  0  0
  150.8734  135.6588  155.7504 H   0  0  0  0  0  0  0  0  0  0  0  0
  150.6639  137.2709  156.4126 H   0  0  0  0  0  0  0  0  0  0  0  0
  153.0403  135.3966  156.6929 H   0  0  0  0  0  0  0  0  0  0  0  0
  153.4467  137.0739  154.9971 H   0  0  0  0  0  0  0  0  0  0  0  0
  152.7238  138.3341  156.0049 H   0  0  0  0  0  0  0  0  0  0  0  0
  155.3209  136.8380  156.5050 H   0  0  0  0  0  0  0  0  0  0  0  0
  155.0387  138.5778  156.6137 H   0  0  0  0  0  0  0  0  0  0  0  0
  152.2811  137.6022  158.6424 H   0  0  0  0  0  0  0  0  0  0  0  0
  152.9664  136.0182  159.0086 H   0  0  0  0  0  0  0  0  0  0  0  0
  1  2  1  0  0  0  0
  1 17  1  0  0  0  0
  1 18  1  0  0  0  0
  1 19  1  0  0  0  0
  2 16  1  0  0  0  0
  2  3  2  0  0  0  0
  3  4  1  0  0  0  0
  4  5  2  0  0  0  0
  5  6  1  0  0  0  0
  5 16  1  0  0  0  0
  6  7  1  0  0  0  0
  7  8  2  0  0  0  0
  7  9  1  0  0  0  0
  9 10  1  0  0  0  0
  9 20  1  0  0  0  0
 10 11  1  0  0  0  0
 10 21  1  0  0  0  0
 10 22  1  0  0  0  0
 11 15  1  0  0  0  0
 11 12  1  0  0  0  0
 11 23  1  0  0  0  0
 12 13  1  0  0  0  0
 12 24  1  0  0  0  0
 12 25  1  0  0  0  0
 13 14  1  0  0  0  0
 13 26  1  0  0  0  0
 13 27  1  0  0  0  0
 14 15  1  0  0  0  0
 15 28  1  0  0  0  0
 15 29  1  0  0  0  0
M  CHG  1   6  -1
M  END
> <s_m_source_file>
AV-unprocessed.smi

> <i_m_source_file_index>
1429

> <i_lp_mmshare_version>
43012

> <i_f3d_flags>
0

> <s_epik_input>
W0NIM11jMW5uYyhzMSlbTkhdQyg9TylbTkhdW0NIMl1bQ0BASF0yW0NIMl1bQ0gyXU9bQ0gyXTI=

> <s_epik_cmdline>
J2VwaWtfcHl0aG9uJywgJy1waCcsICc3LjAnLCAnLXRuJywgJzgnLCAnLW1hJywgJzIwMCcsICctbWV0YWxfYmluZGluZycsICctaW1hZScsICc8aW5maWxlLm1hZT4nLCAnLW9tYWUnLCAnPG91dGZpbGUubWFlPic=

> <r_lp_tautomer_probability>
1

> <r_epik_Ionization_Penalty>
4.4122

> <r_epik_Ionization_Penalty_Charging>
4.26477

> <r_epik_Ionization_Penalty_Neutral>
0.147429

> <r_epik_State_Penalty>
4.26433

> <r_epik_Charging_Adjusted_Penalty>
8.5291

> <i_epik_Tot_Q>
-1

> <i_epik_Tot_abs_Q>
1

> <r_epik_Metal_State_Penalty>
0.713483

> <b_epik_Metal_Only>
1

> <s_lp_Force_Field>
OPLS_2005

> <r_lp_Energy>
16.2384

> <b_lp_Chiralities_Consistent>
1

> <s_lp_Variant>
AV-unprocessed.smi:1429-4

> <Gold.Version>
5.8.1

> <Gold.Id.Protein>
6NUR|6NUR_protein|mol2

> <Gold.PLP.Fitness>
32.4012

> <Gold.PLP.PLP>
-22.1742

> <Gold.PLP.part.hbond>
-3.7300

> <Gold.PLP.part.metal>
0.0000

> <Gold.PLP.part.buried>
-3.6979

> <Gold.PLP.part.nonpolar>
-14.7928

> <Gold.PLP.part.repulsive>
0.0726

> <Gold.PLP.ligand.clash>
0.0000

> <Gold.PLP.ligand.torsion>
0.8895

> <Gold.PLP.Chemscore.Hbond>
3.9913

> <Gold.PLP.Chemscore.CHOScore>
0.0000

> <Gold.PLP.Chemscore.Metal>
0.0000

> <Gold.Chemscore.Hbonds>
donor molecule, donor type, donor heavy atom, donor atom, acceptor molecule, acceptor atom, score
      P1  H  6896  6909       L1     6  0.97
      P1  H  6934  6947       L1     3  1.00

> <Gold.PLP.Chemscore.Internal.Correction>
0.0322

> <Gold.Rescore>
     Score         DG    S(hbond)    S(metal)    S(lipo)     H(rot)  DE(clash)    DE(int)     intcor
     15.73     -17.06       2.53        0.00      55.07       1.30       0.08       1.24       ----

> <Gold.Chemscore.Fitness>
15.7336

> <Gold.Chemscore.DG>
-17.0561

> <Gold.Chemscore.ZeroCoef>
-5.4800

> <Gold.Chemscore.Hbond>
2.5317

> <Gold.Chemscore.Metal>
0.0000

> <Gold.Chemscore.Lipo>
55.0687

> <Gold.Chemscore.Internal_Hbond>
0.0000

> <Gold.Chemscore.DEClash>
0.0788

> <Gold.Chemscore.DEInternal>
1.2437

> <Gold.Chemscore.Rot>
1.2980

> <Gold.Chemscore.Internal.Correction>
   9.000000E+99

> <Gold.Chemscore.Hbonds>
donor molecule, donor type, donor heavy atom, donor atom, acceptor molecule, acceptor atom, score
      P1  H  6896  6909       L1     6  0.03
      P1  H  6934  6947       L1     3  0.52

> <Gold.Chemscore.Hbond.Weighted>
-8.4559

> <Gold.Chemscore.Metal.Weighted>
-0.0000

> <Gold.Chemscore.Lipo.Weighted>
-6.4430

> <Gold.Chemscore.Internal_Hbond.Weighted>
0.0000

> <Gold.Chemscore.DEClash.Weighted>
0.0788

> <Gold.Chemscore.DEInternal.Weighted>
1.2437

> <Gold.Chemscore.Rot.Weighted>
3.3229

> <Gold.Chemscore.Internal.Correction.Weighted>
   9.000000E+99

> <Gold.Protein.RotatedTorsions>
[ 6907 6896 6895 6894 ] final   33.65 input  -60.11 | X-H torsion
[ 7974 7965 7964 7962 ] final  -11.73 input  175.53 | X-H torsion
[ 8008 7997 7996 7995 ] final  -47.28 input   59.86 | X-H torsion
[ 10167 10162 10161 10158 ] final   84.14 input  -65.29 | X-H torsion
[ 10718 10713 10712 10709 ] final  144.92 input   66.30 | X-H torsion
[ 10763 10752 10751 10750 ] final   27.25 input  -60.55 | X-H torsion
[ 11005 11000 10999 10996 ] final   78.19 input  -57.11 | X-H torsion

> <Gold.Protein.ActiveResidues>
 VAL166  LYS551  ARG553  GLY616  TRP617  ASP618  TYR619  PRO620  LYS621  CYS622 
 ASP623  PHE694  ASN695  SER759  ASP760  ASP761  ALA762  ILE779  LEU786  VAL792 
 PHE793  MET794  SER795  GLU796  ALA797  LYS798  CYS799  TRP800  GLU811  SER814 

> <Gold.Protein.RotatedAtoms>
  152.0914  134.9404  160.0571 H   0  0  0  0  0  0  0  0  0  0  0  0  # atno 6907 bound_to 6896
  152.0654  133.4077  159.4444 H   0  0  0  0  0  0  0  0  0  0  0  0  # atno 6908 bound_to 6896
  150.6837  134.3072  159.4775 H   0  0  0  0  0  0  0  0  0  0  0  0  # atno 6909 bound_to 6896
  146.2177  140.2953  142.8371 H   0  0  0  0  0  0  0  0  0  0  0  0  # atno 7974 bound_to 7965
  154.4015  140.1350  156.4149 H   0  0  0  0  0  0  0  0  0  0  0  0  # atno 8008 bound_to 7997
  155.7698  140.3484  155.5221 H   0  0  0  0  0  0  0  0  0  0  0  0  # atno 8009 bound_to 7997
  155.8778  140.0982  157.1496 H   0  0  0  0  0  0  0  0  0  0  0  0  # atno 8010 bound_to 7997
  139.9111  144.6271  150.8536 H   0  0  0  0  0  0  0  0  0  0  0  0  # atno 10167 bound_to 10162
  157.3515  131.0951  151.0996 H   0  0  0  0  0  0  0  0  0  0  0  0  # atno 10718 bound_to 10713
  153.0568  135.6541  154.0557 H   0  0  0  0  0  0  0  0  0  0  0  0  # atno 10763 bound_to 10752
  154.0234  135.2918  155.3379 H   0  0  0  0  0  0  0  0  0  0  0  0  # atno 10764 bound_to 10752
  154.6887  135.5291  153.8430 H   0  0  0  0  0  0  0  0  0  0  0  0  # atno 10765 bound_to 10752
  139.9223  134.7744  156.1618 H   0  0  0  0  0  0  0  0  0  0  0  0  # atno 11005 bound_to 11000
  144.9097  140.7742  143.5815 LP  0  0  0  0  0  0  0  0  0  0  0  0  # atno 17320 bound_to 7965
  145.2883  139.1893  143.4754 LP  0  0  0  0  0  0  0  0  0  0  0  0  # atno 17321 bound_to 7965
  140.7685  143.3365  151.2299 LP  0  0  0  0  0  0  0  0  0  0  0  0  # atno 17342 bound_to 10162
  139.6941  143.9642  152.2874 LP  0  0  0  0  0  0  0  0  0  0  0  0  # atno 17343 bound_to 10162
  157.2170  130.6464  149.5796 LP  0  0  0  0  0  0  0  0  0  0  0  0  # atno 17370 bound_to 10713
  155.9722  130.4641  150.6207 LP  0  0  0  0  0  0  0  0  0  0  0  0  # atno 17371 bound_to 10713
  141.0753  133.6778  156.2224 LP  0  0  0  0  0  0  0  0  0  0  0  0  # atno 17394 bound_to 11000
  140.6439  134.5137  157.5572 LP  0  0  0  0  0  0  0  0  0  0  0  0  # atno 17395 bound_to 11000

$$$$
