AV-unprocessed.smi:1630|AV-procd|sdf|6525|dock1
  -GOLD-   22720 7203D 1   1.00000     0.00000
 Structure written by MMmdl.
 36 37  0  0  0  0  0  0  0  0  1 V2000
  141.4236  144.4195  161.2028 C   0  0  0  0  0  0  0  0  0  0  0  0
  142.2179  142.8391  160.6991 S   0  0  0  0  0  0  0  0  0  0  0  0
  142.1939  141.9232  161.8501 O   0  0  0  0  0  0  0  0  0  0  0  0
  141.6166  142.4181  159.4239 O   0  0  0  0  0  0  0  0  0  0  0  0
  143.9214  143.2957  160.3947 C   0  0  0  0  0  0  0  0  0  0  0  0
  144.9197  143.0072  161.3470 C   0  0  0  0  0  0  0  0  0  0  0  0
  146.2491  143.3579  161.0429 C   0  0  0  0  0  0  0  0  0  0  0  0
  146.5292  143.9645  159.7934 C   0  0  0  0  0  0  0  0  0  0  0  0
  147.8204  144.3831  159.3706 N   0  0  0  0  0  0  0  0  0  0  0  0
  148.9910  144.3429  160.0377 C   0  0  0  0  0  0  0  0  0  0  0  0
  149.1397  143.8870  161.1690 O   0  0  0  0  0  0  0  0  0  0  0  0
  150.0319  144.8490  159.3512 N   0  0  0  0  0  0  0  0  0  0  0  0
  151.4304  144.9590  159.7748 C   0  0  0  0  0  0  0  0  0  0  0  0
  152.3730  144.8962  158.5580 C   0  0  0  0  0  0  0  0  0  0  0  0
  153.4935  143.9289  158.9411 C   0  0  0  0  0  0  0  0  0  0  0  0
  152.8244  142.9385  159.8876 C   0  0  0  0  0  0  0  0  0  0  0  0
  151.8474  143.7931  160.6963 C   0  0  0  0  0  0  0  0  0  0  0  0
  145.4471  144.1997  158.9180 C   0  0  0  0  0  0  0  0  0  0  0  0
  144.1692  143.8679  159.1975 N   0  0  0  0  0  0  0  0  0  0  0  0
  140.3699  144.2436  161.4173 H   0  0  0  0  0  0  0  0  0  0  0  0
  141.5140  145.1459  160.3955 H   0  0  0  0  0  0  0  0  0  0  0  0
  141.9160  144.8054  162.0952 H   0  0  0  0  0  0  0  0  0  0  0  0
  144.6792  142.5373  162.2891 H   0  0  0  0  0  0  0  0  0  0  0  0
  147.0154  143.1640  161.7762 H   0  0  0  0  0  0  0  0  0  0  0  0
  147.8707  144.7291  158.4233 H   0  0  0  0  0  0  0  0  0  0  0  0
  149.8243  145.2217  158.4357 H   0  0  0  0  0  0  0  0  0  0  0  0
  151.5867  145.9074  160.2919 H   0  0  0  0  0  0  0  0  0  0  0  0
  151.8490  144.4993  157.6866 H   0  0  0  0  0  0  0  0  0  0  0  0
  152.7574  145.8784  158.2814 H   0  0  0  0  0  0  0  0  0  0  0  0
  153.9446  143.4440  158.0748 H   0  0  0  0  0  0  0  0  0  0  0  0
  154.2806  144.4674  159.4702 H   0  0  0  0  0  0  0  0  0  0  0  0
  152.2729  142.1951  159.3105 H   0  0  0  0  0  0  0  0  0  0  0  0
  153.5397  142.4087  160.5171 H   0  0  0  0  0  0  0  0  0  0  0  0
  152.3597  144.1949  161.5714 H   0  0  0  0  0  0  0  0  0  0  0  0
  151.0056  143.2044  161.0631 H   0  0  0  0  0  0  0  0  0  0  0  0
  145.6120  144.6661  157.9577 H   0  0  0  0  0  0  0  0  0  0  0  0
  1  2  1  0  0  0  0
  1 20  1  0  0  0  0
  1 21  1  0  0  0  0
  1 22  1  0  0  0  0
  2  3  2  0  0  0  0
  2  4  2  0  0  0  0
  2  5  1  0  0  0  0
  5 19  1  0  0  0  0
  5  6  2  0  0  0  0
  6  7  1  0  0  0  0
  6 23  1  0  0  0  0
  7  8  2  0  0  0  0
  7 24  1  0  0  0  0
  8  9  1  0  0  0  0
  8 18  1  0  0  0  0
  9 10  1  0  0  0  0
  9 25  1  0  0  0  0
 10 11  2  0  0  0  0
 10 12  1  0  0  0  0
 12 13  1  0  0  0  0
 12 26  1  0  0  0  0
 13 17  1  0  0  0  0
 13 14  1  0  0  0  0
 13 27  1  0  0  0  0
 14 15  1  0  0  0  0
 14 28  1  0  0  0  0
 14 29  1  0  0  0  0
 15 16  1  0  0  0  0
 15 30  1  0  0  0  0
 15 31  1  0  0  0  0
 16 17  1  0  0  0  0
 16 32  1  0  0  0  0
 16 33  1  0  0  0  0
 17 34  1  0  0  0  0
 17 35  1  0  0  0  0
 18 19  2  0  0  0  0
 18 36  1  0  0  0  0
M  END
> <s_m_source_file>
AV-unprocessed.smi

> <i_m_source_file_index>
1630

> <i_lp_mmshare_version>
43012

> <i_f3d_flags>
0

> <s_epik_input>
W0NIM11TKD1PKSg9TyljMVtjSF1bY0hdYyhbY0hdbjEpW05IXUMoPU8pW05IXVtDSF0yW0NIMl1bQ0gyXVtDSDJdW0NIMl0y

> <s_epik_cmdline>
J2VwaWtfcHl0aG9uJywgJy1waCcsICc3LjAnLCAnLXRuJywgJzgnLCAnLW1hJywgJzIwMCcsICctbWV0YWxfYmluZGluZycsICctaW1hZScsICc8aW5maWxlLm1hZT4nLCAnLW9tYWUnLCAnPG91dGZpbGUubWFlPic=

> <r_lp_tautomer_probability>
1

> <r_epik_Ionization_Penalty>
4.04514e-05

> <r_epik_Ionization_Penalty_Charging>
0

> <r_epik_Ionization_Penalty_Neutral>
4.04514e-05

> <r_epik_State_Penalty>
-0

> <r_epik_Charging_Adjusted_Penalty>
0

> <i_epik_Tot_Q>
0

> <i_epik_Tot_abs_Q>
0

> <r_epik_Metal_State_Penalty>
-0

> <b_epik_Metal_Only>
0

> <s_lp_Force_Field>
OPLS_2005

> <r_lp_Energy>
32.1208

> <b_lp_Chiralities_Consistent>
1

> <s_lp_Variant>
AV-unprocessed.smi:1630-1

> <Gold.Version>
5.8.1

> <Gold.Id.Protein>
6NUR|6NUR_protein|mol2

> <Gold.PLP.Fitness>
46.2013

> <Gold.PLP.PLP>
-39.0224

> <Gold.PLP.part.hbond>
-4.0004

> <Gold.PLP.part.metal>
0.0000

> <Gold.PLP.part.buried>
-6.5511

> <Gold.PLP.part.nonpolar>
-28.0397

> <Gold.PLP.part.repulsive>
0.6360

> <Gold.PLP.ligand.clash>
0.0000

> <Gold.PLP.ligand.torsion>
1.3897

> <Gold.PLP.Chemscore.Hbond>
1.7961

> <Gold.PLP.Chemscore.CHOScore>
0.8479

> <Gold.PLP.Chemscore.Metal>
0.0000

> <Gold.Chemscore.Hbonds>
donor molecule, donor type, donor heavy atom, donor atom, acceptor molecule, acceptor atom, score
      L1  H     9    25       P1  8029  1.00
      L1  H    12    26       P1  8029  0.15
      P1  H  6933  6944       L1    11  0.48
      L1  C    18    36       P1  8029  0.63

> <Gold.PLP.Chemscore.Internal.Correction>
2.0263

> <Gold.Rescore>
     Score         DG    S(hbond)    S(metal)    S(lipo)     H(rot)  DE(clash)    DE(int)     intcor
     16.84     -20.71       2.47        0.00      81.40       1.00       0.20       3.66       ----

> <Gold.Chemscore.Fitness>
16.8402

> <Gold.Chemscore.DG>
-20.7056

> <Gold.Chemscore.ZeroCoef>
-5.4800

> <Gold.Chemscore.Hbond>
2.4734

> <Gold.Chemscore.Metal>
0.0000

> <Gold.Chemscore.Lipo>
81.4043

> <Gold.Chemscore.Internal_Hbond>
0.0000

> <Gold.Chemscore.DEClash>
0.2016

> <Gold.Chemscore.DEInternal>
3.6639

> <Gold.Chemscore.Rot>
1.0000

> <Gold.Chemscore.Internal.Correction>
   9.000000E+99

> <Gold.Chemscore.Hbonds>
donor molecule, donor type, donor heavy atom, donor atom, acceptor molecule, acceptor atom, score
      L1  H     9    25       P1  8029  0.93
      L1  H    12    26       P1  8029  0.09
      P1  H  6933  6944       L1    11  0.46

> <Gold.Chemscore.Hbond.Weighted>
-8.2613

> <Gold.Chemscore.Metal.Weighted>
-0.0000

> <Gold.Chemscore.Lipo.Weighted>
-9.5243

> <Gold.Chemscore.Internal_Hbond.Weighted>
0.0000

> <Gold.Chemscore.DEClash.Weighted>
0.2016

> <Gold.Chemscore.DEInternal.Weighted>
3.6639

> <Gold.Chemscore.Rot.Weighted>
2.5600

> <Gold.Chemscore.Internal.Correction.Weighted>
   9.000000E+99

> <Gold.Protein.RotatedTorsions>
[ 6907 6896 6895 6894 ] final  -13.51 input  -60.11 | X-H torsion
[ 7974 7965 7964 7962 ] final -174.70 input  175.53 | X-H torsion
[ 8008 7997 7996 7995 ] final   -9.28 input   59.86 | X-H torsion
[ 10167 10162 10161 10158 ] final  148.24 input  -65.29 | X-H torsion
[ 10718 10713 10712 10709 ] final   20.97 input   66.30 | X-H torsion
[ 10763 10752 10751 10750 ] final  -53.98 input  -60.55 | X-H torsion
[ 11005 11000 10999 10996 ] final  -58.10 input  -57.11 | X-H torsion

> <Gold.Protein.ActiveResidues>
 VAL166  LYS551  ARG553  GLY616  TRP617  ASP618  TYR619  PRO620  LYS621  CYS622 
 ASP623  PHE694  ASN695  SER759  ASP760  ASP761  ALA762  ILE779  LEU786  VAL792 
 PHE793  MET794  SER795  GLU796  ALA797  LYS798  CYS799  TRP800  GLU811  SER814 

> <Gold.Protein.RotatedAtoms>
  151.3538  135.0890  159.9411 H   0  0  0  0  0  0  0  0  0  0  0  0  # atno 6907 bound_to 6896
  152.5180  133.9326  159.7598 H   0  0  0  0  0  0  0  0  0  0  0  0  # atno 6908 bound_to 6896
  150.9706  133.6294  159.2768 H   0  0  0  0  0  0  0  0  0  0  0  0  # atno 6909 bound_to 6896
  144.7131  140.1432  143.6390 H   0  0  0  0  0  0  0  0  0  0  0  0  # atno 7974 bound_to 7965
  154.5661  140.2359  155.8261 H   0  0  0  0  0  0  0  0  0  0  0  0  # atno 8008 bound_to 7997
  156.2069  140.3037  155.9606 H   0  0  0  0  0  0  0  0  0  0  0  0  # atno 8009 bound_to 7997
  155.2798  140.0422  157.3005 H   0  0  0  0  0  0  0  0  0  0  0  0  # atno 8010 bound_to 7997
  139.4878  144.5695  151.7082 H   0  0  0  0  0  0  0  0  0  0  0  0  # atno 10167 bound_to 10162
  157.1319  130.6594  149.5954 H   0  0  0  0  0  0  0  0  0  0  0  0  # atno 10718 bound_to 10713
  154.1675  135.6464  153.5001 H   0  0  0  0  0  0  0  0  0  0  0  0  # atno 10763 bound_to 10752
  153.0093  135.5375  154.6647 H   0  0  0  0  0  0  0  0  0  0  0  0  # atno 10764 bound_to 10752
  154.5977  135.2940  155.0540 H   0  0  0  0  0  0  0  0  0  0  0  0  # atno 10765 bound_to 10752
  141.1193  133.6611  156.4869 H   0  0  0  0  0  0  0  0  0  0  0  0  # atno 11005 bound_to 11000
  145.9183  139.2530  143.1396 LP  0  0  0  0  0  0  0  0  0  0  0  0  # atno 17320 bound_to 7965
  145.9646  140.8808  143.0193 LP  0  0  0  0  0  0  0  0  0  0  0  0  # atno 17321 bound_to 7965
  140.5279  144.0776  150.6044 LP  0  0  0  0  0  0  0  0  0  0  0  0  # atno 17342 bound_to 10162
  140.3757  143.2830  152.0228 LP  0  0  0  0  0  0  0  0  0  0  0  0  # atno 17343 bound_to 10162
  155.9806  130.4808  150.6782 LP  0  0  0  0  0  0  0  0  0  0  0  0  # atno 17370 bound_to 10713
  157.4385  131.0858  151.0968 LP  0  0  0  0  0  0  0  0  0  0  0  0  # atno 17371 bound_to 10713
  140.4554  134.6890  157.5060 LP  0  0  0  0  0  0  0  0  0  0  0  0  # atno 17394 bound_to 11000
  140.0138  134.6650  155.9341 LP  0  0  0  0  0  0  0  0  0  0  0  0  # atno 17395 bound_to 11000

$$$$
