AV-unprocessed.smi:1423|AV-procd|sdf|5797|dock4
  -GOLD-   22720 5443D 1   1.00000     0.00000
 Structure written by MMmdl.
 43 44  0  0  0  0  0  0  0  0  3 V2000
  153.4178  142.2276  161.5187 C   0  0  0  0  0  0  0  0  0  0  0  0
  153.3706  143.1752  160.4577 O   0  0  0  0  0  0  0  0  0  0  0  0
  152.5363  142.9205  159.3886 C   0  0  0  0  0  0  0  0  0  0  0  0
  152.3979  143.9062  158.3916 C   0  0  0  0  0  0  0  0  0  0  0  0
  151.5468  143.6559  157.2982 C   0  0  0  0  0  0  0  0  0  0  0  0
  150.8633  142.4177  157.2319 C   0  0  0  0  0  0  0  0  0  0  0  0
  149.9631  142.0455  156.1957 N   0  0  0  0  0  0  0  0  0  0  0  0
  149.5619  140.8174  155.8242 C   0  0  0  0  0  0  0  0  0  0  0  0
  149.8913  139.7628  156.3660 O   0  0  0  0  0  0  0  0  0  0  0  0
  148.7289  140.8775  154.7751 N   0  0  0  0  0  0  0  0  0  0  0  0
  148.1163  139.7244  154.1213 C   0  0  2  0  0  0  0  0  0  0  0  0
  147.5257  140.1207  152.7557 C   0  0  0  0  0  0  0  0  0  0  0  0
  146.7854  138.9403  152.1058 C   0  0  0  0  0  0  0  0  0  0  0  0
  145.7245  138.4133  153.0050 N   0  3  1  0  0  0  0  0  0  0  0  0
  144.8850  137.3647  152.3713 C   0  0  0  0  0  0  0  0  0  0  0  0
  143.6513  137.0633  153.2293 C   0  0  0  0  0  0  0  0  0  0  0  0
  142.8460  138.1363  153.3661 N   0  5  0  0  0  0  0  0  0  0  0  0
  143.4967  135.9382  153.6988 O   0  0  0  0  0  0  0  0  0  0  0  0
  146.2776  137.9855  154.3143 C   0  0  0  0  0  0  0  0  0  0  0  0
  147.0065  139.1453  155.0135 C   0  0  0  0  0  0  0  0  0  0  0  0
  151.0637  141.5029  158.2867 C   0  0  0  0  0  0  0  0  0  0  0  0
  151.8773  141.7367  159.3378 N   0  0  0  0  0  0  0  0  0  0  0  0
  154.1170  142.5733  162.2798 H   0  0  0  0  0  0  0  0  0  0  0  0
  153.7640  141.2538  161.1693 H   0  0  0  0  0  0  0  0  0  0  0  0
  152.4426  142.1120  161.9943 H   0  0  0  0  0  0  0  0  0  0  0  0
  152.9322  144.8419  158.4663 H   0  0  0  0  0  0  0  0  0  0  0  0
  151.4306  144.4221  156.5483 H   0  0  0  0  0  0  0  0  0  0  0  0
  149.5481  142.8160  155.6924 H   0  0  0  0  0  0  0  0  0  0  0  0
  148.5079  141.7867  154.3958 H   0  0  0  0  0  0  0  0  0  0  0  0
  148.8728  138.9513  153.9721 H   0  0  0  0  0  0  0  0  0  0  0  0
  146.8347  140.9564  152.8780 H   0  0  0  0  0  0  0  0  0  0  0  0
  148.3155  140.4680  152.0887 H   0  0  0  0  0  0  0  0  0  0  0  0
  146.3501  139.2697  151.1620 H   0  0  0  0  0  0  0  0  0  0  0  0
  147.4900  138.1426  151.8659 H   0  0  0  0  0  0  0  0  0  0  0  0
  144.5914  137.6680  151.3650 H   0  0  0  0  0  0  0  0  0  0  0  0
  145.4502  136.4372  152.2639 H   0  0  0  0  0  0  0  0  0  0  0  0
  143.0539  138.9807  152.8190 H   0  0  0  0  0  0  0  0  0  0  0  0
  145.4702  137.6326  154.9569 H   0  0  0  0  0  0  0  0  0  0  0  0
  146.9574  137.1447  154.1663 H   0  0  0  0  0  0  0  0  0  0  0  0
  147.4276  138.7989  155.9580 H   0  0  0  0  0  0  0  0  0  0  0  0
  146.2852  139.9251  155.2634 H   0  0  0  0  0  0  0  0  0  0  0  0
  150.5559  140.5492  158.2885 H   0  0  0  0  0  0  0  0  0  0  0  0
  145.0913  139.1775  153.1973 H   0  0  0  0  0  0  0  0  0  0  0  0
  1  2  1  0  0  0  0
  1 23  1  0  0  0  0
  1 24  1  0  0  0  0
  1 25  1  0  0  0  0
  2  3  1  0  0  0  0
  3 22  1  0  0  0  0
  3  4  2  0  0  0  0
  4  5  1  0  0  0  0
  4 26  1  0  0  0  0
  5  6  2  0  0  0  0
  5 27  1  0  0  0  0
  6  7  1  0  0  0  0
  6 21  1  0  0  0  0
  7  8  1  0  0  0  0
  7 28  1  0  0  0  0
  8  9  2  0  0  0  0
  8 10  1  0  0  0  0
 10 11  1  0  0  0  0
 10 29  1  0  0  0  0
 11 20  1  0  0  0  0
 11 12  1  0  0  0  0
 11 30  1  0  0  0  0
 12 13  1  0  0  0  0
 12 31  1  0  0  0  0
 12 32  1  0  0  0  0
 13 14  1  0  0  0  0
 13 33  1  0  0  0  0
 13 34  1  0  0  0  0
 14 15  1  0  0  0  0
 14 19  1  0  0  0  0
 14 43  1  0  0  0  0
 15 16  1  0  0  0  0
 15 35  1  0  0  0  0
 15 36  1  0  0  0  0
 16 17  1  0  0  0  0
 16 18  2  0  0  0  0
 17 37  1  0  0  0  0
 19 20  1  0  0  0  0
 19 38  1  0  0  0  0
 19 39  1  0  0  0  0
 20 40  1  0  0  0  0
 20 41  1  0  0  0  0
 21 22  2  0  0  0  0
 21 42  1  0  0  0  0
M  CHG  1  14   1
M  CHG  1  17  -1
M  END
> <s_m_source_file>
AV-unprocessed.smi

> <i_m_source_file_index>
1423

> <i_lp_mmshare_version>
43012

> <i_f3d_flags>
0

> <s_epik_input>
W0NIM11PYzFbY0hdW2NIXWMoW2NIXW4xKVtOSF1DKD1PKVtOSF1bQ0hdMltDSDJdW0NIMl1OKFtDSDJdW0NIMl0yKVtDSDJdQyg9TylbTkgyXQ==

> <s_epik_cmdline>
J2VwaWtfcHl0aG9uJywgJy1waCcsICc3LjAnLCAnLXRuJywgJzgnLCAnLW1hJywgJzIwMCcsICctbWV0YWxfYmluZGluZycsICctaW1hZScsICc8aW5maWxlLm1hZT4nLCAnLW9tYWUnLCAnPG91dGZpbGUubWFlPic=

> <r_lp_tautomer_probability>
1

> <r_epik_Ionization_Penalty>
5.72888

> <r_epik_Ionization_Penalty_Charging>
5.7288

> <r_epik_Ionization_Penalty_Neutral>
7.8452e-05

> <r_epik_State_Penalty>
6.54882

> <r_epik_Charging_Adjusted_Penalty>
12.2776

> <i_epik_Tot_Q>
0

> <i_epik_Tot_abs_Q>
2

> <r_epik_Metal_State_Penalty>
2.51301

> <b_epik_Metal_Only>
1

> <s_lp_Force_Field>
OPLS_2005

> <r_lp_Energy>
10.9641

> <b_lp_Chiralities_Consistent>
1

> <s_lp_Variant>
AV-unprocessed.smi:1423-4

> <Gold.Version>
5.8.1

> <Gold.Id.Protein>
6NUR|6NUR_protein|mol2

> <Gold.PLP.Fitness>
45.5633

> <Gold.PLP.PLP>
-34.2056

> <Gold.PLP.part.hbond>
-3.1263

> <Gold.PLP.part.metal>
0.0000

> <Gold.PLP.part.buried>
0.4409

> <Gold.PLP.part.nonpolar>
-31.9357

> <Gold.PLP.part.repulsive>
0.2521

> <Gold.PLP.ligand.clash>
0.0000

> <Gold.PLP.ligand.torsion>
0.3380

> <Gold.PLP.Chemscore.Hbond>
4.0000

> <Gold.PLP.Chemscore.CHOScore>
0.0000

> <Gold.PLP.Chemscore.Metal>
0.0000

> <Gold.Chemscore.Hbonds>
donor molecule, donor type, donor heavy atom, donor atom, acceptor molecule, acceptor atom, score
      L1  H     7    28       P1  8028  1.00
      L1  H    14    43       P1 10175  1.81
      L1  H    17    37       P1 10175  1.00

> <Gold.PLP.Chemscore.Internal.Correction>
0.0337

> <Gold.Rescore>
     Score         DG    S(hbond)    S(metal)    S(lipo)     H(rot)  DE(clash)    DE(int)     intcor
     14.78     -19.37       2.87        0.00      86.75       2.29       2.87       1.73       ----

> <Gold.Chemscore.Fitness>
14.7784

> <Gold.Chemscore.DG>
-19.3700

> <Gold.Chemscore.ZeroCoef>
-5.4800

> <Gold.Chemscore.Hbond>
2.8745

> <Gold.Chemscore.Metal>
0.0000

> <Gold.Chemscore.Lipo>
86.7527

> <Gold.Chemscore.Internal_Hbond>
0.0000

> <Gold.Chemscore.DEClash>
2.8651

> <Gold.Chemscore.DEInternal>
1.7264

> <Gold.Chemscore.Rot>
2.2894

> <Gold.Chemscore.Internal.Correction>
   9.000000E+99

> <Gold.Chemscore.Hbonds>
donor molecule, donor type, donor heavy atom, donor atom, acceptor molecule, acceptor atom, score
      L1  H     7    28       P1  8028  0.89
      L1  H    14    43       P1 10175  0.83
      L1  H    17    37       P1 10175  0.98

> <Gold.Chemscore.Hbond.Weighted>
-9.6007

> <Gold.Chemscore.Metal.Weighted>
-0.0000

> <Gold.Chemscore.Lipo.Weighted>
-10.1501

> <Gold.Chemscore.Internal_Hbond.Weighted>
0.0000

> <Gold.Chemscore.DEClash.Weighted>
2.8651

> <Gold.Chemscore.DEInternal.Weighted>
1.7264

> <Gold.Chemscore.Rot.Weighted>
5.8608

> <Gold.Chemscore.Internal.Correction.Weighted>
   9.000000E+99

> <Gold.Protein.RotatedTorsions>
[ 6907 6896 6895 6894 ] final  -97.97 input  -60.11 | X-H torsion
[ 7974 7965 7964 7962 ] final  156.40 input  175.53 | X-H torsion
[ 8008 7997 7996 7995 ] final  -44.50 input   59.86 | X-H torsion
[ 10167 10162 10161 10158 ] final -120.11 input  -65.29 | X-H torsion
[ 10718 10713 10712 10709 ] final  -30.68 input   66.30 | X-H torsion
[ 10763 10752 10751 10750 ] final -113.14 input  -60.55 | X-H torsion
[ 11005 11000 10999 10996 ] final -117.06 input  -57.11 | X-H torsion

> <Gold.Protein.ActiveResidues>
 VAL166  LYS551  ARG553  GLY616  TRP617  ASP618  TYR619  PRO620  LYS621  CYS622 
 ASP623  PHE694  ASN695  SER759  ASP760  ASP761  ALA762  ILE779  LEU786  VAL792 
 PHE793  MET794  SER795  GLU796  ALA797  LYS798  CYS799  TRP800  GLU811  SER814 

> <Gold.Protein.RotatedAtoms>
  150.7032  134.1267  159.4054 H   0  0  0  0  0  0  0  0  0  0  0  0  # atno 6907 bound_to 6896
  151.9253  135.0278  160.0534 H   0  0  0  0  0  0  0  0  0  0  0  0  # atno 6908 bound_to 6896
  152.2221  133.4957  159.5205 H   0  0  0  0  0  0  0  0  0  0  0  0  # atno 6909 bound_to 6896
  144.7966  139.7198  143.6199 H   0  0  0  0  0  0  0  0  0  0  0  0  # atno 7974 bound_to 7965
  154.3997  140.1420  156.3693 H   0  0  0  0  0  0  0  0  0  0  0  0  # atno 8008 bound_to 7997
  155.8107  140.3473  155.5435 H   0  0  0  0  0  0  0  0  0  0  0  0  # atno 8009 bound_to 7997
  155.8389  140.0923  157.1737 H   0  0  0  0  0  0  0  0  0  0  0  0  # atno 8010 bound_to 7997
  140.0394  143.5169  152.2137 H   0  0  0  0  0  0  0  0  0  0  0  0  # atno 10167 bound_to 10162
  156.3967  130.4383  149.7353 H   0  0  0  0  0  0  0  0  0  0  0  0  # atno 10718 bound_to 10713
  154.8382  135.4465  154.1302 H   0  0  0  0  0  0  0  0  0  0  0  0  # atno 10763 bound_to 10752
  153.2515  135.6927  153.7681 H   0  0  0  0  0  0  0  0  0  0  0  0  # atno 10764 bound_to 10752
  153.6991  135.3375  155.3196 H   0  0  0  0  0  0  0  0  0  0  0  0  # atno 10765 bound_to 10752
  141.0380  133.9879  157.3039 H   0  0  0  0  0  0  0  0  0  0  0  0  # atno 11005 bound_to 11000
  146.2235  139.5680  142.9602 LP  0  0  0  0  0  0  0  0  0  0  0  0  # atno 17320 bound_to 7965
  145.5659  141.0399  143.2201 LP  0  0  0  0  0  0  0  0  0  0  0  0  # atno 17321 bound_to 7965
  139.6024  144.7586  151.3141 LP  0  0  0  0  0  0  0  0  0  0  0  0  # atno 17342 bound_to 10162
  140.7267  143.6983  150.7865 LP  0  0  0  0  0  0  0  0  0  0  0  0  # atno 17343 bound_to 10162
  156.4385  130.7850  151.2870 LP  0  0  0  0  0  0  0  0  0  0  0  0  # atno 17370 bound_to 10713
  157.7502  131.0132  150.3415 LP  0  0  0  0  0  0  0  0  0  0  0  0  # atno 17371 bound_to 10713
  139.9255  135.0201  156.8218 LP  0  0  0  0  0  0  0  0  0  0  0  0  # atno 17394 bound_to 11000
  140.6286  133.9927  155.7651 LP  0  0  0  0  0  0  0  0  0  0  0  0  # atno 17395 bound_to 11000

$$$$
