AV-unprocessed.smi:1208|AV-procd|sdf|5062|dock3
  -GOLD-   22720 4103D 1   1.00000     0.00000
 Structure written by MMmdl.
 35 36  0  0  0  0  0  0  0  0  2 V2000
  151.5810  145.4153  159.3028 C   0  0  0  0  0  0  0  0  0  0  0  0
  151.6583  143.8823  159.3383 C   0  0  1  0  0  0  0  0  0  0  0  0
  151.7513  143.3811  157.9693 N   0  0  0  0  0  0  0  0  0  0  0  0
  151.0732  142.3390  157.4638 C   0  0  0  0  0  0  0  0  0  0  0  0
  150.2096  141.7201  158.0863 O   0  0  0  0  0  0  0  0  0  0  0  0
  151.4335  141.9330  156.0309 C   0  0  0  0  0  0  0  0  0  0  0  0
  150.6970  140.7310  155.6208 N   0  0  0  0  0  0  0  0  0  0  0  0
  149.2466  140.9083  155.6292 N   0  5  0  0  0  0  0  0  0  0  0  0
  148.4539  139.9047  155.1693 C   0  0  0  0  0  0  0  0  0  0  0  0
  147.2301  139.9970  155.1086 O   0  0  0  0  0  0  0  0  0  0  0  0
  149.0924  138.6720  154.7389 C   0  0  0  0  0  0  0  0  0  0  0  0
  150.4311  138.5225  154.7769 C   0  0  0  0  0  0  0  0  0  0  0  0
  151.3219  139.5820  155.2351 C   0  0  0  0  0  0  0  0  0  0  0  0
  152.5459  139.4550  155.2596 O   0  0  0  0  0  0  0  0  0  0  0  0
  152.8626  143.3871  160.1673 C   0  0  2  0  0  0  0  0  0  0  0  0
  152.9947  141.8660  160.2831 C   0  0  0  0  0  0  0  0  0  0  0  0
  153.8144  141.7264  161.5440 C   0  0  0  0  0  0  0  0  0  0  0  0
  153.2348  142.8374  162.4144 C   0  0  0  0  0  0  0  0  0  0  0  0
  152.7652  143.8405  161.5162 O   0  0  0  0  0  0  0  0  0  0  0  0
  151.4787  145.8274  160.3069 H   0  0  0  0  0  0  0  0  0  0  0  0
  150.7214  145.7515  158.7221 H   0  0  0  0  0  0  0  0  0  0  0  0
  152.4764  145.8485  158.8557 H   0  0  0  0  0  0  0  0  0  0  0  0
  150.7424  143.5162  159.8054 H   0  0  0  0  0  0  0  0  0  0  0  0
  152.4416  143.8169  157.3748 H   0  0  0  0  0  0  0  0  0  0  0  0
  151.2223  142.7689  155.3620 H   0  0  0  0  0  0  0  0  0  0  0  0
  152.5090  141.7627  155.9492 H   0  0  0  0  0  0  0  0  0  0  0  0
  148.4792  137.8568  154.3842 H   0  0  0  0  0  0  0  0  0  0  0  0
  150.8619  137.5880  154.4493 H   0  0  0  0  0  0  0  0  0  0  0  0
  153.7898  143.7863  159.7520 H   0  0  0  0  0  0  0  0  0  0  0  0
  152.0168  141.4022  160.4220 H   0  0  0  0  0  0  0  0  0  0  0  0
  153.4688  141.4104  159.4128 H   0  0  0  0  0  0  0  0  0  0  0  0
  153.7372  140.7398  162.0015 H   0  0  0  0  0  0  0  0  0  0  0  0
  154.8655  141.9238  161.3290 H   0  0  0  0  0  0  0  0  0  0  0  0
  152.3859  142.4673  162.9903 H   0  0  0  0  0  0  0  0  0  0  0  0
  153.9680  143.2404  163.1133 H   0  0  0  0  0  0  0  0  0  0  0  0
  1  2  1  0  0  0  0
  1 20  1  0  0  0  0
  1 21  1  0  0  0  0
  1 22  1  0  0  0  0
  2  3  1  0  0  0  0
  2 15  1  0  0  0  0
  2 23  1  0  0  0  0
  3  4  1  0  0  0  0
  3 24  1  0  0  0  0
  4  5  2  0  0  0  0
  4  6  1  0  0  0  0
  6 25  1  0  0  0  0
  6 26  1  0  0  0  0
  6  7  1  0  0  0  0
  7  8  1  0  0  0  0
  7 13  1  0  0  0  0
  8  9  1  0  0  0  0
  9 10  2  0  0  0  0
  9 11  1  0  0  0  0
 11 27  1  0  0  0  0
 11 12  2  0  0  0  0
 12 28  1  0  0  0  0
 12 13  1  0  0  0  0
 13 14  2  0  0  0  0
 15 19  1  0  0  0  0
 15 16  1  0  0  0  0
 15 29  1  0  0  0  0
 16 17  1  0  0  0  0
 16 30  1  0  0  0  0
 16 31  1  0  0  0  0
 17 18  1  0  0  0  0
 17 32  1  0  0  0  0
 17 33  1  0  0  0  0
 18 19  1  0  0  0  0
 18 34  1  0  0  0  0
 18 35  1  0  0  0  0
M  CHG  1   8  -1
M  END
> <s_m_source_file>
AV-unprocessed.smi

> <i_m_source_file_index>
1208

> <i_lp_mmshare_version>
43012

> <i_f3d_flags>
0

> <s_epik_input>
TzFbQ0gyXVtDSDJdW0NIMl1bQ0BIXTFbQ0BIXShbQ0gzXSlbTkhdQyg9TylbQ0gyXW4yW25IXWMoPU8pW2NIXVtjSF1jMj1P

> <s_epik_cmdline>
J2VwaWtfcHl0aG9uJywgJy1waCcsICc3LjAnLCAnLXRuJywgJzgnLCAnLW1hJywgJzIwMCcsICctbWV0YWxfYmluZGluZycsICctaW1hZScsICc8aW5maWxlLm1hZT4nLCAnLW9tYWUnLCAnPG91dGZpbGUubWFlPic=

> <r_lp_tautomer_probability>
1

> <r_epik_Ionization_Penalty>
0.0975494

> <r_epik_Ionization_Penalty_Charging>
0.0975494

> <r_epik_Ionization_Penalty_Neutral>
2.30132e-08

> <r_epik_State_Penalty>
0.034345

> <r_epik_Charging_Adjusted_Penalty>
0.131894

> <i_epik_Tot_Q>
-1

> <i_epik_Tot_abs_Q>
1

> <r_epik_Metal_State_Penalty>
0.034345

> <b_epik_Metal_Only>
0

> <s_lp_Force_Field>
OPLS_2005

> <r_lp_Energy>
33.0818

> <b_lp_Chiralities_Consistent>
1

> <s_lp_Variant>
AV-unprocessed.smi:1208-2

> <Gold.Version>
5.8.1

> <Gold.Id.Protein>
6NUR|6NUR_protein|mol2

> <Gold.PLP.Fitness>
41.5444

> <Gold.PLP.PLP>
-39.0370

> <Gold.PLP.part.hbond>
-1.8913

> <Gold.PLP.part.metal>
0.0000

> <Gold.PLP.part.buried>
-6.0819

> <Gold.PLP.part.nonpolar>
-31.4403

> <Gold.PLP.part.repulsive>
0.2848

> <Gold.PLP.ligand.clash>
0.0000

> <Gold.PLP.ligand.torsion>
0.2514

> <Gold.PLP.Chemscore.Hbond>
1.0000

> <Gold.PLP.Chemscore.CHOScore>
0.0000

> <Gold.PLP.Chemscore.Metal>
0.0000

> <Gold.Chemscore.Hbonds>
donor molecule, donor type, donor heavy atom, donor atom, acceptor molecule, acceptor atom, score
      P1  H  7997  8010       L1    14  0.68

> <Gold.PLP.Chemscore.Internal.Correction>
0.0101

> <Gold.Rescore>
     Score         DG    S(hbond)    S(metal)    S(lipo)     H(rot)  DE(clash)    DE(int)     intcor
     12.10     -13.52       1.00        0.00      83.79       1.99       0.08       1.34       ----

> <Gold.Chemscore.Fitness>
12.1003

> <Gold.Chemscore.DG>
-13.5178

> <Gold.Chemscore.ZeroCoef>
-5.4800

> <Gold.Chemscore.Hbond>
0.9997

> <Gold.Chemscore.Metal>
0.0000

> <Gold.Chemscore.Lipo>
83.7901

> <Gold.Chemscore.Internal_Hbond>
0.0000

> <Gold.Chemscore.DEClash>
0.0801

> <Gold.Chemscore.DEInternal>
1.3374

> <Gold.Chemscore.Rot>
1.9940

> <Gold.Chemscore.Internal.Correction>
   9.000000E+99

> <Gold.Chemscore.Hbonds>
donor molecule, donor type, donor heavy atom, donor atom, acceptor molecule, acceptor atom, score
      P1  H  7997  8010       L1    14  0.67

> <Gold.Chemscore.Hbond.Weighted>
-3.3391

> <Gold.Chemscore.Metal.Weighted>
-0.0000

> <Gold.Chemscore.Lipo.Weighted>
-9.8034

> <Gold.Chemscore.Internal_Hbond.Weighted>
0.0000

> <Gold.Chemscore.DEClash.Weighted>
0.0801

> <Gold.Chemscore.DEInternal.Weighted>
1.3374

> <Gold.Chemscore.Rot.Weighted>
5.1047

> <Gold.Chemscore.Internal.Correction.Weighted>
   9.000000E+99

> <Gold.Protein.RotatedTorsions>
[ 6907 6896 6895 6894 ] final   47.89 input  -60.11 | X-H torsion
[ 7974 7965 7964 7962 ] final  121.55 input  175.53 | X-H torsion
[ 8008 7997 7996 7995 ] final   81.58 input   59.86 | X-H torsion
[ 10167 10162 10161 10158 ] final  113.96 input  -65.29 | X-H torsion
[ 10718 10713 10712 10709 ] final  141.66 input   66.30 | X-H torsion
[ 10763 10752 10751 10750 ] final  131.36 input  -60.55 | X-H torsion
[ 11005 11000 10999 10996 ] final  -52.60 input  -57.11 | X-H torsion

> <Gold.Protein.ActiveResidues>
 VAL166  LYS551  ARG553  GLY616  TRP617  ASP618  TYR619  PRO620  LYS621  CYS622 
 ASP623  PHE694  ASN695  SER759  ASP760  ASP761  ALA762  ILE779  LEU786  VAL792 
 PHE793  MET794  SER795  GLU796  ALA797  LYS798  CYS799  TRP800  GLU811  SER814 

> <Gold.Protein.RotatedAtoms>
  152.2733  134.7909  160.0410 H   0  0  0  0  0  0  0  0  0  0  0  0  # atno 6907 bound_to 6896
  151.8514  133.3435  159.3682 H   0  0  0  0  0  0  0  0  0  0  0  0  # atno 6908 bound_to 6896
  150.7160  134.5223  159.5704 H   0  0  0  0  0  0  0  0  0  0  0  0  # atno 6909 bound_to 6896
  145.1180  139.3408  143.4729 H   0  0  0  0  0  0  0  0  0  0  0  0  # atno 7974 bound_to 7965
  155.8991  140.3434  155.6012 H   0  0  0  0  0  0  0  0  0  0  0  0  # atno 8008 bound_to 7997
  155.7522  140.0821  157.2215 H   0  0  0  0  0  0  0  0  0  0  0  0  # atno 8009 bound_to 7997
  154.4041  140.1551  156.2724 H   0  0  0  0  0  0  0  0  0  0  0  0  # atno 8010 bound_to 7997
  139.6423  144.7124  151.2212 H   0  0  0  0  0  0  0  0  0  0  0  0  # atno 10167 bound_to 10162
  157.3895  131.1003  151.0661 H   0  0  0  0  0  0  0  0  0  0  0  0  # atno 10718 bound_to 10713
  153.7731  135.3179  155.3355 H   0  0  0  0  0  0  0  0  0  0  0  0  # atno 10763 bound_to 10752
  154.8189  135.4617  154.0724 H   0  0  0  0  0  0  0  0  0  0  0  0  # atno 10764 bound_to 10752
  153.1990  135.6920  153.8340 H   0  0  0  0  0  0  0  0  0  0  0  0  # atno 10765 bound_to 10752
  141.0933  133.6629  156.4048 H   0  0  0  0  0  0  0  0  0  0  0  0  # atno 11005 bound_to 11000
  146.3523  140.1127  142.8603 LP  0  0  0  0  0  0  0  0  0  0  0  0  # atno 17320 bound_to 7965
  145.0773  140.9196  143.4846 LP  0  0  0  0  0  0  0  0  0  0  0  0  # atno 17321 bound_to 7965
  140.7497  143.6290  150.8441 LP  0  0  0  0  0  0  0  0  0  0  0  0  # atno 17342 bound_to 10162
  139.9929  143.5827  152.2904 LP  0  0  0  0  0  0  0  0  0  0  0  0  # atno 17343 bound_to 10162
  157.1700  130.6263  149.5637 LP  0  0  0  0  0  0  0  0  0  0  0  0  # atno 17370 bound_to 10713
  155.9795  130.4788  150.6717 LP  0  0  0  0  0  0  0  0  0  0  0  0  # atno 17371 bound_to 10713
  140.5201  134.6312  157.5315 LP  0  0  0  0  0  0  0  0  0  0  0  0  # atno 17394 bound_to 11000
  139.9763  134.7210  155.9943 LP  0  0  0  0  0  0  0  0  0  0  0  0  # atno 17395 bound_to 11000

$$$$
