AV-unprocessed.smi:2588|AV-procd|sdf|10148|dock3
  -GOLD-   2272014163D 1   1.00000     0.00000
 Structure written by MMmdl.
 40 41  0  0  0  0  0  0  0  0  2 V2000
  144.0607  135.7254  151.4917 C   0  0  0  0  0  0  0  0  0  0  0  0
  145.5909  135.5430  151.4039 C   0  0  0  0  0  0  0  0  0  0  0  0
  145.9609  134.2108  152.0907 C   0  0  0  0  0  0  0  0  0  0  0  0
  146.3373  136.7160  151.9684 N   0  3  2  0  0  0  0  0  0  0  0  0
  146.0667  136.9381  153.4198 C   0  0  0  0  0  0  0  0  0  0  0  0
  146.9162  138.0799  154.0022 C   0  0  0  0  0  0  0  0  0  0  0  0
  146.6907  139.3865  153.2336 C   0  0  1  0  0  0  0  0  0  0  0  0
  147.5490  140.4379  153.7710 N   0  0  0  0  0  0  0  0  0  0  0  0
  148.8388  140.2838  154.1082 C   0  0  0  0  0  0  0  0  0  0  0  0
  149.4340  139.2092  154.0161 O   0  0  0  0  0  0  0  0  0  0  0  0
  149.5460  141.5338  154.6498 C   0  0  0  0  0  0  0  0  0  0  0  0
  150.4001  141.2604  155.8068 N   0  0  0  0  0  0  0  0  0  0  0  0
  150.1643  141.9471  156.9570 N   0  0  0  0  0  0  0  0  0  0  0  0
  150.9823  141.6067  157.8831 C   0  0  0  0  0  0  0  0  0  0  0  0
  152.1767  140.3748  157.4550 S   0  0  0  0  0  0  0  0  0  0  0  0
  151.4499  140.3461  155.8248 C   0  0  0  0  0  0  0  0  0  0  0  0
  151.8501  139.6220  154.9149 O   0  0  0  0  0  0  0  0  0  0  0  0
  146.9838  139.1384  151.7470 C   0  0  0  0  0  0  0  0  0  0  0  0
  146.1379  137.9784  151.1962 C   0  0  0  0  0  0  0  0  0  0  0  0
  143.5395  134.8149  151.1941 H   0  0  0  0  0  0  0  0  0  0  0  0
  143.6944  136.5067  150.8271 H   0  0  0  0  0  0  0  0  0  0  0  0
  143.7462  135.9643  152.5083 H   0  0  0  0  0  0  0  0  0  0  0  0
  145.8559  135.4531  150.3491 H   0  0  0  0  0  0  0  0  0  0  0  0
  145.3130  133.4013  151.7528 H   0  0  0  0  0  0  0  0  0  0  0  0
  145.8605  134.2787  153.1745 H   0  0  0  0  0  0  0  0  0  0  0  0
  146.9773  133.8943  151.8585 H   0  0  0  0  0  0  0  0  0  0  0  0
  145.0059  137.1494  153.5644 H   0  0  0  0  0  0  0  0  0  0  0  0
  146.2943  136.0462  154.0002 H   0  0  0  0  0  0  0  0  0  0  0  0
  146.6687  138.2194  155.0554 H   0  0  0  0  0  0  0  0  0  0  0  0
  147.9709  137.8021  153.9666 H   0  0  0  0  0  0  0  0  0  0  0  0
  145.6462  139.6826  153.3520 H   0  0  0  0  0  0  0  0  0  0  0  0
  147.1371  141.3530  153.8843 H   0  0  0  0  0  0  0  0  0  0  0  0
  150.1544  141.9774  153.8600 H   0  0  0  0  0  0  0  0  0  0  0  0
  148.7888  142.2757  154.9081 H   0  0  0  0  0  0  0  0  0  0  0  0
  151.0071  142.0040  158.8977 H   0  0  0  0  0  0  0  0  0  0  0  0
  146.7825  140.0401  151.1674 H   0  0  0  0  0  0  0  0  0  0  0  0
  148.0427  138.9138  151.6091 H   0  0  0  0  0  0  0  0  0  0  0  0
  146.4267  137.8485  150.1549 H   0  0  0  0  0  0  0  0  0  0  0  0
  145.0805  138.2474  151.2047 H   0  0  0  0  0  0  0  0  0  0  0  0
  147.3190  136.4906  151.8913 H   0  0  0  0  0  0  0  0  0  0  0  0
  1  2  1  0  0  0  0
  1 20  1  0  0  0  0
  1 21  1  0  0  0  0
  1 22  1  0  0  0  0
  2  3  1  0  0  0  0
  2  4  1  0  0  0  0
  2 23  1  0  0  0  0
  3 24  1  0  0  0  0
  3 25  1  0  0  0  0
  3 26  1  0  0  0  0
  4 19  1  0  0  0  0
  4  5  1  0  0  0  0
  4 40  1  0  0  0  0
  5  6  1  0  0  0  0
  5 27  1  0  0  0  0
  5 28  1  0  0  0  0
  6  7  1  0  0  0  0
  6 29  1  0  0  0  0
  6 30  1  0  0  0  0
  7  8  1  0  0  0  0
  7 18  1  0  0  0  0
  7 31  1  0  0  0  0
  8  9  1  0  0  0  0
  8 32  1  0  0  0  0
  9 10  2  0  0  0  0
  9 11  1  0  0  0  0
 11 12  1  0  0  0  0
 11 33  1  0  0  0  0
 11 34  1  0  0  0  0
 12 16  1  0  0  0  0
 12 13  1  0  0  0  0
 13 14  2  0  0  0  0
 14 15  1  0  0  0  0
 14 35  1  0  0  0  0
 15 16  1  0  0  0  0
 16 17  2  0  0  0  0
 18 19  1  0  0  0  0
 18 36  1  0  0  0  0
 18 37  1  0  0  0  0
 19 38  1  0  0  0  0
 19 39  1  0  0  0  0
M  CHG  1   4   1
M  END
> <s_m_source_file>
AV-unprocessed.smi

> <i_m_source_file_index>
2588

> <i_lp_mmshare_version>
43012

> <i_f3d_flags>
0

> <s_epik_input>
W0NIM11bQ0hdKFtDSDNdKU4xW0NIMl1bQ0gyXVtDSF0oW0NIMl1bQ0gyXTEpW05IXUMoPU8pW0NIMl1uMm5bY0hdc2MyPU8=

> <s_epik_cmdline>
J2VwaWtfcHl0aG9uJywgJy1waCcsICc3LjAnLCAnLXRuJywgJzgnLCAnLW1hJywgJzIwMCcsICctbWV0YWxfYmluZGluZycsICctaW1hZScsICc8aW5maWxlLm1hZT4nLCAnLW9tYWUnLCAnPG91dGZpbGUubWFlPic=

> <r_lp_tautomer_probability>
1

> <r_epik_Ionization_Penalty>
0.00923155

> <r_epik_Ionization_Penalty_Charging>
0.00923117

> <r_epik_Ionization_Penalty_Neutral>
3.88423e-07

> <r_epik_State_Penalty>
0.0069994

> <r_epik_Charging_Adjusted_Penalty>
0.0162306

> <i_epik_Tot_Q>
1

> <i_epik_Tot_abs_Q>
1

> <r_epik_Metal_State_Penalty>
0.0069994

> <b_epik_Metal_Only>
0

> <s_lp_Force_Field>
OPLS_2005

> <r_lp_Energy>
22.17

> <b_lp_Chiralities_Consistent>
1

> <s_lp_Variant>
AV-unprocessed.smi:2588-1

> <Gold.Version>
5.8.1

> <Gold.Id.Protein>
6NUR|6NUR_protein|mol2

> <Gold.PLP.Fitness>
39.6017

> <Gold.PLP.PLP>
-31.5651

> <Gold.PLP.part.hbond>
-2.0000

> <Gold.PLP.part.metal>
0.0000

> <Gold.PLP.part.buried>
2.4538

> <Gold.PLP.part.nonpolar>
-32.6939

> <Gold.PLP.part.repulsive>
1.1780

> <Gold.PLP.ligand.clash>
0.0000

> <Gold.PLP.ligand.torsion>
0.5073

> <Gold.PLP.Chemscore.Hbond>
3.0000

> <Gold.PLP.Chemscore.CHOScore>
0.0000

> <Gold.PLP.Chemscore.Metal>
0.0000

> <Gold.Chemscore.Hbonds>
donor molecule, donor type, donor heavy atom, donor atom, acceptor molecule, acceptor atom, score
      L1  H     4    40       P1  7948  2.00
      P1  H  7989  7998       L1    17  0.90

> <Gold.PLP.Chemscore.Internal.Correction>
0.0513

> <Gold.Rescore>
     Score         DG    S(hbond)    S(metal)    S(lipo)     H(rot)  DE(clash)    DE(int)     intcor
      9.34     -14.01       1.85        0.00      61.24       1.88       1.72       2.95       ----

> <Gold.Chemscore.Fitness>
9.3396

> <Gold.Chemscore.DG>
-14.0102

> <Gold.Chemscore.ZeroCoef>
-5.4800

> <Gold.Chemscore.Hbond>
1.8461

> <Gold.Chemscore.Metal>
0.0000

> <Gold.Chemscore.Lipo>
61.2447

> <Gold.Chemscore.Internal_Hbond>
0.0000

> <Gold.Chemscore.DEClash>
1.7203

> <Gold.Chemscore.DEInternal>
2.9503

> <Gold.Chemscore.Rot>
1.8756

> <Gold.Chemscore.Internal.Correction>
   9.000000E+99

> <Gold.Chemscore.Hbonds>
donor molecule, donor type, donor heavy atom, donor atom, acceptor molecule, acceptor atom, score
      L1  H     4    40       P1  7948  1.00
      P1  H  7989  7998       L1    17  0.17

> <Gold.Chemscore.Hbond.Weighted>
-6.1661

> <Gold.Chemscore.Metal.Weighted>
-0.0000

> <Gold.Chemscore.Lipo.Weighted>
-7.1656

> <Gold.Chemscore.Internal_Hbond.Weighted>
0.0000

> <Gold.Chemscore.DEClash.Weighted>
1.7203

> <Gold.Chemscore.DEInternal.Weighted>
2.9503

> <Gold.Chemscore.Rot.Weighted>
4.8015

> <Gold.Chemscore.Internal.Correction.Weighted>
   9.000000E+99

> <Gold.Protein.RotatedTorsions>
[ 6907 6896 6895 6894 ] final -117.65 input  -60.11 | X-H torsion
[ 7974 7965 7964 7962 ] final -146.70 input  175.53 | X-H torsion
[ 8008 7997 7996 7995 ] final -150.52 input   59.86 | X-H torsion
[ 10167 10162 10161 10158 ] final  -45.35 input  -65.29 | X-H torsion
[ 10718 10713 10712 10709 ] final  -25.21 input   66.30 | X-H torsion
[ 10763 10752 10751 10750 ] final    8.35 input  -60.55 | X-H torsion
[ 11005 11000 10999 10996 ] final  114.87 input  -57.11 | X-H torsion

> <Gold.Protein.ActiveResidues>
 VAL166  LYS551  ARG553  GLY616  TRP617  ASP618  TYR619  PRO620  LYS621  CYS622 
 ASP623  PHE694  ASN695  SER759  ASP760  ASP761  ALA762  ILE779  LEU786  VAL792 
 PHE793  MET794  SER795  GLU796  ALA797  LYS798  CYS799  TRP800  GLU811  SER814 

> <Gold.Protein.RotatedAtoms>
  150.8154  133.8347  159.3162 H   0  0  0  0  0  0  0  0  0  0  0  0  # atno 6907 bound_to 6896
  151.6121  135.1037  160.0093 H   0  0  0  0  0  0  0  0  0  0  0  0  # atno 6908 bound_to 6896
  152.4245  133.7131  159.6547 H   0  0  0  0  0  0  0  0  0  0  0  0  # atno 6909 bound_to 6896
  144.8142  140.5422  143.5622 H   0  0  0  0  0  0  0  0  0  0  0  0  # atno 7974 bound_to 7965
  155.6248  140.0685  157.2667 H   0  0  0  0  0  0  0  0  0  0  0  0  # atno 8008 bound_to 7997
  154.4220  140.1778  156.1458 H   0  0  0  0  0  0  0  0  0  0  0  0  # atno 8009 bound_to 7997
  155.9980  140.3339  155.6821 H   0  0  0  0  0  0  0  0  0  0  0  0  # atno 8010 bound_to 7997
  140.6861  143.2884  151.3626 H   0  0  0  0  0  0  0  0  0  0  0  0  # atno 10167 bound_to 10162
  156.4674  130.4517  149.6890 H   0  0  0  0  0  0  0  0  0  0  0  0  # atno 10718 bound_to 10713
  153.2260  135.6887  153.7944 H   0  0  0  0  0  0  0  0  0  0  0  0  # atno 10763 bound_to 10752
  153.7126  135.3280  155.3250 H   0  0  0  0  0  0  0  0  0  0  0  0  # atno 10764 bound_to 10752
  154.8292  135.4594  154.1127 H   0  0  0  0  0  0  0  0  0  0  0  0  # atno 10765 bound_to 10752
  139.8993  134.9575  156.6957 H   0  0  0  0  0  0  0  0  0  0  0  0  # atno 11005 bound_to 11000
  145.5254  139.1476  143.3529 LP  0  0  0  0  0  0  0  0  0  0  0  0  # atno 17320 bound_to 7965
  146.2443  140.5395  142.8920 LP  0  0  0  0  0  0  0  0  0  0  0  0  # atno 17321 bound_to 7965
  139.6222  144.0885  152.2401 LP  0  0  0  0  0  0  0  0  0  0  0  0  # atno 17342 bound_to 10162
  140.0333  144.6064  150.7470 LP  0  0  0  0  0  0  0  0  0  0  0  0  # atno 17343 bound_to 10162
  156.3653  130.7503  151.2480 LP  0  0  0  0  0  0  0  0  0  0  0  0  # atno 17370 bound_to 10713
  157.7494  131.0338  150.4290 LP  0  0  0  0  0  0  0  0  0  0  0  0  # atno 17371 bound_to 10713
  140.7189  133.9158  155.8134 LP  0  0  0  0  0  0  0  0  0  0  0  0  # atno 17394 bound_to 11000
  141.0242  134.0846  157.4086 LP  0  0  0  0  0  0  0  0  0  0  0  0  # atno 17395 bound_to 11000

$$$$
