AV-unprocessed.smi:672|AV-procd|sdf|3295|dock3
  -GOLD-   22720 0253D 1   1.00000     0.00000
 Structure written by MMmdl.
 35 36  0  0  0  0  0  0  0  0  2 V2000
  145.6277  134.7422  162.4570 C   0  0  0  0  0  0  0  0  0  0  0  0
  145.8923  136.2095  162.1035 C   0  0  0  0  0  0  0  0  0  0  0  0
  146.9951  136.3697  161.1112 C   0  0  0  0  0  0  0  0  0  0  0  0
  147.3361  137.5511  160.5896 N   0  0  0  0  0  0  0  0  0  0  0  0
  148.3697  137.4383  159.6714 N   0  0  0  0  0  0  0  0  0  0  0  0
  148.7752  136.1734  159.4893 C   0  0  0  0  0  0  0  0  0  0  0  0
  149.7618  135.8457  158.6388 N   0  5  0  0  0  0  0  0  0  0  0  0
  150.3940  136.8123  157.9348 C   0  0  0  0  0  0  0  0  0  0  0  0
  150.1492  137.1491  156.7739 O   0  0  0  0  0  0  0  0  0  0  0  0
  151.3738  137.4233  158.6159 N   0  0  0  0  0  0  0  0  0  0  0  0
  152.2171  138.5072  158.1159 C   0  0  2  0  0  0  0  0  0  0  0  0
  153.2203  138.9918  159.1829 C   0  0  0  0  0  0  0  0  0  0  0  0
  152.7468  140.3823  159.6057 C   0  0  0  0  0  0  0  0  0  0  0  0
  152.0803  140.9456  158.3534 C   0  0  2  0  0  0  0  0  0  0  0  0
  150.9652  142.3310  158.7228 S   0  0  0  0  0  0  0  0  0  0  0  0
  152.1592  143.5522  159.3286 C   0  0  0  0  0  0  0  0  0  0  0  0
  151.3650  139.7356  157.7435 C   0  0  0  0  0  0  0  0  0  0  0  0
  147.9054  135.0061  160.4836 S   0  0  0  0  0  0  0  0  0  0  0  0
  144.8189  134.6568  163.1827 H   0  0  0  0  0  0  0  0  0  0  0  0
  146.5140  134.2767  162.8892 H   0  0  0  0  0  0  0  0  0  0  0  0
  145.3456  134.1690  161.5734 H   0  0  0  0  0  0  0  0  0  0  0  0
  144.9865  136.6646  161.7012 H   0  0  0  0  0  0  0  0  0  0  0  0
  146.1492  136.7686  163.0036 H   0  0  0  0  0  0  0  0  0  0  0  0
  151.5423  137.1134  159.5616 H   0  0  0  0  0  0  0  0  0  0  0  0
  152.7619  138.1645  157.2343 H   0  0  0  0  0  0  0  0  0  0  0  0
  153.3106  138.3173  160.0353 H   0  0  0  0  0  0  0  0  0  0  0  0
  154.2107  139.0697  158.7325 H   0  0  0  0  0  0  0  0  0  0  0  0
  152.0148  140.2872  160.4093 H   0  0  0  0  0  0  0  0  0  0  0  0
  153.5614  141.0099  159.9681 H   0  0  0  0  0  0  0  0  0  0  0  0
  152.8564  141.2899  157.6683 H   0  0  0  0  0  0  0  0  0  0  0  0
  151.6405  144.4563  159.6470 H   0  0  0  0  0  0  0  0  0  0  0  0
  152.8659  143.8205  158.5435 H   0  0  0  0  0  0  0  0  0  0  0  0
  152.7147  143.1544  160.1778 H   0  0  0  0  0  0  0  0  0  0  0  0
  151.2421  139.8345  156.6645 H   0  0  0  0  0  0  0  0  0  0  0  0
  150.3656  139.6496  158.1739 H   0  0  0  0  0  0  0  0  0  0  0  0
  1  2  1  0  0  0  0
  1 19  1  0  0  0  0
  1 20  1  0  0  0  0
  1 21  1  0  0  0  0
  2  3  1  0  0  0  0
  2 22  1  0  0  0  0
  2 23  1  0  0  0  0
  3 18  1  0  0  0  0
  3  4  2  0  0  0  0
  4  5  1  0  0  0  0
  5  6  2  0  0  0  0
  6  7  1  0  0  0  0
  6 18  1  0  0  0  0
  7  8  1  0  0  0  0
  8  9  2  0  0  0  0
  8 10  1  0  0  0  0
 10 11  1  0  0  0  0
 10 24  1  0  0  0  0
 11 17  1  0  0  0  0
 11 12  1  0  0  0  0
 11 25  1  0  0  0  0
 12 13  1  0  0  0  0
 12 26  1  0  0  0  0
 12 27  1  0  0  0  0
 13 14  1  0  0  0  0
 13 28  1  0  0  0  0
 13 29  1  0  0  0  0
 14 15  1  0  0  0  0
 14 17  1  0  0  0  0
 14 30  1  0  0  0  0
 15 16  1  0  0  0  0
 16 31  1  0  0  0  0
 16 32  1  0  0  0  0
 16 33  1  0  0  0  0
 17 34  1  0  0  0  0
 17 35  1  0  0  0  0
M  CHG  1   7  -1
M  END
> <s_m_source_file>
AV-unprocessed.smi

> <i_m_source_file_index>
672

> <i_lp_mmshare_version>
43012

> <i_f3d_flags>
0

> <s_epik_input>
W0NIM11bQ0gyXWMxbm5jKHMxKVtOSF1DKD1PKVtOSF1bQ0BASF0yW0NIMl1bQ0gyXVtDQEhdKFtDSDJdMilTW0NIM10=

> <s_epik_cmdline>
J2VwaWtfcHl0aG9uJywgJy1waCcsICc3LjAnLCAnLXRuJywgJzgnLCAnLW1hJywgJzIwMCcsICctbWV0YWxfYmluZGluZycsICctaW1hZScsICc8aW5maWxlLm1hZT4nLCAnLW9tYWUnLCAnPG91dGZpbGUubWFlPic=

> <r_lp_tautomer_probability>
1

> <r_epik_Ionization_Penalty>
4.49964

> <r_epik_Ionization_Penalty_Charging>
4.32991

> <r_epik_Ionization_Penalty_Neutral>
0.169727

> <r_epik_State_Penalty>
4.32952

> <r_epik_Charging_Adjusted_Penalty>
8.65943

> <i_epik_Tot_Q>
-1

> <i_epik_Tot_abs_Q>
1

> <r_epik_Metal_State_Penalty>
0.740482

> <b_epik_Metal_Only>
1

> <s_lp_Force_Field>
OPLS_2005

> <r_lp_Energy>
9.98036

> <b_lp_Chiralities_Consistent>
1

> <s_lp_Variant>
AV-unprocessed.smi:672-7

> <Gold.Version>
5.8.1

> <Gold.Id.Protein>
6NUR|6NUR_protein|mol2

> <Gold.PLP.Fitness>
36.8074

> <Gold.PLP.PLP>
-29.1235

> <Gold.PLP.part.hbond>
-4.8459

> <Gold.PLP.part.metal>
0.0000

> <Gold.PLP.part.buried>
-3.2102

> <Gold.PLP.part.nonpolar>
-21.8368

> <Gold.PLP.part.repulsive>
0.1147

> <Gold.PLP.ligand.clash>
0.0000

> <Gold.PLP.ligand.torsion>
0.7618

> <Gold.PLP.Chemscore.Hbond>
3.0554

> <Gold.PLP.Chemscore.CHOScore>
0.0000

> <Gold.PLP.Chemscore.Metal>
0.0000

> <Gold.Chemscore.Hbonds>
donor molecule, donor type, donor heavy atom, donor atom, acceptor molecule, acceptor atom, score
      P1  H  6896  6909       L1     7  1.98
      P1  H  6931  6943       L1     4  0.01
      P1  H  6934  6947       L1     4  0.96

> <Gold.PLP.Chemscore.Internal.Correction>
0.0413

> <Gold.Rescore>
     Score         DG    S(hbond)    S(metal)    S(lipo)     H(rot)  DE(clash)    DE(int)     intcor
     14.79     -15.69       1.55        0.00      72.26       1.34       0.00       0.90       ----

> <Gold.Chemscore.Fitness>
14.7852

> <Gold.Chemscore.DG>
-15.6861

> <Gold.Chemscore.ZeroCoef>
-5.4800

> <Gold.Chemscore.Hbond>
1.5521

> <Gold.Chemscore.Metal>
0.0000

> <Gold.Chemscore.Lipo>
72.2647

> <Gold.Chemscore.Internal_Hbond>
0.0000

> <Gold.Chemscore.DEClash>
0.0000

> <Gold.Chemscore.DEInternal>
0.9010

> <Gold.Chemscore.Rot>
1.3410

> <Gold.Chemscore.Internal.Correction>
   9.000000E+99

> <Gold.Chemscore.Hbonds>
donor molecule, donor type, donor heavy atom, donor atom, acceptor molecule, acceptor atom, score
      P1  H  6896  6909       L1     7  0.42
      P1  H  6934  6947       L1     4  0.54

> <Gold.Chemscore.Hbond.Weighted>
-5.1841

> <Gold.Chemscore.Metal.Weighted>
-0.0000

> <Gold.Chemscore.Lipo.Weighted>
-8.4550

> <Gold.Chemscore.Internal_Hbond.Weighted>
0.0000

> <Gold.Chemscore.DEClash.Weighted>
0.0000

> <Gold.Chemscore.DEInternal.Weighted>
0.9010

> <Gold.Chemscore.Rot.Weighted>
3.4329

> <Gold.Chemscore.Internal.Correction.Weighted>
   9.000000E+99

> <Gold.Protein.RotatedTorsions>
[ 6907 6896 6895 6894 ] final   42.57 input  -60.11 | X-H torsion
[ 7974 7965 7964 7962 ] final  -52.86 input  175.53 | X-H torsion
[ 8008 7997 7996 7995 ] final  131.78 input   59.86 | X-H torsion
[ 10167 10162 10161 10158 ] final  -71.92 input  -65.29 | X-H torsion
[ 10718 10713 10712 10709 ] final  173.99 input   66.30 | X-H torsion
[ 10763 10752 10751 10750 ] final  -49.99 input  -60.55 | X-H torsion
[ 11005 11000 10999 10996 ] final   41.19 input  -57.11 | X-H torsion

> <Gold.Protein.ActiveResidues>
 VAL166  LYS551  ARG553  GLY616  TRP617  ASP618  TYR619  PRO620  LYS621  CYS622 
 ASP623  PHE694  ASN695  SER759  ASP760  ASP761  ALA762  ILE779  LEU786  VAL792 
 PHE793  MET794  SER795  GLU796  ALA797  LYS798  CYS799  TRP800  GLU811  SER814 

> <Gold.Protein.RotatedAtoms>
  152.2095  134.8515  160.0498 H   0  0  0  0  0  0  0  0  0  0  0  0  # atno 6907 bound_to 6896
  151.9339  133.3613  159.3949 H   0  0  0  0  0  0  0  0  0  0  0  0  # atno 6908 bound_to 6896
  150.6973  134.4434  159.5347 H   0  0  0  0  0  0  0  0  0  0  0  0  # atno 6909 bound_to 6896
  145.9033  140.7976  142.9732 H   0  0  0  0  0  0  0  0  0  0  0  0  # atno 7974 bound_to 7965
  156.2974  140.2563  156.2981 H   0  0  0  0  0  0  0  0  0  0  0  0  # atno 8008 bound_to 7997
  154.9444  140.0395  157.2131 H   0  0  0  0  0  0  0  0  0  0  0  0  # atno 8009 bound_to 7997
  154.8096  140.2842  155.5867 H   0  0  0  0  0  0  0  0  0  0  0  0  # atno 8010 bound_to 7997
  140.5234  143.2329  151.7390 H   0  0  0  0  0  0  0  0  0  0  0  0  # atno 10167 bound_to 10162
  156.9562  131.0046  151.2938 H   0  0  0  0  0  0  0  0  0  0  0  0  # atno 10718 bound_to 10713
  154.1031  135.6560  153.4871 H   0  0  0  0  0  0  0  0  0  0  0  0  # atno 10763 bound_to 10752
  153.0282  135.5230  154.7267 H   0  0  0  0  0  0  0  0  0  0  0  0  # atno 10764 bound_to 10752
  154.6424  135.2990  155.0056 H   0  0  0  0  0  0  0  0  0  0  0  0  # atno 10765 bound_to 10752
  140.1858  134.4047  155.8174 H   0  0  0  0  0  0  0  0  0  0  0  0  # atno 11005 bound_to 11000
  144.6737  140.1711  143.7414 LP  0  0  0  0  0  0  0  0  0  0  0  0  # atno 17320 bound_to 7965
  145.8763  139.2299  143.1631 LP  0  0  0  0  0  0  0  0  0  0  0  0  # atno 17321 bound_to 7965
  139.4930  144.4222  151.9965 LP  0  0  0  0  0  0  0  0  0  0  0  0  # atno 17342 bound_to 10162
  140.3319  144.3306  150.5985 LP  0  0  0  0  0  0  0  0  0  0  0  0  # atno 17343 bound_to 10162
  157.5689  130.8296  149.8364 LP  0  0  0  0  0  0  0  0  0  0  0  0  # atno 17370 bound_to 10713
  156.0341  130.3756  150.1606 LP  0  0  0  0  0  0  0  0  0  0  0  0  # atno 17371 bound_to 10713
  141.2225  133.7022  156.8010 LP  0  0  0  0  0  0  0  0  0  0  0  0  # atno 17394 bound_to 11000
  140.2215  134.8753  157.3382 LP  0  0  0  0  0  0  0  0  0  0  0  0  # atno 17395 bound_to 11000

$$$$
