AV-unprocessed.smi:283|AV-procd|sdf|2154|dock2
  -GOLD-   2262021493D 1   1.00000     0.00000
 Structure written by MMmdl.
 48 51  0  0  0  0  0  0  0  0  1 V2000
  150.5294  141.1116  155.7333 C   0  0  0  0  0  0  0  0  0  0  0  0
  150.6333  140.7461  157.2202 C   0  0  1  0  0  0  0  0  0  0  0  0
  151.1763  139.3964  157.3584 N   0  0  0  0  0  0  0  0  0  0  0  0
  150.7671  138.3901  156.5541 C   0  0  0  0  0  0  0  0  0  0  0  0
  151.4404  138.2680  155.3857 N   0  0  0  0  0  0  0  0  0  0  0  0
  151.1259  137.2928  154.5293 C   0  0  0  0  0  0  0  0  0  0  0  0
  150.1870  136.3531  154.6455 N   0  0  0  0  0  0  0  0  0  0  0  0
  149.4920  136.4747  155.8132 C   0  0  0  0  0  0  0  0  0  0  0  0
  149.7131  137.4645  156.8143 C   0  0  0  0  0  0  0  0  0  0  0  0
  148.7999  137.2826  157.8463 N   0  0  0  0  0  0  0  0  0  0  0  0
  148.1002  136.2436  157.4834 C   0  0  0  0  0  0  0  0  0  0  0  0
  148.4476  135.6939  156.2712 N   0  0  0  0  0  0  0  0  0  0  0  0
  147.8213  134.5042  155.6067 C   0  0  2  0  0  0  0  0  0  0  0  0
  148.8233  133.6276  155.1806 O   0  0  0  0  0  0  0  0  0  0  0  0
  148.7332  133.4110  153.7733 C   0  0  1  0  0  0  0  0  0  0  0  0
  149.2048  131.9835  153.4535 C   0  0  0  0  0  0  0  0  0  0  0  0
  148.4860  131.4530  152.3604 O   0  0  0  0  0  0  0  0  0  0  0  0
  147.2611  133.6948  153.4613 C   0  0  2  0  0  0  0  0  0  0  0  0
  147.0117  133.9911  152.1005 O   0  0  0  0  0  0  0  0  0  0  0  0
  146.9593  134.8684  154.3824 C   0  0  2  0  0  0  0  0  0  0  0  0
  147.2947  136.1201  153.8020 O   0  0  0  0  0  0  0  0  0  0  0  0
  151.4051  141.8285  157.9810 C   0  0  0  0  0  0  0  0  0  0  0  0
  151.0591  143.1902  157.8155 C   0  0  0  0  0  0  0  0  0  0  0  0
  151.7603  144.1987  158.5024 C   0  0  0  0  0  0  0  0  0  0  0  0
  152.8122  143.8563  159.3705 C   0  0  0  0  0  0  0  0  0  0  0  0
  153.1553  142.5044  159.5556 C   0  0  0  0  0  0  0  0  0  0  0  0
  152.4557  141.4902  158.8712 C   0  0  0  0  0  0  0  0  0  0  0  0
  152.9109  139.8455  159.1512 Cl  0  0  0  0  0  0  0  0  0  0  0  0
  147.2459  134.0187  156.3960 H   0  0  0  0  0  0  0  0  0  0  0  0
  149.3732  134.1432  153.2781 H   0  0  0  0  0  0  0  0  0  0  0  0
  146.6512  132.8394  153.7564 H   0  0  0  0  0  0  0  0  0  0  0  0
  145.9083  134.8966  154.6713 H   0  0  0  0  0  0  0  0  0  0  0  0
  150.0457  142.0798  155.6005 H   0  0  0  0  0  0  0  0  0  0  0  0
  149.9409  140.3741  155.1869 H   0  0  0  0  0  0  0  0  0  0  0  0
  151.5139  141.1648  155.2672 H   0  0  0  0  0  0  0  0  0  0  0  0
  149.6152  140.7004  157.6027 H   0  0  0  0  0  0  0  0  0  0  0  0
  151.6344  139.2172  158.2402 H   0  0  0  0  0  0  0  0  0  0  0  0
  151.7113  137.2587  153.6223 H   0  0  0  0  0  0  0  0  0  0  0  0
  147.3025  135.8487  158.0955 H   0  0  0  0  0  0  0  0  0  0  0  0
  150.2622  131.9927  153.1879 H   0  0  0  0  0  0  0  0  0  0  0  0
  149.0963  131.3296  154.3192 H   0  0  0  0  0  0  0  0  0  0  0  0
  149.0797  131.3471  151.6328 H   0  0  0  0  0  0  0  0  0  0  0  0
  147.7133  134.5405  151.7850 H   0  0  0  0  0  0  0  0  0  0  0  0
  147.8083  135.9614  153.0248 H   0  0  0  0  0  0  0  0  0  0  0  0
  150.2520  143.4717  157.1551 H   0  0  0  0  0  0  0  0  0  0  0  0
  151.4902  145.2351  158.3626 H   0  0  0  0  0  0  0  0  0  0  0  0
  153.3522  144.6287  159.8981 H   0  0  0  0  0  0  0  0  0  0  0  0
  153.9590  142.2447  160.2288 H   0  0  0  0  0  0  0  0  0  0  0  0
  1  2  1  0  0  0  0
  1 33  1  0  0  0  0
  1 34  1  0  0  0  0
  1 35  1  0  0  0  0
  2  3  1  0  0  0  0
  2 22  1  0  0  0  0
  2 36  1  0  0  0  0
  3  4  1  0  0  0  0
  3 37  1  0  0  0  0
  4  9  1  0  0  0  0
  4  5  2  0  0  0  0
  5  6  1  0  0  0  0
  6  7  2  0  0  0  0
  6 38  1  0  0  0  0
  7  8  1  0  0  0  0
  8 12  1  0  0  0  0
  8  9  2  0  0  0  0
  9 10  1  0  0  0  0
 10 11  2  0  0  0  0
 11 12  1  0  0  0  0
 11 39  1  0  0  0  0
 12 13  1  0  0  0  0
 13 29  1  0  0  0  0
 13 20  1  0  0  0  0
 13 14  1  0  0  0  0
 14 15  1  0  0  0  0
 15 30  1  0  0  0  0
 15 16  1  0  0  0  0
 15 18  1  0  0  0  0
 16 17  1  0  0  0  0
 16 40  1  0  0  0  0
 16 41  1  0  0  0  0
 17 42  1  0  0  0  0
 18 31  1  0  0  0  0
 18 19  1  0  0  0  0
 18 20  1  0  0  0  0
 19 43  1  0  0  0  0
 20 32  1  0  0  0  0
 20 21  1  0  0  0  0
 21 44  1  0  0  0  0
 22 27  1  0  0  0  0
 22 23  2  0  0  0  0
 23 24  1  0  0  0  0
 23 45  1  0  0  0  0
 24 25  2  0  0  0  0
 24 46  1  0  0  0  0
 25 26  1  0  0  0  0
 25 47  1  0  0  0  0
 26 27  2  0  0  0  0
 26 48  1  0  0  0  0
 27 28  1  0  0  0  0
M  END
> <s_m_source_file>
AV-unprocessed.smi

> <i_m_source_file_index>
283

> <i_lp_mmshare_version>
43012

> <i_f3d_flags>
0

> <s_epik_input>
Q2xjMVtjSF1bY0hdW2NIXVtjSF1jMVtDQEhdKFtDSDNdKVtOSF1jKG5bY0hdbjIpYyhjMjMpbltjSF1uM1tDQEBIXTRPW0NASF0oW0NIMl1bT0hdKVtDQEBIXShbT0hdKVtDQEhdNFtPSF0=

> <s_epik_cmdline>
J2VwaWtfcHl0aG9uJywgJy1waCcsICc3LjAnLCAnLXRuJywgJzgnLCAnLW1hJywgJzIwMCcsICctbWV0YWxfYmluZGluZycsICctaW1hZScsICc8aW5maWxlLm1hZT4nLCAnLW9tYWUnLCAnPG91dGZpbGUubWFlPic=

> <r_lp_tautomer_probability>
1

> <r_epik_Ionization_Penalty>
0.000266407

> <r_epik_Ionization_Penalty_Charging>
0

> <r_epik_Ionization_Penalty_Neutral>
0.000266407

> <r_epik_State_Penalty>
-0

> <r_epik_Charging_Adjusted_Penalty>
0

> <i_epik_Tot_Q>
0

> <i_epik_Tot_abs_Q>
0

> <r_epik_Metal_State_Penalty>
-0

> <b_epik_Metal_Only>
0

> <s_epik_Chemistry_Notes>
This compound contains an acetal/aminal-like group ( X-CH(R)-Y where X, Y are N, S, or O) that may be acid/base labile, releasing an aldehyde.

> <s_lp_Force_Field>
OPLS_2005

> <r_lp_Energy>
52.4072

> <b_lp_Chiralities_Consistent>
1

> <s_lp_Variant>
AV-unprocessed.smi:283-30

> <Gold.Version>
5.8.1

> <Gold.Id.Protein>
6NUR|6NUR_protein|mol2

> <Gold.PLP.Fitness>
47.6059

> <Gold.PLP.PLP>
-39.0764

> <Gold.PLP.part.hbond>
-2.6781

> <Gold.PLP.part.metal>
0.0000

> <Gold.PLP.part.buried>
-5.6036

> <Gold.PLP.part.nonpolar>
-32.4598

> <Gold.PLP.part.repulsive>
1.2868

> <Gold.PLP.ligand.clash>
0.0064

> <Gold.PLP.ligand.torsion>
1.7723

> <Gold.PLP.Chemscore.Hbond>
3.0000

> <Gold.PLP.Chemscore.CHOScore>
0.9625

> <Gold.PLP.Chemscore.Metal>
0.0000

> <Gold.Chemscore.Hbonds>
donor molecule, donor type, donor heavy atom, donor atom, acceptor molecule, acceptor atom, score
      L1  H    17    42       P1 10747  0.54
      L1  H    19    43       P1  7948  0.98
      L1  H    21    44       P1  7948  1.00
      L1  C     6    38       P1  7949  0.93

> <Gold.PLP.Chemscore.Internal.Correction>
0.1932

> <Gold.Rescore>
     Score         DG    S(hbond)    S(metal)    S(lipo)     H(rot)  DE(clash)    DE(int)     intcor
     12.03     -16.61       2.94        0.00     100.83       4.10       0.21       4.37       ----

> <Gold.Chemscore.Fitness>
12.0277

> <Gold.Chemscore.DG>
-16.6079

> <Gold.Chemscore.ZeroCoef>
-5.4800

> <Gold.Chemscore.Hbond>
2.9397

> <Gold.Chemscore.Metal>
0.0000

> <Gold.Chemscore.Lipo>
100.8311

> <Gold.Chemscore.Internal_Hbond>
0.0000

> <Gold.Chemscore.DEClash>
0.2123

> <Gold.Chemscore.DEInternal>
4.3679

> <Gold.Chemscore.Rot>
4.0968

> <Gold.Chemscore.Internal.Correction>
   9.000000E+99

> <Gold.Chemscore.Hbonds>
donor molecule, donor type, donor heavy atom, donor atom, acceptor molecule, acceptor atom, score
      L1  H    17    42       P1 10747  0.32
      L1  H    19    43       P1  7948  0.23
      L1  H    21    44       P1  7948  0.99

> <Gold.Chemscore.Hbond.Weighted>
-9.8186

> <Gold.Chemscore.Metal.Weighted>
-0.0000

> <Gold.Chemscore.Lipo.Weighted>
-11.7972

> <Gold.Chemscore.Internal_Hbond.Weighted>
0.0000

> <Gold.Chemscore.DEClash.Weighted>
0.2123

> <Gold.Chemscore.DEInternal.Weighted>
4.3679

> <Gold.Chemscore.Rot.Weighted>
10.4879

> <Gold.Chemscore.Internal.Correction.Weighted>
   9.000000E+99

> <Gold.Protein.RotatedTorsions>
[ 6907 6896 6895 6894 ] final  -80.98 input  -60.11 | X-H torsion
[ 7974 7965 7964 7962 ] final   63.75 input  175.53 | X-H torsion
[ 8008 7997 7996 7995 ] final  161.48 input   59.86 | X-H torsion
[ 10167 10162 10161 10158 ] final   24.89 input  -65.29 | X-H torsion
[ 10718 10713 10712 10709 ] final  162.89 input   66.30 | X-H torsion
[ 10763 10752 10751 10750 ] final -118.00 input  -60.55 | X-H torsion
[ 11005 11000 10999 10996 ] final  126.70 input  -57.11 | X-H torsion

> <Gold.Protein.ActiveResidues>
 VAL166  LYS551  ARG553  GLY616  TRP617  ASP618  TYR619  PRO620  LYS621  CYS622 
 ASP623  PHE694  ASN695  SER759  ASP760  ASP761  ALA762  ILE779  LEU786  VAL792 
 PHE793  MET794  SER795  GLU796  ALA797  LYS798  CYS799  TRP800  GLU811  SER814 

> <Gold.Protein.RotatedAtoms>
  150.6920  134.3888  159.5066 H   0  0  0  0  0  0  0  0  0  0  0  0  # atno 6907 bound_to 6896
  152.1679  134.8856  160.0546 H   0  0  0  0  0  0  0  0  0  0  0  0  # atno 6908 bound_to 6896
  151.9893  133.3750  159.4175 H   0  0  0  0  0  0  0  0  0  0  0  0  # atno 6909 bound_to 6896
  145.8582  139.3297  143.0835 H   0  0  0  0  0  0  0  0  0  0  0  0  # atno 7974 bound_to 7965
  156.2100  140.1776  156.7716 H   0  0  0  0  0  0  0  0  0  0  0  0  # atno 8008 bound_to 7997
  154.5708  140.0683  156.8992 H   0  0  0  0  0  0  0  0  0  0  0  0  # atno 8009 bound_to 7997
  155.2676  140.3340  155.4270 H   0  0  0  0  0  0  0  0  0  0  0  0  # atno 8010 bound_to 7997
  140.5151  144.0096  150.6390 H   0  0  0  0  0  0  0  0  0  0  0  0  # atno 10167 bound_to 10162
  157.1162  131.0480  151.2435 H   0  0  0  0  0  0  0  0  0  0  0  0  # atno 10718 bound_to 10713
  154.8573  135.4289  154.2069 H   0  0  0  0  0  0  0  0  0  0  0  0  # atno 10763 bound_to 10752
  153.3103  135.6975  153.7128 H   0  0  0  0  0  0  0  0  0  0  0  0  # atno 10764 bound_to 10752
  153.6223  135.3500  155.2989 H   0  0  0  0  0  0  0  0  0  0  0  0  # atno 10765 bound_to 10752
  139.9470  134.9628  156.8746 H   0  0  0  0  0  0  0  0  0  0  0  0  # atno 11005 bound_to 11000
  145.9279  140.9069  143.0371 LP  0  0  0  0  0  0  0  0  0  0  0  0  # atno 17320 bound_to 7965
  144.6727  140.1378  143.7439 LP  0  0  0  0  0  0  0  0  0  0  0  0  # atno 17321 bound_to 7965
  140.3430  143.3008  152.0568 LP  0  0  0  0  0  0  0  0  0  0  0  0  # atno 17342 bound_to 10162
  139.4907  144.6429  151.6839 LP  0  0  0  0  0  0  0  0  0  0  0  0  # atno 17343 bound_to 10162
  157.4516  130.7602  149.7156 LP  0  0  0  0  0  0  0  0  0  0  0  0  # atno 17370 bound_to 10713
  155.9839  130.3996  150.3340 LP  0  0  0  0  0  0  0  0  0  0  0  0  # atno 17371 bound_to 10713
  140.5812  134.0351  155.7464 LP  0  0  0  0  0  0  0  0  0  0  0  0  # atno 17394 bound_to 11000
  141.1122  133.9597  157.2888 LP  0  0  0  0  0  0  0  0  0  0  0  0  # atno 17395 bound_to 11000

$$$$
