AV-unprocessed.smi:740|AV-procd|sdf|3547|dock9
  -GOLD-   22720 0543D 1   1.00000     0.00000
 Structure written by MMmdl.
 44 46  0  0  0  0  0  0  0  0  1 V2000
  153.5146  143.3349  163.0346 C   0  0  0  0  0  0  0  0  0  0  0  0
  153.0894  142.8862  161.6474 C   0  0  0  0  0  0  0  0  0  0  0  0
  152.2802  143.7417  160.8665 C   0  0  0  0  0  0  0  0  0  0  0  0
  151.8658  143.3635  159.5707 C   0  0  0  0  0  0  0  0  0  0  0  0
  151.0862  144.0358  158.6449 N   0  0  0  0  0  0  0  0  0  0  0  0
  151.0613  143.1691  157.6367 C   0  0  0  0  0  0  0  0  0  0  0  0
  151.7315  142.0124  157.8006 N   0  0  0  0  0  0  0  0  0  0  0  0
  151.8449  140.9283  156.8412 C   0  0  0  0  0  0  0  0  0  0  0  0
  150.6931  140.9267  155.8177 C   0  0  1  0  0  0  0  0  0  0  0  0
  150.9412  139.9169  154.8583 O   0  0  0  0  0  0  0  0  0  0  0  0
  149.3322  140.6504  156.4896 C   0  0  0  0  0  0  0  0  0  0  0  0
  148.2640  141.4828  155.9248 N   0  0  0  0  0  0  0  0  0  0  0  0
  148.1004  141.7061  154.6135 C   0  0  0  0  0  0  0  0  0  0  0  0
  148.8106  141.2725  153.7067 O   0  0  0  0  0  0  0  0  0  0  0  0
  146.8842  142.5845  154.3564 C   0  0  0  0  0  0  0  0  0  0  0  0
  146.3325  142.8449  155.7663 C   0  0  1  0  0  0  0  0  0  0  0  0
  144.8845  142.3662  155.9629 C   0  0  0  0  0  0  0  0  0  0  0  0
  147.3095  142.0770  156.6546 C   0  0  0  0  0  0  0  0  0  0  0  0
  147.1991  142.0312  157.8799 O   0  0  0  0  0  0  0  0  0  0  0  0
  152.2846  142.0946  159.0740 C   0  0  0  0  0  0  0  0  0  0  0  0
  153.0892  141.2341  159.8418 C   0  0  0  0  0  0  0  0  0  0  0  0
  153.4961  141.6286  161.1336 C   0  0  0  0  0  0  0  0  0  0  0  0
  154.3685  140.6942  161.9530 C   0  0  0  0  0  0  0  0  0  0  0  0
  153.0875  144.3057  163.2876 H   0  0  0  0  0  0  0  0  0  0  0  0
  154.5999  143.4214  163.0906 H   0  0  0  0  0  0  0  0  0  0  0  0
  153.1843  142.6188  163.7872 H   0  0  0  0  0  0  0  0  0  0  0  0
  151.9712  144.7002  161.2569 H   0  0  0  0  0  0  0  0  0  0  0  0
  150.5261  143.3872  156.7240 H   0  0  0  0  0  0  0  0  0  0  0  0
  152.8095  141.0022  156.3374 H   0  0  0  0  0  0  0  0  0  0  0  0
  151.8553  139.9886  157.3951 H   0  0  0  0  0  0  0  0  0  0  0  0
  150.6741  141.8925  155.3107 H   0  0  0  0  0  0  0  0  0  0  0  0
  150.1160  139.6439  154.4873 H   0  0  0  0  0  0  0  0  0  0  0  0
  149.0822  139.5891  156.4359 H   0  0  0  0  0  0  0  0  0  0  0  0
  149.4017  140.8714  157.5564 H   0  0  0  0  0  0  0  0  0  0  0  0
  147.1802  143.5091  153.8597 H   0  0  0  0  0  0  0  0  0  0  0  0
  146.1721  142.0602  153.7183 H   0  0  0  0  0  0  0  0  0  0  0  0
  146.4055  143.9066  156.0052 H   0  0  0  0  0  0  0  0  0  0  0  0
  144.5383  142.5600  156.9787 H   0  0  0  0  0  0  0  0  0  0  0  0
  144.7864  141.2961  155.7753 H   0  0  0  0  0  0  0  0  0  0  0  0
  144.2092  142.8851  155.2823 H   0  0  0  0  0  0  0  0  0  0  0  0
  153.3934  140.2800  159.4377 H   0  0  0  0  0  0  0  0  0  0  0  0
  154.6032  139.7835  161.4011 H   0  0  0  0  0  0  0  0  0  0  0  0
  153.8601  140.4063  162.8733 H   0  0  0  0  0  0  0  0  0  0  0  0
  155.3097  141.1791  162.2130 H   0  0  0  0  0  0  0  0  0  0  0  0
  1  2  1  0  0  0  0
  1 24  1  0  0  0  0
  1 25  1  0  0  0  0
  1 26  1  0  0  0  0
  2 22  1  0  0  0  0
  2  3  2  0  0  0  0
  3  4  1  0  0  0  0
  3 27  1  0  0  0  0
  4 20  2  0  0  0  0
  4  5  1  0  0  0  0
  5  6  2  0  0  0  0
  6  7  1  0  0  0  0
  6 28  1  0  0  0  0
  7  8  1  0  0  0  0
  7 20  1  0  0  0  0
  8  9  1  0  0  0  0
  8 29  1  0  0  0  0
  8 30  1  0  0  0  0
  9 10  1  0  0  0  0
  9 11  1  0  0  0  0
  9 31  1  0  0  0  0
 10 32  1  0  0  0  0
 11 12  1  0  0  0  0
 11 33  1  0  0  0  0
 11 34  1  0  0  0  0
 12 18  1  0  0  0  0
 12 13  1  0  0  0  0
 13 14  2  0  0  0  0
 13 15  1  0  0  0  0
 15 16  1  0  0  0  0
 15 35  1  0  0  0  0
 15 36  1  0  0  0  0
 16 17  1  0  0  0  0
 16 18  1  0  0  0  0
 16 37  1  0  0  0  0
 17 38  1  0  0  0  0
 17 39  1  0  0  0  0
 17 40  1  0  0  0  0
 18 19  2  0  0  0  0
 20 21  1  0  0  0  0
 21 22  2  0  0  0  0
 21 41  1  0  0  0  0
 22 23  1  0  0  0  0
 23 42  1  0  0  0  0
 23 43  1  0  0  0  0
 23 44  1  0  0  0  0
M  END
> <s_m_source_file>
AV-unprocessed.smi

> <i_m_source_file_index>
740

> <i_lp_mmshare_version>
43012

> <i_f3d_flags>
0

> <s_epik_input>
W0NIM11jKFtjSF0xKWMoW0NIM10pW2NIXWMoYzEyKW4oW2NIXW4yKVtDSDJdW0NASF0oW09IXSlbQ0gyXU4zQyg9TylbQ0gyXVtDQEBIXShbQ0gzXSlDMz1P

> <s_epik_cmdline>
J2VwaWtfcHl0aG9uJywgJy1waCcsICc3LjAnLCAnLXRuJywgJzgnLCAnLW1hJywgJzIwMCcsICctbWV0YWxfYmluZGluZycsICctaW1hZScsICc8aW5maWxlLm1hZT4nLCAnLW9tYWUnLCAnPG91dGZpbGUubWFlPic=

> <r_lp_tautomer_probability>
1

> <r_epik_Ionization_Penalty>
0.104021

> <r_epik_Ionization_Penalty_Charging>
0

> <r_epik_Ionization_Penalty_Neutral>
0.104021

> <r_epik_State_Penalty>
0.0939354

> <r_epik_Charging_Adjusted_Penalty>
0.0939354

> <i_epik_Tot_Q>
0

> <i_epik_Tot_abs_Q>
0

> <r_epik_Metal_State_Penalty>
0.000101783

> <b_epik_Metal_Only>
0

> <s_lp_Force_Field>
OPLS_2005

> <r_lp_Energy>
16.7866

> <b_lp_Chiralities_Consistent>
1

> <s_lp_Variant>
AV-unprocessed.smi:740-2

> <Gold.Version>
5.8.1

> <Gold.Id.Protein>
6NUR|6NUR_protein|mol2

> <Gold.PLP.Fitness>
54.4712

> <Gold.PLP.PLP>
-48.2234

> <Gold.PLP.part.hbond>
-2.0222

> <Gold.PLP.part.metal>
0.0000

> <Gold.PLP.part.buried>
-7.3130

> <Gold.PLP.part.nonpolar>
-39.8036

> <Gold.PLP.part.repulsive>
1.4986

> <Gold.PLP.ligand.clash>
0.0000

> <Gold.PLP.ligand.torsion>
1.1361

> <Gold.PLP.Chemscore.Hbond>
1.8320

> <Gold.PLP.Chemscore.CHOScore>
1.0000

> <Gold.PLP.Chemscore.Metal>
0.0000

> <Gold.Chemscore.Hbonds>
donor molecule, donor type, donor heavy atom, donor atom, acceptor molecule, acceptor atom, score
      P1  H  7989  7998       L1    10  1.00
      P1  H  8011  8017       L1    14  0.83
      L1  C     6    28       P1  8028  1.00

> <Gold.PLP.Chemscore.Internal.Correction>
0.0242

> <Gold.Rescore>
     Score         DG    S(hbond)    S(metal)    S(lipo)     H(rot)  DE(clash)    DE(int)     intcor
     12.55     -16.92       1.22        0.00     113.68       2.31       0.55       3.82       ----

> <Gold.Chemscore.Fitness>
12.5501

> <Gold.Chemscore.DG>
-16.9237

> <Gold.Chemscore.ZeroCoef>
-5.4800

> <Gold.Chemscore.Hbond>
1.2182

> <Gold.Chemscore.Metal>
0.0000

> <Gold.Chemscore.Lipo>
113.6794

> <Gold.Chemscore.Internal_Hbond>
0.0000

> <Gold.Chemscore.DEClash>
0.5513

> <Gold.Chemscore.DEInternal>
3.8223

> <Gold.Chemscore.Rot>
2.3147

> <Gold.Chemscore.Internal.Correction>
   9.000000E+99

> <Gold.Chemscore.Hbonds>
donor molecule, donor type, donor heavy atom, donor atom, acceptor molecule, acceptor atom, score
      P1  H  7989  7998       L1    10  0.10
      P1  H  8011  8017       L1    14  0.78

> <Gold.Chemscore.Hbond.Weighted>
-4.0688

> <Gold.Chemscore.Metal.Weighted>
-0.0000

> <Gold.Chemscore.Lipo.Weighted>
-13.3005

> <Gold.Chemscore.Internal_Hbond.Weighted>
0.0000

> <Gold.Chemscore.DEClash.Weighted>
0.5513

> <Gold.Chemscore.DEInternal.Weighted>
3.8223

> <Gold.Chemscore.Rot.Weighted>
5.9256

> <Gold.Chemscore.Internal.Correction.Weighted>
   9.000000E+99

> <Gold.Protein.RotatedTorsions>
[ 6907 6896 6895 6894 ] final -101.09 input  -60.11 | X-H torsion
[ 7974 7965 7964 7962 ] final   16.17 input  175.53 | X-H torsion
[ 8008 7997 7996 7995 ] final  -87.42 input   59.86 | X-H torsion
[ 10167 10162 10161 10158 ] final -165.40 input  -65.29 | X-H torsion
[ 10718 10713 10712 10709 ] final  149.50 input   66.30 | X-H torsion
[ 10763 10752 10751 10750 ] final  -56.35 input  -60.55 | X-H torsion
[ 11005 11000 10999 10996 ] final  168.00 input  -57.11 | X-H torsion

> <Gold.Protein.ActiveResidues>
 VAL166  LYS551  ARG553  GLY616  TRP617  ASP618  TYR619  PRO620  LYS621  CYS622 
 ASP623  PHE694  ASN695  SER759  ASP760  ASP761  ALA762  ILE779  LEU786  VAL792 
 PHE793  MET794  SER795  GLU796  ALA797  LYS798  CYS799  TRP800  GLU811  SER814 

> <Gold.Protein.RotatedAtoms>
  150.7141  134.0787  159.3890 H   0  0  0  0  0  0  0  0  0  0  0  0  # atno 6907 bound_to 6896
  151.8771  135.0465  160.0494 H   0  0  0  0  0  0  0  0  0  0  0  0  # atno 6908 bound_to 6896
  152.2597  133.5251  159.5411 H   0  0  0  0  0  0  0  0  0  0  0  0  # atno 6909 bound_to 6896
  146.2257  139.8787  142.8574 H   0  0  0  0  0  0  0  0  0  0  0  0  # atno 7974 bound_to 7965
  154.6631  140.0566  157.0084 H   0  0  0  0  0  0  0  0  0  0  0  0  # atno 8008 bound_to 7997
  155.1199  140.3246  155.4481 H   0  0  0  0  0  0  0  0  0  0  0  0  # atno 8009 bound_to 7997
  156.2626  140.1999  156.6322 H   0  0  0  0  0  0  0  0  0  0  0  0  # atno 8010 bound_to 7997
  139.6185  144.0672  152.1910 H   0  0  0  0  0  0  0  0  0  0  0  0  # atno 10167 bound_to 10162
  157.2953  131.0861  151.1431 H   0  0  0  0  0  0  0  0  0  0  0  0  # atno 10718 bound_to 10713
  154.2053  135.6404  153.5099 H   0  0  0  0  0  0  0  0  0  0  0  0  # atno 10763 bound_to 10752
  153.0002  135.5461  154.6272 H   0  0  0  0  0  0  0  0  0  0  0  0  # atno 10764 bound_to 10752
  154.5695  135.2915  155.0814 H   0  0  0  0  0  0  0  0  0  0  0  0  # atno 10765 bound_to 10752
  140.2826  134.7738  157.3771 H   0  0  0  0  0  0  0  0  0  0  0  0  # atno 11005 bound_to 11000
  145.2534  141.0052  143.3868 LP  0  0  0  0  0  0  0  0  0  0  0  0  # atno 17320 bound_to 7965
  144.9356  139.4248  143.6474 LP  0  0  0  0  0  0  0  0  0  0  0  0  # atno 17321 bound_to 7965
  140.0308  144.6082  150.7489 LP  0  0  0  0  0  0  0  0  0  0  0  0  # atno 17342 bound_to 10162
  140.7366  143.2755  151.3754 LP  0  0  0  0  0  0  0  0  0  0  0  0  # atno 17343 bound_to 10162
  157.2811  130.6751  149.6066 LP  0  0  0  0  0  0  0  0  0  0  0  0  # atno 17370 bound_to 10713
  155.9669  130.4449  150.5481 LP  0  0  0  0  0  0  0  0  0  0  0  0  # atno 17371 bound_to 10713
  140.1269  134.5146  155.8137 LP  0  0  0  0  0  0  0  0  0  0  0  0  # atno 17394 bound_to 11000
  141.2160  133.6776  156.6968 LP  0  0  0  0  0  0  0  0  0  0  0  0  # atno 17395 bound_to 11000

$$$$
