AV-unprocessed.smi:865|AV-procd|sdf|3991|dock3
  -GOLD-   22720 1473D 1   1.00000     0.00000
 Structure written by MMmdl.
 36 36  0  0  0  0  0  0  0  0  1 V2000
  153.9142  141.8802  160.3932 C   0  0  0  0  0  0  0  0  0  0  0  0
  152.5442  141.9228  159.6999 C   0  0  0  0  0  0  0  0  0  0  0  0
  152.3307  143.1346  158.7565 C   0  0  0  0  0  0  0  0  0  0  0  0
  152.4323  144.4766  159.5275 C   0  0  0  0  0  0  0  0  0  0  0  0
  151.1018  144.9760  160.1105 C   0  0  0  0  0  0  0  0  0  0  0  0
  151.0167  143.0213  157.9324 C   0  0  1  0  0  0  0  0  0  0  0  0
  150.8179  144.2226  157.2116 O   0  0  0  0  0  0  0  0  0  0  0  0
  151.0115  141.8349  156.9422 C   0  0  0  0  0  0  0  0  0  0  0  0
  149.7853  141.7998  156.1532 N   0  0  0  0  0  0  0  0  0  0  0  0
  149.5351  140.9434  155.1511 C   0  0  0  0  0  0  0  0  0  0  0  0
  150.3098  140.0517  154.8061 O   0  0  0  0  0  0  0  0  0  0  0  0
  148.2099  141.1289  154.4137 C   0  0  0  0  0  0  0  0  0  0  0  0
  147.3779  139.9496  154.5539 N   0  0  0  0  0  0  0  0  0  0  0  0
  146.8435  139.1396  153.6376 C   0  0  0  0  0  0  0  0  0  0  0  0
  146.1272  138.1757  154.1958 N   0  0  0  0  0  0  0  0  0  0  0  0
  146.2474  138.4383  155.5506 N   0  0  0  0  0  0  0  0  0  0  0  0
  146.9880  139.4900  155.7691 N   0  0  0  0  0  0  0  0  0  0  0  0
  153.9424  141.0813  161.1344 H   0  0  0  0  0  0  0  0  0  0  0  0
  154.1254  142.8166  160.9097 H   0  0  0  0  0  0  0  0  0  0  0  0
  154.7229  141.6904  159.6883 H   0  0  0  0  0  0  0  0  0  0  0  0
  152.3807  140.9902  159.1593 H   0  0  0  0  0  0  0  0  0  0  0  0
  151.7929  141.9401  160.4878 H   0  0  0  0  0  0  0  0  0  0  0  0
  153.1503  143.1201  158.0365 H   0  0  0  0  0  0  0  0  0  0  0  0
  153.1239  144.3742  160.3626 H   0  0  0  0  0  0  0  0  0  0  0  0
  152.8581  145.2467  158.8832 H   0  0  0  0  0  0  0  0  0  0  0  0
  151.2609  145.8673  160.7175 H   0  0  0  0  0  0  0  0  0  0  0  0
  150.6429  144.2208  160.7492 H   0  0  0  0  0  0  0  0  0  0  0  0
  150.3869  145.2409  159.3325 H   0  0  0  0  0  0  0  0  0  0  0  0
  150.1785  142.8929  158.6166 H   0  0  0  0  0  0  0  0  0  0  0  0
  149.9478  144.2105  156.8432 H   0  0  0  0  0  0  0  0  0  0  0  0
  151.8974  141.8314  156.3045 H   0  0  0  0  0  0  0  0  0  0  0  0
  151.0358  140.8970  157.4976 H   0  0  0  0  0  0  0  0  0  0  0  0
  149.0892  142.5006  156.3627 H   0  0  0  0  0  0  0  0  0  0  0  0
  147.6744  141.9872  154.8210 H   0  0  0  0  0  0  0  0  0  0  0  0
  148.3843  141.3290  153.3550 H   0  0  0  0  0  0  0  0  0  0  0  0
  146.9752  139.2577  152.5720 H   0  0  0  0  0  0  0  0  0  0  0  0
  1  2  1  0  0  0  0
  1 18  1  0  0  0  0
  1 19  1  0  0  0  0
  1 20  1  0  0  0  0
  2  3  1  0  0  0  0
  2 21  1  0  0  0  0
  2 22  1  0  0  0  0
  3  4  1  0  0  0  0
  3  6  1  0  0  0  0
  3 23  1  0  0  0  0
  4  5  1  0  0  0  0
  4 24  1  0  0  0  0
  4 25  1  0  0  0  0
  5 26  1  0  0  0  0
  5 27  1  0  0  0  0
  5 28  1  0  0  0  0
  6  7  1  0  0  0  0
  6  8  1  0  0  0  0
  6 29  1  0  0  0  0
  7 30  1  0  0  0  0
  8  9  1  0  0  0  0
  8 31  1  0  0  0  0
  8 32  1  0  0  0  0
  9 10  1  0  0  0  0
  9 33  1  0  0  0  0
 10 11  2  0  0  0  0
 10 12  1  0  0  0  0
 12 13  1  0  0  0  0
 12 34  1  0  0  0  0
 12 35  1  0  0  0  0
 13 17  1  0  0  0  0
 13 14  1  0  0  0  0
 14 15  2  0  0  0  0
 14 36  1  0  0  0  0
 15 16  1  0  0  0  0
 16 17  2  0  0  0  0
M  END
> <s_m_source_file>
AV-unprocessed.smi

> <i_m_source_file_index>
865

> <i_lp_mmshare_version>
43012

> <i_f3d_flags>
0

> <s_epik_input>
W0NIM11bQ0gyXVtDSF0oW0NIMl1bQ0gzXSlbQ0BIXShbT0hdKVtDSDJdW05IXUMoPU8pW0NIMl1uMVtjSF1ubm4x

> <s_epik_cmdline>
J2VwaWtfcHl0aG9uJywgJy1waCcsICc3LjAnLCAnLXRuJywgJzgnLCAnLW1hJywgJzIwMCcsICctbWV0YWxfYmluZGluZycsICctaW1hZScsICc8aW5maWxlLm1hZT4nLCAnLW9tYWUnLCAnPG91dGZpbGUubWFlPic=

> <r_lp_tautomer_probability>
1

> <r_epik_Ionization_Penalty>
9.39891e-07

> <r_epik_Ionization_Penalty_Charging>
0

> <r_epik_Ionization_Penalty_Neutral>
9.39891e-07

> <r_epik_State_Penalty>
-0

> <r_epik_Charging_Adjusted_Penalty>
0

> <i_epik_Tot_Q>
0

> <i_epik_Tot_abs_Q>
0

> <r_epik_Metal_State_Penalty>
-0

> <b_epik_Metal_Only>
0

> <s_lp_Force_Field>
OPLS_2005

> <r_lp_Energy>
13.5174

> <b_lp_Chiralities_Consistent>
1

> <s_lp_Variant>
AV-unprocessed.smi:865-2

> <Gold.Version>
5.8.1

> <Gold.Id.Protein>
6NUR|6NUR_protein|mol2

> <Gold.PLP.Fitness>
48.9677

> <Gold.PLP.PLP>
-37.6908

> <Gold.PLP.part.hbond>
-3.0000

> <Gold.PLP.part.metal>
0.0000

> <Gold.PLP.part.buried>
-3.6110

> <Gold.PLP.part.nonpolar>
-30.0712

> <Gold.PLP.part.repulsive>
0.4403

> <Gold.PLP.ligand.clash>
0.0000

> <Gold.PLP.ligand.torsion>
0.4271

> <Gold.PLP.Chemscore.Hbond>
2.9760

> <Gold.PLP.Chemscore.CHOScore>
1.0000

> <Gold.PLP.Chemscore.Metal>
0.0000

> <Gold.Chemscore.Hbonds>
donor molecule, donor type, donor heavy atom, donor atom, acceptor molecule, acceptor atom, score
      L1  H     7    30       P1  8028  0.96
      L1  H     9    33       P1  8028  0.15
      P1  H  7989  7998       L1    11  1.00

> <Gold.PLP.Chemscore.Internal.Correction>
0.2029

> <Gold.Rescore>
     Score         DG    S(hbond)    S(metal)    S(lipo)     H(rot)  DE(clash)    DE(int)     intcor
     11.73     -12.28       1.98        0.00      84.72       3.80       0.34       0.20       ----

> <Gold.Chemscore.Fitness>
11.7341

> <Gold.Chemscore.DG>
-12.2800

> <Gold.Chemscore.ZeroCoef>
-5.4800

> <Gold.Chemscore.Hbond>
1.9778

> <Gold.Chemscore.Metal>
0.0000

> <Gold.Chemscore.Lipo>
84.7247

> <Gold.Chemscore.Internal_Hbond>
0.0000

> <Gold.Chemscore.DEClash>
0.3431

> <Gold.Chemscore.DEInternal>
0.2028

> <Gold.Chemscore.Rot>
3.7964

> <Gold.Chemscore.Internal.Correction>
   9.000000E+99

> <Gold.Chemscore.Hbonds>
donor molecule, donor type, donor heavy atom, donor atom, acceptor molecule, acceptor atom, score
      L1  H     7    30       P1  8028  0.83
      L1  H     9    33       P1  8028  0.15
      P1  H  7989  7998       L1    11  0.56

> <Gold.Chemscore.Hbond.Weighted>
-6.6060

> <Gold.Chemscore.Metal.Weighted>
-0.0000

> <Gold.Chemscore.Lipo.Weighted>
-9.9128

> <Gold.Chemscore.Internal_Hbond.Weighted>
0.0000

> <Gold.Chemscore.DEClash.Weighted>
0.3431

> <Gold.Chemscore.DEInternal.Weighted>
0.2028

> <Gold.Chemscore.Rot.Weighted>
9.7188

> <Gold.Chemscore.Internal.Correction.Weighted>
   9.000000E+99

> <Gold.Protein.RotatedTorsions>
[ 6907 6896 6895 6894 ] final -110.42 input  -60.11 | X-H torsion
[ 7974 7965 7964 7962 ] final   93.36 input  175.53 | X-H torsion
[ 8008 7997 7996 7995 ] final -153.01 input   59.86 | X-H torsion
[ 10167 10162 10161 10158 ] final   -1.51 input  -65.29 | X-H torsion
[ 10718 10713 10712 10709 ] final  128.13 input   66.30 | X-H torsion
[ 10763 10752 10751 10750 ] final -121.73 input  -60.55 | X-H torsion
[ 11005 11000 10999 10996 ] final -142.57 input  -57.11 | X-H torsion

> <Gold.Protein.ActiveResidues>
 VAL166  LYS551  ARG553  GLY616  TRP617  ASP618  TYR619  PRO620  LYS621  CYS622 
 ASP623  PHE694  ASN695  SER759  ASP760  ASP761  ALA762  ILE779  LEU786  VAL792 
 PHE793  MET794  SER795  GLU796  ALA797  LYS798  CYS799  TRP800  GLU811  SER814 

> <Gold.Protein.RotatedAtoms>
  150.7624  133.9385  159.3448 H   0  0  0  0  0  0  0  0  0  0  0  0  # atno 6907 bound_to 6896
  151.7290  135.0876  160.0306 H   0  0  0  0  0  0  0  0  0  0  0  0  # atno 6908 bound_to 6896
  152.3601  133.6249  159.6045 H   0  0  0  0  0  0  0  0  0  0  0  0  # atno 6909 bound_to 6896
  145.4799  139.2279  143.2888 H   0  0  0  0  0  0  0  0  0  0  0  0  # atno 7974 bound_to 7965
  155.6642  140.0726  157.2543 H   0  0  0  0  0  0  0  0  0  0  0  0  # atno 8008 bound_to 7997
  154.4136  140.1711  156.1860 H   0  0  0  0  0  0  0  0  0  0  0  0  # atno 8009 bound_to 7997
  155.9672  140.3365  155.6546 H   0  0  0  0  0  0  0  0  0  0  0  0  # atno 8010 bound_to 7997
  140.6813  143.6767  150.8140 H   0  0  0  0  0  0  0  0  0  0  0  0  # atno 10167 bound_to 10162
  157.5272  131.1098  150.9065 H   0  0  0  0  0  0  0  0  0  0  0  0  # atno 10718 bound_to 10713
  154.8674  135.4157  154.2667 H   0  0  0  0  0  0  0  0  0  0  0  0  # atno 10763 bound_to 10752
  153.3585  135.7002  153.6737 H   0  0  0  0  0  0  0  0  0  0  0  0  # atno 10764 bound_to 10752
  153.5647  135.3603  155.2786 H   0  0  0  0  0  0  0  0  0  0  0  0  # atno 10765 bound_to 10752
  140.8211  134.2629  157.4899 H   0  0  0  0  0  0  0  0  0  0  0  0  # atno 11005 bound_to 11000
  146.2347  140.5585  142.8960 LP  0  0  0  0  0  0  0  0  0  0  0  0  # atno 17320 bound_to 7965
  144.7895  140.6003  143.6551 LP  0  0  0  0  0  0  0  0  0  0  0  0  # atno 17321 bound_to 7965
  140.0467  143.5291  152.2693 LP  0  0  0  0  0  0  0  0  0  0  0  0  # atno 17342 bound_to 10162
  139.6138  144.7615  151.2893 LP  0  0  0  0  0  0  0  0  0  0  0  0  # atno 17343 bound_to 10162
  156.9657  130.5472  149.5288 LP  0  0  0  0  0  0  0  0  0  0  0  0  # atno 17370 bound_to 10713
  156.0395  130.5479  150.8737 LP  0  0  0  0  0  0  0  0  0  0  0  0  # atno 17371 bound_to 10713
  139.8708  134.9536  156.4150 LP  0  0  0  0  0  0  0  0  0  0  0  0  # atno 17394 bound_to 11000
  140.9097  133.7720  155.9777 LP  0  0  0  0  0  0  0  0  0  0  0  0  # atno 17395 bound_to 11000

$$$$
