AV-unprocessed.smi:2327|AV-procd|sdf|9299|dock4
  -GOLD-   2272012523D 1   1.00000     0.00000
 Structure written by MMmdl.
 40 41  0  0  0  0  0  0  0  0  1 V2000
  143.9470  143.8633  154.2555 C   0  0  0  0  0  0  0  0  0  0  0  0
  144.7970  142.8279  154.9217 C   0  0  0  0  0  0  0  0  0  0  0  0
  144.6944  142.3795  156.2148 C   0  0  0  0  0  0  0  0  0  0  0  0
  145.8920  141.1677  156.5786 S   0  0  0  0  0  0  0  0  0  0  0  0
  146.4978  141.3150  154.9321 C   0  0  0  0  0  0  0  0  0  0  0  0
  147.6725  140.5400  154.4178 C   0  0  1  0  0  0  0  0  0  0  0  0
  147.2915  139.6290  153.2419 C   0  0  0  0  0  0  0  0  0  0  0  0
  148.8991  141.4265  154.1173 C   0  0  0  0  0  0  0  0  0  0  0  0
  149.2184  142.3128  155.2342 N   0  0  0  0  0  0  0  0  0  0  0  0
  149.8632  141.9607  156.3600 C   0  0  0  0  0  0  0  0  0  0  0  0
  150.2296  140.8131  156.6049 O   0  0  0  0  0  0  0  0  0  0  0  0
  150.0807  142.9709  157.2209 N   0  0  0  0  0  0  0  0  0  0  0  0
  150.7487  142.9257  158.5231 C   0  0  0  0  0  0  0  0  0  0  0  0
  150.9344  144.3550  159.0548 C   0  0  0  0  0  0  0  0  0  0  0  0
  151.7668  144.3544  160.3475 C   0  0  0  0  0  0  0  0  0  0  0  0
  153.0207  143.7204  160.1202 O   0  0  0  0  0  0  0  0  0  0  0  0
  152.8901  142.3534  159.7461 C   0  0  0  0  0  0  0  0  0  0  0  0
  152.1242  142.2425  158.4180 C   0  0  0  0  0  0  0  0  0  0  0  0
  145.8257  142.2121  154.2044 N   0  0  0  0  0  0  0  0  0  0  0  0
  143.1786  144.2432  154.9291 H   0  0  0  0  0  0  0  0  0  0  0  0
  143.4440  143.4545  153.3790 H   0  0  0  0  0  0  0  0  0  0  0  0
  144.5471  144.7123  153.9273 H   0  0  0  0  0  0  0  0  0  0  0  0
  143.9914  142.6888  156.9738 H   0  0  0  0  0  0  0  0  0  0  0  0
  147.9697  139.8735  155.2287 H   0  0  0  0  0  0  0  0  0  0  0  0
  146.4844  138.9492  153.5171 H   0  0  0  0  0  0  0  0  0  0  0  0
  148.1401  139.0230  152.9240 H   0  0  0  0  0  0  0  0  0  0  0  0
  146.9589  140.2107  152.3816 H   0  0  0  0  0  0  0  0  0  0  0  0
  149.7700  140.7999  153.9247 H   0  0  0  0  0  0  0  0  0  0  0  0
  148.7301  141.9991  153.2037 H   0  0  0  0  0  0  0  0  0  0  0  0
  148.9511  143.2808  155.1321 H   0  0  0  0  0  0  0  0  0  0  0  0
  149.7015  143.8693  156.9577 H   0  0  0  0  0  0  0  0  0  0  0  0
  150.1269  142.3812  159.2366 H   0  0  0  0  0  0  0  0  0  0  0  0
  151.4398  144.9673  158.3064 H   0  0  0  0  0  0  0  0  0  0  0  0
  149.9648  144.8202  159.2359 H   0  0  0  0  0  0  0  0  0  0  0  0
  151.9461  145.3779  160.6770 H   0  0  0  0  0  0  0  0  0  0  0  0
  151.2330  143.8495  161.1542 H   0  0  0  0  0  0  0  0  0  0  0  0
  153.8850  141.9206  159.6409 H   0  0  0  0  0  0  0  0  0  0  0  0
  152.3825  141.7961  160.5350 H   0  0  0  0  0  0  0  0  0  0  0  0
  152.0141  141.1935  158.1424 H   0  0  0  0  0  0  0  0  0  0  0  0
  152.7109  142.7119  157.6270 H   0  0  0  0  0  0  0  0  0  0  0  0
  1  2  1  0  0  0  0
  1 20  1  0  0  0  0
  1 21  1  0  0  0  0
  1 22  1  0  0  0  0
  2 19  1  0  0  0  0
  2  3  2  0  0  0  0
  3  4  1  0  0  0  0
  3 23  1  0  0  0  0
  4  5  1  0  0  0  0
  5  6  1  0  0  0  0
  5 19  2  0  0  0  0
  6  7  1  0  0  0  0
  6  8  1  0  0  0  0
  6 24  1  0  0  0  0
  7 25  1  0  0  0  0
  7 26  1  0  0  0  0
  7 27  1  0  0  0  0
  8  9  1  0  0  0  0
  8 28  1  0  0  0  0
  8 29  1  0  0  0  0
  9 10  1  0  0  0  0
  9 30  1  0  0  0  0
 10 11  2  0  0  0  0
 10 12  1  0  0  0  0
 12 13  1  0  0  0  0
 12 31  1  0  0  0  0
 13 18  1  0  0  0  0
 13 14  1  0  0  0  0
 13 32  1  0  0  0  0
 14 15  1  0  0  0  0
 14 33  1  0  0  0  0
 14 34  1  0  0  0  0
 15 16  1  0  0  0  0
 15 35  1  0  0  0  0
 15 36  1  0  0  0  0
 16 17  1  0  0  0  0
 17 18  1  0  0  0  0
 17 37  1  0  0  0  0
 17 38  1  0  0  0  0
 18 39  1  0  0  0  0
 18 40  1  0  0  0  0
M  END
> <s_m_source_file>
AV-unprocessed.smi

> <i_m_source_file_index>
2327

> <i_lp_mmshare_version>
43012

> <i_f3d_flags>
0

> <s_epik_input>
W0NIM11jMVtjSF1zYyhuMSlbQ0BIXShbQ0gzXSlbQ0gyXVtOSF1DKD1PKVtOSF1bQ0hdMltDSDJdW0NIMl1PW0NIMl1bQ0gyXTI=

> <s_epik_cmdline>
J2VwaWtfcHl0aG9uJywgJy1waCcsICc3LjAnLCAnLXRuJywgJzgnLCAnLW1hJywgJzIwMCcsICctbWV0YWxfYmluZGluZycsICctaW1hZScsICc8aW5maWxlLm1hZT4nLCAnLW9tYWUnLCAnPG91dGZpbGUubWFlPic=

> <r_epik_Ionization_Penalty>
0.0015425

> <r_epik_Ionization_Penalty_Charging>
0

> <r_epik_Ionization_Penalty_Neutral>
0.0015425

> <r_epik_State_Penalty>
0.000998134

> <r_epik_Charging_Adjusted_Penalty>
0.000998134

> <i_epik_Tot_Q>
0

> <i_epik_Tot_abs_Q>
0

> <r_epik_Metal_State_Penalty>
-0

> <b_epik_Metal_Only>
0

> <s_lp_Force_Field>
OPLS_2005

> <r_lp_Energy>
7.91954

> <b_lp_Chiralities_Consistent>
1

> <s_lp_Variant>
AV-unprocessed.smi:2327-2

> <Gold.Version>
5.8.1

> <Gold.Id.Protein>
6NUR|6NUR_protein|mol2

> <Gold.PLP.Fitness>
43.4351

> <Gold.PLP.PLP>
-39.4135

> <Gold.PLP.part.hbond>
-2.0000

> <Gold.PLP.part.metal>
0.0000

> <Gold.PLP.part.buried>
-4.5472

> <Gold.PLP.part.nonpolar>
-33.1747

> <Gold.PLP.part.repulsive>
0.4528

> <Gold.PLP.ligand.clash>
0.0000

> <Gold.PLP.ligand.torsion>
0.2741

> <Gold.PLP.Chemscore.Hbond>
1.4880

> <Gold.PLP.Chemscore.CHOScore>
0.0000

> <Gold.PLP.Chemscore.Metal>
0.0000

> <Gold.Chemscore.Hbonds>
donor molecule, donor type, donor heavy atom, donor atom, acceptor molecule, acceptor atom, score
      L1  H     9    30       P1  8028  0.98
      L1  H    12    31       P1  8028  0.90

> <Gold.PLP.Chemscore.Internal.Correction>
0.1058

> <Gold.Rescore>
     Score         DG    S(hbond)    S(metal)    S(lipo)     H(rot)  DE(clash)    DE(int)     intcor
     17.16     -17.85       1.68        0.00      91.15       1.53       0.27       0.42       ----

> <Gold.Chemscore.Fitness>
17.1595

> <Gold.Chemscore.DG>
-17.8477

> <Gold.Chemscore.ZeroCoef>
-5.4800

> <Gold.Chemscore.Hbond>
1.6846

> <Gold.Chemscore.Metal>
0.0000

> <Gold.Chemscore.Lipo>
91.1490

> <Gold.Chemscore.Internal_Hbond>
0.0000

> <Gold.Chemscore.DEClash>
0.2729

> <Gold.Chemscore.DEInternal>
0.4153

> <Gold.Chemscore.Rot>
1.5325

> <Gold.Chemscore.Internal.Correction>
   9.000000E+99

> <Gold.Chemscore.Hbonds>
donor molecule, donor type, donor heavy atom, donor atom, acceptor molecule, acceptor atom, score
      L1  H     9    30       P1  8028  0.88
      L1  H    12    31       P1  8028  0.78

> <Gold.Chemscore.Hbond.Weighted>
-5.6266

> <Gold.Chemscore.Metal.Weighted>
-0.0000

> <Gold.Chemscore.Lipo.Weighted>
-10.6644

> <Gold.Chemscore.Internal_Hbond.Weighted>
0.0000

> <Gold.Chemscore.DEClash.Weighted>
0.2729

> <Gold.Chemscore.DEInternal.Weighted>
0.4153

> <Gold.Chemscore.Rot.Weighted>
3.9233

> <Gold.Chemscore.Internal.Correction.Weighted>
   9.000000E+99

> <Gold.Protein.RotatedTorsions>
[ 6907 6896 6895 6894 ] final  144.17 input  -60.11 | X-H torsion
[ 7974 7965 7964 7962 ] final    9.28 input  175.53 | X-H torsion
[ 8008 7997 7996 7995 ] final   14.29 input   59.86 | X-H torsion
[ 10167 10162 10161 10158 ] final  -87.78 input  -65.29 | X-H torsion
[ 10718 10713 10712 10709 ] final   -1.08 input   66.30 | X-H torsion
[ 10763 10752 10751 10750 ] final    6.88 input  -60.55 | X-H torsion
[ 11005 11000 10999 10996 ] final -117.24 input  -57.11 | X-H torsion

> <Gold.Protein.ActiveResidues>
 VAL166  LYS551  ARG553  GLY616  TRP617  ASP618  TYR619  PRO620  LYS621  CYS622 
 ASP623  PHE694  ASN695  SER759  ASP760  ASP761  ALA762  ILE779  LEU786  VAL792 
 PHE793  MET794  SER795  GLU796  ALA797  LYS798  CYS799  TRP800  GLU811  SER814 

> <Gold.Protein.RotatedAtoms>
  152.1970  133.4813  159.5037 H   0  0  0  0  0  0  0  0  0  0  0  0  # atno 6907 bound_to 6896
  150.6962  134.1639  159.4196 H   0  0  0  0  0  0  0  0  0  0  0  0  # atno 6908 bound_to 6896
  151.9556  135.0148  160.0595 H   0  0  0  0  0  0  0  0  0  0  0  0  # atno 6909 bound_to 6896
  146.2405  139.9808  142.8436 H   0  0  0  0  0  0  0  0  0  0  0  0  # atno 7974 bound_to 7965
  154.8464  140.2923  155.5626 H   0  0  0  0  0  0  0  0  0  0  0  0  # atno 8008 bound_to 7997
  156.3014  140.2504  156.3347 H   0  0  0  0  0  0  0  0  0  0  0  0  # atno 8009 bound_to 7997
  154.9069  140.0389  157.1913 H   0  0  0  0  0  0  0  0  0  0  0  0  # atno 8010 bound_to 7997
  140.3811  143.2748  151.9382 H   0  0  0  0  0  0  0  0  0  0  0  0  # atno 10167 bound_to 10162
  156.8109  130.5424  149.5709 H   0  0  0  0  0  0  0  0  0  0  0  0  # atno 10718 bound_to 10713
  153.2427  135.6905  153.7765 H   0  0  0  0  0  0  0  0  0  0  0  0  # atno 10763 bound_to 10752
  153.6889  135.3316  155.3198 H   0  0  0  0  0  0  0  0  0  0  0  0  # atno 10764 bound_to 10752
  154.8362  135.4540  154.1355 H   0  0  0  0  0  0  0  0  0  0  0  0  # atno 10765 bound_to 10752
  141.0368  133.9898  157.3058 H   0  0  0  0  0  0  0  0  0  0  0  0  # atno 11005 bound_to 11000
  145.1594  140.9665  143.4386 LP  0  0  0  0  0  0  0  0  0  0  0  0  # atno 17320 bound_to 7965
  145.0130  139.3492  143.6110 LP  0  0  0  0  0  0  0  0  0  0  0  0  # atno 17321 bound_to 7965
  139.4795  144.5817  151.7921 LP  0  0  0  0  0  0  0  0  0  0  0  0  # atno 17342 bound_to 10162
  140.4936  144.1274  150.5955 LP  0  0  0  0  0  0  0  0  0  0  0  0  # atno 17343 bound_to 10162
  156.1045  130.5994  150.9948 LP  0  0  0  0  0  0  0  0  0  0  0  0  # atno 17370 bound_to 10713
  157.6506  131.0897  150.8059 LP  0  0  0  0  0  0  0  0  0  0  0  0  # atno 17371 bound_to 10713
  139.9246  135.0201  156.8189 LP  0  0  0  0  0  0  0  0  0  0  0  0  # atno 17394 bound_to 11000
  140.6308  133.9907  155.7661 LP  0  0  0  0  0  0  0  0  0  0  0  0  # atno 17395 bound_to 11000

$$$$
