AV-unprocessed.smi:190|AV-procd|sdf|1492|dock3
  -GOLD-   2262019313D 1   1.00000     0.00000
 Structure written by MMmdl.
 54 58  0  0  0  0  0  0  0  0  1 V2000
  151.9033  137.2325  155.0613 O   0  0  0  0  0  0  0  0  0  0  0  0
  150.5051  137.1359  154.8730 C   0  0  0  0  0  0  0  0  0  0  0  0
  149.7608  138.4278  155.3051 C   0  0  0  0  0  0  0  0  0  0  0  0
  150.0217  138.7501  156.8113 C   0  0  0  0  0  0  0  0  0  0  0  0
  149.5247  137.7541  157.7511 N   0  0  0  0  0  0  0  0  0  0  0  0
  150.2715  136.8232  158.4388 C   0  0  0  0  0  0  0  0  0  0  0  0
  149.5934  136.0326  159.2247 N   0  0  0  0  0  0  0  0  0  0  0  0
  148.2744  136.4272  159.0440 C   0  0  0  0  0  0  0  0  0  0  0  0
  147.0305  135.9904  159.5742 C   0  0  0  0  0  0  0  0  0  0  0  0
  146.9399  134.9638  160.4552 N   0  0  0  0  0  0  0  0  0  0  0  0
  147.9607  133.9235  160.3745 C   0  0  0  0  0  0  0  0  0  0  0  0
  147.8930  133.1550  161.7017 C   0  0  0  0  0  0  0  0  0  0  0  0
  146.7669  133.8307  162.4888 C   0  0  0  0  0  0  0  0  0  0  0  0
  146.6809  135.2334  161.8744 C   0  0  2  0  0  0  0  0  0  0  0  0
  145.3624  135.9427  162.1673 C   0  0  0  0  0  0  0  0  0  0  0  0
  145.7237  137.4301  162.2217 C   0  0  0  0  0  0  0  0  0  0  0  0
  147.1452  137.5032  162.2721 O   0  0  0  0  0  0  0  0  0  0  0  0
  147.6868  136.2104  162.5075 C   0  0  0  0  0  0  0  0  0  0  0  0
  145.9088  136.6429  159.1694 N   0  0  0  0  0  0  0  0  0  0  0  0
  145.9950  137.6406  158.2855 C   0  0  0  0  0  0  0  0  0  0  0  0
  147.0826  138.1437  157.6991 N   0  0  0  0  0  0  0  0  0  0  0  0
  148.2127  137.5060  158.1178 C   0  0  0  0  0  0  0  0  0  0  0  0
  150.2384  139.5757  154.3798 C   0  0  0  0  0  0  0  0  0  0  0  0
  149.3602  140.8356  154.4884 C   0  0  0  0  0  0  0  0  0  0  0  0
  148.0078  140.5076  154.1996 O   0  0  0  0  0  0  0  0  0  0  0  0
  147.4614  139.5736  155.1214 C   0  0  0  0  0  0  0  0  0  0  0  0
  148.2423  138.2481  155.0529 C   0  0  0  0  0  0  0  0  0  0  0  0
  152.1938  138.0676  154.7276 H   0  0  0  0  0  0  0  0  0  0  0  0
  150.3065  136.8974  153.8281 H   0  0  0  0  0  0  0  0  0  0  0  0
  150.1515  136.2801  155.4491 H   0  0  0  0  0  0  0  0  0  0  0  0
  151.0850  138.8825  157.0055 H   0  0  0  0  0  0  0  0  0  0  0  0
  149.5649  139.7052  157.0727 H   0  0  0  0  0  0  0  0  0  0  0  0
  151.3454  136.7528  158.3452 H   0  0  0  0  0  0  0  0  0  0  0  0
  147.7418  133.2659  159.5327 H   0  0  0  0  0  0  0  0  0  0  0  0
  148.9608  134.3326  160.2273 H   0  0  0  0  0  0  0  0  0  0  0  0
  147.7042  132.0912  161.5552 H   0  0  0  0  0  0  0  0  0  0  0  0
  148.8395  133.2555  162.2346 H   0  0  0  0  0  0  0  0  0  0  0  0
  145.8341  133.2933  162.3102 H   0  0  0  0  0  0  0  0  0  0  0  0
  146.9425  133.8328  163.5651 H   0  0  0  0  0  0  0  0  0  0  0  0
  144.5701  135.7122  161.4567 H   0  0  0  0  0  0  0  0  0  0  0  0
  144.9991  135.6420  163.1510 H   0  0  0  0  0  0  0  0  0  0  0  0
  145.3701  137.9596  161.3367 H   0  0  0  0  0  0  0  0  0  0  0  0
  145.2860  137.9110  163.0968 H   0  0  0  0  0  0  0  0  0  0  0  0
  147.7348  136.0654  163.5876 H   0  0  0  0  0  0  0  0  0  0  0  0
  148.7014  136.1171  162.1192 H   0  0  0  0  0  0  0  0  0  0  0  0
  145.0587  138.1021  158.0091 H   0  0  0  0  0  0  0  0  0  0  0  0
  151.2812  139.8268  154.5722 H   0  0  0  0  0  0  0  0  0  0  0  0
  150.2070  139.2403  153.3422 H   0  0  0  0  0  0  0  0  0  0  0  0
  149.4302  141.2954  155.4740 H   0  0  0  0  0  0  0  0  0  0  0  0
  149.6975  141.5840  153.7713 H   0  0  0  0  0  0  0  0  0  0  0  0
  147.4638  139.9911  156.1287 H   0  0  0  0  0  0  0  0  0  0  0  0
  146.4171  139.4010  154.8608 H   0  0  0  0  0  0  0  0  0  0  0  0
  148.0853  137.8162  154.0636 H   0  0  0  0  0  0  0  0  0  0  0  0
  147.8178  137.5363  155.7618 H   0  0  0  0  0  0  0  0  0  0  0  0
  1  2  1  0  0  0  0
  1 28  1  0  0  0  0
  2  3  1  0  0  0  0
  2 29  1  0  0  0  0
  2 30  1  0  0  0  0
  3 27  1  0  0  0  0
  3  4  1  0  0  0  0
  3 23  1  0  0  0  0
  4  5  1  0  0  0  0
  4 31  1  0  0  0  0
  4 32  1  0  0  0  0
  5 22  1  0  0  0  0
  5  6  1  0  0  0  0
  6  7  2  0  0  0  0
  6 33  1  0  0  0  0
  7  8  1  0  0  0  0
  8 22  2  0  0  0  0
  8  9  1  0  0  0  0
  9 10  1  0  0  0  0
  9 19  2  0  0  0  0
 10 14  1  0  0  0  0
 10 11  1  0  0  0  0
 11 12  1  0  0  0  0
 11 34  1  0  0  0  0
 11 35  1  0  0  0  0
 12 13  1  0  0  0  0
 12 36  1  0  0  0  0
 12 37  1  0  0  0  0
 13 14  1  0  0  0  0
 13 38  1  0  0  0  0
 13 39  1  0  0  0  0
 14 18  1  0  0  0  0
 14 15  1  0  0  0  0
 15 16  1  0  0  0  0
 15 40  1  0  0  0  0
 15 41  1  0  0  0  0
 16 17  1  0  0  0  0
 16 42  1  0  0  0  0
 16 43  1  0  0  0  0
 17 18  1  0  0  0  0
 18 44  1  0  0  0  0
 18 45  1  0  0  0  0
 19 20  1  0  0  0  0
 20 21  2  0  0  0  0
 20 46  1  0  0  0  0
 21 22  1  0  0  0  0
 23 24  1  0  0  0  0
 23 47  1  0  0  0  0
 23 48  1  0  0  0  0
 24 25  1  0  0  0  0
 24 49  1  0  0  0  0
 24 50  1  0  0  0  0
 25 26  1  0  0  0  0
 26 27  1  0  0  0  0
 26 51  1  0  0  0  0
 26 52  1  0  0  0  0
 27 53  1  0  0  0  0
 27 54  1  0  0  0  0
M  END
> <s_m_source_file>
AV-unprocessed.smi

> <i_m_source_file_index>
190

> <i_lp_mmshare_version>
43012

> <i_f3d_flags>
0

> <s_epik_input>
W0NIMl0xW0NIMl1PW0NIMl1bQ0gyXUMxKFtDSDJdW09IXSlbQ0gyXW4oW2NIXW4yKWMoYzIzKW5bY0hdbmMzTihbQ0gyXVtDSDJdW0NIMl00KVtDQF00NVtDSDJdW0NIMl1PW0NIMl01

> <s_epik_cmdline>
J2VwaWtfcHl0aG9uJywgJy1waCcsICc3LjAnLCAnLXRuJywgJzgnLCAnLW1hJywgJzIwMCcsICctbWV0YWxfYmluZGluZycsICctaW1hZScsICc8aW5maWxlLm1hZT4nLCAnLW9tYWUnLCAnPG91dGZpbGUubWFlPic=

> <r_lp_tautomer_probability>
1

> <r_epik_Ionization_Penalty>
0.00423054

> <r_epik_Ionization_Penalty_Charging>
0

> <r_epik_Ionization_Penalty_Neutral>
0.00423054

> <r_epik_State_Penalty>
0.00298851

> <r_epik_Charging_Adjusted_Penalty>
0.00298851

> <i_epik_Tot_Q>
0

> <i_epik_Tot_abs_Q>
0

> <r_epik_Metal_State_Penalty>
-0

> <b_epik_Metal_Only>
0

> <s_lp_Force_Field>
OPLS_2005

> <r_lp_Energy>
69.5451

> <b_lp_Chiralities_Consistent>
1

> <s_lp_Variant>
AV-unprocessed.smi:190-2

> <Gold.Version>
5.8.1

> <Gold.Id.Protein>
6NUR|6NUR_protein|mol2

> <Gold.PLP.Fitness>
45.2459

> <Gold.PLP.PLP>
-38.4634

> <Gold.PLP.part.hbond>
-4.0000

> <Gold.PLP.part.metal>
0.0000

> <Gold.PLP.part.buried>
-4.8073

> <Gold.PLP.part.nonpolar>
-29.0835

> <Gold.PLP.part.repulsive>
0.1199

> <Gold.PLP.ligand.clash>
0.0000

> <Gold.PLP.ligand.torsion>
0.7501

> <Gold.PLP.Chemscore.Hbond>
2.6811

> <Gold.PLP.Chemscore.CHOScore>
0.0000

> <Gold.PLP.Chemscore.Metal>
0.0000

> <Gold.Chemscore.Hbonds>
donor molecule, donor type, donor heavy atom, donor atom, acceptor molecule, acceptor atom, score
      P1  H  6896  6907       L1     7  1.00
      P1  H  6931  6943       L1    17  0.35
      P1  H  6934  6947       L1    17  0.36
      P1  H 10752 10765       L1     1  0.96

> <Gold.PLP.Chemscore.Internal.Correction>
0.2392

> <Gold.Rescore>
     Score         DG    S(hbond)    S(metal)    S(lipo)     H(rot)  DE(clash)    DE(int)     intcor
     15.45     -18.60       2.60        0.00      89.80       2.37       1.14       2.01       ----

> <Gold.Chemscore.Fitness>
15.4532

> <Gold.Chemscore.DG>
-18.6023

> <Gold.Chemscore.ZeroCoef>
-5.4800

> <Gold.Chemscore.Hbond>
2.5971

> <Gold.Chemscore.Metal>
0.0000

> <Gold.Chemscore.Lipo>
89.7997

> <Gold.Chemscore.Internal_Hbond>
0.0000

> <Gold.Chemscore.DEClash>
1.1368

> <Gold.Chemscore.DEInternal>
2.0123

> <Gold.Chemscore.Rot>
2.3666

> <Gold.Chemscore.Internal.Correction>
   9.000000E+99

> <Gold.Chemscore.Hbonds>
donor molecule, donor type, donor heavy atom, donor atom, acceptor molecule, acceptor atom, score
      P1  H  6896  6907       L1     7  0.54
      P1  H  6931  6943       L1    17  0.02
      P1  H  6934  6947       L1    17  0.02
      P1  H 10752 10765       L1     1  0.78

> <Gold.Chemscore.Hbond.Weighted>
-8.6743

> <Gold.Chemscore.Metal.Weighted>
-0.0000

> <Gold.Chemscore.Lipo.Weighted>
-10.5066

> <Gold.Chemscore.Internal_Hbond.Weighted>
0.0000

> <Gold.Chemscore.DEClash.Weighted>
1.1368

> <Gold.Chemscore.DEInternal.Weighted>
2.0123

> <Gold.Chemscore.Rot.Weighted>
6.0586

> <Gold.Chemscore.Internal.Correction.Weighted>
   9.000000E+99

> <Gold.Protein.RotatedTorsions>
[ 6907 6896 6895 6894 ] final  -71.01 input  -60.11 | X-H torsion
[ 7974 7965 7964 7962 ] final  -84.56 input  175.53 | X-H torsion
[ 8008 7997 7996 7995 ] final   80.35 input   59.86 | X-H torsion
[ 10167 10162 10161 10158 ] final -160.21 input  -65.29 | X-H torsion
[ 10718 10713 10712 10709 ] final   56.07 input   66.30 | X-H torsion
[ 10763 10752 10751 10750 ] final  176.81 input  -60.55 | X-H torsion
[ 11005 11000 10999 10996 ] final  103.94 input  -57.11 | X-H torsion

> <Gold.Protein.ActiveResidues>
 VAL166  LYS551  ARG553  GLY616  TRP617  ASP618  TYR619  PRO620  LYS621  CYS622 
 ASP623  PHE694  ASN695  SER759  ASP760  ASP761  ALA762  ILE779  LEU786  VAL792 
 PHE793  MET794  SER795  GLU796  ALA797  LYS798  CYS799  TRP800  GLU811  SER814 

> <Gold.Protein.RotatedAtoms>
  150.7231  134.5370  159.5727 H   0  0  0  0  0  0  0  0  0  0  0  0  # atno 6907 bound_to 6896
  152.2889  134.7741  160.0391 H   0  0  0  0  0  0  0  0  0  0  0  0  # atno 6908 bound_to 6896
  151.8361  133.3380  159.3665 H   0  0  0  0  0  0  0  0  0  0  0  0  # atno 6909 bound_to 6896
  145.5050  140.9544  143.1738 H   0  0  0  0  0  0  0  0  0  0  0  0  # atno 7974 bound_to 7965
  155.8823  140.3443  155.5896 H   0  0  0  0  0  0  0  0  0  0  0  0  # atno 8008 bound_to 7997
  155.7706  140.0845  157.2129 H   0  0  0  0  0  0  0  0  0  0  0  0  # atno 8009 bound_to 7997
  154.4025  140.1519  156.2925 H   0  0  0  0  0  0  0  0  0  0  0  0  # atno 8010 bound_to 7997
  139.6556  144.0005  152.2191 H   0  0  0  0  0  0  0  0  0  0  0  0  # atno 10167 bound_to 10162
  157.5400  130.8690  149.8808 H   0  0  0  0  0  0  0  0  0  0  0  0  # atno 10718 bound_to 10713
  154.4861  135.2777  155.1533 H   0  0  0  0  0  0  0  0  0  0  0  0  # atno 10763 bound_to 10752
  154.3224  135.6207  153.5517 H   0  0  0  0  0  0  0  0  0  0  0  0  # atno 10764 bound_to 10752
  152.9881  135.5746  154.5272 H   0  0  0  0  0  0  0  0  0  0  0  0  # atno 10765 bound_to 10752
  139.8787  134.9282  156.5286 H   0  0  0  0  0  0  0  0  0  0  0  0  # atno 11005 bound_to 11000
  144.7759  139.6632  143.7175 LP  0  0  0  0  0  0  0  0  0  0  0  0  # atno 17320 bound_to 7965
  146.2202  139.5622  142.9623 LP  0  0  0  0  0  0  0  0  0  0  0  0  # atno 17321 bound_to 7965
  139.9730  144.6481  150.7971 LP  0  0  0  0  0  0  0  0  0  0  0  0  # atno 17342 bound_to 10162
  140.7557  143.3052  151.2979 LP  0  0  0  0  0  0  0  0  0  0  0  0  # atno 17343 bound_to 10162
  156.0489  130.3722  150.1250 LP  0  0  0  0  0  0  0  0  0  0  0  0  # atno 17370 bound_to 10713
  156.9430  130.9750  151.3512 LP  0  0  0  0  0  0  0  0  0  0  0  0  # atno 17371 bound_to 10713
  140.8397  133.8214  155.9063 LP  0  0  0  0  0  0  0  0  0  0  0  0  # atno 17394 bound_to 11000
  140.9249  134.2095  157.4902 LP  0  0  0  0  0  0  0  0  0  0  0  0  # atno 17395 bound_to 11000

$$$$
