AV-unprocessed.smi:55|AV-procd|sdf|574|dock2
  -GOLD-   2262016473D 1   1.00000     0.00000
 Structure written by MMmdl.
 30 31  0  0  0  0  0  0  0  0  2 V2000
  149.6895  141.6142  155.0183 C   0  0  0  0  0  0  0  0  0  0  0  0
  150.6650  141.3163  156.1434 C   0  0  0  0  0  0  0  0  0  0  0  0
  150.7501  142.0904  157.2483 C   0  0  0  0  0  0  0  0  0  0  0  0
  151.6429  141.8151  158.2690 N   0  0  0  0  0  0  0  0  0  0  0  0
  151.7300  142.7133  159.4792 C   0  0  1  0  0  0  0  0  0  0  0  0
  152.4969  143.9901  159.1597 C   0  0  0  0  0  0  0  0  0  0  0  0
  151.8576  144.9935  160.1123 C   0  0  1  0  0  0  0  0  0  0  0  0
  151.6081  146.2124  159.4363 O   0  0  0  0  0  0  0  0  0  0  0  0
  150.5897  144.2857  160.6515 C   0  0  1  0  0  0  0  0  0  0  0  0
  149.2836  145.1014  160.6100 C   0  0  0  0  0  0  0  0  0  0  0  0
  148.2346  144.3711  161.2097 O   0  0  0  0  0  0  0  0  0  0  0  0
  150.4540  143.1267  159.8379 O   0  0  0  0  0  0  0  0  0  0  0  0
  152.5255  140.7105  158.1529 C   0  0  0  0  0  0  0  0  0  0  0  0
  153.3382  140.5191  159.0577 O   0  0  0  0  0  0  0  0  0  0  0  0
  152.4406  139.9183  157.0460 N   0  5  0  0  0  0  0  0  0  0  0  0
  151.5562  140.1546  156.0344 C   0  0  0  0  0  0  0  0  0  0  0  0
  151.4887  139.4293  155.0422 O   0  0  0  0  0  0  0  0  0  0  0  0
  152.1580  142.1302  160.2969 H   0  0  0  0  0  0  0  0  0  0  0  0
  152.5333  145.2027  160.9425 H   0  0  0  0  0  0  0  0  0  0  0  0
  150.7949  143.9616  161.6737 H   0  0  0  0  0  0  0  0  0  0  0  0
  149.0973  142.5044  155.2317 H   0  0  0  0  0  0  0  0  0  0  0  0
  149.0040  140.7782  154.8772 H   0  0  0  0  0  0  0  0  0  0  0  0
  150.2265  141.7818  154.0842 H   0  0  0  0  0  0  0  0  0  0  0  0
  150.1048  142.9525  157.3293 H   0  0  0  0  0  0  0  0  0  0  0  0
  153.5675  143.8518  159.3129 H   0  0  0  0  0  0  0  0  0  0  0  0
  152.3180  144.2632  158.1179 H   0  0  0  0  0  0  0  0  0  0  0  0
  151.8954  146.1238  158.5406 H   0  0  0  0  0  0  0  0  0  0  0  0
  149.3893  146.0242  161.1807 H   0  0  0  0  0  0  0  0  0  0  0  0
  149.0209  145.3751  159.5875 H   0  0  0  0  0  0  0  0  0  0  0  0
  147.4164  144.7970  161.0042 H   0  0  0  0  0  0  0  0  0  0  0  0
  1  2  1  0  0  0  0
  1 21  1  0  0  0  0
  1 22  1  0  0  0  0
  1 23  1  0  0  0  0
  2 16  1  0  0  0  0
  2  3  2  0  0  0  0
  3  4  1  0  0  0  0
  3 24  1  0  0  0  0
  4  5  1  0  0  0  0
  4 13  1  0  0  0  0
  5 18  1  0  0  0  0
  5 12  1  0  0  0  0
  5  6  1  0  0  0  0
  6  7  1  0  0  0  0
  6 25  1  0  0  0  0
  6 26  1  0  0  0  0
  7 19  1  0  0  0  0
  7  8  1  0  0  0  0
  7  9  1  0  0  0  0
  8 27  1  0  0  0  0
  9 20  1  0  0  0  0
  9 10  1  0  0  0  0
  9 12  1  0  0  0  0
 10 11  1  0  0  0  0
 10 28  1  0  0  0  0
 10 29  1  0  0  0  0
 11 30  1  0  0  0  0
 13 14  2  0  0  0  0
 13 15  1  0  0  0  0
 15 16  1  0  0  0  0
 16 17  2  0  0  0  0
M  CHG  1  15  -1
M  END
> <s_m_source_file>
AV-unprocessed.smi

> <i_m_source_file_index>
55

> <i_lp_mmshare_version>
43012

> <i_f3d_flags>
0

> <s_epik_input>
Tz1jMVtuSF1jKD1PKW4oW2NIXWMxW0NIM10pW0NAQEhdMltDSDJdW0NAQEhdKFtPSF0pW0NAQEhdKE8yKVtDSDJdW09IXQ==

> <s_epik_cmdline>
J2VwaWtfcHl0aG9uJywgJy1waCcsICc3LjAnLCAnLXRuJywgJzgnLCAnLW1hJywgJzIwMCcsICctbWV0YWxfYmluZGluZycsICctaW1hZScsICc8aW5maWxlLm1hZT4nLCAnLW9tYWUnLCAnPG91dGZpbGUubWFlPic=

> <r_lp_tautomer_probability>
0.999537

> <r_epik_Ionization_Penalty>
3.66603

> <r_epik_Ionization_Penalty_Charging>
1.09773e-07

> <r_epik_Ionization_Penalty_Neutral>
3.66603

> <r_epik_State_Penalty>
3.66562

> <r_epik_Charging_Adjusted_Penalty>
3.66562

> <i_epik_Tot_Q>
-1

> <i_epik_Tot_abs_Q>
1

> <r_epik_Metal_State_Penalty>
0.234536

> <b_epik_Metal_Only>
1

> <s_epik_Chemistry_Notes>
This compound contains an acetal/aminal-like group ( X-CH(R)-Y where X, Y are N, S, or O) that may be acid/base labile, releasing an aldehyde.

> <s_lp_Force_Field>
OPLS_2005

> <r_lp_Energy>
40.7451

> <b_lp_Chiralities_Consistent>
1

> <s_lp_Variant>
AV-unprocessed.smi:55-14

> <Gold.Version>
5.8.1

> <Gold.Id.Protein>
6NUR|6NUR_protein|mol2

> <Gold.PLP.Fitness>
47.0656

> <Gold.PLP.PLP>
-34.3189

> <Gold.PLP.part.hbond>
-6.2868

> <Gold.PLP.part.metal>
0.0000

> <Gold.PLP.part.buried>
-1.9417

> <Gold.PLP.part.nonpolar>
-26.0312

> <Gold.PLP.part.repulsive>
0.0939

> <Gold.PLP.ligand.clash>
0.0000

> <Gold.PLP.ligand.torsion>
0.5781

> <Gold.PLP.Chemscore.Hbond>
4.0000

> <Gold.PLP.Chemscore.CHOScore>
0.6262

> <Gold.PLP.Chemscore.Metal>
0.0000

> <Gold.Chemscore.Hbonds>
donor molecule, donor type, donor heavy atom, donor atom, acceptor molecule, acceptor atom, score
      P1  H  6933  6944       L1    11  1.00
      P1  H  7989  7998       L1    17  0.80
      P1  H  7997  8008       L1    15  1.88
      L1  C     3    24       P1  8028  0.54

> <Gold.PLP.Chemscore.Internal.Correction>
0.0242

> <Gold.Rescore>
     Score         DG    S(hbond)    S(metal)    S(lipo)     H(rot)  DE(clash)    DE(int)     intcor
     10.25     -12.53       1.93        0.00      64.09       2.69       1.58       0.71       ----

> <Gold.Chemscore.Fitness>
10.2512

> <Gold.Chemscore.DG>
-12.5343

> <Gold.Chemscore.ZeroCoef>
-5.4800

> <Gold.Chemscore.Hbond>
1.9267

> <Gold.Chemscore.Metal>
0.0000

> <Gold.Chemscore.Lipo>
64.0867

> <Gold.Chemscore.Internal_Hbond>
0.0000

> <Gold.Chemscore.DEClash>
1.5772

> <Gold.Chemscore.DEInternal>
0.7059

> <Gold.Chemscore.Rot>
2.6871

> <Gold.Chemscore.Internal.Correction>
   9.000000E+99

> <Gold.Chemscore.Hbonds>
donor molecule, donor type, donor heavy atom, donor atom, acceptor molecule, acceptor atom, score
      P1  H  6933  6944       L1    11  0.84
      P1  H  7989  7998       L1    17  0.23
      P1  H  7997  8008       L1    15  0.13

> <Gold.Chemscore.Hbond.Weighted>
-6.4353

> <Gold.Chemscore.Metal.Weighted>
-0.0000

> <Gold.Chemscore.Lipo.Weighted>
-7.4981

> <Gold.Chemscore.Internal_Hbond.Weighted>
0.0000

> <Gold.Chemscore.DEClash.Weighted>
1.5772

> <Gold.Chemscore.DEInternal.Weighted>
0.7059

> <Gold.Chemscore.Rot.Weighted>
6.8791

> <Gold.Chemscore.Internal.Correction.Weighted>
   9.000000E+99

> <Gold.Protein.RotatedTorsions>
[ 6907 6896 6895 6894 ] final   89.41 input  -60.11 | X-H torsion
[ 7974 7965 7964 7962 ] final  131.36 input  175.53 | X-H torsion
[ 8008 7997 7996 7995 ] final  -41.39 input   59.86 | X-H torsion
[ 10167 10162 10161 10158 ] final  168.72 input  -65.29 | X-H torsion
[ 10718 10713 10712 10709 ] final  105.68 input   66.30 | X-H torsion
[ 10763 10752 10751 10750 ] final   44.84 input  -60.55 | X-H torsion
[ 11005 11000 10999 10996 ] final  127.97 input  -57.11 | X-H torsion

> <Gold.Protein.ActiveResidues>
 VAL166  LYS551  ARG553  GLY616  TRP617  ASP618  TYR619  PRO620  LYS621  CYS622 
 ASP623  PHE694  ASN695  SER759  ASP760  ASP761  ALA762  ILE779  LEU786  VAL792 
 PHE793  MET794  SER795  GLU796  ALA797  LYS798  CYS799  TRP800  GLU811  SER814 

> <Gold.Protein.RotatedAtoms>
  152.5436  134.1971  159.8696 H   0  0  0  0  0  0  0  0  0  0  0  0  # atno 6907 bound_to 6896
  151.1962  133.4631  159.2603 H   0  0  0  0  0  0  0  0  0  0  0  0  # atno 6908 bound_to 6896
  151.1034  134.9997  159.8515 H   0  0  0  0  0  0  0  0  0  0  0  0  # atno 6909 bound_to 6896
  145.0081  139.4246  143.5258 H   0  0  0  0  0  0  0  0  0  0  0  0  # atno 7974 bound_to 7965
  154.4004  140.1500  156.3183 H   0  0  0  0  0  0  0  0  0  0  0  0  # atno 8008 bound_to 7997
  155.8552  140.3456  155.5698 H   0  0  0  0  0  0  0  0  0  0  0  0  # atno 8009 bound_to 7997
  155.7940  140.0861  157.1984 H   0  0  0  0  0  0  0  0  0  0  0  0  # atno 8010 bound_to 7997
  139.4974  144.3784  151.9649 H   0  0  0  0  0  0  0  0  0  0  0  0  # atno 10167 bound_to 10162
  157.6697  131.0833  150.5892 H   0  0  0  0  0  0  0  0  0  0  0  0  # atno 10718 bound_to 10713
  152.9834  135.6058  154.3340 H   0  0  0  0  0  0  0  0  0  0  0  0  # atno 10763 bound_to 10752
  154.3041  135.2772  155.2599 H   0  0  0  0  0  0  0  0  0  0  0  0  # atno 10764 bound_to 10752
  154.4837  135.5910  153.6464 H   0  0  0  0  0  0  0  0  0  0  0  0  # atno 10765 bound_to 10752
  139.9535  134.9617  156.8933 H   0  0  0  0  0  0  0  0  0  0  0  0  # atno 11005 bound_to 11000
  146.3465  139.9509  142.8729 LP  0  0  0  0  0  0  0  0  0  0  0  0  # atno 17320 bound_to 7965
  145.2060  140.9875  143.4128 LP  0  0  0  0  0  0  0  0  0  0  0  0  # atno 17321 bound_to 7965
  140.3220  144.3416  150.6007 LP  0  0  0  0  0  0  0  0  0  0  0  0  # atno 17342 bound_to 10162
  140.5715  143.2180  151.7591 LP  0  0  0  0  0  0  0  0  0  0  0  0  # atno 17343 bound_to 10162
  156.6193  130.4401  149.5828 LP  0  0  0  0  0  0  0  0  0  0  0  0  # atno 17370 bound_to 10713
  156.2368  130.6828  151.1517 LP  0  0  0  0  0  0  0  0  0  0  0  0  # atno 17371 bound_to 10713
  140.5662  134.0487  155.7415 LP  0  0  0  0  0  0  0  0  0  0  0  0  # atno 17394 bound_to 11000
  141.1203  133.9472  157.2742 LP  0  0  0  0  0  0  0  0  0  0  0  0  # atno 17395 bound_to 11000

$$$$
