AV-unprocessed.smi:1007|AV-procd|sdf|4405|dock6
  -GOLD-   22720 2343D 1   1.00000     0.00000
 Structure written by MMmdl.
 57 59  0  0  0  0  0  0  0  0  3 V2000
  142.3815  136.6008  153.3339 C   0  0  0  0  0  0  0  0  0  0  0  0
  143.6806  137.0485  152.9878 O   0  0  0  0  0  0  0  0  0  0  0  0
  144.2667  137.8530  153.9978 C   0  0  0  0  0  0  0  0  0  0  0  0
  145.6985  138.2145  153.5751 C   0  0  0  0  0  0  0  0  0  0  0  0
  146.0897  139.5801  154.0068 N   0  3  0  0  0  0  0  0  0  0  0  0
  147.3237  140.0563  153.3336 C   0  0  0  0  0  0  0  0  0  0  0  0
  147.6231  141.5105  153.7458 C   0  0  0  0  0  0  0  0  0  0  0  0
  147.7916  141.6796  155.1896 N   0  0  0  0  0  0  0  0  0  0  0  0
  149.0451  141.0917  155.6860 C   0  0  0  0  0  0  0  0  0  0  0  0
  149.5121  141.5460  157.0866 C   0  0  1  0  0  0  0  0  0  0  0  0
  149.5277  140.4315  157.9559 O   0  0  0  0  0  0  0  0  0  0  0  0
  150.8541  142.3009  157.1546 C   0  0  0  0  0  0  0  0  0  0  0  0
  150.9613  143.1401  158.3552 N   0  0  0  0  0  0  0  0  0  0  0  0
  150.3848  144.3400  158.6377 C   0  0  0  0  0  0  0  0  0  0  0  0
  150.8070  144.7166  159.8765 N   0  3  0  0  0  0  0  0  0  0  0  0
  151.6659  143.7435  160.3919 C   0  0  0  0  0  0  0  0  0  0  0  0
  152.3459  143.6771  161.6022 C   0  0  0  0  0  0  0  0  0  0  0  0
  153.1559  142.5407  161.8253 C   0  0  0  0  0  0  0  0  0  0  0  0
  153.9174  142.4392  163.1361 C   0  0  0  0  0  0  0  0  0  0  0  0
  153.2609  141.5156  160.8494 C   0  0  0  0  0  0  0  0  0  0  0  0
  154.1351  140.2986  161.0999 C   0  0  0  0  0  0  0  0  0  0  0  0
  152.5595  141.6008  159.6253 C   0  0  0  0  0  0  0  0  0  0  0  0
  151.7682  142.7284  159.4211 C   0  0  0  0  0  0  0  0  0  0  0  0
  146.5753  141.1865  155.8481 C   0  0  0  0  0  0  0  0  0  0  0  0
  146.2112  139.7312  155.4809 C   0  0  0  0  0  0  0  0  0  0  0  0
  141.9763  135.9916  152.5259 H   0  0  0  0  0  0  0  0  0  0  0  0
  141.7042  137.4409  153.4935 H   0  0  0  0  0  0  0  0  0  0  0  0
  142.4021  135.9907  154.2378 H   0  0  0  0  0  0  0  0  0  0  0  0
  143.6653  138.7439  154.1801 H   0  0  0  0  0  0  0  0  0  0  0  0
  144.2983  137.2936  154.9341 H   0  0  0  0  0  0  0  0  0  0  0  0
  146.4090  137.4868  153.9701 H   0  0  0  0  0  0  0  0  0  0  0  0
  145.7582  138.1428  152.4880 H   0  0  0  0  0  0  0  0  0  0  0  0
  148.1606  139.4006  153.5795 H   0  0  0  0  0  0  0  0  0  0  0  0
  147.1916  140.0101  152.2519 H   0  0  0  0  0  0  0  0  0  0  0  0
  148.5109  141.8689  153.2234 H   0  0  0  0  0  0  0  0  0  0  0  0
  146.8062  142.1489  153.4058 H   0  0  0  0  0  0  0  0  0  0  0  0
  148.9962  140.0039  155.6547 H   0  0  0  0  0  0  0  0  0  0  0  0
  149.8520  141.3531  154.9996 H   0  0  0  0  0  0  0  0  0  0  0  0
  148.7379  142.2128  157.4675 H   0  0  0  0  0  0  0  0  0  0  0  0
  148.6960  139.9875  157.8866 H   0  0  0  0  0  0  0  0  0  0  0  0
  151.6876  141.5997  157.1896 H   0  0  0  0  0  0  0  0  0  0  0  0
  150.9995  142.9317  156.2770 H   0  0  0  0  0  0  0  0  0  0  0  0
  149.7190  144.8958  157.9933 H   0  0  0  0  0  0  0  0  0  0  0  0
  152.2618  144.4618  162.3398 H   0  0  0  0  0  0  0  0  0  0  0  0
  153.6254  141.5412  163.6810 H   0  0  0  0  0  0  0  0  0  0  0  0
  153.7214  143.2976  163.7793 H   0  0  0  0  0  0  0  0  0  0  0  0
  154.9914  142.3999  162.9522 H   0  0  0  0  0  0  0  0  0  0  0  0
  154.1203  139.6142  160.2512 H   0  0  0  0  0  0  0  0  0  0  0  0
  153.7862  139.7506  161.9754 H   0  0  0  0  0  0  0  0  0  0  0  0
  155.1700  140.5978  161.2675 H   0  0  0  0  0  0  0  0  0  0  0  0
  152.6408  140.8222  158.8814 H   0  0  0  0  0  0  0  0  0  0  0  0
  146.6534  141.2708  156.9284 H   0  0  0  0  0  0  0  0  0  0  0  0
  145.7416  141.8320  155.5686 H   0  0  0  0  0  0  0  0  0  0  0  0
  145.2679  139.4755  155.9616 H   0  0  0  0  0  0  0  0  0  0  0  0
  146.9538  139.0327  155.8674 H   0  0  0  0  0  0  0  0  0  0  0  0
  145.3501  140.1989  153.7051 H   0  0  0  0  0  0  0  0  0  0  0  0
  150.5310  145.5773  160.3319 H   0  0  0  0  0  0  0  0  0  0  0  0
  1  2  1  0  0  0  0
  1 26  1  0  0  0  0
  1 27  1  0  0  0  0
  1 28  1  0  0  0  0
  2  3  1  0  0  0  0
  3  4  1  0  0  0  0
  3 29  1  0  0  0  0
  3 30  1  0  0  0  0
  4  5  1  0  0  0  0
  4 31  1  0  0  0  0
  4 32  1  0  0  0  0
  5 25  1  0  0  0  0
  5  6  1  0  0  0  0
  5 56  1  0  0  0  0
  6  7  1  0  0  0  0
  6 33  1  0  0  0  0
  6 34  1  0  0  0  0
  7  8  1  0  0  0  0
  7 35  1  0  0  0  0
  7 36  1  0  0  0  0
  8  9  1  0  0  0  0
  8 24  1  0  0  0  0
  9 10  1  0  0  0  0
  9 37  1  0  0  0  0
  9 38  1  0  0  0  0
 10 11  1  0  0  0  0
 10 12  1  0  0  0  0
 10 39  1  0  0  0  0
 11 40  1  0  0  0  0
 12 13  1  0  0  0  0
 12 41  1  0  0  0  0
 12 42  1  0  0  0  0
 13 23  1  0  0  0  0
 13 14  1  0  0  0  0
 14 15  2  0  0  0  0
 14 43  1  0  0  0  0
 15 16  1  0  0  0  0
 15 57  1  0  0  0  0
 16 23  2  0  0  0  0
 16 17  1  0  0  0  0
 17 18  2  0  0  0  0
 17 44  1  0  0  0  0
 18 19  1  0  0  0  0
 18 20  1  0  0  0  0
 19 45  1  0  0  0  0
 19 46  1  0  0  0  0
 19 47  1  0  0  0  0
 20 21  1  0  0  0  0
 20 22  2  0  0  0  0
 21 48  1  0  0  0  0
 21 49  1  0  0  0  0
 21 50  1  0  0  0  0
 22 23  1  0  0  0  0
 22 51  1  0  0  0  0
 24 25  1  0  0  0  0
 24 52  1  0  0  0  0
 24 53  1  0  0  0  0
 25 54  1  0  0  0  0
 25 55  1  0  0  0  0
M  CHG  1   5   1
M  CHG  1  15   1
M  END
> <s_m_source_file>
AV-unprocessed.smi

> <i_m_source_file_index>
1007

> <i_lp_mmshare_version>
43012

> <i_f3d_flags>
0

> <s_epik_input>
W0NIM11PW0NIMl1bQ0gyXU4xW0NIMl1bQ0gyXU4oW0NIMl1bQ0gyXTEpW0NIMl1bQ0BIXShbT0hdKVtDSDJdbihbY0hdbjIpYyhjMjMpW2NIXWMoW0NIM10pYyhbY0hdMylbQ0gzXQ==

> <s_epik_cmdline>
J2VwaWtfcHl0aG9uJywgJy1waCcsICc3LjAnLCAnLXRuJywgJzgnLCAnLW1hJywgJzIwMCcsICctbWV0YWxfYmluZGluZycsICctaW1hZScsICc8aW5maWxlLm1hZT4nLCAnLW9tYWUnLCAnPG91dGZpbGUubWFlPic=

> <r_epik_Ionization_Penalty>
1.34507

> <r_epik_Ionization_Penalty_Charging>
1.29906

> <r_epik_Ionization_Penalty_Neutral>
0.0460038

> <r_epik_State_Penalty>
2.55679

> <r_epik_Charging_Adjusted_Penalty>
3.85586

> <i_epik_Tot_Q>
2

> <i_epik_Tot_abs_Q>
2

> <r_epik_Metal_State_Penalty>
6.56928

> <b_epik_Metal_Only>
0

> <s_lp_Force_Field>
OPLS_2005

> <r_lp_Energy>
47.3521

> <b_lp_Chiralities_Consistent>
1

> <s_lp_Variant>
AV-unprocessed.smi:1007-8

> <Gold.Version>
5.8.1

> <Gold.Id.Protein>
6NUR|6NUR_protein|mol2

> <Gold.PLP.Fitness>
49.9914

> <Gold.PLP.PLP>
-45.3025

> <Gold.PLP.part.hbond>
-1.0000

> <Gold.PLP.part.metal>
0.0000

> <Gold.PLP.part.buried>
-3.2981

> <Gold.PLP.part.nonpolar>
-41.5387

> <Gold.PLP.part.repulsive>
0.4612

> <Gold.PLP.ligand.clash>
0.0000

> <Gold.PLP.ligand.torsion>
1.5485

> <Gold.PLP.Chemscore.Hbond>
1.6812

> <Gold.PLP.Chemscore.CHOScore>
0.8304

> <Gold.PLP.Chemscore.Metal>
0.0000

> <Gold.Chemscore.Hbonds>
donor molecule, donor type, donor heavy atom, donor atom, acceptor molecule, acceptor atom, score
      L1  H     5    56       P1 10175  1.62
      L1  C    14    43       P1  8028  0.21
      L1  C    14    43       P1  8029  0.72

> <Gold.PLP.Chemscore.Internal.Correction>
0.2514

> <Gold.Rescore>
     Score         DG    S(hbond)    S(metal)    S(lipo)     H(rot)  DE(clash)    DE(int)     intcor
     15.11     -16.97       0.89        0.00     130.63       2.64       0.26       1.60       ----

> <Gold.Chemscore.Fitness>
15.1084

> <Gold.Chemscore.DG>
-16.9660

> <Gold.Chemscore.ZeroCoef>
-5.4800

> <Gold.Chemscore.Hbond>
0.8889

> <Gold.Chemscore.Metal>
0.0000

> <Gold.Chemscore.Lipo>
130.6291

> <Gold.Chemscore.Internal_Hbond>
0.0000

> <Gold.Chemscore.DEClash>
0.2588

> <Gold.Chemscore.DEInternal>
1.5988

> <Gold.Chemscore.Rot>
2.6432

> <Gold.Chemscore.Internal.Correction>
   9.000000E+99

> <Gold.Chemscore.Hbonds>
donor molecule, donor type, donor heavy atom, donor atom, acceptor molecule, acceptor atom, score
      L1  H     5    56       P1 10175  0.77

> <Gold.Chemscore.Hbond.Weighted>
-2.9689

> <Gold.Chemscore.Metal.Weighted>
-0.0000

> <Gold.Chemscore.Lipo.Weighted>
-15.2836

> <Gold.Chemscore.Internal_Hbond.Weighted>
0.0000

> <Gold.Chemscore.DEClash.Weighted>
0.2588

> <Gold.Chemscore.DEInternal.Weighted>
1.5988

> <Gold.Chemscore.Rot.Weighted>
6.7665

> <Gold.Chemscore.Internal.Correction.Weighted>
   9.000000E+99

> <Gold.Protein.RotatedTorsions>
[ 6907 6896 6895 6894 ] final   67.12 input  -60.11 | X-H torsion
[ 7974 7965 7964 7962 ] final   -6.28 input  175.53 | X-H torsion
[ 8008 7997 7996 7995 ] final  -44.48 input   59.86 | X-H torsion
[ 10167 10162 10161 10158 ] final   27.39 input  -65.29 | X-H torsion
[ 10718 10713 10712 10709 ] final   49.21 input   66.30 | X-H torsion
[ 10763 10752 10751 10750 ] final   77.02 input  -60.55 | X-H torsion
[ 11005 11000 10999 10996 ] final  -76.43 input  -57.11 | X-H torsion

> <Gold.Protein.ActiveResidues>
 VAL166  LYS551  ARG553  GLY616  TRP617  ASP618  TYR619  PRO620  LYS621  CYS622 
 ASP623  PHE694  ASN695  SER759  ASP760  ASP761  ALA762  ILE779  LEU786  VAL792 
 PHE793  MET794  SER795  GLU796  ALA797  LYS798  CYS799  TRP800  GLU811  SER814 

> <Gold.Protein.RotatedAtoms>
  152.4530  134.5353  159.9822 H   0  0  0  0  0  0  0  0  0  0  0  0  # atno 6907 bound_to 6896
  151.5421  133.3425  159.2945 H   0  0  0  0  0  0  0  0  0  0  0  0  # atno 6908 bound_to 6896
  150.8464  134.7806  159.7037 H   0  0  0  0  0  0  0  0  0  0  0  0  # atno 6909 bound_to 6896
  146.2334  140.2147  142.8336 H   0  0  0  0  0  0  0  0  0  0  0  0  # atno 7974 bound_to 7965
  154.3997  140.1421  156.3690 H   0  0  0  0  0  0  0  0  0  0  0  0  # atno 8008 bound_to 7997
  155.8110  140.3473  155.5437 H   0  0  0  0  0  0  0  0  0  0  0  0  # atno 8009 bound_to 7997
  155.8386  140.0923  157.1739 H   0  0  0  0  0  0  0  0  0  0  0  0  # atno 8010 bound_to 7997
  140.4942  144.0418  150.6308 H   0  0  0  0  0  0  0  0  0  0  0  0  # atno 10167 bound_to 10162
  157.4764  130.8288  149.8044 H   0  0  0  0  0  0  0  0  0  0  0  0  # atno 10718 bound_to 10713
  153.0768  135.4929  154.8421 H   0  0  0  0  0  0  0  0  0  0  0  0  # atno 10763 bound_to 10752
  154.7098  135.3017  154.9217 H   0  0  0  0  0  0  0  0  0  0  0  0  # atno 10764 bound_to 10752
  153.9914  135.6777  153.4807 H   0  0  0  0  0  0  0  0  0  0  0  0  # atno 10765 bound_to 10752
  141.1654  133.6983  156.7668 H   0  0  0  0  0  0  0  0  0  0  0  0  # atno 11005 bound_to 11000
  144.9679  140.8339  143.5473 LP  0  0  0  0  0  0  0  0  0  0  0  0  # atno 17320 bound_to 7965
  145.2125  139.2197  143.5135 LP  0  0  0  0  0  0  0  0  0  0  0  0  # atno 17321 bound_to 7965
  140.3696  143.2862  152.0293 LP  0  0  0  0  0  0  0  0  0  0  0  0  # atno 17342 bound_to 10162
  139.4857  144.6240  151.7200 LP  0  0  0  0  0  0  0  0  0  0  0  0  # atno 17343 bound_to 10162
  156.0099  130.3838  150.2300 LP  0  0  0  0  0  0  0  0  0  0  0  0  # atno 17370 bound_to 10713
  157.0485  131.0056  151.3261 LP  0  0  0  0  0  0  0  0  0  0  0  0  # atno 17371 bound_to 10713
  140.2493  134.8553  157.3652 LP  0  0  0  0  0  0  0  0  0  0  0  0  # atno 17394 bound_to 11000
  140.1718  134.4599  155.7827 LP  0  0  0  0  0  0  0  0  0  0  0  0  # atno 17395 bound_to 11000

$$$$
