AV-unprocessed.smi:2655|AV-procd|sdf|10298|dock2
  -GOLD-   2272014313D 1   1.00000     0.00000
 Structure written by MMmdl.
 33 34  0  0  0  0  0  0  0  0  2 V2000
  152.1510  129.3254  154.6912 C   0  0  0  0  0  0  0  0  0  0  0  0
  151.8989  130.2811  155.8214 C   0  0  0  0  0  0  0  0  0  0  0  0
  152.5905  130.1492  156.9489 N   0  0  0  0  0  0  0  0  0  0  0  0
  152.1304  131.1381  157.7386 N   0  0  0  0  0  0  0  0  0  0  0  0
  151.1636  131.8816  157.1127 C   0  0  0  0  0  0  0  0  0  0  0  0
  150.5686  132.9182  157.7307 O   0  5  0  0  0  0  0  0  0  0  0  0
  150.9749  131.3712  155.8611 C   0  0  0  0  0  0  0  0  0  0  0  0
  150.0276  131.8292  154.7866 C   0  0  0  0  0  0  0  0  0  0  0  0
  149.0492  130.7119  154.3924 C   0  0  0  0  0  0  0  0  0  0  0  0
  148.4397  130.9683  153.0932 N   0  0  0  0  0  0  0  0  0  0  0  0
  147.2025  131.4487  152.9042 C   0  0  0  0  0  0  0  0  0  0  0  0
  146.4400  131.7421  153.8251 O   0  0  0  0  0  0  0  0  0  0  0  0
  146.9210  131.5581  151.5949 N   0  0  0  0  0  0  0  0  0  0  0  0
  145.7234  132.0119  150.9847 C   0  0  0  0  0  0  0  0  0  0  0  0
  145.4211  131.9826  149.5922 C   0  0  0  0  0  0  0  0  0  0  0  0
  144.1678  132.5242  149.5395 C   0  0  0  0  0  0  0  0  0  0  0  0
  143.2308  132.8047  148.4152 C   0  0  0  0  0  0  0  0  0  0  0  0
  143.7419  132.8556  150.7880 O   0  0  0  0  0  0  0  0  0  0  0  0
  144.7438  132.5234  151.7073 N   0  0  0  0  0  0  0  0  0  0  0  0
  151.2354  129.1254  154.1345 H   0  0  0  0  0  0  0  0  0  0  0  0
  152.5312  128.3692  155.0523 H   0  0  0  0  0  0  0  0  0  0  0  0
  152.8818  129.7332  153.9932 H   0  0  0  0  0  0  0  0  0  0  0  0
  152.4777  131.2858  158.6753 H   0  0  0  0  0  0  0  0  0  0  0  0
  150.5815  132.1589  153.9072 H   0  0  0  0  0  0  0  0  0  0  0  0
  149.4638  132.7003  155.1224 H   0  0  0  0  0  0  0  0  0  0  0  0
  149.5536  129.7439  154.3882 H   0  0  0  0  0  0  0  0  0  0  0  0
  148.2504  130.6423  155.1314 H   0  0  0  0  0  0  0  0  0  0  0  0
  148.9989  130.7529  152.2809 H   0  0  0  0  0  0  0  0  0  0  0  0
  147.6498  131.2755  150.9561 H   0  0  0  0  0  0  0  0  0  0  0  0
  146.0101  131.6288  148.7598 H   0  0  0  0  0  0  0  0  0  0  0  0
  143.5730  132.3296  147.4955 H   0  0  0  0  0  0  0  0  0  0  0  0
  143.1558  133.8772  148.2346 H   0  0  0  0  0  0  0  0  0  0  0  0
  142.2329  132.4273  148.6389 H   0  0  0  0  0  0  0  0  0  0  0  0
  1 20  1  0  0  0  0
  1 21  1  0  0  0  0
  1 22  1  0  0  0  0
  1  2  1  0  0  0  0
  2  7  1  0  0  0  0
  2  3  2  0  0  0  0
  3  4  1  0  0  0  0
  4 23  1  0  0  0  0
  4  5  1  0  0  0  0
  5  7  2  0  0  0  0
  5  6  1  0  0  0  0
  7  8  1  0  0  0  0
  8  9  1  0  0  0  0
  8 24  1  0  0  0  0
  8 25  1  0  0  0  0
  9 10  1  0  0  0  0
  9 26  1  0  0  0  0
  9 27  1  0  0  0  0
 10 11  1  0  0  0  0
 10 28  1  0  0  0  0
 11 12  2  0  0  0  0
 11 13  1  0  0  0  0
 13 14  1  0  0  0  0
 13 29  1  0  0  0  0
 14 19  2  0  0  0  0
 14 15  1  0  0  0  0
 15 16  2  0  0  0  0
 15 30  1  0  0  0  0
 16 17  1  0  0  0  0
 16 18  1  0  0  0  0
 17 31  1  0  0  0  0
 17 32  1  0  0  0  0
 17 33  1  0  0  0  0
 18 19  1  0  0  0  0
M  CHG  1   6  -1
M  END
> <s_m_source_file>
AV-unprocessed.smi

> <i_m_source_file_index>
2655

> <i_lp_mmshare_version>
43012

> <i_f3d_flags>
0

> <s_epik_input>
W0NIM11DMT1OW05IXUMoPU8pW0NASF0xW0NIMl1bQ0gyXVtOSF1DKD1PKVtOSF1jMltjSF1jKFtDSDNdKW9uMg==

> <s_epik_cmdline>
J2VwaWtfcHl0aG9uJywgJy1waCcsICc3LjAnLCAnLXRuJywgJzgnLCAnLW1hJywgJzIwMCcsICctbWV0YWxfYmluZGluZycsICctaW1hZScsICc8aW5maWxlLm1hZT4nLCAnLW9tYWUnLCAnPG91dGZpbGUubWFlPic=

> <r_lp_tautomer_probability>
0.99495

> <r_epik_Ionization_Penalty>
1.68606

> <r_epik_Ionization_Penalty_Charging>
0.00156442

> <r_epik_Ionization_Penalty_Neutral>
1.68449

> <r_epik_State_Penalty>
0.315845

> <r_epik_Charging_Adjusted_Penalty>
0.31741

> <i_epik_Tot_Q>
-1

> <i_epik_Tot_abs_Q>
1

> <r_epik_Metal_State_Penalty>
0.0445802

> <b_epik_Metal_Only>
0

> <s_lp_Force_Field>
OPLS_2005

> <r_lp_Energy>
-3.25288

> <b_lp_Chiralities_Consistent>
1

> <s_lp_Variant>
AV-unprocessed.smi:2655-1

> <Gold.Version>
5.8.1

> <Gold.Id.Protein>
6NUR|6NUR_protein|mol2

> <Gold.PLP.Fitness>
42.0117

> <Gold.PLP.PLP>
-30.8497

> <Gold.PLP.part.hbond>
-3.0000

> <Gold.PLP.part.metal>
0.0000

> <Gold.PLP.part.buried>
-2.9286

> <Gold.PLP.part.nonpolar>
-26.0582

> <Gold.PLP.part.repulsive>
0.5415

> <Gold.PLP.ligand.clash>
0.0000

> <Gold.PLP.ligand.torsion>
0.2229

> <Gold.PLP.Chemscore.Hbond>
3.8640

> <Gold.PLP.Chemscore.CHOScore>
0.0000

> <Gold.PLP.Chemscore.Metal>
0.0000

> <Gold.Chemscore.Hbonds>
donor molecule, donor type, donor heavy atom, donor atom, acceptor molecule, acceptor atom, score
      L1  H    10    28       P1 10747  0.86
      L1  H    13    29       P1 10747  1.00
      P1  H  6896  6907       L1     6  2.00

> <Gold.PLP.Chemscore.Internal.Correction>
0.0159

> <Gold.Rescore>
     Score         DG    S(hbond)    S(metal)    S(lipo)     H(rot)  DE(clash)    DE(int)     intcor
     13.92     -17.32       2.74        0.00      63.43       1.85       1.85       1.55       ----

> <Gold.Chemscore.Fitness>
13.9200

> <Gold.Chemscore.DG>
-17.3224

> <Gold.Chemscore.ZeroCoef>
-5.4800

> <Gold.Chemscore.Hbond>
2.7418

> <Gold.Chemscore.Metal>
0.0000

> <Gold.Chemscore.Lipo>
63.4337

> <Gold.Chemscore.Internal_Hbond>
0.0000

> <Gold.Chemscore.DEClash>
1.8536

> <Gold.Chemscore.DEInternal>
1.5488

> <Gold.Chemscore.Rot>
1.8504

> <Gold.Chemscore.Internal.Correction>
   9.000000E+99

> <Gold.Chemscore.Hbonds>
donor molecule, donor type, donor heavy atom, donor atom, acceptor molecule, acceptor atom, score
      L1  H    10    28       P1 10747  0.29
      L1  H    13    29       P1 10747  0.95
      P1  H  6896  6907       L1     6  0.96

> <Gold.Chemscore.Hbond.Weighted>
-9.1576

> <Gold.Chemscore.Metal.Weighted>
-0.0000

> <Gold.Chemscore.Lipo.Weighted>
-7.4217

> <Gold.Chemscore.Internal_Hbond.Weighted>
0.0000

> <Gold.Chemscore.DEClash.Weighted>
1.8536

> <Gold.Chemscore.DEInternal.Weighted>
1.5488

> <Gold.Chemscore.Rot.Weighted>
4.7369

> <Gold.Chemscore.Internal.Correction.Weighted>
   9.000000E+99

> <Gold.Protein.RotatedTorsions>
[ 6907 6896 6895 6894 ] final -151.27 input  -60.11 | X-H torsion
[ 7974 7965 7964 7962 ] final  161.24 input  175.53 | X-H torsion
[ 8008 7997 7996 7995 ] final -150.00 input   59.86 | X-H torsion
[ 10167 10162 10161 10158 ] final  -72.42 input  -65.29 | X-H torsion
[ 10718 10713 10712 10709 ] final  -16.03 input   66.30 | X-H torsion
[ 10763 10752 10751 10750 ] final  112.71 input  -60.55 | X-H torsion
[ 11005 11000 10999 10996 ] final  146.20 input  -57.11 | X-H torsion

> <Gold.Protein.ActiveResidues>
 VAL166  LYS551  ARG553  GLY616  TRP617  ASP618  TYR619  PRO620  LYS621  CYS622 
 ASP623  PHE694  ASN695  SER759  ASP760  ASP761  ALA762  ILE779  LEU786  VAL792 
 PHE793  MET794  SER795  GLU796  ALA797  LYS798  CYS799  TRP800  GLU811  SER814 

> <Gold.Protein.RotatedAtoms>
  151.2106  133.4558  159.2597 H   0  0  0  0  0  0  0  0  0  0  0  0  # atno 6907 bound_to 6896
  151.0980  134.9955  159.8445 H   0  0  0  0  0  0  0  0  0  0  0  0  # atno 6908 bound_to 6896
  152.5441  134.2035  159.8774 H   0  0  0  0  0  0  0  0  0  0  0  0  # atno 6909 bound_to 6896
  144.7696  139.7870  143.6302 H   0  0  0  0  0  0  0  0  0  0  0  0  # atno 7974 bound_to 7965
  155.6165  140.0677  157.2691 H   0  0  0  0  0  0  0  0  0  0  0  0  # atno 8008 bound_to 7997
  154.4240  140.1792  156.1375 H   0  0  0  0  0  0  0  0  0  0  0  0  # atno 8009 bound_to 7997
  156.0043  140.3333  155.6880 H   0  0  0  0  0  0  0  0  0  0  0  0  # atno 8010 bound_to 7997
  140.5194  143.2334  151.7457 H   0  0  0  0  0  0  0  0  0  0  0  0  # atno 10167 bound_to 10162
  156.5934  130.4805  149.6270 H   0  0  0  0  0  0  0  0  0  0  0  0  # atno 10718 bound_to 10713
  153.4819  135.3677  155.2446 H   0  0  0  0  0  0  0  0  0  0  0  0  # atno 10763 bound_to 10752
  154.8755  135.3956  154.3690 H   0  0  0  0  0  0  0  0  0  0  0  0  # atno 10764 bound_to 10752
  153.4295  135.7082  153.6305 H   0  0  0  0  0  0  0  0  0  0  0  0  # atno 10765 bound_to 10752
  140.0774  134.9117  157.1445 H   0  0  0  0  0  0  0  0  0  0  0  0  # atno 11005 bound_to 11000
  146.1832  139.5034  142.9853 LP  0  0  0  0  0  0  0  0  0  0  0  0  # atno 17320 bound_to 7965
  145.6365  141.0293  143.1835 LP  0  0  0  0  0  0  0  0  0  0  0  0  # atno 17321 bound_to 7965
  139.4919  144.4277  151.9907 LP  0  0  0  0  0  0  0  0  0  0  0  0  # atno 17342 bound_to 10162
  140.3373  144.3245  150.5974 LP  0  0  0  0  0  0  0  0  0  0  0  0  # atno 17343 bound_to 10162
  156.2531  130.6918  151.1663 LP  0  0  0  0  0  0  0  0  0  0  0  0  # atno 17370 bound_to 10713
  157.7298  131.0621  150.5757 LP  0  0  0  0  0  0  0  0  0  0  0  0  # atno 17371 bound_to 10713
  140.3538  134.2570  155.7195 LP  0  0  0  0  0  0  0  0  0  0  0  0  # atno 17394 bound_to 11000
  141.2034  133.7912  157.0340 LP  0  0  0  0  0  0  0  0  0  0  0  0  # atno 17395 bound_to 11000

$$$$
