AV-unprocessed.smi:1573|AV-procd|sdf|6333|dock5
  -GOLD-   22720 6543D 1   1.00000     0.00000
 Structure written by MMmdl.
 41 41  0  0  0  0  0  0  0  0  1 V2000
  147.7501  141.5248  154.0852 C   0  0  0  0  0  0  0  0  0  0  0  0
  149.1884  141.4870  154.6209 C   0  0  0  0  0  0  0  0  0  0  0  0
  149.4270  140.2988  155.4313 N   0  0  0  0  0  0  0  0  0  0  0  0
  150.2934  139.3212  155.1258 C   0  0  0  0  0  0  0  0  0  0  0  0
  151.0140  139.3468  154.1264 O   0  0  0  0  0  0  0  0  0  0  0  0
  150.3446  138.1275  156.0921 C   0  0  2  0  0  0  0  0  0  0  0  0
  148.9446  137.4935  156.1617 C   0  0  0  0  0  0  0  0  0  0  0  0
  150.6891  138.6184  157.4234 N   0  0  0  0  0  0  0  0  0  0  0  0
  151.8526  139.2020  157.7524 C   0  0  0  0  0  0  0  0  0  0  0  0
  152.8058  139.2996  156.9795 O   0  0  0  0  0  0  0  0  0  0  0  0
  151.9431  139.7971  159.1569 C   0  0  0  0  0  0  0  0  0  0  0  0
  152.4015  141.2303  159.0558 C   0  0  0  0  0  0  0  0  0  0  0  0
  153.4688  141.8488  159.7704 C   0  0  0  0  0  0  0  0  0  0  0  0
  154.3794  141.2315  160.7929 C   0  0  0  0  0  0  0  0  0  0  0  0
  153.6285  143.1198  159.4407 N   0  0  0  0  0  0  0  0  0  0  0  0
  152.6827  143.3550  158.5095 N   0  0  0  0  0  0  0  0  0  0  0  0
  152.5822  144.6750  157.9179 C   0  0  0  0  0  0  0  0  0  0  0  0
  151.9172  142.2333  158.2578 C   0  0  0  0  0  0  0  0  0  0  0  0
  150.8012  142.2389  157.2633 C   0  0  0  0  0  0  0  0  0  0  0  0
  147.5741  142.4360  153.5137 H   0  0  0  0  0  0  0  0  0  0  0  0
  147.0255  141.4972  154.8994 H   0  0  0  0  0  0  0  0  0  0  0  0
  147.5461  140.6789  153.4280 H   0  0  0  0  0  0  0  0  0  0  0  0
  149.9030  141.5325  153.7975 H   0  0  0  0  0  0  0  0  0  0  0  0
  149.3719  142.3641  155.2415 H   0  0  0  0  0  0  0  0  0  0  0  0
  148.8719  140.1968  156.2687 H   0  0  0  0  0  0  0  0  0  0  0  0
  151.0679  137.3831  155.7528 H   0  0  0  0  0  0  0  0  0  0  0  0
  148.6285  137.1265  155.1844 H   0  0  0  0  0  0  0  0  0  0  0  0
  148.1897  138.1988  156.5131 H   0  0  0  0  0  0  0  0  0  0  0  0
  148.9391  136.6428  156.8435 H   0  0  0  0  0  0  0  0  0  0  0  0
  149.9608  138.5860  158.1219 H   0  0  0  0  0  0  0  0  0  0  0  0
  150.9777  139.7228  159.6590 H   0  0  0  0  0  0  0  0  0  0  0  0
  152.6364  139.1947  159.7443 H   0  0  0  0  0  0  0  0  0  0  0  0
  154.8924  140.3624  160.3812 H   0  0  0  0  0  0  0  0  0  0  0  0
  153.8170  140.9021  161.6664 H   0  0  0  0  0  0  0  0  0  0  0  0
  155.1406  141.9335  161.1350 H   0  0  0  0  0  0  0  0  0  0  0  0
  151.7243  145.1995  158.3386 H   0  0  0  0  0  0  0  0  0  0  0  0
  152.4531  144.5874  156.8389 H   0  0  0  0  0  0  0  0  0  0  0  0
  153.4854  145.2538  158.1151 H   0  0  0  0  0  0  0  0  0  0  0  0
  150.2256  141.3149  157.3083 H   0  0  0  0  0  0  0  0  0  0  0  0
  151.1893  142.3418  156.2501 H   0  0  0  0  0  0  0  0  0  0  0  0
  150.1169  143.0665  157.4503 H   0  0  0  0  0  0  0  0  0  0  0  0
  1  2  1  0  0  0  0
  1 20  1  0  0  0  0
  1 21  1  0  0  0  0
  1 22  1  0  0  0  0
  2  3  1  0  0  0  0
  2 23  1  0  0  0  0
  2 24  1  0  0  0  0
  3  4  1  0  0  0  0
  3 25  1  0  0  0  0
  4  5  2  0  0  0  0
  4  6  1  0  0  0  0
  6  7  1  0  0  0  0
  6  8  1  0  0  0  0
  6 26  1  0  0  0  0
  7 27  1  0  0  0  0
  7 28  1  0  0  0  0
  7 29  1  0  0  0  0
  8  9  1  0  0  0  0
  8 30  1  0  0  0  0
  9 10  2  0  0  0  0
  9 11  1  0  0  0  0
 11 12  1  0  0  0  0
 11 31  1  0  0  0  0
 11 32  1  0  0  0  0
 12 18  2  0  0  0  0
 12 13  1  0  0  0  0
 13 14  1  0  0  0  0
 13 15  2  0  0  0  0
 14 33  1  0  0  0  0
 14 34  1  0  0  0  0
 14 35  1  0  0  0  0
 15 16  1  0  0  0  0
 16 17  1  0  0  0  0
 16 18  1  0  0  0  0
 17 36  1  0  0  0  0
 17 37  1  0  0  0  0
 17 38  1  0  0  0  0
 18 19  1  0  0  0  0
 19 39  1  0  0  0  0
 19 40  1  0  0  0  0
 19 41  1  0  0  0  0
M  END
> <s_m_source_file>
AV-unprocessed.smi

> <i_m_source_file_index>
1573

> <i_lp_mmshare_version>
43012

> <i_f3d_flags>
0

> <s_epik_input>
W0NIM11bQ0gyXVtOSF1DKD1PKVtDQEhdKFtDSDNdKVtOSF1DKD1PKVtDSDJdYzFjKFtDSDNdKW5uKFtDSDNdKWMxW0NIM10=

> <s_epik_cmdline>
J2VwaWtfcHl0aG9uJywgJy1waCcsICc3LjAnLCAnLXRuJywgJzgnLCAnLW1hJywgJzIwMCcsICctbWV0YWxfYmluZGluZycsICctaW1hZScsICc8aW5maWxlLm1hZT4nLCAnLW9tYWUnLCAnPG91dGZpbGUubWFlPic=

> <r_lp_tautomer_probability>
1

> <r_epik_Ionization_Penalty>
0.00278414

> <r_epik_Ionization_Penalty_Charging>
0

> <r_epik_Ionization_Penalty_Neutral>
0.00278414

> <r_epik_State_Penalty>
0.00194489

> <r_epik_Charging_Adjusted_Penalty>
0.00194489

> <i_epik_Tot_Q>
0

> <i_epik_Tot_abs_Q>
0

> <r_epik_Metal_State_Penalty>
-0

> <b_epik_Metal_Only>
0

> <s_lp_Force_Field>
OPLS_2005

> <r_lp_Energy>
-3.80626

> <b_lp_Chiralities_Consistent>
1

> <s_lp_Variant>
AV-unprocessed.smi:1573-1

> <Gold.Version>
5.8.1

> <Gold.Id.Protein>
6NUR|6NUR_protein|mol2

> <Gold.PLP.Fitness>
42.0510

> <Gold.PLP.PLP>
-36.3766

> <Gold.PLP.part.hbond>
-2.0000

> <Gold.PLP.part.metal>
0.0000

> <Gold.PLP.part.buried>
-3.4840

> <Gold.PLP.part.nonpolar>
-31.6513

> <Gold.PLP.part.repulsive>
0.2620

> <Gold.PLP.ligand.clash>
0.0000

> <Gold.PLP.ligand.torsion>
0.1822

> <Gold.PLP.Chemscore.Hbond>
2.0000

> <Gold.PLP.Chemscore.CHOScore>
0.0000

> <Gold.PLP.Chemscore.Metal>
0.0000

> <Gold.Chemscore.Hbonds>
donor molecule, donor type, donor heavy atom, donor atom, acceptor molecule, acceptor atom, score
      P1  H  7989  7998       L1     5  1.00
      P1  H  7997  8008       L1    10  1.00

> <Gold.PLP.Chemscore.Internal.Correction>
0.0387

> <Gold.Rescore>
     Score         DG    S(hbond)    S(metal)    S(lipo)     H(rot)  DE(clash)    DE(int)     intcor
     17.16     -17.39       2.00        0.00      86.65       1.91       0.13       0.09       ----

> <Gold.Chemscore.Fitness>
17.1650

> <Gold.Chemscore.DG>
-17.3932

> <Gold.Chemscore.ZeroCoef>
-5.4800

> <Gold.Chemscore.Hbond>
1.9953

> <Gold.Chemscore.Metal>
0.0000

> <Gold.Chemscore.Lipo>
86.6522

> <Gold.Chemscore.Internal_Hbond>
0.0000

> <Gold.Chemscore.DEClash>
0.1340

> <Gold.Chemscore.DEInternal>
0.0942

> <Gold.Chemscore.Rot>
1.9100

> <Gold.Chemscore.Internal.Correction>
   9.000000E+99

> <Gold.Chemscore.Hbonds>
donor molecule, donor type, donor heavy atom, donor atom, acceptor molecule, acceptor atom, score
      P1  H  7989  7998       L1     5  0.99
      P1  H  7997  8008       L1    10  1.00

> <Gold.Chemscore.Hbond.Weighted>
-6.6644

> <Gold.Chemscore.Metal.Weighted>
-0.0000

> <Gold.Chemscore.Lipo.Weighted>
-10.1383

> <Gold.Chemscore.Internal_Hbond.Weighted>
0.0000

> <Gold.Chemscore.DEClash.Weighted>
0.1340

> <Gold.Chemscore.DEInternal.Weighted>
0.0942

> <Gold.Chemscore.Rot.Weighted>
4.8896

> <Gold.Chemscore.Internal.Correction.Weighted>
   9.000000E+99

> <Gold.Protein.RotatedTorsions>
[ 6907 6896 6895 6894 ] final  176.69 input  -60.11 | X-H torsion
[ 7974 7965 7964 7962 ] final    9.56 input  175.53 | X-H torsion
[ 8008 7997 7996 7995 ] final  -59.90 input   59.86 | X-H torsion
[ 10167 10162 10161 10158 ] final    5.86 input  -65.29 | X-H torsion
[ 10718 10713 10712 10709 ] final  -95.05 input   66.30 | X-H torsion
[ 10763 10752 10751 10750 ] final  -33.69 input  -60.55 | X-H torsion
[ 11005 11000 10999 10996 ] final -139.79 input  -57.11 | X-H torsion

> <Gold.Protein.ActiveResidues>
 VAL166  LYS551  ARG553  GLY616  TRP617  ASP618  TYR619  PRO620  LYS621  CYS622 
 ASP623  PHE694  ASN695  SER759  ASP760  ASP761  ALA762  ILE779  LEU786  VAL792 
 PHE793  MET794  SER795  GLU796  ALA797  LYS798  CYS799  TRP800  GLU811  SER814 

> <Gold.Protein.RotatedAtoms>
  151.7161  133.3313  159.3302 H   0  0  0  0  0  0  0  0  0  0  0  0  # atno 6907 bound_to 6896
  150.7673  134.6490  159.6287 H   0  0  0  0  0  0  0  0  0  0  0  0  # atno 6908 bound_to 6896
  152.3681  134.6776  160.0237 H   0  0  0  0  0  0  0  0  0  0  0  0  # atno 6909 bound_to 6896
  146.2402  139.9766  142.8441 H   0  0  0  0  0  0  0  0  0  0  0  0  # atno 7974 bound_to 7965
  154.4374  140.1051  156.6189 H   0  0  0  0  0  0  0  0  0  0  0  0  # atno 8008 bound_to 7997
  155.5729  140.3489  155.4501 H   0  0  0  0  0  0  0  0  0  0  0  0  # atno 8009 bound_to 7997
  156.0376  140.1275  157.0180 H   0  0  0  0  0  0  0  0  0  0  0  0  # atno 8010 bound_to 7997
  140.6459  143.7663  150.7498 H   0  0  0  0  0  0  0  0  0  0  0  0  # atno 10167 bound_to 10162
  156.0037  130.5093  150.6018 H   0  0  0  0  0  0  0  0  0  0  0  0  # atno 10718 bound_to 10713
  153.8344  135.6863  153.4810 H   0  0  0  0  0  0  0  0  0  0  0  0  # atno 10763 bound_to 10752
  153.1491  135.4625  154.9609 H   0  0  0  0  0  0  0  0  0  0  0  0  # atno 10764 bound_to 10752
  154.7872  135.3289  154.7804 H   0  0  0  0  0  0  0  0  0  0  0  0  # atno 10765 bound_to 10752
  140.8485  134.2315  157.4773 H   0  0  0  0  0  0  0  0  0  0  0  0  # atno 11005 bound_to 11000
  145.1631  140.9683  143.4365 LP  0  0  0  0  0  0  0  0  0  0  0  0  # atno 17320 bound_to 7965
  145.0097  139.3521  143.6126 LP  0  0  0  0  0  0  0  0  0  0  0  0  # atno 17321 bound_to 7965
  140.1304  143.4531  152.2258 LP  0  0  0  0  0  0  0  0  0  0  0  0  # atno 17342 bound_to 10162
  139.5670  144.7441  151.3996 LP  0  0  0  0  0  0  0  0  0  0  0  0  # atno 17343 bound_to 10162
  157.3866  131.0789  151.1431 LP  0  0  0  0  0  0  0  0  0  0  0  0  # atno 17370 bound_to 10713
  157.2136  130.6449  149.5783 LP  0  0  0  0  0  0  0  0  0  0  0  0  # atno 17371 bound_to 10713
  139.8704  134.9671  156.4586 LP  0  0  0  0  0  0  0  0  0  0  0  0  # atno 17394 bound_to 11000
  140.8816  133.7913  155.9473 LP  0  0  0  0  0  0  0  0  0  0  0  0  # atno 17395 bound_to 11000

$$$$
