AV-unprocessed.smi:678|AV-procd|sdf|3313|dock10
  -GOLD-   22720 0273D 1   1.00000     0.00000
 Structure written by MMmdl.
 51 52  0  0  0  0  0  0  0  0  2 V2000
  152.9975  142.8501  161.5830 C   0  0  0  0  0  0  0  0  0  0  0  0
  152.4910  143.1767  160.1890 C   0  0  0  0  0  0  0  0  0  0  0  0
  152.1687  144.4393  159.8333 C   0  0  0  0  0  0  0  0  0  0  0  0
  151.6861  144.7402  158.5073 C   0  0  0  0  0  0  0  0  0  0  0  0
  151.5677  143.7318  157.6319 C   0  0  0  0  0  0  0  0  0  0  0  0
  151.8996  142.4082  157.9758 N   0  0  0  0  0  0  0  0  0  0  0  0
  151.7263  141.3811  156.9343 C   0  0  0  0  0  0  0  0  0  0  0  0
  150.3324  141.4157  156.2935 C   0  0  0  0  0  0  0  0  0  0  0  0
  149.3937  141.9691  156.8675 O   0  0  0  0  0  0  0  0  0  0  0  0
  150.2158  140.8199  155.0974 N   0  0  0  0  0  0  0  0  0  0  0  0
  148.9706  140.6726  154.3517 C   0  0  0  0  0  0  0  0  0  0  0  0
  148.6721  139.1935  154.0453 C   0  0  2  0  0  0  0  0  0  0  0  0
  147.4212  139.0289  153.1604 C   0  0  0  0  0  0  0  0  0  0  0  0
  147.1321  137.5916  152.9273 N   0  3  2  0  0  0  0  0  0  0  0  0
  145.9656  137.3528  152.0387 C   0  0  0  0  0  0  0  0  0  0  0  0
  145.6463  135.8549  151.8414 C   0  0  0  0  0  0  0  0  0  0  0  0
  144.9840  135.6201  150.4755 C   0  0  0  0  0  0  0  0  0  0  0  0
  144.7587  135.3028  152.9695 C   0  0  0  0  0  0  0  0  0  0  0  0
  147.0146  136.8725  154.2179 C   0  0  0  0  0  0  0  0  0  0  0  0
  148.2647  137.1072  155.0809 C   0  0  0  0  0  0  0  0  0  0  0  0
  148.4483  138.5030  155.2709 O   0  0  0  0  0  0  0  0  0  0  0  0
  152.3576  142.0711  159.2221 C   0  0  0  0  0  0  0  0  0  0  0  0
  152.6378  140.9054  159.5107 O   0  0  0  0  0  0  0  0  0  0  0  0
  153.0503  143.7431  162.2066 H   0  0  0  0  0  0  0  0  0  0  0  0
  153.9959  142.4144  161.5337 H   0  0  0  0  0  0  0  0  0  0  0  0
  152.3342  142.1366  162.0727 H   0  0  0  0  0  0  0  0  0  0  0  0
  152.2695  145.2425  160.5485 H   0  0  0  0  0  0  0  0  0  0  0  0
  151.4237  145.7502  158.2288 H   0  0  0  0  0  0  0  0  0  0  0  0
  151.2079  143.8718  156.6230 H   0  0  0  0  0  0  0  0  0  0  0  0
  152.4655  141.4991  156.1411 H   0  0  0  0  0  0  0  0  0  0  0  0
  151.9161  140.3930  157.3583 H   0  0  0  0  0  0  0  0  0  0  0  0
  151.0425  140.4039  154.6930 H   0  0  0  0  0  0  0  0  0  0  0  0
  148.1381  141.1344  154.8852 H   0  0  0  0  0  0  0  0  0  0  0  0
  149.0828  141.2255  153.4187 H   0  0  0  0  0  0  0  0  0  0  0  0
  149.5350  138.7594  153.5361 H   0  0  0  0  0  0  0  0  0  0  0  0
  146.5604  139.5024  153.6357 H   0  0  0  0  0  0  0  0  0  0  0  0
  147.5836  139.5408  152.2128 H   0  0  0  0  0  0  0  0  0  0  0  0
  145.0841  137.8363  152.4628 H   0  0  0  0  0  0  0  0  0  0  0  0
  146.1435  137.8382  151.0778 H   0  0  0  0  0  0  0  0  0  0  0  0
  146.5763  135.2875  151.8375 H   0  0  0  0  0  0  0  0  0  0  0  0
  144.0265  136.1371  150.4032 H   0  0  0  0  0  0  0  0  0  0  0  0
  144.8021  134.5586  150.3041 H   0  0  0  0  0  0  0  0  0  0  0  0
  145.6177  135.9776  149.6633 H   0  0  0  0  0  0  0  0  0  0  0  0
  143.8100  135.8375  153.0259 H   0  0  0  0  0  0  0  0  0  0  0  0
  145.2473  135.3872  153.9404 H   0  0  0  0  0  0  0  0  0  0  0  0
  144.5348  134.2475  152.8111 H   0  0  0  0  0  0  0  0  0  0  0  0
  146.1251  137.2159  154.7487 H   0  0  0  0  0  0  0  0  0  0  0  0
  146.8898  135.8040  154.0384 H   0  0  0  0  0  0  0  0  0  0  0  0
  148.1453  136.6310  156.0541 H   0  0  0  0  0  0  0  0  0  0  0  0
  149.1505  136.6691  154.6178 H   0  0  0  0  0  0  0  0  0  0  0  0
  147.9363  137.1988  152.4587 H   0  0  0  0  0  0  0  0  0  0  0  0
  1  2  1  0  0  0  0
  1 24  1  0  0  0  0
  1 25  1  0  0  0  0
  1 26  1  0  0  0  0
  2 22  1  0  0  0  0
  2  3  2  0  0  0  0
  3  4  1  0  0  0  0
  3 27  1  0  0  0  0
  4  5  2  0  0  0  0
  4 28  1  0  0  0  0
  5  6  1  0  0  0  0
  5 29  1  0  0  0  0
  6  7  1  0  0  0  0
  6 22  1  0  0  0  0
  7  8  1  0  0  0  0
  7 30  1  0  0  0  0
  7 31  1  0  0  0  0
  8  9  2  0  0  0  0
  8 10  1  0  0  0  0
 10 11  1  0  0  0  0
 10 32  1  0  0  0  0
 11 12  1  0  0  0  0
 11 33  1  0  0  0  0
 11 34  1  0  0  0  0
 12 21  1  0  0  0  0
 12 13  1  0  0  0  0
 12 35  1  0  0  0  0
 13 14  1  0  0  0  0
 13 36  1  0  0  0  0
 13 37  1  0  0  0  0
 14 15  1  0  0  0  0
 14 19  1  0  0  0  0
 14 51  1  0  0  0  0
 15 16  1  0  0  0  0
 15 38  1  0  0  0  0
 15 39  1  0  0  0  0
 16 17  1  0  0  0  0
 16 18  1  0  0  0  0
 16 40  1  0  0  0  0
 17 41  1  0  0  0  0
 17 42  1  0  0  0  0
 17 43  1  0  0  0  0
 18 44  1  0  0  0  0
 18 45  1  0  0  0  0
 18 46  1  0  0  0  0
 19 20  1  0  0  0  0
 19 47  1  0  0  0  0
 19 48  1  0  0  0  0
 20 21  1  0  0  0  0
 20 49  1  0  0  0  0
 20 50  1  0  0  0  0
 22 23  2  0  0  0  0
M  CHG  1  14   1
M  END
> <s_m_source_file>
AV-unprocessed.smi

> <i_m_source_file_index>
678

> <i_lp_mmshare_version>
43012

> <i_f3d_flags>
0

> <s_epik_input>
W0NIM11jMVtjSF1bY0hdW2NIXW4oYzE9TylbQ0gyXUMoPU8pW05IXVtDSDJdW0NAQEhdMltDSDJdTihbQ0gyXVtDSDJdTzIpW0NIMl1bQ0hdKFtDSDNdKVtDSDNd

> <s_epik_cmdline>
J2VwaWtfcHl0aG9uJywgJy1waCcsICc3LjAnLCAnLXRuJywgJzgnLCAnLW1hJywgJzIwMCcsICctbWV0YWxfYmluZGluZycsICctaW1hZScsICc8aW5maWxlLm1hZT4nLCAnLW9tYWUnLCAnPG91dGZpbGUubWFlPic=

> <r_lp_tautomer_probability>
1

> <r_epik_Ionization_Penalty>
0.0975937

> <r_epik_Ionization_Penalty_Charging>
0.0975937

> <r_epik_Ionization_Penalty_Neutral>
6.27044e-08

> <r_epik_State_Penalty>
0.0877056

> <r_epik_Charging_Adjusted_Penalty>
0.185299

> <i_epik_Tot_Q>
1

> <i_epik_Tot_abs_Q>
1

> <r_epik_Metal_State_Penalty>
0.0877109

> <b_epik_Metal_Only>
0

> <s_lp_Force_Field>
OPLS_2005

> <r_lp_Energy>
27.0363

> <b_lp_Chiralities_Consistent>
1

> <s_lp_Variant>
AV-unprocessed.smi:678-1

> <Gold.Version>
5.8.1

> <Gold.Id.Protein>
6NUR|6NUR_protein|mol2

> <Gold.PLP.Fitness>
52.4604

> <Gold.PLP.PLP>
-44.7186

> <Gold.PLP.part.hbond>
-1.0000

> <Gold.PLP.part.metal>
0.0000

> <Gold.PLP.part.buried>
-4.0715

> <Gold.PLP.part.nonpolar>
-39.4900

> <Gold.PLP.part.repulsive>
1.5259

> <Gold.PLP.ligand.clash>
0.0000

> <Gold.PLP.ligand.torsion>
0.6840

> <Gold.PLP.Chemscore.Hbond>
2.0000

> <Gold.PLP.Chemscore.CHOScore>
1.0000

> <Gold.PLP.Chemscore.Metal>
0.0000

> <Gold.Chemscore.Hbonds>
donor molecule, donor type, donor heavy atom, donor atom, acceptor molecule, acceptor atom, score
      L1  H    14    51       P1  7948  1.92
      L1  C     5    29       P1  8028  0.75

> <Gold.PLP.Chemscore.Internal.Correction>
0.1097

> <Gold.Rescore>
     Score         DG    S(hbond)    S(metal)    S(lipo)     H(rot)  DE(clash)    DE(int)     intcor
     16.18     -17.08       1.00        0.00     111.88       1.89       0.16       0.74       ----

> <Gold.Chemscore.Fitness>
16.1788

> <Gold.Chemscore.DG>
-17.0787

> <Gold.Chemscore.ZeroCoef>
-5.4800

> <Gold.Chemscore.Hbond>
1.0000

> <Gold.Chemscore.Metal>
0.0000

> <Gold.Chemscore.Lipo>
111.8776

> <Gold.Chemscore.Internal_Hbond>
0.0000

> <Gold.Chemscore.DEClash>
0.1620

> <Gold.Chemscore.DEInternal>
0.7379

> <Gold.Chemscore.Rot>
1.8871

> <Gold.Chemscore.Internal.Correction>
   9.000000E+99

> <Gold.Chemscore.Hbonds>
donor molecule, donor type, donor heavy atom, donor atom, acceptor molecule, acceptor atom, score
      L1  H    14    51       P1  7948  0.91

> <Gold.Chemscore.Hbond.Weighted>
-3.3399

> <Gold.Chemscore.Metal.Weighted>
-0.0000

> <Gold.Chemscore.Lipo.Weighted>
-13.0897

> <Gold.Chemscore.Internal_Hbond.Weighted>
0.0000

> <Gold.Chemscore.DEClash.Weighted>
0.1620

> <Gold.Chemscore.DEInternal.Weighted>
0.7379

> <Gold.Chemscore.Rot.Weighted>
4.8309

> <Gold.Chemscore.Internal.Correction.Weighted>
   9.000000E+99

> <Gold.Protein.RotatedTorsions>
[ 6907 6896 6895 6894 ] final -111.33 input  -60.11 | X-H torsion
[ 7974 7965 7964 7962 ] final  -40.38 input  175.53 | X-H torsion
[ 8008 7997 7996 7995 ] final  -81.55 input   59.86 | X-H torsion
[ 10167 10162 10161 10158 ] final   58.81 input  -65.29 | X-H torsion
[ 10718 10713 10712 10709 ] final   57.12 input   66.30 | X-H torsion
[ 10763 10752 10751 10750 ] final -113.93 input  -60.55 | X-H torsion
[ 11005 11000 10999 10996 ] final -118.90 input  -57.11 | X-H torsion

> <Gold.Protein.ActiveResidues>
 VAL166  LYS551  ARG553  GLY616  TRP617  ASP618  TYR619  PRO620  LYS621  CYS622 
 ASP623  PHE694  ASN695  SER759  ASP760  ASP761  ALA762  ILE779  LEU786  VAL792 
 PHE793  MET794  SER795  GLU796  ALA797  LYS798  CYS799  TRP800  GLU811  SER814 

> <Gold.Protein.RotatedAtoms>
  150.7683  133.9251  159.3409 H   0  0  0  0  0  0  0  0  0  0  0  0  # atno 6907 bound_to 6896
  151.7144  135.0904  160.0282 H   0  0  0  0  0  0  0  0  0  0  0  0  # atno 6908 bound_to 6896
  152.3689  133.6355  159.6108 H   0  0  0  0  0  0  0  0  0  0  0  0  # atno 6909 bound_to 6896
  146.0310  140.6731  142.9132 H   0  0  0  0  0  0  0  0  0  0  0  0  # atno 7974 bound_to 7965
  154.5995  140.0646  156.9349 H   0  0  0  0  0  0  0  0  0  0  0  0  # atno 8008 bound_to 7997
  155.2157  140.3326  155.4304 H   0  0  0  0  0  0  0  0  0  0  0  0  # atno 8009 bound_to 7997
  156.2309  140.1840  156.7229 H   0  0  0  0  0  0  0  0  0  0  0  0  # atno 8010 bound_to 7997
  140.1831  144.4161  150.6606 H   0  0  0  0  0  0  0  0  0  0  0  0  # atno 10167 bound_to 10162
  157.5488  130.8750  149.8931 H   0  0  0  0  0  0  0  0  0  0  0  0  # atno 10718 bound_to 10713
  154.8418  135.4436  154.1426 H   0  0  0  0  0  0  0  0  0  0  0  0  # atno 10763 bound_to 10752
  153.2607  135.6936  153.7588 H   0  0  0  0  0  0  0  0  0  0  0  0  # atno 10764 bound_to 10752
  153.6865  135.3394  155.3167 H   0  0  0  0  0  0  0  0  0  0  0  0  # atno 10765 bound_to 10752
  141.0253  134.0063  157.3223 H   0  0  0  0  0  0  0  0  0  0  0  0  # atno 11005 bound_to 11000
  144.7030  140.3736  143.7140 LP  0  0  0  0  0  0  0  0  0  0  0  0  # atno 17320 bound_to 7965
  145.7040  139.1668  143.2576 LP  0  0  0  0  0  0  0  0  0  0  0  0  # atno 17321 bound_to 7965
  140.6506  143.2224  151.6086 LP  0  0  0  0  0  0  0  0  0  0  0  0  # atno 17342 bound_to 10162
  139.5287  144.2980  152.1097 LP  0  0  0  0  0  0  0  0  0  0  0  0  # atno 17343 bound_to 10162
  156.0558  130.3708  150.1094 LP  0  0  0  0  0  0  0  0  0  0  0  0  # atno 17370 bound_to 10713
  156.9268  130.9701  151.3539 LP  0  0  0  0  0  0  0  0  0  0  0  0  # atno 17371 bound_to 10713
  139.9172  135.0198  156.7926 LP  0  0  0  0  0  0  0  0  0  0  0  0  # atno 17394 bound_to 11000
  140.6502  133.9738  155.7751 LP  0  0  0  0  0  0  0  0  0  0  0  0  # atno 17395 bound_to 11000

$$$$
