AV-unprocessed.smi:527|AV-procd|sdf|2830|dock3
  -GOLD-   2262023313D 1   1.00000     0.00000
 Structure written by MMmdl.
 43 44  0  0  0  0  0  0  0  0  2 V2000
  148.6087  140.2965  154.4409 C   0  0  0  0  0  0  0  0  0  0  0  0
  149.1998  138.8753  154.4176 C   0  0  1  0  0  0  0  0  0  0  0  0
  150.7400  138.9501  154.4635 C   0  0  0  0  0  0  0  0  0  0  0  0
  151.3895  137.5603  154.4299 C   0  0  0  0  0  0  0  0  0  0  0  0
  150.8629  136.6806  155.5724 C   0  0  0  0  0  0  0  0  0  0  0  0
  149.3251  136.5731  155.5496 C   0  0  2  0  0  0  0  0  0  0  0  0
  148.8725  135.7879  154.4001 N   0  0  0  0  0  0  0  0  0  0  0  0
  148.0550  134.7265  154.4508 C   0  0  0  0  0  0  0  0  0  0  0  0
  147.6476  134.2328  155.5043 O   0  0  0  0  0  0  0  0  0  0  0  0
  147.7493  134.2968  153.2118 N   0  0  0  0  0  0  0  0  0  0  0  0
  147.0369  133.2021  152.8749 C   0  0  0  0  0  0  0  0  0  0  0  0
  146.5591  132.3902  153.6694 O   0  0  0  0  0  0  0  0  0  0  0  0
  146.8086  132.9957  151.3773 C   0  0  0  0  0  0  0  0  0  0  0  0
  145.3780  132.8919  151.0747 N   0  0  0  0  0  0  0  0  0  0  0  0
  144.5106  131.9098  151.4806 C   0  0  0  0  0  0  0  0  0  0  0  0
  143.2866  132.2250  150.9487 C   0  0  0  0  0  0  0  0  0  0  0  0
  143.4585  133.3842  150.2403 N   0  3  0  0  0  0  0  0  0  0  0  0
  144.7309  133.7878  150.3171 C   0  0  0  0  0  0  0  0  0  0  0  0
  148.6594  137.9739  155.5636 C   0  0  2  0  0  0  0  0  0  0  0  0
  147.1213  137.8601  155.5697 C   0  0  0  0  0  0  0  0  0  0  0  0
  148.7895  140.7864  155.3982 H   0  0  0  0  0  0  0  0  0  0  0  0
  147.5335  140.2907  154.2634 H   0  0  0  0  0  0  0  0  0  0  0  0
  149.0533  140.9172  153.6624 H   0  0  0  0  0  0  0  0  0  0  0  0
  148.9188  138.4247  153.4646 H   0  0  0  0  0  0  0  0  0  0  0  0
  151.1096  139.5396  153.6237 H   0  0  0  0  0  0  0  0  0  0  0  0
  151.0555  139.4734  155.3672 H   0  0  0  0  0  0  0  0  0  0  0  0
  151.1901  137.0834  153.4696 H   0  0  0  0  0  0  0  0  0  0  0  0
  152.4729  137.6562  154.5065 H   0  0  0  0  0  0  0  0  0  0  0  0
  151.3176  135.6905  155.5223 H   0  0  0  0  0  0  0  0  0  0  0  0
  151.1775  137.1074  156.5255 H   0  0  0  0  0  0  0  0  0  0  0  0
  149.0136  136.0517  156.4568 H   0  0  0  0  0  0  0  0  0  0  0  0
  149.2067  136.0871  153.4958 H   0  0  0  0  0  0  0  0  0  0  0  0
  148.0865  134.8643  152.4485 H   0  0  0  0  0  0  0  0  0  0  0  0
  147.2241  133.8241  150.8015 H   0  0  0  0  0  0  0  0  0  0  0  0
  147.3038  132.0834  151.0407 H   0  0  0  0  0  0  0  0  0  0  0  0
  144.8203  131.0805  152.0998 H   0  0  0  0  0  0  0  0  0  0  0  0
  142.3320  131.7237  151.0182 H   0  0  0  0  0  0  0  0  0  0  0  0
  145.1533  134.6624  149.8544 H   0  0  0  0  0  0  0  0  0  0  0  0
  148.9410  138.4452  156.5065 H   0  0  0  0  0  0  0  0  0  0  0  0
  146.7378  137.5150  154.6091 H   0  0  0  0  0  0  0  0  0  0  0  0
  146.6489  138.8164  155.7921 H   0  0  0  0  0  0  0  0  0  0  0  0
  146.7849  137.1578  156.3331 H   0  0  0  0  0  0  0  0  0  0  0  0
  142.7303  133.8676  149.7291 H   0  0  0  0  0  0  0  0  0  0  0  0
  1  2  1  0  0  0  0
  1 21  1  0  0  0  0
  1 22  1  0  0  0  0
  1 23  1  0  0  0  0
  2 19  1  0  0  0  0
  2  3  1  0  0  0  0
  2 24  1  0  0  0  0
  3  4  1  0  0  0  0
  3 25  1  0  0  0  0
  3 26  1  0  0  0  0
  4  5  1  0  0  0  0
  4 27  1  0  0  0  0
  4 28  1  0  0  0  0
  5  6  1  0  0  0  0
  5 29  1  0  0  0  0
  5 30  1  0  0  0  0
  6  7  1  0  0  0  0
  6 19  1  0  0  0  0
  6 31  1  0  0  0  0
  7  8  1  0  0  0  0
  7 32  1  0  0  0  0
  8  9  2  0  0  0  0
  8 10  1  0  0  0  0
 10 11  1  0  0  0  0
 10 33  1  0  0  0  0
 11 12  2  0  0  0  0
 11 13  1  0  0  0  0
 13 14  1  0  0  0  0
 13 34  1  0  0  0  0
 13 35  1  0  0  0  0
 14 18  1  0  0  0  0
 14 15  1  0  0  0  0
 15 16  2  0  0  0  0
 15 36  1  0  0  0  0
 16 17  1  0  0  0  0
 16 37  1  0  0  0  0
 17 18  2  0  0  0  0
 17 43  1  0  0  0  0
 18 38  1  0  0  0  0
 19 20  1  0  0  0  0
 19 39  1  0  0  0  0
 20 40  1  0  0  0  0
 20 41  1  0  0  0  0
 20 42  1  0  0  0  0
M  CHG  1  17   1
M  END
> <s_m_source_file>
AV-unprocessed.smi

> <i_m_source_file_index>
527

> <i_lp_mmshare_version>
43012

> <i_f3d_flags>
0

> <s_epik_input>
W0NIM11bQ0BASF0xW0NIMl1bQ0gyXVtDSDJdW0NASF0oW0NASF0xW0NIM10pW05IXUMoPU8pW05IXUMoPU8pW0NIMl1uMltjSF1bY0hdbltjSF0y

> <s_epik_cmdline>
J2VwaWtfcHl0aG9uJywgJy1waCcsICc3LjAnLCAnLXRuJywgJzgnLCAnLW1hJywgJzIwMCcsICctbWV0YWxfYmluZGluZycsICctaW1hZScsICc8aW5maWxlLm1hZT4nLCAnLW9tYWUnLCAnPG91dGZpbGUubWFlPic=

> <r_lp_tautomer_probability>
1

> <r_epik_Ionization_Penalty>
0.816441

> <r_epik_Ionization_Penalty_Charging>
0

> <r_epik_Ionization_Penalty_Neutral>
0.816441

> <r_epik_State_Penalty>
0.849034

> <r_epik_Charging_Adjusted_Penalty>
0.849034

> <i_epik_Tot_Q>
1

> <i_epik_Tot_abs_Q>
1

> <r_epik_Metal_State_Penalty>
0.984327

> <b_epik_Metal_Only>
0

> <s_lp_Force_Field>
OPLS_2005

> <r_lp_Energy>
15.9829

> <b_lp_Chiralities_Consistent>
1

> <s_lp_Variant>
AV-unprocessed.smi:527-16

> <Gold.Version>
5.8.1

> <Gold.Id.Protein>
6NUR|6NUR_protein|mol2

> <Gold.PLP.Fitness>
44.8947

> <Gold.PLP.PLP>
-30.3704

> <Gold.PLP.part.hbond>
-3.0000

> <Gold.PLP.part.metal>
0.0000

> <Gold.PLP.part.buried>
-3.0735

> <Gold.PLP.part.nonpolar>
-25.5669

> <Gold.PLP.part.repulsive>
0.1735

> <Gold.PLP.ligand.clash>
0.0000

> <Gold.PLP.ligand.torsion>
0.1344

> <Gold.PLP.Chemscore.Hbond>
3.9760

> <Gold.PLP.Chemscore.CHOScore>
0.9381

> <Gold.PLP.Chemscore.Metal>
0.0000

> <Gold.Chemscore.Hbonds>
donor molecule, donor type, donor heavy atom, donor atom, acceptor molecule, acceptor atom, score
      L1  H     7    32       P1  7948  1.00
      L1  H    10    33       P1  7948  1.00
      L1  H    17    43       P1 10186  2.00
      L1  C    18    38       P1  7921  0.94

> <Gold.PLP.Chemscore.Internal.Correction>
0.0508

> <Gold.Rescore>
     Score         DG    S(hbond)    S(metal)    S(lipo)     H(rot)  DE(clash)    DE(int)     intcor
     16.23     -17.80       2.81        0.00      62.23       1.71       0.03       1.54       ----

> <Gold.Chemscore.Fitness>
16.2327

> <Gold.Chemscore.DG>
-17.7971

> <Gold.Chemscore.ZeroCoef>
-5.4800

> <Gold.Chemscore.Hbond>
2.8148

> <Gold.Chemscore.Metal>
0.0000

> <Gold.Chemscore.Lipo>
62.2319

> <Gold.Chemscore.Internal_Hbond>
0.0000

> <Gold.Chemscore.DEClash>
0.0285

> <Gold.Chemscore.DEInternal>
1.5359

> <Gold.Chemscore.Rot>
1.7052

> <Gold.Chemscore.Internal.Correction>
   9.000000E+99

> <Gold.Chemscore.Hbonds>
donor molecule, donor type, donor heavy atom, donor atom, acceptor molecule, acceptor atom, score
      L1  H     7    32       P1  7948  0.80
      L1  H    10    33       P1  7948  0.63
      L1  H    17    43       P1 10186  0.96

> <Gold.Chemscore.Hbond.Weighted>
-9.4013

> <Gold.Chemscore.Metal.Weighted>
-0.0000

> <Gold.Chemscore.Lipo.Weighted>
-7.2811

> <Gold.Chemscore.Internal_Hbond.Weighted>
0.0000

> <Gold.Chemscore.DEClash.Weighted>
0.0285

> <Gold.Chemscore.DEInternal.Weighted>
1.5359

> <Gold.Chemscore.Rot.Weighted>
4.3653

> <Gold.Chemscore.Internal.Correction.Weighted>
   9.000000E+99

> <Gold.Protein.RotatedTorsions>
[ 6907 6896 6895 6894 ] final  -24.83 input  -60.11 | X-H torsion
[ 7974 7965 7964 7962 ] final  -32.43 input  175.53 | X-H torsion
[ 8008 7997 7996 7995 ] final  148.39 input   59.86 | X-H torsion
[ 10167 10162 10161 10158 ] final   38.23 input  -65.29 | X-H torsion
[ 10718 10713 10712 10709 ] final   70.92 input   66.30 | X-H torsion
[ 10763 10752 10751 10750 ] final   64.28 input  -60.55 | X-H torsion
[ 11005 11000 10999 10996 ] final -100.29 input  -57.11 | X-H torsion

> <Gold.Protein.ActiveResidues>
 VAL166  LYS551  ARG553  GLY616  TRP617  ASP618  TYR619  PRO620  LYS621  CYS622 
 ASP623  PHE694  ASN695  SER759  ASP760  ASP761  ALA762  ILE779  LEU786  VAL792 
 PHE793  MET794  SER795  GLU796  ALA797  LYS798  CYS799  TRP800  GLU811  SER814 

> <Gold.Protein.RotatedAtoms>
  151.1839  135.0373  159.8803 H   0  0  0  0  0  0  0  0  0  0  0  0  # atno 6907 bound_to 6896
  152.5443  134.1032  159.8337 H   0  0  0  0  0  0  0  0  0  0  0  0  # atno 6908 bound_to 6896
  151.1152  133.5097  159.2636 H   0  0  0  0  0  0  0  0  0  0  0  0  # atno 6909 bound_to 6896
  146.0990  140.5792  142.8829 H   0  0  0  0  0  0  0  0  0  0  0  0  # atno 7974 bound_to 7965
  156.2793  140.2130  156.5690 H   0  0  0  0  0  0  0  0  0  0  0  0  # atno 8008 bound_to 7997
  154.7151  140.0508  157.0609 H   0  0  0  0  0  0  0  0  0  0  0  0  # atno 8009 bound_to 7997
  155.0554  140.3160  155.4681 H   0  0  0  0  0  0  0  0  0  0  0  0  # atno 8010 bound_to 7997
  140.3956  144.1793  150.6132 H   0  0  0  0  0  0  0  0  0  0  0  0  # atno 10167 bound_to 10162
  157.6425  130.9502  150.0718 H   0  0  0  0  0  0  0  0  0  0  0  0  # atno 10718 bound_to 10713
  153.0049  135.5399  154.6485 H   0  0  0  0  0  0  0  0  0  0  0  0  # atno 10763 bound_to 10752
  154.5723  135.2842  155.0817 H   0  0  0  0  0  0  0  0  0  0  0  0  # atno 10764 bound_to 10752
  154.1978  135.6489  153.5131 H   0  0  0  0  0  0  0  0  0  0  0  0  # atno 10765 bound_to 10752
  141.1276  133.8387  157.1082 H   0  0  0  0  0  0  0  0  0  0  0  0  # atno 11005 bound_to 11000
  144.7418  140.4962  143.6864 LP  0  0  0  0  0  0  0  0  0  0  0  0  # atno 17320 bound_to 7965
  145.5891  139.1494  143.3192 LP  0  0  0  0  0  0  0  0  0  0  0  0  # atno 17321 bound_to 7965
  140.4794  143.2384  151.8977 LP  0  0  0  0  0  0  0  0  0  0  0  0  # atno 17342 bound_to 10162
  139.4787  144.5286  151.8699 LP  0  0  0  0  0  0  0  0  0  0  0  0  # atno 17343 bound_to 10162
  156.1720  130.3647  149.9152 LP  0  0  0  0  0  0  0  0  0  0  0  0  # atno 17370 bound_to 10713
  156.7125  130.8976  151.3611 LP  0  0  0  0  0  0  0  0  0  0  0  0  # atno 17371 bound_to 10713
  140.0291  134.9910  157.0745 LP  0  0  0  0  0  0  0  0  0  0  0  0  # atno 17394 bound_to 11000
  140.4314  134.1776  155.7168 LP  0  0  0  0  0  0  0  0  0  0  0  0  # atno 17395 bound_to 11000

$$$$
