AV-unprocessed.smi:937|AV-procd|sdf|4215|dock9
  -GOLD-   22720 2123D 1   1.00000     0.00000
 Structure written by MMmdl.
 46 47  0  0  0  0  0  0  0  0  2 V2000
  153.0929  123.6004  151.5906 C   0  0  0  0  0  0  0  0  0  0  0  0
  151.7938  124.3646  151.4481 C   0  0  0  0  0  0  0  0  0  0  0  0
  151.3438  124.8642  150.2069 C   0  0  0  0  0  0  0  0  0  0  0  0
  150.1223  125.5671  150.1497 C   0  0  0  0  0  0  0  0  0  0  0  0
  149.3755  125.7554  151.3334 C   0  0  0  0  0  0  0  0  0  0  0  0
  148.0596  126.5076  151.3036 C   0  0  0  0  0  0  0  0  0  0  0  0
  147.9968  127.6093  152.3740 C   0  0  0  0  0  0  0  0  0  0  0  0
  147.7257  128.9121  151.7800 N   0  0  0  0  0  0  0  0  0  0  0  0
  146.5197  129.5030  151.7374 C   0  0  0  0  0  0  0  0  0  0  0  0
  145.4981  128.9863  152.1859 O   0  0  0  0  0  0  0  0  0  0  0  0
  146.5081  130.7223  151.1691 N   0  0  0  0  0  0  0  0  0  0  0  0
  145.3705  131.6222  150.9686 C   0  0  2  0  0  0  0  0  0  0  0  0
  145.1973  131.9630  149.4744 C   0  0  0  0  0  0  0  0  0  0  0  0
  144.0535  132.9655  149.2623 C   0  0  0  0  0  0  0  0  0  0  0  0
  144.2683  134.2400  150.0931 C   0  0  0  0  0  0  0  0  0  0  0  0
  144.4385  133.9208  151.5936 C   0  0  2  0  0  0  0  0  0  0  0  0
  144.6436  135.1967  152.4362 C   0  0  0  0  0  0  0  0  0  0  0  0
  144.9155  134.8893  153.7049 F   0  0  0  0  0  0  0  0  0  0  0  0
  145.6522  135.9137  151.9407 F   0  0  0  0  0  0  0  0  0  0  0  0
  143.5433  135.9485  152.4011 F   0  0  0  0  0  0  0  0  0  0  0  0
  145.5850  132.9058  151.7930 C   0  0  0  0  0  0  0  0  0  0  0  0
  149.8757  125.2350  152.5459 C   0  0  0  0  0  0  0  0  0  0  0  0
  151.0503  124.5676  152.5591 N   0  3  0  0  0  0  0  0  0  0  0  0
  153.5734  123.4582  150.6220 H   0  0  0  0  0  0  0  0  0  0  0  0
  152.9108  122.6178  152.0272 H   0  0  0  0  0  0  0  0  0  0  0  0
  153.7834  124.1429  152.2369 H   0  0  0  0  0  0  0  0  0  0  0  0
  151.9243  124.7127  149.3083 H   0  0  0  0  0  0  0  0  0  0  0  0
  149.7653  125.9566  149.2072 H   0  0  0  0  0  0  0  0  0  0  0  0
  147.9213  126.9353  150.3096 H   0  0  0  0  0  0  0  0  0  0  0  0
  147.2429  125.7990  151.4480 H   0  0  0  0  0  0  0  0  0  0  0  0
  147.2028  127.3910  153.0886 H   0  0  0  0  0  0  0  0  0  0  0  0
  148.9273  127.6460  152.9433 H   0  0  0  0  0  0  0  0  0  0  0  0
  148.5112  129.4083  151.3845 H   0  0  0  0  0  0  0  0  0  0  0  0
  147.3972  131.0651  150.8343 H   0  0  0  0  0  0  0  0  0  0  0  0
  144.4610  131.1422  151.3346 H   0  0  0  0  0  0  0  0  0  0  0  0
  146.1242  132.3836  149.0818 H   0  0  0  0  0  0  0  0  0  0  0  0
  145.0000  131.0603  148.8953 H   0  0  0  0  0  0  0  0  0  0  0  0
  143.9760  133.2207  148.2052 H   0  0  0  0  0  0  0  0  0  0  0  0
  143.1052  132.5031  149.5387 H   0  0  0  0  0  0  0  0  0  0  0  0
  145.1496  134.7670  149.7254 H   0  0  0  0  0  0  0  0  0  0  0  0
  143.4233  134.9132  149.9456 H   0  0  0  0  0  0  0  0  0  0  0  0
  143.5167  133.4493  151.9382 H   0  0  0  0  0  0  0  0  0  0  0  0
  145.6707  132.6482  152.8493 H   0  0  0  0  0  0  0  0  0  0  0  0
  146.5333  133.3671  151.5125 H   0  0  0  0  0  0  0  0  0  0  0  0
  149.3765  125.3319  153.4991 H   0  0  0  0  0  0  0  0  0  0  0  0
  151.3909  124.1997  153.4475 H   0  0  0  0  0  0  0  0  0  0  0  0
  1  2  1  0  0  0  0
  1 24  1  0  0  0  0
  1 25  1  0  0  0  0
  1 26  1  0  0  0  0
  2 23  1  0  0  0  0
  2  3  2  0  0  0  0
  3  4  1  0  0  0  0
  3 27  1  0  0  0  0
  4  5  2  0  0  0  0
  4 28  1  0  0  0  0
  5  6  1  0  0  0  0
  5 22  1  0  0  0  0
  6  7  1  0  0  0  0
  6 29  1  0  0  0  0
  6 30  1  0  0  0  0
  7  8  1  0  0  0  0
  7 31  1  0  0  0  0
  7 32  1  0  0  0  0
  8  9  1  0  0  0  0
  8 33  1  0  0  0  0
  9 10  2  0  0  0  0
  9 11  1  0  0  0  0
 11 12  1  0  0  0  0
 11 34  1  0  0  0  0
 12 21  1  0  0  0  0
 12 13  1  0  0  0  0
 12 35  1  0  0  0  0
 13 14  1  0  0  0  0
 13 36  1  0  0  0  0
 13 37  1  0  0  0  0
 14 15  1  0  0  0  0
 14 38  1  0  0  0  0
 14 39  1  0  0  0  0
 15 16  1  0  0  0  0
 15 40  1  0  0  0  0
 15 41  1  0  0  0  0
 16 17  1  0  0  0  0
 16 21  1  0  0  0  0
 16 42  1  0  0  0  0
 17 18  1  0  0  0  0
 17 19  1  0  0  0  0
 17 20  1  0  0  0  0
 21 43  1  0  0  0  0
 21 44  1  0  0  0  0
 22 23  2  0  0  0  0
 22 45  1  0  0  0  0
 23 46  1  0  0  0  0
M  CHG  1  23   1
M  END
> <s_m_source_file>
AV-unprocessed.smi

> <i_m_source_file_index>
937

> <i_lp_mmshare_version>
43012

> <i_f3d_flags>
0

> <s_epik_input>
W0NIM11jMVtjSF1bY0hdYyhbY0hdbjEpW0NIMl1bQ0gyXVtOSF1DKD1PKVtOSF1bQ0BASF0yW0NIMl1bQ0gyXVtDSDJdW0NAQEhdKEMoRikoRilGKVtDSDJdMg==

> <s_epik_cmdline>
J2VwaWtfcHl0aG9uJywgJy1waCcsICc3LjAnLCAnLXRuJywgJzgnLCAnLW1hJywgJzIwMCcsICctbWV0YWxfYmluZGluZycsICctaW1hZScsICc8aW5maWxlLm1hZT4nLCAnLW9tYWUnLCAnPG91dGZpbGUubWFlPic=

> <r_epik_Ionization_Penalty>
1.4226

> <r_epik_Ionization_Penalty_Charging>
1.42255

> <r_epik_Ionization_Penalty_Neutral>
5.16456e-05

> <r_epik_State_Penalty>
1.50646

> <r_epik_Charging_Adjusted_Penalty>
2.92901

> <i_epik_Tot_Q>
1

> <i_epik_Tot_abs_Q>
1

> <r_epik_Metal_State_Penalty>
1.55846

> <b_epik_Metal_Only>
0

> <s_lp_Force_Field>
OPLS_2005

> <r_lp_Energy>
23.9189

> <b_lp_Chiralities_Consistent>
1

> <s_lp_Variant>
AV-unprocessed.smi:937-7

> <Gold.Version>
5.8.1

> <Gold.Id.Protein>
6NUR|6NUR_protein|mol2

> <Gold.PLP.Fitness>
46.1894

> <Gold.PLP.PLP>
-42.4220

> <Gold.PLP.part.hbond>
-2.0000

> <Gold.PLP.part.metal>
0.0000

> <Gold.PLP.part.buried>
-5.4327

> <Gold.PLP.part.nonpolar>
-36.0183

> <Gold.PLP.part.repulsive>
0.2588

> <Gold.PLP.ligand.clash>
0.0000

> <Gold.PLP.ligand.torsion>
0.7228

> <Gold.PLP.Chemscore.Hbond>
1.7296

> <Gold.PLP.Chemscore.CHOScore>
0.0000

> <Gold.PLP.Chemscore.Metal>
0.0000

> <Gold.Chemscore.Hbonds>
donor molecule, donor type, donor heavy atom, donor atom, acceptor molecule, acceptor atom, score
      L1  H     8    33       P1 10747  0.67
      L1  H    11    34       P1 10747  1.00

> <Gold.PLP.Chemscore.Internal.Correction>
0.0243

> <Gold.Rescore>
     Score         DG    S(hbond)    S(metal)    S(lipo)     H(rot)  DE(clash)    DE(int)     intcor
     15.46     -16.23       1.15        0.00      95.32       1.66       0.15       0.62       ----

> <Gold.Chemscore.Fitness>
15.4632

> <Gold.Chemscore.DG>
-16.2330

> <Gold.Chemscore.ZeroCoef>
-5.4800

> <Gold.Chemscore.Hbond>
1.1516

> <Gold.Chemscore.Metal>
0.0000

> <Gold.Chemscore.Lipo>
95.3186

> <Gold.Chemscore.Internal_Hbond>
0.0000

> <Gold.Chemscore.DEClash>
0.1500

> <Gold.Chemscore.DEInternal>
0.6197

> <Gold.Chemscore.Rot>
1.6585

> <Gold.Chemscore.Internal.Correction>
   9.000000E+99

> <Gold.Chemscore.Hbonds>
donor molecule, donor type, donor heavy atom, donor atom, acceptor molecule, acceptor atom, score
      L1  H     8    33       P1 10747  0.08
      L1  H    11    34       P1 10747  0.96

> <Gold.Chemscore.Hbond.Weighted>
-3.8464

> <Gold.Chemscore.Metal.Weighted>
-0.0000

> <Gold.Chemscore.Lipo.Weighted>
-11.1523

> <Gold.Chemscore.Internal_Hbond.Weighted>
0.0000

> <Gold.Chemscore.DEClash.Weighted>
0.1500

> <Gold.Chemscore.DEInternal.Weighted>
0.6197

> <Gold.Chemscore.Rot.Weighted>
4.2457

> <Gold.Chemscore.Internal.Correction.Weighted>
   9.000000E+99

> <Gold.Protein.RotatedTorsions>
[ 6907 6896 6895 6894 ] final -167.27 input  -60.11 | X-H torsion
[ 7974 7965 7964 7962 ] final  168.36 input  175.53 | X-H torsion
[ 8008 7997 7996 7995 ] final -112.93 input   59.86 | X-H torsion
[ 10167 10162 10161 10158 ] final -162.27 input  -65.29 | X-H torsion
[ 10718 10713 10712 10709 ] final  -77.71 input   66.30 | X-H torsion
[ 10763 10752 10751 10750 ] final   46.69 input  -60.55 | X-H torsion
[ 11005 11000 10999 10996 ] final  -47.03 input  -57.11 | X-H torsion

> <Gold.Protein.ActiveResidues>
 VAL166  LYS551  ARG553  GLY616  TRP617  ASP618  TYR619  PRO620  LYS621  CYS622 
 ASP623  PHE694  ASN695  SER759  ASP760  ASP761  ALA762  ILE779  LEU786  VAL792 
 PHE793  MET794  SER795  GLU796  ALA797  LYS798  CYS799  TRP800  GLU811  SER814 

> <Gold.Protein.RotatedAtoms>
  151.4568  133.3603  159.2803 H   0  0  0  0  0  0  0  0  0  0  0  0  # atno 6907 bound_to 6896
  150.9053  134.8469  159.7399 H   0  0  0  0  0  0  0  0  0  0  0  0  # atno 6908 bound_to 6896
  152.4902  134.4493  159.9621 H   0  0  0  0  0  0  0  0  0  0  0  0  # atno 6909 bound_to 6896
  144.7391  139.8897  143.6402 H   0  0  0  0  0  0  0  0  0  0  0  0  # atno 7974 bound_to 7965
  155.0129  140.0393  157.2406 H   0  0  0  0  0  0  0  0  0  0  0  0  # atno 8008 bound_to 7997
  154.7445  140.2755  155.6322 H   0  0  0  0  0  0  0  0  0  0  0  0  # atno 8009 bound_to 7997
  156.2871  140.2659  156.2181 H   0  0  0  0  0  0  0  0  0  0  0  0  # atno 8010 bound_to 7997
  139.6404  144.0270  152.2087 H   0  0  0  0  0  0  0  0  0  0  0  0  # atno 10167 bound_to 10162
  156.0137  130.4498  150.3386 H   0  0  0  0  0  0  0  0  0  0  0  0  # atno 10718 bound_to 10713
  152.9808  135.6000  154.3640 H   0  0  0  0  0  0  0  0  0  0  0  0  # atno 10763 bound_to 10752
  154.3319  135.2768  155.2469 H   0  0  0  0  0  0  0  0  0  0  0  0  # atno 10764 bound_to 10752
  154.4589  135.5971  153.6297 H   0  0  0  0  0  0  0  0  0  0  0  0  # atno 10765 bound_to 10752
  141.0615  133.6707  156.3239 H   0  0  0  0  0  0  0  0  0  0  0  0  # atno 11005 bound_to 11000
  146.1151  139.4161  143.0263 LP  0  0  0  0  0  0  0  0  0  0  0  0  # atno 17320 bound_to 7965
  145.7386  141.0016  143.1313 LP  0  0  0  0  0  0  0  0  0  0  0  0  # atno 17321 bound_to 7965
  139.9958  144.6329  150.7773 LP  0  0  0  0  0  0  0  0  0  0  0  0  # atno 17342 bound_to 10162
  140.7488  143.2928  151.3285 LP  0  0  0  0  0  0  0  0  0  0  0  0  # atno 17343 bound_to 10162
  157.1482  131.0314  151.2897 LP  0  0  0  0  0  0  0  0  0  0  0  0  # atno 17370 bound_to 10713
  157.4414  130.7546  149.7073 LP  0  0  0  0  0  0  0  0  0  0  0  0  # atno 17371 bound_to 10713
  140.5858  134.5700  157.5489 LP  0  0  0  0  0  0  0  0  0  0  0  0  # atno 17394 bound_to 11000
  139.9437  134.7740  156.0614 LP  0  0  0  0  0  0  0  0  0  0  0  0  # atno 17395 bound_to 11000

$$$$
