AV-unprocessed.smi:933|AV-procd|sdf|4203|dock8
  -GOLD-   22720 2113D 1   1.00000     0.00000
 Structure written by MMmdl.
 42 43  0  0  0  0  0  0  0  0  1 V2000
  151.9434  141.3280  158.1569 C   0  0  0  0  0  0  0  0  0  0  0  0
  150.9473  142.3637  157.6246 C   0  0  0  0  0  0  0  0  0  0  0  0
  150.7556  143.5064  158.5645 C   0  0  0  0  0  0  0  0  0  0  0  0
  149.6444  143.6904  159.2819 N   0  0  0  0  0  0  0  0  0  0  0  0
  149.7235  144.8043  160.1245 C   0  0  0  0  0  0  0  0  0  0  0  0
  148.5697  145.1593  161.0181 C   0  0  0  0  0  0  0  0  0  0  0  0
  147.2466  144.4899  160.6072 C   0  0  0  0  0  0  0  0  0  0  0  0
  147.1943  144.2275  159.1696 N   0  0  0  0  0  0  0  0  0  0  0  0
  146.8147  143.0911  158.5619 C   0  0  0  0  0  0  0  0  0  0  0  0
  146.4536  142.1021  159.1969 O   0  0  0  0  0  0  0  0  0  0  0  0
  146.8664  143.1344  157.2202 N   0  0  0  0  0  0  0  0  0  0  0  0
  146.5122  142.0347  156.3244 C   0  0  2  0  0  0  0  0  0  0  0  0
  147.7385  141.5733  155.5071 C   0  0  0  0  0  0  0  0  0  0  0  0
  147.3578  141.7110  154.0297 C   0  0  0  0  0  0  0  0  0  0  0  0
  146.2321  142.7414  154.0086 C   0  0  0  0  0  0  0  0  0  0  0  0
  145.4437  142.4477  155.2860 C   0  0  2  0  0  0  0  0  0  0  0  0
  144.4812  143.5764  155.6961 C   0  0  0  0  0  0  0  0  0  0  0  0
  150.9233  145.4650  160.0341 C   0  0  0  0  0  0  0  0  0  0  0  0
  152.0004  144.7053  158.8948 S   0  0  0  0  0  0  0  0  0  0  0  0
  152.0648  140.5064  157.4507 H   0  0  0  0  0  0  0  0  0  0  0  0
  151.6040  140.9066  159.1038 H   0  0  0  0  0  0  0  0  0  0  0  0
  152.9246  141.7743  158.3216 H   0  0  0  0  0  0  0  0  0  0  0  0
  151.2920  142.7537  156.6666 H   0  0  0  0  0  0  0  0  0  0  0  0
  149.9815  141.8916  157.4408 H   0  0  0  0  0  0  0  0  0  0  0  0
  148.8012  144.8804  162.0467 H   0  0  0  0  0  0  0  0  0  0  0  0
  148.4334  146.2416  161.0339 H   0  0  0  0  0  0  0  0  0  0  0  0
  147.1290  143.5514  161.1516 H   0  0  0  0  0  0  0  0  0  0  0  0
  146.4104  145.1320  160.8877 H   0  0  0  0  0  0  0  0  0  0  0  0
  147.4808  144.9897  158.5716 H   0  0  0  0  0  0  0  0  0  0  0  0
  147.1745  143.9921  156.7863 H   0  0  0  0  0  0  0  0  0  0  0  0
  146.1198  141.2062  156.9172 H   0  0  0  0  0  0  0  0  0  0  0  0
  148.6070  142.1997  155.7171 H   0  0  0  0  0  0  0  0  0  0  0  0
  148.0217  140.5486  155.7491 H   0  0  0  0  0  0  0  0  0  0  0  0
  148.2029  142.0014  153.4048 H   0  0  0  0  0  0  0  0  0  0  0  0
  146.9840  140.7562  153.6578 H   0  0  0  0  0  0  0  0  0  0  0  0
  146.6519  143.7476  154.0478 H   0  0  0  0  0  0  0  0  0  0  0  0
  145.6180  142.6697  153.1103 H   0  0  0  0  0  0  0  0  0  0  0  0
  144.8378  141.5620  155.0874 H   0  0  0  0  0  0  0  0  0  0  0  0
  145.0026  144.5229  155.8424 H   0  0  0  0  0  0  0  0  0  0  0  0
  143.9631  143.3306  156.6234 H   0  0  0  0  0  0  0  0  0  0  0  0
  143.7241  143.7363  154.9279 H   0  0  0  0  0  0  0  0  0  0  0  0
  151.2414  146.3447  160.5735 H   0  0  0  0  0  0  0  0  0  0  0  0
  1  2  1  0  0  0  0
  1 20  1  0  0  0  0
  1 21  1  0  0  0  0
  1 22  1  0  0  0  0
  2  3  1  0  0  0  0
  2 23  1  0  0  0  0
  2 24  1  0  0  0  0
  3 19  1  0  0  0  0
  3  4  2  0  0  0  0
  4  5  1  0  0  0  0
  5  6  1  0  0  0  0
  5 18  2  0  0  0  0
  6  7  1  0  0  0  0
  6 25  1  0  0  0  0
  6 26  1  0  0  0  0
  7  8  1  0  0  0  0
  7 27  1  0  0  0  0
  7 28  1  0  0  0  0
  8  9  1  0  0  0  0
  8 29  1  0  0  0  0
  9 10  2  0  0  0  0
  9 11  1  0  0  0  0
 11 12  1  0  0  0  0
 11 30  1  0  0  0  0
 12 16  1  0  0  0  0
 12 13  1  0  0  0  0
 12 31  1  0  0  0  0
 13 14  1  0  0  0  0
 13 32  1  0  0  0  0
 13 33  1  0  0  0  0
 14 15  1  0  0  0  0
 14 34  1  0  0  0  0
 14 35  1  0  0  0  0
 15 16  1  0  0  0  0
 15 36  1  0  0  0  0
 15 37  1  0  0  0  0
 16 17  1  0  0  0  0
 16 38  1  0  0  0  0
 17 39  1  0  0  0  0
 17 40  1  0  0  0  0
 17 41  1  0  0  0  0
 18 19  1  0  0  0  0
 18 42  1  0  0  0  0
M  END
> <s_m_source_file>
AV-unprocessed.smi

> <i_m_source_file_index>
933

> <i_lp_mmshare_version>
43012

> <i_f3d_flags>
0

> <s_epik_input>
W0NIM11bQ0gyXWMxbmMoW2NIXXMxKVtDSDJdW0NIMl1bTkhdQyg9TylbTkhdW0NAQEhdMltDSDJdW0NIMl1bQ0gyXVtDQEhdMltDSDNd

> <s_epik_cmdline>
J2VwaWtfcHl0aG9uJywgJy1waCcsICc3LjAnLCAnLXRuJywgJzgnLCAnLW1hJywgJzIwMCcsICctbWV0YWxfYmluZGluZycsICctaW1hZScsICc8aW5maWxlLm1hZT4nLCAnLW9tYWUnLCAnPG91dGZpbGUubWFlPic=

> <r_epik_Ionization_Penalty>
0.00203408

> <r_epik_Ionization_Penalty_Charging>
0

> <r_epik_Ionization_Penalty_Neutral>
0.00203408

> <r_epik_State_Penalty>
0.0013452

> <r_epik_Charging_Adjusted_Penalty>
0.0013452

> <i_epik_Tot_Q>
0

> <i_epik_Tot_abs_Q>
0

> <r_epik_Metal_State_Penalty>
-0

> <b_epik_Metal_Only>
0

> <s_lp_Force_Field>
OPLS_2005

> <r_lp_Energy>
20.7198

> <b_lp_Chiralities_Consistent>
1

> <s_lp_Variant>
AV-unprocessed.smi:933-3

> <Gold.Version>
5.8.1

> <Gold.Id.Protein>
6NUR|6NUR_protein|mol2

> <Gold.PLP.Fitness>
45.6742

> <Gold.PLP.PLP>
-41.0090

> <Gold.PLP.part.hbond>
-4.3487

> <Gold.PLP.part.metal>
0.0000

> <Gold.PLP.part.buried>
-5.6093

> <Gold.PLP.part.nonpolar>
-31.7032

> <Gold.PLP.part.repulsive>
0.2375

> <Gold.PLP.ligand.clash>
0.0000

> <Gold.PLP.ligand.torsion>
0.6284

> <Gold.PLP.Chemscore.Hbond>
1.9600

> <Gold.PLP.Chemscore.CHOScore>
0.0000

> <Gold.PLP.Chemscore.Metal>
0.0000

> <Gold.Chemscore.Hbonds>
donor molecule, donor type, donor heavy atom, donor atom, acceptor molecule, acceptor atom, score
      L1  H     8    29       P1  8029  1.00
      P1  H  6934  6946       L1    10  0.96

> <Gold.PLP.Chemscore.Internal.Correction>
0.0421

> <Gold.Rescore>
     Score         DG    S(hbond)    S(metal)    S(lipo)     H(rot)  DE(clash)    DE(int)     intcor
     18.14     -18.92       1.93        0.00      93.54       1.55       0.06       0.71       ----

> <Gold.Chemscore.Fitness>
18.1428

> <Gold.Chemscore.DG>
-18.9164

> <Gold.Chemscore.ZeroCoef>
-5.4800

> <Gold.Chemscore.Hbond>
1.9330

> <Gold.Chemscore.Metal>
0.0000

> <Gold.Chemscore.Lipo>
93.5356

> <Gold.Chemscore.Internal_Hbond>
0.0000

> <Gold.Chemscore.DEClash>
0.0635

> <Gold.Chemscore.DEInternal>
0.7101

> <Gold.Chemscore.Rot>
1.5482

> <Gold.Chemscore.Internal.Correction>
   9.000000E+99

> <Gold.Chemscore.Hbonds>
donor molecule, donor type, donor heavy atom, donor atom, acceptor molecule, acceptor atom, score
      L1  H     8    29       P1  8029  1.00
      P1  H  6934  6946       L1    10  0.88

> <Gold.Chemscore.Hbond.Weighted>
-6.4562

> <Gold.Chemscore.Metal.Weighted>
-0.0000

> <Gold.Chemscore.Lipo.Weighted>
-10.9437

> <Gold.Chemscore.Internal_Hbond.Weighted>
0.0000

> <Gold.Chemscore.DEClash.Weighted>
0.0635

> <Gold.Chemscore.DEInternal.Weighted>
0.7101

> <Gold.Chemscore.Rot.Weighted>
3.9635

> <Gold.Chemscore.Internal.Correction.Weighted>
   9.000000E+99

> <Gold.Protein.RotatedTorsions>
[ 6907 6896 6895 6894 ] final -161.75 input  -60.11 | X-H torsion
[ 7974 7965 7964 7962 ] final -152.78 input  175.53 | X-H torsion
[ 8008 7997 7996 7995 ] final -146.99 input   59.86 | X-H torsion
[ 10167 10162 10161 10158 ] final  -78.26 input  -65.29 | X-H torsion
[ 10718 10713 10712 10709 ] final -143.47 input   66.30 | X-H torsion
[ 10763 10752 10751 10750 ] final   25.31 input  -60.55 | X-H torsion
[ 11005 11000 10999 10996 ] final  -90.63 input  -57.11 | X-H torsion

> <Gold.Protein.ActiveResidues>
 VAL166  LYS551  ARG553  GLY616  TRP617  ASP618  TYR619  PRO620  LYS621  CYS622 
 ASP623  PHE694  ASN695  SER759  ASP760  ASP761  ALA762  ILE779  LEU786  VAL792 
 PHE793  MET794  SER795  GLU796  ALA797  LYS798  CYS799  TRP800  GLU811  SER814 

> <Gold.Protein.RotatedAtoms>
  151.3695  133.3860  159.2697 H   0  0  0  0  0  0  0  0  0  0  0  0  # atno 6907 bound_to 6896
  150.9662  134.9044  159.7771 H   0  0  0  0  0  0  0  0  0  0  0  0  # atno 6908 bound_to 6896
  152.5168  134.3655  159.9352 H   0  0  0  0  0  0  0  0  0  0  0  0  # atno 6909 bound_to 6896
  144.7776  140.4616  143.5862 H   0  0  0  0  0  0  0  0  0  0  0  0  # atno 7974 bound_to 7965
  155.5683  140.0632  157.2813 H   0  0  0  0  0  0  0  0  0  0  0  0  # atno 8008 bound_to 7997
  154.4369  140.1873  156.0898 H   0  0  0  0  0  0  0  0  0  0  0  0  # atno 8009 bound_to 7997
  156.0396  140.3297  155.7232 H   0  0  0  0  0  0  0  0  0  0  0  0  # atno 8010 bound_to 7997
  140.4698  143.2430  151.8223 H   0  0  0  0  0  0  0  0  0  0  0  0  # atno 10167 bound_to 10162
  156.3584  130.7725  151.1889 H   0  0  0  0  0  0  0  0  0  0  0  0  # atno 10718 bound_to 10713
  153.0701  135.6586  154.0267 H   0  0  0  0  0  0  0  0  0  0  0  0  # atno 10763 bound_to 10752
  153.9915  135.2945  155.3413 H   0  0  0  0  0  0  0  0  0  0  0  0  # atno 10764 bound_to 10752
  154.7072  135.5220  153.8682 H   0  0  0  0  0  0  0  0  0  0  0  0  # atno 10765 bound_to 10752
  141.1561  133.7704  156.9765 H   0  0  0  0  0  0  0  0  0  0  0  0  # atno 11005 bound_to 11000
  145.6142  139.1516  143.3059 LP  0  0  0  0  0  0  0  0  0  0  0  0  # atno 17320 bound_to 7965
  146.1965  140.6256  142.9122 LP  0  0  0  0  0  0  0  0  0  0  0  0  # atno 17321 bound_to 7965
  139.4817  144.4906  151.9189 LP  0  0  0  0  0  0  0  0  0  0  0  0  # atno 17342 bound_to 10162
  140.3992  144.2516  150.5894 LP  0  0  0  0  0  0  0  0  0  0  0  0  # atno 17343 bound_to 10162
  157.7470  131.0407  150.4612 LP  0  0  0  0  0  0  0  0  0  0  0  0  # atno 17370 bound_to 10713
  156.4818  130.4075  149.6457 LP  0  0  0  0  0  0  0  0  0  0  0  0  # atno 17371 bound_to 10713
  140.1094  134.9486  157.2043 LP  0  0  0  0  0  0  0  0  0  0  0  0  # atno 17394 bound_to 11000
  140.3214  134.2913  155.7245 LP  0  0  0  0  0  0  0  0  0  0  0  0  # atno 17395 bound_to 11000

$$$$
