AV-unprocessed.smi:2925|AV-procd|sdf|11224|dock10
  -GOLD-   2272016113D 1   1.00000     0.00000
 Structure written by MMmdl.
 44 45  0  0  0  0  0  0  0  0  1 V2000
  150.3390  132.7118  155.1558 C   0  0  0  0  0  0  0  0  0  0  0  0
  150.6942  134.1824  155.4206 C   0  0  0  0  0  0  0  0  0  0  0  0
  149.4904  135.1439  155.3352 C   0  0  2  0  0  0  0  0  0  0  0  0
  148.7802  134.9456  154.0713 N   0  0  0  0  0  0  0  0  0  0  0  0
  147.8233  134.0353  153.8414 C   0  0  0  0  0  0  0  0  0  0  0  0
  147.4159  133.2362  154.6852 O   0  0  0  0  0  0  0  0  0  0  0  0
  147.3979  134.0881  152.5669 N   0  0  0  0  0  0  0  0  0  0  0  0
  146.4671  133.2229  151.9717 C   0  0  0  0  0  0  0  0  0  0  0  0
  145.4677  133.7508  151.2170 C   0  0  0  0  0  0  0  0  0  0  0  0
  145.3536  135.2474  150.9728 C   0  0  0  0  0  0  0  0  0  0  0  0
  144.5017  132.8612  150.6069 C   0  0  0  0  0  0  0  0  0  0  0  0
  144.6078  131.5399  150.8018 C   0  0  0  0  0  0  0  0  0  0  0  0
  145.6228  130.9918  151.5993 N   0  0  0  0  0  0  0  0  0  0  0  0
  145.6412  129.5361  151.7667 C   0  0  0  0  0  0  0  0  0  0  0  0
  146.5471  131.7660  152.2372 C   0  0  0  0  0  0  0  0  0  0  0  0
  147.3773  131.2624  152.9974 O   0  0  0  0  0  0  0  0  0  0  0  0
  149.9225  136.6191  155.4548 C   0  0  1  0  0  0  0  0  0  0  0  0
  151.0703  137.0260  154.5277 C   0  0  0  0  0  0  0  0  0  0  0  0
  150.8724  138.5214  154.4379 C   0  0  0  0  0  0  0  0  0  0  0  0
  149.3510  138.6343  154.4047 C   0  0  0  0  0  0  0  0  0  0  0  0
  148.8530  137.4909  155.0954 O   0  0  0  0  0  0  0  0  0  0  0  0
  151.2125  132.0737  155.2898 H   0  0  0  0  0  0  0  0  0  0  0  0
  149.9771  132.5614  154.1386 H   0  0  0  0  0  0  0  0  0  0  0  0
  149.5658  132.3646  155.8418 H   0  0  0  0  0  0  0  0  0  0  0  0
  151.1394  134.2514  156.4136 H   0  0  0  0  0  0  0  0  0  0  0  0
  151.4692  134.4972  154.7205 H   0  0  0  0  0  0  0  0  0  0  0  0
  148.8274  134.9282  156.1751 H   0  0  0  0  0  0  0  0  0  0  0  0
  149.0483  135.5491  153.3079 H   0  0  0  0  0  0  0  0  0  0  0  0
  147.8892  134.7067  151.9388 H   0  0  0  0  0  0  0  0  0  0  0  0
  144.5007  135.4799  150.3347 H   0  0  0  0  0  0  0  0  0  0  0  0
  146.2519  135.6245  150.4825 H   0  0  0  0  0  0  0  0  0  0  0  0
  145.2225  135.7806  151.9149 H   0  0  0  0  0  0  0  0  0  0  0  0
  143.7052  133.2532  149.9910 H   0  0  0  0  0  0  0  0  0  0  0  0
  143.9202  130.8275  150.3697 H   0  0  0  0  0  0  0  0  0  0  0  0
  146.6330  129.1324  151.5567 H   0  0  0  0  0  0  0  0  0  0  0  0
  144.9428  129.0285  151.1004 H   0  0  0  0  0  0  0  0  0  0  0  0
  145.3745  129.2690  152.7902 H   0  0  0  0  0  0  0  0  0  0  0  0
  150.2035  136.8464  156.4847 H   0  0  0  0  0  0  0  0  0  0  0  0
  152.0514  136.7478  154.9138 H   0  0  0  0  0  0  0  0  0  0  0  0
  150.9489  136.5734  153.5422 H   0  0  0  0  0  0  0  0  0  0  0  0
  151.2661  139.0040  155.3336 H   0  0  0  0  0  0  0  0  0  0  0  0
  151.3535  138.9689  153.5677 H   0  0  0  0  0  0  0  0  0  0  0  0
  148.9963  139.5590  154.8603 H   0  0  0  0  0  0  0  0  0  0  0  0
  148.9868  138.6016  153.3772 H   0  0  0  0  0  0  0  0  0  0  0  0
  1  2  1  0  0  0  0
  1 22  1  0  0  0  0
  1 23  1  0  0  0  0
  1 24  1  0  0  0  0
  2  3  1  0  0  0  0
  2 25  1  0  0  0  0
  2 26  1  0  0  0  0
  3  4  1  0  0  0  0
  3 17  1  0  0  0  0
  3 27  1  0  0  0  0
  4  5  1  0  0  0  0
  4 28  1  0  0  0  0
  5  6  2  0  0  0  0
  5  7  1  0  0  0  0
  7  8  1  0  0  0  0
  7 29  1  0  0  0  0
  8 15  1  0  0  0  0
  8  9  2  0  0  0  0
  9 10  1  0  0  0  0
  9 11  1  0  0  0  0
 10 30  1  0  0  0  0
 10 31  1  0  0  0  0
 10 32  1  0  0  0  0
 11 12  2  0  0  0  0
 11 33  1  0  0  0  0
 12 13  1  0  0  0  0
 12 34  1  0  0  0  0
 13 14  1  0  0  0  0
 13 15  1  0  0  0  0
 14 35  1  0  0  0  0
 14 36  1  0  0  0  0
 14 37  1  0  0  0  0
 15 16  2  0  0  0  0
 17 21  1  0  0  0  0
 17 18  1  0  0  0  0
 17 38  1  0  0  0  0
 18 19  1  0  0  0  0
 18 39  1  0  0  0  0
 18 40  1  0  0  0  0
 19 20  1  0  0  0  0
 19 41  1  0  0  0  0
 19 42  1  0  0  0  0
 20 21  1  0  0  0  0
 20 43  1  0  0  0  0
 20 44  1  0  0  0  0
M  END
> <s_m_source_file>
AV-unprocessed.smi

> <i_m_source_file_index>
2925

> <i_lp_mmshare_version>
43012

> <i_f3d_flags>
0

> <s_epik_input>
TzFbQ0gyXVtDSDJdW0NIMl1bQ0BIXTFbQ0BIXShbQ0gyXVtDSDNdKVtOSF1DKD1PKVtOSF1jMmMoW0NIM10pW2NIXVtjSF1uKFtDSDNdKWMyPU8=

> <s_epik_cmdline>
J2VwaWtfcHl0aG9uJywgJy1waCcsICc3LjAnLCAnLXRuJywgJzgnLCAnLW1hJywgJzIwMCcsICctbWV0YWxfYmluZGluZycsICctaW1hZScsICc8aW5maWxlLm1hZT4nLCAnLW9tYWUnLCAnPG91dGZpbGUubWFlPic=

> <r_lp_tautomer_probability>
1

> <r_epik_Ionization_Penalty>
2.58789e-05

> <r_epik_Ionization_Penalty_Charging>
6.72534e-06

> <r_epik_Ionization_Penalty_Neutral>
1.91535e-05

> <r_epik_State_Penalty>
-0

> <r_epik_Charging_Adjusted_Penalty>
6.72534e-06

> <i_epik_Tot_Q>
0

> <i_epik_Tot_abs_Q>
0

> <r_epik_Metal_State_Penalty>
-0

> <b_epik_Metal_Only>
0

> <s_lp_Force_Field>
OPLS_2005

> <r_lp_Energy>
34.9681

> <b_lp_Chiralities_Consistent>
1

> <s_lp_Variant>
AV-unprocessed.smi:2925-3

> <Gold.Version>
5.8.1

> <Gold.Id.Protein>
6NUR|6NUR_protein|mol2

> <Gold.PLP.Fitness>
42.2820

> <Gold.PLP.PLP>
-37.7509

> <Gold.PLP.part.hbond>
-1.9998

> <Gold.PLP.part.metal>
0.0000

> <Gold.PLP.part.buried>
-5.0775

> <Gold.PLP.part.nonpolar>
-30.7931

> <Gold.PLP.part.repulsive>
0.2640

> <Gold.PLP.ligand.clash>
0.0000

> <Gold.PLP.ligand.torsion>
0.9151

> <Gold.PLP.Chemscore.Hbond>
1.9120

> <Gold.PLP.Chemscore.CHOScore>
0.0000

> <Gold.PLP.Chemscore.Metal>
0.0000

> <Gold.Chemscore.Hbonds>
donor molecule, donor type, donor heavy atom, donor atom, acceptor molecule, acceptor atom, score
      L1  H     4    28       P1  7948  1.00
      L1  H     7    29       P1  7948  0.91

> <Gold.PLP.Chemscore.Internal.Correction>
0.6254

> <Gold.Rescore>
     Score         DG    S(hbond)    S(metal)    S(lipo)     H(rot)  DE(clash)    DE(int)     intcor
     13.03     -17.09       1.82        0.00      76.92       1.36       0.02       4.04       ----

> <Gold.Chemscore.Fitness>
13.0265

> <Gold.Chemscore.DG>
-17.0909

> <Gold.Chemscore.ZeroCoef>
-5.4800

> <Gold.Chemscore.Hbond>
1.8228

> <Gold.Chemscore.Metal>
0.0000

> <Gold.Chemscore.Lipo>
76.9160

> <Gold.Chemscore.Internal_Hbond>
0.0000

> <Gold.Chemscore.DEClash>
0.0199

> <Gold.Chemscore.DEInternal>
4.0444

> <Gold.Chemscore.Rot>
1.3579

> <Gold.Chemscore.Internal.Correction>
   9.000000E+99

> <Gold.Chemscore.Hbonds>
donor molecule, donor type, donor heavy atom, donor atom, acceptor molecule, acceptor atom, score
      L1  H     4    28       P1  7948  0.63
      L1  H     7    29       P1  7948  0.31

> <Gold.Chemscore.Hbond.Weighted>
-6.0880

> <Gold.Chemscore.Metal.Weighted>
-0.0000

> <Gold.Chemscore.Lipo.Weighted>
-8.9992

> <Gold.Chemscore.Internal_Hbond.Weighted>
0.0000

> <Gold.Chemscore.DEClash.Weighted>
0.0199

> <Gold.Chemscore.DEInternal.Weighted>
4.0444

> <Gold.Chemscore.Rot.Weighted>
3.4763

> <Gold.Chemscore.Internal.Correction.Weighted>
   9.000000E+99

> <Gold.Protein.RotatedTorsions>
[ 6907 6896 6895 6894 ] final  118.30 input  -60.11 | X-H torsion
[ 7974 7965 7964 7962 ] final  148.74 input  175.53 | X-H torsion
[ 8008 7997 7996 7995 ] final  143.83 input   59.86 | X-H torsion
[ 10167 10162 10161 10158 ] final  -33.98 input  -65.29 | X-H torsion
[ 10718 10713 10712 10709 ] final -155.77 input   66.30 | X-H torsion
[ 10763 10752 10751 10750 ] final  140.61 input  -60.55 | X-H torsion
[ 11005 11000 10999 10996 ] final  101.23 input  -57.11 | X-H torsion

> <Gold.Protein.ActiveResidues>
 VAL166  LYS551  ARG553  GLY616  TRP617  ASP618  TYR619  PRO620  LYS621  CYS622 
 ASP623  PHE694  ASN695  SER759  ASP760  ASP761  ALA762  ILE779  LEU786  VAL792 
 PHE793  MET794  SER795  GLU796  ALA797  LYS798  CYS799  TRP800  GLU811  SER814 

> <Gold.Protein.RotatedAtoms>
  152.4552  133.7709  159.6798 H   0  0  0  0  0  0  0  0  0  0  0  0  # atno 6907 bound_to 6896
  150.8477  133.7826  159.3043 H   0  0  0  0  0  0  0  0  0  0  0  0  # atno 6908 bound_to 6896
  151.5431  135.1071  159.9983 H   0  0  0  0  0  0  0  0  0  0  0  0  # atno 6909 bound_to 6896
  144.8490  139.6192  143.5982 H   0  0  0  0  0  0  0  0  0  0  0  0  # atno 7974 bound_to 7965
  156.2922  140.2252  156.4954 H   0  0  0  0  0  0  0  0  0  0  0  0  # atno 8008 bound_to 7997
  154.7735  140.0465  157.1092 H   0  0  0  0  0  0  0  0  0  0  0  0  # atno 8009 bound_to 7997
  154.9845  140.3082  155.4935 H   0  0  0  0  0  0  0  0  0  0  0  0  # atno 8010 bound_to 7997
  140.7194  143.3581  151.2019 H   0  0  0  0  0  0  0  0  0  0  0  0  # atno 10167 bound_to 10162
  156.5173  130.8462  151.2669 H   0  0  0  0  0  0  0  0  0  0  0  0  # atno 10718 bound_to 10713
  153.9255  135.2996  155.3447 H   0  0  0  0  0  0  0  0  0  0  0  0  # atno 10763 bound_to 10752
  154.7554  135.4960  153.9367 H   0  0  0  0  0  0  0  0  0  0  0  0  # atno 10764 bound_to 10752
  153.1119  135.6761  153.9589 H   0  0  0  0  0  0  0  0  0  0  0  0  # atno 10765 bound_to 10752
  139.8773  134.9174  156.4876 H   0  0  0  0  0  0  0  0  0  0  0  0  # atno 11005 bound_to 11000
  146.2769  139.6776  142.9257 LP  0  0  0  0  0  0  0  0  0  0  0  0  # atno 17320 bound_to 7965
  145.4538  141.0429  143.2790 LP  0  0  0  0  0  0  0  0  0  0  0  0  # atno 17321 bound_to 7965
  139.7126  143.9351  152.2954 LP  0  0  0  0  0  0  0  0  0  0  0  0  # atno 17342 bound_to 10162
  139.9082  144.6872  150.8591 LP  0  0  0  0  0  0  0  0  0  0  0  0  # atno 17343 bound_to 10162
  157.7442  130.9929  150.2653 LP  0  0  0  0  0  0  0  0  0  0  0  0  # atno 17370 bound_to 10713
  156.3183  130.3782  149.7599 LP  0  0  0  0  0  0  0  0  0  0  0  0  # atno 17371 bound_to 10713
  140.8682  133.8008  155.9336 LP  0  0  0  0  0  0  0  0  0  0  0  0  # atno 17394 bound_to 11000
  140.8980  134.2414  157.5058 LP  0  0  0  0  0  0  0  0  0  0  0  0  # atno 17395 bound_to 11000

$$$$
