AV-unprocessed.smi:2387|AV-procd|sdf|9469|dock2
  -GOLD-   2272013 93D 1   1.00000     0.00000
 Structure written by MMmdl.
 47 49  0  0  0  0  0  0  0  0  1 V2000
  146.1239  132.9589  151.2576 C   0  0  0  0  0  0  0  0  0  0  0  0
  146.0485  134.3777  151.7819 C   0  0  0  0  0  0  0  0  0  0  0  0
  146.3202  134.6654  153.1352 C   0  0  0  0  0  0  0  0  0  0  0  0
  146.2333  136.0019  153.5704 C   0  0  0  0  0  0  0  0  0  0  0  0
  145.8696  137.0028  152.6372 C   0  0  0  0  0  0  0  0  0  0  0  0
  145.7650  138.3861  152.9455 N   0  0  0  0  0  0  0  0  0  0  0  0
  146.5634  139.1326  153.7271 C   0  0  0  0  0  0  0  0  0  0  0  0
  147.5434  138.7177  154.3451 O   0  0  0  0  0  0  0  0  0  0  0  0
  146.1463  140.4104  153.7618 N   0  0  0  0  0  0  0  0  0  0  0  0
  146.7279  141.5285  154.5268 C   0  0  0  0  0  0  0  0  0  0  0  0
  148.2820  141.5195  154.5266 C   0  0  0  0  0  0  0  0  0  0  0  0
  148.8936  141.3959  153.4644 O   0  0  0  0  0  0  0  0  0  0  0  0
  148.9163  141.6259  155.7069 N   0  0  0  0  0  0  0  0  0  0  0  0
  150.3613  141.6150  155.8906 C   0  0  0  0  0  0  0  0  0  0  0  0
  150.8245  141.8262  157.3195 C   0  0  0  0  0  0  0  0  0  0  0  0
  149.9846  142.6079  158.3019 C   0  0  0  0  0  0  0  0  0  0  0  0
  151.2787  143.1896  157.7845 C   0  0  0  0  0  0  0  0  0  0  0  0
  146.2246  142.8626  153.9045 C   0  0  0  0  0  0  0  0  0  0  0  0
  145.3452  143.5569  154.9490 C   0  0  0  0  0  0  0  0  0  0  0  0
  145.8320  143.0158  156.2854 C   0  0  0  0  0  0  0  0  0  0  0  0
  146.1658  141.5578  155.9777 C   0  0  0  0  0  0  0  0  0  0  0  0
  145.6339  136.6042  151.3046 C   0  0  0  0  0  0  0  0  0  0  0  0
  145.7143  135.3253  150.8797 N   0  0  0  0  0  0  0  0  0  0  0  0
  146.4416  132.2652  152.0364 H   0  0  0  0  0  0  0  0  0  0  0  0
  146.8363  132.8950  150.4346 H   0  0  0  0  0  0  0  0  0  0  0  0
  145.1478  132.6376  150.8933 H   0  0  0  0  0  0  0  0  0  0  0  0
  146.5936  133.8824  153.8272 H   0  0  0  0  0  0  0  0  0  0  0  0
  146.4595  136.2303  154.6002 H   0  0  0  0  0  0  0  0  0  0  0  0
  144.9513  138.8509  152.5699 H   0  0  0  0  0  0  0  0  0  0  0  0
  145.3296  140.6384  153.2142 H   0  0  0  0  0  0  0  0  0  0  0  0
  148.3519  141.7241  156.5380 H   0  0  0  0  0  0  0  0  0  0  0  0
  150.7688  140.6707  155.5264 H   0  0  0  0  0  0  0  0  0  0  0  0
  150.7869  142.3941  155.2572 H   0  0  0  0  0  0  0  0  0  0  0  0
  151.3836  140.9864  157.7282 H   0  0  0  0  0  0  0  0  0  0  0  0
  149.0568  143.0466  157.9402 H   0  0  0  0  0  0  0  0  0  0  0  0
  149.9653  142.2599  159.3328 H   0  0  0  0  0  0  0  0  0  0  0  0
  152.1219  143.2306  158.4711 H   0  0  0  0  0  0  0  0  0  0  0  0
  151.2106  144.0155  157.0794 H   0  0  0  0  0  0  0  0  0  0  0  0
  147.0531  143.5266  153.6499 H   0  0  0  0  0  0  0  0  0  0  0  0
  145.6692  142.7127  152.9773 H   0  0  0  0  0  0  0  0  0  0  0  0
  145.4024  144.6442  154.8909 H   0  0  0  0  0  0  0  0  0  0  0  0
  144.3033  143.2708  154.7990 H   0  0  0  0  0  0  0  0  0  0  0  0
  146.7313  143.5480  156.5977 H   0  0  0  0  0  0  0  0  0  0  0  0
  145.0891  143.1190  157.0767 H   0  0  0  0  0  0  0  0  0  0  0  0
  145.2443  140.9773  156.0457 H   0  0  0  0  0  0  0  0  0  0  0  0
  146.8487  141.1368  156.7176 H   0  0  0  0  0  0  0  0  0  0  0  0
  145.3669  137.3335  150.5537 H   0  0  0  0  0  0  0  0  0  0  0  0
  1  2  1  0  0  0  0
  1 24  1  0  0  0  0
  1 25  1  0  0  0  0
  1 26  1  0  0  0  0
  2 23  1  0  0  0  0
  2  3  2  0  0  0  0
  3  4  1  0  0  0  0
  3 27  1  0  0  0  0
  4  5  2  0  0  0  0
  4 28  1  0  0  0  0
  5  6  1  0  0  0  0
  5 22  1  0  0  0  0
  6  7  1  0  0  0  0
  6 29  1  0  0  0  0
  7  8  2  0  0  0  0
  7  9  1  0  0  0  0
  9 10  1  0  0  0  0
  9 30  1  0  0  0  0
 10 21  1  0  0  0  0
 10 11  1  0  0  0  0
 10 18  1  0  0  0  0
 11 12  2  0  0  0  0
 11 13  1  0  0  0  0
 13 14  1  0  0  0  0
 13 31  1  0  0  0  0
 14 15  1  0  0  0  0
 14 32  1  0  0  0  0
 14 33  1  0  0  0  0
 15 17  1  0  0  0  0
 15 16  1  0  0  0  0
 15 34  1  0  0  0  0
 16 17  1  0  0  0  0
 16 35  1  0  0  0  0
 16 36  1  0  0  0  0
 17 37  1  0  0  0  0
 17 38  1  0  0  0  0
 18 19  1  0  0  0  0
 18 39  1  0  0  0  0
 18 40  1  0  0  0  0
 19 20  1  0  0  0  0
 19 41  1  0  0  0  0
 19 42  1  0  0  0  0
 20 21  1  0  0  0  0
 20 43  1  0  0  0  0
 20 44  1  0  0  0  0
 21 45  1  0  0  0  0
 21 46  1  0  0  0  0
 22 23  2  0  0  0  0
 22 47  1  0  0  0  0
M  END
> <s_m_source_file>
AV-unprocessed.smi

> <i_m_source_file_index>
2387

> <i_lp_mmshare_version>
43012

> <i_f3d_flags>
0

> <s_epik_input>
W0NIM11jMVtjSF1bY0hdYyhbY0hdbjEpW05IXUMoPU8pW05IXUMyKFtDSDJdW0NIMl1bQ0gyXVtDSDJdMilDKD1PKVtOSF1bQ0gyXVtDSF0zW0NIMl1bQ0gyXTM=

> <s_epik_cmdline>
J2VwaWtfcHl0aG9uJywgJy1waCcsICc3LjAnLCAnLXRuJywgJzgnLCAnLW1hJywgJzIwMCcsICctbWV0YWxfYmluZGluZycsICctaW1hZScsICc8aW5maWxlLm1hZT4nLCAnLW9tYWUnLCAnPG91dGZpbGUubWFlPic=

> <r_epik_Ionization_Penalty>
0.0173464

> <r_epik_Ionization_Penalty_Charging>
0

> <r_epik_Ionization_Penalty_Neutral>
0.0173464

> <r_epik_State_Penalty>
0.0137159

> <r_epik_Charging_Adjusted_Penalty>
0.0137159

> <i_epik_Tot_Q>
0

> <i_epik_Tot_abs_Q>
0

> <r_epik_Metal_State_Penalty>
0.0133255

> <b_epik_Metal_Only>
0

> <s_lp_Force_Field>
OPLS_2005

> <r_lp_Energy>
29.6161

> <b_lp_Chiralities_Consistent>
1

> <s_lp_Variant>
AV-unprocessed.smi:2387-1

> <Gold.Version>
5.8.1

> <Gold.Id.Protein>
6NUR|6NUR_protein|mol2

> <Gold.PLP.Fitness>
44.9523

> <Gold.PLP.PLP>
-35.5572

> <Gold.PLP.part.hbond>
-4.5971

> <Gold.PLP.part.metal>
0.0000

> <Gold.PLP.part.buried>
-5.6950

> <Gold.PLP.part.nonpolar>
-28.8472

> <Gold.PLP.part.repulsive>
3.1978

> <Gold.PLP.ligand.clash>
0.0000

> <Gold.PLP.ligand.torsion>
1.4783

> <Gold.PLP.Chemscore.Hbond>
2.8960

> <Gold.PLP.Chemscore.CHOScore>
1.0000

> <Gold.PLP.Chemscore.Metal>
0.0000

> <Gold.Chemscore.Hbonds>
donor molecule, donor type, donor heavy atom, donor atom, acceptor molecule, acceptor atom, score
      L1  H     6    29       P1 10175  0.94
      L1  H     9    30       P1 10175  1.00
      P1  H  8011  8017       L1    12  0.88
      L1  C    22    47       P1 10171  1.00

> <Gold.PLP.Chemscore.Internal.Correction>
0.6637

> <Gold.Rescore>
     Score         DG    S(hbond)    S(metal)    S(lipo)     H(rot)  DE(clash)    DE(int)     intcor
     15.25     -19.35       2.68        0.00      77.01       1.59       1.51       2.60       ----

> <Gold.Chemscore.Fitness>
15.2502

> <Gold.Chemscore.DG>
-19.3526

> <Gold.Chemscore.ZeroCoef>
-5.4800

> <Gold.Chemscore.Hbond>
2.6776

> <Gold.Chemscore.Metal>
0.0000

> <Gold.Chemscore.Lipo>
77.0103

> <Gold.Chemscore.Internal_Hbond>
0.0000

> <Gold.Chemscore.DEClash>
1.5062

> <Gold.Chemscore.DEInternal>
2.5961

> <Gold.Chemscore.Rot>
1.5941

> <Gold.Chemscore.Internal.Correction>
   9.000000E+99

> <Gold.Chemscore.Hbonds>
donor molecule, donor type, donor heavy atom, donor atom, acceptor molecule, acceptor atom, score
      L1  H     6    29       P1 10175  0.87
      L1  H     9    30       P1 10175  0.88
      P1  H  8011  8017       L1    12  0.87

> <Gold.Chemscore.Hbond.Weighted>
-8.9433

> <Gold.Chemscore.Metal.Weighted>
-0.0000

> <Gold.Chemscore.Lipo.Weighted>
-9.0102

> <Gold.Chemscore.Internal_Hbond.Weighted>
0.0000

> <Gold.Chemscore.DEClash.Weighted>
1.5062

> <Gold.Chemscore.DEInternal.Weighted>
2.5961

> <Gold.Chemscore.Rot.Weighted>
4.0809

> <Gold.Chemscore.Internal.Correction.Weighted>
   9.000000E+99

> <Gold.Protein.RotatedTorsions>
[ 6907 6896 6895 6894 ] final -178.28 input  -60.11 | X-H torsion
[ 7974 7965 7964 7962 ] final -135.72 input  175.53 | X-H torsion
[ 8008 7997 7996 7995 ] final  165.86 input   59.86 | X-H torsion
[ 10167 10162 10161 10158 ] final  136.04 input  -65.29 | X-H torsion
[ 10718 10713 10712 10709 ] final   -1.91 input   66.30 | X-H torsion
[ 10763 10752 10751 10750 ] final  149.34 input  -60.55 | X-H torsion
[ 11005 11000 10999 10996 ] final   96.41 input  -57.11 | X-H torsion

> <Gold.Protein.ActiveResidues>
 VAL166  LYS551  ARG553  GLY616  TRP617  ASP618  TYR619  PRO620  LYS621  CYS622 
 ASP623  PHE694  ASN695  SER759  ASP760  ASP761  ALA762  ILE779  LEU786  VAL792 
 PHE793  MET794  SER795  GLU796  ALA797  LYS798  CYS799  TRP800  GLU811  SER814 

> <Gold.Protein.RotatedAtoms>
  151.6346  133.3330  159.3116 H   0  0  0  0  0  0  0  0  0  0  0  0  # atno 6907 bound_to 6896
  150.8039  134.7154  159.6637 H   0  0  0  0  0  0  0  0  0  0  0  0  # atno 6908 bound_to 6896
  152.4133  134.6091  160.0072 H   0  0  0  0  0  0  0  0  0  0  0  0  # atno 6909 bound_to 6896
  144.8990  140.6745  143.5097 H   0  0  0  0  0  0  0  0  0  0  0  0  # atno 7974 bound_to 7965
  156.1766  140.1659  156.8352 H   0  0  0  0  0  0  0  0  0  0  0  0  # atno 8008 bound_to 7997
  154.5313  140.0756  156.8384 H   0  0  0  0  0  0  0  0  0  0  0  0  # atno 8009 bound_to 7997
  155.3400  140.3384  155.4241 H   0  0  0  0  0  0  0  0  0  0  0  0  # atno 8010 bound_to 7997
  139.5195  144.6485  151.5369 H   0  0  0  0  0  0  0  0  0  0  0  0  # atno 10167 bound_to 10162
  156.7987  130.5385  149.5725 H   0  0  0  0  0  0  0  0  0  0  0  0  # atno 10718 bound_to 10713
  154.0695  135.2868  155.3310 H   0  0  0  0  0  0  0  0  0  0  0  0  # atno 10763 bound_to 10752
  154.6755  135.5283  153.8198 H   0  0  0  0  0  0  0  0  0  0  0  0  # atno 10764 bound_to 10752
  153.0490  135.6568  154.0878 H   0  0  0  0  0  0  0  0  0  0  0  0  # atno 10765 bound_to 10752
  139.8782  134.8949  156.4154 H   0  0  0  0  0  0  0  0  0  0  0  0  # atno 11005 bound_to 11000
  145.3650  139.1672  143.4363 LP  0  0  0  0  0  0  0  0  0  0  0  0  # atno 17320 bound_to 7965
  146.3097  140.3716  142.8675 LP  0  0  0  0  0  0  0  0  0  0  0  0  # atno 17321 bound_to 7965
  140.6281  143.9130  150.6581 LP  0  0  0  0  0  0  0  0  0  0  0  0  # atno 17342 bound_to 10162
  140.2425  143.3653  152.1474 LP  0  0  0  0  0  0  0  0  0  0  0  0  # atno 17343 bound_to 10162
  156.1115  130.6043  151.0054 LP  0  0  0  0  0  0  0  0  0  0  0  0  # atno 17370 bound_to 10713
  157.6565  131.0888  150.7936 LP  0  0  0  0  0  0  0  0  0  0  0  0  # atno 17371 bound_to 10713
  140.9171  133.7671  155.9861 LP  0  0  0  0  0  0  0  0  0  0  0  0  # atno 17394 bound_to 11000
  140.8481  134.2986  157.5286 LP  0  0  0  0  0  0  0  0  0  0  0  0  # atno 17395 bound_to 11000

$$$$
