AV-unprocessed.smi:648|AV-procd|sdf|3170|dock2
  -GOLD-   22720 0 93D 1   1.00000     0.00000
 Structure written by MMmdl.
 46 47  0  0  0  0  0  0  0  0  2 V2000
  144.8095  133.7606  150.3650 C   0  0  0  0  0  0  0  0  0  0  0  0
  144.8945  134.6794  151.5924 C   0  0  2  0  0  0  0  0  0  0  0  0
  143.5028  134.9066  152.2129 C   0  0  0  0  0  0  0  0  0  0  0  0
  143.5195  135.8301  153.4542 C   0  0  0  0  0  0  0  0  0  0  0  0
  142.0641  136.1935  153.8130 C   0  0  0  0  0  0  0  0  0  0  0  0
  144.1120  135.0965  154.6791 C   0  0  0  0  0  0  0  0  0  0  0  0
  144.2800  137.1456  153.1212 C   0  0  0  0  0  0  0  0  0  0  0  0
  145.6738  136.9918  152.4401 C   0  0  1  0  0  0  0  0  0  0  0  0
  146.1978  138.3724  151.9531 C   0  0  0  0  0  0  0  0  0  0  0  0
  147.4518  138.2934  151.3052 O   0  0  0  0  0  0  0  0  0  0  0  0
  146.6817  136.4010  153.3626 N   0  3  0  0  0  0  0  0  0  0  0  0
  147.0354  137.1377  154.6000 C   0  0  0  0  0  0  0  0  0  0  0  0
  148.4964  136.8776  154.9995 C   0  0  0  0  0  0  0  0  0  0  0  0
  149.3323  138.0522  154.8312 N   0  0  0  0  0  0  0  0  0  0  0  0
  150.4547  138.2245  154.1313 C   0  0  0  0  0  0  0  0  0  0  0  0
  150.9549  139.4490  154.2166 N   0  0  0  0  0  0  0  0  0  0  0  0
  150.0234  140.0210  155.0359 C   0  0  0  0  0  0  0  0  0  0  0  0
  149.0311  139.2255  155.4358 N   0  0  0  0  0  0  0  0  0  0  0  0
  145.5440  136.0298  151.2311 C   0  0  0  0  0  0  0  0  0  0  0  0
  144.1927  134.2000  149.5802 H   0  0  0  0  0  0  0  0  0  0  0  0
  144.3760  132.7950  150.6266 H   0  0  0  0  0  0  0  0  0  0  0  0
  145.7982  133.5732  149.9451 H   0  0  0  0  0  0  0  0  0  0  0  0
  145.5250  134.1692  152.3201 H   0  0  0  0  0  0  0  0  0  0  0  0
  142.8540  135.3413  151.4507 H   0  0  0  0  0  0  0  0  0  0  0  0
  143.0528  133.9469  152.4719 H   0  0  0  0  0  0  0  0  0  0  0  0
  142.0210  136.8481  154.6841 H   0  0  0  0  0  0  0  0  0  0  0  0
  141.4758  135.3041  154.0423 H   0  0  0  0  0  0  0  0  0  0  0  0
  141.5630  136.7094  152.9929 H   0  0  0  0  0  0  0  0  0  0  0  0
  144.1677  135.7560  155.5456 H   0  0  0  0  0  0  0  0  0  0  0  0
  145.1098  134.7010  154.5035 H   0  0  0  0  0  0  0  0  0  0  0  0
  143.4911  134.2458  154.9622 H   0  0  0  0  0  0  0  0  0  0  0  0
  143.6464  137.7093  152.4352 H   0  0  0  0  0  0  0  0  0  0  0  0
  144.3424  137.7784  154.0061 H   0  0  0  0  0  0  0  0  0  0  0  0
  145.5047  138.8296  151.2473 H   0  0  0  0  0  0  0  0  0  0  0  0
  146.2967  139.0605  152.7937 H   0  0  0  0  0  0  0  0  0  0  0  0
  147.9594  139.0581  151.5319 H   0  0  0  0  0  0  0  0  0  0  0  0
  146.3366  135.4927  153.6383 H   0  0  0  0  0  0  0  0  0  0  0  0
  146.8833  138.2087  154.4697 H   0  0  0  0  0  0  0  0  0  0  0  0
  146.3945  136.8192  155.4201 H   0  0  0  0  0  0  0  0  0  0  0  0
  148.5437  136.5768  156.0468 H   0  0  0  0  0  0  0  0  0  0  0  0
  148.9168  136.0541  154.4200 H   0  0  0  0  0  0  0  0  0  0  0  0
  150.9165  137.4396  153.5506 H   0  0  0  0  0  0  0  0  0  0  0  0
  150.0805  141.0527  155.3498 H   0  0  0  0  0  0  0  0  0  0  0  0
  146.5260  135.8604  150.7862 H   0  0  0  0  0  0  0  0  0  0  0  0
  144.9399  136.4900  150.4483 H   0  0  0  0  0  0  0  0  0  0  0  0
  147.5338  136.2614  152.8381 H   0  0  0  0  0  0  0  0  0  0  0  0
  1  2  1  0  0  0  0
  1 20  1  0  0  0  0
  1 21  1  0  0  0  0
  1 22  1  0  0  0  0
  2 19  1  0  0  0  0
  2  3  1  0  0  0  0
  2 23  1  0  0  0  0
  3  4  1  0  0  0  0
  3 24  1  0  0  0  0
  3 25  1  0  0  0  0
  4  5  1  0  0  0  0
  4  6  1  0  0  0  0
  4  7  1  0  0  0  0
  5 26  1  0  0  0  0
  5 27  1  0  0  0  0
  5 28  1  0  0  0  0
  6 29  1  0  0  0  0
  6 30  1  0  0  0  0
  6 31  1  0  0  0  0
  7  8  1  0  0  0  0
  7 32  1  0  0  0  0
  7 33  1  0  0  0  0
  8  9  1  0  0  0  0
  8 11  1  0  0  0  0
  8 19  1  0  0  0  0
  9 10  1  0  0  0  0
  9 34  1  0  0  0  0
  9 35  1  0  0  0  0
 10 36  1  0  0  0  0
 11 12  1  0  0  0  0
 11 37  1  0  0  0  0
 11 46  1  0  0  0  0
 12 13  1  0  0  0  0
 12 38  1  0  0  0  0
 12 39  1  0  0  0  0
 13 14  1  0  0  0  0
 13 40  1  0  0  0  0
 13 41  1  0  0  0  0
 14 18  1  0  0  0  0
 14 15  1  0  0  0  0
 15 16  2  0  0  0  0
 15 42  1  0  0  0  0
 16 17  1  0  0  0  0
 17 18  2  0  0  0  0
 17 43  1  0  0  0  0
 19 44  1  0  0  0  0
 19 45  1  0  0  0  0
M  CHG  1  11   1
M  END
> <s_m_source_file>
AV-unprocessed.smi

> <i_m_source_file_index>
648

> <i_lp_mmshare_version>
43012

> <i_f3d_flags>
0

> <s_epik_input>
W0NIM11DMShbQ0gzXSlbQ0gyXVtDQEBIXShbQ0gzXSlbQ0gyXVtDQF0oW0NIMl0xKShbQ0gyXVtPSF0pW05IXVtDSDJdW0NIMl1uMltjSF1uW2NIXW4y

> <s_epik_cmdline>
J2VwaWtfcHl0aG9uJywgJy1waCcsICc3LjAnLCAnLXRuJywgJzgnLCAnLW1hJywgJzIwMCcsICctbWV0YWxfYmluZGluZycsICctaW1hZScsICc8aW5maWxlLm1hZT4nLCAnLW9tYWUnLCAnPG91dGZpbGUubWFlPic=

> <r_lp_tautomer_probability>
1

> <r_epik_Ionization_Penalty>
0.00942316

> <r_epik_Ionization_Penalty_Charging>
0.00942185

> <r_epik_Ionization_Penalty_Neutral>
1.31257e-06

> <r_epik_State_Penalty>
0.00715409

> <r_epik_Charging_Adjusted_Penalty>
0.0165759

> <i_epik_Tot_Q>
1

> <i_epik_Tot_abs_Q>
1

> <r_epik_Metal_State_Penalty>
0.00715563

> <b_epik_Metal_Only>
0

> <s_lp_Force_Field>
OPLS_2005

> <r_lp_Energy>
29.4172

> <b_lp_Chiralities_Consistent>
1

> <s_lp_Variant>
AV-unprocessed.smi:648-1

> <Gold.Version>
5.8.1

> <Gold.Id.Protein>
6NUR|6NUR_protein|mol2

> <Gold.PLP.Fitness>
46.6961

> <Gold.PLP.PLP>
-30.0035

> <Gold.PLP.part.hbond>
-5.0000

> <Gold.PLP.part.metal>
0.0000

> <Gold.PLP.part.buried>
-1.9939

> <Gold.PLP.part.nonpolar>
-23.3515

> <Gold.PLP.part.repulsive>
0.2091

> <Gold.PLP.ligand.clash>
0.0000

> <Gold.PLP.ligand.torsion>
0.5729

> <Gold.PLP.Chemscore.Hbond>
4.8640

> <Gold.PLP.Chemscore.CHOScore>
1.0610

> <Gold.PLP.Chemscore.Metal>
0.0000

> <Gold.Chemscore.Hbonds>
donor molecule, donor type, donor heavy atom, donor atom, acceptor molecule, acceptor atom, score
      L1  H    10    36       P1  7957  0.86
      L1  H    11    46       P1  7948  2.00
      P1  H  7954  7966       L1    10  1.00
      P1  H  7989  7998       L1    16  1.00
      L1  C    15    42       P1  7948  0.07
      L1  C    15    42       P1  7949  0.99

> <Gold.PLP.Chemscore.Internal.Correction>
0.0634

> <Gold.Rescore>
     Score         DG    S(hbond)    S(metal)    S(lipo)     H(rot)  DE(clash)    DE(int)     intcor
     13.73     -14.39       3.28        0.00      51.93       3.17       0.04       0.62       ----

> <Gold.Chemscore.Fitness>
13.7333

> <Gold.Chemscore.DG>
-14.3940

> <Gold.Chemscore.ZeroCoef>
-5.4800

> <Gold.Chemscore.Hbond>
3.2833

> <Gold.Chemscore.Metal>
0.0000

> <Gold.Chemscore.Lipo>
51.9281

> <Gold.Chemscore.Internal_Hbond>
0.0000

> <Gold.Chemscore.DEClash>
0.0427

> <Gold.Chemscore.DEInternal>
0.6180

> <Gold.Chemscore.Rot>
3.1750

> <Gold.Chemscore.Internal.Correction>
   9.000000E+99

> <Gold.Chemscore.Hbonds>
donor molecule, donor type, donor heavy atom, donor atom, acceptor molecule, acceptor atom, score
      L1  H    10    36       P1  7957  0.72
      L1  H    11    46       P1  7948  1.00
      P1  H  7954  7966       L1    10  0.25
      P1  H  7989  7998       L1    16  0.30

> <Gold.Chemscore.Hbond.Weighted>
-10.9663

> <Gold.Chemscore.Metal.Weighted>
-0.0000

> <Gold.Chemscore.Lipo.Weighted>
-6.0756

> <Gold.Chemscore.Internal_Hbond.Weighted>
0.0000

> <Gold.Chemscore.DEClash.Weighted>
0.0427

> <Gold.Chemscore.DEInternal.Weighted>
0.6180

> <Gold.Chemscore.Rot.Weighted>
8.1279

> <Gold.Chemscore.Internal.Correction.Weighted>
   9.000000E+99

> <Gold.Protein.RotatedTorsions>
[ 6907 6896 6895 6894 ] final -100.62 input  -60.11 | X-H torsion
[ 7974 7965 7964 7962 ] final  -86.65 input  175.53 | X-H torsion
[ 8008 7997 7996 7995 ] final   -7.52 input   59.86 | X-H torsion
[ 10167 10162 10161 10158 ] final   70.58 input  -65.29 | X-H torsion
[ 10718 10713 10712 10709 ] final  140.02 input   66.30 | X-H torsion
[ 10763 10752 10751 10750 ] final -134.84 input  -60.55 | X-H torsion
[ 11005 11000 10999 10996 ] final   43.10 input  -57.11 | X-H torsion

> <Gold.Protein.ActiveResidues>
 VAL166  LYS551  ARG553  GLY616  TRP617  ASP618  TYR619  PRO620  LYS621  CYS622 
 ASP623  PHE694  ASN695  SER759  ASP760  ASP761  ALA762  ILE779  LEU786  VAL792 
 PHE793  MET794  SER795  GLU796  ALA797  LYS798  CYS799  TRP800  GLU811  SER814 

> <Gold.Protein.RotatedAtoms>
  150.7123  134.0859  159.3914 H   0  0  0  0  0  0  0  0  0  0  0  0  # atno 6907 bound_to 6896
  151.8843  135.0439  160.0501 H   0  0  0  0  0  0  0  0  0  0  0  0  # atno 6908 bound_to 6896
  152.2542  133.5206  159.5380 H   0  0  0  0  0  0  0  0  0  0  0  0  # atno 6909 bound_to 6896
  145.4771  140.9558  143.1885 H   0  0  0  0  0  0  0  0  0  0  0  0  # atno 7974 bound_to 7965
  154.5830  140.2405  155.8027 H   0  0  0  0  0  0  0  0  0  0  0  0  # atno 8008 bound_to 7997
  156.2193  140.3002  155.9869 H   0  0  0  0  0  0  0  0  0  0  0  0  # atno 8009 bound_to 7997
  155.2507  140.0410  157.2977 H   0  0  0  0  0  0  0  0  0  0  0  0  # atno 8010 bound_to 7997
  140.0554  144.5277  150.7333 H   0  0  0  0  0  0  0  0  0  0  0  0  # atno 10167 bound_to 10162
  157.4080  131.1024  151.0484 H   0  0  0  0  0  0  0  0  0  0  0  0  # atno 10718 bound_to 10713
  154.8713  135.3722  154.4800 H   0  0  0  0  0  0  0  0  0  0  0  0  # atno 10763 bound_to 10752
  153.5455  135.7025  153.5621 H   0  0  0  0  0  0  0  0  0  0  0  0  # atno 10764 bound_to 10752
  153.3764  135.4008  155.1790 H   0  0  0  0  0  0  0  0  0  0  0  0  # atno 10765 bound_to 10752
  140.1677  134.4262  155.8277 H   0  0  0  0  0  0  0  0  0  0  0  0  # atno 11005 bound_to 11000
  144.7911  139.6327  143.7113 LP  0  0  0  0  0  0  0  0  0  0  0  0  # atno 17320 bound_to 7965
  146.2363  139.5912  142.9521 LP  0  0  0  0  0  0  0  0  0  0  0  0  # atno 17321 bound_to 7965
  140.7197  143.2577  151.4319 LP  0  0  0  0  0  0  0  0  0  0  0  0  # atno 17342 bound_to 10162
  139.5927  144.1464  152.2107 LP  0  0  0  0  0  0  0  0  0  0  0  0  # atno 17343 bound_to 10162
  157.1459  130.6163  149.5568 LP  0  0  0  0  0  0  0  0  0  0  0  0  # atno 17370 bound_to 10713
  155.9842  130.4866  150.6971 LP  0  0  0  0  0  0  0  0  0  0  0  0  # atno 17371 bound_to 10713
  141.2215  133.6941  156.7707 LP  0  0  0  0  0  0  0  0  0  0  0  0  # atno 17394 bound_to 11000
  140.2415  134.8610  157.3577 LP  0  0  0  0  0  0  0  0  0  0  0  0  # atno 17395 bound_to 11000

$$$$
