AV-unprocessed.smi:1829|AV-procd|sdf|7428|dock8
  -GOLD-   22720 9113D 1   1.00000     0.00000
 Structure written by MMmdl.
 45 47  0  0  0  0  0  0  0  0  1 V2000
  145.3862  140.9010  155.1304 C   0  0  0  0  0  0  0  0  0  0  0  0
  146.3487  142.0988  155.0988 C   0  0  0  0  0  0  0  0  0  0  0  0
  146.2335  142.8844  153.7834 C   0  0  0  0  0  0  0  0  0  0  0  0
  147.7873  141.6763  155.3710 C   0  0  0  0  0  0  0  0  0  0  0  0
  148.7860  141.9014  154.3996 C   0  0  0  0  0  0  0  0  0  0  0  0
  150.1152  141.5030  154.6401 C   0  0  0  0  0  0  0  0  0  0  0  0
  150.4630  140.8742  155.8539 C   0  0  0  0  0  0  0  0  0  0  0  0
  151.9040  140.4550  156.1018 C   0  0  2  0  0  0  0  0  0  0  0  0
  152.3596  139.5029  155.1596 O   0  0  0  0  0  0  0  0  0  0  0  0
  152.0873  139.9148  157.5347 C   0  0  0  0  0  0  0  0  0  0  0  0
  152.5651  140.9275  158.4670 N   0  0  0  0  0  0  0  0  0  0  0  0
  153.5527  140.8169  159.3909 C   0  0  0  0  0  0  0  0  0  0  0  0
  154.3356  139.5534  159.5799 C   0  0  0  0  0  0  0  0  0  0  0  0
  155.1137  139.2206  158.4504 O   0  0  0  0  0  0  0  0  0  0  0  0
  153.7909  141.9082  160.1194 N   0  0  0  0  0  0  0  0  0  0  0  0
  152.8744  142.8128  159.6199 C   0  0  0  0  0  0  0  0  0  0  0  0
  152.6238  144.1574  159.9763 C   0  0  0  0  0  0  0  0  0  0  0  0
  151.6195  144.8956  159.3165 C   0  0  0  0  0  0  0  0  0  0  0  0
  150.8528  144.3018  158.2930 C   0  0  0  0  0  0  0  0  0  0  0  0
  151.0870  142.9637  157.9220 C   0  0  0  0  0  0  0  0  0  0  0  0
  152.0910  142.2310  158.5834 C   0  0  0  0  0  0  0  0  0  0  0  0
  149.4667  140.6572  156.8302 C   0  0  0  0  0  0  0  0  0  0  0  0
  148.1373  141.0531  156.5887 C   0  0  0  0  0  0  0  0  0  0  0  0
  145.4370  140.3836  156.0889 H   0  0  0  0  0  0  0  0  0  0  0  0
  145.6164  140.1776  154.3479 H   0  0  0  0  0  0  0  0  0  0  0  0
  144.3547  141.2239  154.9856 H   0  0  0  0  0  0  0  0  0  0  0  0
  146.0439  142.7724  155.9010 H   0  0  0  0  0  0  0  0  0  0  0  0
  146.8802  143.7622  153.7941 H   0  0  0  0  0  0  0  0  0  0  0  0
  145.2126  143.2306  153.6217 H   0  0  0  0  0  0  0  0  0  0  0  0
  146.5144  142.2744  152.9247 H   0  0  0  0  0  0  0  0  0  0  0  0
  148.5378  142.3794  153.4632 H   0  0  0  0  0  0  0  0  0  0  0  0
  150.8685  141.6832  153.8871 H   0  0  0  0  0  0  0  0  0  0  0  0
  152.5340  141.3348  155.9705 H   0  0  0  0  0  0  0  0  0  0  0  0
  152.9539  138.9114  155.5954 H   0  0  0  0  0  0  0  0  0  0  0  0
  151.1462  139.5108  157.9089 H   0  0  0  0  0  0  0  0  0  0  0  0
  152.7916  139.0820  157.5366 H   0  0  0  0  0  0  0  0  0  0  0  0
  154.9987  139.6662  160.4384 H   0  0  0  0  0  0  0  0  0  0  0  0
  153.6630  138.7284  159.8118 H   0  0  0  0  0  0  0  0  0  0  0  0
  155.2031  138.2807  158.4139 H   0  0  0  0  0  0  0  0  0  0  0  0
  153.2056  144.6211  160.7589 H   0  0  0  0  0  0  0  0  0  0  0  0
  151.4363  145.9224  159.5976 H   0  0  0  0  0  0  0  0  0  0  0  0
  150.0840  144.8732  157.7937 H   0  0  0  0  0  0  0  0  0  0  0  0
  150.4995  142.5038  157.1413 H   0  0  0  0  0  0  0  0  0  0  0  0
  149.7171  140.1859  157.7693 H   0  0  0  0  0  0  0  0  0  0  0  0
  147.3866  140.8745  157.3442 H   0  0  0  0  0  0  0  0  0  0  0  0
  1  2  1  0  0  0  0
  1 24  1  0  0  0  0
  1 25  1  0  0  0  0
  1 26  1  0  0  0  0
  2  3  1  0  0  0  0
  2  4  1  0  0  0  0
  2 27  1  0  0  0  0
  3 28  1  0  0  0  0
  3 29  1  0  0  0  0
  3 30  1  0  0  0  0
  4 23  1  0  0  0  0
  4  5  2  0  0  0  0
  5  6  1  0  0  0  0
  5 31  1  0  0  0  0
  6  7  2  0  0  0  0
  6 32  1  0  0  0  0
  7  8  1  0  0  0  0
  7 22  1  0  0  0  0
  8  9  1  0  0  0  0
  8 10  1  0  0  0  0
  8 33  1  0  0  0  0
  9 34  1  0  0  0  0
 10 11  1  0  0  0  0
 10 35  1  0  0  0  0
 10 36  1  0  0  0  0
 11 21  1  0  0  0  0
 11 12  1  0  0  0  0
 12 13  1  0  0  0  0
 12 15  2  0  0  0  0
 13 14  1  0  0  0  0
 13 37  1  0  0  0  0
 13 38  1  0  0  0  0
 14 39  1  0  0  0  0
 15 16  1  0  0  0  0
 16 21  2  0  0  0  0
 16 17  1  0  0  0  0
 17 18  2  0  0  0  0
 17 40  1  0  0  0  0
 18 19  1  0  0  0  0
 18 41  1  0  0  0  0
 19 20  2  0  0  0  0
 19 42  1  0  0  0  0
 20 21  1  0  0  0  0
 20 43  1  0  0  0  0
 22 23  2  0  0  0  0
 22 44  1  0  0  0  0
 23 45  1  0  0  0  0
M  END
> <s_m_source_file>
AV-unprocessed.smi

> <i_m_source_file_index>
1829

> <i_lp_mmshare_version>
43012

> <i_f3d_flags>
0

> <s_epik_input>
W0NIM11bQ0hdKFtDSDNdKWMxW2NIXVtjSF1jKFtjSF1bY0hdMSlbQ0BIXShbT0hdKVtDSDJdbihjKG4yKVtDSDJdW09IXSljKGMyMylbY0hdW2NIXVtjSF1bY0hdMw==

> <s_epik_cmdline>
J2VwaWtfcHl0aG9uJywgJy1waCcsICc3LjAnLCAnLXRuJywgJzgnLCAnLW1hJywgJzIwMCcsICctbWV0YWxfYmluZGluZycsICctaW1hZScsICc8aW5maWxlLm1hZT4nLCAnLW9tYWUnLCAnPG91dGZpbGUubWFlPic=

> <r_epik_Ionization_Penalty>
0.0634718

> <r_epik_Ionization_Penalty_Charging>
0

> <r_epik_Ionization_Penalty_Neutral>
0.0634718

> <r_epik_State_Penalty>
0.0551572

> <r_epik_Charging_Adjusted_Penalty>
0.0551572

> <i_epik_Tot_Q>
0

> <i_epik_Tot_abs_Q>
0

> <r_epik_Metal_State_Penalty>
5.78034e-05

> <b_epik_Metal_Only>
0

> <s_lp_Force_Field>
OPLS_2005

> <r_lp_Energy>
12.4565

> <b_lp_Chiralities_Consistent>
1

> <s_lp_Variant>
AV-unprocessed.smi:1829-1

> <Gold.Version>
5.8.1

> <Gold.Id.Protein>
6NUR|6NUR_protein|mol2

> <Gold.PLP.Fitness>
46.4654

> <Gold.PLP.PLP>
-44.9955

> <Gold.PLP.part.hbond>
-1.0000

> <Gold.PLP.part.metal>
0.0000

> <Gold.PLP.part.buried>
-3.9956

> <Gold.PLP.part.nonpolar>
-39.2203

> <Gold.PLP.part.repulsive>
0.0000

> <Gold.PLP.ligand.clash>
0.0000

> <Gold.PLP.ligand.torsion>
0.7978

> <Gold.PLP.Chemscore.Hbond>
1.0000

> <Gold.PLP.Chemscore.CHOScore>
0.0000

> <Gold.PLP.Chemscore.Metal>
0.0000

> <Gold.Chemscore.Hbonds>
donor molecule, donor type, donor heavy atom, donor atom, acceptor molecule, acceptor atom, score
      P1  H  7989  7998       L1     9  0.15
      P1  H  7997  8010       L1    14  0.70

> <Gold.PLP.Chemscore.Internal.Correction>
0.0656

> <Gold.Rescore>
     Score         DG    S(hbond)    S(metal)    S(lipo)     H(rot)  DE(clash)    DE(int)     intcor
     14.99     -16.72       0.95        0.00     127.38       2.68       0.83       0.90       ----

> <Gold.Chemscore.Fitness>
14.9949

> <Gold.Chemscore.DG>
-16.7187

> <Gold.Chemscore.ZeroCoef>
-5.4800

> <Gold.Chemscore.Hbond>
0.9538

> <Gold.Chemscore.Metal>
0.0000

> <Gold.Chemscore.Lipo>
127.3830

> <Gold.Chemscore.Internal_Hbond>
0.0000

> <Gold.Chemscore.DEClash>
0.8265

> <Gold.Chemscore.DEInternal>
0.8973

> <Gold.Chemscore.Rot>
2.6761

> <Gold.Chemscore.Internal.Correction>
   9.000000E+99

> <Gold.Chemscore.Hbonds>
donor molecule, donor type, donor heavy atom, donor atom, acceptor molecule, acceptor atom, score
      P1  H  7989  7998       L1     9  0.01
      P1  H  7997  8010       L1    14  0.68

> <Gold.Chemscore.Hbond.Weighted>
-3.1856

> <Gold.Chemscore.Metal.Weighted>
-0.0000

> <Gold.Chemscore.Lipo.Weighted>
-14.9038

> <Gold.Chemscore.Internal_Hbond.Weighted>
0.0000

> <Gold.Chemscore.DEClash.Weighted>
0.8265

> <Gold.Chemscore.DEInternal.Weighted>
0.8973

> <Gold.Chemscore.Rot.Weighted>
6.8507

> <Gold.Chemscore.Internal.Correction.Weighted>
   9.000000E+99

> <Gold.Protein.RotatedTorsions>
[ 6907 6896 6895 6894 ] final   76.10 input  -60.11 | X-H torsion
[ 7974 7965 7964 7962 ] final   47.22 input  175.53 | X-H torsion
[ 8008 7997 7996 7995 ] final  -22.93 input   59.86 | X-H torsion
[ 10167 10162 10161 10158 ] final   96.19 input  -65.29 | X-H torsion
[ 10718 10713 10712 10709 ] final -103.66 input   66.30 | X-H torsion
[ 10763 10752 10751 10750 ] final  159.75 input  -60.55 | X-H torsion
[ 11005 11000 10999 10996 ] final -161.80 input  -57.11 | X-H torsion

> <Gold.Protein.ActiveResidues>
 VAL166  LYS551  ARG553  GLY616  TRP617  ASP618  TYR619  PRO620  LYS621  CYS622 
 ASP623  PHE694  ASN695  SER759  ASP760  ASP761  ALA762  ILE779  LEU786  VAL792 
 PHE793  MET794  SER795  GLU796  ALA797  LYS798  CYS799  TRP800  GLU811  SER814 

> <Gold.Protein.RotatedAtoms>
  152.5057  134.4020  159.9419 H   0  0  0  0  0  0  0  0  0  0  0  0  # atno 6907 bound_to 6896
  151.3984  133.3759  159.2737 H   0  0  0  0  0  0  0  0  0  0  0  0  # atno 6908 bound_to 6896
  150.9380  134.8812  159.7653 H   0  0  0  0  0  0  0  0  0  0  0  0  # atno 6909 bound_to 6896
  146.0317  139.4772  142.9833 H   0  0  0  0  0  0  0  0  0  0  0  0  # atno 7974 bound_to 7965
  154.4615  140.1994  156.0232 H   0  0  0  0  0  0  0  0  0  0  0  0  # atno 8008 bound_to 7997
  156.0849  140.3266  155.7712 H   0  0  0  0  0  0  0  0  0  0  0  0  # atno 8009 bound_to 7997
  155.5052  140.0557  157.2923 H   0  0  0  0  0  0  0  0  0  0  0  0  # atno 8010 bound_to 7997
  139.7917  144.6849  150.9883 H   0  0  0  0  0  0  0  0  0  0  0  0  # atno 10167 bound_to 10162
  156.0274  130.5478  150.7284 H   0  0  0  0  0  0  0  0  0  0  0  0  # atno 10718 bound_to 10713
  154.2366  135.2776  155.2870 H   0  0  0  0  0  0  0  0  0  0  0  0  # atno 10763 bound_to 10752
  154.5580  135.5655  153.6984 H   0  0  0  0  0  0  0  0  0  0  0  0  # atno 10764 bound_to 10752
  153.0008  135.6291  154.2509 H   0  0  0  0  0  0  0  0  0  0  0  0  # atno 10765 bound_to 10752
  140.6163  134.4796  157.5220 H   0  0  0  0  0  0  0  0  0  0  0  0  # atno 11005 bound_to 11000
  145.7029  141.0130  143.1494 LP  0  0  0  0  0  0  0  0  0  0  0  0  # atno 17320 bound_to 7965
  144.7033  139.8666  143.7437 LP  0  0  0  0  0  0  0  0  0  0  0  0  # atno 17321 bound_to 7965
  140.7820  143.4374  151.0603 LP  0  0  0  0  0  0  0  0  0  0  0  0  # atno 17342 bound_to 10162
  139.8050  143.8031  152.3166 LP  0  0  0  0  0  0  0  0  0  0  0  0  # atno 17343 bound_to 10162
  157.4883  131.0908  151.0457 LP  0  0  0  0  0  0  0  0  0  0  0  0  # atno 17370 bound_to 10713
  157.0871  130.5927  149.5432 LP  0  0  0  0  0  0  0  0  0  0  0  0  # atno 17371 bound_to 10713
  139.9171  134.8223  156.1330 LP  0  0  0  0  0  0  0  0  0  0  0  0  # atno 17394 bound_to 11000
  141.0773  133.6770  156.2263 LP  0  0  0  0  0  0  0  0  0  0  0  0  # atno 17395 bound_to 11000

$$$$
