AV-unprocessed.smi:1263|AV-procd|sdf|5312|dock4
  -GOLD-   22720 4433D 1   1.00000     0.00000
 Structure written by MMmdl.
 43 45  0  0  0  0  0  0  0  0  1 V2000
  151.4262  145.3008  160.0404 C   0  0  0  0  0  0  0  0  0  0  0  0
  151.8500  144.3782  161.0382 O   0  0  0  0  0  0  0  0  0  0  0  0
  152.3022  143.1352  160.6377 C   0  0  0  0  0  0  0  0  0  0  0  0
  152.1888  142.7993  159.3280 N   0  0  0  0  0  0  0  0  0  0  0  0
  152.6356  141.5894  158.9334 C   0  0  0  0  0  0  0  0  0  0  0  0
  153.2199  140.6598  159.8128 C   0  0  0  0  0  0  0  0  0  0  0  0
  153.3378  141.0050  161.1717 C   0  0  0  0  0  0  0  0  0  0  0  0
  152.8598  142.2658  161.6045 C   0  0  0  0  0  0  0  0  0  0  0  0
  152.9496  142.7227  162.9484 N   0  0  0  0  0  0  0  0  0  0  0  0
  153.7632  142.2935  163.9281 C   0  0  0  0  0  0  0  0  0  0  0  0
  154.5668  141.3663  163.8292 O   0  0  0  0  0  0  0  0  0  0  0  0
  153.5738  142.9984  165.0527 N   0  0  0  0  0  0  0  0  0  0  0  0
  154.2761  142.7989  166.3177 C   0  0  0  0  0  0  0  0  0  0  0  0
  154.0453  144.0029  167.2448 C   0  0  0  0  0  0  0  0  0  0  0  0
  154.9070  143.8957  168.5151 C   0  0  0  0  0  0  0  0  0  0  0  0
  156.3233  143.8063  168.1588 N   0  0  0  0  0  0  0  0  0  0  0  0
  157.1120  143.7548  169.3789 C   0  0  0  0  0  0  0  0  0  0  0  0
  156.6451  144.5920  170.5477 C   0  0  0  0  0  0  0  0  0  0  0  0
  157.8745  144.9994  169.7719 C   0  0  0  0  0  0  0  0  0  0  0  0
  156.5658  142.5879  167.3858 C   0  0  0  0  0  0  0  0  0  0  0  0
  155.7824  142.6346  166.0621 C   0  0  0  0  0  0  0  0  0  0  0  0
  151.1025  146.2255  160.5180 H   0  0  0  0  0  0  0  0  0  0  0  0
  150.5825  144.9111  159.4690 H   0  0  0  0  0  0  0  0  0  0  0  0
  152.2385  145.5492  159.3558 H   0  0  0  0  0  0  0  0  0  0  0  0
  152.5307  141.3589  157.8834 H   0  0  0  0  0  0  0  0  0  0  0  0
  153.5747  139.7057  159.4521 H   0  0  0  0  0  0  0  0  0  0  0  0
  153.8049  140.3057  161.8476 H   0  0  0  0  0  0  0  0  0  0  0  0
  152.2747  143.4272  163.2086 H   0  0  0  0  0  0  0  0  0  0  0  0
  152.8851  143.7363  165.0341 H   0  0  0  0  0  0  0  0  0  0  0  0
  153.9165  141.9012  166.8238 H   0  0  0  0  0  0  0  0  0  0  0  0
  154.2869  144.9298  166.7221 H   0  0  0  0  0  0  0  0  0  0  0  0
  152.9915  144.0672  167.5183 H   0  0  0  0  0  0  0  0  0  0  0  0
  154.7430  144.7749  169.1393 H   0  0  0  0  0  0  0  0  0  0  0  0
  154.6093  143.0258  169.1029 H   0  0  0  0  0  0  0  0  0  0  0  0
  157.5926  142.8149  169.6462 H   0  0  0  0  0  0  0  0  0  0  0  0
  155.7477  145.1939  170.4173 H   0  0  0  0  0  0  0  0  0  0  0  0
  156.7916  144.1847  171.5459 H   0  0  0  0  0  0  0  0  0  0  0  0
  158.8409  144.8641  170.2534 H   0  0  0  0  0  0  0  0  0  0  0  0
  157.7940  145.8722  169.1265 H   0  0  0  0  0  0  0  0  0  0  0  0
  157.6316  142.4972  167.1730 H   0  0  0  0  0  0  0  0  0  0  0  0
  156.2795  141.7087  167.9655 H   0  0  0  0  0  0  0  0  0  0  0  0
  155.9673  141.7234  165.4923 H   0  0  0  0  0  0  0  0  0  0  0  0
  156.1519  143.4612  165.4529 H   0  0  0  0  0  0  0  0  0  0  0  0
  1  2  1  0  0  0  0
  1 22  1  0  0  0  0
  1 23  1  0  0  0  0
  1 24  1  0  0  0  0
  2  3  1  0  0  0  0
  3  8  1  0  0  0  0
  3  4  2  0  0  0  0
  4  5  1  0  0  0  0
  5  6  2  0  0  0  0
  5 25  1  0  0  0  0
  6  7  1  0  0  0  0
  6 26  1  0  0  0  0
  7  8  2  0  0  0  0
  7 27  1  0  0  0  0
  8  9  1  0  0  0  0
  9 10  1  0  0  0  0
  9 28  1  0  0  0  0
 10 11  2  0  0  0  0
 10 12  1  0  0  0  0
 12 13  1  0  0  0  0
 12 29  1  0  0  0  0
 13 21  1  0  0  0  0
 13 14  1  0  0  0  0
 13 30  1  0  0  0  0
 14 15  1  0  0  0  0
 14 31  1  0  0  0  0
 14 32  1  0  0  0  0
 15 16  1  0  0  0  0
 15 33  1  0  0  0  0
 15 34  1  0  0  0  0
 16 17  1  0  0  0  0
 16 20  1  0  0  0  0
 17 19  1  0  0  0  0
 17 18  1  0  0  0  0
 17 35  1  0  0  0  0
 18 19  1  0  0  0  0
 18 36  1  0  0  0  0
 18 37  1  0  0  0  0
 19 38  1  0  0  0  0
 19 39  1  0  0  0  0
 20 21  1  0  0  0  0
 20 40  1  0  0  0  0
 20 41  1  0  0  0  0
 21 42  1  0  0  0  0
 21 43  1  0  0  0  0
M  END
> <s_m_source_file>
AV-unprocessed.smi

> <i_m_source_file_index>
1263

> <i_lp_mmshare_version>
43012

> <i_f3d_flags>
0

> <s_epik_input>
W0NIM11PYzFuW2NIXVtjSF1bY0hdYzFbTkhdQyg9TylbTkhdW0NIXTJbQ0gyXVtDSDJdTihbQ0gyXVtDSDJdMilbQ0hdM1tDSDJdW0NIMl0z

> <s_epik_cmdline>
J2VwaWtfcHl0aG9uJywgJy1waCcsICc3LjAnLCAnLXRuJywgJzgnLCAnLW1hJywgJzIwMCcsICctbWV0YWxfYmluZGluZycsICctaW1hZScsICc8aW5maWxlLm1hZT4nLCAnLW9tYWUnLCAnPG91dGZpbGUubWFlPic=

> <r_lp_tautomer_probability>
1

> <r_epik_Ionization_Penalty>
1.02543

> <r_epik_Ionization_Penalty_Charging>
0

> <r_epik_Ionization_Penalty_Neutral>
1.02543

> <r_epik_State_Penalty>
1.07599

> <r_epik_Charging_Adjusted_Penalty>
1.07599

> <i_epik_Tot_Q>
0

> <i_epik_Tot_abs_Q>
0

> <r_epik_Metal_State_Penalty>
1.07599

> <b_epik_Metal_Only>
0

> <s_lp_Force_Field>
OPLS_2005

> <r_lp_Energy>
24.353

> <b_lp_Chiralities_Consistent>
1

> <s_lp_Variant>
AV-unprocessed.smi:1263-3

> <Gold.Version>
5.8.1

> <Gold.Id.Protein>
6NUR|6NUR_protein|mol2

> <Gold.PLP.Fitness>
40.8434

> <Gold.PLP.PLP>
-42.0869

> <Gold.PLP.part.hbond>
-2.0000

> <Gold.PLP.part.metal>
0.0000

> <Gold.PLP.part.buried>
-5.1062

> <Gold.PLP.part.nonpolar>
-34.0207

> <Gold.PLP.part.repulsive>
0.3142

> <Gold.PLP.ligand.clash>
0.0000

> <Gold.PLP.ligand.torsion>
1.2075

> <Gold.PLP.Chemscore.Hbond>
0.0000

> <Gold.PLP.Chemscore.CHOScore>
0.0000

> <Gold.PLP.Chemscore.Metal>
0.0000

> <Gold.PLP.Chemscore.Internal.Correction>
1.1715

> <Gold.Rescore>
     Score         DG    S(hbond)    S(metal)    S(lipo)     H(rot)  DE(clash)    DE(int)     intcor
      8.52     -12.72       0.00        0.00      92.62       1.41       0.90       3.30       ----

> <Gold.Chemscore.Fitness>
8.5225

> <Gold.Chemscore.DG>
-12.7183

> <Gold.Chemscore.ZeroCoef>
-5.4800

> <Gold.Chemscore.Hbond>
0.0000

> <Gold.Chemscore.Metal>
0.0000

> <Gold.Chemscore.Lipo>
92.6153

> <Gold.Chemscore.Internal_Hbond>
0.0000

> <Gold.Chemscore.DEClash>
0.9008

> <Gold.Chemscore.DEInternal>
3.2950

> <Gold.Chemscore.Rot>
1.4053

> <Gold.Chemscore.Internal.Correction>
   9.000000E+99

> <Gold.Chemscore.Hbond.Weighted>
-0.0000

> <Gold.Chemscore.Metal.Weighted>
-0.0000

> <Gold.Chemscore.Lipo.Weighted>
-10.8360

> <Gold.Chemscore.Internal_Hbond.Weighted>
0.0000

> <Gold.Chemscore.DEClash.Weighted>
0.9008

> <Gold.Chemscore.DEInternal.Weighted>
3.2950

> <Gold.Chemscore.Rot.Weighted>
3.5977

> <Gold.Chemscore.Internal.Correction.Weighted>
   9.000000E+99

> <Gold.Protein.RotatedTorsions>
[ 6907 6896 6895 6894 ] final  -84.24 input  -60.11 | X-H torsion
[ 7974 7965 7964 7962 ] final   63.47 input  175.53 | X-H torsion
[ 8008 7997 7996 7995 ] final  -82.25 input   59.86 | X-H torsion
[ 10167 10162 10161 10158 ] final   12.04 input  -65.29 | X-H torsion
[ 10718 10713 10712 10709 ] final -167.38 input   66.30 | X-H torsion
[ 10763 10752 10751 10750 ] final  -36.65 input  -60.55 | X-H torsion
[ 11005 11000 10999 10996 ] final  -33.34 input  -57.11 | X-H torsion

> <Gold.Protein.ActiveResidues>
 VAL166  LYS551  ARG553  GLY616  TRP617  ASP618  TYR619  PRO620  LYS621  CYS622 
 ASP623  PHE694  ASN695  SER759  ASP760  ASP761  ALA762  ILE779  LEU786  VAL792 
 PHE793  MET794  SER795  GLU796  ALA797  LYS798  CYS799  TRP800  GLU811  SER814 

> <Gold.Protein.RotatedAtoms>
  150.6878  134.3388  159.4858 H   0  0  0  0  0  0  0  0  0  0  0  0  # atno 6907 bound_to 6896
  152.1244  134.9179  160.0571 H   0  0  0  0  0  0  0  0  0  0  0  0  # atno 6908 bound_to 6896
  152.0373  133.3927  159.4359 H   0  0  0  0  0  0  0  0  0  0  0  0  # atno 6909 bound_to 6896
  145.8615  139.3318  143.0816 H   0  0  0  0  0  0  0  0  0  0  0  0  # atno 7974 bound_to 7965
  154.6066  140.0636  156.9439 H   0  0  0  0  0  0  0  0  0  0  0  0  # atno 8008 bound_to 7997
  155.2042  140.3317  155.4320 H   0  0  0  0  0  0  0  0  0  0  0  0  # atno 8009 bound_to 7997
  156.2351  140.1859  156.7123 H   0  0  0  0  0  0  0  0  0  0  0  0  # atno 8010 bound_to 7997
  140.6093  143.8441  150.7048 H   0  0  0  0  0  0  0  0  0  0  0  0  # atno 10167 bound_to 10162
  156.6816  130.9124  151.3057 H   0  0  0  0  0  0  0  0  0  0  0  0  # atno 10718 bound_to 10713
  153.8833  135.6819  153.4765 H   0  0  0  0  0  0  0  0  0  0  0  0  # atno 10763 bound_to 10752
  153.1222  135.4735  154.9211 H   0  0  0  0  0  0  0  0  0  0  0  0  # atno 10764 bound_to 10752
  154.7658  135.3224  154.8240 H   0  0  0  0  0  0  0  0  0  0  0  0  # atno 10765 bound_to 10752
  140.9627  133.7155  156.1394 H   0  0  0  0  0  0  0  0  0  0  0  0  # atno 11005 bound_to 11000
  145.9243  140.9093  143.0389 LP  0  0  0  0  0  0  0  0  0  0  0  0  # atno 17320 bound_to 7965
  144.6726  140.1331  143.7442 LP  0  0  0  0  0  0  0  0  0  0  0  0  # atno 17321 bound_to 7965
  140.2006  143.3963  152.1795 LP  0  0  0  0  0  0  0  0  0  0  0  0  # atno 17342 bound_to 10162
  139.5349  144.7199  151.4928 LP  0  0  0  0  0  0  0  0  0  0  0  0  # atno 17343 bound_to 10162
  157.7042  130.9366  150.0877 LP  0  0  0  0  0  0  0  0  0  0  0  0  # atno 17370 bound_to 10713
  156.1864  130.3652  149.8968 LP  0  0  0  0  0  0  0  0  0  0  0  0  # atno 17371 bound_to 10713
  140.7445  134.4114  157.5550 LP  0  0  0  0  0  0  0  0  0  0  0  0  # atno 17394 bound_to 11000
  139.8883  134.8859  156.2479 LP  0  0  0  0  0  0  0  0  0  0  0  0  # atno 17395 bound_to 11000

$$$$
