AV-unprocessed.smi:228|AV-procd|sdf|1743|dock2
  -GOLD-   2262020253D 1   1.00000     0.00000
 Structure written by MMmdl.
 60 63  0  0  0  0  0  0  0  0  2 V2000
  146.5559  139.5801  155.4089 C   0  0  0  0  0  0  0  0  0  0  0  0
  147.4839  138.9389  154.4842 N   0  0  0  0  0  0  0  0  0  0  0  0
  148.8011  139.5563  154.3120 C   0  0  0  0  0  0  0  0  0  0  0  0
  148.8835  141.0405  154.7423 C   0  0  2  0  0  0  0  0  0  0  0  0
  149.2220  141.7787  153.5876 O   0  0  0  0  0  0  0  0  0  0  0  0
  149.9608  141.3336  155.8115 C   0  0  0  0  0  0  0  0  0  0  0  0
  149.5211  142.3107  156.8419 N   0  3  0  0  0  0  0  0  0  0  0  0
  148.3371  141.8343  157.5957 C   0  0  0  0  0  0  0  0  0  0  0  0
  147.8928  142.8798  158.6322 C   0  0  0  0  0  0  0  0  0  0  0  0
  148.9732  143.1698  159.5092 O   0  0  0  0  0  0  0  0  0  0  0  0
  150.0828  143.7243  158.8158 C   0  0  0  0  0  0  0  0  0  0  0  0
  150.6035  142.7184  157.7744 C   0  0  0  0  0  0  0  0  0  0  0  0
  147.3511  137.5892  154.4163 C   0  0  0  0  0  0  0  0  0  0  0  0
  148.0034  136.7926  155.3032 N   0  0  0  0  0  0  0  0  0  0  0  0
  147.8934  135.4632  155.2244 C   0  0  0  0  0  0  0  0  0  0  0  0
  147.2025  134.7348  154.3459 N   0  0  0  0  0  0  0  0  0  0  0  0
  146.5408  135.5277  153.4559 C   0  0  0  0  0  0  0  0  0  0  0  0
  146.5505  136.9505  153.4282 C   0  0  0  0  0  0  0  0  0  0  0  0
  145.7604  137.4086  152.3811 N   0  0  0  0  0  0  0  0  0  0  0  0
  145.3005  136.3196  151.8284 C   0  0  0  0  0  0  0  0  0  0  0  0
  145.7521  135.1444  152.3853 N   0  0  0  0  0  0  0  0  0  0  0  0
  145.4012  133.8126  151.9879 C   0  0  0  0  0  0  0  0  0  0  0  0
  145.9226  133.2259  150.6731 C   0  0  0  0  0  0  0  0  0  0  0  0
  144.5846  132.4856  150.4568 C   0  0  0  0  0  0  0  0  0  0  0  0
  143.9921  132.6068  149.0440 C   0  0  0  0  0  0  0  0  0  0  0  0
  142.6640  132.1262  148.9972 O   0  0  0  0  0  0  0  0  0  0  0  0
  144.5376  130.9899  150.8427 C   0  0  0  0  0  0  0  0  0  0  0  0
  145.2806  130.6884  152.0063 O   0  0  0  0  0  0  0  0  0  0  0  0
  143.9934  133.4779  151.4834 C   0  0  0  0  0  0  0  0  0  0  0  0
  145.6365  139.8545  154.8916 H   0  0  0  0  0  0  0  0  0  0  0  0
  146.9826  140.4899  155.8320 H   0  0  0  0  0  0  0  0  0  0  0  0
  146.2994  138.9207  156.2396 H   0  0  0  0  0  0  0  0  0  0  0  0
  149.5274  138.9833  154.8900 H   0  0  0  0  0  0  0  0  0  0  0  0
  149.1001  139.4539  153.2676 H   0  0  0  0  0  0  0  0  0  0  0  0
  147.9119  141.4149  155.0569 H   0  0  0  0  0  0  0  0  0  0  0  0
  149.0437  141.2476  152.8261 H   0  0  0  0  0  0  0  0  0  0  0  0
  150.2431  140.3929  156.2873 H   0  0  0  0  0  0  0  0  0  0  0  0
  150.8690  141.7175  155.3432 H   0  0  0  0  0  0  0  0  0  0  0  0
  147.5168  141.6334  156.9056 H   0  0  0  0  0  0  0  0  0  0  0  0
  148.5759  140.8936  158.0946 H   0  0  0  0  0  0  0  0  0  0  0  0
  147.5457  143.7920  158.1458 H   0  0  0  0  0  0  0  0  0  0  0  0
  147.0576  142.4954  159.2175 H   0  0  0  0  0  0  0  0  0  0  0  0
  149.7967  144.6648  158.3463 H   0  0  0  0  0  0  0  0  0  0  0  0
  150.8676  143.9586  159.5350 H   0  0  0  0  0  0  0  0  0  0  0  0
  150.9994  141.8374  158.2818 H   0  0  0  0  0  0  0  0  0  0  0  0
  151.4304  143.1710  157.2286 H   0  0  0  0  0  0  0  0  0  0  0  0
  148.4425  134.9028  155.9670 H   0  0  0  0  0  0  0  0  0  0  0  0
  144.6282  136.3466  150.9830 H   0  0  0  0  0  0  0  0  0  0  0  0
  145.6722  133.1726  152.8283 H   0  0  0  0  0  0  0  0  0  0  0  0
  146.1068  133.9953  149.9210 H   0  0  0  0  0  0  0  0  0  0  0  0
  146.7917  132.5768  150.7850 H   0  0  0  0  0  0  0  0  0  0  0  0
  144.0074  133.6406  148.6972 H   0  0  0  0  0  0  0  0  0  0  0  0
  144.5772  132.0320  148.3253 H   0  0  0  0  0  0  0  0  0  0  0  0
  142.0985  132.8305  148.7196 H   0  0  0  0  0  0  0  0  0  0  0  0
  143.5103  130.6674  151.0147 H   0  0  0  0  0  0  0  0  0  0  0  0
  144.9289  130.3668  150.0381 H   0  0  0  0  0  0  0  0  0  0  0  0
  144.7830  130.0802  152.5313 H   0  0  0  0  0  0  0  0  0  0  0  0
  143.3427  133.0288  152.2345 H   0  0  0  0  0  0  0  0  0  0  0  0
  143.5063  134.3330  151.0118 H   0  0  0  0  0  0  0  0  0  0  0  0
  149.2248  143.1403  156.3471 H   0  0  0  0  0  0  0  0  0  0  0  0
  1  2  1  0  0  0  0
  1 30  1  0  0  0  0
  1 31  1  0  0  0  0
  1 32  1  0  0  0  0
  2  3  1  0  0  0  0
  2 13  1  0  0  0  0
  3  4  1  0  0  0  0
  3 33  1  0  0  0  0
  3 34  1  0  0  0  0
  4  5  1  0  0  0  0
  4  6  1  0  0  0  0
  4 35  1  0  0  0  0
  5 36  1  0  0  0  0
  6  7  1  0  0  0  0
  6 37  1  0  0  0  0
  6 38  1  0  0  0  0
  7 12  1  0  0  0  0
  7  8  1  0  0  0  0
  7 60  1  0  0  0  0
  8  9  1  0  0  0  0
  8 39  1  0  0  0  0
  8 40  1  0  0  0  0
  9 10  1  0  0  0  0
  9 41  1  0  0  0  0
  9 42  1  0  0  0  0
 10 11  1  0  0  0  0
 11 12  1  0  0  0  0
 11 43  1  0  0  0  0
 11 44  1  0  0  0  0
 12 45  1  0  0  0  0
 12 46  1  0  0  0  0
 13 18  1  0  0  0  0
 13 14  2  0  0  0  0
 14 15  1  0  0  0  0
 15 16  2  0  0  0  0
 15 47  1  0  0  0  0
 16 17  1  0  0  0  0
 17 21  1  0  0  0  0
 17 18  2  0  0  0  0
 18 19  1  0  0  0  0
 19 20  2  0  0  0  0
 20 21  1  0  0  0  0
 20 48  1  0  0  0  0
 21 22  1  0  0  0  0
 22 29  1  0  0  0  0
 22 23  1  0  0  0  0
 22 49  1  0  0  0  0
 23 24  1  0  0  0  0
 23 50  1  0  0  0  0
 23 51  1  0  0  0  0
 24 25  1  0  0  0  0
 24 27  1  0  0  0  0
 24 29  1  0  0  0  0
 25 26  1  0  0  0  0
 25 52  1  0  0  0  0
 25 53  1  0  0  0  0
 26 54  1  0  0  0  0
 27 28  1  0  0  0  0
 27 55  1  0  0  0  0
 27 56  1  0  0  0  0
 28 57  1  0  0  0  0
 29 58  1  0  0  0  0
 29 59  1  0  0  0  0
M  CHG  1   7   1
M  END
> <s_m_source_file>
AV-unprocessed.smi

> <i_m_source_file_index>
228

> <i_lp_mmshare_version>
43012

> <i_f3d_flags>
0

> <s_epik_input>
W0NIMl0xW0NIMl1PW0NIMl1bQ0gyXU4xW0NIMl1bQ0BASF0oW09IXSlbQ0gyXU4oW0NIM10pYyhuW2NIXW4yKWMoYzIzKW5bY0hdbjNbQ0hdKFtDSDJdNClbQ0gyXUM0KFtDSDJdW09IXSlbQ0gyXVtPSF0=

> <s_epik_cmdline>
J2VwaWtfcHl0aG9uJywgJy1waCcsICc3LjAnLCAnLXRuJywgJzgnLCAnLW1hJywgJzIwMCcsICctbWV0YWxfYmluZGluZycsICctaW1hZScsICc8aW5maWxlLm1hZT4nLCAnLW9tYWUnLCAnPG91dGZpbGUubWFlPic=

> <r_lp_tautomer_probability>
1

> <r_epik_Ionization_Penalty>
0.403032

> <r_epik_Ionization_Penalty_Charging>
0.40072

> <r_epik_Ionization_Penalty_Neutral>
0.00231206

> <r_epik_State_Penalty>
0.387266

> <r_epik_Charging_Adjusted_Penalty>
0.787986

> <i_epik_Tot_Q>
1

> <i_epik_Tot_abs_Q>
1

> <r_epik_Metal_State_Penalty>
0.385845

> <b_epik_Metal_Only>
0

> <s_lp_Force_Field>
OPLS_2005

> <r_lp_Energy>
45.878

> <b_lp_Chiralities_Consistent>
1

> <s_lp_Variant>
AV-unprocessed.smi:228-1

> <Gold.Version>
5.8.1

> <Gold.Id.Protein>
6NUR|6NUR_protein|mol2

> <Gold.PLP.Fitness>
49.3563

> <Gold.PLP.PLP>
-39.5497

> <Gold.PLP.part.hbond>
-7.2491

> <Gold.PLP.part.metal>
0.0000

> <Gold.PLP.part.buried>
-1.4759

> <Gold.PLP.part.nonpolar>
-30.6695

> <Gold.PLP.part.repulsive>
0.5372

> <Gold.PLP.ligand.clash>
0.0000

> <Gold.PLP.ligand.torsion>
3.5002

> <Gold.PLP.Chemscore.Hbond>
4.5162

> <Gold.PLP.Chemscore.CHOScore>
0.6545

> <Gold.PLP.Chemscore.Metal>
0.0000

> <Gold.Chemscore.Hbonds>
donor molecule, donor type, donor heavy atom, donor atom, acceptor molecule, acceptor atom, score
      L1  H     5    36       P1  7957  0.78
      L1  H     7    60       P1  8028  2.00
      L1  H    26    54       P1 10186  0.72
      P1  H  6933  6944       L1    10  0.29
      P1  H 10785 10796       L1    26  0.68
      L1  C    20    48       P1 10171  0.65

> <Gold.PLP.Chemscore.Internal.Correction>
1.2951

> <Gold.Rescore>
     Score         DG    S(hbond)    S(metal)    S(lipo)     H(rot)  DE(clash)    DE(int)     intcor
      9.60     -14.04       3.18        0.00      86.79       4.77       0.89       3.55       ----

> <Gold.Chemscore.Fitness>
9.6014

> <Gold.Chemscore.DG>
-14.0411

> <Gold.Chemscore.ZeroCoef>
-5.4800

> <Gold.Chemscore.Hbond>
3.1818

> <Gold.Chemscore.Metal>
0.0000

> <Gold.Chemscore.Lipo>
86.7938

> <Gold.Chemscore.Internal_Hbond>
0.0000

> <Gold.Chemscore.DEClash>
0.8884

> <Gold.Chemscore.DEInternal>
3.5513

> <Gold.Chemscore.Rot>
4.7738

> <Gold.Chemscore.Internal.Correction>
   9.000000E+99

> <Gold.Chemscore.Hbonds>
donor molecule, donor type, donor heavy atom, donor atom, acceptor molecule, acceptor atom, score
      L1  H     5    36       P1  7957  0.75
      L1  H     7    60       P1  8028  1.00
      L1  H    26    54       P1 10186  0.68
      P1  H  6933  6944       L1    10  0.19
      P1  H 10785 10796       L1    26  0.08

> <Gold.Chemscore.Hbond.Weighted>
-10.6271

> <Gold.Chemscore.Metal.Weighted>
-0.0000

> <Gold.Chemscore.Lipo.Weighted>
-10.1549

> <Gold.Chemscore.Internal_Hbond.Weighted>
0.0000

> <Gold.Chemscore.DEClash.Weighted>
0.8884

> <Gold.Chemscore.DEInternal.Weighted>
3.5513

> <Gold.Chemscore.Rot.Weighted>
12.2208

> <Gold.Chemscore.Internal.Correction.Weighted>
   9.000000E+99

> <Gold.Protein.RotatedTorsions>
[ 6907 6896 6895 6894 ] final   90.79 input  -60.11 | X-H torsion
[ 7974 7965 7964 7962 ] final -150.62 input  175.53 | X-H torsion
[ 8008 7997 7996 7995 ] final  100.78 input   59.86 | X-H torsion
[ 10167 10162 10161 10158 ] final   58.54 input  -65.29 | X-H torsion
[ 10718 10713 10712 10709 ] final   17.23 input   66.30 | X-H torsion
[ 10763 10752 10751 10750 ] final  -86.07 input  -60.55 | X-H torsion
[ 11005 11000 10999 10996 ] final  145.04 input  -57.11 | X-H torsion

> <Gold.Protein.ActiveResidues>
 VAL166  LYS551  ARG553  GLY616  TRP617  ASP618  TYR619  PRO620  LYS621  CYS622 
 ASP623  PHE694  ASN695  SER759  ASP760  ASP761  ALA762  ILE779  LEU786  VAL792 
 PHE793  MET794  SER795  GLU796  ALA797  LYS798  CYS799  TRP800  GLU811  SER814 

> <Gold.Protein.RotatedAtoms>
  152.5446  134.1757  159.8614 H   0  0  0  0  0  0  0  0  0  0  0  0  # atno 6907 bound_to 6896
  151.1763  133.4745  159.2601 H   0  0  0  0  0  0  0  0  0  0  0  0  # atno 6908 bound_to 6896
  151.1223  135.0097  159.8599 H   0  0  0  0  0  0  0  0  0  0  0  0  # atno 6909 bound_to 6896
  144.7897  140.4907  143.5781 H   0  0  0  0  0  0  0  0  0  0  0  0  # atno 7974 bound_to 7965
  156.1236  140.3208  155.8245 H   0  0  0  0  0  0  0  0  0  0  0  0  # atno 8008 bound_to 7997
  155.4460  140.0529  157.3023 H   0  0  0  0  0  0  0  0  0  0  0  0  # atno 8009 bound_to 7997
  154.4846  140.2067  155.9699 H   0  0  0  0  0  0  0  0  0  0  0  0  # atno 8010 bound_to 7997
  140.1861  144.4132  150.6592 H   0  0  0  0  0  0  0  0  0  0  0  0  # atno 10167 bound_to 10162
  157.0791  130.6380  149.5822 H   0  0  0  0  0  0  0  0  0  0  0  0  # atno 10718 bound_to 10713
  154.6182  135.5462  153.7547 H   0  0  0  0  0  0  0  0  0  0  0  0  # atno 10763 bound_to 10752
  153.0226  135.6406  154.1478 H   0  0  0  0  0  0  0  0  0  0  0  0  # atno 10764 bound_to 10752
  154.1414  135.2908  155.3140 H   0  0  0  0  0  0  0  0  0  0  0  0  # atno 10765 bound_to 10752
  140.0680  134.9168  157.1297 H   0  0  0  0  0  0  0  0  0  0  0  0  # atno 11005 bound_to 11000
  145.5828  139.1490  143.3226 LP  0  0  0  0  0  0  0  0  0  0  0  0  # atno 17320 bound_to 7965
  146.2143  140.5957  142.9045 LP  0  0  0  0  0  0  0  0  0  0  0  0  # atno 17321 bound_to 7965
  140.6487  143.2219  151.6127 LP  0  0  0  0  0  0  0  0  0  0  0  0  # atno 17342 bound_to 10162
  139.5275  144.3014  152.1070 LP  0  0  0  0  0  0  0  0  0  0  0  0  # atno 17343 bound_to 10162
  155.9929  130.4988  150.7357 LP  0  0  0  0  0  0  0  0  0  0  0  0  # atno 17370 bound_to 10713
  157.4815  131.0903  151.0531 LP  0  0  0  0  0  0  0  0  0  0  0  0  # atno 17371 bound_to 10713
  140.3670  134.2432  155.7181 LP  0  0  0  0  0  0  0  0  0  0  0  0  # atno 17394 bound_to 11000
  141.2000  133.7997  157.0508 LP  0  0  0  0  0  0  0  0  0  0  0  0  # atno 17395 bound_to 11000

$$$$
