AV-unprocessed.smi:1056|AV-procd|sdf|4630|dock8
  -GOLD-   22720 3133D 1   1.00000     0.00000
 Structure written by MMmdl.
 45 47  0  0  0  0  0  0  0  0  2 V2000
  152.6605  143.1919  161.5739 C   0  0  0  0  0  0  0  0  0  0  0  0
  152.1598  142.8388  160.1844 C   0  0  0  0  0  0  0  0  0  0  0  0
  152.6085  141.6456  159.5747 C   0  0  0  0  0  0  0  0  0  0  0  0
  152.1650  141.2803  158.2852 C   0  0  0  0  0  0  0  0  0  0  0  0
  152.4693  140.1746  157.5095 N   0  0  0  0  0  0  0  0  0  0  0  0
  151.7439  140.4035  156.4195 C   0  0  0  0  0  0  0  0  0  0  0  0
  151.0071  141.5307  156.3944 N   0  0  0  0  0  0  0  0  0  0  0  0
  150.1434  141.9841  155.3196 C   0  0  0  0  0  0  0  0  0  0  0  0
  149.2329  140.8612  154.7819 C   0  0  2  0  0  0  0  0  0  0  0  0
  149.9943  139.9860  153.9743 O   0  0  0  0  0  0  0  0  0  0  0  0
  148.0685  141.3977  153.9255 C   0  0  0  0  0  0  0  0  0  0  0  0
  147.1234  142.2372  154.7042 N   0  3  2  0  0  0  0  0  0  0  0  0
  146.5598  141.5568  155.8945 C   0  0  0  0  0  0  0  0  0  0  0  0
  145.7762  142.5622  156.7571 C   0  0  0  0  0  0  0  0  0  0  0  0
  144.9334  143.4581  155.9684 N   0  0  0  0  0  0  0  0  0  0  0  0
  145.0151  143.6355  154.6396 C   0  0  0  0  0  0  0  0  0  0  0  0
  144.2782  144.4176  154.0450 O   0  0  0  0  0  0  0  0  0  0  0  0
  146.0611  142.8311  153.8530 C   0  0  0  0  0  0  0  0  0  0  0  0
  151.2531  142.1485  157.6162 C   0  0  0  0  0  0  0  0  0  0  0  0
  150.8011  143.3394  158.2113 C   0  0  0  0  0  0  0  0  0  0  0  0
  151.2530  143.6885  159.5012 C   0  0  0  0  0  0  0  0  0  0  0  0
  150.7552  144.9740  160.1382 C   0  0  0  0  0  0  0  0  0  0  0  0
  153.3647  142.4468  161.9453 H   0  0  0  0  0  0  0  0  0  0  0  0
  151.8285  143.2456  162.2763 H   0  0  0  0  0  0  0  0  0  0  0  0
  153.1693  144.1560  161.5639 H   0  0  0  0  0  0  0  0  0  0  0  0
  153.2987  140.9981  160.0955 H   0  0  0  0  0  0  0  0  0  0  0  0
  151.7492  139.7126  155.5891 H   0  0  0  0  0  0  0  0  0  0  0  0
  149.5445  142.8124  155.6999 H   0  0  0  0  0  0  0  0  0  0  0  0
  150.7625  142.3917  154.5196 H   0  0  0  0  0  0  0  0  0  0  0  0
  148.8499  140.2718  155.6149 H   0  0  0  0  0  0  0  0  0  0  0  0
  149.5773  139.9144  153.1286 H   0  0  0  0  0  0  0  0  0  0  0  0
  148.4872  141.9870  153.1077 H   0  0  0  0  0  0  0  0  0  0  0  0
  147.5201  140.5771  153.4594 H   0  0  0  0  0  0  0  0  0  0  0  0
  145.9021  140.7500  155.5669 H   0  0  0  0  0  0  0  0  0  0  0  0
  147.3434  141.1000  156.4979 H   0  0  0  0  0  0  0  0  0  0  0  0
  145.1618  142.0374  157.4890 H   0  0  0  0  0  0  0  0  0  0  0  0
  146.4750  143.1815  157.3208 H   0  0  0  0  0  0  0  0  0  0  0  0
  144.2369  143.9900  156.4716 H   0  0  0  0  0  0  0  0  0  0  0  0
  146.5175  143.4825  153.1065 H   0  0  0  0  0  0  0  0  0  0  0  0
  145.5423  142.0378  153.3128 H   0  0  0  0  0  0  0  0  0  0  0  0
  150.1119  143.9793  157.6804 H   0  0  0  0  0  0  0  0  0  0  0  0
  150.0726  145.5080  159.4764 H   0  0  0  0  0  0  0  0  0  0  0  0
  151.5901  145.6378  160.3639 H   0  0  0  0  0  0  0  0  0  0  0  0
  150.2228  144.7590  161.0649 H   0  0  0  0  0  0  0  0  0  0  0  0
  147.6607  143.0186  155.0518 H   0  0  0  0  0  0  0  0  0  0  0  0
  1  2  1  0  0  0  0
  1 23  1  0  0  0  0
  1 24  1  0  0  0  0
  1 25  1  0  0  0  0
  2 21  1  0  0  0  0
  2  3  2  0  0  0  0
  3  4  1  0  0  0  0
  3 26  1  0  0  0  0
  4 19  2  0  0  0  0
  4  5  1  0  0  0  0
  5  6  2  0  0  0  0
  6  7  1  0  0  0  0
  6 27  1  0  0  0  0
  7  8  1  0  0  0  0
  7 19  1  0  0  0  0
  8  9  1  0  0  0  0
  8 28  1  0  0  0  0
  8 29  1  0  0  0  0
  9 10  1  0  0  0  0
  9 11  1  0  0  0  0
  9 30  1  0  0  0  0
 10 31  1  0  0  0  0
 11 12  1  0  0  0  0
 11 32  1  0  0  0  0
 11 33  1  0  0  0  0
 12 18  1  0  0  0  0
 12 13  1  0  0  0  0
 12 45  1  0  0  0  0
 13 14  1  0  0  0  0
 13 34  1  0  0  0  0
 13 35  1  0  0  0  0
 14 15  1  0  0  0  0
 14 36  1  0  0  0  0
 14 37  1  0  0  0  0
 15 16  1  0  0  0  0
 15 38  1  0  0  0  0
 16 17  2  0  0  0  0
 16 18  1  0  0  0  0
 18 39  1  0  0  0  0
 18 40  1  0  0  0  0
 19 20  1  0  0  0  0
 20 21  2  0  0  0  0
 20 41  1  0  0  0  0
 21 22  1  0  0  0  0
 22 42  1  0  0  0  0
 22 43  1  0  0  0  0
 22 44  1  0  0  0  0
M  CHG  1  12   1
M  END
> <s_m_source_file>
AV-unprocessed.smi

> <i_m_source_file_index>
1056

> <i_lp_mmshare_version>
43012

> <i_f3d_flags>
0

> <s_epik_input>
W0NIM11jKFtjSF0xKWMoW0NIM10pW2NIXWMoYzEyKW4oW2NIXW4yKVtDSDJdW0NASF0oW09IXSlbQ0gyXU4zW0NIMl1bQ0gyXVtOSF1DKD1PKVtDSDJdMw==

> <s_epik_cmdline>
J2VwaWtfcHl0aG9uJywgJy1waCcsICc3LjAnLCAnLXRuJywgJzgnLCAnLW1hJywgJzIwMCcsICctbWV0YWxfYmluZGluZycsICctaW1hZScsICc8aW5maWxlLm1hZT4nLCAnLW9tYWUnLCAnPG91dGZpbGUubWFlPic=

> <r_epik_Ionization_Penalty>
0.153633

> <r_epik_Ionization_Penalty_Charging>
0.0674887

> <r_epik_Ionization_Penalty_Neutral>
0.0861443

> <r_epik_State_Penalty>
0.135155

> <r_epik_Charging_Adjusted_Penalty>
0.202644

> <i_epik_Tot_Q>
1

> <i_epik_Tot_abs_Q>
1

> <r_epik_Metal_State_Penalty>
0.190685

> <b_epik_Metal_Only>
0

> <s_lp_Force_Field>
OPLS_2005

> <r_lp_Energy>
23.9975

> <b_lp_Chiralities_Consistent>
1

> <s_lp_Variant>
AV-unprocessed.smi:1056-1

> <Gold.Version>
5.8.1

> <Gold.Id.Protein>
6NUR|6NUR_protein|mol2

> <Gold.PLP.Fitness>
60.8223

> <Gold.PLP.PLP>
-46.7911

> <Gold.PLP.part.hbond>
-3.9774

> <Gold.PLP.part.metal>
0.0000

> <Gold.PLP.part.buried>
-5.8008

> <Gold.PLP.part.nonpolar>
-35.9028

> <Gold.PLP.part.repulsive>
0.2608

> <Gold.PLP.ligand.clash>
0.0000

> <Gold.PLP.ligand.torsion>
0.2911

> <Gold.PLP.Chemscore.Hbond>
4.8548

> <Gold.PLP.Chemscore.CHOScore>
0.0000

> <Gold.PLP.Chemscore.Metal>
0.0000

> <Gold.Chemscore.Hbonds>
donor molecule, donor type, donor heavy atom, donor atom, acceptor molecule, acceptor atom, score
      L1  H    10    31       P1  7957  1.00
      L1  H    12    45       P1  8028  1.43
      P1  H  7989  7998       L1    10  0.90
      P1  H  7997  8009       L1     5  0.86

> <Gold.PLP.Chemscore.Internal.Correction>
0.0491

> <Gold.Rescore>
     Score         DG    S(hbond)    S(metal)    S(lipo)     H(rot)  DE(clash)    DE(int)     intcor
     18.57     -21.21       2.52        0.00     114.68       2.38       1.55       1.09       ----

> <Gold.Chemscore.Fitness>
18.5695

> <Gold.Chemscore.DG>
-21.2124

> <Gold.Chemscore.ZeroCoef>
-5.4800

> <Gold.Chemscore.Hbond>
2.5158

> <Gold.Chemscore.Metal>
0.0000

> <Gold.Chemscore.Lipo>
114.6831

> <Gold.Chemscore.Internal_Hbond>
0.0000

> <Gold.Chemscore.DEClash>
1.5480

> <Gold.Chemscore.DEInternal>
1.0949

> <Gold.Chemscore.Rot>
2.3783

> <Gold.Chemscore.Internal.Correction>
   9.000000E+99

> <Gold.Chemscore.Hbonds>
donor molecule, donor type, donor heavy atom, donor atom, acceptor molecule, acceptor atom, score
      L1  H    10    31       P1  7957  0.94
      L1  H    12    45       P1  8028  0.43
      P1  H  7989  7998       L1    10  0.16
      P1  H  7997  8009       L1     5  0.34

> <Gold.Chemscore.Hbond.Weighted>
-8.4029

> <Gold.Chemscore.Metal.Weighted>
-0.0000

> <Gold.Chemscore.Lipo.Weighted>
-13.4179

> <Gold.Chemscore.Internal_Hbond.Weighted>
0.0000

> <Gold.Chemscore.DEClash.Weighted>
1.5480

> <Gold.Chemscore.DEInternal.Weighted>
1.0949

> <Gold.Chemscore.Rot.Weighted>
6.0884

> <Gold.Chemscore.Internal.Correction.Weighted>
   9.000000E+99

> <Gold.Protein.RotatedTorsions>
[ 6907 6896 6895 6894 ] final  161.35 input  -60.11 | X-H torsion
[ 7974 7965 7964 7962 ] final  172.53 input  175.53 | X-H torsion
[ 8008 7997 7996 7995 ] final  171.12 input   59.86 | X-H torsion
[ 10167 10162 10161 10158 ] final  101.94 input  -65.29 | X-H torsion
[ 10718 10713 10712 10709 ] final -179.40 input   66.30 | X-H torsion
[ 10763 10752 10751 10750 ] final  128.27 input  -60.55 | X-H torsion
[ 11005 11000 10999 10996 ] final  136.32 input  -57.11 | X-H torsion

> <Gold.Protein.ActiveResidues>
 VAL166  LYS551  ARG553  GLY616  TRP617  ASP618  TYR619  PRO620  LYS621  CYS622 
 ASP623  PHE694  ASN695  SER759  ASP760  ASP761  ALA762  ILE779  LEU786  VAL792 
 PHE793  MET794  SER795  GLU796  ALA797  LYS798  CYS799  TRP800  GLU811  SER814 

> <Gold.Protein.RotatedAtoms>
  151.9569  133.3683  159.4020 H   0  0  0  0  0  0  0  0  0  0  0  0  # atno 6907 bound_to 6896
  150.6971  134.4281  159.5245 H   0  0  0  0  0  0  0  0  0  0  0  0  # atno 6908 bound_to 6896
  152.1963  134.8627  160.0563 H   0  0  0  0  0  0  0  0  0  0  0  0  # atno 6909 bound_to 6896
  144.7266  139.9512  143.6432 H   0  0  0  0  0  0  0  0  0  0  0  0  # atno 7974 bound_to 7965
  156.1301  140.1520  156.9078 H   0  0  0  0  0  0  0  0  0  0  0  0  # atno 8008 bound_to 7997
  154.4902  140.0853  156.7618 H   0  0  0  0  0  0  0  0  0  0  0  0  # atno 8009 bound_to 7997
  155.4272  140.3425  155.4279 H   0  0  0  0  0  0  0  0  0  0  0  0  # atno 8010 bound_to 7997
  139.7394  144.7015  151.0599 H   0  0  0  0  0  0  0  0  0  0  0  0  # atno 10167 bound_to 10162
  156.8586  130.9744  151.3085 H   0  0  0  0  0  0  0  0  0  0  0  0  # atno 10718 bound_to 10713
  153.7228  135.3250  155.3270 H   0  0  0  0  0  0  0  0  0  0  0  0  # atno 10763 bound_to 10752
  154.8350  135.4503  154.1200 H   0  0  0  0  0  0  0  0  0  0  0  0  # atno 10764 bound_to 10752
  153.2325  135.6961  153.7954 H   0  0  0  0  0  0  0  0  0  0  0  0  # atno 10765 bound_to 10752
  140.0038  134.9467  157.0130 H   0  0  0  0  0  0  0  0  0  0  0  0  # atno 11005 bound_to 11000
  146.0710  139.3699  143.0523 LP  0  0  0  0  0  0  0  0  0  0  0  0  # atno 17320 bound_to 7965
  145.7968  140.9789  143.1020 LP  0  0  0  0  0  0  0  0  0  0  0  0  # atno 17321 bound_to 7965
  140.7783  143.4944  150.9852 LP  0  0  0  0  0  0  0  0  0  0  0  0  # atno 17342 bound_to 10162
  139.8632  143.7287  152.3172 LP  0  0  0  0  0  0  0  0  0  0  0  0  # atno 17343 bound_to 10162
  157.6263  130.8694  149.9195 LP  0  0  0  0  0  0  0  0  0  0  0  0  # atno 17370 bound_to 10713
  156.0789  130.3675  150.0621 LP  0  0  0  0  0  0  0  0  0  0  0  0  # atno 17371 bound_to 10713
  140.4679  134.1417  155.7199 LP  0  0  0  0  0  0  0  0  0  0  0  0  # atno 17394 bound_to 11000
  141.1662  133.8699  157.1708 LP  0  0  0  0  0  0  0  0  0  0  0  0  # atno 17395 bound_to 11000

$$$$
