AV-unprocessed.smi:3094|AV-procd|sdf|11790|dock7
  -GOLD-   2272017163D 1   1.00000     0.00000
 Structure written by MMmdl.
 29 30  0  0  0  0  0  0  0  0  1 V2000
  149.4649  140.4764  157.1381 C   0  0  0  0  0  0  0  0  0  0  0  0
  150.4525  141.2949  156.2926 C   0  0  2  0  0  0  0  0  0  0  0  0
  151.8136  140.5841  156.1686 C   0  0  0  0  0  0  0  0  0  0  0  0
  151.6712  139.1716  155.8666 N   0  0  0  0  0  0  0  0  0  0  0  0
  150.9854  138.6084  154.7984 C   0  0  0  0  0  0  0  0  0  0  0  0
  151.1264  137.2442  154.9162 C   0  0  0  0  0  0  0  0  0  0  0  0
  151.8877  136.9471  156.0441 N   0  0  0  0  0  0  0  0  0  0  0  0
  152.1719  138.1374  156.5565 C   0  0  0  0  0  0  0  0  0  0  0  0
  150.6311  142.6212  156.8810 N   0  0  0  0  0  0  0  0  0  0  0  0
  151.1610  142.8743  158.0874 C   0  0  0  0  0  0  0  0  0  0  0  0
  151.5843  141.9918  158.8351 O   0  0  0  0  0  0  0  0  0  0  0  0
  151.1888  144.3249  158.4418 C   0  0  0  0  0  0  0  0  0  0  0  0
  152.5405  145.0053  158.5147 C   0  0  0  0  0  0  0  0  0  0  0  0
  151.7803  144.7084  159.7830 C   0  0  0  0  0  0  0  0  0  0  0  0
  149.3050  139.4882  156.7061 H   0  0  0  0  0  0  0  0  0  0  0  0
  148.4933  140.9682  157.1967 H   0  0  0  0  0  0  0  0  0  0  0  0
  149.8316  140.3392  158.1559 H   0  0  0  0  0  0  0  0  0  0  0  0
  150.0341  141.3966  155.2893 H   0  0  0  0  0  0  0  0  0  0  0  0
  152.4258  141.0522  155.3959 H   0  0  0  0  0  0  0  0  0  0  0  0
  152.3689  140.6712  157.1032 H   0  0  0  0  0  0  0  0  0  0  0  0
  150.4713  139.2084  154.0619 H   0  0  0  0  0  0  0  0  0  0  0  0
  150.7411  136.4603  154.2809 H   0  0  0  0  0  0  0  0  0  0  0  0
  152.7625  138.2604  157.4525 H   0  0  0  0  0  0  0  0  0  0  0  0
  150.3107  143.4072  156.3343 H   0  0  0  0  0  0  0  0  0  0  0  0
  150.3556  144.9292  158.0855 H   0  0  0  0  0  0  0  0  0  0  0  0
  153.4328  144.4139  158.3161 H   0  0  0  0  0  0  0  0  0  0  0  0
  152.5908  146.0389  158.1787 H   0  0  0  0  0  0  0  0  0  0  0  0
  151.3150  145.5406  160.3071 H   0  0  0  0  0  0  0  0  0  0  0  0
  152.1681  143.9200  160.4258 H   0  0  0  0  0  0  0  0  0  0  0  0
  1  2  1  0  0  0  0
  1 15  1  0  0  0  0
  1 16  1  0  0  0  0
  1 17  1  0  0  0  0
  2  3  1  0  0  0  0
  2  9  1  0  0  0  0
  2 18  1  0  0  0  0
  3  4  1  0  0  0  0
  3 19  1  0  0  0  0
  3 20  1  0  0  0  0
  4  8  1  0  0  0  0
  4  5  1  0  0  0  0
  5  6  2  0  0  0  0
  5 21  1  0  0  0  0
  6  7  1  0  0  0  0
  6 22  1  0  0  0  0
  7  8  2  0  0  0  0
  8 23  1  0  0  0  0
  9 10  1  0  0  0  0
  9 24  1  0  0  0  0
 10 11  2  0  0  0  0
 10 12  1  0  0  0  0
 12 14  1  0  0  0  0
 12 13  1  0  0  0  0
 12 25  1  0  0  0  0
 13 14  1  0  0  0  0
 13 26  1  0  0  0  0
 13 27  1  0  0  0  0
 14 28  1  0  0  0  0
 14 29  1  0  0  0  0
M  END
> <s_m_source_file>
AV-unprocessed.smi

> <i_m_source_file_index>
3094

> <i_lp_mmshare_version>
43012

> <i_f3d_flags>
0

> <s_epik_input>
W0NIMl0xW0NIMl1bQ0hdMUMoPU8pW05IXVtDQEhdKFtDSDNdKVtDSDJdbjJbY0hdW2NIXW5bY0hdMg==

> <s_epik_cmdline>
J2VwaWtfcHl0aG9uJywgJy1waCcsICc3LjAnLCAnLXRuJywgJzgnLCAnLW1hJywgJzIwMCcsICctbWV0YWxfYmluZGluZycsICctaW1hZScsICc8aW5maWxlLm1hZT4nLCAnLW9tYWUnLCAnPG91dGZpbGUubWFlPic=

> <r_lp_tautomer_probability>
1

> <r_epik_Ionization_Penalty>
0.642614

> <r_epik_Ionization_Penalty_Charging>
0.642614

> <r_epik_Ionization_Penalty_Neutral>
4.09963e-08

> <r_epik_State_Penalty>
0.660429

> <r_epik_Charging_Adjusted_Penalty>
1.30304

> <i_epik_Tot_Q>
0

> <i_epik_Tot_abs_Q>
0

> <r_epik_Metal_State_Penalty>
0.31224

> <b_epik_Metal_Only>
0

> <s_lp_Force_Field>
OPLS_2005

> <r_lp_Energy>
8.14958

> <b_lp_Chiralities_Consistent>
1

> <s_lp_Variant>
AV-unprocessed.smi:3094-3

> <Gold.Version>
5.8.1

> <Gold.Id.Protein>
6NUR|6NUR_protein|mol2

> <Gold.PLP.Fitness>
43.0638

> <Gold.PLP.PLP>
-32.7024

> <Gold.PLP.part.hbond>
-2.0000

> <Gold.PLP.part.metal>
0.0000

> <Gold.PLP.part.buried>
-4.0026

> <Gold.PLP.part.nonpolar>
-26.5606

> <Gold.PLP.part.repulsive>
0.0966

> <Gold.PLP.ligand.clash>
0.0000

> <Gold.PLP.ligand.torsion>
0.1949

> <Gold.PLP.Chemscore.Hbond>
1.9913

> <Gold.PLP.Chemscore.CHOScore>
1.5657

> <Gold.PLP.Chemscore.Metal>
0.0000

> <Gold.Chemscore.Hbonds>
donor molecule, donor type, donor heavy atom, donor atom, acceptor molecule, acceptor atom, score
      L1  H     9    24       P1  8028  0.96
      P1  H 10752 10765       L1     7  0.22
      L1  C     6    22       P1  7949  0.14

> <Gold.PLP.Chemscore.Internal.Correction>
0.0803

> <Gold.Rescore>
     Score         DG    S(hbond)    S(metal)    S(lipo)     H(rot)  DE(clash)    DE(int)     intcor
     12.21     -13.58       1.27        0.00      73.05       1.83       0.20       1.17       ----

> <Gold.Chemscore.Fitness>
12.2093

> <Gold.Chemscore.DG>
-13.5772

> <Gold.Chemscore.ZeroCoef>
-5.4800

> <Gold.Chemscore.Hbond>
1.2717

> <Gold.Chemscore.Metal>
0.0000

> <Gold.Chemscore.Lipo>
73.0473

> <Gold.Chemscore.Internal_Hbond>
0.0000

> <Gold.Chemscore.DEClash>
0.1982

> <Gold.Chemscore.DEInternal>
1.1697

> <Gold.Chemscore.Rot>
1.8347

> <Gold.Chemscore.Internal.Correction>
   9.000000E+99

> <Gold.Chemscore.Hbonds>
donor molecule, donor type, donor heavy atom, donor atom, acceptor molecule, acceptor atom, score
      L1  H     9    24       P1  8028  0.89

> <Gold.Chemscore.Hbond.Weighted>
-4.2476

> <Gold.Chemscore.Metal.Weighted>
-0.0000

> <Gold.Chemscore.Lipo.Weighted>
-8.5465

> <Gold.Chemscore.Internal_Hbond.Weighted>
0.0000

> <Gold.Chemscore.DEClash.Weighted>
0.1982

> <Gold.Chemscore.DEInternal.Weighted>
1.1697

> <Gold.Chemscore.Rot.Weighted>
4.6969

> <Gold.Chemscore.Internal.Correction.Weighted>
   9.000000E+99

> <Gold.Protein.RotatedTorsions>
[ 6907 6896 6895 6894 ] final  -30.36 input  -60.11 | X-H torsion
[ 7974 7965 7964 7962 ] final  103.69 input  175.53 | X-H torsion
[ 8008 7997 7996 7995 ] final   34.14 input   59.86 | X-H torsion
[ 10167 10162 10161 10158 ] final  -11.20 input  -65.29 | X-H torsion
[ 10718 10713 10712 10709 ] final   30.12 input   66.30 | X-H torsion
[ 10763 10752 10751 10750 ] final -169.80 input  -60.55 | X-H torsion
[ 11005 11000 10999 10996 ] final  166.70 input  -57.11 | X-H torsion

> <Gold.Protein.ActiveResidues>
 VAL166  LYS551  ARG553  GLY616  TRP617  ASP618  TYR619  PRO620  LYS621  CYS622 
 ASP623  PHE694  ASN695  SER759  ASP760  ASP761  ALA762  ILE779  LEU786  VAL792 
 PHE793  MET794  SER795  GLU796  ALA797  LYS798  CYS799  TRP800  GLU811  SER814 

> <Gold.Protein.RotatedAtoms>
  151.1067  135.0003  159.8474 H   0  0  0  0  0  0  0  0  0  0  0  0  # atno 6907 bound_to 6896
  152.5440  134.1885  159.8674 H   0  0  0  0  0  0  0  0  0  0  0  0  # atno 6908 bound_to 6896
  151.1932  133.4610  159.2628 H   0  0  0  0  0  0  0  0  0  0  0  0  # atno 6909 bound_to 6896
  145.3426  139.2458  143.3601 H   0  0  0  0  0  0  0  0  0  0  0  0  # atno 7974 bound_to 7965
  155.1500  140.3274  155.4433 H   0  0  0  0  0  0  0  0  0  0  0  0  # atno 8008 bound_to 7997
  156.2577  140.1978  156.6563 H   0  0  0  0  0  0  0  0  0  0  0  0  # atno 8009 bound_to 7997
  154.6480  140.0562  156.9909 H   0  0  0  0  0  0  0  0  0  0  0  0  # atno 8010 bound_to 7997
  140.7133  143.5665  150.9138 H   0  0  0  0  0  0  0  0  0  0  0  0  # atno 10167 bound_to 10162
  157.2555  130.7135  149.6427 H   0  0  0  0  0  0  0  0  0  0  0  0  # atno 10718 bound_to 10713
  154.6483  135.2908  155.0018 H   0  0  0  0  0  0  0  0  0  0  0  0  # atno 10763 bound_to 10752
  154.1120  135.6561  153.4891 H   0  0  0  0  0  0  0  0  0  0  0  0  # atno 10764 bound_to 10752
  153.0363  135.5267  154.7380 H   0  0  0  0  0  0  0  0  0  0  0  0  # atno 10765 bound_to 10752
  140.2691  134.7841  157.3659 H   0  0  0  0  0  0  0  0  0  0  0  0  # atno 11005 bound_to 11000
  146.3001  140.4027  142.8707 LP  0  0  0  0  0  0  0  0  0  0  0  0  # atno 17320 bound_to 7965
  144.8778  140.7360  143.6005 LP  0  0  0  0  0  0  0  0  0  0  0  0  # atno 17321 bound_to 7965
  139.9391  143.6403  152.3058 LP  0  0  0  0  0  0  0  0  0  0  0  0  # atno 17342 bound_to 10162
  139.6881  144.7649  151.1487 LP  0  0  0  0  0  0  0  0  0  0  0  0  # atno 17343 bound_to 10162
  155.9665  130.4414  150.5339 LP  0  0  0  0  0  0  0  0  0  0  0  0  # atno 17370 bound_to 10713
  157.3232  131.0686  151.1916 LP  0  0  0  0  0  0  0  0  0  0  0  0  # atno 17371 bound_to 10713
  140.1390  134.4996  155.8046 LP  0  0  0  0  0  0  0  0  0  0  0  0  # atno 17394 bound_to 11000
  141.2180  133.6818  156.7176 LP  0  0  0  0  0  0  0  0  0  0  0  0  # atno 17395 bound_to 11000

$$$$
