AV-unprocessed.smi:1642|AV-procd|sdf|6570|dock8
  -GOLD-   22720 7253D 1   1.00000     0.00000
 Structure written by MMmdl.
 35 36  0  0  0  0  0  0  0  0  2 V2000
  147.4665  135.5435  162.8856 C   0  0  0  0  0  0  0  0  0  0  0  0
  147.7981  135.9571  161.4925 C   0  0  0  0  0  0  0  0  0  0  0  0
  148.0315  137.2300  161.1505 N   0  0  0  0  0  0  0  0  0  0  0  0
  148.3206  137.3675  159.8002 N   0  0  0  0  0  0  0  0  0  0  0  0
  148.2979  136.1896  159.1616 C   0  0  0  0  0  0  0  0  0  0  0  0
  148.5581  136.0396  157.7732 N   0  0  0  0  0  0  0  0  0  0  0  0
  149.2955  135.0955  157.1622 C   0  0  0  0  0  0  0  0  0  0  0  0
  149.8866  134.1748  157.7268 O   0  0  0  0  0  0  0  0  0  0  0  0
  149.3160  135.2740  155.8343 N   0  0  0  0  0  0  0  0  0  0  0  0
  150.0349  134.4088  154.9088 C   0  0  0  0  0  0  0  0  0  0  0  0
  149.0861  133.3846  154.2681 C   0  0  0  0  0  0  0  0  0  0  0  0
  148.1531  134.0225  153.3102 N   0  3  0  0  0  0  0  0  0  0  0  0
  147.7547  133.1796  152.1563 C   0  0  0  0  0  0  0  0  0  0  0  0
  146.2512  133.4012  151.9393 C   0  0  0  0  0  0  0  0  0  0  0  0
  145.9173  134.6329  152.7749 C   0  0  0  0  0  0  0  0  0  0  0  0
  146.9156  134.5438  153.9240 C   0  0  0  0  0  0  0  0  0  0  0  0
  147.9187  134.8032  160.1696 S   0  0  0  0  0  0  0  0  0  0  0  0
  147.1379  136.4017  163.4729 H   0  0  0  0  0  0  0  0  0  0  0  0
  148.3442  135.1074  163.3626 H   0  0  0  0  0  0  0  0  0  0  0  0
  146.6674  134.8021  162.8761 H   0  0  0  0  0  0  0  0  0  0  0  0
  148.1328  136.7344  157.1774 H   0  0  0  0  0  0  0  0  0  0  0  0
  148.8056  136.0524  155.4433 H   0  0  0  0  0  0  0  0  0  0  0  0
  150.5031  135.0191  154.1347 H   0  0  0  0  0  0  0  0  0  0  0  0
  150.8367  133.9035  155.4494 H   0  0  0  0  0  0  0  0  0  0  0  0
  149.6491  132.5960  153.7661 H   0  0  0  0  0  0  0  0  0  0  0  0
  148.5018  132.9025  155.0535 H   0  0  0  0  0  0  0  0  0  0  0  0
  148.3292  133.4863  151.2816 H   0  0  0  0  0  0  0  0  0  0  0  0
  147.9589  132.1220  152.3313 H   0  0  0  0  0  0  0  0  0  0  0  0
  145.9911  133.5257  150.8877 H   0  0  0  0  0  0  0  0  0  0  0  0
  145.6960  132.5420  152.3181 H   0  0  0  0  0  0  0  0  0  0  0  0
  146.0994  135.5378  152.1933 H   0  0  0  0  0  0  0  0  0  0  0  0
  144.8805  134.6504  153.1123 H   0  0  0  0  0  0  0  0  0  0  0  0
  146.5495  133.8398  154.6737 H   0  0  0  0  0  0  0  0  0  0  0  0
  147.0810  135.5045  154.4125 H   0  0  0  0  0  0  0  0  0  0  0  0
  148.6259  134.8264  152.9221 H   0  0  0  0  0  0  0  0  0  0  0  0
  1  2  1  0  0  0  0
  1 18  1  0  0  0  0
  1 19  1  0  0  0  0
  1 20  1  0  0  0  0
  2 17  1  0  0  0  0
  2  3  2  0  0  0  0
  3  4  1  0  0  0  0
  4  5  2  0  0  0  0
  5  6  1  0  0  0  0
  5 17  1  0  0  0  0
  6  7  1  0  0  0  0
  6 21  1  0  0  0  0
  7  8  2  0  0  0  0
  7  9  1  0  0  0  0
  9 10  1  0  0  0  0
  9 22  1  0  0  0  0
 10 11  1  0  0  0  0
 10 23  1  0  0  0  0
 10 24  1  0  0  0  0
 11 12  1  0  0  0  0
 11 25  1  0  0  0  0
 11 26  1  0  0  0  0
 12 16  1  0  0  0  0
 12 13  1  0  0  0  0
 12 35  1  0  0  0  0
 13 14  1  0  0  0  0
 13 27  1  0  0  0  0
 13 28  1  0  0  0  0
 14 15  1  0  0  0  0
 14 29  1  0  0  0  0
 14 30  1  0  0  0  0
 15 16  1  0  0  0  0
 15 31  1  0  0  0  0
 15 32  1  0  0  0  0
 16 33  1  0  0  0  0
 16 34  1  0  0  0  0
M  CHG  1  12   1
M  END
> <s_m_source_file>
AV-unprocessed.smi

> <i_m_source_file_index>
1642

> <i_lp_mmshare_version>
43012

> <i_f3d_flags>
0

> <s_epik_input>
W0NIM11jMW5uYyhzMSlbTkhdQyg9TylbTkhdW0NIMl1bQ0gyXU4yW0NIMl1bQ0gyXVtDSDJdW0NIMl0y

> <s_epik_cmdline>
J2VwaWtfcHl0aG9uJywgJy1waCcsICc3LjAnLCAnLXRuJywgJzgnLCAnLW1hJywgJzIwMCcsICctbWV0YWxfYmluZGluZycsICctaW1hZScsICc8aW5maWxlLm1hZT4nLCAnLW9tYWUnLCAnPG91dGZpbGUubWFlPic=

> <r_lp_tautomer_probability>
1

> <r_epik_Ionization_Penalty>
0.00661496

> <r_epik_Ionization_Penalty_Charging>
0.0023443

> <r_epik_Ionization_Penalty_Neutral>
0.00427066

> <r_epik_State_Penalty>
0.00184107

> <r_epik_Charging_Adjusted_Penalty>
0.00418537

> <i_epik_Tot_Q>
1

> <i_epik_Tot_abs_Q>
1

> <r_epik_Metal_State_Penalty>
0.375387

> <b_epik_Metal_Only>
0

> <s_lp_Force_Field>
OPLS_2005

> <r_lp_Energy>
26.1101

> <b_lp_Chiralities_Consistent>
1

> <s_lp_Variant>
AV-unprocessed.smi:1642-1

> <Gold.Version>
5.8.1

> <Gold.Id.Protein>
6NUR|6NUR_protein|mol2

> <Gold.PLP.Fitness>
39.0840

> <Gold.PLP.PLP>
-28.2293

> <Gold.PLP.part.hbond>
-5.7344

> <Gold.PLP.part.metal>
0.0000

> <Gold.PLP.part.buried>
-2.4735

> <Gold.PLP.part.nonpolar>
-20.4195

> <Gold.PLP.part.repulsive>
0.0649

> <Gold.PLP.ligand.clash>
0.0000

> <Gold.PLP.ligand.torsion>
0.8892

> <Gold.PLP.Chemscore.Hbond>
4.2064

> <Gold.PLP.Chemscore.CHOScore>
0.0000

> <Gold.PLP.Chemscore.Metal>
0.0000

> <Gold.Chemscore.Hbonds>
donor molecule, donor type, donor heavy atom, donor atom, acceptor molecule, acceptor atom, score
      L1  H    12    35       P1  7948  2.00
      P1  H  6896  6907       L1     8  0.99
      P1  H  6931  6943       L1     3  0.99
      P1  H  6934  6947       L1     3  0.14

> <Gold.PLP.Chemscore.Internal.Correction>
0.0140

> <Gold.Rescore>
     Score         DG    S(hbond)    S(metal)    S(lipo)     H(rot)  DE(clash)    DE(int)     intcor
     14.35     -15.28       2.40        0.00      50.93       1.63       0.00       0.93       ----

> <Gold.Chemscore.Fitness>
14.3489

> <Gold.Chemscore.DG>
-15.2816

> <Gold.Chemscore.ZeroCoef>
-5.4800

> <Gold.Chemscore.Hbond>
2.3996

> <Gold.Chemscore.Metal>
0.0000

> <Gold.Chemscore.Lipo>
50.9311

> <Gold.Chemscore.Internal_Hbond>
0.0000

> <Gold.Chemscore.DEClash>
0.0029

> <Gold.Chemscore.DEInternal>
0.9298

> <Gold.Chemscore.Rot>
1.6297

> <Gold.Chemscore.Internal.Correction>
   9.000000E+99

> <Gold.Chemscore.Hbonds>
donor molecule, donor type, donor heavy atom, donor atom, acceptor molecule, acceptor atom, score
      L1  H    12    35       P1  7948  0.30
      P1  H  6896  6907       L1     8  0.94
      P1  H  6931  6943       L1     3  0.47

> <Gold.Chemscore.Hbond.Weighted>
-8.0147

> <Gold.Chemscore.Metal.Weighted>
-0.0000

> <Gold.Chemscore.Lipo.Weighted>
-5.9589

> <Gold.Chemscore.Internal_Hbond.Weighted>
0.0000

> <Gold.Chemscore.DEClash.Weighted>
0.0029

> <Gold.Chemscore.DEInternal.Weighted>
0.9298

> <Gold.Chemscore.Rot.Weighted>
4.1720

> <Gold.Chemscore.Internal.Correction.Weighted>
   9.000000E+99

> <Gold.Protein.RotatedTorsions>
[ 6907 6896 6895 6894 ] final -115.72 input  -60.11 | X-H torsion
[ 7974 7965 7964 7962 ] final -140.51 input  175.53 | X-H torsion
[ 8008 7997 7996 7995 ] final -129.79 input   59.86 | X-H torsion
[ 10167 10162 10161 10158 ] final    0.48 input  -65.29 | X-H torsion
[ 10718 10713 10712 10709 ] final  113.96 input   66.30 | X-H torsion
[ 10763 10752 10751 10750 ] final   84.01 input  -60.55 | X-H torsion
[ 11005 11000 10999 10996 ] final   84.30 input  -57.11 | X-H torsion

> <Gold.Protein.ActiveResidues>
 VAL166  LYS551  ARG553  GLY616  TRP617  ASP618  TYR619  PRO620  LYS621  CYS622 
 ASP623  PHE694  ASN695  SER759  ASP760  ASP761  ALA762  ILE779  LEU786  VAL792 
 PHE793  MET794  SER795  GLU796  ALA797  LYS798  CYS799  TRP800  GLU811  SER814 

> <Gold.Protein.RotatedAtoms>
  150.8000  133.8618  159.3233 H   0  0  0  0  0  0  0  0  0  0  0  0  # atno 6907 bound_to 6896
  151.6433  135.1008  160.0155 H   0  0  0  0  0  0  0  0  0  0  0  0  # atno 6908 bound_to 6896
  152.4086  133.6888  159.6413 H   0  0  0  0  0  0  0  0  0  0  0  0  # atno 6909 bound_to 6896
  144.8592  140.6192  143.5339 H   0  0  0  0  0  0  0  0  0  0  0  0  # atno 7974 bound_to 7965
  155.2851  140.0446  157.3018 H   0  0  0  0  0  0  0  0  0  0  0  0  # atno 8008 bound_to 7997
  154.5574  140.2336  155.8357 H   0  0  0  0  0  0  0  0  0  0  0  0  # atno 8009 bound_to 7997
  156.2019  140.3023  155.9551 H   0  0  0  0  0  0  0  0  0  0  0  0  # atno 8010 bound_to 7997
  140.6727  143.7004  150.7956 H   0  0  0  0  0  0  0  0  0  0  0  0  # atno 10167 bound_to 10162
  157.6309  131.0991  150.7116 H   0  0  0  0  0  0  0  0  0  0  0  0  # atno 10718 bound_to 10713
  153.1343  135.4670  154.9397 H   0  0  0  0  0  0  0  0  0  0  0  0  # atno 10763 bound_to 10752
  154.7692  135.3153  154.8227 H   0  0  0  0  0  0  0  0  0  0  0  0  # atno 10764 bound_to 10752
  153.8763  135.6898  153.4824 H   0  0  0  0  0  0  0  0  0  0  0  0  # atno 10765 bound_to 10752
  139.9004  134.8207  156.2427 H   0  0  0  0  0  0  0  0  0  0  0  0  # atno 11005 bound_to 11000
  145.4346  139.1544  143.4003 LP  0  0  0  0  0  0  0  0  0  0  0  0  # atno 17320 bound_to 7965
  146.2847  140.4464  142.8762 LP  0  0  0  0  0  0  0  0  0  0  0  0  # atno 17321 bound_to 7965
  140.0692  143.5078  152.2588 LP  0  0  0  0  0  0  0  0  0  0  0  0  # atno 17342 bound_to 10162
  139.6003  144.7580  151.3188 LP  0  0  0  0  0  0  0  0  0  0  0  0  # atno 17343 bound_to 10162
  156.7456  130.4752  149.5468 LP  0  0  0  0  0  0  0  0  0  0  0  0  # atno 17370 bound_to 10713
  156.1511  130.6311  151.0597 LP  0  0  0  0  0  0  0  0  0  0  0  0  # atno 17371 bound_to 10713
  141.0275  133.7007  156.1372 LP  0  0  0  0  0  0  0  0  0  0  0  0  # atno 17394 bound_to 11000
  140.7145  134.4425  157.5579 LP  0  0  0  0  0  0  0  0  0  0  0  0  # atno 17395 bound_to 11000

$$$$
