AV-unprocessed.smi:89|AV-procd|sdf|826|dock5
  -GOLD-   2262017243D 1   1.00000     0.00000
 Structure written by MMmdl.
 54 56  0  0  0  0  0  0  0  0  1 V2000
  150.3246  135.5842  155.3968 C   0  0  0  0  0  0  0  0  0  0  0  0
  149.0946  136.1926  156.0925 C   0  0  0  0  0  0  0  0  0  0  0  0
  149.4193  137.2449  157.0585 N   0  0  0  0  0  0  0  0  0  0  0  0
  149.8735  138.4168  156.5375 C   0  0  0  0  0  0  0  0  0  0  0  0
  149.7755  138.6457  155.2015 N   0  0  0  0  0  0  0  0  0  0  0  0
  150.2204  139.7900  154.6754 C   0  0  0  0  0  0  0  0  0  0  0  0
  150.7887  140.8262  155.2937 N   0  0  0  0  0  0  0  0  0  0  0  0
  150.8948  140.6035  156.6347 C   0  0  0  0  0  0  0  0  0  0  0  0
  150.4751  139.4347  157.3311 C   0  0  0  0  0  0  0  0  0  0  0  0
  150.7457  139.5727  158.6873 N   0  0  0  0  0  0  0  0  0  0  0  0
  151.2920  140.7531  158.7868 C   0  0  0  0  0  0  0  0  0  0  0  0
  151.4107  141.4461  157.6037 N   0  0  0  0  0  0  0  0  0  0  0  0
  151.9641  142.7801  157.4290 C   0  0  0  0  0  0  0  0  0  0  0  0
  151.1343  143.8806  158.1303 C   0  0  2  0  0  0  0  0  0  0  0  0
  150.9762  144.9739  157.2421 O   0  0  0  0  0  0  0  0  0  0  0  0
  151.7503  144.3958  159.4279 C   0  0  0  0  0  0  0  0  0  0  0  0
  150.5295  144.7711  160.2559 C   0  0  0  0  0  0  0  0  0  0  0  0
  149.6200  143.7262  159.9554 O   0  0  0  0  0  0  0  0  0  0  0  0
  149.7350  143.4072  158.5719 C   0  0  0  0  0  0  0  0  0  0  0  0
  148.8351  137.1740  158.4085 C   0  0  2  0  0  0  0  0  0  0  0  0
  149.8959  137.0751  159.5214 C   0  0  0  0  0  0  0  0  0  0  0  0
  147.7276  136.1049  158.5678 C   0  0  0  0  0  0  0  0  0  0  0  0
  146.9354  136.1658  160.2378 S   0  0  0  0  0  0  0  0  0  0  0  0
  147.5126  137.3029  160.9711 O   0  0  0  0  0  0  0  0  0  0  0  0
  145.4771  136.0741  160.0728 O   0  0  0  0  0  0  0  0  0  0  0  0
  147.5202  134.5961  161.0144 C   0  0  0  0  0  0  0  0  0  0  0  0
  147.0141  134.4342  162.4529 C   0  0  0  0  0  0  0  0  0  0  0  0
  150.0163  134.8540  154.6486 H   0  0  0  0  0  0  0  0  0  0  0  0
  150.9730  135.0687  156.1057 H   0  0  0  0  0  0  0  0  0  0  0  0
  150.9205  136.3426  154.8907 H   0  0  0  0  0  0  0  0  0  0  0  0
  148.4333  136.6063  155.3309 H   0  0  0  0  0  0  0  0  0  0  0  0
  148.5173  135.4088  156.5810 H   0  0  0  0  0  0  0  0  0  0  0  0
  150.1030  139.8897  153.6065 H   0  0  0  0  0  0  0  0  0  0  0  0
  151.6161  141.1587  159.7343 H   0  0  0  0  0  0  0  0  0  0  0  0
  152.9886  142.7795  157.8038 H   0  0  0  0  0  0  0  0  0  0  0  0
  152.0306  142.9851  156.3596 H   0  0  0  0  0  0  0  0  0  0  0  0
  150.3690  144.7223  156.5631 H   0  0  0  0  0  0  0  0  0  0  0  0
  152.2815  143.5920  159.9383 H   0  0  0  0  0  0  0  0  0  0  0  0
  152.4507  145.2207  159.2887 H   0  0  0  0  0  0  0  0  0  0  0  0
  150.7427  144.8250  161.3237 H   0  0  0  0  0  0  0  0  0  0  0  0
  150.1142  145.7279  159.9352 H   0  0  0  0  0  0  0  0  0  0  0  0
  148.9378  143.9018  158.0144 H   0  0  0  0  0  0  0  0  0  0  0  0
  149.6016  142.3325  158.4447 H   0  0  0  0  0  0  0  0  0  0  0  0
  148.3377  138.1321  158.5623 H   0  0  0  0  0  0  0  0  0  0  0  0
  149.4269  137.1048  160.5050 H   0  0  0  0  0  0  0  0  0  0  0  0
  150.5951  137.9093  159.4801 H   0  0  0  0  0  0  0  0  0  0  0  0
  150.4707  136.1516  159.4653 H   0  0  0  0  0  0  0  0  0  0  0  0
  146.9500  136.1781  157.8094 H   0  0  0  0  0  0  0  0  0  0  0  0
  148.1715  135.1163  158.4624 H   0  0  0  0  0  0  0  0  0  0  0  0
  147.1595  133.7716  160.3994 H   0  0  0  0  0  0  0  0  0  0  0  0
  148.6096  134.5784  160.9774 H   0  0  0  0  0  0  0  0  0  0  0  0
  147.3292  133.4752  162.8645 H   0  0  0  0  0  0  0  0  0  0  0  0
  145.9255  134.4698  162.4959 H   0  0  0  0  0  0  0  0  0  0  0  0
  147.4032  135.2131  163.1072 H   0  0  0  0  0  0  0  0  0  0  0  0
  1  2  1  0  0  0  0
  1 28  1  0  0  0  0
  1 29  1  0  0  0  0
  1 30  1  0  0  0  0
  2  3  1  0  0  0  0
  2 31  1  0  0  0  0
  2 32  1  0  0  0  0
  3  4  1  0  0  0  0
  3 20  1  0  0  0  0
  4  9  1  0  0  0  0
  4  5  2  0  0  0  0
  5  6  1  0  0  0  0
  6  7  2  0  0  0  0
  6 33  1  0  0  0  0
  7  8  1  0  0  0  0
  8 12  1  0  0  0  0
  8  9  2  0  0  0  0
  9 10  1  0  0  0  0
 10 11  2  0  0  0  0
 11 12  1  0  0  0  0
 11 34  1  0  0  0  0
 12 13  1  0  0  0  0
 13 14  1  0  0  0  0
 13 35  1  0  0  0  0
 13 36  1  0  0  0  0
 14 19  1  0  0  0  0
 14 15  1  0  0  0  0
 14 16  1  0  0  0  0
 15 37  1  0  0  0  0
 16 17  1  0  0  0  0
 16 38  1  0  0  0  0
 16 39  1  0  0  0  0
 17 18  1  0  0  0  0
 17 40  1  0  0  0  0
 17 41  1  0  0  0  0
 18 19  1  0  0  0  0
 19 42  1  0  0  0  0
 19 43  1  0  0  0  0
 20 21  1  0  0  0  0
 20 22  1  0  0  0  0
 20 44  1  0  0  0  0
 21 45  1  0  0  0  0
 21 46  1  0  0  0  0
 21 47  1  0  0  0  0
 22 23  1  0  0  0  0
 22 48  1  0  0  0  0
 22 49  1  0  0  0  0
 23 24  2  0  0  0  0
 23 25  2  0  0  0  0
 23 26  1  0  0  0  0
 26 27  1  0  0  0  0
 26 50  1  0  0  0  0
 26 51  1  0  0  0  0
 27 52  1  0  0  0  0
 27 53  1  0  0  0  0
 27 54  1  0  0  0  0
M  END
> <s_m_source_file>
AV-unprocessed.smi

> <i_m_source_file_index>
89

> <i_lp_mmshare_version>
43012

> <i_f3d_flags>
0

> <s_epik_input>
W0NIM11bQ0gyXVMoPU8pKD1PKVtDSDJdW0NAQEhdKFtDSDNdKU4oW0NIMl1bQ0gzXSljKG5bY0hdbjEpYyhjMTIpbltjSF1uMltDSDJdW0NAQF0zKFtPSF0pW0NIMl1bQ0gyXU9bQ0gyXTM=

> <s_epik_cmdline>
J2VwaWtfcHl0aG9uJywgJy1waCcsICc3LjAnLCAnLXRuJywgJzgnLCAnLW1hJywgJzIwMCcsICctbWV0YWxfYmluZGluZycsICctaW1hZScsICc8aW5maWxlLm1hZT4nLCAnLW9tYWUnLCAnPG91dGZpbGUubWFlPic=

> <r_lp_tautomer_probability>
1

> <r_epik_Ionization_Penalty>
0.00103773

> <r_epik_Ionization_Penalty_Charging>
0

> <r_epik_Ionization_Penalty_Neutral>
0.00103773

> <r_epik_State_Penalty>
0.000558914

> <r_epik_Charging_Adjusted_Penalty>
0.000558914

> <i_epik_Tot_Q>
0

> <i_epik_Tot_abs_Q>
0

> <r_epik_Metal_State_Penalty>
-0

> <b_epik_Metal_Only>
0

> <s_lp_Force_Field>
OPLS_2005

> <r_lp_Energy>
26.3336

> <b_lp_Chiralities_Consistent>
1

> <s_lp_Variant>
AV-unprocessed.smi:89-2

> <Gold.Version>
5.8.1

> <Gold.Id.Protein>
6NUR|6NUR_protein|mol2

> <Gold.PLP.Fitness>
45.3884

> <Gold.PLP.PLP>
-36.3827

> <Gold.PLP.part.hbond>
-5.3629

> <Gold.PLP.part.metal>
0.0000

> <Gold.PLP.part.buried>
-2.1112

> <Gold.PLP.part.nonpolar>
-28.1507

> <Gold.PLP.part.repulsive>
0.2802

> <Gold.PLP.ligand.clash>
0.0000

> <Gold.PLP.ligand.torsion>
1.9261

> <Gold.PLP.Chemscore.Hbond>
2.9043

> <Gold.PLP.Chemscore.CHOScore>
1.0000

> <Gold.PLP.Chemscore.Metal>
0.0000

> <Gold.Chemscore.Hbonds>
donor molecule, donor type, donor heavy atom, donor atom, acceptor molecule, acceptor atom, score
      L1  H    15    37       P1  8028  1.00
      P1  H  6931  6943       L1    24  0.80
      P1  H  6933  6944       L1    18  0.11
      P1  H  6934  6947       L1    24  0.99
      L1  C     6    33       P1  7957  1.00

> <Gold.PLP.Chemscore.Internal.Correction>
1.1448

> <Gold.Rescore>
     Score         DG    S(hbond)    S(metal)    S(lipo)     H(rot)  DE(clash)    DE(int)     intcor
     10.19     -16.80       2.82        0.00      84.82       3.14       1.80       4.80       ----

> <Gold.Chemscore.Fitness>
10.1940

> <Gold.Chemscore.DG>
-16.7967

> <Gold.Chemscore.ZeroCoef>
-5.4800

> <Gold.Chemscore.Hbond>
2.8225

> <Gold.Chemscore.Metal>
0.0000

> <Gold.Chemscore.Lipo>
84.8235

> <Gold.Chemscore.Internal_Hbond>
0.0000

> <Gold.Chemscore.DEClash>
1.7984

> <Gold.Chemscore.DEInternal>
4.8044

> <Gold.Chemscore.Rot>
3.1386

> <Gold.Chemscore.Internal.Correction>
   9.000000E+99

> <Gold.Chemscore.Hbonds>
donor molecule, donor type, donor heavy atom, donor atom, acceptor molecule, acceptor atom, score
      L1  H    15    37       P1  8028  0.87
      P1  H  6931  6943       L1    24  0.75
      P1  H  6933  6944       L1    18  0.11
      P1  H  6934  6947       L1    24  0.93

> <Gold.Chemscore.Hbond.Weighted>
-9.4273

> <Gold.Chemscore.Metal.Weighted>
-0.0000

> <Gold.Chemscore.Lipo.Weighted>
-9.9244

> <Gold.Chemscore.Internal_Hbond.Weighted>
0.0000

> <Gold.Chemscore.DEClash.Weighted>
1.7984

> <Gold.Chemscore.DEInternal.Weighted>
4.8044

> <Gold.Chemscore.Rot.Weighted>
8.0349

> <Gold.Chemscore.Internal.Correction.Weighted>
   9.000000E+99

> <Gold.Protein.RotatedTorsions>
[ 6907 6896 6895 6894 ] final   97.22 input  -60.11 | X-H torsion
[ 7974 7965 7964 7962 ] final  -62.72 input  175.53 | X-H torsion
[ 8008 7997 7996 7995 ] final -114.00 input   59.86 | X-H torsion
[ 10167 10162 10161 10158 ] final -104.71 input  -65.29 | X-H torsion
[ 10718 10713 10712 10709 ] final  131.75 input   66.30 | X-H torsion
[ 10763 10752 10751 10750 ] final  -64.76 input  -60.55 | X-H torsion
[ 11005 11000 10999 10996 ] final  157.12 input  -57.11 | X-H torsion

> <Gold.Protein.ActiveResidues>
 VAL166  LYS551  ARG553  GLY616  TRP617  ASP618  TYR619  PRO620  LYS621  CYS622 
 ASP623  PHE694  ASN695  SER759  ASP760  ASP761  ALA762  ILE779  LEU786  VAL792 
 PHE793  MET794  SER795  GLU796  ALA797  LYS798  CYS799  TRP800  GLU811  SER814 

> <Gold.Protein.RotatedAtoms>
  152.5426  134.0767  159.8217 H   0  0  0  0  0  0  0  0  0  0  0  0  # atno 6907 bound_to 6896
  151.0874  133.5335  159.2624 H   0  0  0  0  0  0  0  0  0  0  0  0  # atno 6908 bound_to 6896
  151.2139  135.0501  159.8976 H   0  0  0  0  0  0  0  0  0  0  0  0  # atno 6909 bound_to 6896
  145.7878  140.8726  143.0297 H   0  0  0  0  0  0  0  0  0  0  0  0  # atno 7974 bound_to 7965
  155.0295  140.0393  157.2468 H   0  0  0  0  0  0  0  0  0  0  0  0  # atno 8008 bound_to 7997
  154.7309  140.2730  155.6434 H   0  0  0  0  0  0  0  0  0  0  0  0  # atno 8009 bound_to 7997
  156.2841  140.2684  156.2008 H   0  0  0  0  0  0  0  0  0  0  0  0  # atno 8010 bound_to 7997
  140.2064  143.3780  152.1087 H   0  0  0  0  0  0  0  0  0  0  0  0  # atno 10167 bound_to 10162
  157.4938  131.1091  150.9521 H   0  0  0  0  0  0  0  0  0  0  0  0  # atno 10718 bound_to 10713
  154.3350  135.6169  153.5569 H   0  0  0  0  0  0  0  0  0  0  0  0  # atno 10763 bound_to 10752
  152.9808  135.5756  154.4918 H   0  0  0  0  0  0  0  0  0  0  0  0  # atno 10764 bound_to 10752
  154.4612  135.2856  155.1688 H   0  0  0  0  0  0  0  0  0  0  0  0  # atno 10765 bound_to 10752
  140.1739  134.8523  157.2723 H   0  0  0  0  0  0  0  0  0  0  0  0  # atno 11005 bound_to 11000
  144.6786  140.0080  143.7484 LP  0  0  0  0  0  0  0  0  0  0  0  0  # atno 17320 bound_to 7965
  146.0008  139.3089  143.0929 LP  0  0  0  0  0  0  0  0  0  0  0  0  # atno 17321 bound_to 7965
  139.5197  144.7023  151.5458 LP  0  0  0  0  0  0  0  0  0  0  0  0  # atno 17342 bound_to 10162
  140.6354  143.8993  150.6643 LP  0  0  0  0  0  0  0  0  0  0  0  0  # atno 17343 bound_to 10162
  157.0214  130.5675  149.5332 LP  0  0  0  0  0  0  0  0  0  0  0  0  # atno 17370 bound_to 10713
  156.0188  130.5283  150.8216 LP  0  0  0  0  0  0  0  0  0  0  0  0  # atno 17371 bound_to 10713
  140.2345  134.3869  155.7507 LP  0  0  0  0  0  0  0  0  0  0  0  0  # atno 17394 bound_to 11000
  141.2219  133.7232  156.8692 LP  0  0  0  0  0  0  0  0  0  0  0  0  # atno 17395 bound_to 11000

$$$$
