AV-unprocessed.smi:3191|AV-procd|sdf|12196|dock9
  -GOLD-   2272018 33D 1   1.00000     0.00000
 Structure written by MMmdl.
 36 37  0  0  0  0  0  0  0  0  2 V2000
  152.6201  138.7878  155.5211 C   0  0  0  0  0  0  0  0  0  0  0  0
  151.3148  138.8467  154.8574 N   0  0  0  0  0  0  0  0  0  0  0  0
  150.9233  137.9164  153.9773 C   0  0  0  0  0  0  0  0  0  0  0  0
  149.7052  138.2675  153.5583 N   0  3  0  0  0  0  0  0  0  0  0  0
  149.3145  139.4263  154.1710 C   0  0  0  0  0  0  0  0  0  0  0  0
  150.3366  139.8045  155.0063 C   0  0  0  0  0  0  0  0  0  0  0  0
  150.4600  140.9766  155.9256 C   0  0  0  0  0  0  0  0  0  0  0  0
  150.0361  140.6158  157.3595 C   0  0  0  0  0  0  0  0  0  0  0  0
  150.7352  141.4336  158.3431 N   0  0  0  0  0  0  0  0  0  0  0  0
  152.0032  141.2392  158.7375 C   0  0  0  0  0  0  0  0  0  0  0  0
  152.7023  140.3243  158.2993 O   0  0  0  0  0  0  0  0  0  0  0  0
  152.4781  142.2330  159.7521 C   0  0  1  0  0  0  0  0  0  0  0  0
  153.7956  142.9360  159.4968 C   0  0  0  0  0  0  0  0  0  0  0  0
  152.5064  143.7229  159.4172 C   0  0  0  0  0  0  0  0  0  0  0  0
  152.0501  144.2777  158.0731 C   0  0  0  0  0  0  0  0  0  0  0  0
  152.1591  144.7064  160.5211 C   0  0  0  0  0  0  0  0  0  0  0  0
  152.2501  141.9848  160.7878 H   0  0  0  0  0  0  0  0  0  0  0  0
  153.1454  137.8740  155.2404 H   0  0  0  0  0  0  0  0  0  0  0  0
  152.4772  138.8026  156.6015 H   0  0  0  0  0  0  0  0  0  0  0  0
  153.2129  139.6517  155.2192 H   0  0  0  0  0  0  0  0  0  0  0  0
  151.4806  137.0513  153.6642 H   0  0  0  0  0  0  0  0  0  0  0  0
  148.3575  139.8873  153.9747 H   0  0  0  0  0  0  0  0  0  0  0  0
  151.4878  141.3403  155.9050 H   0  0  0  0  0  0  0  0  0  0  0  0
  149.8382  141.7881  155.5456 H   0  0  0  0  0  0  0  0  0  0  0  0
  148.9642  140.7733  157.4823 H   0  0  0  0  0  0  0  0  0  0  0  0
  150.2180  139.5596  157.5645 H   0  0  0  0  0  0  0  0  0  0  0  0
  150.2223  142.2024  158.7502 H   0  0  0  0  0  0  0  0  0  0  0  0
  154.4417  143.0944  160.3580 H   0  0  0  0  0  0  0  0  0  0  0  0
  154.3234  142.7353  158.5660 H   0  0  0  0  0  0  0  0  0  0  0  0
  152.3725  145.3133  157.9598 H   0  0  0  0  0  0  0  0  0  0  0  0
  150.9628  144.2449  158.0003 H   0  0  0  0  0  0  0  0  0  0  0  0
  152.4711  143.7150  157.2408 H   0  0  0  0  0  0  0  0  0  0  0  0
  152.6563  145.6617  160.3511 H   0  0  0  0  0  0  0  0  0  0  0  0
  152.4774  144.3273  161.4928 H   0  0  0  0  0  0  0  0  0  0  0  0
  151.0821  144.8741  160.5544 H   0  0  0  0  0  0  0  0  0  0  0  0
  149.1538  137.7494  152.8856 H   0  0  0  0  0  0  0  0  0  0  0  0
  1  2  1  0  0  0  0
  1 18  1  0  0  0  0
  1 19  1  0  0  0  0
  1 20  1  0  0  0  0
  2  6  1  0  0  0  0
  2  3  1  0  0  0  0
  3  4  2  0  0  0  0
  3 21  1  0  0  0  0
  4  5  1  0  0  0  0
  4 36  1  0  0  0  0
  5  6  2  0  0  0  0
  5 22  1  0  0  0  0
  6  7  1  0  0  0  0
  7  8  1  0  0  0  0
  7 23  1  0  0  0  0
  7 24  1  0  0  0  0
  8  9  1  0  0  0  0
  8 25  1  0  0  0  0
  8 26  1  0  0  0  0
  9 10  1  0  0  0  0
  9 27  1  0  0  0  0
 10 11  2  0  0  0  0
 10 12  1  0  0  0  0
 12 17  1  0  0  0  0
 12 14  1  0  0  0  0
 12 13  1  0  0  0  0
 13 14  1  0  0  0  0
 13 28  1  0  0  0  0
 13 29  1  0  0  0  0
 14 15  1  0  0  0  0
 14 16  1  0  0  0  0
 15 30  1  0  0  0  0
 15 31  1  0  0  0  0
 15 32  1  0  0  0  0
 16 33  1  0  0  0  0
 16 34  1  0  0  0  0
 16 35  1  0  0  0  0
M  CHG  1   4   1
M  END
> <s_m_source_file>
AV-unprocessed.smi

> <i_m_source_file_index>
3191

> <i_lp_mmshare_version>
43012

> <i_f3d_flags>
0

> <s_epik_input>
W0NIM11uMVtjSF1uW2NIXWMxW0NIMl1bQ0gyXVtOSF1DKD1PKVtDQEBIXShbQ0gyXTIpQzIoW0NIM10pW0NIM10=

> <s_epik_cmdline>
J2VwaWtfcHl0aG9uJywgJy1waCcsICc3LjAnLCAnLXRuJywgJzgnLCAnLW1hJywgJzIwMCcsICctbWV0YWxfYmluZGluZycsICctaW1hZScsICc8aW5maWxlLm1hZT4nLCAnLW9tYWUnLCAnPG91dGZpbGUubWFlPic=

> <r_lp_tautomer_probability>
1

> <r_epik_Ionization_Penalty>
0.153817

> <r_epik_Ionization_Penalty_Charging>
0

> <r_epik_Ionization_Penalty_Neutral>
0.153817

> <r_epik_State_Penalty>
0.14311

> <r_epik_Charging_Adjusted_Penalty>
0.14311

> <i_epik_Tot_Q>
1

> <i_epik_Tot_abs_Q>
1

> <r_epik_Metal_State_Penalty>
0.464688

> <b_epik_Metal_Only>
0

> <s_lp_Force_Field>
OPLS_2005

> <r_lp_Energy>
13.4151

> <b_lp_Chiralities_Consistent>
1

> <s_lp_Variant>
AV-unprocessed.smi:3191-1

> <Gold.Version>
5.8.1

> <Gold.Id.Protein>
6NUR|6NUR_protein|mol2

> <Gold.PLP.Fitness>
48.2204

> <Gold.PLP.PLP>
-39.1608

> <Gold.PLP.part.hbond>
-3.0000

> <Gold.PLP.part.metal>
0.0000

> <Gold.PLP.part.buried>
-0.2641

> <Gold.PLP.part.nonpolar>
-34.1757

> <Gold.PLP.part.repulsive>
0.2108

> <Gold.PLP.ligand.clash>
0.0000

> <Gold.PLP.ligand.torsion>
0.7318

> <Gold.PLP.Chemscore.Hbond>
2.5628

> <Gold.PLP.Chemscore.CHOScore>
0.9154

> <Gold.PLP.Chemscore.Metal>
0.0000

> <Gold.Chemscore.Hbonds>
donor molecule, donor type, donor heavy atom, donor atom, acceptor molecule, acceptor atom, score
      L1  H     4    36       P1  7948  1.89
      P1  H  7997  8009       L1    11  0.35
      L1  C     3    21       P1  7949  0.86

> <Gold.PLP.Chemscore.Internal.Correction>
0.0888

> <Gold.Rescore>
     Score         DG    S(hbond)    S(metal)    S(lipo)     H(rot)  DE(clash)    DE(int)     intcor
     16.69     -17.47       1.72        0.00      91.65       1.76       0.05       0.72       ----

> <Gold.Chemscore.Fitness>
16.6948

> <Gold.Chemscore.DG>
-17.4662

> <Gold.Chemscore.ZeroCoef>
-5.4800

> <Gold.Chemscore.Hbond>
1.7240

> <Gold.Chemscore.Metal>
0.0000

> <Gold.Chemscore.Lipo>
91.6535

> <Gold.Chemscore.Internal_Hbond>
0.0000

> <Gold.Chemscore.DEClash>
0.0511

> <Gold.Chemscore.DEInternal>
0.7203

> <Gold.Chemscore.Rot>
1.7561

> <Gold.Chemscore.Internal.Correction>
   9.000000E+99

> <Gold.Chemscore.Hbonds>
donor molecule, donor type, donor heavy atom, donor atom, acceptor molecule, acceptor atom, score
      L1  H     4    36       P1  7948  0.91
      P1  H  7997  8009       L1    11  0.34

> <Gold.Chemscore.Hbond.Weighted>
-5.7583

> <Gold.Chemscore.Metal.Weighted>
-0.0000

> <Gold.Chemscore.Lipo.Weighted>
-10.7235

> <Gold.Chemscore.Internal_Hbond.Weighted>
0.0000

> <Gold.Chemscore.DEClash.Weighted>
0.0511

> <Gold.Chemscore.DEInternal.Weighted>
0.7203

> <Gold.Chemscore.Rot.Weighted>
4.4956

> <Gold.Chemscore.Internal.Correction.Weighted>
   9.000000E+99

> <Gold.Protein.RotatedTorsions>
[ 6907 6896 6895 6894 ] final  -68.32 input  -60.11 | X-H torsion
[ 7974 7965 7964 7962 ] final   84.31 input  175.53 | X-H torsion
[ 8008 7997 7996 7995 ] final  160.34 input   59.86 | X-H torsion
[ 10167 10162 10161 10158 ] final -137.31 input  -65.29 | X-H torsion
[ 10718 10713 10712 10709 ] final   73.77 input   66.30 | X-H torsion
[ 10763 10752 10751 10750 ] final   30.36 input  -60.55 | X-H torsion
[ 11005 11000 10999 10996 ] final  164.63 input  -57.11 | X-H torsion

> <Gold.Protein.ActiveResidues>
 VAL166  LYS551  ARG553  GLY616  TRP617  ASP618  TYR619  PRO620  LYS621  CYS622 
 ASP623  PHE694  ASN695  SER759  ASP760  ASP761  ALA762  ILE779  LEU786  VAL792 
 PHE793  MET794  SER795  GLU796  ALA797  LYS798  CYS799  TRP800  GLU811  SER814 

> <Gold.Protein.RotatedAtoms>
  150.7362  134.5756  159.5911 H   0  0  0  0  0  0  0  0  0  0  0  0  # atno 6907 bound_to 6896
  152.3183  134.7409  160.0329 H   0  0  0  0  0  0  0  0  0  0  0  0  # atno 6908 bound_to 6896
  151.7934  133.3326  159.3542 H   0  0  0  0  0  0  0  0  0  0  0  0  # atno 6909 bound_to 6896
  145.6004  139.2351  143.2249 H   0  0  0  0  0  0  0  0  0  0  0  0  # atno 7974 bound_to 7965
  156.2179  140.1807  156.7547 H   0  0  0  0  0  0  0  0  0  0  0  0  # atno 8008 bound_to 7997
  154.5819  140.0665  156.9145 H   0  0  0  0  0  0  0  0  0  0  0  0  # atno 8009 bound_to 7997
  155.2487  140.3327  155.4287 H   0  0  0  0  0  0  0  0  0  0  0  0  # atno 8010 bound_to 7997
  139.8590  143.7101  152.2651 H   0  0  0  0  0  0  0  0  0  0  0  0  # atno 10167 bound_to 10162
  157.6562  130.9645  150.1116 H   0  0  0  0  0  0  0  0  0  0  0  0  # atno 10718 bound_to 10713
  153.0376  135.6466  154.1032 H   0  0  0  0  0  0  0  0  0  0  0  0  # atno 10763 bound_to 10752
  154.0744  135.2878  155.3304 H   0  0  0  0  0  0  0  0  0  0  0  0  # atno 10764 bound_to 10752
  154.6572  135.5404  153.8038 H   0  0  0  0  0  0  0  0  0  0  0  0  # atno 10765 bound_to 10752
  140.2478  134.8000  157.3473 H   0  0  0  0  0  0  0  0  0  0  0  0  # atno 11005 bound_to 11000
  146.1581  140.6829  142.9290 LP  0  0  0  0  0  0  0  0  0  0  0  0  # atno 17320 bound_to 7965
  144.7312  140.4678  143.6936 LP  0  0  0  0  0  0  0  0  0  0  0  0  # atno 17321 bound_to 7965
  139.7391  144.7564  151.0680 LP  0  0  0  0  0  0  0  0  0  0  0  0  # atno 17342 bound_to 10162
  140.7777  143.4994  150.9791 LP  0  0  0  0  0  0  0  0  0  0  0  0  # atno 17343 bound_to 10162
  156.2011  130.3660  149.8787 LP  0  0  0  0  0  0  0  0  0  0  0  0  # atno 17370 bound_to 10713
  156.6691  130.8813  151.3559 LP  0  0  0  0  0  0  0  0  0  0  0  0  # atno 17371 bound_to 10713
  140.1588  134.4755  155.7909 LP  0  0  0  0  0  0  0  0  0  0  0  0  # atno 17394 bound_to 11000
  141.2204  133.6892  156.7507 LP  0  0  0  0  0  0  0  0  0  0  0  0  # atno 17395 bound_to 11000

$$$$
