AV-unprocessed.smi:479|AV-procd|sdf|2673|dock2
  -GOLD-   2262023 93D 1   1.00000     0.00000
 Structure written by MMmdl.
 45 47  0  0  0  0  0  0  0  0  1 V2000
  143.8619  138.5923  156.6168 C   0  0  0  0  0  0  0  0  0  0  0  0
  144.9295  139.2372  155.9376 O   0  0  0  0  0  0  0  0  0  0  0  0
  145.3047  138.7609  154.6977 C   0  0  0  0  0  0  0  0  0  0  0  0
  144.6384  137.7028  154.0278 C   0  0  0  0  0  0  0  0  0  0  0  0
  145.0717  137.2575  152.7575 C   0  0  0  0  0  0  0  0  0  0  0  0
  144.3889  136.1445  152.0371 C   0  0  0  0  0  0  0  0  0  0  0  0
  145.0417  135.6089  150.7634 C   0  0  0  0  0  0  0  0  0  0  0  0
  143.3306  135.6416  152.4132 O   0  0  0  0  0  0  0  0  0  0  0  0
  146.1815  137.8893  152.1582 C   0  0  0  0  0  0  0  0  0  0  0  0
  146.8490  138.9383  152.8144 C   0  0  0  0  0  0  0  0  0  0  0  0
  146.4199  139.3796  154.0897 C   0  0  0  0  0  0  0  0  0  0  0  0
  147.0314  140.3973  154.7928 O   0  0  0  0  0  0  0  0  0  0  0  0
  148.2256  140.9626  154.2685 C   0  0  0  0  0  0  0  0  0  0  0  0
  149.4273  140.3648  155.0167 C   0  0  1  0  0  0  0  0  0  0  0  0
  150.1676  139.5748  154.1067 O   0  0  0  0  0  0  0  0  0  0  0  0
  150.3472  141.4602  155.5914 C   0  0  0  0  0  0  0  0  0  0  0  0
  151.2165  140.9646  156.6442 N   0  0  0  0  0  0  0  0  0  0  0  0
  151.7539  139.7333  156.7426 C   0  0  0  0  0  0  0  0  0  0  0  0
  152.5313  139.4892  157.7939 N   0  0  0  0  0  0  0  0  0  0  0  0
  152.4930  140.7039  158.4568 C   0  0  0  0  0  0  0  0  0  0  0  0
  153.1151  141.1128  159.6581 C   0  0  0  0  0  0  0  0  0  0  0  0
  152.9284  142.4216  160.1495 C   0  0  0  0  0  0  0  0  0  0  0  0
  152.1193  143.3401  159.4491 C   0  0  0  0  0  0  0  0  0  0  0  0
  151.4901  142.9561  158.2491 C   0  0  0  0  0  0  0  0  0  0  0  0
  151.6787  141.6492  157.7626 C   0  0  0  0  0  0  0  0  0  0  0  0
  143.6960  139.0857  157.5743 H   0  0  0  0  0  0  0  0  0  0  0  0
  144.0925  137.5460  156.8224 H   0  0  0  0  0  0  0  0  0  0  0  0
  142.9329  138.6545  156.0484 H   0  0  0  0  0  0  0  0  0  0  0  0
  143.7887  137.2266  154.4900 H   0  0  0  0  0  0  0  0  0  0  0  0
  145.1491  136.4037  150.0250 H   0  0  0  0  0  0  0  0  0  0  0  0
  144.4318  134.8184  150.3255 H   0  0  0  0  0  0  0  0  0  0  0  0
  146.0267  135.1964  150.9830 H   0  0  0  0  0  0  0  0  0  0  0  0
  146.5361  137.5753  151.1868 H   0  0  0  0  0  0  0  0  0  0  0  0
  147.6915  139.3898  152.3132 H   0  0  0  0  0  0  0  0  0  0  0  0
  148.3191  140.7899  153.1946 H   0  0  0  0  0  0  0  0  0  0  0  0
  148.1954  142.0409  154.4330 H   0  0  0  0  0  0  0  0  0  0  0  0
  149.0746  139.7311  155.8318 H   0  0  0  0  0  0  0  0  0  0  0  0
  149.7119  139.5684  153.2786 H   0  0  0  0  0  0  0  0  0  0  0  0
  150.9653  141.8913  154.8023 H   0  0  0  0  0  0  0  0  0  0  0  0
  149.7520  142.2769  156.0011 H   0  0  0  0  0  0  0  0  0  0  0  0
  151.5617  138.9724  156.0004 H   0  0  0  0  0  0  0  0  0  0  0  0
  153.7369  140.4178  160.2027 H   0  0  0  0  0  0  0  0  0  0  0  0
  153.4085  142.7221  161.0693 H   0  0  0  0  0  0  0  0  0  0  0  0
  151.9817  144.3397  159.8343 H   0  0  0  0  0  0  0  0  0  0  0  0
  150.8691  143.6558  157.7099 H   0  0  0  0  0  0  0  0  0  0  0  0
  1  2  1  0  0  0  0
  1 26  1  0  0  0  0
  1 27  1  0  0  0  0
  1 28  1  0  0  0  0
  2  3  1  0  0  0  0
  3 11  1  0  0  0  0
  3  4  2  0  0  0  0
  4  5  1  0  0  0  0
  4 29  1  0  0  0  0
  5  6  1  0  0  0  0
  5  9  2  0  0  0  0
  6  7  1  0  0  0  0
  6  8  2  0  0  0  0
  7 30  1  0  0  0  0
  7 31  1  0  0  0  0
  7 32  1  0  0  0  0
  9 10  1  0  0  0  0
  9 33  1  0  0  0  0
 10 11  2  0  0  0  0
 10 34  1  0  0  0  0
 11 12  1  0  0  0  0
 12 13  1  0  0  0  0
 13 14  1  0  0  0  0
 13 35  1  0  0  0  0
 13 36  1  0  0  0  0
 14 15  1  0  0  0  0
 14 16  1  0  0  0  0
 14 37  1  0  0  0  0
 15 38  1  0  0  0  0
 16 17  1  0  0  0  0
 16 39  1  0  0  0  0
 16 40  1  0  0  0  0
 17 25  1  0  0  0  0
 17 18  1  0  0  0  0
 18 19  2  0  0  0  0
 18 41  1  0  0  0  0
 19 20  1  0  0  0  0
 20 25  2  0  0  0  0
 20 21  1  0  0  0  0
 21 22  2  0  0  0  0
 21 42  1  0  0  0  0
 22 23  1  0  0  0  0
 22 43  1  0  0  0  0
 23 24  2  0  0  0  0
 23 44  1  0  0  0  0
 24 25  1  0  0  0  0
 24 45  1  0  0  0  0
M  END
> <s_m_source_file>
AV-unprocessed.smi

> <i_m_source_file_index>
479

> <i_lp_mmshare_version>
43012

> <i_f3d_flags>
0

> <s_epik_input>
W0NIM11PYzFbY0hdYyhDKD1PKVtDSDNdKVtjSF1bY0hdYzFPW0NIMl1bQ0BIXShbT0hdKVtDSDJdbihbY0hdbjIpYyhjMjMpW2NIXVtjSF1bY0hdW2NIXTM=

> <s_epik_cmdline>
J2VwaWtfcHl0aG9uJywgJy1waCcsICc3LjAnLCAnLXRuJywgJzgnLCAnLW1hJywgJzIwMCcsICctbWV0YWxfYmluZGluZycsICctaW1hZScsICc8aW5maWxlLm1hZT4nLCAnLW9tYWUnLCAnPG91dGZpbGUubWFlPic=

> <r_lp_tautomer_probability>
0.99995

> <r_epik_Ionization_Penalty>
0.061028

> <r_epik_Ionization_Penalty_Charging>
0

> <r_epik_Ionization_Penalty_Neutral>
0.061028

> <r_epik_State_Penalty>
0.052945

> <r_epik_Charging_Adjusted_Penalty>
0.052945

> <i_epik_Tot_Q>
0

> <i_epik_Tot_abs_Q>
0

> <r_epik_Metal_State_Penalty>
5.53801e-05

> <b_epik_Metal_Only>
0

> <s_lp_Force_Field>
OPLS_2005

> <r_lp_Energy>
24.9927

> <b_lp_Chiralities_Consistent>
1

> <s_lp_Variant>
AV-unprocessed.smi:479-2

> <Gold.Version>
5.8.1

> <Gold.Id.Protein>
6NUR|6NUR_protein|mol2

> <Gold.PLP.Fitness>
50.5926

> <Gold.PLP.PLP>
-44.7961

> <Gold.PLP.part.hbond>
-3.0000

> <Gold.PLP.part.metal>
0.0000

> <Gold.PLP.part.buried>
-4.8466

> <Gold.PLP.part.nonpolar>
-38.2314

> <Gold.PLP.part.repulsive>
0.2778

> <Gold.PLP.ligand.clash>
0.0000

> <Gold.PLP.ligand.torsion>
1.6254

> <Gold.PLP.Chemscore.Hbond>
2.9520

> <Gold.PLP.Chemscore.CHOScore>
0.0000

> <Gold.PLP.Chemscore.Metal>
0.0000

> <Gold.Chemscore.Hbonds>
donor molecule, donor type, donor heavy atom, donor atom, acceptor molecule, acceptor atom, score
      L1  H    15    38       P1  7957  0.65
      P1  H  7989  7998       L1    15  0.68
      P1  H  7997  8008       L1    19  0.23

> <Gold.PLP.Chemscore.Internal.Correction>
0.1913

> <Gold.Rescore>
     Score         DG    S(hbond)    S(metal)    S(lipo)     H(rot)  DE(clash)    DE(int)     intcor
     15.34     -17.17       1.82        0.00     106.07       2.66       0.20       1.63       ----

> <Gold.Chemscore.Fitness>
15.3418

> <Gold.Chemscore.DG>
-17.1697

> <Gold.Chemscore.ZeroCoef>
-5.4800

> <Gold.Chemscore.Hbond>
1.8197

> <Gold.Chemscore.Metal>
0.0000

> <Gold.Chemscore.Lipo>
106.0682

> <Gold.Chemscore.Internal_Hbond>
0.0000

> <Gold.Chemscore.DEClash>
0.1958

> <Gold.Chemscore.DEInternal>
1.6321

> <Gold.Chemscore.Rot>
2.6555

> <Gold.Chemscore.Internal.Correction>
   9.000000E+99

> <Gold.Chemscore.Hbonds>
donor molecule, donor type, donor heavy atom, donor atom, acceptor molecule, acceptor atom, score
      L1  H    15    38       P1  7957  0.62
      P1  H  7989  7998       L1    15  0.03

> <Gold.Chemscore.Hbond.Weighted>
-6.0777

> <Gold.Chemscore.Metal.Weighted>
-0.0000

> <Gold.Chemscore.Lipo.Weighted>
-12.4100

> <Gold.Chemscore.Internal_Hbond.Weighted>
0.0000

> <Gold.Chemscore.DEClash.Weighted>
0.1958

> <Gold.Chemscore.DEInternal.Weighted>
1.6321

> <Gold.Chemscore.Rot.Weighted>
6.7980

> <Gold.Chemscore.Internal.Correction.Weighted>
   9.000000E+99

> <Gold.Protein.RotatedTorsions>
[ 6907 6896 6895 6894 ] final -117.42 input  -60.11 | X-H torsion
[ 7974 7965 7964 7962 ] final  -36.57 input  175.53 | X-H torsion
[ 8008 7997 7996 7995 ] final  -75.44 input   59.86 | X-H torsion
[ 10167 10162 10161 10158 ] final  -97.79 input  -65.29 | X-H torsion
[ 10718 10713 10712 10709 ] final -154.86 input   66.30 | X-H torsion
[ 10763 10752 10751 10750 ] final  -45.82 input  -60.55 | X-H torsion
[ 11005 11000 10999 10996 ] final  107.68 input  -57.11 | X-H torsion

> <Gold.Protein.ActiveResidues>
 VAL166  LYS551  ARG553  GLY616  TRP617  ASP618  TYR619  PRO620  LYS621  CYS622 
 ASP623  PHE694  ASN695  SER759  ASP760  ASP761  ALA762  ILE779  LEU786  VAL792 
 PHE793  MET794  SER795  GLU796  ALA797  LYS798  CYS799  TRP800  GLU811  SER814 

> <Gold.Protein.RotatedAtoms>
  150.8135  133.8378  159.3170 H   0  0  0  0  0  0  0  0  0  0  0  0  # atno 6907 bound_to 6896
  151.6157  135.1035  160.0100 H   0  0  0  0  0  0  0  0  0  0  0  0  # atno 6908 bound_to 6896
  152.4227  133.7103  159.6532 H   0  0  0  0  0  0  0  0  0  0  0  0  # atno 6909 bound_to 6896
  146.0650  140.6294  142.8979 H   0  0  0  0  0  0  0  0  0  0  0  0  # atno 7974 bound_to 7965
  154.5417  140.0744  156.8521 H   0  0  0  0  0  0  0  0  0  0  0  0  # atno 8008 bound_to 7997
  155.3167  140.3393  155.4224 H   0  0  0  0  0  0  0  0  0  0  0  0  # atno 8009 bound_to 7997
  156.1881  140.1676  156.8132 H   0  0  0  0  0  0  0  0  0  0  0  0  # atno 8010 bound_to 7997
  140.2798  143.3289  152.0453 H   0  0  0  0  0  0  0  0  0  0  0  0  # atno 10167 bound_to 10162
  156.5050  130.8408  151.2624 H   0  0  0  0  0  0  0  0  0  0  0  0  # atno 10718 bound_to 10713
  154.0349  135.6652  153.4784 H   0  0  0  0  0  0  0  0  0  0  0  0  # atno 10763 bound_to 10752
  153.0525  135.5076  154.7898 H   0  0  0  0  0  0  0  0  0  0  0  0  # atno 10764 bound_to 10752
  154.6855  135.3052  154.9519 H   0  0  0  0  0  0  0  0  0  0  0  0  # atno 10765 bound_to 10752
  139.8832  134.9408  156.5856 H   0  0  0  0  0  0  0  0  0  0  0  0  # atno 11005 bound_to 11000
  144.7197  140.4331  143.7017 LP  0  0  0  0  0  0  0  0  0  0  0  0  # atno 17320 bound_to 7965
  145.6493  139.1562  143.2871 LP  0  0  0  0  0  0  0  0  0  0  0  0  # atno 17321 bound_to 7965
  139.4966  144.6600  151.6487 LP  0  0  0  0  0  0  0  0  0  0  0  0  # atno 17342 bound_to 10162
  140.5821  143.9927  150.6274 LP  0  0  0  0  0  0  0  0  0  0  0  0  # atno 17343 bound_to 10162
  157.7458  130.9969  150.2796 LP  0  0  0  0  0  0  0  0  0  0  0  0  # atno 17370 bound_to 10713
  156.3296  130.3798  149.7503 LP  0  0  0  0  0  0  0  0  0  0  0  0  # atno 17371 bound_to 10713
  140.7994  133.8517  155.8714 LP  0  0  0  0  0  0  0  0  0  0  0  0  # atno 17394 bound_to 11000
  140.9606  134.1660  157.4657 LP  0  0  0  0  0  0  0  0  0  0  0  0  # atno 17395 bound_to 11000

$$$$
