AV-unprocessed.smi:493|AV-procd|sdf|2712|dock9
  -GOLD-   2262023153D 1   1.00000     0.00000
 Structure written by MMmdl.
 46 47  0  0  0  0  0  0  0  0  1 V2000
  151.2234  144.4273  160.1327 C   0  0  0  0  0  0  0  0  0  0  0  0
  151.9901  143.5099  159.1638 C   0  0  0  0  0  0  0  0  0  0  0  0
  152.4248  144.3329  157.9329 C   0  0  0  0  0  0  0  0  0  0  0  0
  153.2214  142.9303  159.8917 C   0  0  0  0  0  0  0  0  0  0  0  0
  151.0676  142.4376  158.7717 N   0  0  0  0  0  0  0  0  0  0  0  0
  151.3554  141.2494  158.2115 C   0  0  0  0  0  0  0  0  0  0  0  0
  152.4956  140.8879  157.9187 O   0  0  0  0  0  0  0  0  0  0  0  0
  150.1510  140.3417  157.9240 C   0  0  0  0  0  0  0  0  0  0  0  0
  150.3941  139.3835  156.8331 N   0  0  0  0  0  0  0  0  0  0  0  0
  150.2944  138.0145  157.1483 C   0  0  0  0  0  0  0  0  0  0  0  0
  150.4704  137.0604  156.2195 C   0  0  0  0  0  0  0  0  0  0  0  0
  150.4740  135.3111  156.6872 S   0  0  0  0  0  0  0  0  0  0  0  0
  151.8462  134.8163  156.4978 O   0  0  0  0  0  0  0  0  0  0  0  0
  149.8286  135.1974  158.0047 O   0  0  0  0  0  0  0  0  0  0  0  0
  149.4618  134.4895  155.5472 N   0  0  0  0  0  0  0  0  0  0  0  0
  150.1053  133.6001  154.5710 C   0  0  0  0  0  0  0  0  0  0  0  0
  149.4005  132.2516  154.7117 C   0  0  0  0  0  0  0  0  0  0  0  0
  147.9947  132.6427  155.1407 C   0  0  0  0  0  0  0  0  0  0  0  0
  148.2309  133.8542  156.0423 C   0  0  0  0  0  0  0  0  0  0  0  0
  150.8332  137.4628  154.8808 C   0  0  0  0  0  0  0  0  0  0  0  0
  150.9460  138.7704  154.5743 C   0  0  0  0  0  0  0  0  0  0  0  0
  150.7101  139.8191  155.5740 C   0  0  0  0  0  0  0  0  0  0  0  0
  150.7942  141.0159  155.2972 O   0  0  0  0  0  0  0  0  0  0  0  0
  151.8476  145.2539  160.4742 H   0  0  0  0  0  0  0  0  0  0  0  0
  150.8891  143.8830  161.0169 H   0  0  0  0  0  0  0  0  0  0  0  0
  150.3403  144.8582  159.6591 H   0  0  0  0  0  0  0  0  0  0  0  0
  151.5626  144.7189  157.3882 H   0  0  0  0  0  0  0  0  0  0  0  0
  153.0198  143.7444  157.2346 H   0  0  0  0  0  0  0  0  0  0  0  0
  153.0345  145.1874  158.2280 H   0  0  0  0  0  0  0  0  0  0  0  0
  153.8628  143.7262  160.2718 H   0  0  0  0  0  0  0  0  0  0  0  0
  153.8350  142.3152  159.2335 H   0  0  0  0  0  0  0  0  0  0  0  0
  152.9278  142.3124  160.7412 H   0  0  0  0  0  0  0  0  0  0  0  0
  150.0919  142.6197  158.9569 H   0  0  0  0  0  0  0  0  0  0  0  0
  149.8718  139.8081  158.8347 H   0  0  0  0  0  0  0  0  0  0  0  0
  149.2956  140.9777  157.6928 H   0  0  0  0  0  0  0  0  0  0  0  0
  150.0722  137.7957  158.1827 H   0  0  0  0  0  0  0  0  0  0  0  0
  149.9590  134.0127  153.5723 H   0  0  0  0  0  0  0  0  0  0  0  0
  151.1782  133.5174  154.7498 H   0  0  0  0  0  0  0  0  0  0  0  0
  149.4170  131.6664  153.7918 H   0  0  0  0  0  0  0  0  0  0  0  0
  149.8780  131.6632  155.4965 H   0  0  0  0  0  0  0  0  0  0  0  0
  147.4093  132.9364  154.2683 H   0  0  0  0  0  0  0  0  0  0  0  0
  147.4652  131.8354  155.6471 H   0  0  0  0  0  0  0  0  0  0  0  0
  148.3773  133.5295  157.0731 H   0  0  0  0  0  0  0  0  0  0  0  0
  147.3959  134.5549  156.0228 H   0  0  0  0  0  0  0  0  0  0  0  0
  151.0118  136.7166  154.1209 H   0  0  0  0  0  0  0  0  0  0  0  0
  151.2154  139.0559  153.5680 H   0  0  0  0  0  0  0  0  0  0  0  0
  1  2  1  0  0  0  0
  1 24  1  0  0  0  0
  1 25  1  0  0  0  0
  1 26  1  0  0  0  0
  2  3  1  0  0  0  0
  2  4  1  0  0  0  0
  2  5  1  0  0  0  0
  3 27  1  0  0  0  0
  3 28  1  0  0  0  0
  3 29  1  0  0  0  0
  4 30  1  0  0  0  0
  4 31  1  0  0  0  0
  4 32  1  0  0  0  0
  5  6  1  0  0  0  0
  5 33  1  0  0  0  0
  6  7  2  0  0  0  0
  6  8  1  0  0  0  0
  8  9  1  0  0  0  0
  8 34  1  0  0  0  0
  8 35  1  0  0  0  0
  9 22  1  0  0  0  0
  9 10  1  0  0  0  0
 10 11  2  0  0  0  0
 10 36  1  0  0  0  0
 11 12  1  0  0  0  0
 11 20  1  0  0  0  0
 12 13  2  0  0  0  0
 12 14  2  0  0  0  0
 12 15  1  0  0  0  0
 15 19  1  0  0  0  0
 15 16  1  0  0  0  0
 16 17  1  0  0  0  0
 16 37  1  0  0  0  0
 16 38  1  0  0  0  0
 17 18  1  0  0  0  0
 17 39  1  0  0  0  0
 17 40  1  0  0  0  0
 18 19  1  0  0  0  0
 18 41  1  0  0  0  0
 18 42  1  0  0  0  0
 19 43  1  0  0  0  0
 19 44  1  0  0  0  0
 20 21  2  0  0  0  0
 20 45  1  0  0  0  0
 21 22  1  0  0  0  0
 21 46  1  0  0  0  0
 22 23  2  0  0  0  0
M  END
> <s_m_source_file>
AV-unprocessed.smi

> <i_m_source_file_index>
493

> <i_lp_mmshare_version>
43012

> <i_f3d_flags>
0

> <s_epik_input>
W0NIM11DKFtDSDNdKShbQ0gzXSlbTkhdQyg9TylbQ0gyXW4xW2NIXWMoW2NIXVtjSF1jMT1PKVMoPU8pKD1PKU4yW0NIMl1bQ0gyXVtDSDJdW0NIMl0y

> <s_epik_cmdline>
J2VwaWtfcHl0aG9uJywgJy1waCcsICc3LjAnLCAnLXRuJywgJzgnLCAnLW1hJywgJzIwMCcsICctbWV0YWxfYmluZGluZycsICctaW1hZScsICc8aW5maWxlLm1hZT4nLCAnLW9tYWUnLCAnPG91dGZpbGUubWFlPic=

> <r_lp_tautomer_probability>
1

> <r_epik_Ionization_Penalty>
3.47616e-08

> <r_epik_Ionization_Penalty_Charging>
1.01201e-08

> <r_epik_Ionization_Penalty_Neutral>
2.46415e-08

> <r_epik_State_Penalty>
-0

> <r_epik_Charging_Adjusted_Penalty>
1.01201e-08

> <i_epik_Tot_Q>
0

> <i_epik_Tot_abs_Q>
0

> <r_epik_Metal_State_Penalty>
-0

> <b_epik_Metal_Only>
0

> <s_lp_Force_Field>
OPLS_2005

> <r_lp_Energy>
19.4052

> <b_lp_Chiralities_Consistent>
1

> <s_lp_Variant>
AV-unprocessed.smi:493-1

> <Gold.Version>
5.8.1

> <Gold.Id.Protein>
6NUR|6NUR_protein|mol2

> <Gold.PLP.Fitness>
41.6022

> <Gold.PLP.PLP>
-35.5239

> <Gold.PLP.part.hbond>
-3.5030

> <Gold.PLP.part.metal>
0.0000

> <Gold.PLP.part.buried>
-3.2439

> <Gold.PLP.part.nonpolar>
-28.5188

> <Gold.PLP.part.repulsive>
0.2319

> <Gold.PLP.ligand.clash>
0.0000

> <Gold.PLP.ligand.torsion>
2.0223

> <Gold.PLP.Chemscore.Hbond>
2.5519

> <Gold.PLP.Chemscore.CHOScore>
0.0000

> <Gold.PLP.Chemscore.Metal>
0.0000

> <Gold.Chemscore.Hbonds>
donor molecule, donor type, donor heavy atom, donor atom, acceptor molecule, acceptor atom, score
      P1  H  6896  6908       L1    14  0.90
      P1  H  7989  7998       L1    23  0.70
      P1  H 10752 10765       L1    13  0.93

> <Gold.PLP.Chemscore.Internal.Correction>
2.4672

> <Gold.Rescore>
     Score         DG    S(hbond)    S(metal)    S(lipo)     H(rot)  DE(clash)    DE(int)     intcor
     15.09     -18.52       2.04        0.00      88.87       1.62       0.22       3.22       ----

> <Gold.Chemscore.Fitness>
15.0894

> <Gold.Chemscore.DG>
-18.5224

> <Gold.Chemscore.ZeroCoef>
-5.4800

> <Gold.Chemscore.Hbond>
2.0352

> <Gold.Chemscore.Metal>
0.0000

> <Gold.Chemscore.Lipo>
88.8691

> <Gold.Chemscore.Internal_Hbond>
0.0000

> <Gold.Chemscore.DEClash>
0.2163

> <Gold.Chemscore.DEInternal>
3.2167

> <Gold.Chemscore.Rot>
1.6222

> <Gold.Chemscore.Internal.Correction>
   9.000000E+99

> <Gold.Chemscore.Hbonds>
donor molecule, donor type, donor heavy atom, donor atom, acceptor molecule, acceptor atom, score
      P1  H  6896  6908       L1    14  0.86
      P1  H  7989  7998       L1    23  0.18
      P1  H 10752 10765       L1    13  0.84

> <Gold.Chemscore.Hbond.Weighted>
-6.7975

> <Gold.Chemscore.Metal.Weighted>
-0.0000

> <Gold.Chemscore.Lipo.Weighted>
-10.3977

> <Gold.Chemscore.Internal_Hbond.Weighted>
0.0000

> <Gold.Chemscore.DEClash.Weighted>
0.2163

> <Gold.Chemscore.DEInternal.Weighted>
3.2167

> <Gold.Chemscore.Rot.Weighted>
4.1528

> <Gold.Chemscore.Internal.Correction.Weighted>
   9.000000E+99

> <Gold.Protein.RotatedTorsions>
[ 6907 6896 6895 6894 ] final  147.52 input  -60.11 | X-H torsion
[ 7974 7965 7964 7962 ] final -128.28 input  175.53 | X-H torsion
[ 8008 7997 7996 7995 ] final   -9.37 input   59.86 | X-H torsion
[ 10167 10162 10161 10158 ] final   -6.05 input  -65.29 | X-H torsion
[ 10718 10713 10712 10709 ] final   65.99 input   66.30 | X-H torsion
[ 10763 10752 10751 10750 ] final -147.60 input  -60.55 | X-H torsion
[ 11005 11000 10999 10996 ] final  -13.80 input  -57.11 | X-H torsion

> <Gold.Protein.ActiveResidues>
 VAL166  LYS551  ARG553  GLY616  TRP617  ASP618  TYR619  PRO620  LYS621  CYS622 
 ASP623  PHE694  ASN695  SER759  ASP760  ASP761  ALA762  ILE779  LEU786  VAL792 
 PHE793  MET794  SER795  GLU796  ALA797  LYS798  CYS799  TRP800  GLU811  SER814 

> <Gold.Protein.RotatedAtoms>
  152.1537  133.4538  159.4826 H   0  0  0  0  0  0  0  0  0  0  0  0  # atno 6907 bound_to 6896
  150.6898  134.2157  159.4386 H   0  0  0  0  0  0  0  0  0  0  0  0  # atno 6908 bound_to 6896
  152.0055  134.9904  160.0617 H   0  0  0  0  0  0  0  0  0  0  0  0  # atno 6909 bound_to 6896
  144.9687  140.7522  143.4684 H   0  0  0  0  0  0  0  0  0  0  0  0  # atno 7974 bound_to 7965
  154.5653  140.2356  155.8274 H   0  0  0  0  0  0  0  0  0  0  0  0  # atno 8008 bound_to 7997
  156.2063  140.3039  155.9592 H   0  0  0  0  0  0  0  0  0  0  0  0  # atno 8009 bound_to 7997
  155.2813  140.0422  157.3006 H   0  0  0  0  0  0  0  0  0  0  0  0  # atno 8010 bound_to 7997
  140.6984  143.6239  150.8587 H   0  0  0  0  0  0  0  0  0  0  0  0  # atno 10167 bound_to 10162
  157.6141  130.9243  150.0049 H   0  0  0  0  0  0  0  0  0  0  0  0  # atno 10718 bound_to 10713
  154.8277  135.3356  154.6844 H   0  0  0  0  0  0  0  0  0  0  0  0  # atno 10763 bound_to 10752
  153.7467  135.6942  153.4959 H   0  0  0  0  0  0  0  0  0  0  0  0  # atno 10764 bound_to 10752
  153.2205  135.4450  155.0434 H   0  0  0  0  0  0  0  0  0  0  0  0  # atno 10765 bound_to 10752
  140.7798  133.8372  155.9281 H   0  0  0  0  0  0  0  0  0  0  0  0  # atno 11005 bound_to 11000
  145.2591  139.1999  143.4901 LP  0  0  0  0  0  0  0  0  0  0  0  0  # atno 17320 bound_to 7965
  146.3375  140.2518  142.8599 LP  0  0  0  0  0  0  0  0  0  0  0  0  # atno 17321 bound_to 7965
  139.9959  143.5797  152.2893 LP  0  0  0  0  0  0  0  0  0  0  0  0  # atno 17342 bound_to 10162
  139.6469  144.7658  151.2227 LP  0  0  0  0  0  0  0  0  0  0  0  0  # atno 17343 bound_to 10162
  156.1255  130.3644  149.9817 LP  0  0  0  0  0  0  0  0  0  0  0  0  # atno 17370 bound_to 10713
  156.7888  130.9248  151.3646 LP  0  0  0  0  0  0  0  0  0  0  0  0  # atno 17371 bound_to 10713
  140.9494  134.1799  157.4739 LP  0  0  0  0  0  0  0  0  0  0  0  0  # atno 17394 bound_to 11000
  139.8744  134.9903  156.5496 LP  0  0  0  0  0  0  0  0  0  0  0  0  # atno 17395 bound_to 11000

$$$$
