AV-unprocessed.smi:101|AV-procd|sdf|943|dock1
  -GOLD-   2262017463D 1   1.00000     0.00000
 Structure written by MMmdl.
 43 45  0  0  0  0  0  0  0  0  2 V2000
  146.2151  138.2854  152.0405 C   0  0  0  0  0  0  0  0  0  0  0  0
  146.2925  137.8240  153.4851 C   0  0  0  0  0  0  0  0  0  0  0  0
  147.4514  137.8216  154.1805 C   0  0  0  0  0  0  0  0  0  0  0  0
  147.5177  137.3959  155.4952 N   0  0  0  0  0  0  0  0  0  0  0  0
  148.8370  137.4039  156.2385 C   0  0  2  0  0  0  0  0  0  0  0  0
  149.3555  138.7007  156.2172 O   0  0  0  0  0  0  0  0  0  0  0  0
  150.7508  138.6540  155.9436 C   0  0  2  0  0  0  0  0  0  0  0  0
  151.2450  139.9906  155.3726 C   0  0  0  0  0  0  0  0  0  0  0  0
  151.2779  140.9574  156.4094 O   0  0  0  0  0  0  0  0  0  0  0  0
  152.1570  140.8300  157.4217 C   0  0  0  0  0  0  0  0  0  0  0  0
  152.7954  139.7991  157.6449 O   0  0  0  0  0  0  0  0  0  0  0  0
  152.2765  142.0671  158.2463 C   0  0  0  0  0  0  0  0  0  0  0  0
  152.8889  141.9953  159.5193 C   0  0  0  0  0  0  0  0  0  0  0  0
  153.0166  143.1470  160.3199 C   0  0  0  0  0  0  0  0  0  0  0  0
  152.5337  144.3848  159.8570 C   0  0  0  0  0  0  0  0  0  0  0  0
  151.9226  144.4697  158.5924 C   0  0  0  0  0  0  0  0  0  0  0  0
  151.7939  143.3190  157.7904 C   0  0  0  0  0  0  0  0  0  0  0  0
  150.9043  137.4393  155.0201 C   0  0  2  0  0  0  0  0  0  0  0  0
  150.6154  137.7890  153.6759 O   0  0  0  0  0  0  0  0  0  0  0  0
  149.8892  136.4649  155.6096 C   0  0  2  0  0  0  0  0  0  0  0  0
  149.4005  135.5245  154.6680 O   0  0  0  0  0  0  0  0  0  0  0  0
  146.3458  136.9201  156.1394 C   0  0  0  0  0  0  0  0  0  0  0  0
  146.4456  136.5058  157.2947 O   0  0  0  0  0  0  0  0  0  0  0  0
  145.1699  136.9287  155.4496 N   0  5  0  0  0  0  0  0  0  0  0  0
  145.0741  137.3570  154.1579 C   0  0  0  0  0  0  0  0  0  0  0  0
  144.0049  137.3613  153.5482 O   0  0  0  0  0  0  0  0  0  0  0  0
  147.1884  138.6170  151.6779 H   0  0  0  0  0  0  0  0  0  0  0  0
  145.5167  139.1171  151.9419 H   0  0  0  0  0  0  0  0  0  0  0  0
  145.8751  137.4712  151.3999 H   0  0  0  0  0  0  0  0  0  0  0  0
  148.3525  138.1577  153.6896 H   0  0  0  0  0  0  0  0  0  0  0  0
  148.6117  137.1523  157.2756 H   0  0  0  0  0  0  0  0  0  0  0  0
  151.2710  138.4390  156.8792 H   0  0  0  0  0  0  0  0  0  0  0  0
  152.2521  139.8723  154.9705 H   0  0  0  0  0  0  0  0  0  0  0  0
  150.5991  140.3229  154.5585 H   0  0  0  0  0  0  0  0  0  0  0  0
  153.2673  141.0559  159.8961 H   0  0  0  0  0  0  0  0  0  0  0  0
  153.4860  143.0800  161.2903 H   0  0  0  0  0  0  0  0  0  0  0  0
  152.6319  145.2680  160.4711 H   0  0  0  0  0  0  0  0  0  0  0  0
  151.5516  145.4193  158.2358 H   0  0  0  0  0  0  0  0  0  0  0  0
  151.3207  143.4194  156.8245 H   0  0  0  0  0  0  0  0  0  0  0  0
  151.9157  137.0332  155.0530 H   0  0  0  0  0  0  0  0  0  0  0  0
  149.8598  137.2985  153.3920 H   0  0  0  0  0  0  0  0  0  0  0  0
  150.3558  135.9182  156.4299 H   0  0  0  0  0  0  0  0  0  0  0  0
  149.3505  135.9481  153.8242 H   0  0  0  0  0  0  0  0  0  0  0  0
  1  2  1  0  0  0  0
  1 27  1  0  0  0  0
  1 28  1  0  0  0  0
  1 29  1  0  0  0  0
  2 25  1  0  0  0  0
  2  3  2  0  0  0  0
  3  4  1  0  0  0  0
  3 30  1  0  0  0  0
  4  5  1  0  0  0  0
  4 22  1  0  0  0  0
  5 20  1  0  0  0  0
  5  6  1  0  0  0  0
  5 31  1  0  0  0  0
  6  7  1  0  0  0  0
  7  8  1  0  0  0  0
  7 18  1  0  0  0  0
  7 32  1  0  0  0  0
  8  9  1  0  0  0  0
  8 33  1  0  0  0  0
  8 34  1  0  0  0  0
  9 10  1  0  0  0  0
 10 11  2  0  0  0  0
 10 12  1  0  0  0  0
 12 17  1  0  0  0  0
 12 13  2  0  0  0  0
 13 14  1  0  0  0  0
 13 35  1  0  0  0  0
 14 15  2  0  0  0  0
 14 36  1  0  0  0  0
 15 16  1  0  0  0  0
 15 37  1  0  0  0  0
 16 17  2  0  0  0  0
 16 38  1  0  0  0  0
 17 39  1  0  0  0  0
 18 19  1  0  0  0  0
 18 20  1  0  0  0  0
 18 40  1  0  0  0  0
 19 41  1  0  0  0  0
 20 21  1  0  0  0  0
 20 42  1  0  0  0  0
 21 43  1  0  0  0  0
 22 23  2  0  0  0  0
 22 24  1  0  0  0  0
 24 25  1  0  0  0  0
 25 26  2  0  0  0  0
M  CHG  1  24  -1
M  END
> <s_m_source_file>
AV-unprocessed.smi

> <i_m_source_file_index>
101

> <i_lp_mmshare_version>
43012

> <i_f3d_flags>
0

> <s_epik_input>
Tz1jMVtuSF1jKD1PKW4oW2NIXWMxW0NIM10pW0NAQEhdMk9bQ0BIXShbQ0BASF0oW09IXSlbQ0BIXTJbT0hdKVtDSDJdT0MoPU8pYzNbY0hdW2NIXVtjSF1bY0hdW2NIXTM=

> <s_epik_cmdline>
J2VwaWtfcHl0aG9uJywgJy1waCcsICc3LjAnLCAnLXRuJywgJzgnLCAnLW1hJywgJzIwMCcsICctbWV0YWxfYmluZGluZycsICctaW1hZScsICc8aW5maWxlLm1hZT4nLCAnLW9tYWUnLCAnPG91dGZpbGUubWFlPic=

> <r_lp_tautomer_probability>
0.999537

> <r_epik_Ionization_Penalty>
3.21006

> <r_epik_Ionization_Penalty_Charging>
5.75142e-08

> <r_epik_Ionization_Penalty_Neutral>
3.21006

> <r_epik_State_Penalty>
3.20925

> <r_epik_Charging_Adjusted_Penalty>
3.20925

> <i_epik_Tot_Q>
-1

> <i_epik_Tot_abs_Q>
1

> <r_epik_Metal_State_Penalty>
0.119957

> <b_epik_Metal_Only>
1

> <s_epik_Chemistry_Notes>
This compound has an ester and may undergo hydrolysis at high or low pH. This compound contains an acetal/aminal-like group ( X-CH(R)-Y where X, Y are N, S, or O) that may be acid/base labile, releasing an aldehyde.

> <s_lp_Force_Field>
OPLS_2005

> <r_lp_Energy>
51.0672

> <b_lp_Chiralities_Consistent>
1

> <s_lp_Variant>
AV-unprocessed.smi:101-31

> <Gold.Version>
5.8.1

> <Gold.Id.Protein>
6NUR|6NUR_protein|mol2

> <Gold.PLP.Fitness>
46.2313

> <Gold.PLP.PLP>
-36.6424

> <Gold.PLP.part.hbond>
-4.0000

> <Gold.PLP.part.metal>
0.0000

> <Gold.PLP.part.buried>
-2.9078

> <Gold.PLP.part.nonpolar>
-30.2535

> <Gold.PLP.part.repulsive>
0.1581

> <Gold.PLP.ligand.clash>
0.0000

> <Gold.PLP.ligand.torsion>
0.3721

> <Gold.PLP.Chemscore.Hbond>
2.9600

> <Gold.PLP.Chemscore.CHOScore>
0.3740

> <Gold.PLP.Chemscore.Metal>
0.0000

> <Gold.Chemscore.Hbonds>
donor molecule, donor type, donor heavy atom, donor atom, acceptor molecule, acceptor atom, score
      L1  H    19    41       P1  7948  0.90
      L1  H    21    43       P1  7948  1.00
      P1  H  7997  8009       L1    11  1.00
      L1  C     3    30       P1  7948  0.29

> <Gold.PLP.Chemscore.Internal.Correction>
0.3311

> <Gold.Rescore>
     Score         DG    S(hbond)    S(metal)    S(lipo)     H(rot)  DE(clash)    DE(int)     intcor
     14.87     -16.80       2.44        0.00      98.59       3.27       0.11       1.83       ----

> <Gold.Chemscore.Fitness>
14.8656

> <Gold.Chemscore.DG>
-16.8033

> <Gold.Chemscore.ZeroCoef>
-5.4800

> <Gold.Chemscore.Hbond>
2.4397

> <Gold.Chemscore.Metal>
0.0000

> <Gold.Chemscore.Lipo>
98.5867

> <Gold.Chemscore.Internal_Hbond>
0.0000

> <Gold.Chemscore.DEClash>
0.1089

> <Gold.Chemscore.DEInternal>
1.8288

> <Gold.Chemscore.Rot>
3.2656

> <Gold.Chemscore.Internal.Correction>
   9.000000E+99

> <Gold.Chemscore.Hbonds>
donor molecule, donor type, donor heavy atom, donor atom, acceptor molecule, acceptor atom, score
      L1  H    19    41       P1  7948  0.41
      L1  H    21    43       P1  7948  0.67
      P1  H  7997  8009       L1    11  0.39

> <Gold.Chemscore.Hbond.Weighted>
-8.1485

> <Gold.Chemscore.Metal.Weighted>
-0.0000

> <Gold.Chemscore.Lipo.Weighted>
-11.5346

> <Gold.Chemscore.Internal_Hbond.Weighted>
0.0000

> <Gold.Chemscore.DEClash.Weighted>
0.1089

> <Gold.Chemscore.DEInternal.Weighted>
1.8288

> <Gold.Chemscore.Rot.Weighted>
8.3598

> <Gold.Chemscore.Internal.Correction.Weighted>
   9.000000E+99

> <Gold.Protein.RotatedTorsions>
[ 6907 6896 6895 6894 ] final  -74.64 input  -60.11 | X-H torsion
[ 7974 7965 7964 7962 ] final -177.05 input  175.53 | X-H torsion
[ 8008 7997 7996 7995 ] final  177.05 input   59.86 | X-H torsion
[ 10167 10162 10161 10158 ] final   62.48 input  -65.29 | X-H torsion
[ 10718 10713 10712 10709 ] final   16.10 input   66.30 | X-H torsion
[ 10763 10752 10751 10750 ] final  -73.19 input  -60.55 | X-H torsion
[ 11005 11000 10999 10996 ] final  -99.99 input  -57.11 | X-H torsion

> <Gold.Protein.ActiveResidues>
 VAL166  LYS551  ARG553  GLY616  TRP617  ASP618  TYR619  PRO620  LYS621  CYS622 
 ASP623  PHE694  ASN695  SER759  ASP760  ASP761  ALA762  ILE779  LEU786  VAL792 
 PHE793  MET794  SER795  GLU796  ALA797  LYS798  CYS799  TRP800  GLU811  SER814 

> <Gold.Protein.RotatedAtoms>
  150.7086  134.4838  159.5482 H   0  0  0  0  0  0  0  0  0  0  0  0  # atno 6907 bound_to 6896
  152.2470  134.8168  160.0461 H   0  0  0  0  0  0  0  0  0  0  0  0  # atno 6908 bound_to 6896
  151.8929  133.3485  159.3841 H   0  0  0  0  0  0  0  0  0  0  0  0  # atno 6909 bound_to 6896
  144.7127  140.1078  143.6413 H   0  0  0  0  0  0  0  0  0  0  0  0  # atno 7974 bound_to 7965
  156.0698  140.1368  156.9842 H   0  0  0  0  0  0  0  0  0  0  0  0  # atno 8008 bound_to 7997
  154.4526  140.0974  156.6714 H   0  0  0  0  0  0  0  0  0  0  0  0  # atno 8009 bound_to 7997
  155.5245  140.3457  155.4416 H   0  0  0  0  0  0  0  0  0  0  0  0  # atno 8010 bound_to 7997
  140.1434  144.4531  150.6798 H   0  0  0  0  0  0  0  0  0  0  0  0  # atno 10167 bound_to 10162
  157.0630  130.6316  149.5790 H   0  0  0  0  0  0  0  0  0  0  0  0  # atno 10718 bound_to 10713
  154.4560  135.5905  153.6223 H   0  0  0  0  0  0  0  0  0  0  0  0  # atno 10763 bound_to 10752
  152.9818  135.6032  154.3545 H   0  0  0  0  0  0  0  0  0  0  0  0  # atno 10764 bound_to 10752
  154.3412  135.2841  155.2400 H   0  0  0  0  0  0  0  0  0  0  0  0  # atno 10765 bound_to 10752
  141.1288  133.8364  157.1044 H   0  0  0  0  0  0  0  0  0  0  0  0  # atno 11005 bound_to 11000
  145.9481  139.2715  143.1228 LP  0  0  0  0  0  0  0  0  0  0  0  0  # atno 17320 bound_to 7965
  145.9352  140.9019  143.0336 LP  0  0  0  0  0  0  0  0  0  0  0  0  # atno 17321 bound_to 7965
  140.6746  143.2300  151.5539 LP  0  0  0  0  0  0  0  0  0  0  0  0  # atno 17342 bound_to 10162
  139.5460  144.2519  152.1444 LP  0  0  0  0  0  0  0  0  0  0  0  0  # atno 17343 bound_to 10162
  155.9973  130.5044  150.7528 LP  0  0  0  0  0  0  0  0  0  0  0  0  # atno 17370 bound_to 10713
  157.4939  131.0913  151.0394 LP  0  0  0  0  0  0  0  0  0  0  0  0  # atno 17371 bound_to 10713
  140.0313  134.9899  157.0786 LP  0  0  0  0  0  0  0  0  0  0  0  0  # atno 17394 bound_to 11000
  140.4280  134.1810  155.7167 LP  0  0  0  0  0  0  0  0  0  0  0  0  # atno 17395 bound_to 11000

$$$$
