AV-unprocessed.smi:951|AV-procd|sdf|4252|dock10
  -GOLD-   22720 2163D 1   1.00000     0.00000
 Structure written by MMmdl.
 51 53  0  0  0  0  0  0  0  0  1 V2000
  152.7664  137.4709  155.1374 O   0  0  0  0  0  0  0  0  0  0  0  0
  151.6267  137.8691  155.3817 C   0  0  0  0  0  0  0  0  0  0  0  0
  150.7183  137.1354  156.0399 N   0  0  0  0  0  0  0  0  0  0  0  0
  150.9505  135.7828  156.5260 C   0  0  0  0  0  0  0  0  0  0  0  0
  150.2149  134.7593  155.6500 C   0  0  0  0  0  0  0  0  0  0  0  0
  150.2555  133.3625  156.2406 C   0  0  0  0  0  0  0  0  0  0  0  0
  150.8809  132.3041  155.5470 C   0  0  0  0  0  0  0  0  0  0  0  0
  150.8951  131.0279  156.1423 C   0  0  0  0  0  0  0  0  0  0  0  0
  150.2882  130.8601  157.4019 C   0  0  0  0  0  0  0  0  0  0  0  0
  149.6920  131.9812  158.0133 C   0  0  0  0  0  0  0  0  0  0  0  0
  149.6719  133.2089  157.4508 N   0  0  0  0  0  0  0  0  0  0  0  0
  151.1805  139.2796  154.9487 C   0  0  1  0  0  0  0  0  0  0  0  0
  149.9364  139.1759  154.0523 C   0  0  0  0  0  0  0  0  0  0  0  0
  149.1825  140.4683  154.2917 C   0  0  0  0  0  0  0  0  0  0  0  0
  149.5244  140.8530  155.7298 C   0  0  0  0  0  0  0  0  0  0  0  0
  150.7868  140.1796  156.0528 N   0  0  0  0  0  0  0  0  0  0  0  0
  151.5242  140.4256  157.1674 C   0  0  0  0  0  0  0  0  0  0  0  0
  152.6475  139.9439  157.3182 O   0  0  0  0  0  0  0  0  0  0  0  0
  150.9504  141.3421  158.2769 C   0  0  0  0  0  0  0  0  0  0  0  0
  150.6560  142.7682  157.7552 C   0  0  0  0  0  0  0  0  0  0  0  0
  151.9209  143.6309  157.6002 C   0  0  0  0  0  0  0  0  0  0  0  0
  152.7018  143.7048  158.9201 C   0  0  0  0  0  0  0  0  0  0  0  0
  153.0762  142.3031  159.4221 C   0  0  0  0  0  0  0  0  0  0  0  0
  151.8362  141.3950  159.5484 C   0  0  0  0  0  0  0  0  0  0  0  0
  149.8068  137.5367  156.2065 H   0  0  0  0  0  0  0  0  0  0  0  0
  152.0220  135.5753  156.5216 H   0  0  0  0  0  0  0  0  0  0  0  0
  150.6107  135.7082  157.5604 H   0  0  0  0  0  0  0  0  0  0  0  0
  149.1731  135.0572  155.5203 H   0  0  0  0  0  0  0  0  0  0  0  0
  150.6546  134.7387  154.6518 H   0  0  0  0  0  0  0  0  0  0  0  0
  151.3412  132.4644  154.5827 H   0  0  0  0  0  0  0  0  0  0  0  0
  151.3635  130.1931  155.6421 H   0  0  0  0  0  0  0  0  0  0  0  0
  150.2805  129.8962  157.8886 H   0  0  0  0  0  0  0  0  0  0  0  0
  149.2187  131.8898  158.9797 H   0  0  0  0  0  0  0  0  0  0  0  0
  151.9861  139.7719  154.4004 H   0  0  0  0  0  0  0  0  0  0  0  0
  150.1899  139.0324  153.0014 H   0  0  0  0  0  0  0  0  0  0  0  0
  149.3007  138.3408  154.3531 H   0  0  0  0  0  0  0  0  0  0  0  0
  149.5612  141.2340  153.6133 H   0  0  0  0  0  0  0  0  0  0  0  0
  148.1096  140.3751  154.1211 H   0  0  0  0  0  0  0  0  0  0  0  0
  149.5908  141.9365  155.8379 H   0  0  0  0  0  0  0  0  0  0  0  0
  148.7448  140.4882  156.4000 H   0  0  0  0  0  0  0  0  0  0  0  0
  150.0066  140.9184  158.6146 H   0  0  0  0  0  0  0  0  0  0  0  0
  150.1282  142.7226  156.8018 H   0  0  0  0  0  0  0  0  0  0  0  0
  149.9734  143.2632  158.4469 H   0  0  0  0  0  0  0  0  0  0  0  0
  152.5598  143.2257  156.8148 H   0  0  0  0  0  0  0  0  0  0  0  0
  151.6438  144.6356  157.2798 H   0  0  0  0  0  0  0  0  0  0  0  0
  153.6026  144.3045  158.7870 H   0  0  0  0  0  0  0  0  0  0  0  0
  152.0994  144.2144  159.6732 H   0  0  0  0  0  0  0  0  0  0  0  0
  153.8102  141.8586  158.7509 H   0  0  0  0  0  0  0  0  0  0  0  0
  153.5702  142.3812  160.3908 H   0  0  0  0  0  0  0  0  0  0  0  0
  151.2279  141.7572  160.3780 H   0  0  0  0  0  0  0  0  0  0  0  0
  152.1482  140.3887  159.8316 H   0  0  0  0  0  0  0  0  0  0  0  0
  1  2  2  0  0  0  0
  2  3  1  0  0  0  0
  2 12  1  0  0  0  0
  3  4  1  0  0  0  0
  3 25  1  0  0  0  0
  4  5  1  0  0  0  0
  4 26  1  0  0  0  0
  4 27  1  0  0  0  0
  5  6  1  0  0  0  0
  5 28  1  0  0  0  0
  5 29  1  0  0  0  0
  6 11  1  0  0  0  0
  6  7  2  0  0  0  0
  7  8  1  0  0  0  0
  7 30  1  0  0  0  0
  8  9  2  0  0  0  0
  8 31  1  0  0  0  0
  9 10  1  0  0  0  0
  9 32  1  0  0  0  0
 10 11  2  0  0  0  0
 10 33  1  0  0  0  0
 12 16  1  0  0  0  0
 12 13  1  0  0  0  0
 12 34  1  0  0  0  0
 13 14  1  0  0  0  0
 13 35  1  0  0  0  0
 13 36  1  0  0  0  0
 14 15  1  0  0  0  0
 14 37  1  0  0  0  0
 14 38  1  0  0  0  0
 15 16  1  0  0  0  0
 15 39  1  0  0  0  0
 15 40  1  0  0  0  0
 16 17  1  0  0  0  0
 17 18  2  0  0  0  0
 17 19  1  0  0  0  0
 19 24  1  0  0  0  0
 19 20  1  0  0  0  0
 19 41  1  0  0  0  0
 20 21  1  0  0  0  0
 20 42  1  0  0  0  0
 20 43  1  0  0  0  0
 21 22  1  0  0  0  0
 21 44  1  0  0  0  0
 21 45  1  0  0  0  0
 22 23  1  0  0  0  0
 22 46  1  0  0  0  0
 22 47  1  0  0  0  0
 23 24  1  0  0  0  0
 23 48  1  0  0  0  0
 23 49  1  0  0  0  0
 24 50  1  0  0  0  0
 24 51  1  0  0  0  0
M  END
> <s_m_source_file>
AV-unprocessed.smi

> <i_m_source_file_index>
951

> <i_lp_mmshare_version>
43012

> <i_f3d_flags>
0

> <s_epik_input>
bjFbY0hdW2NIXVtjSF1bY0hdYzFbQ0gyXVtDSDJdW05IXUMoPU8pW0NAQEhdMltDSDJdW0NIMl1bQ0gyXU4yQyg9TylbQ0hdM1tDSDJdW0NIMl1bQ0gyXVtDSDJdW0NIMl0z

> <s_epik_cmdline>
J2VwaWtfcHl0aG9uJywgJy1waCcsICc3LjAnLCAnLXRuJywgJzgnLCAnLW1hJywgJzIwMCcsICctbWV0YWxfYmluZGluZycsICctaW1hZScsICc8aW5maWxlLm1hZT4nLCAnLW9tYWUnLCAnPG91dGZpbGUubWFlPic=

> <r_epik_Ionization_Penalty>
0.0265505

> <r_epik_Ionization_Penalty_Charging>
0

> <r_epik_Ionization_Penalty_Neutral>
0.0265505

> <r_epik_State_Penalty>
0.02168

> <r_epik_Charging_Adjusted_Penalty>
0.02168

> <i_epik_Tot_Q>
0

> <i_epik_Tot_abs_Q>
0

> <r_epik_Metal_State_Penalty>
0.020746

> <b_epik_Metal_Only>
0

> <s_lp_Force_Field>
OPLS_2005

> <r_lp_Energy>
20.7073

> <b_lp_Chiralities_Consistent>
1

> <s_lp_Variant>
AV-unprocessed.smi:951-2

> <Gold.Version>
5.8.1

> <Gold.Id.Protein>
6NUR|6NUR_protein|mol2

> <Gold.PLP.Fitness>
47.0711

> <Gold.PLP.PLP>
-42.4960

> <Gold.PLP.part.hbond>
-3.0000

> <Gold.PLP.part.metal>
0.0000

> <Gold.PLP.part.buried>
-3.6773

> <Gold.PLP.part.nonpolar>
-36.4910

> <Gold.PLP.part.repulsive>
0.0939

> <Gold.PLP.ligand.clash>
0.0000

> <Gold.PLP.ligand.torsion>
0.1785

> <Gold.PLP.Chemscore.Hbond>
1.6127

> <Gold.PLP.Chemscore.CHOScore>
0.0000

> <Gold.PLP.Chemscore.Metal>
0.0000

> <Gold.Chemscore.Hbonds>
donor molecule, donor type, donor heavy atom, donor atom, acceptor molecule, acceptor atom, score
      P1  H  6896  6908       L1    11  0.06
      P1  H  7997  8010       L1    18  1.00
      P1  H 10752 10765       L1     1  0.45

> <Gold.PLP.Chemscore.Internal.Correction>
0.0940

> <Gold.Rescore>
     Score         DG    S(hbond)    S(metal)    S(lipo)     H(rot)  DE(clash)    DE(int)     intcor
     17.72     -19.97       1.65        0.00     110.81       1.55       0.05       2.20       ----

> <Gold.Chemscore.Fitness>
17.7211

> <Gold.Chemscore.DG>
-19.9715

> <Gold.Chemscore.ZeroCoef>
-5.4800

> <Gold.Chemscore.Hbond>
1.6456

> <Gold.Chemscore.Metal>
0.0000

> <Gold.Chemscore.Lipo>
110.8100

> <Gold.Chemscore.Internal_Hbond>
0.0000

> <Gold.Chemscore.DEClash>
0.0460

> <Gold.Chemscore.DEInternal>
2.2044

> <Gold.Chemscore.Rot>
1.5506

> <Gold.Chemscore.Internal.Correction>
   9.000000E+99

> <Gold.Chemscore.Hbonds>
donor molecule, donor type, donor heavy atom, donor atom, acceptor molecule, acceptor atom, score
      P1  H  7997  8010       L1    18  0.98
      P1  H 10752 10765       L1     1  0.44

> <Gold.Chemscore.Hbond.Weighted>
-5.4962

> <Gold.Chemscore.Metal.Weighted>
-0.0000

> <Gold.Chemscore.Lipo.Weighted>
-12.9648

> <Gold.Chemscore.Internal_Hbond.Weighted>
0.0000

> <Gold.Chemscore.DEClash.Weighted>
0.0460

> <Gold.Chemscore.DEInternal.Weighted>
2.2044

> <Gold.Chemscore.Rot.Weighted>
3.9695

> <Gold.Chemscore.Internal.Correction.Weighted>
   9.000000E+99

> <Gold.Protein.RotatedTorsions>
[ 6907 6896 6895 6894 ] final  112.41 input  -60.11 | X-H torsion
[ 7974 7965 7964 7962 ] final  -65.47 input  175.53 | X-H torsion
[ 8008 7997 7996 7995 ] final   65.46 input   59.86 | X-H torsion
[ 10167 10162 10161 10158 ] final -139.71 input  -65.29 | X-H torsion
[ 10718 10713 10712 10709 ] final  -81.58 input   66.30 | X-H torsion
[ 10763 10752 10751 10750 ] final  177.36 input  -60.55 | X-H torsion
[ 11005 11000 10999 10996 ] final   83.95 input  -57.11 | X-H torsion

> <Gold.Protein.ActiveResidues>
 VAL166  LYS551  ARG553  GLY616  TRP617  ASP618  TYR619  PRO620  LYS621  CYS622 
 ASP623  PHE694  ASN695  SER759  ASP760  ASP761  ALA762  ILE779  LEU786  VAL792 
 PHE793  MET794  SER795  GLU796  ALA797  LYS798  CYS799  TRP800  GLU811  SER814 

> <Gold.Protein.RotatedAtoms>
  152.4918  133.8520  159.7206 H   0  0  0  0  0  0  0  0  0  0  0  0  # atno 6907 bound_to 6896
  150.9055  133.7055  159.2874 H   0  0  0  0  0  0  0  0  0  0  0  0  # atno 6908 bound_to 6896
  151.4482  135.1031  159.9742 H   0  0  0  0  0  0  0  0  0  0  0  0  # atno 6909 bound_to 6896
  145.7539  140.8895  143.0465 H   0  0  0  0  0  0  0  0  0  0  0  0  # atno 7974 bound_to 7965
  155.6621  140.3497  155.4786 H   0  0  0  0  0  0  0  0  0  0  0  0  # atno 8008 bound_to 7997
  155.9760  140.1165  157.0792 H   0  0  0  0  0  0  0  0  0  0  0  0  # atno 8009 bound_to 7997
  154.4179  140.1147  156.5357 H   0  0  0  0  0  0  0  0  0  0  0  0  # atno 8010 bound_to 7997
  139.8353  143.7393  152.2665 H   0  0  0  0  0  0  0  0  0  0  0  0  # atno 10167 bound_to 10162
  156.0048  130.4608  150.3974 H   0  0  0  0  0  0  0  0  0  0  0  0  # atno 10718 bound_to 10713
  154.4934  135.2780  155.1478 H   0  0  0  0  0  0  0  0  0  0  0  0  # atno 10763 bound_to 10752
  154.3141  135.6223  153.5482 H   0  0  0  0  0  0  0  0  0  0  0  0  # atno 10764 bound_to 10752
  152.9891  135.5727  154.5361 H   0  0  0  0  0  0  0  0  0  0  0  0  # atno 10765 bound_to 10752
  139.9015  134.8181  156.2378 H   0  0  0  0  0  0  0  0  0  0  0  0  # atno 11005 bound_to 11000
  144.6844  139.9629  143.7480 LP  0  0  0  0  0  0  0  0  0  0  0  0  # atno 17320 bound_to 7965
  146.0330  139.3352  143.0744 LP  0  0  0  0  0  0  0  0  0  0  0  0  # atno 17321 bound_to 7965
  139.7613  144.7505  151.0359 LP  0  0  0  0  0  0  0  0  0  0  0  0  # atno 17342 bound_to 10162
  140.7803  143.4747  151.0098 LP  0  0  0  0  0  0  0  0  0  0  0  0  # atno 17343 bound_to 10162
  157.2045  131.0446  151.2633 LP  0  0  0  0  0  0  0  0  0  0  0  0  # atno 17370 bound_to 10713
  157.3945  130.7300  149.6722 LP  0  0  0  0  0  0  0  0  0  0  0  0  # atno 17371 bound_to 10713
  141.0304  133.6992  156.1420 LP  0  0  0  0  0  0  0  0  0  0  0  0  # atno 17394 bound_to 11000
  140.7104  134.4467  157.5582 LP  0  0  0  0  0  0  0  0  0  0  0  0  # atno 17395 bound_to 11000

$$$$
