AV-unprocessed.smi:1788|AV-procd|sdf|7211|dock6
  -GOLD-   22720 8453D 1   1.00000     0.00000
 Structure written by MMmdl.
 55 57  0  0  0  0  0  0  0  0  2 V2000
  146.0284  132.2942  149.7095 C   0  0  0  0  0  0  0  0  0  0  0  0
  145.5381  132.6922  151.1128 C   0  0  1  0  0  0  0  0  0  0  0  0
  144.7764  131.5582  151.8237 C   0  0  0  0  0  0  0  0  0  0  0  0
  145.7354  130.4634  152.3122 C   0  0  0  0  0  0  0  0  0  0  0  0
  146.8618  131.0595  153.1712 C   0  0  0  0  0  0  0  0  0  0  0  0
  147.5954  132.1198  152.4329 N   0  3  2  0  0  0  0  0  0  0  0  0
  148.7814  132.6075  153.1808 C   0  0  0  0  0  0  0  0  0  0  0  0
  148.3975  133.5499  154.3383 C   0  0  0  0  0  0  0  0  0  0  0  0
  148.8854  134.9053  154.1105 N   0  0  0  0  0  0  0  0  0  0  0  0
  149.3715  135.7133  155.0635 C   0  0  0  0  0  0  0  0  0  0  0  0
  149.4716  135.3794  156.2440 O   0  0  0  0  0  0  0  0  0  0  0  0
  149.7439  136.9000  154.5538 N   0  0  0  0  0  0  0  0  0  0  0  0
  150.2907  138.0234  155.2314 C   0  0  0  0  0  0  0  0  0  0  0  0
  151.3185  138.8462  154.7149 C   0  0  0  0  0  0  0  0  0  0  0  0
  151.7889  139.9203  155.4941 C   0  0  0  0  0  0  0  0  0  0  0  0
  151.2304  140.1455  156.7743 C   0  0  0  0  0  0  0  0  0  0  0  0
  151.6896  141.2171  157.5705 N   0  0  0  0  0  0  0  0  0  0  0  0
  151.0299  142.5131  157.4221 C   0  0  0  0  0  0  0  0  0  0  0  0
  151.8376  143.6095  158.1368 C   0  0  0  0  0  0  0  0  0  0  0  0
  152.0345  143.2477  159.4996 O   0  0  0  0  0  0  0  0  0  0  0  0
  152.7750  142.0380  159.6240 C   0  0  0  0  0  0  0  0  0  0  0  0
  152.0064  140.8838  158.9572 C   0  0  0  0  0  0  0  0  0  0  0  0
  150.2495  139.3508  157.2683 N   0  0  0  0  0  0  0  0  0  0  0  0
  149.8035  138.3208  156.5197 C   0  0  0  0  0  0  0  0  0  0  0  0
  146.6840  133.2158  152.0034 C   0  0  0  0  0  0  0  0  0  0  0  0
  146.7632  131.4901  149.7465 H   0  0  0  0  0  0  0  0  0  0  0  0
  146.4935  133.1408  149.2037 H   0  0  0  0  0  0  0  0  0  0  0  0
  145.1994  131.9577  149.0862 H   0  0  0  0  0  0  0  0  0  0  0  0
  144.8349  133.5138  150.9693 H   0  0  0  0  0  0  0  0  0  0  0  0
  144.2405  131.9686  152.6806 H   0  0  0  0  0  0  0  0  0  0  0  0
  144.0182  131.1329  151.1655 H   0  0  0  0  0  0  0  0  0  0  0  0
  145.1841  129.7197  152.8884 H   0  0  0  0  0  0  0  0  0  0  0  0
  146.1627  129.9336  151.4603 H   0  0  0  0  0  0  0  0  0  0  0  0
  146.4543  131.4727  154.0953 H   0  0  0  0  0  0  0  0  0  0  0  0
  147.5495  130.2624  153.4559 H   0  0  0  0  0  0  0  0  0  0  0  0
  149.3615  131.7552  153.5385 H   0  0  0  0  0  0  0  0  0  0  0  0
  149.4349  133.1594  152.5032 H   0  0  0  0  0  0  0  0  0  0  0  0
  147.3125  133.5931  154.4366 H   0  0  0  0  0  0  0  0  0  0  0  0
  148.7801  133.1909  155.2941 H   0  0  0  0  0  0  0  0  0  0  0  0
  148.8408  135.2559  153.1644 H   0  0  0  0  0  0  0  0  0  0  0  0
  149.6723  136.9953  153.5513 H   0  0  0  0  0  0  0  0  0  0  0  0
  151.7633  138.6729  153.7477 H   0  0  0  0  0  0  0  0  0  0  0  0
  152.5619  140.5614  155.0974 H   0  0  0  0  0  0  0  0  0  0  0  0
  150.9305  142.7679  156.3660 H   0  0  0  0  0  0  0  0  0  0  0  0
  150.0242  142.4574  157.8413 H   0  0  0  0  0  0  0  0  0  0  0  0
  152.8006  143.7652  157.6470 H   0  0  0  0  0  0  0  0  0  0  0  0
  151.3020  144.5580  158.0944 H   0  0  0  0  0  0  0  0  0  0  0  0
  153.7637  142.1564  159.1773 H   0  0  0  0  0  0  0  0  0  0  0  0
  152.9282  141.8235  160.6818 H   0  0  0  0  0  0  0  0  0  0  0  0
  151.0755  140.6973  159.4946 H   0  0  0  0  0  0  0  0  0  0  0  0
  152.6012  139.9742  159.0293 H   0  0  0  0  0  0  0  0  0  0  0  0
  149.0259  137.7172  156.9651 H   0  0  0  0  0  0  0  0  0  0  0  0
  147.2337  133.9864  151.4640 H   0  0  0  0  0  0  0  0  0  0  0  0
  146.2687  133.6993  152.8894 H   0  0  0  0  0  0  0  0  0  0  0  0
  147.9476  131.6825  151.5935 H   0  0  0  0  0  0  0  0  0  0  0  0
  1  2  1  0  0  0  0
  1 26  1  0  0  0  0
  1 27  1  0  0  0  0
  1 28  1  0  0  0  0
  2 25  1  0  0  0  0
  2  3  1  0  0  0  0
  2 29  1  0  0  0  0
  3  4  1  0  0  0  0
  3 30  1  0  0  0  0
  3 31  1  0  0  0  0
  4  5  1  0  0  0  0
  4 32  1  0  0  0  0
  4 33  1  0  0  0  0
  5  6  1  0  0  0  0
  5 34  1  0  0  0  0
  5 35  1  0  0  0  0
  6  7  1  0  0  0  0
  6 25  1  0  0  0  0
  6 55  1  0  0  0  0
  7  8  1  0  0  0  0
  7 36  1  0  0  0  0
  7 37  1  0  0  0  0
  8  9  1  0  0  0  0
  8 38  1  0  0  0  0
  8 39  1  0  0  0  0
  9 10  1  0  0  0  0
  9 40  1  0  0  0  0
 10 11  2  0  0  0  0
 10 12  1  0  0  0  0
 12 13  1  0  0  0  0
 12 41  1  0  0  0  0
 13 24  1  0  0  0  0
 13 14  2  0  0  0  0
 14 15  1  0  0  0  0
 14 42  1  0  0  0  0
 15 16  2  0  0  0  0
 15 43  1  0  0  0  0
 16 17  1  0  0  0  0
 16 23  1  0  0  0  0
 17 22  1  0  0  0  0
 17 18  1  0  0  0  0
 18 19  1  0  0  0  0
 18 44  1  0  0  0  0
 18 45  1  0  0  0  0
 19 20  1  0  0  0  0
 19 46  1  0  0  0  0
 19 47  1  0  0  0  0
 20 21  1  0  0  0  0
 21 22  1  0  0  0  0
 21 48  1  0  0  0  0
 21 49  1  0  0  0  0
 22 50  1  0  0  0  0
 22 51  1  0  0  0  0
 23 24  2  0  0  0  0
 24 52  1  0  0  0  0
 25 53  1  0  0  0  0
 25 54  1  0  0  0  0
M  CHG  1   6   1
M  END
> <s_m_source_file>
AV-unprocessed.smi

> <i_m_source_file_index>
1788

> <i_lp_mmshare_version>
43012

> <i_f3d_flags>
0

> <s_epik_input>
W0NIM11bQ0BASF0xW0NIMl1bQ0gyXVtDSDJdTihbQ0gyXTEpW0NIMl1bQ0gyXVtOSF1DKD1PKVtOSF1jMltjSF1bY0hdYyhuW2NIXTIpTjNbQ0gyXVtDSDJdT1tDSDJdW0NIMl0z

> <s_epik_cmdline>
J2VwaWtfcHl0aG9uJywgJy1waCcsICc3LjAnLCAnLXRuJywgJzgnLCAnLW1hJywgJzIwMCcsICctbWV0YWxfYmluZGluZycsICctaW1hZScsICc8aW5maWxlLm1hZT4nLCAnLW9tYWUnLCAnPG91dGZpbGUubWFlPic=

> <r_lp_tautomer_probability>
1

> <r_epik_Ionization_Penalty>
0.00340126

> <r_epik_Ionization_Penalty_Charging>
0.00171832

> <r_epik_Ionization_Penalty_Neutral>
0.00168294

> <r_epik_State_Penalty>
-0

> <r_epik_Charging_Adjusted_Penalty>
0.00171832

> <i_epik_Tot_Q>
1

> <i_epik_Tot_abs_Q>
1

> <r_epik_Metal_State_Penalty>
-0

> <b_epik_Metal_Only>
0

> <s_lp_Force_Field>
OPLS_2005

> <r_lp_Energy>
36.4544

> <b_lp_Chiralities_Consistent>
1

> <s_lp_Variant>
AV-unprocessed.smi:1788-2

> <Gold.Version>
5.8.1

> <Gold.Id.Protein>
6NUR|6NUR_protein|mol2

> <Gold.PLP.Fitness>
51.6880

> <Gold.PLP.PLP>
-45.2622

> <Gold.PLP.part.hbond>
-3.0000

> <Gold.PLP.part.metal>
0.0000

> <Gold.PLP.part.buried>
-4.2398

> <Gold.PLP.part.nonpolar>
-37.6858

> <Gold.PLP.part.repulsive>
0.0679

> <Gold.PLP.ligand.clash>
0.0000

> <Gold.PLP.ligand.torsion>
1.3943

> <Gold.PLP.Chemscore.Hbond>
2.9440

> <Gold.PLP.Chemscore.CHOScore>
0.0000

> <Gold.PLP.Chemscore.Metal>
0.0000

> <Gold.Chemscore.Hbonds>
donor molecule, donor type, donor heavy atom, donor atom, acceptor molecule, acceptor atom, score
      L1  H     6    55       P1 10747  1.00
      L1  H     9    40       P1  7948  1.00
      L1  H    12    41       P1  7948  0.94

> <Gold.PLP.Chemscore.Internal.Correction>
0.3824

> <Gold.Rescore>
     Score         DG    S(hbond)    S(metal)    S(lipo)     H(rot)  DE(clash)    DE(int)     intcor
     20.35     -23.25       2.56        0.00     113.65       1.60       0.48       2.42       ----

> <Gold.Chemscore.Fitness>
20.3452

> <Gold.Chemscore.DG>
-23.2477

> <Gold.Chemscore.ZeroCoef>
-5.4800

> <Gold.Chemscore.Hbond>
2.5632

> <Gold.Chemscore.Metal>
0.0000

> <Gold.Chemscore.Lipo>
113.6450

> <Gold.Chemscore.Internal_Hbond>
0.0000

> <Gold.Chemscore.DEClash>
0.4776

> <Gold.Chemscore.DEInternal>
2.4250

> <Gold.Chemscore.Rot>
1.5976

> <Gold.Chemscore.Internal.Correction>
   9.000000E+99

> <Gold.Chemscore.Hbonds>
donor molecule, donor type, donor heavy atom, donor atom, acceptor molecule, acceptor atom, score
      L1  H     6    55       P1 10747  1.00
      L1  H     9    40       P1  7948  0.54
      L1  H    12    41       P1  7948  0.63

> <Gold.Chemscore.Hbond.Weighted>
-8.5612

> <Gold.Chemscore.Metal.Weighted>
-0.0000

> <Gold.Chemscore.Lipo.Weighted>
-13.2965

> <Gold.Chemscore.Internal_Hbond.Weighted>
0.0000

> <Gold.Chemscore.DEClash.Weighted>
0.4776

> <Gold.Chemscore.DEInternal.Weighted>
2.4250

> <Gold.Chemscore.Rot.Weighted>
4.0899

> <Gold.Chemscore.Internal.Correction.Weighted>
   9.000000E+99

> <Gold.Protein.RotatedTorsions>
[ 6907 6896 6895 6894 ] final    8.68 input  -60.11 | X-H torsion
[ 7974 7965 7964 7962 ] final  144.76 input  175.53 | X-H torsion
[ 8008 7997 7996 7995 ] final  -48.44 input   59.86 | X-H torsion
[ 10167 10162 10161 10158 ] final -123.42 input  -65.29 | X-H torsion
[ 10718 10713 10712 10709 ] final  -94.85 input   66.30 | X-H torsion
[ 10763 10752 10751 10750 ] final -121.49 input  -60.55 | X-H torsion
[ 11005 11000 10999 10996 ] final -174.07 input  -57.11 | X-H torsion

> <Gold.Protein.ActiveResidues>
 VAL166  LYS551  ARG553  GLY616  TRP617  ASP618  TYR619  PRO620  LYS621  CYS622 
 ASP623  PHE694  ASN695  SER759  ASP760  ASP761  ALA762  ILE779  LEU786  VAL792 
 PHE793  MET794  SER795  GLU796  ALA797  LYS798  CYS799  TRP800  GLU811  SER814 

> <Gold.Protein.RotatedAtoms>
  151.7100  135.0914  160.0265 H   0  0  0  0  0  0  0  0  0  0  0  0  # atno 6907 bound_to 6896
  152.3667  133.6362  159.6064 H   0  0  0  0  0  0  0  0  0  0  0  0  # atno 6908 bound_to 6896
  150.7643  133.9252  159.3451 H   0  0  0  0  0  0  0  0  0  0  0  0  # atno 6909 bound_to 6896
  144.8809  139.5701  143.5843 H   0  0  0  0  0  0  0  0  0  0  0  0  # atno 7974 bound_to 7965
  154.4029  140.1321  156.4339 H   0  0  0  0  0  0  0  0  0  0  0  0  # atno 8008 bound_to 7997
  155.7525  140.3488  155.5137 H   0  0  0  0  0  0  0  0  0  0  0  0  # atno 8009 bound_to 7997
  155.8936  140.1007  157.1391 H   0  0  0  0  0  0  0  0  0  0  0  0  # atno 8010 bound_to 7997
  140.0037  143.5513  152.2292 H   0  0  0  0  0  0  0  0  0  0  0  0  # atno 10167 bound_to 10162
  156.0033  130.5084  150.5988 H   0  0  0  0  0  0  0  0  0  0  0  0  # atno 10718 bound_to 10713
  154.8669  135.4166  154.2629 H   0  0  0  0  0  0  0  0  0  0  0  0  # atno 10763 bound_to 10752
  153.3554  135.7001  153.6760 H   0  0  0  0  0  0  0  0  0  0  0  0  # atno 10764 bound_to 10752
  153.5683  135.3596  155.2800 H   0  0  0  0  0  0  0  0  0  0  0  0  # atno 10765 bound_to 10752
  140.4787  134.6096  157.4911 H   0  0  0  0  0  0  0  0  0  0  0  0  # atno 11005 bound_to 11000
  146.2993  139.7377  142.9103 LP  0  0  0  0  0  0  0  0  0  0  0  0  # atno 17320 bound_to 7965
  145.3957  141.0378  143.3099 LP  0  0  0  0  0  0  0  0  0  0  0  0  # atno 17321 bound_to 7965
  139.6253  144.7636  151.2651 LP  0  0  0  0  0  0  0  0  0  0  0  0  # atno 17342 bound_to 10162
  140.7409  143.6574  150.8194 LP  0  0  0  0  0  0  0  0  0  0  0  0  # atno 17343 bound_to 10162
  157.3840  131.0785  151.1452 LP  0  0  0  0  0  0  0  0  0  0  0  0  # atno 17370 bound_to 10713
  157.2165  130.6462  149.5794 LP  0  0  0  0  0  0  0  0  0  0  0  0  # atno 17371 bound_to 10713
  139.9840  134.7091  155.9808 LP  0  0  0  0  0  0  0  0  0  0  0  0  # atno 17394 bound_to 11000
  141.1542  133.6545  156.4108 LP  0  0  0  0  0  0  0  0  0  0  0  0  # atno 17395 bound_to 11000

$$$$
