AV-unprocessed.smi:1244|AV-procd|sdf|5222|dock8
  -GOLD-   22720 4323D 1   1.00000     0.00000
 Structure written by MMmdl.
 54 56  0  0  0  0  0  0  0  0  1 V2000
  146.5889  141.6794  154.0676 C   0  0  0  0  0  0  0  0  0  0  0  0
  148.1036  141.6754  154.2981 C   0  0  2  0  0  0  0  0  0  0  0  0
  148.7138  140.2688  154.1433 C   0  0  0  0  0  0  0  0  0  0  0  0
  150.1428  140.2555  154.4475 N   0  0  0  0  0  0  0  0  0  0  0  0
  150.7319  138.9232  154.3258 C   0  0  0  0  0  0  0  0  0  0  0  0
  150.1412  137.8658  155.2778 C   0  0  0  0  0  0  0  0  0  0  0  0
  149.4916  136.7861  154.5446 N   0  0  0  0  0  0  0  0  0  0  0  0
  149.5005  135.4957  154.9069 C   0  0  0  0  0  0  0  0  0  0  0  0
  150.0511  135.0772  155.9254 O   0  0  0  0  0  0  0  0  0  0  0  0
  148.8561  134.7332  154.0083 N   0  0  0  0  0  0  0  0  0  0  0  0
  148.6921  133.3197  154.0251 C   0  0  0  0  0  0  0  0  0  0  0  0
  149.5448  132.4760  154.7772 C   0  0  0  0  0  0  0  0  0  0  0  0
  149.3080  131.0903  154.7836 C   0  0  0  0  0  0  0  0  0  0  0  0
  148.2189  130.5968  154.0447 C   0  0  0  0  0  0  0  0  0  0  0  0
  147.3896  131.3889  153.3353 N   0  0  0  0  0  0  0  0  0  0  0  0
  147.6065  132.7271  153.3242 C   0  0  0  0  0  0  0  0  0  0  0  0
  146.7420  133.5254  152.5444 N   0  0  0  0  0  0  0  0  0  0  0  0
  146.7490  133.1787  151.1246 C   0  0  0  0  0  0  0  0  0  0  0  0
  145.3031  133.3001  150.6374 C   0  0  0  0  0  0  0  0  0  0  0  0
  144.4891  133.0672  151.9037 C   0  0  0  0  0  0  0  0  0  0  0  0
  145.3582  133.7230  152.9744 C   0  0  0  0  0  0  0  0  0  0  0  0
  150.3455  140.7955  155.7873 C   0  0  0  0  0  0  0  0  0  0  0  0
  149.7426  142.2051  155.9394 C   0  0  2  0  0  0  0  0  0  0  0  0
  149.8855  142.7475  157.3650 C   0  0  0  0  0  0  0  0  0  0  0  0
  148.3560  142.1530  155.6165 O   0  0  0  0  0  0  0  0  0  0  0  0
  146.3442  141.3360  153.0621 H   0  0  0  0  0  0  0  0  0  0  0  0
  146.1799  142.6833  154.1846 H   0  0  0  0  0  0  0  0  0  0  0  0
  146.0798  141.0279  154.7782 H   0  0  0  0  0  0  0  0  0  0  0  0
  148.5683  142.3549  153.5816 H   0  0  0  0  0  0  0  0  0  0  0  0
  148.1908  139.5715  154.7996 H   0  0  0  0  0  0  0  0  0  0  0  0
  148.5422  139.9268  153.1233 H   0  0  0  0  0  0  0  0  0  0  0  0
  150.5850  138.5721  153.3035 H   0  0  0  0  0  0  0  0  0  0  0  0
  151.8120  138.9829  154.4681 H   0  0  0  0  0  0  0  0  0  0  0  0
  150.9221  137.4149  155.8891 H   0  0  0  0  0  0  0  0  0  0  0  0
  149.4313  138.3270  155.9665 H   0  0  0  0  0  0  0  0  0  0  0  0
  149.0150  137.0379  153.6911 H   0  0  0  0  0  0  0  0  0  0  0  0
  148.5451  135.1963  153.1668 H   0  0  0  0  0  0  0  0  0  0  0  0
  150.3633  132.8717  155.3594 H   0  0  0  0  0  0  0  0  0  0  0  0
  149.9428  130.4225  155.3470 H   0  0  0  0  0  0  0  0  0  0  0  0
  148.0045  129.5386  154.0259 H   0  0  0  0  0  0  0  0  0  0  0  0
  147.4125  133.8365  150.5627 H   0  0  0  0  0  0  0  0  0  0  0  0
  147.1025  132.1549  150.9878 H   0  0  0  0  0  0  0  0  0  0  0  0
  145.1213  134.3090  150.2642 H   0  0  0  0  0  0  0  0  0  0  0  0
  145.0643  132.5967  149.8394 H   0  0  0  0  0  0  0  0  0  0  0  0
  143.4851  133.4890  151.8524 H   0  0  0  0  0  0  0  0  0  0  0  0
  144.4010  131.9975  152.0994 H   0  0  0  0  0  0  0  0  0  0  0  0
  145.1329  133.3418  153.9704 H   0  0  0  0  0  0  0  0  0  0  0  0
  145.1692  134.7965  152.9985 H   0  0  0  0  0  0  0  0  0  0  0  0
  149.8984  140.1272  156.5251 H   0  0  0  0  0  0  0  0  0  0  0  0
  151.4125  140.8355  156.0100 H   0  0  0  0  0  0  0  0  0  0  0  0
  150.2403  142.8916  155.2522 H   0  0  0  0  0  0  0  0  0  0  0  0
  150.9342  142.8168  157.6548 H   0  0  0  0  0  0  0  0  0  0  0  0
  149.3799  142.1036  158.0851 H   0  0  0  0  0  0  0  0  0  0  0  0
  149.4514  143.7443  157.4472 H   0  0  0  0  0  0  0  0  0  0  0  0
  1  2  1  0  0  0  0
  1 26  1  0  0  0  0
  1 27  1  0  0  0  0
  1 28  1  0  0  0  0
  2 25  1  0  0  0  0
  2  3  1  0  0  0  0
  2 29  1  0  0  0  0
  3  4  1  0  0  0  0
  3 30  1  0  0  0  0
  3 31  1  0  0  0  0
  4  5  1  0  0  0  0
  4 22  1  0  0  0  0
  5  6  1  0  0  0  0
  5 32  1  0  0  0  0
  5 33  1  0  0  0  0
  6  7  1  0  0  0  0
  6 34  1  0  0  0  0
  6 35  1  0  0  0  0
  7  8  1  0  0  0  0
  7 36  1  0  0  0  0
  8  9  2  0  0  0  0
  8 10  1  0  0  0  0
 10 11  1  0  0  0  0
 10 37  1  0  0  0  0
 11 16  1  0  0  0  0
 11 12  2  0  0  0  0
 12 13  1  0  0  0  0
 12 38  1  0  0  0  0
 13 14  2  0  0  0  0
 13 39  1  0  0  0  0
 14 15  1  0  0  0  0
 14 40  1  0  0  0  0
 15 16  2  0  0  0  0
 16 17  1  0  0  0  0
 17 21  1  0  0  0  0
 17 18  1  0  0  0  0
 18 19  1  0  0  0  0
 18 41  1  0  0  0  0
 18 42  1  0  0  0  0
 19 20  1  0  0  0  0
 19 43  1  0  0  0  0
 19 44  1  0  0  0  0
 20 21  1  0  0  0  0
 20 45  1  0  0  0  0
 20 46  1  0  0  0  0
 21 47  1  0  0  0  0
 21 48  1  0  0  0  0
 22 23  1  0  0  0  0
 22 49  1  0  0  0  0
 22 50  1  0  0  0  0
 23 24  1  0  0  0  0
 23 25  1  0  0  0  0
 23 51  1  0  0  0  0
 24 52  1  0  0  0  0
 24 53  1  0  0  0  0
 24 54  1  0  0  0  0
M  END
> <s_m_source_file>
AV-unprocessed.smi

> <i_m_source_file_index>
1244

> <i_lp_mmshare_version>
43012

> <i_f3d_flags>
0

> <s_epik_input>
W0NIM11bQ0BASF0xW0NIMl1OKFtDSDJdW0NASF0oTzEpW0NIM10pW0NIMl1bQ0gyXVtOSF1DKD1PKVtOSF1jMltjSF1bY0hdW2NIXW5jMk4zW0NIMl1bQ0gyXVtDSDJdW0NIMl0z

> <s_epik_cmdline>
J2VwaWtfcHl0aG9uJywgJy1waCcsICc3LjAnLCAnLXRuJywgJzgnLCAnLW1hJywgJzIwMCcsICctbWV0YWxfYmluZGluZycsICctaW1hZScsICc8aW5maWxlLm1hZT4nLCAnLW9tYWUnLCAnPG91dGZpbGUubWFlPic=

> <r_lp_tautomer_probability>
1

> <r_epik_Ionization_Penalty>
0.363951

> <r_epik_Ionization_Penalty_Charging>
0

> <r_epik_Ionization_Penalty_Neutral>
0.363951

> <r_epik_State_Penalty>
0.349372

> <r_epik_Charging_Adjusted_Penalty>
0.349372

> <i_epik_Tot_Q>
0

> <i_epik_Tot_abs_Q>
0

> <r_epik_Metal_State_Penalty>
0.333054

> <b_epik_Metal_Only>
0

> <s_lp_Force_Field>
OPLS_2005

> <r_lp_Energy>
48.0273

> <b_lp_Chiralities_Consistent>
1

> <s_lp_Variant>
AV-unprocessed.smi:1244-2

> <Gold.Version>
5.8.1

> <Gold.Id.Protein>
6NUR|6NUR_protein|mol2

> <Gold.PLP.Fitness>
54.1569

> <Gold.PLP.PLP>
-46.9541

> <Gold.PLP.part.hbond>
-3.2913

> <Gold.PLP.part.metal>
0.0000

> <Gold.PLP.part.buried>
-6.8810

> <Gold.PLP.part.nonpolar>
-37.7153

> <Gold.PLP.part.repulsive>
0.9519

> <Gold.PLP.ligand.clash>
0.0000

> <Gold.PLP.ligand.torsion>
0.7422

> <Gold.PLP.Chemscore.Hbond>
2.8480

> <Gold.PLP.Chemscore.CHOScore>
0.0000

> <Gold.PLP.Chemscore.Metal>
0.0000

> <Gold.Chemscore.Hbonds>
donor molecule, donor type, donor heavy atom, donor atom, acceptor molecule, acceptor atom, score
      L1  H     7    36       P1  7948  0.66
      L1  H    10    37       P1  7948  0.93
      P1  H  7989  7998       L1     4  0.35

> <Gold.PLP.Chemscore.Internal.Correction>
0.1432

> <Gold.Rescore>
     Score         DG    S(hbond)    S(metal)    S(lipo)     H(rot)  DE(clash)    DE(int)     intcor
     14.94     -16.95       1.42        0.00      91.53       1.55       0.18       1.84       ----

> <Gold.Chemscore.Fitness>
14.9429

> <Gold.Chemscore.DG>
-16.9547

> <Gold.Chemscore.ZeroCoef>
-5.4800

> <Gold.Chemscore.Hbond>
1.4155

> <Gold.Chemscore.Metal>
0.0000

> <Gold.Chemscore.Lipo>
91.5345

> <Gold.Chemscore.Internal_Hbond>
0.0000

> <Gold.Chemscore.DEClash>
0.1761

> <Gold.Chemscore.DEInternal>
1.8357

> <Gold.Chemscore.Rot>
1.5479

> <Gold.Chemscore.Internal.Correction>
   9.000000E+99

> <Gold.Chemscore.Hbonds>
donor molecule, donor type, donor heavy atom, donor atom, acceptor molecule, acceptor atom, score
      L1  H     7    36       P1  7948  0.64
      L1  H    10    37       P1  7948  0.76

> <Gold.Chemscore.Hbond.Weighted>
-4.7279

> <Gold.Chemscore.Metal.Weighted>
-0.0000

> <Gold.Chemscore.Lipo.Weighted>
-10.7095

> <Gold.Chemscore.Internal_Hbond.Weighted>
0.0000

> <Gold.Chemscore.DEClash.Weighted>
0.1761

> <Gold.Chemscore.DEInternal.Weighted>
1.8357

> <Gold.Chemscore.Rot.Weighted>
3.9627

> <Gold.Chemscore.Internal.Correction.Weighted>
   9.000000E+99

> <Gold.Protein.RotatedTorsions>
[ 6907 6896 6895 6894 ] final   38.31 input  -60.11 | X-H torsion
[ 7974 7965 7964 7962 ] final   71.78 input  175.53 | X-H torsion
[ 8008 7997 7996 7995 ] final -151.24 input   59.86 | X-H torsion
[ 10167 10162 10161 10158 ] final   95.45 input  -65.29 | X-H torsion
[ 10718 10713 10712 10709 ] final   73.10 input   66.30 | X-H torsion
[ 10763 10752 10751 10750 ] final   61.36 input  -60.55 | X-H torsion
[ 11005 11000 10999 10996 ] final  125.82 input  -57.11 | X-H torsion

> <Gold.Protein.ActiveResidues>
 VAL166  LYS551  ARG553  GLY616  TRP617  ASP618  TYR619  PRO620  LYS621  CYS622 
 ASP623  PHE694  ASN695  SER759  ASP760  ASP761  ALA762  ILE779  LEU786  VAL792 
 PHE793  MET794  SER795  GLU796  ALA797  LYS798  CYS799  TRP800  GLU811  SER814 

> <Gold.Protein.RotatedAtoms>
  152.1548  134.8959  160.0545 H   0  0  0  0  0  0  0  0  0  0  0  0  # atno 6907 bound_to 6896
  151.9977  133.3809  159.4178 H   0  0  0  0  0  0  0  0  0  0  0  0  # atno 6908 bound_to 6896
  150.6880  134.3790  159.5069 H   0  0  0  0  0  0  0  0  0  0  0  0  # atno 6909 bound_to 6896
  145.7616  139.2803  143.1373 H   0  0  0  0  0  0  0  0  0  0  0  0  # atno 7974 bound_to 7965
  155.6363  140.0697  157.2633 H   0  0  0  0  0  0  0  0  0  0  0  0  # atno 8008 bound_to 7997
  154.4194  140.1758  156.1575 H   0  0  0  0  0  0  0  0  0  0  0  0  # atno 8009 bound_to 7997
  155.9892  140.3346  155.6740 H   0  0  0  0  0  0  0  0  0  0  0  0  # atno 8010 bound_to 7997
  139.7987  144.6823  150.9794 H   0  0  0  0  0  0  0  0  0  0  0  0  # atno 10167 bound_to 10162
  157.6532  130.9612  150.1022 H   0  0  0  0  0  0  0  0  0  0  0  0  # atno 10718 bound_to 10713
  152.9948  135.5503  154.6022 H   0  0  0  0  0  0  0  0  0  0  0  0  # atno 10763 bound_to 10752
  154.5361  135.2816  155.1139 H   0  0  0  0  0  0  0  0  0  0  0  0  # atno 10764 bound_to 10752
  154.2435  135.6412  153.5268 H   0  0  0  0  0  0  0  0  0  0  0  0  # atno 10765 bound_to 10752
  139.9425  134.9634  156.8615 H   0  0  0  0  0  0  0  0  0  0  0  0  # atno 11005 bound_to 11000
  146.0259  140.8304  142.9900 LP  0  0  0  0  0  0  0  0  0  0  0  0  # atno 17320 bound_to 7965
  144.6829  140.2697  143.7307 LP  0  0  0  0  0  0  0  0  0  0  0  0  # atno 17321 bound_to 7965
  140.7820  143.4304  151.0703 LP  0  0  0  0  0  0  0  0  0  0  0  0  # atno 17342 bound_to 10162
  139.7977  143.8128  152.3159 LP  0  0  0  0  0  0  0  0  0  0  0  0  # atno 17343 bound_to 10162
  156.1941  130.3656  149.8871 LP  0  0  0  0  0  0  0  0  0  0  0  0  # atno 17370 bound_to 10713
  156.6792  130.8851  151.3573 LP  0  0  0  0  0  0  0  0  0  0  0  0  # atno 17371 bound_to 10713
  140.5916  134.0256  155.7502 LP  0  0  0  0  0  0  0  0  0  0  0  0  # atno 17394 bound_to 11000
  141.1064  133.9686  157.2988 LP  0  0  0  0  0  0  0  0  0  0  0  0  # atno 17395 bound_to 11000

$$$$
