AV-unprocessed.smi:2866|AV-procd|sdf|11019|dock3
  -GOLD-   2272015483D 1   1.00000     0.00000
 Structure written by MMmdl.
 41 43  0  0  0  0  0  0  0  0  1 V2000
  153.2431  143.0433  160.9994 C   0  0  0  0  0  0  0  0  0  0  0  0
  152.5143  142.6465  159.7275 C   0  0  0  0  0  0  0  0  0  0  0  0
  152.8488  141.4274  159.0959 C   0  0  0  0  0  0  0  0  0  0  0  0
  152.1946  141.0220  157.9119 C   0  0  0  0  0  0  0  0  0  0  0  0
  152.3599  139.8869  157.1366 N   0  0  0  0  0  0  0  0  0  0  0  0
  151.4644  140.0871  156.1737 C   0  0  0  0  0  0  0  0  0  0  0  0
  150.7347  141.2177  156.2364 N   0  0  0  0  0  0  0  0  0  0  0  0
  149.7040  141.6507  155.3097 C   0  0  0  0  0  0  0  0  0  0  0  0
  148.9947  140.4678  154.6239 C   0  0  2  0  0  0  0  0  0  0  0  0
  149.8420  139.9160  153.6331 O   0  0  0  0  0  0  0  0  0  0  0  0
  147.6524  140.8877  153.9954 C   0  0  0  0  0  0  0  0  0  0  0  0
  147.0031  139.7965  153.2896 N   0  0  0  0  0  0  0  0  0  0  0  0
  146.9845  139.5467  151.9347 C   0  0  0  0  0  0  0  0  0  0  0  0
  146.2467  138.4144  151.7415 C   0  0  0  0  0  0  0  0  0  0  0  0
  145.8484  138.0311  153.0554 C   0  0  0  0  0  0  0  0  0  0  0  0
  145.0108  136.8502  153.4708 C   0  0  0  0  0  0  0  0  0  0  0  0
  144.9151  136.7964  154.7992 F   0  0  0  0  0  0  0  0  0  0  0  0
  143.7855  136.9572  152.9569 F   0  0  0  0  0  0  0  0  0  0  0  0
  145.5681  135.7206  153.0350 F   0  0  0  0  0  0  0  0  0  0  0  0
  146.3111  138.8639  153.9782 N   0  0  0  0  0  0  0  0  0  0  0  0
  151.1882  141.8761  157.3737 C   0  0  0  0  0  0  0  0  0  0  0  0
  150.8478  143.0921  157.9917 C   0  0  0  0  0  0  0  0  0  0  0  0
  151.5118  143.4825  159.1734 C   0  0  0  0  0  0  0  0  0  0  0  0
  151.1378  144.7981  159.8329 C   0  0  0  0  0  0  0  0  0  0  0  0
  153.9581  142.2785  161.3040 H   0  0  0  0  0  0  0  0  0  0  0  0
  152.5368  143.1841  161.8178 H   0  0  0  0  0  0  0  0  0  0  0  0
  153.7912  143.9737  160.8498 H   0  0  0  0  0  0  0  0  0  0  0  0
  153.6132  140.7910  159.5170 H   0  0  0  0  0  0  0  0  0  0  0  0
  151.3273  139.3682  155.3790 H   0  0  0  0  0  0  0  0  0  0  0  0
  148.9827  142.2529  155.8634 H   0  0  0  0  0  0  0  0  0  0  0  0
  150.1551  142.3086  154.5653 H   0  0  0  0  0  0  0  0  0  0  0  0
  148.8068  139.6900  155.3651 H   0  0  0  0  0  0  0  0  0  0  0  0
  149.3191  139.7080  152.8738 H   0  0  0  0  0  0  0  0  0  0  0  0
  146.9699  141.2368  154.7710 H   0  0  0  0  0  0  0  0  0  0  0  0
  147.7962  141.7235  153.3084 H   0  0  0  0  0  0  0  0  0  0  0  0
  147.4892  140.1899  151.2290 H   0  0  0  0  0  0  0  0  0  0  0  0
  146.0229  137.9316  150.8018 H   0  0  0  0  0  0  0  0  0  0  0  0
  150.0815  143.7182  157.5593 H   0  0  0  0  0  0  0  0  0  0  0  0
  150.3595  145.3170  159.2726 H   0  0  0  0  0  0  0  0  0  0  0  0
  152.0044  145.4570  159.8898 H   0  0  0  0  0  0  0  0  0  0  0  0
  150.7650  144.6268  160.8430 H   0  0  0  0  0  0  0  0  0  0  0  0
  1  2  1  0  0  0  0
  1 25  1  0  0  0  0
  1 26  1  0  0  0  0
  1 27  1  0  0  0  0
  2 23  1  0  0  0  0
  2  3  2  0  0  0  0
  3  4  1  0  0  0  0
  3 28  1  0  0  0  0
  4 21  2  0  0  0  0
  4  5  1  0  0  0  0
  5  6  2  0  0  0  0
  6  7  1  0  0  0  0
  6 29  1  0  0  0  0
  7  8  1  0  0  0  0
  7 21  1  0  0  0  0
  8  9  1  0  0  0  0
  8 30  1  0  0  0  0
  8 31  1  0  0  0  0
  9 10  1  0  0  0  0
  9 11  1  0  0  0  0
  9 32  1  0  0  0  0
 10 33  1  0  0  0  0
 11 12  1  0  0  0  0
 11 34  1  0  0  0  0
 11 35  1  0  0  0  0
 12 20  1  0  0  0  0
 12 13  1  0  0  0  0
 13 14  2  0  0  0  0
 13 36  1  0  0  0  0
 14 15  1  0  0  0  0
 14 37  1  0  0  0  0
 15 16  1  0  0  0  0
 15 20  2  0  0  0  0
 16 17  1  0  0  0  0
 16 18  1  0  0  0  0
 16 19  1  0  0  0  0
 21 22  1  0  0  0  0
 22 23  2  0  0  0  0
 22 38  1  0  0  0  0
 23 24  1  0  0  0  0
 24 39  1  0  0  0  0
 24 40  1  0  0  0  0
 24 41  1  0  0  0  0
M  END
> <s_m_source_file>
AV-unprocessed.smi

> <i_m_source_file_index>
2866

> <i_lp_mmshare_version>
43012

> <i_f3d_flags>
0

> <s_epik_input>
W0NIM11jKFtjSF0xKWMoW0NIM10pW2NIXWMoYzEyKW4oW2NIXW4yKVtDSDJdW0NASF0oW09IXSlbQ0gyXW4zW2NIXVtjSF1jKG4zKUMoRikoRilG

> <s_epik_cmdline>
J2VwaWtfcHl0aG9uJywgJy1waCcsICc3LjAnLCAnLXRuJywgJzgnLCAnLW1hJywgJzIwMCcsICctbWV0YWxfYmluZGluZycsICctaW1hZScsICc8aW5maWxlLm1hZT4nLCAnLW9tYWUnLCAnPG91dGZpbGUubWFlPic=

> <r_lp_tautomer_probability>
1

> <r_epik_Ionization_Penalty>
0.1021

> <r_epik_Ionization_Penalty_Charging>
0

> <r_epik_Ionization_Penalty_Neutral>
0.1021

> <r_epik_State_Penalty>
0.0920694

> <r_epik_Charging_Adjusted_Penalty>
0.0920694

> <i_epik_Tot_Q>
0

> <i_epik_Tot_abs_Q>
0

> <r_epik_Metal_State_Penalty>
0.0784291

> <b_epik_Metal_Only>
0

> <s_lp_Force_Field>
OPLS_2005

> <r_lp_Energy>
11.3604

> <b_lp_Chiralities_Consistent>
1

> <s_lp_Variant>
AV-unprocessed.smi:2866-1

> <Gold.Version>
5.8.1

> <Gold.Id.Protein>
6NUR|6NUR_protein|mol2

> <Gold.PLP.Fitness>
56.1375

> <Gold.PLP.PLP>
-48.8823

> <Gold.PLP.part.hbond>
-2.5131

> <Gold.PLP.part.metal>
0.0000

> <Gold.PLP.part.buried>
1.0570

> <Gold.PLP.part.nonpolar>
-47.3822

> <Gold.PLP.part.repulsive>
0.1785

> <Gold.PLP.ligand.clash>
0.0000

> <Gold.PLP.ligand.torsion>
0.8194

> <Gold.PLP.Chemscore.Hbond>
2.3920

> <Gold.PLP.Chemscore.CHOScore>
0.5429

> <Gold.PLP.Chemscore.Metal>
0.0000

> <Gold.Chemscore.Hbonds>
donor molecule, donor type, donor heavy atom, donor atom, acceptor molecule, acceptor atom, score
      L1  H    10    33       P1  7957  0.61
      P1  H  7989  7998       L1    10  0.74
      P1  H  7997  8008       L1     5  0.86
      L1  C    13    36       P1  7957  0.75

> <Gold.PLP.Chemscore.Internal.Correction>
0.0893

> <Gold.Rescore>
     Score         DG    S(hbond)    S(metal)    S(lipo)     H(rot)  DE(clash)    DE(int)     intcor
     18.27     -21.30       2.16        0.00     126.52       2.42       2.05       0.98       ----

> <Gold.Chemscore.Fitness>
18.2697

> <Gold.Chemscore.DG>
-21.3026

> <Gold.Chemscore.ZeroCoef>
-5.4800

> <Gold.Chemscore.Hbond>
2.1637

> <Gold.Chemscore.Metal>
0.0000

> <Gold.Chemscore.Lipo>
126.5154

> <Gold.Chemscore.Internal_Hbond>
0.0000

> <Gold.Chemscore.DEClash>
2.0524

> <Gold.Chemscore.DEInternal>
0.9806

> <Gold.Chemscore.Rot>
2.4243

> <Gold.Chemscore.Internal.Correction>
   9.000000E+99

> <Gold.Chemscore.Hbonds>
donor molecule, donor type, donor heavy atom, donor atom, acceptor molecule, acceptor atom, score
      L1  H    10    33       P1  7957  0.60
      P1  H  7989  7998       L1    10  0.61
      P1  H  7997  8008       L1     5  0.23

> <Gold.Chemscore.Hbond.Weighted>
-7.2266

> <Gold.Chemscore.Metal.Weighted>
-0.0000

> <Gold.Chemscore.Lipo.Weighted>
-14.8023

> <Gold.Chemscore.Internal_Hbond.Weighted>
0.0000

> <Gold.Chemscore.DEClash.Weighted>
2.0524

> <Gold.Chemscore.DEInternal.Weighted>
0.9806

> <Gold.Chemscore.Rot.Weighted>
6.2063

> <Gold.Chemscore.Internal.Correction.Weighted>
   9.000000E+99

> <Gold.Protein.RotatedTorsions>
[ 6907 6896 6895 6894 ] final  -80.91 input  -60.11 | X-H torsion
[ 7974 7965 7964 7962 ] final  -28.87 input  175.53 | X-H torsion
[ 8008 7997 7996 7995 ] final  -53.75 input   59.86 | X-H torsion
[ 10167 10162 10161 10158 ] final    2.63 input  -65.29 | X-H torsion
[ 10718 10713 10712 10709 ] final  102.92 input   66.30 | X-H torsion
[ 10763 10752 10751 10750 ] final -130.89 input  -60.55 | X-H torsion
[ 11005 11000 10999 10996 ] final -145.95 input  -57.11 | X-H torsion

> <Gold.Protein.ActiveResidues>
 VAL166  LYS551  ARG553  GLY616  TRP617  ASP618  TYR619  PRO620  LYS621  CYS622 
 ASP623  PHE694  ASN695  SER759  ASP760  ASP761  ALA762  ILE779  LEU786  VAL792 
 PHE793  MET794  SER795  GLU796  ALA797  LYS798  CYS799  TRP800  GLU811  SER814 

> <Gold.Protein.RotatedAtoms>
  150.6921  134.3898  159.5071 H   0  0  0  0  0  0  0  0  0  0  0  0  # atno 6907 bound_to 6896
  152.1688  134.8848  160.0545 H   0  0  0  0  0  0  0  0  0  0  0  0  # atno 6908 bound_to 6896
  151.9882  133.3747  159.4171 H   0  0  0  0  0  0  0  0  0  0  0  0  # atno 6909 bound_to 6896
  146.1257  140.5339  142.8715 H   0  0  0  0  0  0  0  0  0  0  0  0  # atno 7974 bound_to 7965
  154.4142  140.1192  156.5204 H   0  0  0  0  0  0  0  0  0  0  0  0  # atno 8008 bound_to 7997
  155.6708  140.3496  155.4798 H   0  0  0  0  0  0  0  0  0  0  0  0  # atno 8009 bound_to 7997
  155.9634  140.1127  157.0866 H   0  0  0  0  0  0  0  0  0  0  0  0  # atno 8010 bound_to 7997
  140.6625  143.7265  150.7766 H   0  0  0  0  0  0  0  0  0  0  0  0  # atno 10167 bound_to 10162
  157.6788  131.0765  150.5476 H   0  0  0  0  0  0  0  0  0  0  0  0  # atno 10718 bound_to 10713
  154.8753  135.3848  154.4157 H   0  0  0  0  0  0  0  0  0  0  0  0  # atno 10763 bound_to 10752
  153.4866  135.7030  153.5913 H   0  0  0  0  0  0  0  0  0  0  0  0  # atno 10764 bound_to 10752
  153.4305  135.3880  155.2134 H   0  0  0  0  0  0  0  0  0  0  0  0  # atno 10765 bound_to 10752
  140.7870  134.3013  157.5026 H   0  0  0  0  0  0  0  0  0  0  0  0  # atno 11005 bound_to 11000
  144.7640  140.5488  143.6716 LP  0  0  0  0  0  0  0  0  0  0  0  0  # atno 17320 bound_to 7965
  145.5370  139.1475  143.3468 LP  0  0  0  0  0  0  0  0  0  0  0  0  # atno 17321 bound_to 7965
  140.0937  143.4853  152.2464 LP  0  0  0  0  0  0  0  0  0  0  0  0  # atno 17342 bound_to 10162
  139.5864  144.7532  151.3510 LP  0  0  0  0  0  0  0  0  0  0  0  0  # atno 17343 bound_to 10162
  156.5782  130.4297  149.5989 LP  0  0  0  0  0  0  0  0  0  0  0  0  # atno 17370 bound_to 10713
  156.2684  130.7002  151.1792 LP  0  0  0  0  0  0  0  0  0  0  0  0  # atno 17371 bound_to 10713
  139.8735  134.9352  156.3627 LP  0  0  0  0  0  0  0  0  0  0  0  0  # atno 17394 bound_to 11000
  140.9427  133.7504  156.0167 LP  0  0  0  0  0  0  0  0  0  0  0  0  # atno 17395 bound_to 11000

$$$$
