AV-unprocessed.smi:711|AV-procd|sdf|3464|dock7
  -GOLD-   22720 0453D 1   1.00000     0.00000
 Structure written by MMmdl.
 29 30  0  0  0  0  0  0  0  0  1 V2000
  146.7363  139.9010  152.7613 O   0  0  0  0  0  0  0  0  0  0  0  0
  147.5921  140.3472  153.5228 C   0  0  0  0  0  0  0  0  0  0  0  0
  148.8296  139.7060  153.6307 N   0  0  0  0  0  0  0  0  0  0  0  0
  149.8833  140.1049  154.4536 C   0  0  0  0  0  0  0  0  0  0  0  0
  150.9227  139.4457  154.4738 O   0  0  0  0  0  0  0  0  0  0  0  0
  149.6743  141.2641  155.2393 N   0  0  0  0  0  0  0  0  0  0  0  0
  150.7218  141.7033  156.1333 C   0  0  0  0  0  0  0  0  0  0  0  0
  150.2793  141.7830  157.6116 C   0  0  2  0  0  0  0  0  0  0  0  0
  149.6419  143.0278  157.8166 O   0  0  0  0  0  0  0  0  0  0  0  0
  151.4198  141.5428  158.5951 C   0  0  0  0  0  0  0  0  0  0  0  0
  151.8127  140.2250  158.9201 C   0  0  0  0  0  0  0  0  0  0  0  0
  152.8500  139.9987  159.8452 C   0  0  0  0  0  0  0  0  0  0  0  0
  153.5014  141.0883  160.4531 C   0  0  0  0  0  0  0  0  0  0  0  0
  154.4979  140.8712  161.3436 F   0  0  0  0  0  0  0  0  0  0  0  0
  153.1138  142.4039  160.1366 C   0  0  0  0  0  0  0  0  0  0  0  0
  152.0758  142.6329  159.2125 C   0  0  0  0  0  0  0  0  0  0  0  0
  151.7057  143.9058  158.9318 F   0  0  0  0  0  0  0  0  0  0  0  0
  148.4598  141.9279  155.1665 C   0  0  0  0  0  0  0  0  0  0  0  0
  147.4408  141.5316  154.3667 C   0  0  0  0  0  0  0  0  0  0  0  0
  145.9553  142.4123  154.3371 Cl  0  0  0  0  0  0  0  0  0  0  0  0
  148.9715  138.8801  153.0677 H   0  0  0  0  0  0  0  0  0  0  0  0
  151.6004  141.0704  155.9940 H   0  0  0  0  0  0  0  0  0  0  0  0
  151.0103  142.6902  155.7662 H   0  0  0  0  0  0  0  0  0  0  0  0
  149.5113  141.0281  157.7826 H   0  0  0  0  0  0  0  0  0  0  0  0
  149.3338  143.3477  156.9824 H   0  0  0  0  0  0  0  0  0  0  0  0
  151.3132  139.3812  158.4671 H   0  0  0  0  0  0  0  0  0  0  0  0
  153.1431  138.9883  160.0904 H   0  0  0  0  0  0  0  0  0  0  0  0
  153.6108  143.2398  160.6063 H   0  0  0  0  0  0  0  0  0  0  0  0
  148.3159  142.8043  155.7829 H   0  0  0  0  0  0  0  0  0  0  0  0
  1  2  2  0  0  0  0
  2 19  1  0  0  0  0
  2  3  1  0  0  0  0
  3 21  1  0  0  0  0
  3  4  1  0  0  0  0
  4  5  2  0  0  0  0
  4  6  1  0  0  0  0
  6  7  1  0  0  0  0
  6 18  1  0  0  0  0
  7  8  1  0  0  0  0
  7 22  1  0  0  0  0
  7 23  1  0  0  0  0
  8  9  1  0  0  0  0
  8 10  1  0  0  0  0
  8 24  1  0  0  0  0
  9 25  1  0  0  0  0
 10 16  1  0  0  0  0
 10 11  2  0  0  0  0
 11 12  1  0  0  0  0
 11 26  1  0  0  0  0
 12 13  2  0  0  0  0
 12 27  1  0  0  0  0
 13 14  1  0  0  0  0
 13 15  1  0  0  0  0
 15 16  2  0  0  0  0
 15 28  1  0  0  0  0
 16 17  1  0  0  0  0
 18 19  2  0  0  0  0
 18 29  1  0  0  0  0
 19 20  1  0  0  0  0
M  END
> <s_m_source_file>
AV-unprocessed.smi

> <i_m_source_file_index>
711

> <i_lp_mmshare_version>
43012

> <i_f3d_flags>
0

> <s_epik_input>
Tz1jMVtuSF1jKD1PKW4oW2NIXWMxQ2wpW0NIMl1bQ0BIXShbT0hdKWMyW2NIXVtjSF1jKEYpW2NIXWMyRg==

> <s_epik_cmdline>
J2VwaWtfcHl0aG9uJywgJy1waCcsICc3LjAnLCAnLXRuJywgJzgnLCAnLW1hJywgJzIwMCcsICctbWV0YWxfYmluZGluZycsICctaW1hZScsICc8aW5maWxlLm1hZT4nLCAnLW9tYWUnLCAnPG91dGZpbGUubWFlPic=

> <r_lp_tautomer_probability>
0.999537

> <r_epik_Ionization_Penalty>
0.0292058

> <r_epik_Ionization_Penalty_Charging>
0.0292057

> <r_epik_Ionization_Penalty_Neutral>
9.07348e-08

> <r_epik_State_Penalty>
0.0240115

> <r_epik_Charging_Adjusted_Penalty>
0.0532172

> <i_epik_Tot_Q>
0

> <i_epik_Tot_abs_Q>
0

> <r_epik_Metal_State_Penalty>
2.21956

> <b_epik_Metal_Only>
0

> <s_lp_Force_Field>
OPLS_2005

> <r_lp_Energy>
11.2971

> <b_lp_Chiralities_Consistent>
1

> <s_lp_Variant>
AV-unprocessed.smi:711-1

> <Gold.Version>
5.8.1

> <Gold.Id.Protein>
6NUR|6NUR_protein|mol2

> <Gold.PLP.Fitness>
49.2587

> <Gold.PLP.PLP>
-44.1327

> <Gold.PLP.part.hbond>
-3.0000

> <Gold.PLP.part.metal>
0.0000

> <Gold.PLP.part.buried>
-0.7352

> <Gold.PLP.part.nonpolar>
-41.2530

> <Gold.PLP.part.repulsive>
0.5208

> <Gold.PLP.ligand.clash>
0.0000

> <Gold.PLP.ligand.torsion>
0.9730

> <Gold.PLP.Chemscore.Hbond>
1.3500

> <Gold.PLP.Chemscore.CHOScore>
0.9994

> <Gold.PLP.Chemscore.Metal>
0.0000

> <Gold.Chemscore.Hbonds>
donor molecule, donor type, donor heavy atom, donor atom, acceptor molecule, acceptor atom, score
      L1  H     9    25       P1  8028  1.00
      P1  H  7989  7998       L1     5  0.25
      L1  C    18    29       P1  8028  0.90

> <Gold.PLP.Chemscore.Internal.Correction>
0.0236

> <Gold.Rescore>
     Score         DG    S(hbond)    S(metal)    S(lipo)     H(rot)  DE(clash)    DE(int)     intcor
      9.25     -12.01       0.88        0.00      82.53       2.37       0.07       2.68       ----

> <Gold.Chemscore.Fitness>
9.2544

> <Gold.Chemscore.DG>
-12.0071

> <Gold.Chemscore.ZeroCoef>
-5.4800

> <Gold.Chemscore.Hbond>
0.8761

> <Gold.Chemscore.Metal>
0.0000

> <Gold.Chemscore.Lipo>
82.5265

> <Gold.Chemscore.Internal_Hbond>
0.0000

> <Gold.Chemscore.DEClash>
0.0721

> <Gold.Chemscore.DEInternal>
2.6805

> <Gold.Chemscore.Rot>
2.3652

> <Gold.Chemscore.Internal.Correction>
   9.000000E+99

> <Gold.Chemscore.Hbonds>
donor molecule, donor type, donor heavy atom, donor atom, acceptor molecule, acceptor atom, score
      L1  H     3    21       P1  7957  0.01
      L1  H     9    25       P1  8028  0.89

> <Gold.Chemscore.Hbond.Weighted>
-2.9262

> <Gold.Chemscore.Metal.Weighted>
-0.0000

> <Gold.Chemscore.Lipo.Weighted>
-9.6556

> <Gold.Chemscore.Internal_Hbond.Weighted>
0.0000

> <Gold.Chemscore.DEClash.Weighted>
0.0721

> <Gold.Chemscore.DEInternal.Weighted>
2.6805

> <Gold.Chemscore.Rot.Weighted>
6.0548

> <Gold.Chemscore.Internal.Correction.Weighted>
   9.000000E+99

> <Gold.Protein.RotatedTorsions>
[ 6907 6896 6895 6894 ] final  -22.43 input  -60.11 | X-H torsion
[ 7974 7965 7964 7962 ] final  143.72 input  175.53 | X-H torsion
[ 8008 7997 7996 7995 ] final   82.86 input   59.86 | X-H torsion
[ 10167 10162 10161 10158 ] final   87.83 input  -65.29 | X-H torsion
[ 10718 10713 10712 10709 ] final -160.61 input   66.30 | X-H torsion
[ 10763 10752 10751 10750 ] final   80.98 input  -60.55 | X-H torsion
[ 11005 11000 10999 10996 ] final  125.34 input  -57.11 | X-H torsion

> <Gold.Protein.ActiveResidues>
 VAL166  LYS551  ARG553  GLY616  TRP617  ASP618  TYR619  PRO620  LYS621  CYS622 
 ASP623  PHE694  ASN695  SER759  ASP760  ASP761  ALA762  ILE779  LEU786  VAL792 
 PHE793  MET794  SER795  GLU796  ALA797  LYS798  CYS799  TRP800  GLU811  SER814 

> <Gold.Protein.RotatedAtoms>
  151.2187  135.0510  159.8940 H   0  0  0  0  0  0  0  0  0  0  0  0  # atno 6907 bound_to 6896
  152.5417  134.0664  159.8185 H   0  0  0  0  0  0  0  0  0  0  0  0  # atno 6908 bound_to 6896
  151.0828  133.5329  159.2651 H   0  0  0  0  0  0  0  0  0  0  0  0  # atno 6909 bound_to 6896
  144.8896  139.5577  143.5804 H   0  0  0  0  0  0  0  0  0  0  0  0  # atno 7974 bound_to 7965
  155.9163  140.3424  155.6137 H   0  0  0  0  0  0  0  0  0  0  0  0  # atno 8008 bound_to 7997
  155.7328  140.0797  157.2300 H   0  0  0  0  0  0  0  0  0  0  0  0  # atno 8009 bound_to 7997
  154.4063  140.1585  156.2515 H   0  0  0  0  0  0  0  0  0  0  0  0  # atno 8010 bound_to 7997
  139.8734  144.6480  150.8924 H   0  0  0  0  0  0  0  0  0  0  0  0  # atno 10167 bound_to 10162
  156.5845  130.8744  151.2873 H   0  0  0  0  0  0  0  0  0  0  0  0  # atno 10718 bound_to 10713
  153.1079  135.4782  154.8983 H   0  0  0  0  0  0  0  0  0  0  0  0  # atno 10763 bound_to 10752
  154.7449  135.3091  154.8665 H   0  0  0  0  0  0  0  0  0  0  0  0  # atno 10764 bound_to 10752
  153.9262  135.6849  153.4800 H   0  0  0  0  0  0  0  0  0  0  0  0  # atno 10765 bound_to 10752
  139.9402  134.9636  156.8544 H   0  0  0  0  0  0  0  0  0  0  0  0  # atno 11005 bound_to 11000
  146.3046  139.7536  142.9066 LP  0  0  0  0  0  0  0  0  0  0  0  0  # atno 17320 bound_to 7965
  145.3806  141.0357  143.3179 LP  0  0  0  0  0  0  0  0  0  0  0  0  # atno 17321 bound_to 7965
  140.7757  143.3645  151.1765 LP  0  0  0  0  0  0  0  0  0  0  0  0  # atno 17342 bound_to 10162
  139.7263  143.9144  152.3003 LP  0  0  0  0  0  0  0  0  0  0  0  0  # atno 17343 bound_to 10162
  157.7318  130.9706  150.1899 LP  0  0  0  0  0  0  0  0  0  0  0  0  # atno 17370 bound_to 10713
  156.2602  130.3710  149.8138 LP  0  0  0  0  0  0  0  0  0  0  0  0  # atno 17371 bound_to 10713
  140.5972  134.0206  155.7522 LP  0  0  0  0  0  0  0  0  0  0  0  0  # atno 17394 bound_to 11000
  141.1033  133.9734  157.3041 LP  0  0  0  0  0  0  0  0  0  0  0  0  # atno 17395 bound_to 11000

$$$$
