AV-unprocessed.smi:1795|AV-procd|sdf|7243|dock1
  -GOLD-   22720 8493D 1   1.00000     0.00000
 Structure written by MMmdl.
 48 49  0  0  0  0  0  0  0  0  2 V2000
  147.8319  132.1410  153.9314 C   0  0  0  0  0  0  0  0  0  0  0  0
  147.9523  133.6689  153.9651 C   0  0  2  0  0  0  0  0  0  0  0  0
  149.2605  134.1277  154.6359 C   0  0  0  0  0  0  0  0  0  0  0  0
  149.3145  135.6102  154.7510 N   0  3  2  0  0  0  0  0  0  0  0  0
  150.5813  136.1791  155.3187 C   0  0  2  0  0  0  0  0  0  0  0  0
  150.5036  136.2001  156.8621 C   0  0  0  0  0  0  0  0  0  0  0  0
  150.9374  137.5937  154.7790 C   0  0  0  0  0  0  0  0  0  0  0  0
  150.3824  138.6752  155.5886 N   0  0  0  0  0  0  0  0  0  0  0  0
  151.0959  139.6763  156.1264 C   0  0  0  0  0  0  0  0  0  0  0  0
  152.3187  139.7674  156.0100 O   0  0  0  0  0  0  0  0  0  0  0  0
  150.3017  140.7150  156.9314 C   0  0  0  0  0  0  0  0  0  0  0  0
  151.1247  141.4435  157.9115 N   0  0  0  0  0  0  0  0  0  0  0  0
  151.2961  142.8271  157.7054 C   0  0  0  0  0  0  0  0  0  0  0  0
  152.0257  143.5841  158.5401 C   0  0  0  0  0  0  0  0  0  0  0  0
  152.6453  142.9445  159.6767 C   0  0  0  0  0  0  0  0  0  0  0  0
  152.4849  141.6225  159.8852 C   0  0  0  0  0  0  0  0  0  0  0  0
  151.6868  140.7914  158.9764 C   0  0  0  0  0  0  0  0  0  0  0  0
  151.5318  139.5838  159.1605 O   0  0  0  0  0  0  0  0  0  0  0  0
  148.1050  136.0924  155.4716 C   0  0  0  0  0  0  0  0  0  0  0  0
  146.8069  135.5975  154.8071 C   0  0  1  0  0  0  0  0  0  0  0  0
  146.4875  136.3018  153.4760 C   0  0  0  0  0  0  0  0  0  0  0  0
  146.8340  134.1779  154.6831 O   0  0  0  0  0  0  0  0  0  0  0  0
  148.6600  131.6932  153.3816 H   0  0  0  0  0  0  0  0  0  0  0  0
  146.9061  131.8332  153.4446 H   0  0  0  0  0  0  0  0  0  0  0  0
  147.8334  131.7222  154.9382 H   0  0  0  0  0  0  0  0  0  0  0  0
  147.9233  134.0295  152.9367 H   0  0  0  0  0  0  0  0  0  0  0  0
  149.3611  133.6809  155.6265 H   0  0  0  0  0  0  0  0  0  0  0  0
  150.0808  133.7576  154.0220 H   0  0  0  0  0  0  0  0  0  0  0  0
  151.3939  135.5118  155.0268 H   0  0  0  0  0  0  0  0  0  0  0  0
  151.4300  136.5601  157.3093 H   0  0  0  0  0  0  0  0  0  0  0  0
  150.3303  135.2132  157.2876 H   0  0  0  0  0  0  0  0  0  0  0  0
  149.6990  136.8518  157.2045 H   0  0  0  0  0  0  0  0  0  0  0  0
  152.0169  137.7453  154.7384 H   0  0  0  0  0  0  0  0  0  0  0  0
  150.5642  137.7126  153.7613 H   0  0  0  0  0  0  0  0  0  0  0  0
  149.3832  138.6715  155.7357 H   0  0  0  0  0  0  0  0  0  0  0  0
  149.8271  141.4209  156.2470 H   0  0  0  0  0  0  0  0  0  0  0  0
  149.4773  140.2014  157.4280 H   0  0  0  0  0  0  0  0  0  0  0  0
  150.7952  143.2299  156.8369 H   0  0  0  0  0  0  0  0  0  0  0  0
  152.1433  144.6439  158.3680 H   0  0  0  0  0  0  0  0  0  0  0  0
  153.2389  143.5291  160.3642 H   0  0  0  0  0  0  0  0  0  0  0  0
  152.9549  141.1617  160.7418 H   0  0  0  0  0  0  0  0  0  0  0  0
  148.1411  135.7319  156.5011 H   0  0  0  0  0  0  0  0  0  0  0  0
  148.0801  137.1793  155.5276 H   0  0  0  0  0  0  0  0  0  0  0  0
  145.9827  135.8218  155.4849 H   0  0  0  0  0  0  0  0  0  0  0  0
  146.3450  137.3715  153.6306 H   0  0  0  0  0  0  0  0  0  0  0  0
  145.5696  135.9082  153.0389 H   0  0  0  0  0  0  0  0  0  0  0  0
  147.2846  136.1857  152.7424 H   0  0  0  0  0  0  0  0  0  0  0  0
  149.2516  135.9586  153.8051 H   0  0  0  0  0  0  0  0  0  0  0  0
  1  2  1  0  0  0  0
  1 23  1  0  0  0  0
  1 24  1  0  0  0  0
  1 25  1  0  0  0  0
  2 22  1  0  0  0  0
  2  3  1  0  0  0  0
  2 26  1  0  0  0  0
  3  4  1  0  0  0  0
  3 27  1  0  0  0  0
  3 28  1  0  0  0  0
  4  5  1  0  0  0  0
  4 19  1  0  0  0  0
  4 48  1  0  0  0  0
  5  6  1  0  0  0  0
  5  7  1  0  0  0  0
  5 29  1  0  0  0  0
  6 30  1  0  0  0  0
  6 31  1  0  0  0  0
  6 32  1  0  0  0  0
  7  8  1  0  0  0  0
  7 33  1  0  0  0  0
  7 34  1  0  0  0  0
  8  9  1  0  0  0  0
  8 35  1  0  0  0  0
  9 10  2  0  0  0  0
  9 11  1  0  0  0  0
 11 12  1  0  0  0  0
 11 36  1  0  0  0  0
 11 37  1  0  0  0  0
 12 17  1  0  0  0  0
 12 13  1  0  0  0  0
 13 14  2  0  0  0  0
 13 38  1  0  0  0  0
 14 15  1  0  0  0  0
 14 39  1  0  0  0  0
 15 16  2  0  0  0  0
 15 40  1  0  0  0  0
 16 17  1  0  0  0  0
 16 41  1  0  0  0  0
 17 18  2  0  0  0  0
 19 20  1  0  0  0  0
 19 42  1  0  0  0  0
 19 43  1  0  0  0  0
 20 21  1  0  0  0  0
 20 22  1  0  0  0  0
 20 44  1  0  0  0  0
 21 45  1  0  0  0  0
 21 46  1  0  0  0  0
 21 47  1  0  0  0  0
M  CHG  1   4   1
M  END
> <s_m_source_file>
AV-unprocessed.smi

> <i_m_source_file_index>
1795

> <i_lp_mmshare_version>
43012

> <i_f3d_flags>
0

> <s_epik_input>
W0NIM11bQ0BASF0xW0NIMl1OKFtDSDJdW0NASF0oTzEpW0NIM10pW0NASF0oW0NIM10pW0NIMl1bTkhdQyg9TylbQ0gyXW4yW2NIXVtjSF1bY0hdW2NIXWMyPU8=

> <s_epik_cmdline>
J2VwaWtfcHl0aG9uJywgJy1waCcsICc3LjAnLCAnLXRuJywgJzgnLCAnLW1hJywgJzIwMCcsICctbWV0YWxfYmluZGluZycsICctaW1hZScsICc8aW5maWxlLm1hZT4nLCAnLW9tYWUnLCAnPG91dGZpbGUubWFlPic=

> <r_lp_tautomer_probability>
1

> <r_epik_Ionization_Penalty>
0.656654

> <r_epik_Ionization_Penalty_Charging>
0.656654

> <r_epik_Ionization_Penalty_Neutral>
8.90321e-08

> <r_epik_State_Penalty>
0.675641

> <r_epik_Charging_Adjusted_Penalty>
1.33229

> <i_epik_Tot_Q>
1

> <i_epik_Tot_abs_Q>
1

> <r_epik_Metal_State_Penalty>
0.675691

> <b_epik_Metal_Only>
0

> <s_lp_Force_Field>
OPLS_2005

> <r_lp_Energy>
31.532

> <b_lp_Chiralities_Consistent>
1

> <s_lp_Variant>
AV-unprocessed.smi:1795-7

> <Gold.Version>
5.8.1

> <Gold.Id.Protein>
6NUR|6NUR_protein|mol2

> <Gold.PLP.Fitness>
47.6940

> <Gold.PLP.PLP>
-37.8820

> <Gold.PLP.part.hbond>
-2.8870

> <Gold.PLP.part.metal>
0.0000

> <Gold.PLP.part.buried>
-1.5737

> <Gold.PLP.part.nonpolar>
-34.1248

> <Gold.PLP.part.repulsive>
0.1469

> <Gold.PLP.ligand.clash>
0.0000

> <Gold.PLP.ligand.torsion>
1.2595

> <Gold.PLP.Chemscore.Hbond>
3.0765

> <Gold.PLP.Chemscore.CHOScore>
1.0000

> <Gold.PLP.Chemscore.Metal>
0.0000

> <Gold.Chemscore.Hbonds>
donor molecule, donor type, donor heavy atom, donor atom, acceptor molecule, acceptor atom, score
      L1  H     4    48       P1  7948  2.00
      P1  H  7997  8008       L1    10  0.84
      L1  C    13    38       P1  8028  0.62

> <Gold.PLP.Chemscore.Internal.Correction>
0.1015

> <Gold.Rescore>
     Score         DG    S(hbond)    S(metal)    S(lipo)     H(rot)  DE(clash)    DE(int)     intcor
     15.78     -17.16       1.94        0.00      85.80       1.89       0.29       1.09       ----

> <Gold.Chemscore.Fitness>
15.7849

> <Gold.Chemscore.DG>
-17.1595

> <Gold.Chemscore.ZeroCoef>
-5.4800

> <Gold.Chemscore.Hbond>
1.9377

> <Gold.Chemscore.Metal>
0.0000

> <Gold.Chemscore.Lipo>
85.7967

> <Gold.Chemscore.Internal_Hbond>
0.0000

> <Gold.Chemscore.DEClash>
0.2862

> <Gold.Chemscore.DEInternal>
1.0883

> <Gold.Chemscore.Rot>
1.8870

> <Gold.Chemscore.Internal.Correction>
   9.000000E+99

> <Gold.Chemscore.Hbonds>
donor molecule, donor type, donor heavy atom, donor atom, acceptor molecule, acceptor atom, score
      L1  H     4    48       P1  7948  0.77
      P1  H  7997  8008       L1    10  0.82

> <Gold.Chemscore.Hbond.Weighted>
-6.4720

> <Gold.Chemscore.Metal.Weighted>
-0.0000

> <Gold.Chemscore.Lipo.Weighted>
-10.0382

> <Gold.Chemscore.Internal_Hbond.Weighted>
0.0000

> <Gold.Chemscore.DEClash.Weighted>
0.2862

> <Gold.Chemscore.DEInternal.Weighted>
1.0883

> <Gold.Chemscore.Rot.Weighted>
4.8308

> <Gold.Chemscore.Internal.Correction.Weighted>
   9.000000E+99

> <Gold.Protein.RotatedTorsions>
[ 6907 6896 6895 6894 ] final  -69.08 input  -60.11 | X-H torsion
[ 7974 7965 7964 7962 ] final  114.22 input  175.53 | X-H torsion
[ 8008 7997 7996 7995 ] final  -26.80 input   59.86 | X-H torsion
[ 10167 10162 10161 10158 ] final -139.33 input  -65.29 | X-H torsion
[ 10718 10713 10712 10709 ] final -138.30 input   66.30 | X-H torsion
[ 10763 10752 10751 10750 ] final    5.88 input  -60.55 | X-H torsion
[ 11005 11000 10999 10996 ] final  -57.34 input  -57.11 | X-H torsion

> <Gold.Protein.ActiveResidues>
 VAL166  LYS551  ARG553  GLY616  TRP617  ASP618  TYR619  PRO620  LYS621  CYS622 
 ASP623  PHE694  ASN695  SER759  ASP760  ASP761  ALA762  ILE779  LEU786  VAL792 
 PHE793  MET794  SER795  GLU796  ALA797  LYS798  CYS799  TRP800  GLU811  SER814 

> <Gold.Protein.RotatedAtoms>
  150.7324  134.5648  159.5860 H   0  0  0  0  0  0  0  0  0  0  0  0  # atno 6907 bound_to 6896
  152.3102  134.7503  160.0347 H   0  0  0  0  0  0  0  0  0  0  0  0  # atno 6908 bound_to 6896
  151.8054  133.3339  159.3576 H   0  0  0  0  0  0  0  0  0  0  0  0  # atno 6909 bound_to 6896
  145.2071  139.2924  143.4288 H   0  0  0  0  0  0  0  0  0  0  0  0  # atno 7974 bound_to 7965
  154.4408  140.1889  156.0831 H   0  0  0  0  0  0  0  0  0  0  0  0  # atno 8008 bound_to 7997
  156.0423  140.3318  155.7231 H   0  0  0  0  0  0  0  0  0  0  0  0  # atno 8009 bound_to 7997
  155.5681  140.0610  157.2804 H   0  0  0  0  0  0  0  0  0  0  0  0  # atno 8010 bound_to 7997
  139.8390  143.7347  152.2664 H   0  0  0  0  0  0  0  0  0  0  0  0  # atno 10167 bound_to 10162
  156.2978  130.7411  151.1455 H   0  0  0  0  0  0  0  0  0  0  0  0  # atno 10718 bound_to 10713
  153.2542  135.6916  153.7647 H   0  0  0  0  0  0  0  0  0  0  0  0  # atno 10763 bound_to 10752
  153.6730  135.3341  155.3159 H   0  0  0  0  0  0  0  0  0  0  0  0  # atno 10764 bound_to 10752
  154.8406  135.4504  154.1509 H   0  0  0  0  0  0  0  0  0  0  0  0  # atno 10765 bound_to 10752
  141.1160  133.6610  156.4755 H   0  0  0  0  0  0  0  0  0  0  0  0  # atno 11005 bound_to 11000
  146.3405  140.2335  142.8594 LP  0  0  0  0  0  0  0  0  0  0  0  0  # atno 17320 bound_to 7965
  144.9891  140.8531  143.5350 LP  0  0  0  0  0  0  0  0  0  0  0  0  # atno 17321 bound_to 7965
  139.7578  144.7515  151.0409 LP  0  0  0  0  0  0  0  0  0  0  0  0  # atno 17342 bound_to 10162
  140.7800  143.4785  151.0050 LP  0  0  0  0  0  0  0  0  0  0  0  0  # atno 17343 bound_to 10162
  157.7360  131.0567  150.5439 LP  0  0  0  0  0  0  0  0  0  0  0  0  # atno 17370 bound_to 10713
  156.5563  130.4244  149.6084 LP  0  0  0  0  0  0  0  0  0  0  0  0  # atno 17371 bound_to 10713
  140.4643  134.6812  157.5100 LP  0  0  0  0  0  0  0  0  0  0  0  0  # atno 17394 bound_to 11000
  140.0083  134.6729  155.9420 LP  0  0  0  0  0  0  0  0  0  0  0  0  # atno 17395 bound_to 11000

$$$$
