AV-unprocessed.smi:2273|AV-procd|sdf|9165|dock9
  -GOLD-   2272012373D 1   1.00000     0.00000
 Structure written by MMmdl.
 53 54  0  0  0  0  0  0  0  0  1 V2000
  152.3923  139.6632  158.6289 C   0  0  0  0  0  0  0  0  0  0  0  0
  151.4429  138.5423  158.1787 C   0  0  0  0  0  0  0  0  0  0  0  0
  151.8605  137.8382  156.8627 C   0  0  0  0  0  0  0  0  0  0  0  0
  151.6372  138.7581  155.6362 C   0  0  0  0  0  0  0  0  0  0  0  0
  152.4853  138.3997  154.4061 C   0  0  0  0  0  0  0  0  0  0  0  0
  151.1510  136.4707  156.6790 C   0  0  1  0  0  0  0  0  0  0  0  0
  150.2427  136.3847  155.4340 C   0  0  0  0  0  0  0  0  0  0  0  0
  149.5692  135.0030  155.3563 C   0  0  1  0  0  0  0  0  0  0  0  0
  148.7995  134.8601  154.1188 N   0  0  0  0  0  0  0  0  0  0  0  0
  147.8771  133.9289  153.8146 C   0  0  0  0  0  0  0  0  0  0  0  0
  147.5914  133.0280  154.6020 O   0  0  0  0  0  0  0  0  0  0  0  0
  147.3371  134.0609  152.5859 N   0  0  0  0  0  0  0  0  0  0  0  0
  146.4003  133.2019  151.9918 C   0  0  0  0  0  0  0  0  0  0  0  0
  145.3554  133.7398  151.3092 C   0  0  0  0  0  0  0  0  0  0  0  0
  145.1976  135.2427  151.1401 C   0  0  0  0  0  0  0  0  0  0  0  0
  144.3783  132.8565  150.7077 C   0  0  0  0  0  0  0  0  0  0  0  0
  144.5168  131.5309  150.8428 C   0  0  0  0  0  0  0  0  0  0  0  0
  145.5785  130.9714  151.5680 N   0  0  0  0  0  0  0  0  0  0  0  0
  145.6315  129.5110  151.6744 C   0  0  0  0  0  0  0  0  0  0  0  0
  146.5203  131.7372  152.1902 C   0  0  0  0  0  0  0  0  0  0  0  0
  147.3965  131.2188  152.8860 O   0  0  0  0  0  0  0  0  0  0  0  0
  150.6527  133.9168  155.4237 C   0  0  0  0  0  0  0  0  0  0  0  0
  151.5538  134.1232  156.6522 C   0  0  0  0  0  0  0  0  0  0  0  0
  152.1234  135.4284  156.6324 O   0  0  0  0  0  0  0  0  0  0  0  0
  152.1008  140.0394  159.6097 H   0  0  0  0  0  0  0  0  0  0  0  0
  152.3823  140.5112  157.9456 H   0  0  0  0  0  0  0  0  0  0  0  0
  153.4185  139.3032  158.7060 H   0  0  0  0  0  0  0  0  0  0  0  0
  151.4032  137.8222  158.9932 H   0  0  0  0  0  0  0  0  0  0  0  0
  150.4305  138.9369  158.0846 H   0  0  0  0  0  0  0  0  0  0  0  0
  152.9310  137.6389  156.9281 H   0  0  0  0  0  0  0  0  0  0  0  0
  150.5813  138.7666  155.3636 H   0  0  0  0  0  0  0  0  0  0  0  0
  151.8817  139.7868  155.8953 H   0  0  0  0  0  0  0  0  0  0  0  0
  152.3558  139.1469  153.6228 H   0  0  0  0  0  0  0  0  0  0  0  0
  152.2066  137.4373  153.9789 H   0  0  0  0  0  0  0  0  0  0  0  0
  153.5461  138.3654  154.6552 H   0  0  0  0  0  0  0  0  0  0  0  0
  150.5101  136.2990  157.5432 H   0  0  0  0  0  0  0  0  0  0  0  0
  149.4928  137.1740  155.4715 H   0  0  0  0  0  0  0  0  0  0  0  0
  150.8173  136.5460  154.5228 H   0  0  0  0  0  0  0  0  0  0  0  0
  148.9091  134.8716  156.2158 H   0  0  0  0  0  0  0  0  0  0  0  0
  148.9960  135.5438  153.4020 H   0  0  0  0  0  0  0  0  0  0  0  0
  147.7337  134.7653  151.9817 H   0  0  0  0  0  0  0  0  0  0  0  0
  144.3172  135.4831  150.5440 H   0  0  0  0  0  0  0  0  0  0  0  0
  146.0678  135.6652  150.6370 H   0  0  0  0  0  0  0  0  0  0  0  0
  145.0874  135.7269  152.1109 H   0  0  0  0  0  0  0  0  0  0  0  0
  143.5465  133.2570  150.1468 H   0  0  0  0  0  0  0  0  0  0  0  0
  143.8221  130.8231  150.4146 H   0  0  0  0  0  0  0  0  0  0  0  0
  146.6080  129.1355  151.3641 H   0  0  0  0  0  0  0  0  0  0  0  0
  144.8855  129.0166  151.0512 H   0  0  0  0  0  0  0  0  0  0  0  0
  145.4586  129.1987  152.7052 H   0  0  0  0  0  0  0  0  0  0  0  0
  150.1962  132.9270  155.4592 H   0  0  0  0  0  0  0  0  0  0  0  0
  151.2658  133.9465  154.5217 H   0  0  0  0  0  0  0  0  0  0  0  0
  150.9914  133.9758  157.5754 H   0  0  0  0  0  0  0  0  0  0  0  0
  152.3596  133.3891  156.6524 H   0  0  0  0  0  0  0  0  0  0  0  0
  1  2  1  0  0  0  0
  1 25  1  0  0  0  0
  1 26  1  0  0  0  0
  1 27  1  0  0  0  0
  2  3  1  0  0  0  0
  2 28  1  0  0  0  0
  2 29  1  0  0  0  0
  3  4  1  0  0  0  0
  3  6  1  0  0  0  0
  3 30  1  0  0  0  0
  4  5  1  0  0  0  0
  4 31  1  0  0  0  0
  4 32  1  0  0  0  0
  5 33  1  0  0  0  0
  5 34  1  0  0  0  0
  5 35  1  0  0  0  0
  6 24  1  0  0  0  0
  6  7  1  0  0  0  0
  6 36  1  0  0  0  0
  7  8  1  0  0  0  0
  7 37  1  0  0  0  0
  7 38  1  0  0  0  0
  8  9  1  0  0  0  0
  8 22  1  0  0  0  0
  8 39  1  0  0  0  0
  9 10  1  0  0  0  0
  9 40  1  0  0  0  0
 10 11  2  0  0  0  0
 10 12  1  0  0  0  0
 12 13  1  0  0  0  0
 12 41  1  0  0  0  0
 13 20  1  0  0  0  0
 13 14  2  0  0  0  0
 14 15  1  0  0  0  0
 14 16  1  0  0  0  0
 15 42  1  0  0  0  0
 15 43  1  0  0  0  0
 15 44  1  0  0  0  0
 16 17  2  0  0  0  0
 16 45  1  0  0  0  0
 17 18  1  0  0  0  0
 17 46  1  0  0  0  0
 18 19  1  0  0  0  0
 18 20  1  0  0  0  0
 19 47  1  0  0  0  0
 19 48  1  0  0  0  0
 19 49  1  0  0  0  0
 20 21  2  0  0  0  0
 22 23  1  0  0  0  0
 22 50  1  0  0  0  0
 22 51  1  0  0  0  0
 23 24  1  0  0  0  0
 23 52  1  0  0  0  0
 23 53  1  0  0  0  0
M  END
> <s_m_source_file>
AV-unprocessed.smi

> <i_m_source_file_index>
2273

> <i_lp_mmshare_version>
43012

> <i_f3d_flags>
0

> <s_epik_input>
W0NIM11bQ0gyXVtDSF0oW0NIMl1bQ0gzXSlbQ0BASF0xW0NIMl1bQ0BIXShbQ0gyXVtDSDJdTzEpW05IXUMoPU8pW05IXWMyYyhbQ0gzXSlbY0hdW2NIXW4oW0NIM10pYzI9Tw==

> <s_epik_cmdline>
J2VwaWtfcHl0aG9uJywgJy1waCcsICc3LjAnLCAnLXRuJywgJzgnLCAnLW1hJywgJzIwMCcsICctbWV0YWxfYmluZGluZycsICctaW1hZScsICc8aW5maWxlLm1hZT4nLCAnLW9tYWUnLCAnPG91dGZpbGUubWFlPic=

> <r_lp_tautomer_probability>
1

> <r_epik_Ionization_Penalty>
2.66245e-05

> <r_epik_Ionization_Penalty_Charging>
6.91055e-06

> <r_epik_Ionization_Penalty_Neutral>
1.97139e-05

> <r_epik_State_Penalty>
-0

> <r_epik_Charging_Adjusted_Penalty>
6.91055e-06

> <i_epik_Tot_Q>
0

> <i_epik_Tot_abs_Q>
0

> <r_epik_Metal_State_Penalty>
-0

> <b_epik_Metal_Only>
0

> <s_lp_Force_Field>
OPLS_2005

> <r_lp_Energy>
39.8716

> <b_lp_Chiralities_Consistent>
1

> <s_lp_Variant>
AV-unprocessed.smi:2273-2

> <Gold.Version>
5.8.1

> <Gold.Id.Protein>
6NUR|6NUR_protein|mol2

> <Gold.PLP.Fitness>
44.9159

> <Gold.PLP.PLP>
-39.9051

> <Gold.PLP.part.hbond>
-3.0000

> <Gold.PLP.part.metal>
0.0000

> <Gold.PLP.part.buried>
-5.9955

> <Gold.PLP.part.nonpolar>
-29.6596

> <Gold.PLP.part.repulsive>
0.3695

> <Gold.PLP.ligand.clash>
0.0000

> <Gold.PLP.ligand.torsion>
2.2596

> <Gold.PLP.Chemscore.Hbond>
2.9440

> <Gold.PLP.Chemscore.CHOScore>
0.0000

> <Gold.PLP.Chemscore.Metal>
0.0000

> <Gold.Chemscore.Hbonds>
donor molecule, donor type, donor heavy atom, donor atom, acceptor molecule, acceptor atom, score
      L1  H     9    40       P1  7948  1.00
      L1  H    12    41       P1  7948  0.93
      P1  H 10752 10765       L1    24  1.00

> <Gold.PLP.Chemscore.Internal.Correction>
0.6980

> <Gold.Rescore>
     Score         DG    S(hbond)    S(metal)    S(lipo)     H(rot)  DE(clash)    DE(int)     intcor
     14.74     -21.25       2.56        0.00      92.92       1.42       0.03       6.48       ----

> <Gold.Chemscore.Fitness>
14.7444

> <Gold.Chemscore.DG>
-21.2538

> <Gold.Chemscore.ZeroCoef>
-5.4800

> <Gold.Chemscore.Hbond>
2.5587

> <Gold.Chemscore.Metal>
0.0000

> <Gold.Chemscore.Lipo>
92.9244

> <Gold.Chemscore.Internal_Hbond>
0.0000

> <Gold.Chemscore.DEClash>
0.0299

> <Gold.Chemscore.DEInternal>
6.4794

> <Gold.Chemscore.Rot>
1.4236

> <Gold.Chemscore.Internal.Correction>
   9.000000E+99

> <Gold.Chemscore.Hbonds>
donor molecule, donor type, donor heavy atom, donor atom, acceptor molecule, acceptor atom, score
      L1  H     9    40       P1  7948  0.73
      L1  H    12    41       P1  7948  0.50
      P1  H 10752 10765       L1    24  0.48

> <Gold.Chemscore.Hbond.Weighted>
-8.5461

> <Gold.Chemscore.Metal.Weighted>
-0.0000

> <Gold.Chemscore.Lipo.Weighted>
-10.8722

> <Gold.Chemscore.Internal_Hbond.Weighted>
0.0000

> <Gold.Chemscore.DEClash.Weighted>
0.0299

> <Gold.Chemscore.DEInternal.Weighted>
6.4794

> <Gold.Chemscore.Rot.Weighted>
3.6445

> <Gold.Chemscore.Internal.Correction.Weighted>
   9.000000E+99

> <Gold.Protein.RotatedTorsions>
[ 6907 6896 6895 6894 ] final  -56.06 input  -60.11 | X-H torsion
[ 7974 7965 7964 7962 ] final  176.74 input  175.53 | X-H torsion
[ 8008 7997 7996 7995 ] final -114.61 input   59.86 | X-H torsion
[ 10167 10162 10161 10158 ] final  143.76 input  -65.29 | X-H torsion
[ 10718 10713 10712 10709 ] final   95.75 input   66.30 | X-H torsion
[ 10763 10752 10751 10750 ] final -137.45 input  -60.55 | X-H torsion
[ 11005 11000 10999 10996 ] final  -98.42 input  -57.11 | X-H torsion

> <Gold.Protein.ActiveResidues>
 VAL166  LYS551  ARG553  GLY616  TRP617  ASP618  TYR619  PRO620  LYS621  CYS622 
 ASP623  PHE694  ASN695  SER759  ASP760  ASP761  ALA762  ILE779  LEU786  VAL792 
 PHE793  MET794  SER795  GLU796  ALA797  LYS798  CYS799  TRP800  GLU811  SER814 

> <Gold.Protein.RotatedAtoms>
  150.8199  134.7402  159.6762 H   0  0  0  0  0  0  0  0  0  0  0  0  # atno 6907 bound_to 6896
  152.4316  134.5764  159.9945 H   0  0  0  0  0  0  0  0  0  0  0  0  # atno 6908 bound_to 6896
  151.5951  133.3325  159.3071 H   0  0  0  0  0  0  0  0  0  0  0  0  # atno 6909 bound_to 6896
  144.7179  140.0142  143.6440 H   0  0  0  0  0  0  0  0  0  0  0  0  # atno 7974 bound_to 7965
  155.0391  140.0392  157.2502 H   0  0  0  0  0  0  0  0  0  0  0  0  # atno 8008 bound_to 7997
  154.7232  140.2716  155.6499 H   0  0  0  0  0  0  0  0  0  0  0  0  # atno 8009 bound_to 7997
  156.2822  140.2699  156.1910 H   0  0  0  0  0  0  0  0  0  0  0  0  # atno 8010 bound_to 7997
  139.4962  144.6018  151.6464 H   0  0  0  0  0  0  0  0  0  0  0  0  # atno 10167 bound_to 10162
  157.6935  131.0556  150.4387 H   0  0  0  0  0  0  0  0  0  0  0  0  # atno 10718 bound_to 10713
  154.8661  135.3642  154.5226 H   0  0  0  0  0  0  0  0  0  0  0  0  # atno 10763 bound_to 10752
  153.5855  135.7017  153.5450 H   0  0  0  0  0  0  0  0  0  0  0  0  # atno 10764 bound_to 10752
  153.3419  135.4095  155.1541 H   0  0  0  0  0  0  0  0  0  0  0  0  # atno 10765 bound_to 10752
  141.1345  133.8244  157.0837 H   0  0  0  0  0  0  0  0  0  0  0  0  # atno 11005 bound_to 11000
  146.0233  139.3270  143.0799 LP  0  0  0  0  0  0  0  0  0  0  0  0  # atno 17320 bound_to 7965
  145.8541  140.9512  143.0734 LP  0  0  0  0  0  0  0  0  0  0  0  0  # atno 17321 bound_to 7965
  140.5670  144.0173  150.6197 LP  0  0  0  0  0  0  0  0  0  0  0  0  # atno 17342 bound_to 10162
  140.3278  143.3097  152.0719 LP  0  0  0  0  0  0  0  0  0  0  0  0  # atno 17343 bound_to 10162
  156.4747  130.4060  149.6497 LP  0  0  0  0  0  0  0  0  0  0  0  0  # atno 17370 bound_to 10713
  156.3564  130.7459  151.2425 LP  0  0  0  0  0  0  0  0  0  0  0  0  # atno 17371 bound_to 10713
  140.0435  134.9842  157.1006 LP  0  0  0  0  0  0  0  0  0  0  0  0  # atno 17394 bound_to 11000
  140.4098  134.1993  155.7163 LP  0  0  0  0  0  0  0  0  0  0  0  0  # atno 17395 bound_to 11000

$$$$
