AV-unprocessed.smi:527|AV-procd|sdf|2815|dock1
  -GOLD-   2262023293D 1   1.00000     0.00000
 Structure written by MMmdl.
 42 43  0  0  0  0  0  0  0  0  1 V2000
  151.6500  138.8469  154.8557 C   0  0  0  0  0  0  0  0  0  0  0  0
  150.1712  138.5903  154.5140 C   0  0  2  0  0  0  0  0  0  0  0  0
  149.4561  139.9327  154.2559 C   0  0  0  0  0  0  0  0  0  0  0  0
  147.9768  139.7419  153.8962 C   0  0  0  0  0  0  0  0  0  0  0  0
  147.2452  138.9484  154.9877 C   0  0  0  0  0  0  0  0  0  0  0  0
  147.9260  137.5924  155.2634 C   0  0  1  0  0  0  0  0  0  0  0  0
  147.7509  136.6797  154.1323 N   0  0  0  0  0  0  0  0  0  0  0  0
  146.6954  135.8781  153.9298 C   0  0  0  0  0  0  0  0  0  0  0  0
  145.6367  135.9785  154.5537 O   0  0  0  0  0  0  0  0  0  0  0  0
  146.9574  134.9760  152.9654 N   0  0  0  0  0  0  0  0  0  0  0  0
  146.1795  133.9493  152.5637 C   0  0  0  0  0  0  0  0  0  0  0  0
  145.0822  133.6599  153.0440 O   0  0  0  0  0  0  0  0  0  0  0  0
  146.7425  133.0944  151.4250 C   0  0  0  0  0  0  0  0  0  0  0  0
  145.7729  132.9166  150.3587 N   0  0  0  0  0  0  0  0  0  0  0  0
  144.5075  133.4839  150.2721 C   0  0  0  0  0  0  0  0  0  0  0  0
  143.9516  133.0279  149.0983 C   0  0  0  0  0  0  0  0  0  0  0  0
  144.8513  132.1851  148.4499 N   0  0  0  0  0  0  0  0  0  0  0  0
  145.9065  132.1688  149.2539 C   0  0  0  0  0  0  0  0  0  0  0  0
  149.4279  137.7729  155.6079 C   0  0  1  0  0  0  0  0  0  0  0  0
  150.0989  136.4172  155.9085 C   0  0  0  0  0  0  0  0  0  0  0  0
  151.7532  139.3573  155.8136 H   0  0  0  0  0  0  0  0  0  0  0  0
  152.1237  139.4701  154.0965 H   0  0  0  0  0  0  0  0  0  0  0  0
  152.2216  137.9205  154.9045 H   0  0  0  0  0  0  0  0  0  0  0  0
  150.1490  138.0190  153.5850 H   0  0  0  0  0  0  0  0  0  0  0  0
  149.5328  140.5655  155.1412 H   0  0  0  0  0  0  0  0  0  0  0  0
  149.9552  140.4721  153.4501 H   0  0  0  0  0  0  0  0  0  0  0  0
  147.5000  140.7134  153.7632 H   0  0  0  0  0  0  0  0  0  0  0  0
  147.8933  139.2249  152.9395 H   0  0  0  0  0  0  0  0  0  0  0  0
  147.2318  139.5351  155.9070 H   0  0  0  0  0  0  0  0  0  0  0  0
  146.2008  138.8043  154.7079 H   0  0  0  0  0  0  0  0  0  0  0  0
  147.4400  137.1450  156.1325 H   0  0  0  0  0  0  0  0  0  0  0  0
  148.4939  136.6658  153.4492 H   0  0  0  0  0  0  0  0  0  0  0  0
  147.8322  135.0878  152.4749 H   0  0  0  0  0  0  0  0  0  0  0  0
  147.6386  133.5664  151.0201 H   0  0  0  0  0  0  0  0  0  0  0  0
  147.0352  132.1123  151.7993 H   0  0  0  0  0  0  0  0  0  0  0  0
  144.1169  134.1449  151.0319 H   0  0  0  0  0  0  0  0  0  0  0  0
  142.9812  133.2396  148.6740 H   0  0  0  0  0  0  0  0  0  0  0  0
  146.7963  131.5957  149.0372 H   0  0  0  0  0  0  0  0  0  0  0  0
  149.4700  138.3534  156.5309 H   0  0  0  0  0  0  0  0  0  0  0  0
  150.2240  135.8198  155.0050 H   0  0  0  0  0  0  0  0  0  0  0  0
  149.5041  135.8344  156.6123 H   0  0  0  0  0  0  0  0  0  0  0  0
  151.0822  136.5474  156.3594 H   0  0  0  0  0  0  0  0  0  0  0  0
  1  2  1  0  0  0  0
  1 21  1  0  0  0  0
  1 22  1  0  0  0  0
  1 23  1  0  0  0  0
  2 19  1  0  0  0  0
  2  3  1  0  0  0  0
  2 24  1  0  0  0  0
  3  4  1  0  0  0  0
  3 25  1  0  0  0  0
  3 26  1  0  0  0  0
  4  5  1  0  0  0  0
  4 27  1  0  0  0  0
  4 28  1  0  0  0  0
  5  6  1  0  0  0  0
  5 29  1  0  0  0  0
  5 30  1  0  0  0  0
  6  7  1  0  0  0  0
  6 19  1  0  0  0  0
  6 31  1  0  0  0  0
  7  8  1  0  0  0  0
  7 32  1  0  0  0  0
  8  9  2  0  0  0  0
  8 10  1  0  0  0  0
 10 11  1  0  0  0  0
 10 33  1  0  0  0  0
 11 12  2  0  0  0  0
 11 13  1  0  0  0  0
 13 14  1  0  0  0  0
 13 34  1  0  0  0  0
 13 35  1  0  0  0  0
 14 18  1  0  0  0  0
 14 15  1  0  0  0  0
 15 16  2  0  0  0  0
 15 36  1  0  0  0  0
 16 17  1  0  0  0  0
 16 37  1  0  0  0  0
 17 18  2  0  0  0  0
 18 38  1  0  0  0  0
 19 20  1  0  0  0  0
 19 39  1  0  0  0  0
 20 40  1  0  0  0  0
 20 41  1  0  0  0  0
 20 42  1  0  0  0  0
M  END
> <s_m_source_file>
AV-unprocessed.smi

> <i_m_source_file_index>
527

> <i_lp_mmshare_version>
43012

> <i_f3d_flags>
0

> <s_epik_input>
W0NIM11bQ0BASF0xW0NIMl1bQ0gyXVtDSDJdW0NASF0oW0NASF0xW0NIM10pW05IXUMoPU8pW05IXUMoPU8pW0NIMl1uMltjSF1bY0hdbltjSF0y

> <s_epik_cmdline>
J2VwaWtfcHl0aG9uJywgJy1waCcsICc3LjAnLCAnLXRuJywgJzgnLCAnLW1hJywgJzIwMCcsICctbWV0YWxfYmluZGluZycsICctaW1hZScsICc8aW5maWxlLm1hZT4nLCAnLW9tYWUnLCAnPG91dGZpbGUubWFlPic=

> <r_lp_tautomer_probability>
1

> <r_epik_Ionization_Penalty>
0.172132

> <r_epik_Ionization_Penalty_Charging>
0.172105

> <r_epik_Ionization_Penalty_Neutral>
2.71747e-05

> <r_epik_State_Penalty>
0.161503

> <r_epik_Charging_Adjusted_Penalty>
0.333607

> <i_epik_Tot_Q>
0

> <i_epik_Tot_abs_Q>
0

> <r_epik_Metal_State_Penalty>
0.124763

> <b_epik_Metal_Only>
0

> <s_lp_Force_Field>
OPLS_2005

> <r_lp_Energy>
14.2901

> <b_lp_Chiralities_Consistent>
1

> <s_lp_Variant>
AV-unprocessed.smi:527-1

> <Gold.Version>
5.8.1

> <Gold.Id.Protein>
6NUR|6NUR_protein|mol2

> <Gold.PLP.Fitness>
43.1826

> <Gold.PLP.PLP>
-32.3192

> <Gold.PLP.part.hbond>
-3.9111

> <Gold.PLP.part.metal>
0.0000

> <Gold.PLP.part.buried>
-1.5329

> <Gold.PLP.part.nonpolar>
-26.1431

> <Gold.PLP.part.repulsive>
0.4271

> <Gold.PLP.ligand.clash>
0.0000

> <Gold.PLP.ligand.torsion>
0.5126

> <Gold.PLP.Chemscore.Hbond>
1.9520

> <Gold.PLP.Chemscore.CHOScore>
2.0000

> <Gold.PLP.Chemscore.Metal>
0.0000

> <Gold.Chemscore.Hbonds>
donor molecule, donor type, donor heavy atom, donor atom, acceptor molecule, acceptor atom, score
      L1  H     7    32       P1  7948  0.94
      L1  H    10    33       P1  7948  0.93
      L1  C    16    37       P1 10186  1.00
      L1  C    18    38       P1 10747  0.87

> <Gold.PLP.Chemscore.Internal.Correction>
0.0325

> <Gold.Rescore>
     Score         DG    S(hbond)    S(metal)    S(lipo)     H(rot)  DE(clash)    DE(int)     intcor
     12.61     -15.82       2.25        0.00      60.55       1.66       0.04       3.16       ----

> <Gold.Chemscore.Fitness>
12.6102

> <Gold.Chemscore.DG>
-15.8182

> <Gold.Chemscore.ZeroCoef>
-5.4800

> <Gold.Chemscore.Hbond>
2.2487

> <Gold.Chemscore.Metal>
0.0000

> <Gold.Chemscore.Lipo>
60.5519

> <Gold.Chemscore.Internal_Hbond>
0.0000

> <Gold.Chemscore.DEClash>
0.0432

> <Gold.Chemscore.DEInternal>
3.1648

> <Gold.Chemscore.Rot>
1.6629

> <Gold.Chemscore.Internal.Correction>
   9.000000E+99

> <Gold.Chemscore.Hbonds>
donor molecule, donor type, donor heavy atom, donor atom, acceptor molecule, acceptor atom, score
      L1  H     7    32       P1  7948  0.91
      L1  H    10    33       P1  7948  0.86

> <Gold.Chemscore.Hbond.Weighted>
-7.5106

> <Gold.Chemscore.Metal.Weighted>
-0.0000

> <Gold.Chemscore.Lipo.Weighted>
-7.0846

> <Gold.Chemscore.Internal_Hbond.Weighted>
0.0000

> <Gold.Chemscore.DEClash.Weighted>
0.0432

> <Gold.Chemscore.DEInternal.Weighted>
3.1648

> <Gold.Chemscore.Rot.Weighted>
4.2569

> <Gold.Chemscore.Internal.Correction.Weighted>
   9.000000E+99

> <Gold.Protein.RotatedTorsions>
[ 6907 6896 6895 6894 ] final -166.80 input  -60.11 | X-H torsion
[ 7974 7965 7964 7962 ] final  -80.30 input  175.53 | X-H torsion
[ 8008 7997 7996 7995 ] final  157.03 input   59.86 | X-H torsion
[ 10167 10162 10161 10158 ] final  -47.69 input  -65.29 | X-H torsion
[ 10718 10713 10712 10709 ] final    1.12 input   66.30 | X-H torsion
[ 10763 10752 10751 10750 ] final   -7.87 input  -60.55 | X-H torsion
[ 11005 11000 10999 10996 ] final -170.72 input  -57.11 | X-H torsion

> <Gold.Protein.ActiveResidues>
 VAL166  LYS551  ARG553  GLY616  TRP617  ASP618  TYR619  PRO620  LYS621  CYS622 
 ASP623  PHE694  ASN695  SER759  ASP760  ASP761  ALA762  ILE779  LEU786  VAL792 
 PHE793  MET794  SER795  GLU796  ALA797  LYS798  CYS799  TRP800  GLU811  SER814 

> <Gold.Protein.RotatedAtoms>
  151.4494  133.3621  159.2792 H   0  0  0  0  0  0  0  0  0  0  0  0  # atno 6907 bound_to 6896
  150.9102  134.8520  159.7430 H   0  0  0  0  0  0  0  0  0  0  0  0  # atno 6908 bound_to 6896
  152.4928  134.4423  159.9599 H   0  0  0  0  0  0  0  0  0  0  0  0  # atno 6909 bound_to 6896
  145.5618  140.9481  143.1443 H   0  0  0  0  0  0  0  0  0  0  0  0  # atno 7974 bound_to 7965
  156.2388  140.1896  156.7047 H   0  0  0  0  0  0  0  0  0  0  0  0  # atno 8008 bound_to 7997
  154.6156  140.0615  156.9577 H   0  0  0  0  0  0  0  0  0  0  0  0  # atno 8009 bound_to 7997
  155.1944  140.3287  155.4356 H   0  0  0  0  0  0  0  0  0  0  0  0  # atno 8010 bound_to 7997
  140.6764  143.2773  151.3963 H   0  0  0  0  0  0  0  0  0  0  0  0  # atno 10167 bound_to 10162
  156.8434  130.5529  149.5675 H   0  0  0  0  0  0  0  0  0  0  0  0  # atno 10718 bound_to 10713
  153.4324  135.7012  153.6222 H   0  0  0  0  0  0  0  0  0  0  0  0  # atno 10763 bound_to 10752
  153.4631  135.3732  155.2349 H   0  0  0  0  0  0  0  0  0  0  0  0  # atno 10764 bound_to 10752
  154.8726  135.4024  154.3710 H   0  0  0  0  0  0  0  0  0  0  0  0  # atno 10765 bound_to 10752
  140.5163  134.5752  157.5034 H   0  0  0  0  0  0  0  0  0  0  0  0  # atno 11005 bound_to 11000
  144.7479  139.7271  143.7285 LP  0  0  0  0  0  0  0  0  0  0  0  0  # atno 17320 bound_to 7965
  146.1846  139.5054  142.9844 LP  0  0  0  0  0  0  0  0  0  0  0  0  # atno 17321 bound_to 7965
  139.6059  144.1199  152.2248 LP  0  0  0  0  0  0  0  0  0  0  0  0  # atno 17342 bound_to 10162
  140.0598  144.5866  150.7272 LP  0  0  0  0  0  0  0  0  0  0  0  0  # atno 17343 bound_to 10162
  156.0868  130.5864  150.9662 LP  0  0  0  0  0  0  0  0  0  0  0  0  # atno 17370 bound_to 10713
  157.6343  131.0918  150.8380 LP  0  0  0  0  0  0  0  0  0  0  0  0  # atno 17371 bound_to 10713
  139.9630  134.7420  156.0196 LP  0  0  0  0  0  0  0  0  0  0  0  0  # atno 17394 bound_to 11000
  141.1358  133.6575  156.3590 LP  0  0  0  0  0  0  0  0  0  0  0  0  # atno 17395 bound_to 11000

$$$$
