AV-unprocessed.smi:3158|AV-procd|sdf|12048|dock6
  -GOLD-   2272017473D 1   1.00000     0.00000
 Structure written by MMmdl.
 39 39  0  0  0  0  0  0  0  0  1 V2000
  151.3244  140.6019  155.6212 C   0  0  0  0  0  0  0  0  0  0  0  0
  150.0456  140.2907  154.8302 C   0  0  0  0  0  0  0  0  0  0  0  0
  150.1602  139.0560  153.9147 C   0  0  1  0  0  0  0  0  0  0  0  0
  150.3416  137.7646  154.7242 C   0  0  0  0  0  0  0  0  0  0  0  0
  148.9750  138.9237  153.0697 N   0  0  0  0  0  0  0  0  0  0  0  0
  147.7169  138.7305  153.4978 C   0  0  0  0  0  0  0  0  0  0  0  0
  147.4120  138.6293  154.6866 O   0  0  0  0  0  0  0  0  0  0  0  0
  146.6282  138.6708  152.4131 C   0  0  1  0  0  0  0  0  0  0  0  0
  146.7616  139.8523  151.4382 C   0  0  0  0  0  0  0  0  0  0  0  0
  146.6245  137.4024  151.6620 N   0  0  0  0  0  0  0  0  0  0  0  0
  145.6076  136.4505  152.0956 C   0  0  0  0  0  0  0  0  0  0  0  0
  144.9525  135.8074  150.8656 C   0  0  0  0  0  0  0  0  0  0  0  0
  144.9499  134.3607  150.9615 N   0  0  0  0  0  0  0  0  0  0  0  0
  143.8722  133.5012  150.9239 C   0  0  0  0  0  0  0  0  0  0  0  0
  144.3613  132.2319  151.0435 C   0  0  0  0  0  0  0  0  0  0  0  0
  145.7678  132.4201  151.1497 C   0  0  0  0  0  0  0  0  0  0  0  0
  146.1171  133.6953  151.0991 N   0  0  0  0  0  0  0  0  0  0  0  0
  151.1660  141.4427  156.2968 H   0  0  0  0  0  0  0  0  0  0  0  0
  152.1514  140.8637  154.9610 H   0  0  0  0  0  0  0  0  0  0  0  0
  151.6328  139.7459  156.2221 H   0  0  0  0  0  0  0  0  0  0  0  0
  149.2325  140.1325  155.5396 H   0  0  0  0  0  0  0  0  0  0  0  0
  149.7656  141.1644  154.2403 H   0  0  0  0  0  0  0  0  0  0  0  0
  151.0509  139.1742  153.2951 H   0  0  0  0  0  0  0  0  0  0  0  0
  151.2356  137.8141  155.3464 H   0  0  0  0  0  0  0  0  0  0  0  0
  150.4470  136.9009  154.0665 H   0  0  0  0  0  0  0  0  0  0  0  0
  149.4894  137.5824  155.3797 H   0  0  0  0  0  0  0  0  0  0  0  0
  149.1213  139.0008  152.0736 H   0  0  0  0  0  0  0  0  0  0  0  0
  145.6582  138.7684  152.9045 H   0  0  0  0  0  0  0  0  0  0  0  0
  146.7452  140.8059  151.9674 H   0  0  0  0  0  0  0  0  0  0  0  0
  145.9375  139.8631  150.7242 H   0  0  0  0  0  0  0  0  0  0  0  0
  147.6903  139.8037  150.8678 H   0  0  0  0  0  0  0  0  0  0  0  0
  147.5338  136.9626  151.6699 H   0  0  0  0  0  0  0  0  0  0  0  0
  146.0485  135.6714  152.7185 H   0  0  0  0  0  0  0  0  0  0  0  0
  144.8548  136.9652  152.6946 H   0  0  0  0  0  0  0  0  0  0  0  0
  143.9232  136.1518  150.7521 H   0  0  0  0  0  0  0  0  0  0  0  0
  145.4848  136.0920  149.9568 H   0  0  0  0  0  0  0  0  0  0  0  0
  142.8594  133.8603  150.8146 H   0  0  0  0  0  0  0  0  0  0  0  0
  143.8001  131.3095  151.0531 H   0  0  0  0  0  0  0  0  0  0  0  0
  146.5400  131.6732  151.2610 H   0  0  0  0  0  0  0  0  0  0  0  0
  1  2  1  0  0  0  0
  1 18  1  0  0  0  0
  1 19  1  0  0  0  0
  1 20  1  0  0  0  0
  2  3  1  0  0  0  0
  2 21  1  0  0  0  0
  2 22  1  0  0  0  0
  3  4  1  0  0  0  0
  3  5  1  0  0  0  0
  3 23  1  0  0  0  0
  4 24  1  0  0  0  0
  4 25  1  0  0  0  0
  4 26  1  0  0  0  0
  5  6  1  0  0  0  0
  5 27  1  0  0  0  0
  6  7  2  0  0  0  0
  6  8  1  0  0  0  0
  8  9  1  0  0  0  0
  8 10  1  0  0  0  0
  8 28  1  0  0  0  0
  9 29  1  0  0  0  0
  9 30  1  0  0  0  0
  9 31  1  0  0  0  0
 10 11  1  0  0  0  0
 10 32  1  0  0  0  0
 11 12  1  0  0  0  0
 11 33  1  0  0  0  0
 11 34  1  0  0  0  0
 12 13  1  0  0  0  0
 12 35  1  0  0  0  0
 12 36  1  0  0  0  0
 13 17  1  0  0  0  0
 13 14  1  0  0  0  0
 14 15  2  0  0  0  0
 14 37  1  0  0  0  0
 15 16  1  0  0  0  0
 15 38  1  0  0  0  0
 16 17  2  0  0  0  0
 16 39  1  0  0  0  0
M  END
> <s_m_source_file>
AV-unprocessed.smi

> <i_m_source_file_index>
3158

> <i_lp_mmshare_version>
43012

> <i_f3d_flags>
0

> <s_epik_input>
W0NIM11bQ0gyXVtDQEhdKFtDSDNdKVtOSF1DKD1PKVtDQEhdKFtDSDNdKVtOSF1bQ0gyXVtDSDJdbjFbY0hdW2NIXVtjSF1uMQ==

> <s_epik_cmdline>
J2VwaWtfcHl0aG9uJywgJy1waCcsICc3LjAnLCAnLXRuJywgJzgnLCAnLW1hJywgJzIwMCcsICctbWV0YWxfYmluZGluZycsICctaW1hZScsICc8aW5maWxlLm1hZT4nLCAnLW9tYWUnLCAnPG91dGZpbGUubWFlPic=

> <r_lp_tautomer_probability>
1

> <r_epik_Ionization_Penalty>
0.724013

> <r_epik_Ionization_Penalty_Charging>
0

> <r_epik_Ionization_Penalty_Neutral>
0.724013

> <r_epik_State_Penalty>
0.74758

> <r_epik_Charging_Adjusted_Penalty>
0.74758

> <i_epik_Tot_Q>
0

> <i_epik_Tot_abs_Q>
0

> <r_epik_Metal_State_Penalty>
0.746846

> <b_epik_Metal_Only>
0

> <s_lp_Force_Field>
OPLS_2005

> <r_lp_Energy>
5.19136

> <b_lp_Chiralities_Consistent>
1

> <s_lp_Variant>
AV-unprocessed.smi:3158-8

> <Gold.Version>
5.8.1

> <Gold.Id.Protein>
6NUR|6NUR_protein|mol2

> <Gold.PLP.Fitness>
43.6052

> <Gold.PLP.PLP>
-34.8935

> <Gold.PLP.part.hbond>
-2.6340

> <Gold.PLP.part.metal>
0.0000

> <Gold.PLP.part.buried>
-1.6870

> <Gold.PLP.part.nonpolar>
-32.2709

> <Gold.PLP.part.repulsive>
0.3882

> <Gold.PLP.ligand.clash>
0.0000

> <Gold.PLP.ligand.torsion>
1.5672

> <Gold.PLP.Chemscore.Hbond>
1.9040

> <Gold.PLP.Chemscore.CHOScore>
2.0000

> <Gold.PLP.Chemscore.Metal>
0.0000

> <Gold.Chemscore.Hbonds>
donor molecule, donor type, donor heavy atom, donor atom, acceptor molecule, acceptor atom, score
      L1  H     5    27       P1  7957  0.60
      L1  H    10    32       P1  7948  1.00
      L1  C    14    37       P1 10186  1.00
      L1  C    16    39       P1 10747  0.45

> <Gold.PLP.Chemscore.Internal.Correction>
0.1341

> <Gold.Rescore>
     Score         DG    S(hbond)    S(metal)    S(lipo)     H(rot)  DE(clash)    DE(int)     intcor
     13.31     -16.40       1.91        0.00      85.27       2.12       0.85       2.24       ----

> <Gold.Chemscore.Fitness>
13.3097

> <Gold.Chemscore.DG>
-16.4031

> <Gold.Chemscore.ZeroCoef>
-5.4800

> <Gold.Chemscore.Hbond>
1.9108

> <Gold.Chemscore.Metal>
0.0000

> <Gold.Chemscore.Lipo>
85.2714

> <Gold.Chemscore.Internal_Hbond>
0.0000

> <Gold.Chemscore.DEClash>
0.8535

> <Gold.Chemscore.DEInternal>
2.2399

> <Gold.Chemscore.Rot>
2.1234

> <Gold.Chemscore.Internal.Correction>
   9.000000E+99

> <Gold.Chemscore.Hbonds>
donor molecule, donor type, donor heavy atom, donor atom, acceptor molecule, acceptor atom, score
      L1  H     5    27       P1  7957  0.51
      L1  H    10    32       P1  7948  0.97

> <Gold.Chemscore.Hbond.Weighted>
-6.3822

> <Gold.Chemscore.Metal.Weighted>
-0.0000

> <Gold.Chemscore.Lipo.Weighted>
-9.9768

> <Gold.Chemscore.Internal_Hbond.Weighted>
0.0000

> <Gold.Chemscore.DEClash.Weighted>
0.8535

> <Gold.Chemscore.DEInternal.Weighted>
2.2399

> <Gold.Chemscore.Rot.Weighted>
5.4359

> <Gold.Chemscore.Internal.Correction.Weighted>
   9.000000E+99

> <Gold.Protein.RotatedTorsions>
[ 6907 6896 6895 6894 ] final   15.82 input  -60.11 | X-H torsion
[ 7974 7965 7964 7962 ] final   24.60 input  175.53 | X-H torsion
[ 8008 7997 7996 7995 ] final  -30.98 input   59.86 | X-H torsion
[ 10167 10162 10161 10158 ] final  -76.97 input  -65.29 | X-H torsion
[ 10718 10713 10712 10709 ] final  -33.98 input   66.30 | X-H torsion
[ 10763 10752 10751 10750 ] final   84.38 input  -60.55 | X-H torsion
[ 11005 11000 10999 10996 ] final  -51.33 input  -57.11 | X-H torsion

> <Gold.Protein.ActiveResidues>
 VAL166  LYS551  ARG553  GLY616  TRP617  ASP618  TYR619  PRO620  LYS621  CYS622 
 ASP623  PHE694  ASN695  SER759  ASP760  ASP761  ALA762  ILE779  LEU786  VAL792 
 PHE793  MET794  SER795  GLU796  ALA797  LYS798  CYS799  TRP800  GLU811  SER814 

> <Gold.Protein.RotatedAtoms>
  151.8241  135.0642  160.0428 H   0  0  0  0  0  0  0  0  0  0  0  0  # atno 6907 bound_to 6896
  152.2929  133.5575  159.5577 H   0  0  0  0  0  0  0  0  0  0  0  0  # atno 6908 bound_to 6896
  150.7238  134.0318  159.3778 H   0  0  0  0  0  0  0  0  0  0  0  0  # atno 6909 bound_to 6896
  146.1929  139.7582  142.8818 H   0  0  0  0  0  0  0  0  0  0  0  0  # atno 7974 bound_to 7965
  154.4230  140.1776  156.1494 H   0  0  0  0  0  0  0  0  0  0  0  0  # atno 8008 bound_to 7997
  155.9928  140.3367  155.6744 H   0  0  0  0  0  0  0  0  0  0  0  0  # atno 8009 bound_to 7997
  155.6350  140.0674  157.2627 H   0  0  0  0  0  0  0  0  0  0  0  0  # atno 8010 bound_to 7997
  140.4811  143.2402  151.8057 H   0  0  0  0  0  0  0  0  0  0  0  0  # atno 10167 bound_to 10162
  156.3561  130.4316  149.7663 H   0  0  0  0  0  0  0  0  0  0  0  0  # atno 10718 bound_to 10713
  153.1377  135.4656  154.9447 H   0  0  0  0  0  0  0  0  0  0  0  0  # atno 10763 bound_to 10752
  154.7720  135.3161  154.8173 H   0  0  0  0  0  0  0  0  0  0  0  0  # atno 10764 bound_to 10752
  153.8702  135.6904  153.4829 H   0  0  0  0  0  0  0  0  0  0  0  0  # atno 10765 bound_to 10752
  141.0865  133.6641  156.3861 H   0  0  0  0  0  0  0  0  0  0  0  0  # atno 11005 bound_to 11000
  145.3734  141.0346  143.3218 LP  0  0  0  0  0  0  0  0  0  0  0  0  # atno 17320 bound_to 7965
  144.8523  139.5303  143.6851 LP  0  0  0  0  0  0  0  0  0  0  0  0  # atno 17321 bound_to 7965
  139.4833  144.4772  151.9352 LP  0  0  0  0  0  0  0  0  0  0  0  0  # atno 17342 bound_to 10162
  140.3857  144.2679  150.5904 LP  0  0  0  0  0  0  0  0  0  0  0  0  # atno 17343 bound_to 10162
  156.4845  130.8056  151.3069 LP  0  0  0  0  0  0  0  0  0  0  0  0  # atno 17370 bound_to 10713
  157.7467  130.9995  150.2892 LP  0  0  0  0  0  0  0  0  0  0  0  0  # atno 17371 bound_to 10713
  140.5351  134.6175  157.5362 LP  0  0  0  0  0  0  0  0  0  0  0  0  # atno 17394 bound_to 11000
  139.9684  134.7334  156.0091 LP  0  0  0  0  0  0  0  0  0  0  0  0  # atno 17395 bound_to 11000

$$$$
