AV-unprocessed.smi:2215|AV-procd|sdf|8960|dock5
  -GOLD-   2272012183D 1   1.00000     0.00000
 Structure written by MMmdl.
 40 41  0  0  0  0  0  0  0  0  1 V2000
  150.9925  142.2766  156.6889 C   0  0  0  0  0  0  0  0  0  0  0  0
  150.2767  141.2625  155.8215 C   0  0  0  0  0  0  0  0  0  0  0  0
  150.9430  140.1252  155.3273 C   0  0  0  0  0  0  0  0  0  0  0  0
  150.2286  139.2161  154.5234 C   0  0  0  0  0  0  0  0  0  0  0  0
  148.8685  139.4649  154.2318 C   0  0  0  0  0  0  0  0  0  0  0  0
  148.2433  138.4913  153.4079 N   0  0  0  0  0  0  0  0  0  0  0  0
  146.9286  138.2672  153.2356 C   0  0  0  0  0  0  0  0  0  0  0  0
  146.0205  138.8801  153.7978 O   0  0  0  0  0  0  0  0  0  0  0  0
  146.7175  137.2739  152.3601 N   0  0  0  0  0  0  0  0  0  0  0  0
  145.4054  136.7865  151.9453 C   0  0  0  0  0  0  0  0  0  0  0  0
  145.4674  135.4030  151.2536 C   0  0  2  0  0  0  0  0  0  0  0  0
  144.1216  135.0448  150.5798 C   0  0  0  0  0  0  0  0  0  0  0  0
  144.1555  133.6587  149.9178 C   0  0  0  0  0  0  0  0  0  0  0  0
  144.5485  132.5725  150.9277 C   0  0  0  0  0  0  0  0  0  0  0  0
  145.8983  132.8999  151.5802 C   0  0  0  0  0  0  0  0  0  0  0  0
  145.8788  134.2879  152.2470 C   0  0  1  0  0  0  0  0  0  0  0  0
  147.1720  134.5396  152.7596 O   0  0  0  0  0  0  0  0  0  0  0  0
  148.2345  140.5622  154.7152 N   0  0  0  0  0  0  0  0  0  0  0  0
  148.9195  141.4324  155.4863 C   0  0  0  0  0  0  0  0  0  0  0  0
  152.0645  142.0803  156.7239 H   0  0  0  0  0  0  0  0  0  0  0  0
  150.6047  142.2433  157.7072 H   0  0  0  0  0  0  0  0  0  0  0  0
  150.8440  143.2831  156.2970 H   0  0  0  0  0  0  0  0  0  0  0  0
  151.9835  139.9486  155.5571 H   0  0  0  0  0  0  0  0  0  0  0  0
  150.7253  138.3388  154.1351 H   0  0  0  0  0  0  0  0  0  0  0  0
  148.8709  137.9048  152.8785 H   0  0  0  0  0  0  0  0  0  0  0  0
  147.5206  136.8243  151.9455 H   0  0  0  0  0  0  0  0  0  0  0  0
  144.7486  136.7567  152.8162 H   0  0  0  0  0  0  0  0  0  0  0  0
  144.9734  137.5216  151.2658 H   0  0  0  0  0  0  0  0  0  0  0  0
  146.2266  135.4466  150.4707 H   0  0  0  0  0  0  0  0  0  0  0  0
  143.3216  135.0710  151.3210 H   0  0  0  0  0  0  0  0  0  0  0  0
  143.8644  135.7875  149.8240 H   0  0  0  0  0  0  0  0  0  0  0  0
  143.1808  133.4296  149.4864 H   0  0  0  0  0  0  0  0  0  0  0  0
  144.8662  133.6654  149.0904 H   0  0  0  0  0  0  0  0  0  0  0  0
  143.7790  132.4879  151.6962 H   0  0  0  0  0  0  0  0  0  0  0  0
  144.5997  131.6026  150.4318 H   0  0  0  0  0  0  0  0  0  0  0  0
  146.1446  132.1341  152.3169 H   0  0  0  0  0  0  0  0  0  0  0  0
  146.6820  132.8634  150.8220 H   0  0  0  0  0  0  0  0  0  0  0  0
  145.1814  134.2714  153.0856 H   0  0  0  0  0  0  0  0  0  0  0  0
  147.5625  135.2394  152.2586 H   0  0  0  0  0  0  0  0  0  0  0  0
  148.3675  142.2893  155.8442 H   0  0  0  0  0  0  0  0  0  0  0  0
  1  2  1  0  0  0  0
  1 20  1  0  0  0  0
  1 21  1  0  0  0  0
  1 22  1  0  0  0  0
  2 19  1  0  0  0  0
  2  3  2  0  0  0  0
  3  4  1  0  0  0  0
  3 23  1  0  0  0  0
  4  5  2  0  0  0  0
  4 24  1  0  0  0  0
  5  6  1  0  0  0  0
  5 18  1  0  0  0  0
  6  7  1  0  0  0  0
  6 25  1  0  0  0  0
  7  8  2  0  0  0  0
  7  9  1  0  0  0  0
  9 10  1  0  0  0  0
  9 26  1  0  0  0  0
 10 11  1  0  0  0  0
 10 27  1  0  0  0  0
 10 28  1  0  0  0  0
 11 16  1  0  0  0  0
 11 12  1  0  0  0  0
 11 29  1  0  0  0  0
 12 13  1  0  0  0  0
 12 30  1  0  0  0  0
 12 31  1  0  0  0  0
 13 14  1  0  0  0  0
 13 32  1  0  0  0  0
 13 33  1  0  0  0  0
 14 15  1  0  0  0  0
 14 34  1  0  0  0  0
 14 35  1  0  0  0  0
 15 16  1  0  0  0  0
 15 36  1  0  0  0  0
 15 37  1  0  0  0  0
 16 17  1  0  0  0  0
 16 38  1  0  0  0  0
 17 39  1  0  0  0  0
 18 19  2  0  0  0  0
 19 40  1  0  0  0  0
M  END
> <s_m_source_file>
AV-unprocessed.smi

> <i_m_source_file_index>
2215

> <i_lp_mmshare_version>
43012

> <i_f3d_flags>
0

> <s_epik_input>
W0NIM11jMVtjSF1bY0hdYyhuW2NIXTEpW05IXUMoPU8pW05IXVtDSDJdW0NAQEhdMltDSDJdW0NIMl1bQ0gyXVtDSDJdW0NASF0yW09IXQ==

> <s_epik_cmdline>
J2VwaWtfcHl0aG9uJywgJy1waCcsICc3LjAnLCAnLXRuJywgJzgnLCAnLW1hJywgJzIwMCcsICctbWV0YWxfYmluZGluZycsICctaW1hZScsICc8aW5maWxlLm1hZT4nLCAnLW9tYWUnLCAnPG91dGZpbGUubWFlPic=

> <r_lp_tautomer_probability>
1

> <r_epik_Ionization_Penalty>
6.08491e-05

> <r_epik_Ionization_Penalty_Charging>
0

> <r_epik_Ionization_Penalty_Neutral>
6.08491e-05

> <r_epik_State_Penalty>
-0

> <r_epik_Charging_Adjusted_Penalty>
0

> <i_epik_Tot_Q>
0

> <i_epik_Tot_abs_Q>
0

> <r_epik_Metal_State_Penalty>
-0

> <b_epik_Metal_Only>
0

> <s_lp_Force_Field>
OPLS_2005

> <r_lp_Energy>
13.8041

> <b_lp_Chiralities_Consistent>
1

> <s_lp_Variant>
AV-unprocessed.smi:2215-1

> <Gold.Version>
5.8.1

> <Gold.Id.Protein>
6NUR|6NUR_protein|mol2

> <Gold.PLP.Fitness>
45.4094

> <Gold.PLP.PLP>
-34.2908

> <Gold.PLP.part.hbond>
-3.8377

> <Gold.PLP.part.metal>
0.0000

> <Gold.PLP.part.buried>
-2.6276

> <Gold.PLP.part.nonpolar>
-30.2325

> <Gold.PLP.part.repulsive>
0.3563

> <Gold.PLP.ligand.clash>
0.0000

> <Gold.PLP.ligand.torsion>
0.2257

> <Gold.PLP.Chemscore.Hbond>
2.8550

> <Gold.PLP.Chemscore.CHOScore>
1.0000

> <Gold.PLP.Chemscore.Metal>
0.0000

> <Gold.Chemscore.Hbonds>
donor molecule, donor type, donor heavy atom, donor atom, acceptor molecule, acceptor atom, score
      L1  H     6    25       P1  7948  0.88
      L1  H     9    26       P1  7948  1.00
      L1  H    17    39       P1  7948  1.00
      L1  C    19    40       P1  8028  1.00

> <Gold.PLP.Chemscore.Internal.Correction>
0.0049

> <Gold.Rescore>
     Score         DG    S(hbond)    S(metal)    S(lipo)     H(rot)  DE(clash)    DE(int)     intcor
     16.90     -19.81       2.85        0.00      78.99       1.73       0.10       2.81       ----

> <Gold.Chemscore.Fitness>
16.8977

> <Gold.Chemscore.DG>
-19.8086

> <Gold.Chemscore.ZeroCoef>
-5.4800

> <Gold.Chemscore.Hbond>
2.8518

> <Gold.Chemscore.Metal>
0.0000

> <Gold.Chemscore.Lipo>
78.9947

> <Gold.Chemscore.Internal_Hbond>
0.0000

> <Gold.Chemscore.DEClash>
0.1031

> <Gold.Chemscore.DEInternal>
2.8079

> <Gold.Chemscore.Rot>
1.7339

> <Gold.Chemscore.Internal.Correction>
   9.000000E+99

> <Gold.Chemscore.Hbonds>
donor molecule, donor type, donor heavy atom, donor atom, acceptor molecule, acceptor atom, score
      L1  H     6    25       P1  7948  0.86
      L1  H     9    26       P1  7948  0.93
      L1  H    17    39       P1  7948  0.94

> <Gold.Chemscore.Hbond.Weighted>
-9.5249

> <Gold.Chemscore.Metal.Weighted>
-0.0000

> <Gold.Chemscore.Lipo.Weighted>
-9.2424

> <Gold.Chemscore.Internal_Hbond.Weighted>
0.0000

> <Gold.Chemscore.DEClash.Weighted>
0.1031

> <Gold.Chemscore.DEInternal.Weighted>
2.8079

> <Gold.Chemscore.Rot.Weighted>
4.4387

> <Gold.Chemscore.Internal.Correction.Weighted>
   9.000000E+99

> <Gold.Protein.RotatedTorsions>
[ 6907 6896 6895 6894 ] final -168.04 input  -60.11 | X-H torsion
[ 7974 7965 7964 7962 ] final   50.73 input  175.53 | X-H torsion
[ 8008 7997 7996 7995 ] final  174.70 input   59.86 | X-H torsion
[ 10167 10162 10161 10158 ] final   22.90 input  -65.29 | X-H torsion
[ 10718 10713 10712 10709 ] final -101.12 input   66.30 | X-H torsion
[ 10763 10752 10751 10750 ] final  155.42 input  -60.55 | X-H torsion
[ 11005 11000 10999 10996 ] final   51.45 input  -57.11 | X-H torsion

> <Gold.Protein.ActiveResidues>
 VAL166  LYS551  ARG553  GLY616  TRP617  ASP618  TYR619  PRO620  LYS621  CYS622 
 ASP623  PHE694  ASN695  SER759  ASP760  ASP761  ALA762  ILE779  LEU786  VAL792 
 PHE793  MET794  SER795  GLU796  ALA797  LYS798  CYS799  TRP800  GLU811  SER814 

> <Gold.Protein.RotatedAtoms>
  151.4692  133.3573  159.2820 H   0  0  0  0  0  0  0  0  0  0  0  0  # atno 6907 bound_to 6896
  150.8973  134.8384  159.7346 H   0  0  0  0  0  0  0  0  0  0  0  0  # atno 6908 bound_to 6896
  152.4858  134.4608  159.9656 H   0  0  0  0  0  0  0  0  0  0  0  0  # atno 6909 bound_to 6896
  145.9983  139.4412  143.0031 H   0  0  0  0  0  0  0  0  0  0  0  0  # atno 7974 bound_to 7965
  156.0947  140.1428  156.9546 H   0  0  0  0  0  0  0  0  0  0  0  0  # atno 8008 bound_to 7997
  154.4664  140.0925  156.7077 H   0  0  0  0  0  0  0  0  0  0  0  0  # atno 8009 bound_to 7997
  155.4860  140.3446  155.4349 H   0  0  0  0  0  0  0  0  0  0  0  0  # atno 8010 bound_to 7997
  140.5312  143.9838  150.6466 H   0  0  0  0  0  0  0  0  0  0  0  0  # atno 10167 bound_to 10162
  156.0184  130.5359  150.6917 H   0  0  0  0  0  0  0  0  0  0  0  0  # atno 10718 bound_to 10713
  154.1681  135.2806  155.3089 H   0  0  0  0  0  0  0  0  0  0  0  0  # atno 10763 bound_to 10752
  154.6096  135.5503  153.7462 H   0  0  0  0  0  0  0  0  0  0  0  0  # atno 10764 bound_to 10752
  153.0172  135.6412  154.1822 H   0  0  0  0  0  0  0  0  0  0  0  0  # atno 10765 bound_to 10752
  140.0932  134.5181  155.8832 H   0  0  0  0  0  0  0  0  0  0  0  0  # atno 11005 bound_to 11000
  145.7526  140.9966  143.1242 LP  0  0  0  0  0  0  0  0  0  0  0  0  # atno 17320 bound_to 7965
  144.6911  139.9233  143.7469 LP  0  0  0  0  0  0  0  0  0  0  0  0  # atno 17321 bound_to 7965
  140.3214  143.3135  152.0780 LP  0  0  0  0  0  0  0  0  0  0  0  0  # atno 17342 bound_to 10162
  139.4955  144.6571  151.6547 LP  0  0  0  0  0  0  0  0  0  0  0  0  # atno 17343 bound_to 10162
  157.4597  131.0882  151.0758 LP  0  0  0  0  0  0  0  0  0  0  0  0  # atno 17370 bound_to 10713
  157.1250  130.6078  149.5514 LP  0  0  0  0  0  0  0  0  0  0  0  0  # atno 17371 bound_to 10713
  141.2084  133.6673  156.6369 LP  0  0  0  0  0  0  0  0  0  0  0  0  # atno 17394 bound_to 11000
  140.3323  134.7918  157.4336 LP  0  0  0  0  0  0  0  0  0  0  0  0  # atno 17395 bound_to 11000

$$$$
