AV-unprocessed.smi:1764|AV-procd|sdf|7133|dock8
  -GOLD-   22720 8373D 1   1.00000     0.00000
 Structure written by MMmdl.
 31 32  0  0  0  0  0  0  0  0  1 V2000
  144.5802  136.8705  152.3157 O   0  0  0  0  0  0  0  0  0  0  0  0
  145.7840  136.6679  152.1542 C   0  0  0  0  0  0  0  0  0  0  0  0
  146.7350  137.5510  152.4915 N   0  0  0  0  0  0  0  0  0  0  0  0
  146.4986  138.8637  153.0841 C   0  0  0  0  0  0  0  0  0  0  0  0
  147.7960  139.6828  153.1909 C   0  0  1  0  0  0  0  0  0  0  0  0
  147.6605  141.0254  153.9103 C   0  0  0  0  0  0  0  0  0  0  0  0
  149.0789  141.2638  154.3733 C   0  0  0  0  0  0  0  0  0  0  0  0
  149.5204  139.8560  154.7632 C   0  0  0  0  0  0  0  0  0  0  0  0
  148.7711  138.9638  153.9411 O   0  0  0  0  0  0  0  0  0  0  0  0
  146.3207  135.5570  151.6193 N   0  0  0  0  0  0  0  0  0  0  0  0
  145.6510  134.3931  151.1560 C   0  0  0  0  0  0  0  0  0  0  0  0
  146.4973  133.3591  150.6956 C   0  0  0  0  0  0  0  0  0  0  0  0
  145.9312  132.1611  150.2183 C   0  0  0  0  0  0  0  0  0  0  0  0
  144.5315  132.0272  150.2146 C   0  0  0  0  0  0  0  0  0  0  0  0
  143.7611  133.1042  150.6901 C   0  0  0  0  0  0  0  0  0  0  0  0
  144.3015  134.2535  151.1473 N   0  0  0  0  0  0  0  0  0  0  0  0
  147.6978  137.3002  152.3208 H   0  0  0  0  0  0  0  0  0  0  0  0
  145.7405  139.4182  152.5281 H   0  0  0  0  0  0  0  0  0  0  0  0
  146.0872  138.7066  154.0813 H   0  0  0  0  0  0  0  0  0  0  0  0
  148.2123  139.8508  152.1962 H   0  0  0  0  0  0  0  0  0  0  0  0
  147.2807  141.8195  153.2667 H   0  0  0  0  0  0  0  0  0  0  0  0
  146.9978  140.9359  154.7724 H   0  0  0  0  0  0  0  0  0  0  0  0
  149.6850  141.6333  153.5450 H   0  0  0  0  0  0  0  0  0  0  0  0
  149.1503  141.9766  155.1952 H   0  0  0  0  0  0  0  0  0  0  0  0
  150.5930  139.7091  154.6355 H   0  0  0  0  0  0  0  0  0  0  0  0
  149.2733  139.6543  155.8061 H   0  0  0  0  0  0  0  0  0  0  0  0
  147.3264  135.5399  151.5377 H   0  0  0  0  0  0  0  0  0  0  0  0
  147.5711  133.4780  150.7059 H   0  0  0  0  0  0  0  0  0  0  0  0
  146.5612  131.3595  149.8619 H   0  0  0  0  0  0  0  0  0  0  0  0
  144.0607  131.1234  149.8569 H   0  0  0  0  0  0  0  0  0  0  0  0
  142.6831  133.0414  150.7050 H   0  0  0  0  0  0  0  0  0  0  0  0
  1  2  2  0  0  0  0
  2  3  1  0  0  0  0
  2 10  1  0  0  0  0
  3  4  1  0  0  0  0
  3 17  1  0  0  0  0
  4  5  1  0  0  0  0
  4 18  1  0  0  0  0
  4 19  1  0  0  0  0
  5  9  1  0  0  0  0
  5  6  1  0  0  0  0
  5 20  1  0  0  0  0
  6  7  1  0  0  0  0
  6 21  1  0  0  0  0
  6 22  1  0  0  0  0
  7  8  1  0  0  0  0
  7 23  1  0  0  0  0
  7 24  1  0  0  0  0
  8  9  1  0  0  0  0
  8 25  1  0  0  0  0
  8 26  1  0  0  0  0
 10 11  1  0  0  0  0
 10 27  1  0  0  0  0
 11 16  1  0  0  0  0
 11 12  2  0  0  0  0
 12 13  1  0  0  0  0
 12 28  1  0  0  0  0
 13 14  2  0  0  0  0
 13 29  1  0  0  0  0
 14 15  1  0  0  0  0
 14 30  1  0  0  0  0
 15 16  2  0  0  0  0
 15 31  1  0  0  0  0
M  END
> <s_m_source_file>
AV-unprocessed.smi

> <i_m_source_file_index>
1764

> <i_lp_mmshare_version>
43012

> <i_f3d_flags>
0

> <s_epik_input>
bjFbY0hdW2NIXVtjSF1bY0hdYzFbTkhdQyg9TylbTkhdW0NIMl1bQ0BASF0yW0NIMl1bQ0gyXVtDSDJdTzI=

> <s_epik_cmdline>
J2VwaWtfcHl0aG9uJywgJy1waCcsICc3LjAnLCAnLXRuJywgJzgnLCAnLW1hJywgJzIwMCcsICctbWV0YWxfYmluZGluZycsICctaW1hZScsICc8aW5maWxlLm1hZT4nLCAnLW9tYWUnLCAnPG91dGZpbGUubWFlPic=

> <r_lp_tautomer_probability>
1

> <r_epik_Ionization_Penalty>
4.47751e-05

> <r_epik_Ionization_Penalty_Charging>
0

> <r_epik_Ionization_Penalty_Neutral>
4.47751e-05

> <r_epik_State_Penalty>
-0

> <r_epik_Charging_Adjusted_Penalty>
0

> <i_epik_Tot_Q>
0

> <i_epik_Tot_abs_Q>
0

> <r_epik_Metal_State_Penalty>
-0

> <b_epik_Metal_Only>
0

> <s_lp_Force_Field>
OPLS_2005

> <r_lp_Energy>
18.9713

> <b_lp_Chiralities_Consistent>
1

> <s_lp_Variant>
AV-unprocessed.smi:1764-2

> <Gold.Version>
5.8.1

> <Gold.Id.Protein>
6NUR|6NUR_protein|mol2

> <Gold.PLP.Fitness>
37.7060

> <Gold.PLP.PLP>
-28.7705

> <Gold.PLP.part.hbond>
-2.0000

> <Gold.PLP.part.metal>
0.0000

> <Gold.PLP.part.buried>
-1.8217

> <Gold.PLP.part.nonpolar>
-26.4767

> <Gold.PLP.part.repulsive>
1.0474

> <Gold.PLP.ligand.clash>
0.0000

> <Gold.PLP.ligand.torsion>
0.0327

> <Gold.PLP.Chemscore.Hbond>
2.0000

> <Gold.PLP.Chemscore.CHOScore>
1.0000

> <Gold.PLP.Chemscore.Metal>
0.0000

> <Gold.Chemscore.Hbonds>
donor molecule, donor type, donor heavy atom, donor atom, acceptor molecule, acceptor atom, score
      L1  H     3    17       P1  7948  1.00
      L1  H    10    27       P1  7948  1.00
      L1  C    15    31       P1 10186  1.00

> <Gold.PLP.Chemscore.Internal.Correction>
0.0009

> <Gold.Rescore>
     Score         DG    S(hbond)    S(metal)    S(lipo)     H(rot)  DE(clash)    DE(int)     intcor
     15.69     -17.14       1.95        0.00      71.77       1.27       0.07       1.38       ----

> <Gold.Chemscore.Fitness>
15.6907

> <Gold.Chemscore.DG>
-17.1430

> <Gold.Chemscore.ZeroCoef>
-5.4800

> <Gold.Chemscore.Hbond>
1.9496

> <Gold.Chemscore.Metal>
0.0000

> <Gold.Chemscore.Lipo>
71.7686

> <Gold.Chemscore.Internal_Hbond>
0.0000

> <Gold.Chemscore.DEClash>
0.0711

> <Gold.Chemscore.DEInternal>
1.3812

> <Gold.Chemscore.Rot>
1.2678

> <Gold.Chemscore.Internal.Correction>
   9.000000E+99

> <Gold.Chemscore.Hbonds>
donor molecule, donor type, donor heavy atom, donor atom, acceptor molecule, acceptor atom, score
      L1  H     3    17       P1  7948  0.98
      L1  H    10    27       P1  7948  0.95

> <Gold.Chemscore.Hbond.Weighted>
-6.5116

> <Gold.Chemscore.Metal.Weighted>
-0.0000

> <Gold.Chemscore.Lipo.Weighted>
-8.3969

> <Gold.Chemscore.Internal_Hbond.Weighted>
0.0000

> <Gold.Chemscore.DEClash.Weighted>
0.0711

> <Gold.Chemscore.DEInternal.Weighted>
1.3812

> <Gold.Chemscore.Rot.Weighted>
3.2455

> <Gold.Chemscore.Internal.Correction.Weighted>
   9.000000E+99

> <Gold.Protein.RotatedTorsions>
[ 6907 6896 6895 6894 ] final  160.43 input  -60.11 | X-H torsion
[ 7974 7965 7964 7962 ] final  107.82 input  175.53 | X-H torsion
[ 8008 7997 7996 7995 ] final  176.25 input   59.86 | X-H torsion
[ 10167 10162 10161 10158 ] final  -99.09 input  -65.29 | X-H torsion
[ 10718 10713 10712 10709 ] final   -6.51 input   66.30 | X-H torsion
[ 10763 10752 10751 10750 ] final  -33.49 input  -60.55 | X-H torsion
[ 11005 11000 10999 10996 ] final  -29.21 input  -57.11 | X-H torsion

> <Gold.Protein.ActiveResidues>
 VAL166  LYS551  ARG553  GLY616  TRP617  ASP618  TYR619  PRO620  LYS621  CYS622 
 ASP623  PHE694  ASN695  SER759  ASP760  ASP761  ALA762  ILE779  LEU786  VAL792 
 PHE793  MET794  SER795  GLU796  ALA797  LYS798  CYS799  TRP800  GLU811  SER814 

> <Gold.Protein.RotatedAtoms>
  151.9707  133.3725  159.4069 H   0  0  0  0  0  0  0  0  0  0  0  0  # atno 6907 bound_to 6896
  150.6949  134.4143  159.5185 H   0  0  0  0  0  0  0  0  0  0  0  0  # atno 6908 bound_to 6896
  152.1846  134.8724  160.0574 H   0  0  0  0  0  0  0  0  0  0  0  0  # atno 6909 bound_to 6896
  145.2886  139.2608  143.3877 H   0  0  0  0  0  0  0  0  0  0  0  0  # atno 7974 bound_to 7965
  156.0785  140.1388  156.9742 H   0  0  0  0  0  0  0  0  0  0  0  0  # atno 8008 bound_to 7997
  154.4571  140.0957  156.6838 H   0  0  0  0  0  0  0  0  0  0  0  0  # atno 8009 bound_to 7997
  155.5115  140.3454  155.4391 H   0  0  0  0  0  0  0  0  0  0  0  0  # atno 8010 bound_to 7997
  140.2661  143.3375  152.0579 H   0  0  0  0  0  0  0  0  0  0  0  0  # atno 10167 bound_to 10162
  156.7308  130.5179  149.5846 H   0  0  0  0  0  0  0  0  0  0  0  0  # atno 10718 bound_to 10713
  153.8310  135.6866  153.4814 H   0  0  0  0  0  0  0  0  0  0  0  0  # atno 10763 bound_to 10752
  153.1511  135.4618  154.9635 H   0  0  0  0  0  0  0  0  0  0  0  0  # atno 10764 bound_to 10752
  154.7886  135.3294  154.7773 H   0  0  0  0  0  0  0  0  0  0  0  0  # atno 10765 bound_to 10752
  140.9276  133.7358  156.0890 H   0  0  0  0  0  0  0  0  0  0  0  0  # atno 11005 bound_to 11000
  146.3192  140.3372  142.8645 LP  0  0  0  0  0  0  0  0  0  0  0  0  # atno 17320 bound_to 7965
  144.9192  140.7848  143.5759 LP  0  0  0  0  0  0  0  0  0  0  0  0  # atno 17321 bound_to 7965
  139.5002  144.6687  151.6295 LP  0  0  0  0  0  0  0  0  0  0  0  0  # atno 17342 bound_to 10162
  140.5927  143.9751  150.6334 LP  0  0  0  0  0  0  0  0  0  0  0  0  # atno 17343 bound_to 10162
  156.1530  130.6323  151.0620 LP  0  0  0  0  0  0  0  0  0  0  0  0  # atno 17370 bound_to 10713
  157.6859  131.0825  150.7243 LP  0  0  0  0  0  0  0  0  0  0  0  0  # atno 17371 bound_to 10713
  140.7905  134.3623  157.5466 LP  0  0  0  0  0  0  0  0  0  0  0  0  # atno 17394 bound_to 11000
  139.8789  134.9137  156.3090 LP  0  0  0  0  0  0  0  0  0  0  0  0  # atno 17395 bound_to 11000

$$$$
