AV-unprocessed.smi:2724|AV-procd|sdf|10508|dock4
  -GOLD-   2272014553D 1   1.00000     0.00000
 Structure written by MMmdl.
 25 26  0  0  0  0  0  0  0  0  1 V2000
  143.7947  133.9104  148.6511 O   0  0  0  0  0  0  0  0  0  0  0  0
  144.0429  132.7886  149.4758 C   0  0  1  0  0  0  0  0  0  0  0  0
  145.3708  132.1035  149.1534 C   0  0  0  0  0  0  0  0  0  0  0  0
  145.6526  131.2782  150.4066 C   0  0  0  0  0  0  0  0  0  0  0  0
  145.1944  132.1725  151.5630 C   0  0  0  0  0  0  0  0  0  0  0  0
  144.0752  133.0739  150.9969 C   0  0  1  0  0  0  0  0  0  0  0  0
  144.2510  134.5416  151.3826 C   0  0  0  0  0  0  0  0  0  0  0  0
  143.3484  135.1939  152.2521 C   0  0  0  0  0  0  0  0  0  0  0  0
  143.5663  136.5471  152.5737 C   0  0  0  0  0  0  0  0  0  0  0  0
  144.6808  137.1983  152.0098 C   0  0  0  0  0  0  0  0  0  0  0  0
  145.5503  136.5897  151.1754 N   0  0  0  0  0  0  0  0  0  0  0  0
  145.3341  135.2914  150.8735 C   0  0  0  0  0  0  0  0  0  0  0  0
  144.6232  134.3021  148.4204 H   0  0  0  0  0  0  0  0  0  0  0  0
  143.2483  132.0655  149.2861 H   0  0  0  0  0  0  0  0  0  0  0  0
  145.3228  131.4954  148.2494 H   0  0  0  0  0  0  0  0  0  0  0  0
  146.1596  132.8446  149.0162 H   0  0  0  0  0  0  0  0  0  0  0  0
  145.0541  130.3665  150.3862 H   0  0  0  0  0  0  0  0  0  0  0  0
  146.6998  130.9871  150.4918 H   0  0  0  0  0  0  0  0  0  0  0  0
  144.8608  131.5938  152.4249 H   0  0  0  0  0  0  0  0  0  0  0  0
  146.0443  132.7695  151.8951 H   0  0  0  0  0  0  0  0  0  0  0  0
  143.1228  132.7389  151.4107 H   0  0  0  0  0  0  0  0  0  0  0  0
  142.5031  134.6675  152.6699 H   0  0  0  0  0  0  0  0  0  0  0  0
  142.8960  137.0727  153.2374 H   0  0  0  0  0  0  0  0  0  0  0  0
  144.8790  138.2358  152.2348 H   0  0  0  0  0  0  0  0  0  0  0  0
  146.0505  134.8393  150.2036 H   0  0  0  0  0  0  0  0  0  0  0  0
  1  2  1  0  0  0  0
  1 13  1  0  0  0  0
  2  6  1  0  0  0  0
  2  3  1  0  0  0  0
  2 14  1  0  0  0  0
  3  4  1  0  0  0  0
  3 15  1  0  0  0  0
  3 16  1  0  0  0  0
  4  5  1  0  0  0  0
  4 17  1  0  0  0  0
  4 18  1  0  0  0  0
  5  6  1  0  0  0  0
  5 19  1  0  0  0  0
  5 20  1  0  0  0  0
  6  7  1  0  0  0  0
  6 21  1  0  0  0  0
  7 12  1  0  0  0  0
  7  8  2  0  0  0  0
  8  9  1  0  0  0  0
  8 22  1  0  0  0  0
  9 10  2  0  0  0  0
  9 23  1  0  0  0  0
 10 11  1  0  0  0  0
 10 24  1  0  0  0  0
 11 12  2  0  0  0  0
 12 25  1  0  0  0  0
M  END
> <s_m_source_file>
AV-unprocessed.smi

> <i_m_source_file_index>
2724

> <i_lp_mmshare_version>
43012

> <i_f3d_flags>
0

> <s_epik_input>
W09IXVtDQEBIXTFbQ0gyXVtDSDJdW0NIMl1bQ0BIXTFjMltjSF1bY0hdW2NIXW5bY0hdMg==

> <s_epik_cmdline>
J2VwaWtfcHl0aG9uJywgJy1waCcsICc3LjAnLCAnLXRuJywgJzgnLCAnLW1hJywgJzIwMCcsICctbWV0YWxfYmluZGluZycsICctaW1hZScsICc8aW5maWxlLm1hZT4nLCAnLW9tYWUnLCAnPG91dGZpbGUubWFlPic=

> <r_epik_Ionization_Penalty>
0.0175299

> <r_epik_Ionization_Penalty_Charging>
0

> <r_epik_Ionization_Penalty_Neutral>
0.0175299

> <r_epik_State_Penalty>
0.0138989

> <r_epik_Charging_Adjusted_Penalty>
0.0138989

> <i_epik_Tot_Q>
0

> <i_epik_Tot_abs_Q>
0

> <r_epik_Metal_State_Penalty>
1.40631e-05

> <b_epik_Metal_Only>
0

> <s_lp_Force_Field>
OPLS_2005

> <r_lp_Energy>
23.8775

> <b_lp_Chiralities_Consistent>
1

> <s_lp_Variant>
AV-unprocessed.smi:2724-2

> <Gold.Version>
5.8.1

> <Gold.Id.Protein>
6NUR|6NUR_protein|mol2

> <Gold.PLP.Fitness>
34.4862

> <Gold.PLP.PLP>
-25.7944

> <Gold.PLP.part.hbond>
-2.0000

> <Gold.PLP.part.metal>
0.0000

> <Gold.PLP.part.buried>
-2.1105

> <Gold.PLP.part.nonpolar>
-22.5584

> <Gold.PLP.part.repulsive>
1.4206

> <Gold.PLP.ligand.clash>
0.0000

> <Gold.PLP.ligand.torsion>
0.0850

> <Gold.PLP.Chemscore.Hbond>
1.0000

> <Gold.PLP.Chemscore.CHOScore>
1.9535

> <Gold.PLP.Chemscore.Metal>
0.0000

> <Gold.Chemscore.Hbonds>
donor molecule, donor type, donor heavy atom, donor atom, acceptor molecule, acceptor atom, score
      L1  H     1    13       P1  7921  1.00
      L1  C    10    24       P1 10171  0.04
      L1  C    10    24       P1 10175  1.00
      L1  C    12    25       P1  7921  0.92

> <Gold.PLP.Chemscore.Internal.Correction>
0.0015

> <Gold.Rescore>
     Score         DG    S(hbond)    S(metal)    S(lipo)     H(rot)  DE(clash)    DE(int)     intcor
     12.41     -13.84       1.00        0.00      71.87       1.32       0.68       0.75       ----

> <Gold.Chemscore.Fitness>
12.4097

> <Gold.Chemscore.DG>
-13.8405

> <Gold.Chemscore.ZeroCoef>
-5.4800

> <Gold.Chemscore.Hbond>
0.9968

> <Gold.Chemscore.Metal>
0.0000

> <Gold.Chemscore.Lipo>
71.8663

> <Gold.Chemscore.Internal_Hbond>
0.0000

> <Gold.Chemscore.DEClash>
0.6839

> <Gold.Chemscore.DEInternal>
0.7469

> <Gold.Chemscore.Rot>
1.3192

> <Gold.Chemscore.Internal.Correction>
   9.000000E+99

> <Gold.Chemscore.Hbonds>
donor molecule, donor type, donor heavy atom, donor atom, acceptor molecule, acceptor atom, score
      L1  H     1    13       P1  7921  1.00

> <Gold.Chemscore.Hbond.Weighted>
-3.3293

> <Gold.Chemscore.Metal.Weighted>
-0.0000

> <Gold.Chemscore.Lipo.Weighted>
-8.4084

> <Gold.Chemscore.Internal_Hbond.Weighted>
0.0000

> <Gold.Chemscore.DEClash.Weighted>
0.6839

> <Gold.Chemscore.DEInternal.Weighted>
0.7469

> <Gold.Chemscore.Rot.Weighted>
3.3772

> <Gold.Chemscore.Internal.Correction.Weighted>
   9.000000E+99

> <Gold.Protein.RotatedTorsions>
[ 6907 6896 6895 6894 ] final  -20.35 input  -60.11 | X-H torsion
[ 7974 7965 7964 7962 ] final  -97.01 input  175.53 | X-H torsion
[ 8008 7997 7996 7995 ] final -105.60 input   59.86 | X-H torsion
[ 10167 10162 10161 10158 ] final  127.97 input  -65.29 | X-H torsion
[ 10718 10713 10712 10709 ] final   22.34 input   66.30 | X-H torsion
[ 10763 10752 10751 10750 ] final -106.92 input  -60.55 | X-H torsion
[ 11005 11000 10999 10996 ] final  -68.58 input  -57.11 | X-H torsion

> <Gold.Protein.ActiveResidues>
 VAL166  LYS551  ARG553  GLY616  TRP617  ASP618  TYR619  PRO620  LYS621  CYS622 
 ASP623  PHE694  ASN695  SER759  ASP760  ASP761  ALA762  ILE779  LEU786  VAL792 
 PHE793  MET794  SER795  GLU796  ALA797  LYS798  CYS799  TRP800  GLU811  SER814 

> <Gold.Protein.RotatedAtoms>
  151.2494  135.0617  159.9055 H   0  0  0  0  0  0  0  0  0  0  0  0  # atno 6907 bound_to 6896
  152.5382  134.0348  159.8051 H   0  0  0  0  0  0  0  0  0  0  0  0  # atno 6908 bound_to 6896
  151.0554  133.5539  159.2670 H   0  0  0  0  0  0  0  0  0  0  0  0  # atno 6909 bound_to 6896
  145.3393  140.9457  143.2617 H   0  0  0  0  0  0  0  0  0  0  0  0  # atno 7974 bound_to 7965
  154.9023  140.0412  157.1900 H   0  0  0  0  0  0  0  0  0  0  0  0  # atno 8008 bound_to 7997
  154.8432  140.2917  155.5625 H   0  0  0  0  0  0  0  0  0  0  0  0  # atno 8009 bound_to 7997
  156.2993  140.2479  156.3378 H   0  0  0  0  0  0  0  0  0  0  0  0  # atno 8010 bound_to 7997
  139.5551  144.6842  151.4208 H   0  0  0  0  0  0  0  0  0  0  0  0  # atno 10167 bound_to 10162
  157.1510  130.6674  149.6012 H   0  0  0  0  0  0  0  0  0  0  0  0  # atno 10718 bound_to 10713
  154.8043  135.4694  154.0352 H   0  0  0  0  0  0  0  0  0  0  0  0  # atno 10763 bound_to 10752
  153.1834  135.6844  153.8455 H   0  0  0  0  0  0  0  0  0  0  0  0  # atno 10764 bound_to 10752
  153.7997  135.3231  155.3366 H   0  0  0  0  0  0  0  0  0  0  0  0  # atno 10765 bound_to 10752
  141.1535  133.6744  156.6468 H   0  0  0  0  0  0  0  0  0  0  0  0  # atno 11005 bound_to 11000
  144.8802  139.4914  143.6726 LP  0  0  0  0  0  0  0  0  0  0  0  0  # atno 17320 bound_to 7965
  146.3014  139.7438  142.9089 LP  0  0  0  0  0  0  0  0  0  0  0  0  # atno 17321 bound_to 7965
  140.6822  143.8057  150.7136 LP  0  0  0  0  0  0  0  0  0  0  0  0  # atno 17342 bound_to 10162
  140.1513  143.4355  152.2129 LP  0  0  0  0  0  0  0  0  0  0  0  0  # atno 17343 bound_to 10162
  155.9770  130.4744  150.6568 LP  0  0  0  0  0  0  0  0  0  0  0  0  # atno 17370 bound_to 10713
  157.4220  131.0838  151.1122 LP  0  0  0  0  0  0  0  0  0  0  0  0  # atno 17371 bound_to 10713
  140.3351  134.7896  157.4355 LP  0  0  0  0  0  0  0  0  0  0  0  0  # atno 17394 bound_to 11000
  140.0984  134.5505  155.8376 LP  0  0  0  0  0  0  0  0  0  0  0  0  # atno 17395 bound_to 11000

$$$$
