AV-unprocessed.smi:2405|AV-procd|sdf|9513|dock10
  -GOLD-   2272013143D 1   1.00000     0.00000
 Structure written by MMmdl.
 36 37  0  0  0  0  0  0  0  0  2 V2000
  154.2078  143.4777  164.7596 C   0  0  0  0  0  0  0  0  0  0  0  0
  153.5740  142.2961  164.0178 C   0  0  0  0  0  0  0  0  0  0  0  0
  153.1135  142.6604  162.6461 C   0  0  0  0  0  0  0  0  0  0  0  0
  153.4581  141.9814  161.5490 N   0  0  0  0  0  0  0  0  0  0  0  0
  152.9200  142.5328  160.3812 C   0  0  0  0  0  0  0  0  0  0  0  0
  153.1910  141.8896  159.0527 C   0  0  0  0  0  0  0  0  0  0  0  0
  151.9572  141.9974  158.1564 C   0  0  0  0  0  0  0  0  0  0  0  0
  151.5570  143.1022  157.7887 O   0  0  0  0  0  0  0  0  0  0  0  0
  151.3662  140.8432  157.8127 N   0  0  0  0  0  0  0  0  0  0  0  0
  150.1832  140.7207  156.9659 C   0  0  1  0  0  0  0  0  0  0  0  0
  150.4310  141.2914  155.5532 C   0  0  0  0  0  0  0  0  0  0  0  0
  150.0965  140.1615  154.5718 C   0  0  0  0  0  0  0  0  0  0  0  0
  150.3098  138.8585  155.3608 C   0  0  1  0  0  0  0  0  0  0  0  0
  151.7804  138.3883  155.3948 C   0  0  0  0  0  0  0  0  0  0  0  0
  152.0322  137.2972  154.8375 O   0  0  0  0  0  0  0  0  0  0  0  0
  152.6321  139.1105  155.9592 O   0  5  0  0  0  0  0  0  0  0  0  0
  149.8185  139.2372  156.7679 C   0  0  0  0  0  0  0  0  0  0  0  0
  152.1749  143.6630  160.6123 C   0  0  0  0  0  0  0  0  0  0  0  0
  152.1159  144.0692  162.3051 S   0  0  0  0  0  0  0  0  0  0  0  0
  154.5286  143.1821  165.7586 H   0  0  0  0  0  0  0  0  0  0  0  0
  153.5005  144.3006  164.8661 H   0  0  0  0  0  0  0  0  0  0  0  0
  155.0815  143.8531  164.2260 H   0  0  0  0  0  0  0  0  0  0  0  0
  154.2891  141.4760  163.9437 H   0  0  0  0  0  0  0  0  0  0  0  0
  152.7217  141.9172  164.5825 H   0  0  0  0  0  0  0  0  0  0  0  0
  154.0344  142.3728  158.5578 H   0  0  0  0  0  0  0  0  0  0  0  0
  153.4669  140.8407  159.1740 H   0  0  0  0  0  0  0  0  0  0  0  0
  151.7695  139.9822  158.1543 H   0  0  0  0  0  0  0  0  0  0  0  0
  149.3451  141.2316  157.4435 H   0  0  0  0  0  0  0  0  0  0  0  0
  149.8280  142.1794  155.3619 H   0  0  0  0  0  0  0  0  0  0  0  0
  151.4751  141.5817  155.4274 H   0  0  0  0  0  0  0  0  0  0  0  0
  149.0465  140.2324  154.2856 H   0  0  0  0  0  0  0  0  0  0  0  0
  150.6746  140.2251  153.6491 H   0  0  0  0  0  0  0  0  0  0  0  0
  149.7123  138.0484  154.9416 H   0  0  0  0  0  0  0  0  0  0  0  0
  150.2103  138.5958  157.5594 H   0  0  0  0  0  0  0  0  0  0  0  0
  148.7336  139.1287  156.7993 H   0  0  0  0  0  0  0  0  0  0  0  0
  151.6578  144.2774  159.8901 H   0  0  0  0  0  0  0  0  0  0  0  0
  1  2  1  0  0  0  0
  1 20  1  0  0  0  0
  1 21  1  0  0  0  0
  1 22  1  0  0  0  0
  2  3  1  0  0  0  0
  2 23  1  0  0  0  0
  2 24  1  0  0  0  0
  3 19  1  0  0  0  0
  3  4  2  0  0  0  0
  4  5  1  0  0  0  0
  5  6  1  0  0  0  0
  5 18  2  0  0  0  0
  6  7  1  0  0  0  0
  6 25  1  0  0  0  0
  6 26  1  0  0  0  0
  7  8  2  0  0  0  0
  7  9  1  0  0  0  0
  9 10  1  0  0  0  0
  9 27  1  0  0  0  0
 10 17  1  0  0  0  0
 10 11  1  0  0  0  0
 10 28  1  0  0  0  0
 11 12  1  0  0  0  0
 11 29  1  0  0  0  0
 11 30  1  0  0  0  0
 12 13  1  0  0  0  0
 12 31  1  0  0  0  0
 12 32  1  0  0  0  0
 13 14  1  0  0  0  0
 13 17  1  0  0  0  0
 13 33  1  0  0  0  0
 14 15  2  0  0  0  0
 14 16  1  0  0  0  0
 17 34  1  0  0  0  0
 17 35  1  0  0  0  0
 18 19  1  0  0  0  0
 18 36  1  0  0  0  0
M  CHG  1  16  -1
M  END
> <s_m_source_file>
AV-unprocessed.smi

> <i_m_source_file_index>
2405

> <i_lp_mmshare_version>
43012

> <i_f3d_flags>
0

> <s_epik_input>
W0NIM11bQ0gyXWMxbmMoW2NIXXMxKVtDSDJdQyg9TylbTkhdW0NAQEhdMltDSDJdW0NIMl1bQ0BIXShbQ0gyXTIpQyg9TylbT0hd

> <s_epik_cmdline>
J2VwaWtfcHl0aG9uJywgJy1waCcsICc3LjAnLCAnLXRuJywgJzgnLCAnLW1hJywgJzIwMCcsICctbWV0YWxfYmluZGluZycsICctaW1hZScsICc8aW5maWxlLm1hZT4nLCAnLW9tYWUnLCAnPG91dGZpbGUubWFlPic=

> <r_epik_Ionization_Penalty>
0.000544611

> <r_epik_Ionization_Penalty_Charging>
0.000481685

> <r_epik_Ionization_Penalty_Neutral>
6.29266e-05

> <r_epik_State_Penalty>
0.00029893

> <r_epik_Charging_Adjusted_Penalty>
0.000780614

> <i_epik_Tot_Q>
-1

> <i_epik_Tot_abs_Q>
1

> <r_epik_Metal_State_Penalty>
-0

> <b_epik_Metal_Only>
0

> <s_lp_Force_Field>
OPLS_2005

> <r_lp_Energy>
7.49368

> <b_lp_Chiralities_Consistent>
1

> <s_lp_Variant>
AV-unprocessed.smi:2405-2

> <Gold.Version>
5.8.1

> <Gold.Id.Protein>
6NUR|6NUR_protein|mol2

> <Gold.PLP.Fitness>
47.5002

> <Gold.PLP.PLP>
-37.7006

> <Gold.PLP.part.hbond>
-2.0000

> <Gold.PLP.part.metal>
0.0000

> <Gold.PLP.part.buried>
-3.1766

> <Gold.PLP.part.nonpolar>
-31.9267

> <Gold.PLP.part.repulsive>
0.2719

> <Gold.PLP.ligand.clash>
0.0000

> <Gold.PLP.ligand.torsion>
0.5236

> <Gold.PLP.Chemscore.Hbond>
3.6000

> <Gold.PLP.Chemscore.CHOScore>
0.0000

> <Gold.PLP.Chemscore.Metal>
0.0000

> <Gold.Chemscore.Hbonds>
donor molecule, donor type, donor heavy atom, donor atom, acceptor molecule, acceptor atom, score
      P1  H  7997  8009       L1    16  2.00
      P1  H 10752 10765       L1    15  1.57

> <Gold.PLP.Chemscore.Internal.Correction>
0.0467

> <Gold.Rescore>
     Score         DG    S(hbond)    S(metal)    S(lipo)     H(rot)  DE(clash)    DE(int)     intcor
     14.01     -18.71       1.76        0.00     107.98       2.06       1.69       3.01       ----

> <Gold.Chemscore.Fitness>
14.0143

> <Gold.Chemscore.DG>
-18.7084

> <Gold.Chemscore.ZeroCoef>
-5.4800

> <Gold.Chemscore.Hbond>
1.7595

> <Gold.Chemscore.Metal>
0.0000

> <Gold.Chemscore.Lipo>
107.9829

> <Gold.Chemscore.Internal_Hbond>
0.0000

> <Gold.Chemscore.DEClash>
1.6860

> <Gold.Chemscore.DEInternal>
3.0081

> <Gold.Chemscore.Rot>
2.0635

> <Gold.Chemscore.Internal.Correction>
   9.000000E+99

> <Gold.Chemscore.Hbonds>
donor molecule, donor type, donor heavy atom, donor atom, acceptor molecule, acceptor atom, score
      P1  H  7997  8009       L1    16  0.95
      P1  H 10752 10765       L1    15  0.78

> <Gold.Chemscore.Hbond.Weighted>
-5.8768

> <Gold.Chemscore.Metal.Weighted>
-0.0000

> <Gold.Chemscore.Lipo.Weighted>
-12.6340

> <Gold.Chemscore.Internal_Hbond.Weighted>
0.0000

> <Gold.Chemscore.DEClash.Weighted>
1.6860

> <Gold.Chemscore.DEInternal.Weighted>
3.0081

> <Gold.Chemscore.Rot.Weighted>
5.2825

> <Gold.Chemscore.Internal.Correction.Weighted>
   9.000000E+99

> <Gold.Protein.RotatedTorsions>
[ 6907 6896 6895 6894 ] final  -37.13 input  -60.11 | X-H torsion
[ 7974 7965 7964 7962 ] final  143.06 input  175.53 | X-H torsion
[ 8008 7997 7996 7995 ] final -161.39 input   59.86 | X-H torsion
[ 10167 10162 10161 10158 ] final -167.11 input  -65.29 | X-H torsion
[ 10718 10713 10712 10709 ] final  157.88 input   66.30 | X-H torsion
[ 10763 10752 10751 10750 ] final  156.79 input  -60.55 | X-H torsion
[ 11005 11000 10999 10996 ] final  -62.62 input  -57.11 | X-H torsion

> <Gold.Protein.ActiveResidues>
 VAL166  LYS551  ARG553  GLY616  TRP617  ASP618  TYR619  PRO620  LYS621  CYS622 
 ASP623  PHE694  ASN695  SER759  ASP760  ASP761  ALA762  ILE779  LEU786  VAL792 
 PHE793  MET794  SER795  GLU796  ALA797  LYS798  CYS799  TRP800  GLU811  SER814 

> <Gold.Protein.RotatedAtoms>
  151.0185  134.9451  159.8046 H   0  0  0  0  0  0  0  0  0  0  0  0  # atno 6907 bound_to 6896
  152.5319  134.2935  159.9062 H   0  0  0  0  0  0  0  0  0  0  0  0  # atno 6908 bound_to 6896
  151.2942  133.4109  159.2669 H   0  0  0  0  0  0  0  0  0  0  0  0  # atno 6909 bound_to 6896
  144.8953  139.5499  143.5779 H   0  0  0  0  0  0  0  0  0  0  0  0  # atno 7974 bound_to 7965
  155.7915  140.0879  157.2006 H   0  0  0  0  0  0  0  0  0  0  0  0  # atno 8008 bound_to 7997
  154.3985  140.1489  156.3227 H   0  0  0  0  0  0  0  0  0  0  0  0  # atno 8009 bound_to 7997
  155.8554  140.3432  155.5723 H   0  0  0  0  0  0  0  0  0  0  0  0  # atno 8010 bound_to 7997
  139.6071  144.0891  152.1804 H   0  0  0  0  0  0  0  0  0  0  0  0  # atno 10167 bound_to 10162
  157.1854  131.0642  151.2108 H   0  0  0  0  0  0  0  0  0  0  0  0  # atno 10718 bound_to 10713
  154.1900  135.2795  155.3025 H   0  0  0  0  0  0  0  0  0  0  0  0  # atno 10763 bound_to 10752
  154.5936  135.5552  153.7307 H   0  0  0  0  0  0  0  0  0  0  0  0  # atno 10764 bound_to 10752
  153.0115  135.6374  154.2038 H   0  0  0  0  0  0  0  0  0  0  0  0  # atno 10765 bound_to 10752
  141.1366  133.6642  156.5556 H   0  0  0  0  0  0  0  0  0  0  0  0  # atno 11005 bound_to 11000
  146.3078  139.7639  142.9043 LP  0  0  0  0  0  0  0  0  0  0  0  0  # atno 17320 bound_to 7965
  145.3711  141.0343  143.3231 LP  0  0  0  0  0  0  0  0  0  0  0  0  # atno 17321 bound_to 7965
  140.0501  144.5939  150.7343 LP  0  0  0  0  0  0  0  0  0  0  0  0  # atno 17342 bound_to 10162
  140.7292  143.2670  151.4011 LP  0  0  0  0  0  0  0  0  0  0  0  0  # atno 17343 bound_to 10162
  157.3912  130.7283  149.6699 LP  0  0  0  0  0  0  0  0  0  0  0  0  # atno 17370 bound_to 10713
  155.9718  130.4146  150.4140 LP  0  0  0  0  0  0  0  0  0  0  0  0  # atno 17371 bound_to 10713
  140.4029  134.7340  157.4790 LP  0  0  0  0  0  0  0  0  0  0  0  0  # atno 17394 bound_to 11000
  140.0483  134.6168  155.8894 LP  0  0  0  0  0  0  0  0  0  0  0  0  # atno 17395 bound_to 11000

$$$$
