AV-unprocessed.smi:1452|AV-procd|sdf|5903|dock6
  -GOLD-   22720 5593D 1   1.00000     0.00000
 Structure written by MMmdl.
 40 42  0  0  0  0  0  0  0  0  2 V2000
  148.5325  140.5682  157.0262 O   0  0  0  0  0  0  0  0  0  0  0  0
  148.5416  141.7115  156.5734 C   0  0  0  0  0  0  0  0  0  0  0  0
  149.5273  142.5787  156.8894 N   0  0  0  0  0  0  0  0  0  0  0  0
  150.6792  142.4411  157.7198 C   0  0  0  0  0  0  0  0  0  0  0  0
  151.4847  143.5997  157.7978 C   0  0  0  0  0  0  0  0  0  0  0  0
  152.6525  143.5849  158.5848 C   0  0  0  0  0  0  0  0  0  0  0  0
  152.9883  142.4081  159.2768 C   0  0  0  0  0  0  0  0  0  0  0  0
  152.1352  141.2975  159.1469 C   0  0  0  0  0  0  0  0  0  0  0  0
  151.0159  141.3101  158.3920 N   0  0  0  0  0  0  0  0  0  0  0  0
  147.5874  142.1703  155.7474 N   0  0  0  0  0  0  0  0  0  0  0  0
  146.4281  141.4163  155.2830 C   0  0  2  0  0  0  0  0  0  0  0  0
  145.6797  140.7090  156.4270 C   0  0  0  0  0  0  0  0  0  0  0  0
  145.2438  139.3474  155.8507 C   0  0  0  0  0  0  0  0  0  0  0  0
  145.6429  139.3784  154.4309 N   0  3  2  0  0  0  0  0  0  0  0  0
  145.8566  138.0764  153.7625 C   0  0  0  0  0  0  0  0  0  0  0  0
  146.1818  138.3163  152.2747 C   0  0  0  0  0  0  0  0  0  0  0  0
  147.3562  139.3001  152.0975 C   0  0  0  0  0  0  0  0  0  0  0  0
  147.1192  140.5988  152.8920 C   0  0  0  0  0  0  0  0  0  0  0  0
  146.8197  140.2578  154.3618 C   0  0  1  0  0  0  0  0  0  0  0  0
  149.4435  143.4816  156.4451 H   0  0  0  0  0  0  0  0  0  0  0  0
  151.2136  144.4973  157.2605 H   0  0  0  0  0  0  0  0  0  0  0  0
  153.2787  144.4620  158.6559 H   0  0  0  0  0  0  0  0  0  0  0  0
  153.8756  142.3585  159.8907 H   0  0  0  0  0  0  0  0  0  0  0  0
  152.3556  140.3745  159.6624 H   0  0  0  0  0  0  0  0  0  0  0  0
  147.6746  143.1227  155.4202 H   0  0  0  0  0  0  0  0  0  0  0  0
  145.7242  142.0725  154.7666 H   0  0  0  0  0  0  0  0  0  0  0  0
  146.3264  140.5524  157.2919 H   0  0  0  0  0  0  0  0  0  0  0  0
  144.8261  141.3000  156.7608 H   0  0  0  0  0  0  0  0  0  0  0  0
  145.7627  138.5394  156.3689 H   0  0  0  0  0  0  0  0  0  0  0  0
  144.1711  139.1782  155.9469 H   0  0  0  0  0  0  0  0  0  0  0  0
  146.6704  137.5369  154.2496 H   0  0  0  0  0  0  0  0  0  0  0  0
  144.9595  137.4637  153.8581 H   0  0  0  0  0  0  0  0  0  0  0  0
  146.4099  137.3698  151.7841 H   0  0  0  0  0  0  0  0  0  0  0  0
  145.2999  138.7172  151.7734 H   0  0  0  0  0  0  0  0  0  0  0  0
  148.2780  138.8286  152.4405 H   0  0  0  0  0  0  0  0  0  0  0  0
  147.5004  139.5267  151.0407 H   0  0  0  0  0  0  0  0  0  0  0  0
  147.9975  141.2406  152.8216 H   0  0  0  0  0  0  0  0  0  0  0  0
  146.2878  141.1551  152.4571 H   0  0  0  0  0  0  0  0  0  0  0  0
  147.6737  139.7302  154.7933 H   0  0  0  0  0  0  0  0  0  0  0  0
  144.9032  139.8548  153.9349 H   0  0  0  0  0  0  0  0  0  0  0  0
  1  2  2  0  0  0  0
  2  3  1  0  0  0  0
  2 10  1  0  0  0  0
  3  4  1  0  0  0  0
  3 20  1  0  0  0  0
  4  9  1  0  0  0  0
  4  5  2  0  0  0  0
  5  6  1  0  0  0  0
  5 21  1  0  0  0  0
  6  7  2  0  0  0  0
  6 22  1  0  0  0  0
  7  8  1  0  0  0  0
  7 23  1  0  0  0  0
  8  9  2  0  0  0  0
  8 24  1  0  0  0  0
 10 11  1  0  0  0  0
 10 25  1  0  0  0  0
 11 19  1  0  0  0  0
 11 12  1  0  0  0  0
 11 26  1  0  0  0  0
 12 13  1  0  0  0  0
 12 27  1  0  0  0  0
 12 28  1  0  0  0  0
 13 14  1  0  0  0  0
 13 29  1  0  0  0  0
 13 30  1  0  0  0  0
 14 19  1  0  0  0  0
 14 15  1  0  0  0  0
 14 40  1  0  0  0  0
 15 16  1  0  0  0  0
 15 31  1  0  0  0  0
 15 32  1  0  0  0  0
 16 17  1  0  0  0  0
 16 33  1  0  0  0  0
 16 34  1  0  0  0  0
 17 18  1  0  0  0  0
 17 35  1  0  0  0  0
 17 36  1  0  0  0  0
 18 19  1  0  0  0  0
 18 37  1  0  0  0  0
 18 38  1  0  0  0  0
 19 39  1  0  0  0  0
M  CHG  1  14   1
M  END
> <s_m_source_file>
AV-unprocessed.smi

> <i_m_source_file_index>
1452

> <i_lp_mmshare_version>
43012

> <i_f3d_flags>
0

> <s_epik_input>
W0NIMl0xW0NIMl1bQ0gyXVtDSDJdW0NASF0oTjEyKVtDQEBIXShbQ0gyXVtDSDJdMilbTkhdQyg9TylbTkhdYzNbY0hdW2NIXVtjSF1bY0hdbjM=

> <s_epik_cmdline>
J2VwaWtfcHl0aG9uJywgJy1waCcsICc3LjAnLCAnLXRuJywgJzgnLCAnLW1hJywgJzIwMCcsICctbWV0YWxfYmluZGluZycsICctaW1hZScsICc8aW5maWxlLm1hZT4nLCAnLW9tYWUnLCAnPG91dGZpbGUubWFlPic=

> <r_epik_Ionization_Penalty>
0.00100813

> <r_epik_Ionization_Penalty_Charging>
0.000974069

> <r_epik_Ionization_Penalty_Neutral>
3.40643e-05

> <r_epik_State_Penalty>
0.000633842

> <r_epik_Charging_Adjusted_Penalty>
0.00160791

> <i_epik_Tot_Q>
1

> <i_epik_Tot_abs_Q>
1

> <r_epik_Metal_State_Penalty>
-0

> <b_epik_Metal_Only>
0

> <s_lp_Force_Field>
OPLS_2005

> <r_lp_Energy>
38.1413

> <b_lp_Chiralities_Consistent>
1

> <s_lp_Variant>
AV-unprocessed.smi:1452-1

> <Gold.Version>
5.8.1

> <Gold.Id.Protein>
6NUR|6NUR_protein|mol2

> <Gold.PLP.Fitness>
39.5580

> <Gold.PLP.PLP>
-28.2678

> <Gold.PLP.part.hbond>
-3.0000

> <Gold.PLP.part.metal>
0.0000

> <Gold.PLP.part.buried>
1.8432

> <Gold.PLP.part.nonpolar>
-27.4632

> <Gold.PLP.part.repulsive>
0.0864

> <Gold.PLP.ligand.clash>
0.0000

> <Gold.PLP.ligand.torsion>
0.0835

> <Gold.PLP.Chemscore.Hbond>
3.8160

> <Gold.PLP.Chemscore.CHOScore>
0.0000

> <Gold.PLP.Chemscore.Metal>
0.0000

> <Gold.Chemscore.Hbonds>
donor molecule, donor type, donor heavy atom, donor atom, acceptor molecule, acceptor atom, score
      L1  H     3    20       P1  8028  1.00
      L1  H    10    25       P1  8028  0.82
      L1  H    14    40       P1 10175  2.00

> <Gold.PLP.Chemscore.Internal.Correction>
0.0093

> <Gold.Rescore>
     Score         DG    S(hbond)    S(metal)    S(lipo)     H(rot)  DE(clash)    DE(int)     intcor
     16.62     -21.25       2.60        0.00      82.36       1.00       2.17       2.46       ----

> <Gold.Chemscore.Fitness>
16.6184

> <Gold.Chemscore.DG>
-21.2495

> <Gold.Chemscore.ZeroCoef>
-5.4800

> <Gold.Chemscore.Hbond>
2.6027

> <Gold.Chemscore.Metal>
0.0000

> <Gold.Chemscore.Lipo>
82.3636

> <Gold.Chemscore.Internal_Hbond>
0.0000

> <Gold.Chemscore.DEClash>
2.1749

> <Gold.Chemscore.DEInternal>
2.4562

> <Gold.Chemscore.Rot>
1.0000

> <Gold.Chemscore.Internal.Correction>
   9.000000E+99

> <Gold.Chemscore.Hbonds>
donor molecule, donor type, donor heavy atom, donor atom, acceptor molecule, acceptor atom, score
      L1  H     3    20       P1  8028  0.97
      L1  H    10    25       P1  8028  0.31
      L1  H    14    40       P1 10175  0.96

> <Gold.Chemscore.Hbond.Weighted>
-8.6930

> <Gold.Chemscore.Metal.Weighted>
-0.0000

> <Gold.Chemscore.Lipo.Weighted>
-9.6365

> <Gold.Chemscore.Internal_Hbond.Weighted>
0.0000

> <Gold.Chemscore.DEClash.Weighted>
2.1749

> <Gold.Chemscore.DEInternal.Weighted>
2.4562

> <Gold.Chemscore.Rot.Weighted>
2.5600

> <Gold.Chemscore.Internal.Correction.Weighted>
   9.000000E+99

> <Gold.Protein.RotatedTorsions>
[ 6907 6896 6895 6894 ] final  156.94 input  -60.11 | X-H torsion
[ 7974 7965 7964 7962 ] final    7.90 input  175.53 | X-H torsion
[ 8008 7997 7996 7995 ] final  122.42 input   59.86 | X-H torsion
[ 10167 10162 10161 10158 ] final  -35.45 input  -65.29 | X-H torsion
[ 10718 10713 10712 10709 ] final -109.01 input   66.30 | X-H torsion
[ 10763 10752 10751 10750 ] final -131.85 input  -60.55 | X-H torsion
[ 11005 11000 10999 10996 ] final  169.00 input  -57.11 | X-H torsion

> <Gold.Protein.ActiveResidues>
 VAL166  LYS551  ARG553  GLY616  TRP617  ASP618  TYR619  PRO620  LYS621  CYS622 
 ASP623  PHE694  ASN695  SER759  ASP760  ASP761  ALA762  ILE779  LEU786  VAL792 
 PHE793  MET794  SER795  GLU796  ALA797  LYS798  CYS799  TRP800  GLU811  SER814 

> <Gold.Protein.RotatedAtoms>
  152.0224  133.3904  159.4263 H   0  0  0  0  0  0  0  0  0  0  0  0  # atno 6907 bound_to 6896
  150.6889  134.3611  159.4960 H   0  0  0  0  0  0  0  0  0  0  0  0  # atno 6908 bound_to 6896
  152.1387  134.9079  160.0605 H   0  0  0  0  0  0  0  0  0  0  0  0  # atno 6909 bound_to 6896
  146.2422  140.0014  142.8415 H   0  0  0  0  0  0  0  0  0  0  0  0  # atno 7974 bound_to 7965
  156.2726  140.2786  156.1464 H   0  0  0  0  0  0  0  0  0  0  0  0  # atno 8008 bound_to 7997
  155.0899  140.0388  157.2683 H   0  0  0  0  0  0  0  0  0  0  0  0  # atno 8009 bound_to 7997
  154.6897  140.2626  155.6830 H   0  0  0  0  0  0  0  0  0  0  0  0  # atno 8010 bound_to 7997
  140.7164  143.3476  151.2223 H   0  0  0  0  0  0  0  0  0  0  0  0  # atno 10167 bound_to 10162
  156.0515  130.5742  150.8040 H   0  0  0  0  0  0  0  0  0  0  0  0  # atno 10718 bound_to 10713
  154.8748  135.3817  154.4313 H   0  0  0  0  0  0  0  0  0  0  0  0  # atno 10763 bound_to 10752
  153.5007  135.7030  153.5838 H   0  0  0  0  0  0  0  0  0  0  0  0  # atno 10764 bound_to 10752
  153.4172  135.3910  155.2054 H   0  0  0  0  0  0  0  0  0  0  0  0  # atno 10765 bound_to 10752
  140.2931  134.7656  157.3855 H   0  0  0  0  0  0  0  0  0  0  0  0  # atno 11005 bound_to 11000
  145.1412  140.9572  143.4488 LP  0  0  0  0  0  0  0  0  0  0  0  0  # atno 17320 bound_to 7965
  145.0294  139.3354  143.6032 LP  0  0  0  0  0  0  0  0  0  0  0  0  # atno 17321 bound_to 7965
  139.6999  143.9550  152.2900 LP  0  0  0  0  0  0  0  0  0  0  0  0  # atno 17342 bound_to 10162
  139.9239  144.6782  150.8432 LP  0  0  0  0  0  0  0  0  0  0  0  0  # atno 17343 bound_to 10162
  157.5445  131.0942  150.9782 LP  0  0  0  0  0  0  0  0  0  0  0  0  # atno 17370 bound_to 10713
  157.0057  130.5617  149.5315 LP  0  0  0  0  0  0  0  0  0  0  0  0  # atno 17371 bound_to 10713
  140.1177  134.5261  155.8211 LP  0  0  0  0  0  0  0  0  0  0  0  0  # atno 17394 bound_to 11000
  141.2142  133.6745  156.6807 LP  0  0  0  0  0  0  0  0  0  0  0  0  # atno 17395 bound_to 11000

$$$$
