AV-unprocessed.smi:356|AV-procd|sdf|2414|dock3
  -GOLD-   2262022343D 1   1.00000     0.00000
 Structure written by MMmdl.
 43 45  0  0  0  0  0  0  0  0  3 V2000
  152.1475  137.6780  158.8538 C   0  0  0  0  0  0  0  0  0  0  0  0
  152.0914  139.1690  158.8560 C   0  0  0  0  0  0  0  0  0  0  0  0
  152.5240  139.9847  159.8585 N   0  3  0  0  0  0  0  0  0  0  0  0
  152.3135  141.3185  159.5066 C   0  0  0  0  0  0  0  0  0  0  0  0
  152.5887  142.4971  160.1932 C   0  0  0  0  0  0  0  0  0  0  0  0
  152.2478  143.7018  159.5438 C   0  0  0  0  0  0  0  0  0  0  0  0
  151.6572  143.7044  158.2633 C   0  0  0  0  0  0  0  0  0  0  0  0
  151.3815  142.5031  157.5773 C   0  0  0  0  0  0  0  0  0  0  0  0
  151.7223  141.3167  158.2265 C   0  0  0  0  0  0  0  0  0  0  0  0
  151.6017  139.9700  157.8661 N   0  0  0  0  0  0  0  0  0  0  0  0
  151.0109  139.6234  156.5641 C   0  0  0  0  0  0  0  0  0  0  0  0
  151.8136  138.5478  155.8043 C   0  0  2  0  0  0  0  0  0  0  0  0
  153.1427  139.0017  155.6304 O   0  0  0  0  0  0  0  0  0  0  0  0
  151.1925  138.2544  154.4231 C   0  0  0  0  0  0  0  0  0  0  0  0
  150.0788  137.2725  154.4779 N   0  3  0  0  0  0  0  0  0  0  0  0
  150.4967  135.9160  154.9130 C   0  0  0  0  0  0  0  0  0  0  0  0
  149.2944  134.9562  154.9105 C   0  0  0  0  0  0  0  0  0  0  0  0
  148.2669  135.4739  155.7461 O   0  0  0  0  0  0  0  0  0  0  0  0
  147.7944  136.7343  155.2879 C   0  0  0  0  0  0  0  0  0  0  0  0
  148.9466  137.7528  155.3060 C   0  0  0  0  0  0  0  0  0  0  0  0
  152.5790  137.3097  159.7848 H   0  0  0  0  0  0  0  0  0  0  0  0
  152.7607  137.3256  158.0242 H   0  0  0  0  0  0  0  0  0  0  0  0
  151.1451  137.2627  158.7488 H   0  0  0  0  0  0  0  0  0  0  0  0
  153.0419  142.4978  161.1737 H   0  0  0  0  0  0  0  0  0  0  0  0
  152.4442  144.6426  160.0376 H   0  0  0  0  0  0  0  0  0  0  0  0
  151.4113  144.6478  157.7976 H   0  0  0  0  0  0  0  0  0  0  0  0
  150.9304  142.5163  156.5965 H   0  0  0  0  0  0  0  0  0  0  0  0
  149.9829  139.2984  156.7297 H   0  0  0  0  0  0  0  0  0  0  0  0
  150.9497  140.5385  155.9736 H   0  0  0  0  0  0  0  0  0  0  0  0
  151.8412  137.6440  156.4116 H   0  0  0  0  0  0  0  0  0  0  0  0
  153.4272  138.7920  154.7543 H   0  0  0  0  0  0  0  0  0  0  0  0
  150.8309  139.1766  153.9652 H   0  0  0  0  0  0  0  0  0  0  0  0
  151.9776  137.8779  153.7648 H   0  0  0  0  0  0  0  0  0  0  0  0
  151.2693  135.5204  154.2549 H   0  0  0  0  0  0  0  0  0  0  0  0
  150.9262  135.9684  155.9145 H   0  0  0  0  0  0  0  0  0  0  0  0
  148.9163  134.8076  153.8976 H   0  0  0  0  0  0  0  0  0  0  0  0
  149.5939  133.9772  155.2850 H   0  0  0  0  0  0  0  0  0  0  0  0
  147.3750  136.6370  154.2851 H   0  0  0  0  0  0  0  0  0  0  0  0
  146.9868  137.0678  155.9398 H   0  0  0  0  0  0  0  0  0  0  0  0
  149.2853  137.9157  156.3308 H   0  0  0  0  0  0  0  0  0  0  0  0
  148.5912  138.7127  154.9287 H   0  0  0  0  0  0  0  0  0  0  0  0
  149.7205  137.1877  153.5373 H   0  0  0  0  0  0  0  0  0  0  0  0
  152.9349  139.6500  160.7207 H   0  0  0  0  0  0  0  0  0  0  0  0
  1  2  1  0  0  0  0
  1 21  1  0  0  0  0
  1 22  1  0  0  0  0
  1 23  1  0  0  0  0
  2 10  1  0  0  0  0
  2  3  2  0  0  0  0
  3  4  1  0  0  0  0
  3 43  1  0  0  0  0
  4  9  2  0  0  0  0
  4  5  1  0  0  0  0
  5  6  2  0  0  0  0
  5 24  1  0  0  0  0
  6  7  1  0  0  0  0
  6 25  1  0  0  0  0
  7  8  2  0  0  0  0
  7 26  1  0  0  0  0
  8  9  1  0  0  0  0
  8 27  1  0  0  0  0
  9 10  1  0  0  0  0
 10 11  1  0  0  0  0
 11 12  1  0  0  0  0
 11 28  1  0  0  0  0
 11 29  1  0  0  0  0
 12 13  1  0  0  0  0
 12 14  1  0  0  0  0
 12 30  1  0  0  0  0
 13 31  1  0  0  0  0
 14 15  1  0  0  0  0
 14 32  1  0  0  0  0
 14 33  1  0  0  0  0
 15 20  1  0  0  0  0
 15 16  1  0  0  0  0
 15 42  1  0  0  0  0
 16 17  1  0  0  0  0
 16 34  1  0  0  0  0
 16 35  1  0  0  0  0
 17 18  1  0  0  0  0
 17 36  1  0  0  0  0
 17 37  1  0  0  0  0
 18 19  1  0  0  0  0
 19 20  1  0  0  0  0
 19 38  1  0  0  0  0
 19 39  1  0  0  0  0
 20 40  1  0  0  0  0
 20 41  1  0  0  0  0
M  CHG  1   3   1
M  CHG  1  15   1
M  END
> <s_m_source_file>
AV-unprocessed.smi

> <i_m_source_file_index>
356

> <i_lp_mmshare_version>
43012

> <i_f3d_flags>
0

> <s_epik_input>
W2NIXTFbY0hdW2NIXVtjSF1jKGMxMiluKGMobjIpW0NIM10pW0NIMl1bQ0BIXShbT0hdKVtDSDJdTjNbQ0gyXVtDSDJdT1tDSDJdW0NIMl0z

> <s_epik_cmdline>
J2VwaWtfcHl0aG9uJywgJy1waCcsICc3LjAnLCAnLXRuJywgJzgnLCAnLW1hJywgJzIwMCcsICctbWV0YWxfYmluZGluZycsICctaW1hZScsICc8aW5maWxlLm1hZT4nLCAnLW9tYWUnLCAnPG91dGZpbGUubWFlPic=

> <r_epik_Ionization_Penalty>
1.81899

> <r_epik_Ionization_Penalty_Charging>
1.81898

> <r_epik_Ionization_Penalty_Neutral>
1.42224e-05

> <r_epik_State_Penalty>
1.87399

> <r_epik_Charging_Adjusted_Penalty>
3.69296

> <i_epik_Tot_Q>
2

> <i_epik_Tot_abs_Q>
2

> <r_epik_Metal_State_Penalty>
5.87601

> <b_epik_Metal_Only>
0

> <s_lp_Force_Field>
OPLS_2005

> <r_lp_Energy>
28.369

> <b_lp_Chiralities_Consistent>
1

> <s_lp_Variant>
AV-unprocessed.smi:356-7

> <Gold.Version>
5.8.1

> <Gold.Id.Protein>
6NUR|6NUR_protein|mol2

> <Gold.PLP.Fitness>
46.2768

> <Gold.PLP.PLP>
-38.1450

> <Gold.PLP.part.hbond>
-2.0000

> <Gold.PLP.part.metal>
0.0000

> <Gold.PLP.part.buried>
-5.8399

> <Gold.PLP.part.nonpolar>
-30.2685

> <Gold.PLP.part.repulsive>
0.1990

> <Gold.PLP.ligand.clash>
0.0000

> <Gold.PLP.ligand.torsion>
0.4501

> <Gold.PLP.Chemscore.Hbond>
3.0000

> <Gold.PLP.Chemscore.CHOScore>
0.0000

> <Gold.PLP.Chemscore.Metal>
0.0000

> <Gold.Chemscore.Hbonds>
donor molecule, donor type, donor heavy atom, donor atom, acceptor molecule, acceptor atom, score
      L1  H    15    42       P1  7948  1.95
      P1  H  7997  8010       L1    13  0.80

> <Gold.PLP.Chemscore.Internal.Correction>
0.0320

> <Gold.Rescore>
     Score         DG    S(hbond)    S(metal)    S(lipo)     H(rot)  DE(clash)    DE(int)     intcor
     17.62     -18.31       1.88        0.00     102.52       2.13       0.10       0.59       ----

> <Gold.Chemscore.Fitness>
17.6186

> <Gold.Chemscore.DG>
-18.3075

> <Gold.Chemscore.ZeroCoef>
-5.4800

> <Gold.Chemscore.Hbond>
1.8840

> <Gold.Chemscore.Metal>
0.0000

> <Gold.Chemscore.Lipo>
102.5180

> <Gold.Chemscore.Internal_Hbond>
0.0000

> <Gold.Chemscore.DEClash>
0.0998

> <Gold.Chemscore.DEInternal>
0.5890

> <Gold.Chemscore.Rot>
2.1327

> <Gold.Chemscore.Internal.Correction>
   9.000000E+99

> <Gold.Chemscore.Hbonds>
donor molecule, donor type, donor heavy atom, donor atom, acceptor molecule, acceptor atom, score
      L1  H    15    42       P1  7948  0.63
      P1  H  7997  8010       L1    13  0.12

> <Gold.Chemscore.Hbond.Weighted>
-6.2925

> <Gold.Chemscore.Metal.Weighted>
-0.0000

> <Gold.Chemscore.Lipo.Weighted>
-11.9946

> <Gold.Chemscore.Internal_Hbond.Weighted>
0.0000

> <Gold.Chemscore.DEClash.Weighted>
0.0998

> <Gold.Chemscore.DEInternal.Weighted>
0.5890

> <Gold.Chemscore.Rot.Weighted>
5.4596

> <Gold.Chemscore.Internal.Correction.Weighted>
   9.000000E+99

> <Gold.Protein.RotatedTorsions>
[ 6907 6896 6895 6894 ] final  -88.82 input  -60.11 | X-H torsion
[ 7974 7965 7964 7962 ] final  -17.35 input  175.53 | X-H torsion
[ 8008 7997 7996 7995 ] final   98.92 input   59.86 | X-H torsion
[ 10167 10162 10161 10158 ] final  131.88 input  -65.29 | X-H torsion
[ 10718 10713 10712 10709 ] final  -21.01 input   66.30 | X-H torsion
[ 10763 10752 10751 10750 ] final   -8.78 input  -60.55 | X-H torsion
[ 11005 11000 10999 10996 ] final  157.64 input  -57.11 | X-H torsion

> <Gold.Protein.ActiveResidues>
 VAL166  LYS551  ARG553  GLY616  TRP617  ASP618  TYR619  PRO620  LYS621  CYS622 
 ASP623  PHE694  ASN695  SER759  ASP760  ASP761  ALA762  ILE779  LEU786  VAL792 
 PHE793  MET794  SER795  GLU796  ALA797  LYS798  CYS799  TRP800  GLU811  SER814 

> <Gold.Protein.RotatedAtoms>
  150.6870  134.2683  159.4577 H   0  0  0  0  0  0  0  0  0  0  0  0  # atno 6907 bound_to 6896
  152.0607  134.9593  160.0584 H   0  0  0  0  0  0  0  0  0  0  0  0  # atno 6908 bound_to 6896
  152.1021  133.4221  159.4629 H   0  0  0  0  0  0  0  0  0  0  0  0  # atno 6909 bound_to 6896
  146.1945  140.3767  142.8446 H   0  0  0  0  0  0  0  0  0  0  0  0  # atno 7974 bound_to 7965
  156.1053  140.3236  155.7998 H   0  0  0  0  0  0  0  0  0  0  0  0  # atno 8008 bound_to 7997
  155.4766  140.0551  157.2990 H   0  0  0  0  0  0  0  0  0  0  0  0  # atno 8009 bound_to 7997
  154.4723  140.2017  155.9977 H   0  0  0  0  0  0  0  0  0  0  0  0  # atno 8010 bound_to 7997
  139.5364  144.6687  151.4772 H   0  0  0  0  0  0  0  0  0  0  0  0  # atno 10167 bound_to 10162
  156.5240  130.4639  149.6582 H   0  0  0  0  0  0  0  0  0  0  0  0  # atno 10718 bound_to 10713
  153.4454  135.7014  153.6142 H   0  0  0  0  0  0  0  0  0  0  0  0  # atno 10763 bound_to 10752
  153.4500  135.3760  155.2278 H   0  0  0  0  0  0  0  0  0  0  0  0  # atno 10764 bound_to 10752
  154.8728  135.3994  154.3858 H   0  0  0  0  0  0  0  0  0  0  0  0  # atno 10765 bound_to 10752
  140.1789  134.8490  157.2779 H   0  0  0  0  0  0  0  0  0  0  0  0  # atno 11005 bound_to 11000
  144.8552  140.7060  143.6142 LP  0  0  0  0  0  0  0  0  0  0  0  0  # atno 17320 bound_to 7965
  145.3688  139.1663  143.4343 LP  0  0  0  0  0  0  0  0  0  0  0  0  # atno 17321 bound_to 7965
  140.6572  143.8573  150.6848 LP  0  0  0  0  0  0  0  0  0  0  0  0  # atno 17342 bound_to 10162
  140.1957  143.4000  152.1830 LP  0  0  0  0  0  0  0  0  0  0  0  0  # atno 17343 bound_to 10162
  156.3122  130.7235  151.2130 LP  0  0  0  0  0  0  0  0  0  0  0  0  # atno 17370 bound_to 10713
  157.7432  131.0478  150.4963 LP  0  0  0  0  0  0  0  0  0  0  0  0  # atno 17371 bound_to 10713
  140.2291  134.3931  155.7530 LP  0  0  0  0  0  0  0  0  0  0  0  0  # atno 17394 bound_to 11000
  141.2222  133.7205  156.8612 LP  0  0  0  0  0  0  0  0  0  0  0  0  # atno 17395 bound_to 11000

$$$$
