AV-unprocessed.smi:1017|AV-procd|sdf|4438|dock3
  -GOLD-   22720 2393D 1   1.00000     0.00000
 Structure written by MMmdl.
 44 45  0  0  0  0  0  0  0  0  1 V2000
  152.5938  142.0133  159.8108 C   0  0  0  0  0  0  0  0  0  0  0  0
  151.4895  142.7556  159.3245 O   0  0  0  0  0  0  0  0  0  0  0  0
  151.4677  142.8325  157.9093 C   0  0  0  0  0  0  0  0  0  0  0  0
  150.9470  141.5005  157.3482 C   0  0  0  0  0  0  0  0  0  0  0  0
  149.5766  141.6262  156.8407 N   0  0  0  0  0  0  0  0  0  0  0  0
  148.6671  142.0867  157.7781 N   0  0  0  0  0  0  0  0  0  0  0  0
  147.4234  142.2396  157.4605 C   0  0  0  0  0  0  0  0  0  0  0  0
  146.4565  142.7423  158.4779 C   0  0  0  0  0  0  0  0  0  0  0  0
  145.8404  141.9582  159.2002 O   0  0  0  0  0  0  0  0  0  0  0  0
  146.3192  144.0806  158.5486 N   0  0  0  0  0  0  0  0  0  0  0  0
  145.4767  144.8991  159.4366 C   0  0  0  0  0  0  0  0  0  0  0  0
  144.2430  145.4393  158.6566 C   0  0  0  0  0  0  0  0  0  0  0  0
  143.4769  144.4304  158.2392 F   0  0  0  0  0  0  0  0  0  0  0  0
  143.5044  146.2234  159.4439 F   0  0  0  0  0  0  0  0  0  0  0  0
  144.6006  146.1429  157.5827 F   0  0  0  0  0  0  0  0  0  0  0  0
  145.0327  144.1153  160.7051 C   0  0  0  0  0  0  0  0  0  0  0  0
  146.2166  143.6640  161.5799 C   0  0  0  0  0  0  0  0  0  0  0  0
  147.0787  144.8622  162.0015 C   0  0  0  0  0  0  0  0  0  0  0  0
  147.5475  145.6644  160.7792 C   0  0  0  0  0  0  0  0  0  0  0  0
  146.3570  146.0923  159.8980 C   0  0  0  0  0  0  0  0  0  0  0  0
  146.9570  141.9289  156.1144 C   0  0  0  0  0  0  0  0  0  0  0  0
  147.8568  141.4792  155.2128 C   0  0  0  0  0  0  0  0  0  0  0  0
  149.2690  141.2981  155.5499 C   0  0  0  0  0  0  0  0  0  0  0  0
  150.1045  140.8850  154.7464 O   0  0  0  0  0  0  0  0  0  0  0  0
  152.5668  141.9894  160.9003 H   0  0  0  0  0  0  0  0  0  0  0  0
  153.5386  142.4665  159.5076 H   0  0  0  0  0  0  0  0  0  0  0  0
  152.5672  140.9839  159.4505 H   0  0  0  0  0  0  0  0  0  0  0  0
  150.8260  143.6567  157.5933 H   0  0  0  0  0  0  0  0  0  0  0  0
  152.4718  143.0316  157.5310 H   0  0  0  0  0  0  0  0  0  0  0  0
  151.6103  141.1620  156.5500 H   0  0  0  0  0  0  0  0  0  0  0  0
  150.9977  140.7259  158.1154 H   0  0  0  0  0  0  0  0  0  0  0  0
  146.8796  144.6112  157.8977 H   0  0  0  0  0  0  0  0  0  0  0  0
  144.3840  144.7509  161.3087 H   0  0  0  0  0  0  0  0  0  0  0  0
  144.4211  143.2524  160.4442 H   0  0  0  0  0  0  0  0  0  0  0  0
  145.8448  143.1483  162.4655 H   0  0  0  0  0  0  0  0  0  0  0  0
  146.8279  142.9402  161.0399 H   0  0  0  0  0  0  0  0  0  0  0  0
  146.5026  145.5098  162.6637 H   0  0  0  0  0  0  0  0  0  0  0  0
  147.9396  144.5189  162.5759 H   0  0  0  0  0  0  0  0  0  0  0  0
  148.0975  146.5464  161.1083 H   0  0  0  0  0  0  0  0  0  0  0  0
  148.2508  145.0680  160.1969 H   0  0  0  0  0  0  0  0  0  0  0  0
  146.7287  146.6426  159.0326 H   0  0  0  0  0  0  0  0  0  0  0  0
  145.7517  146.8013  160.4636 H   0  0  0  0  0  0  0  0  0  0  0  0
  145.9244  142.0482  155.8216 H   0  0  0  0  0  0  0  0  0  0  0  0
  147.5256  141.2456  154.2116 H   0  0  0  0  0  0  0  0  0  0  0  0
  1  2  1  0  0  0  0
  1 25  1  0  0  0  0
  1 26  1  0  0  0  0
  1 27  1  0  0  0  0
  2  3  1  0  0  0  0
  3  4  1  0  0  0  0
  3 28  1  0  0  0  0
  3 29  1  0  0  0  0
  4  5  1  0  0  0  0
  4 30  1  0  0  0  0
  4 31  1  0  0  0  0
  5 23  1  0  0  0  0
  5  6  1  0  0  0  0
  6  7  2  0  0  0  0
  7  8  1  0  0  0  0
  7 21  1  0  0  0  0
  8  9  2  0  0  0  0
  8 10  1  0  0  0  0
 10 11  1  0  0  0  0
 10 32  1  0  0  0  0
 11 20  1  0  0  0  0
 11 12  1  0  0  0  0
 11 16  1  0  0  0  0
 12 13  1  0  0  0  0
 12 14  1  0  0  0  0
 12 15  1  0  0  0  0
 16 17  1  0  0  0  0
 16 33  1  0  0  0  0
 16 34  1  0  0  0  0
 17 18  1  0  0  0  0
 17 35  1  0  0  0  0
 17 36  1  0  0  0  0
 18 19  1  0  0  0  0
 18 37  1  0  0  0  0
 18 38  1  0  0  0  0
 19 20  1  0  0  0  0
 19 39  1  0  0  0  0
 19 40  1  0  0  0  0
 20 41  1  0  0  0  0
 20 42  1  0  0  0  0
 21 22  2  0  0  0  0
 21 43  1  0  0  0  0
 22 23  1  0  0  0  0
 22 44  1  0  0  0  0
 23 24  2  0  0  0  0
M  END
> <s_m_source_file>
AV-unprocessed.smi

> <i_m_source_file_index>
1017

> <i_lp_mmshare_version>
43012

> <i_f3d_flags>
0

> <s_epik_input>
W0NIM11PW0NIMl1bQ0gyXW4xbmMoW2NIXVtjSF1jMT1PKUMoPU8pW05IXUMyKEMoRikoRilGKVtDSDJdW0NIMl1bQ0gyXVtDSDJdW0NIMl0y

> <s_epik_cmdline>
J2VwaWtfcHl0aG9uJywgJy1waCcsICc3LjAnLCAnLXRuJywgJzgnLCAnLW1hJywgJzIwMCcsICctbWV0YWxfYmluZGluZycsICctaW1hZScsICc8aW5maWxlLm1hZT4nLCAnLW9tYWUnLCAnPG91dGZpbGUubWFlPic=

> <r_lp_tautomer_probability>
1

> <r_epik_Ionization_Penalty>
9.29602e-06

> <r_epik_Ionization_Penalty_Charging>
4.97824e-09

> <r_epik_Ionization_Penalty_Neutral>
9.29104e-06

> <r_epik_State_Penalty>
-0

> <r_epik_Charging_Adjusted_Penalty>
4.97824e-09

> <i_epik_Tot_Q>
0

> <i_epik_Tot_abs_Q>
0

> <r_epik_Metal_State_Penalty>
0.00907788

> <b_epik_Metal_Only>
0

> <s_lp_Force_Field>
OPLS_2005

> <r_lp_Energy>
35.4859

> <b_lp_Chiralities_Consistent>
1

> <s_lp_Variant>
AV-unprocessed.smi:1017-1

> <Gold.Version>
5.8.1

> <Gold.Id.Protein>
6NUR|6NUR_protein|mol2

> <Gold.PLP.Fitness>
39.4030

> <Gold.PLP.PLP>
-35.7148

> <Gold.PLP.part.hbond>
-3.0000

> <Gold.PLP.part.metal>
0.0000

> <Gold.PLP.part.buried>
-2.9567

> <Gold.PLP.part.nonpolar>
-30.4826

> <Gold.PLP.part.repulsive>
0.3004

> <Gold.PLP.ligand.clash>
0.0000

> <Gold.PLP.ligand.torsion>
2.2756

> <Gold.PLP.Chemscore.Hbond>
2.7040

> <Gold.PLP.Chemscore.CHOScore>
0.0000

> <Gold.PLP.Chemscore.Metal>
0.0000

> <Gold.Chemscore.Hbonds>
donor molecule, donor type, donor heavy atom, donor atom, acceptor molecule, acceptor atom, score
      L1  H    10    32       P1  8029  1.00
      P1  H  6934  6946       L1     9  0.71
      P1  H  7989  7998       L1    24  0.74

> <Gold.PLP.Chemscore.Internal.Correction>
0.1275

> <Gold.Rescore>
     Score         DG    S(hbond)    S(metal)    S(lipo)     H(rot)  DE(clash)    DE(int)     intcor
     11.47     -17.69       2.33        0.00      75.02       1.70       1.37       4.85       ----

> <Gold.Chemscore.Fitness>
11.4732

> <Gold.Chemscore.DG>
-17.6945

> <Gold.Chemscore.ZeroCoef>
-5.4800

> <Gold.Chemscore.Hbond>
2.3308

> <Gold.Chemscore.Metal>
0.0000

> <Gold.Chemscore.Lipo>
75.0184

> <Gold.Chemscore.Internal_Hbond>
0.0000

> <Gold.Chemscore.DEClash>
1.3687

> <Gold.Chemscore.DEInternal>
4.8526

> <Gold.Chemscore.Rot>
1.6982

> <Gold.Chemscore.Internal.Correction>
   9.000000E+99

> <Gold.Chemscore.Hbonds>
donor molecule, donor type, donor heavy atom, donor atom, acceptor molecule, acceptor atom, score
      L1  H    10    32       P1  8029  0.45
      P1  H  6934  6946       L1     9  0.67
      P1  H  7989  7998       L1    24  0.71

> <Gold.Chemscore.Hbond.Weighted>
-7.7847

> <Gold.Chemscore.Metal.Weighted>
-0.0000

> <Gold.Chemscore.Lipo.Weighted>
-8.7772

> <Gold.Chemscore.Internal_Hbond.Weighted>
0.0000

> <Gold.Chemscore.DEClash.Weighted>
1.3687

> <Gold.Chemscore.DEInternal.Weighted>
4.8526

> <Gold.Chemscore.Rot.Weighted>
4.3474

> <Gold.Chemscore.Internal.Correction.Weighted>
   9.000000E+99

> <Gold.Protein.RotatedTorsions>
[ 6907 6896 6895 6894 ] final  -69.51 input  -60.11 | X-H torsion
[ 7974 7965 7964 7962 ] final   55.27 input  175.53 | X-H torsion
[ 8008 7997 7996 7995 ] final  103.64 input   59.86 | X-H torsion
[ 10167 10162 10161 10158 ] final -161.43 input  -65.29 | X-H torsion
[ 10718 10713 10712 10709 ] final  -66.30 input   66.30 | X-H torsion
[ 10763 10752 10751 10750 ] final  -16.04 input  -60.55 | X-H torsion
[ 11005 11000 10999 10996 ] final   55.33 input  -57.11 | X-H torsion

> <Gold.Protein.ActiveResidues>
 VAL166  LYS551  ARG553  GLY616  TRP617  ASP618  TYR619  PRO620  LYS621  CYS622 
 ASP623  PHE694  ASN695  SER759  ASP760  ASP761  ALA762  ILE779  LEU786  VAL792 
 PHE793  MET794  SER795  GLU796  ALA797  LYS798  CYS799  TRP800  GLU811  SER814 

> <Gold.Protein.RotatedAtoms>
  150.7302  134.5586  159.5830 H   0  0  0  0  0  0  0  0  0  0  0  0  # atno 6907 bound_to 6896
  152.3055  134.7557  160.0357 H   0  0  0  0  0  0  0  0  0  0  0  0  # atno 6908 bound_to 6896
  151.8123  133.3348  159.3595 H   0  0  0  0  0  0  0  0  0  0  0  0  # atno 6909 bound_to 6896
  145.9522  139.3982  143.0299 H   0  0  0  0  0  0  0  0  0  0  0  0  # atno 7974 bound_to 7965
  156.1502  140.3161  155.8636 H   0  0  0  0  0  0  0  0  0  0  0  0  # atno 8008 bound_to 7997
  155.3985  140.0498  157.3055 H   0  0  0  0  0  0  0  0  0  0  0  0  # atno 8009 bound_to 7997
  154.5052  140.2144  155.9277 H   0  0  0  0  0  0  0  0  0  0  0  0  # atno 8010 bound_to 7997
  139.6466  144.0162  152.2131 H   0  0  0  0  0  0  0  0  0  0  0  0  # atno 10167 bound_to 10162
  156.0620  130.4260  150.1689 H   0  0  0  0  0  0  0  0  0  0  0  0  # atno 10718 bound_to 10713
  153.5524  135.7011  153.5585 H   0  0  0  0  0  0  0  0  0  0  0  0  # atno 10763 bound_to 10752
  153.3503  135.3997  155.1641 H   0  0  0  0  0  0  0  0  0  0  0  0  # atno 10764 bound_to 10752
  154.8659  135.3764  154.5036 H   0  0  0  0  0  0  0  0  0  0  0  0  # atno 10765 bound_to 10752
  140.0615  134.5595  155.9146 H   0  0  0  0  0  0  0  0  0  0  0  0  # atno 11005 bound_to 11000
  145.8156  140.9705  143.0926 LP  0  0  0  0  0  0  0  0  0  0  0  0  # atno 17320 bound_to 7965
  144.6798  139.9976  143.7484 LP  0  0  0  0  0  0  0  0  0  0  0  0  # atno 17321 bound_to 7965
  139.9865  144.6392  150.7853 LP  0  0  0  0  0  0  0  0  0  0  0  0  # atno 17342 bound_to 10162
  140.7517  143.2978  151.3160 LP  0  0  0  0  0  0  0  0  0  0  0  0  # atno 17343 bound_to 10162
  156.9756  130.9848  151.3449 LP  0  0  0  0  0  0  0  0  0  0  0  0  # atno 17370 bound_to 10713
  157.5635  130.8262  149.8297 LP  0  0  0  0  0  0  0  0  0  0  0  0  # atno 17371 bound_to 10713
  141.1975  133.6597  156.5745 LP  0  0  0  0  0  0  0  0  0  0  0  0  # atno 17394 bound_to 11000
  140.3763  134.7562  157.4632 LP  0  0  0  0  0  0  0  0  0  0  0  0  # atno 17395 bound_to 11000

$$$$
