AV-unprocessed.smi:1668|AV-procd|sdf|6682|dock4
  -GOLD-   22720 7403D 1   1.00000     0.00000
 Structure written by MMmdl.
 44 46  0  0  0  0  0  0  0  0  1 V2000
  145.8700  143.2825  153.4957 C   0  0  0  0  0  0  0  0  0  0  0  0
  146.2435  142.6649  154.7187 O   0  0  0  0  0  0  0  0  0  0  0  0
  147.3508  141.8439  154.7191 C   0  0  0  0  0  0  0  0  0  0  0  0
  147.8044  141.1181  153.5929 C   0  0  0  0  0  0  0  0  0  0  0  0
  148.9445  140.2988  153.6845 C   0  0  0  0  0  0  0  0  0  0  0  0
  149.6640  140.1866  154.9003 C   0  0  0  0  0  0  0  0  0  0  0  0
  150.7823  139.3913  155.0474 O   0  0  0  0  0  0  0  0  0  0  0  0
  150.8888  138.2166  154.2573 C   0  0  0  0  0  0  0  0  0  0  0  0
  149.2178  140.9189  156.0278 C   0  0  0  0  0  0  0  0  0  0  0  0
  149.9591  140.8142  157.3590 C   0  0  1  0  0  0  0  0  0  0  0  0
  149.8576  139.5190  157.9200 O   0  0  0  0  0  0  0  0  0  0  0  0
  151.4514  141.1593  157.1816 C   0  0  0  0  0  0  0  0  0  0  0  0
  152.0292  141.7195  158.4019 N   0  0  0  0  0  0  0  0  0  0  0  0
  152.7824  141.0601  159.3138 C   0  0  0  0  0  0  0  0  0  0  0  0
  153.1201  139.8781  159.2541 O   0  0  0  0  0  0  0  0  0  0  0  0
  153.0942  141.9278  160.3053 N   0  0  0  0  0  0  0  0  0  0  0  0
  153.8870  141.6502  161.4970 C   0  0  0  0  0  0  0  0  0  0  0  0
  152.5161  143.1724  160.0261 C   0  0  0  0  0  0  0  0  0  0  0  0
  152.5383  144.3817  160.7418 C   0  0  0  0  0  0  0  0  0  0  0  0
  151.8408  145.4772  160.1803 C   0  0  0  0  0  0  0  0  0  0  0  0
  151.1522  145.3454  158.9462 C   0  0  0  0  0  0  0  0  0  0  0  0
  151.1470  144.1157  158.2471 C   0  0  0  0  0  0  0  0  0  0  0  0
  151.8471  143.0434  158.8275 C   0  0  0  0  0  0  0  0  0  0  0  0
  148.0646  141.7298  155.9271 C   0  0  0  0  0  0  0  0  0  0  0  0
  144.9896  143.9033  153.6606 H   0  0  0  0  0  0  0  0  0  0  0  0
  145.6141  142.5425  152.7362 H   0  0  0  0  0  0  0  0  0  0  0  0
  146.6627  143.9296  153.1177 H   0  0  0  0  0  0  0  0  0  0  0  0
  147.2918  141.1691  152.6444 H   0  0  0  0  0  0  0  0  0  0  0  0
  149.2462  139.7611  152.7988 H   0  0  0  0  0  0  0  0  0  0  0  0
  151.8226  137.7081  154.4975 H   0  0  0  0  0  0  0  0  0  0  0  0
  150.9063  138.4520  153.1923 H   0  0  0  0  0  0  0  0  0  0  0  0
  150.0731  137.5223  154.4624 H   0  0  0  0  0  0  0  0  0  0  0  0
  149.5025  141.4972  158.0758 H   0  0  0  0  0  0  0  0  0  0  0  0
  150.5898  139.3871  158.5026 H   0  0  0  0  0  0  0  0  0  0  0  0
  152.0166  140.2930  156.8338 H   0  0  0  0  0  0  0  0  0  0  0  0
  151.5608  141.9137  156.4013 H   0  0  0  0  0  0  0  0  0  0  0  0
  154.6577  142.4104  161.6256 H   0  0  0  0  0  0  0  0  0  0  0  0
  154.3814  140.6795  161.4423 H   0  0  0  0  0  0  0  0  0  0  0  0
  153.2497  141.6561  162.3815 H   0  0  0  0  0  0  0  0  0  0  0  0
  153.0643  144.4738  161.6807 H   0  0  0  0  0  0  0  0  0  0  0  0
  151.8325  146.4254  160.6972 H   0  0  0  0  0  0  0  0  0  0  0  0
  150.6263  146.1941  158.5347 H   0  0  0  0  0  0  0  0  0  0  0  0
  150.6267  144.0108  157.3073 H   0  0  0  0  0  0  0  0  0  0  0  0
  147.7133  142.2761  156.7902 H   0  0  0  0  0  0  0  0  0  0  0  0
  1  2  1  0  0  0  0
  1 25  1  0  0  0  0
  1 26  1  0  0  0  0
  1 27  1  0  0  0  0
  2  3  1  0  0  0  0
  3 24  1  0  0  0  0
  3  4  2  0  0  0  0
  4  5  1  0  0  0  0
  4 28  1  0  0  0  0
  5  6  2  0  0  0  0
  5 29  1  0  0  0  0
  6  7  1  0  0  0  0
  6  9  1  0  0  0  0
  7  8  1  0  0  0  0
  8 30  1  0  0  0  0
  8 31  1  0  0  0  0
  8 32  1  0  0  0  0
  9 10  1  0  0  0  0
  9 24  2  0  0  0  0
 10 11  1  0  0  0  0
 10 12  1  0  0  0  0
 10 33  1  0  0  0  0
 11 34  1  0  0  0  0
 12 13  1  0  0  0  0
 12 35  1  0  0  0  0
 12 36  1  0  0  0  0
 13 23  1  0  0  0  0
 13 14  1  0  0  0  0
 14 15  2  0  0  0  0
 14 16  1  0  0  0  0
 16 17  1  0  0  0  0
 16 18  1  0  0  0  0
 17 37  1  0  0  0  0
 17 38  1  0  0  0  0
 17 39  1  0  0  0  0
 18 23  2  0  0  0  0
 18 19  1  0  0  0  0
 19 20  2  0  0  0  0
 19 40  1  0  0  0  0
 20 21  1  0  0  0  0
 20 41  1  0  0  0  0
 21 22  2  0  0  0  0
 21 42  1  0  0  0  0
 22 23  1  0  0  0  0
 22 43  1  0  0  0  0
 24 44  1  0  0  0  0
M  END
> <s_m_source_file>
AV-unprocessed.smi

> <i_m_source_file_index>
1668

> <i_lp_mmshare_version>
43012

> <i_f3d_flags>
0

> <s_epik_input>
W0NIM11PYzFbY0hdW2NIXWMoT1tDSDNdKWMoW2NIXTEpW0NASF0oW09IXSlbQ0gyXW4oYyg9TyluMltDSDNdKWMoYzIzKVtjSF1bY0hdW2NIXVtjSF0z

> <s_epik_cmdline>
J2VwaWtfcHl0aG9uJywgJy1waCcsICc3LjAnLCAnLXRuJywgJzgnLCAnLW1hJywgJzIwMCcsICctbWV0YWxfYmluZGluZycsICctaW1hZScsICc8aW5maWxlLm1hZT4nLCAnLW9tYWUnLCAnPG91dGZpbGUubWFlPic=

> <r_lp_tautomer_probability>
1

> <r_epik_Ionization_Penalty>
1.34538e-06

> <r_epik_Ionization_Penalty_Charging>
1.76928e-09

> <r_epik_Ionization_Penalty_Neutral>
1.34362e-06

> <r_epik_State_Penalty>
-0

> <r_epik_Charging_Adjusted_Penalty>
1.76928e-09

> <i_epik_Tot_Q>
0

> <i_epik_Tot_abs_Q>
0

> <r_epik_Metal_State_Penalty>
-0

> <b_epik_Metal_Only>
0

> <s_lp_Force_Field>
OPLS_2005

> <r_lp_Energy>
50.494

> <b_lp_Chiralities_Consistent>
1

> <s_lp_Variant>
AV-unprocessed.smi:1668-2

> <Gold.Version>
5.8.1

> <Gold.Id.Protein>
6NUR|6NUR_protein|mol2

> <Gold.PLP.Fitness>
49.8462

> <Gold.PLP.PLP>
-52.1668

> <Gold.PLP.part.hbond>
-0.5102

> <Gold.PLP.part.metal>
0.0000

> <Gold.PLP.part.buried>
-4.6148

> <Gold.PLP.part.nonpolar>
-47.5488

> <Gold.PLP.part.repulsive>
0.2504

> <Gold.PLP.ligand.clash>
0.0000

> <Gold.PLP.ligand.torsion>
1.4020

> <Gold.PLP.Chemscore.Hbond>
0.1479

> <Gold.PLP.Chemscore.CHOScore>
0.0000

> <Gold.PLP.Chemscore.Metal>
0.0000

> <Gold.Chemscore.Hbonds>
donor molecule, donor type, donor heavy atom, donor atom, acceptor molecule, acceptor atom, score
      P1  H  7989  7998       L1     7  0.03

> <Gold.PLP.Chemscore.Internal.Correction>
0.0397

> <Gold.Rescore>
     Score         DG    S(hbond)    S(metal)    S(lipo)     H(rot)  DE(clash)    DE(int)     intcor
     12.61     -16.71       0.00        0.00     145.12       2.24       1.67       2.43       ----

> <Gold.Chemscore.Fitness>
12.6147

> <Gold.Chemscore.DG>
-16.7124

> <Gold.Chemscore.ZeroCoef>
-5.4800

> <Gold.Chemscore.Hbond>
0.0000

> <Gold.Chemscore.Metal>
0.0000

> <Gold.Chemscore.Lipo>
145.1205

> <Gold.Chemscore.Internal_Hbond>
0.0000

> <Gold.Chemscore.DEClash>
1.6724

> <Gold.Chemscore.DEInternal>
2.4253

> <Gold.Chemscore.Rot>
2.2448

> <Gold.Chemscore.Internal.Correction>
   9.000000E+99

> <Gold.Chemscore.Hbond.Weighted>
-0.0000

> <Gold.Chemscore.Metal.Weighted>
-0.0000

> <Gold.Chemscore.Lipo.Weighted>
-16.9791

> <Gold.Chemscore.Internal_Hbond.Weighted>
0.0000

> <Gold.Chemscore.DEClash.Weighted>
1.6724

> <Gold.Chemscore.DEInternal.Weighted>
2.4253

> <Gold.Chemscore.Rot.Weighted>
5.7467

> <Gold.Chemscore.Internal.Correction.Weighted>
   9.000000E+99

> <Gold.Protein.RotatedTorsions>
[ 6907 6896 6895 6894 ] final   78.63 input  -60.11 | X-H torsion
[ 7974 7965 7964 7962 ] final  179.61 input  175.53 | X-H torsion
[ 8008 7997 7996 7995 ] final  103.92 input   59.86 | X-H torsion
[ 10167 10162 10161 10158 ] final -141.89 input  -65.29 | X-H torsion
[ 10718 10713 10712 10709 ] final -139.06 input   66.30 | X-H torsion
[ 10763 10752 10751 10750 ] final   17.33 input  -60.55 | X-H torsion
[ 11005 11000 10999 10996 ] final  -70.73 input  -57.11 | X-H torsion

> <Gold.Protein.ActiveResidues>
 VAL166  LYS551  ARG553  GLY616  TRP617  ASP618  TYR619  PRO620  LYS621  CYS622 
 ASP623  PHE694  ASN695  SER759  ASP760  ASP761  ALA762  ILE779  LEU786  VAL792 
 PHE793  MET794  SER795  GLU796  ALA797  LYS798  CYS799  TRP800  GLU811  SER814 

> <Gold.Protein.RotatedAtoms>
  152.5167  134.3634  159.9292 H   0  0  0  0  0  0  0  0  0  0  0  0  # atno 6907 bound_to 6896
  151.3587  133.3891  159.2695 H   0  0  0  0  0  0  0  0  0  0  0  0  # atno 6908 bound_to 6896
  150.9669  134.9067  159.7823 H   0  0  0  0  0  0  0  0  0  0  0  0  # atno 6909 bound_to 6896
  144.7144  140.0573  143.6433 H   0  0  0  0  0  0  0  0  0  0  0  0  # atno 7974 bound_to 7965
  156.1527  140.3156  155.8674 H   0  0  0  0  0  0  0  0  0  0  0  0  # atno 8008 bound_to 7997
  155.3940  140.0495  157.3056 H   0  0  0  0  0  0  0  0  0  0  0  0  # atno 8009 bound_to 7997
  154.5073  140.2151  155.9238 H   0  0  0  0  0  0  0  0  0  0  0  0  # atno 8010 bound_to 7997
  139.8141  143.7662  152.2664 H   0  0  0  0  0  0  0  0  0  0  0  0  # atno 10167 bound_to 10162
  156.3064  130.7457  151.1522 H   0  0  0  0  0  0  0  0  0  0  0  0  # atno 10718 bound_to 10713
  153.1349  135.6748  153.9119 H   0  0  0  0  0  0  0  0  0  0  0  0  # atno 10763 bound_to 10752
  153.8594  135.3083  155.3438 H   0  0  0  0  0  0  0  0  0  0  0  0  # atno 10764 bound_to 10752
  154.7739  135.4925  153.9786 H   0  0  0  0  0  0  0  0  0  0  0  0  # atno 10765 bound_to 10752
  141.1579  133.6798  156.6797 H   0  0  0  0  0  0  0  0  0  0  0  0  # atno 11005 bound_to 11000
  145.9893  139.3002  143.0994 LP  0  0  0  0  0  0  0  0  0  0  0  0  # atno 17320 bound_to 7965
  145.8921  140.9297  143.0547 LP  0  0  0  0  0  0  0  0  0  0  0  0  # atno 17321 bound_to 7965
  139.7820  144.7441  151.0074 LP  0  0  0  0  0  0  0  0  0  0  0  0  # atno 17342 bound_to 10162
  140.7816  143.4532  151.0383 LP  0  0  0  0  0  0  0  0  0  0  0  0  # atno 17343 bound_to 10162
  157.7380  131.0545  150.5318 LP  0  0  0  0  0  0  0  0  0  0  0  0  # atno 17370 bound_to 10713
  156.5452  130.4218  149.6134 LP  0  0  0  0  0  0  0  0  0  0  0  0  # atno 17371 bound_to 10713
  140.3112  134.8085  157.4177 LP  0  0  0  0  0  0  0  0  0  0  0  0  # atno 17394 bound_to 11000
  140.1177  134.5261  155.8210 LP  0  0  0  0  0  0  0  0  0  0  0  0  # atno 17395 bound_to 11000

$$$$
