AV-unprocessed.smi:1999|AV-procd|sdf|8094|dock10
  -GOLD-   2272010313D 1   1.00000     0.00000
 Structure written by MMmdl.
 39 40  0  0  0  0  0  0  0  0  2 V2000
  145.4759  129.8047  151.8919 C   0  0  0  0  0  0  0  0  0  0  0  0
  145.5149  131.2881  151.7515 C   0  0  0  0  0  0  0  0  0  0  0  0
  144.5330  131.9823  151.1636 N   0  0  0  0  0  0  0  0  0  0  0  0
  144.7874  133.3465  151.1510 N   0  0  0  0  0  0  0  0  0  0  0  0
  145.9589  133.6415  151.7311 C   0  0  0  0  0  0  0  0  0  0  0  0
  146.4630  134.9627  151.8623 N   0  0  0  0  0  0  0  0  0  0  0  0
  145.7753  136.0972  152.0793 C   0  0  0  0  0  0  0  0  0  0  0  0
  144.5502  136.1816  152.1679 O   0  0  0  0  0  0  0  0  0  0  0  0
  146.5986  137.1494  152.2019 N   0  0  0  0  0  0  0  0  0  0  0  0
  146.1934  138.5400  152.4144 C   0  0  2  0  0  0  0  0  0  0  0  0
  146.7167  139.3936  151.2511 C   0  0  0  0  0  0  0  0  0  0  0  0
  146.6994  139.0784  153.7734 C   0  0  0  0  0  0  0  0  0  0  0  0
  146.1783  140.4308  154.0979 N   0  3  0  0  0  0  0  0  0  0  0  0
  145.7620  140.5692  155.5128 C   0  0  0  0  0  0  0  0  0  0  0  0
  145.1609  141.9644  155.7557 C   0  0  0  0  0  0  0  0  0  0  0  0
  146.1057  142.9636  155.3915 O   0  0  0  0  0  0  0  0  0  0  0  0
  146.4549  142.8909  154.0142 C   0  0  0  0  0  0  0  0  0  0  0  0
  147.1025  141.5278  153.7208 C   0  0  0  0  0  0  0  0  0  0  0  0
  146.8522  132.2631  152.3499 S   0  0  0  0  0  0  0  0  0  0  0  0
  145.2455  129.3419  150.9321 H   0  0  0  0  0  0  0  0  0  0  0  0
  144.7106  129.5183  152.6134 H   0  0  0  0  0  0  0  0  0  0  0  0
  146.4398  129.4301  152.2368 H   0  0  0  0  0  0  0  0  0  0  0  0
  147.4658  135.0511  151.7904 H   0  0  0  0  0  0  0  0  0  0  0  0
  147.5906  136.9805  152.1156 H   0  0  0  0  0  0  0  0  0  0  0  0
  145.1049  138.6018  152.3836 H   0  0  0  0  0  0  0  0  0  0  0  0
  146.4027  140.4326  151.3553 H   0  0  0  0  0  0  0  0  0  0  0  0
  146.3368  139.0313  150.2951 H   0  0  0  0  0  0  0  0  0  0  0  0
  147.8060  139.3788  151.2040 H   0  0  0  0  0  0  0  0  0  0  0  0
  146.3878  138.3791  154.5510 H   0  0  0  0  0  0  0  0  0  0  0  0
  147.7901  139.0940  153.8015 H   0  0  0  0  0  0  0  0  0  0  0  0
  145.0231  139.8059  155.7594 H   0  0  0  0  0  0  0  0  0  0  0  0
  146.6216  140.4096  156.1655 H   0  0  0  0  0  0  0  0  0  0  0  0
  144.2389  142.0952  155.1868 H   0  0  0  0  0  0  0  0  0  0  0  0
  144.9056  142.0857  156.8085 H   0  0  0  0  0  0  0  0  0  0  0  0
  145.5718  143.0453  153.3916 H   0  0  0  0  0  0  0  0  0  0  0  0
  147.1522  143.6962  153.7829 H   0  0  0  0  0  0  0  0  0  0  0  0
  148.0360  141.4312  154.2774 H   0  0  0  0  0  0  0  0  0  0  0  0
  147.3543  141.4674  152.6623 H   0  0  0  0  0  0  0  0  0  0  0  0
  145.3411  140.5523  153.5453 H   0  0  0  0  0  0  0  0  0  0  0  0
  1  2  1  0  0  0  0
  1 20  1  0  0  0  0
  1 21  1  0  0  0  0
  1 22  1  0  0  0  0
  2 19  1  0  0  0  0
  2  3  2  0  0  0  0
  3  4  1  0  0  0  0
  4  5  2  0  0  0  0
  5  6  1  0  0  0  0
  5 19  1  0  0  0  0
  6  7  1  0  0  0  0
  6 23  1  0  0  0  0
  7  8  2  0  0  0  0
  7  9  1  0  0  0  0
  9 10  1  0  0  0  0
  9 24  1  0  0  0  0
 10 11  1  0  0  0  0
 10 12  1  0  0  0  0
 10 25  1  0  0  0  0
 11 26  1  0  0  0  0
 11 27  1  0  0  0  0
 11 28  1  0  0  0  0
 12 13  1  0  0  0  0
 12 29  1  0  0  0  0
 12 30  1  0  0  0  0
 13 18  1  0  0  0  0
 13 14  1  0  0  0  0
 13 39  1  0  0  0  0
 14 15  1  0  0  0  0
 14 31  1  0  0  0  0
 14 32  1  0  0  0  0
 15 16  1  0  0  0  0
 15 33  1  0  0  0  0
 15 34  1  0  0  0  0
 16 17  1  0  0  0  0
 17 18  1  0  0  0  0
 17 35  1  0  0  0  0
 17 36  1  0  0  0  0
 18 37  1  0  0  0  0
 18 38  1  0  0  0  0
M  CHG  1  13   1
M  END
> <s_m_source_file>
AV-unprocessed.smi

> <i_m_source_file_index>
1999

> <i_lp_mmshare_version>
43012

> <i_f3d_flags>
0

> <s_epik_input>
W0NIM11jMW5uYyhzMSlbTkhdQyg9TylbTkhdW0NASF0oW0NIM10pW0NIMl1OMltDSDJdW0NIMl1PW0NIMl1bQ0gyXTI=

> <s_epik_cmdline>
J2VwaWtfcHl0aG9uJywgJy1waCcsICc3LjAnLCAnLXRuJywgJzgnLCAnLW1hJywgJzIwMCcsICctbWV0YWxfYmluZGluZycsICctaW1hZScsICc8aW5maWxlLm1hZT4nLCAnLW9tYWUnLCAnPG91dGZpbGUubWFlPic=

> <r_lp_tautomer_probability>
1

> <r_epik_Ionization_Penalty>
0.701298

> <r_epik_Ionization_Penalty_Charging>
0.695697

> <r_epik_Ionization_Penalty_Neutral>
0.00560124

> <r_epik_State_Penalty>
0.717972

> <r_epik_Charging_Adjusted_Penalty>
1.41367

> <i_epik_Tot_Q>
1

> <i_epik_Tot_abs_Q>
1

> <r_epik_Metal_State_Penalty>
1.07748

> <b_epik_Metal_Only>
0

> <s_lp_Force_Field>
OPLS_2005

> <r_lp_Energy>
20.3025

> <b_lp_Chiralities_Consistent>
1

> <s_lp_Variant>
AV-unprocessed.smi:1999-3

> <Gold.Version>
5.8.1

> <Gold.Id.Protein>
6NUR|6NUR_protein|mol2

> <Gold.PLP.Fitness>
39.5256

> <Gold.PLP.PLP>
-29.2870

> <Gold.PLP.part.hbond>
-2.9544

> <Gold.PLP.part.metal>
0.0000

> <Gold.PLP.part.buried>
-2.0760

> <Gold.PLP.part.nonpolar>
-24.9006

> <Gold.PLP.part.repulsive>
0.7229

> <Gold.PLP.ligand.clash>
0.0000

> <Gold.PLP.ligand.torsion>
0.8164

> <Gold.PLP.Chemscore.Hbond>
3.9440

> <Gold.PLP.Chemscore.CHOScore>
0.0000

> <Gold.PLP.Chemscore.Metal>
0.0000

> <Gold.Chemscore.Hbonds>
donor molecule, donor type, donor heavy atom, donor atom, acceptor molecule, acceptor atom, score
      L1  H     6    23       P1  7948  0.94
      L1  H     9    24       P1  7948  1.00
      L1  H    13    39       P1 10175  2.00

> <Gold.PLP.Chemscore.Internal.Correction>
0.0394

> <Gold.Rescore>
     Score         DG    S(hbond)    S(metal)    S(lipo)     H(rot)  DE(clash)    DE(int)     intcor
     15.73     -18.05       2.76        0.00      64.22       1.63       0.48       1.84       ----

> <Gold.Chemscore.Fitness>
15.7338

> <Gold.Chemscore.DG>
-18.0502

> <Gold.Chemscore.ZeroCoef>
-5.4800

> <Gold.Chemscore.Hbond>
2.7644

> <Gold.Chemscore.Metal>
0.0000

> <Gold.Chemscore.Lipo>
64.2247

> <Gold.Chemscore.Internal_Hbond>
0.0000

> <Gold.Chemscore.DEClash>
0.4780

> <Gold.Chemscore.DEInternal>
1.8385

> <Gold.Chemscore.Rot>
1.6317

> <Gold.Chemscore.Internal.Correction>
   9.000000E+99

> <Gold.Chemscore.Hbonds>
donor molecule, donor type, donor heavy atom, donor atom, acceptor molecule, acceptor atom, score
      L1  H     6    23       P1  7948  0.78
      L1  H     9    24       P1  7948  0.96
      L1  H    13    39       P1 10175  0.96

> <Gold.Chemscore.Hbond.Weighted>
-9.2332

> <Gold.Chemscore.Metal.Weighted>
-0.0000

> <Gold.Chemscore.Lipo.Weighted>
-7.5143

> <Gold.Chemscore.Internal_Hbond.Weighted>
0.0000

> <Gold.Chemscore.DEClash.Weighted>
0.4780

> <Gold.Chemscore.DEInternal.Weighted>
1.8385

> <Gold.Chemscore.Rot.Weighted>
4.1773

> <Gold.Chemscore.Internal.Correction.Weighted>
   9.000000E+99

> <Gold.Protein.RotatedTorsions>
[ 6907 6896 6895 6894 ] final  -90.90 input  -60.11 | X-H torsion
[ 7974 7965 7964 7962 ] final -171.51 input  175.53 | X-H torsion
[ 8008 7997 7996 7995 ] final    4.71 input   59.86 | X-H torsion
[ 10167 10162 10161 10158 ] final  -11.99 input  -65.29 | X-H torsion
[ 10718 10713 10712 10709 ] final  166.48 input   66.30 | X-H torsion
[ 10763 10752 10751 10750 ] final   13.83 input  -60.55 | X-H torsion
[ 11005 11000 10999 10996 ] final   55.04 input  -57.11 | X-H torsion

> <Gold.Protein.ActiveResidues>
 VAL166  LYS551  ARG553  GLY616  TRP617  ASP618  TYR619  PRO620  LYS621  CYS622 
 ASP623  PHE694  ASN695  SER759  ASP760  ASP761  ALA762  ILE779  LEU786  VAL792 
 PHE793  MET794  SER795  GLU796  ALA797  LYS798  CYS799  TRP800  GLU811  SER814 

> <Gold.Protein.RotatedAtoms>
  150.6886  134.2361  159.4453 H   0  0  0  0  0  0  0  0  0  0  0  0  # atno 6907 bound_to 6896
  152.0308  134.9766  160.0582 H   0  0  0  0  0  0  0  0  0  0  0  0  # atno 6908 bound_to 6896
  152.1306  133.4371  159.4756 H   0  0  0  0  0  0  0  0  0  0  0  0  # atno 6909 bound_to 6896
  144.7156  140.1911  143.6348 H   0  0  0  0  0  0  0  0  0  0  0  0  # atno 7974 bound_to 7965
  154.7193  140.2708  155.6556 H   0  0  0  0  0  0  0  0  0  0  0  0  # atno 8008 bound_to 7997
  156.2819  140.2737  156.1784 H   0  0  0  0  0  0  0  0  0  0  0  0  # atno 8009 bound_to 7997
  155.0529  140.0371  157.2540 H   0  0  0  0  0  0  0  0  0  0  0  0  # atno 8010 bound_to 7997
  140.7151  143.5580  150.9227 H   0  0  0  0  0  0  0  0  0  0  0  0  # atno 10167 bound_to 10162
  157.0653  131.0351  151.2632 H   0  0  0  0  0  0  0  0  0  0  0  0  # atno 10718 bound_to 10713
  153.1682  135.6807  153.8646 H   0  0  0  0  0  0  0  0  0  0  0  0  # atno 10763 bound_to 10752
  153.8019  135.3155  155.3392 H   0  0  0  0  0  0  0  0  0  0  0  0  # atno 10764 bound_to 10752
  154.7980  135.4795  154.0297 H   0  0  0  0  0  0  0  0  0  0  0  0  # atno 10765 bound_to 10752
  140.0638  134.5564  155.9121 H   0  0  0  0  0  0  0  0  0  0  0  0  # atno 11005 bound_to 11000
  145.8767  139.2301  143.1629 LP  0  0  0  0  0  0  0  0  0  0  0  0  # atno 17320 bound_to 7965
  146.0033  140.8500  143.0007 LP  0  0  0  0  0  0  0  0  0  0  0  0  # atno 17321 bound_to 7965
  139.9305  143.6499  152.3077 LP  0  0  0  0  0  0  0  0  0  0  0  0  # atno 17342 bound_to 10162
  139.6948  144.7642  151.1375 LP  0  0  0  0  0  0  0  0  0  0  0  0  # atno 17343 bound_to 10162
  157.4922  130.7829  149.7519 LP  0  0  0  0  0  0  0  0  0  0  0  0  # atno 17370 bound_to 10713
  155.9966  130.3904  150.2771 LP  0  0  0  0  0  0  0  0  0  0  0  0  # atno 17371 bound_to 10713
  141.1984  133.6601  156.5792 LP  0  0  0  0  0  0  0  0  0  0  0  0  # atno 17394 bound_to 11000
  140.3729  134.7590  157.4610 LP  0  0  0  0  0  0  0  0  0  0  0  0  # atno 17395 bound_to 11000

$$$$
