AV-unprocessed.smi:157|AV-procd|sdf|1310|dock4
  -GOLD-   2262019 03D 1   1.00000     0.00000
 Structure written by MMmdl.
 36 38  0  0  0  0  0  0  0  0  2 V2000
  152.6509  136.9957  153.8604 O   0  0  0  0  0  0  0  0  0  0  0  0
  152.1404  138.0739  154.6158 C   0  0  0  0  0  0  0  0  0  0  0  0
  151.4214  137.5643  155.8820 C   0  0  2  0  0  0  0  0  0  0  0  0
  150.6211  138.6430  156.3715 O   0  0  0  0  0  0  0  0  0  0  0  0
  151.0798  139.0677  157.6199 C   0  0  2  0  0  0  0  0  0  0  0  0
  151.1197  140.5605  157.6322 N   0  0  0  0  0  0  0  0  0  0  0  0
  150.5578  141.3822  156.7209 C   0  0  0  0  0  0  0  0  0  0  0  0
  150.7455  142.6691  156.9590 N   0  3  0  0  0  0  0  0  0  0  0  0
  151.4924  142.7477  158.1153 C   0  0  0  0  0  0  0  0  0  0  0  0
  151.7257  141.4281  158.5111 C   0  0  0  0  0  0  0  0  0  0  0  0
  152.4453  140.9323  159.6091 N   0  0  0  0  0  0  0  0  0  0  0  0
  153.2597  141.6581  160.3041 C   0  0  0  0  0  0  0  0  0  0  0  0
  153.5281  143.0131  160.2035 N   0  0  0  0  0  0  0  0  0  0  0  0
  152.4919  144.0223  160.0747 C   0  0  0  0  0  0  0  0  0  0  0  0
  151.8637  144.0843  158.6763 C   0  0  1  0  0  0  0  0  0  0  0  0
  152.7267  144.8094  157.8246 O   0  0  0  0  0  0  0  0  0  0  0  0
  152.4811  138.4964  157.7963 C   0  0  0  0  0  0  0  0  0  0  0  0
  152.3302  137.1813  157.0658 C   0  0  2  0  0  0  0  0  0  0  0  0
  153.5864  136.6441  156.7038 O   0  0  0  0  0  0  0  0  0  0  0  0
  150.7631  136.7351  155.6192 H   0  0  0  0  0  0  0  0  0  0  0  0
  150.3807  138.7722  158.4031 H   0  0  0  0  0  0  0  0  0  0  0  0
  150.9506  144.6761  158.7514 H   0  0  0  0  0  0  0  0  0  0  0  0
  151.8103  136.4682  157.7074 H   0  0  0  0  0  0  0  0  0  0  0  0
  152.0581  136.8209  153.1454 H   0  0  0  0  0  0  0  0  0  0  0  0
  152.9401  138.7732  154.8610 H   0  0  0  0  0  0  0  0  0  0  0  0
  151.4342  138.6086  153.9798 H   0  0  0  0  0  0  0  0  0  0  0  0
  150.0038  141.0161  155.8752 H   0  0  0  0  0  0  0  0  0  0  0  0
  153.8375  141.1863  161.1002 H   0  0  0  0  0  0  0  0  0  0  0  0
  154.3447  143.3806  160.6710 H   0  0  0  0  0  0  0  0  0  0  0  0
  151.7139  143.7862  160.8022 H   0  0  0  0  0  0  0  0  0  0  0  0
  152.8906  144.9955  160.3634 H   0  0  0  0  0  0  0  0  0  0  0  0
  153.4320  145.1688  158.3402 H   0  0  0  0  0  0  0  0  0  0  0  0
  153.2116  139.1406  157.3036 H   0  0  0  0  0  0  0  0  0  0  0  0
  152.7399  138.3951  158.8509 H   0  0  0  0  0  0  0  0  0  0  0  0
  154.1699  136.7201  157.4438 H   0  0  0  0  0  0  0  0  0  0  0  0
  150.4007  143.4404  156.4017 H   0  0  0  0  0  0  0  0  0  0  0  0
  1  2  1  0  0  0  0
  1 24  1  0  0  0  0
  2  3  1  0  0  0  0
  2 25  1  0  0  0  0
  2 26  1  0  0  0  0
  3 20  1  0  0  0  0
  3 18  1  0  0  0  0
  3  4  1  0  0  0  0
  4  5  1  0  0  0  0
  5 21  1  0  0  0  0
  5  6  1  0  0  0  0
  5 17  1  0  0  0  0
  6 10  1  0  0  0  0
  6  7  1  0  0  0  0
  7  8  2  0  0  0  0
  7 27  1  0  0  0  0
  8  9  1  0  0  0  0
  8 36  1  0  0  0  0
  9 15  1  0  0  0  0
  9 10  2  0  0  0  0
 10 11  1  0  0  0  0
 11 12  2  0  0  0  0
 12 13  1  0  0  0  0
 12 28  1  0  0  0  0
 13 14  1  0  0  0  0
 13 29  1  0  0  0  0
 14 15  1  0  0  0  0
 14 30  1  0  0  0  0
 14 31  1  0  0  0  0
 15 22  1  0  0  0  0
 15 16  1  0  0  0  0
 16 32  1  0  0  0  0
 17 18  1  0  0  0  0
 17 33  1  0  0  0  0
 17 34  1  0  0  0  0
 18 23  1  0  0  0  0
 18 19  1  0  0  0  0
 19 35  1  0  0  0  0
M  CHG  1   8   1
M  END
> <s_m_source_file>
AV-unprocessed.smi

> <i_m_source_file_index>
157

> <i_lp_mmshare_version>
43012

> <i_f3d_flags>
0

> <s_epik_input>
W09IXVtDSDJdW0NASF0xT1tDQEhdKFtDSDJdW0NAQEhdMVtPSF0pbihbY0hdbjIpYyhjMjMpTj1bQ0hdW05IXVtDSDJdW0NASF0zW09IXQ==

> <s_epik_cmdline>
J2VwaWtfcHl0aG9uJywgJy1waCcsICc3LjAnLCAnLXRuJywgJzgnLCAnLW1hJywgJzIwMCcsICctbWV0YWxfYmluZGluZycsICctaW1hZScsICc8aW5maWxlLm1hZT4nLCAnLW9tYWUnLCAnPG91dGZpbGUubWFlPic=

> <r_epik_Ionization_Penalty>
1.68594

> <r_epik_Ionization_Penalty_Charging>
0

> <r_epik_Ionization_Penalty_Neutral>
1.68594

> <r_epik_State_Penalty>
1.79006

> <r_epik_Charging_Adjusted_Penalty>
1.79006

> <i_epik_Tot_Q>
1

> <i_epik_Tot_abs_Q>
1

> <r_epik_Metal_State_Penalty>
5.85324

> <b_epik_Metal_Only>
0

> <s_epik_Chemistry_Notes>
This compound has an imine and may undergo hydrolysis. This compound contains an acetal/aminal-like group ( X-CH(R)-Y where X, Y are N, S, or O) that may be acid/base labile, releasing an aldehyde.

> <s_lp_Force_Field>
OPLS_2005

> <r_lp_Energy>
54.8473

> <b_lp_Chiralities_Consistent>
1

> <s_lp_Variant>
AV-unprocessed.smi:157-20

> <Gold.Version>
5.8.1

> <Gold.Id.Protein>
6NUR|6NUR_protein|mol2

> <Gold.PLP.Fitness>
46.2154

> <Gold.PLP.PLP>
-32.6274

> <Gold.PLP.part.hbond>
-3.9442

> <Gold.PLP.part.metal>
0.0000

> <Gold.PLP.part.buried>
-6.8493

> <Gold.PLP.part.nonpolar>
-23.1180

> <Gold.PLP.part.repulsive>
0.0532

> <Gold.PLP.ligand.clash>
0.0000

> <Gold.PLP.ligand.torsion>
0.4130

> <Gold.PLP.Chemscore.Hbond>
4.8000

> <Gold.PLP.Chemscore.CHOScore>
0.0000

> <Gold.PLP.Chemscore.Metal>
0.0000

> <Gold.Chemscore.Hbonds>
donor molecule, donor type, donor heavy atom, donor atom, acceptor molecule, acceptor atom, score
      L1  H     1    24       P1  7949  0.96
      L1  H     8    36       P1  8028  1.59
      P1  H 10752 10763       L1     1  0.27
      P1  H 10752 10764       L1    19  0.91

> <Gold.PLP.Chemscore.Internal.Correction>
0.0141

> <Gold.Rescore>
     Score         DG    S(hbond)    S(metal)    S(lipo)     H(rot)  DE(clash)    DE(int)     intcor
     13.54     -13.86       3.43        0.00      53.88       3.67       0.00       0.31       ----

> <Gold.Chemscore.Fitness>
13.5421

> <Gold.Chemscore.DG>
-13.8560

> <Gold.Chemscore.ZeroCoef>
-5.4800

> <Gold.Chemscore.Hbond>
3.4303

> <Gold.Chemscore.Metal>
0.0000

> <Gold.Chemscore.Lipo>
53.8761

> <Gold.Chemscore.Internal_Hbond>
0.0000

> <Gold.Chemscore.DEClash>
0.0000

> <Gold.Chemscore.DEInternal>
0.3139

> <Gold.Chemscore.Rot>
3.6659

> <Gold.Chemscore.Internal.Correction>
   9.000000E+99

> <Gold.Chemscore.Hbonds>
donor molecule, donor type, donor heavy atom, donor atom, acceptor molecule, acceptor atom, score
      L1  H     1    24       P1  7949  0.91
      L1  H     8    36       P1  8028  0.77
      P1  H 10752 10763       L1     1  0.02
      P1  H 10752 10764       L1    19  0.85

> <Gold.Chemscore.Hbond.Weighted>
-11.4573

> <Gold.Chemscore.Metal.Weighted>
-0.0000

> <Gold.Chemscore.Lipo.Weighted>
-6.3035

> <Gold.Chemscore.Internal_Hbond.Weighted>
0.0000

> <Gold.Chemscore.DEClash.Weighted>
0.0000

> <Gold.Chemscore.DEInternal.Weighted>
0.3139

> <Gold.Chemscore.Rot.Weighted>
9.3848

> <Gold.Chemscore.Internal.Correction.Weighted>
   9.000000E+99

> <Gold.Protein.RotatedTorsions>
[ 6907 6896 6895 6894 ] final  -32.98 input  -60.11 | X-H torsion
[ 7974 7965 7964 7962 ] final -102.32 input  175.53 | X-H torsion
[ 8008 7997 7996 7995 ] final   83.50 input   59.86 | X-H torsion
[ 10167 10162 10161 10158 ] final  -59.37 input  -65.29 | X-H torsion
[ 10718 10713 10712 10709 ] final   43.38 input   66.30 | X-H torsion
[ 10763 10752 10751 10750 ] final    6.03 input  -60.55 | X-H torsion
[ 11005 11000 10999 10996 ] final  -45.35 input  -57.11 | X-H torsion

> <Gold.Protein.ActiveResidues>
 VAL166  LYS551  ARG553  GLY616  TRP617  ASP618  TYR619  PRO620  LYS621  CYS622 
 ASP623  PHE694  ASN695  SER759  ASP760  ASP761  ALA762  ILE779  LEU786  VAL792 
 PHE793  MET794  SER795  GLU796  ALA797  LYS798  CYS799  TRP800  GLU811  SER814 

> <Gold.Protein.RotatedAtoms>
  151.0716  134.9802  159.8310 H   0  0  0  0  0  0  0  0  0  0  0  0  # atno 6907 bound_to 6896
  152.5409  134.2292  159.8828 H   0  0  0  0  0  0  0  0  0  0  0  0  # atno 6908 bound_to 6896
  151.2317  133.4403  159.2637 H   0  0  0  0  0  0  0  0  0  0  0  0  # atno 6909 bound_to 6896
  145.2702  140.9296  143.2991 H   0  0  0  0  0  0  0  0  0  0  0  0  # atno 7974 bound_to 7965
  155.9247  140.3419  155.6200 H   0  0  0  0  0  0  0  0  0  0  0  0  # atno 8008 bound_to 7997
  155.7231  140.0786  157.2340 H   0  0  0  0  0  0  0  0  0  0  0  0  # atno 8009 bound_to 7997
  154.4075  140.1602  156.2412 H   0  0  0  0  0  0  0  0  0  0  0  0  # atno 8010 bound_to 7997
  140.6139  143.2396  151.5644 H   0  0  0  0  0  0  0  0  0  0  0  0  # atno 10167 bound_to 10162
  157.4153  130.7937  149.7466 H   0  0  0  0  0  0  0  0  0  0  0  0  # atno 10718 bound_to 10713
  153.2525  135.6915  153.7664 H   0  0  0  0  0  0  0  0  0  0  0  0  # atno 10763 bound_to 10752
  153.6753  135.3337  155.3165 H   0  0  0  0  0  0  0  0  0  0  0  0  # atno 10764 bound_to 10752
  154.8400  135.4509  154.1487 H   0  0  0  0  0  0  0  0  0  0  0  0  # atno 10765 bound_to 10752
  141.0510  133.6743  156.3001 H   0  0  0  0  0  0  0  0  0  0  0  0  # atno 11005 bound_to 11000
  144.9342  139.4263  143.6480 LP  0  0  0  0  0  0  0  0  0  0  0  0  # atno 17320 bound_to 7965
  146.3249  139.8268  142.8916 LP  0  0  0  0  0  0  0  0  0  0  0  0  # atno 17321 bound_to 7965
  139.5383  144.2719  152.1298 LP  0  0  0  0  0  0  0  0  0  0  0  0  # atno 17342 bound_to 10162
  140.1924  144.4739  150.6472 LP  0  0  0  0  0  0  0  0  0  0  0  0  # atno 17343 bound_to 10162
  155.9863  130.3976  150.3219 LP  0  0  0  0  0  0  0  0  0  0  0  0  # atno 17370 bound_to 10713
  157.1361  131.0284  151.2948 LP  0  0  0  0  0  0  0  0  0  0  0  0  # atno 17371 bound_to 10713
  140.6056  134.5511  157.5525 LP  0  0  0  0  0  0  0  0  0  0  0  0  # atno 17394 bound_to 11000
  139.9350  134.7892  156.0827 LP  0  0  0  0  0  0  0  0  0  0  0  0  # atno 17395 bound_to 11000

$$$$
