AV-unprocessed.smi:2732|AV-procd|sdf|10535|dock8
  -GOLD-   2272014583D 1   1.00000     0.00000
 Structure written by MMmdl.
 35 36  0  0  0  0  0  0  0  0  2 V2000
  147.8004  128.5570  154.0472 C   0  0  0  0  0  0  0  0  0  0  0  0
  146.9844  129.8586  154.0369 C   0  0  1  0  0  0  0  0  0  0  0  0
  147.8386  130.9036  154.4945 O   0  0  0  0  0  0  0  0  0  0  0  0
  148.9743  131.1659  153.6797 C   0  0  0  0  0  0  0  0  0  0  0  0
  149.4878  132.5540  153.9942 C   0  0  0  0  0  0  0  0  0  0  0  0
  149.2547  133.1645  155.3576 C   0  0  0  0  0  0  0  0  0  0  0  0
  148.5290  133.7120  154.1551 C   0  0  0  0  0  0  0  0  0  0  0  0
  146.4541  130.1802  152.6297 C   0  0  0  0  0  0  0  0  0  0  0  0
  146.7818  129.4730  151.6770 O   0  0  0  0  0  0  0  0  0  0  0  0
  145.6688  131.2694  152.5353 N   0  0  0  0  0  0  0  0  0  0  0  0
  145.0489  131.8153  151.3793 C   0  0  0  0  0  0  0  0  0  0  0  0
  145.7409  131.7178  150.1522 C   0  0  0  0  0  0  0  0  0  0  0  0
  145.1687  132.2565  148.9811 C   0  0  0  0  0  0  0  0  0  0  0  0
  143.9143  132.8951  149.0603 C   0  0  0  0  0  0  0  0  0  0  0  0
  143.2925  133.4482  147.9426 N   0  0  0  0  0  0  0  0  0  0  0  0
  143.2859  132.9852  150.2520 N   0  3  0  0  0  0  0  0  0  0  0  0
  143.7980  132.4809  151.3963 C   0  0  0  0  0  0  0  0  0  0  0  0
  147.2129  127.7162  153.6767 H   0  0  0  0  0  0  0  0  0  0  0  0
  148.1222  128.3119  155.0597 H   0  0  0  0  0  0  0  0  0  0  0  0
  148.6960  128.6391  153.4299 H   0  0  0  0  0  0  0  0  0  0  0  0
  146.1492  129.7421  154.7305 H   0  0  0  0  0  0  0  0  0  0  0  0
  149.7694  130.4389  153.8493 H   0  0  0  0  0  0  0  0  0  0  0  0
  148.7000  131.1223  152.6250 H   0  0  0  0  0  0  0  0  0  0  0  0
  150.4472  132.7828  153.5340 H   0  0  0  0  0  0  0  0  0  0  0  0
  148.6716  132.5940  156.0778 H   0  0  0  0  0  0  0  0  0  0  0  0
  150.0546  133.7693  155.7798 H   0  0  0  0  0  0  0  0  0  0  0  0
  148.8453  134.6805  153.7734 H   0  0  0  0  0  0  0  0  0  0  0  0
  147.4641  133.5040  154.0731 H   0  0  0  0  0  0  0  0  0  0  0  0
  145.5545  131.8032  153.3848 H   0  0  0  0  0  0  0  0  0  0  0  0
  146.7023  131.2274  150.1035 H   0  0  0  0  0  0  0  0  0  0  0  0
  145.6900  132.1789  148.0380 H   0  0  0  0  0  0  0  0  0  0  0  0
  143.7196  133.4122  147.0279 H   0  0  0  0  0  0  0  0  0  0  0  0
  142.3881  133.8933  148.0060 H   0  0  0  0  0  0  0  0  0  0  0  0
  143.1911  132.6422  152.2746 H   0  0  0  0  0  0  0  0  0  0  0  0
  142.3825  133.4574  150.2942 H   0  0  0  0  0  0  0  0  0  0  0  0
  1  2  1  0  0  0  0
  1 18  1  0  0  0  0
  1 19  1  0  0  0  0
  1 20  1  0  0  0  0
  2  3  1  0  0  0  0
  2  8  1  0  0  0  0
  2 21  1  0  0  0  0
  3  4  1  0  0  0  0
  4  5  1  0  0  0  0
  4 22  1  0  0  0  0
  4 23  1  0  0  0  0
  5  7  1  0  0  0  0
  5  6  1  0  0  0  0
  5 24  1  0  0  0  0
  6  7  1  0  0  0  0
  6 25  1  0  0  0  0
  6 26  1  0  0  0  0
  7 27  1  0  0  0  0
  7 28  1  0  0  0  0
  8  9  2  0  0  0  0
  8 10  1  0  0  0  0
 10 11  1  0  0  0  0
 10 29  1  0  0  0  0
 11 17  1  0  0  0  0
 11 12  2  0  0  0  0
 12 13  1  0  0  0  0
 12 30  1  0  0  0  0
 13 14  2  0  0  0  0
 13 31  1  0  0  0  0
 14 15  1  0  0  0  0
 14 16  1  0  0  0  0
 15 32  1  0  0  0  0
 15 33  1  0  0  0  0
 16 17  2  0  0  0  0
 16 35  1  0  0  0  0
 17 34  1  0  0  0  0
M  CHG  1  16   1
M  END
> <s_m_source_file>
AV-unprocessed.smi

> <i_m_source_file_index>
2732

> <i_lp_mmshare_version>
43012

> <i_f3d_flags>
0

> <s_epik_input>
W0NIMl0xW0NIMl1bQ0hdMVtDSDJdT1tDQEBIXShbQ0gzXSlDKD1PKVtOSF1jMltjSF1bY0hdYyhbTkgyXSluW2NIXTI=

> <s_epik_cmdline>
J2VwaWtfcHl0aG9uJywgJy1waCcsICc3LjAnLCAnLXRuJywgJzgnLCAnLW1hJywgJzIwMCcsICctbWV0YWxfYmluZGluZycsICctaW1hZScsICc8aW5maWxlLm1hZT4nLCAnLW9tYWUnLCAnPG91dGZpbGUubWFlPic=

> <r_lp_tautomer_probability>
0.999994

> <r_epik_Ionization_Penalty>
1.25173

> <r_epik_Ionization_Penalty_Charging>
1.25172

> <r_epik_Ionization_Penalty_Neutral>
2.35798e-06

> <r_epik_State_Penalty>
1.32157

> <r_epik_Charging_Adjusted_Penalty>
2.5733

> <i_epik_Tot_Q>
1

> <i_epik_Tot_abs_Q>
1

> <r_epik_Metal_State_Penalty>
1.39188

> <b_epik_Metal_Only>
0

> <s_lp_Force_Field>
OPLS_2005

> <r_lp_Energy>
25.671

> <b_lp_Chiralities_Consistent>
1

> <s_lp_Variant>
AV-unprocessed.smi:2732-4

> <Gold.Version>
5.8.1

> <Gold.Id.Protein>
6NUR|6NUR_protein|mol2

> <Gold.PLP.Fitness>
42.2556

> <Gold.PLP.PLP>
-32.1979

> <Gold.PLP.part.hbond>
-3.2269

> <Gold.PLP.part.metal>
0.0000

> <Gold.PLP.part.buried>
-6.1053

> <Gold.PLP.part.nonpolar>
-24.9461

> <Gold.PLP.part.repulsive>
0.8639

> <Gold.PLP.ligand.clash>
0.0000

> <Gold.PLP.ligand.torsion>
0.6448

> <Gold.PLP.Chemscore.Hbond>
3.5950

> <Gold.PLP.Chemscore.CHOScore>
0.0000

> <Gold.PLP.Chemscore.Metal>
0.0000

> <Gold.Chemscore.Hbonds>
donor molecule, donor type, donor heavy atom, donor atom, acceptor molecule, acceptor atom, score
      L1  H    15    33       P1 10186  1.25
      L1  H    16    35       P1 10186  2.00

> <Gold.PLP.Chemscore.Internal.Correction>
0.5622

> <Gold.Rescore>
     Score         DG    S(hbond)    S(metal)    S(lipo)     H(rot)  DE(clash)    DE(int)     intcor
     13.15     -14.99       1.82        0.00      67.72       1.76       0.04       1.80       ----

> <Gold.Chemscore.Fitness>
13.1484

> <Gold.Chemscore.DG>
-14.9863

> <Gold.Chemscore.ZeroCoef>
-5.4800

> <Gold.Chemscore.Hbond>
1.8233

> <Gold.Chemscore.Metal>
0.0000

> <Gold.Chemscore.Lipo>
67.7168

> <Gold.Chemscore.Internal_Hbond>
0.0000

> <Gold.Chemscore.DEClash>
0.0409

> <Gold.Chemscore.DEInternal>
1.7970

> <Gold.Chemscore.Rot>
1.7604

> <Gold.Chemscore.Internal.Correction>
   9.000000E+99

> <Gold.Chemscore.Hbonds>
donor molecule, donor type, donor heavy atom, donor atom, acceptor molecule, acceptor atom, score
      L1  H    15    32       P1 10195  0.01
      L1  H    15    33       P1 10186  0.62
      L1  H    16    35       P1 10186  0.97

> <Gold.Chemscore.Hbond.Weighted>
-6.0900

> <Gold.Chemscore.Metal.Weighted>
-0.0000

> <Gold.Chemscore.Lipo.Weighted>
-7.9229

> <Gold.Chemscore.Internal_Hbond.Weighted>
0.0000

> <Gold.Chemscore.DEClash.Weighted>
0.0409

> <Gold.Chemscore.DEInternal.Weighted>
1.7970

> <Gold.Chemscore.Rot.Weighted>
4.5065

> <Gold.Chemscore.Internal.Correction.Weighted>
   9.000000E+99

> <Gold.Protein.RotatedTorsions>
[ 6907 6896 6895 6894 ] final   -0.28 input  -60.11 | X-H torsion
[ 7974 7965 7964 7962 ] final   46.04 input  175.53 | X-H torsion
[ 8008 7997 7996 7995 ] final   -5.88 input   59.86 | X-H torsion
[ 10167 10162 10161 10158 ] final   -1.40 input  -65.29 | X-H torsion
[ 10718 10713 10712 10709 ] final   55.11 input   66.30 | X-H torsion
[ 10763 10752 10751 10750 ] final -133.54 input  -60.55 | X-H torsion
[ 11005 11000 10999 10996 ] final   55.68 input  -57.11 | X-H torsion

> <Gold.Protein.ActiveResidues>
 VAL166  LYS551  ARG553  GLY616  TRP617  ASP618  TYR619  PRO620  LYS621  CYS622 
 ASP623  PHE694  ASN695  SER759  ASP760  ASP761  ALA762  ILE779  LEU786  VAL792 
 PHE793  MET794  SER795  GLU796  ALA797  LYS798  CYS799  TRP800  GLU811  SER814 

> <Gold.Protein.RotatedAtoms>
  151.5648  135.1064  159.9980 H   0  0  0  0  0  0  0  0  0  0  0  0  # atno 6907 bound_to 6896
  152.4429  133.7478  159.6687 H   0  0  0  0  0  0  0  0  0  0  0  0  # atno 6908 bound_to 6896
  150.8338  133.7978  159.3111 H   0  0  0  0  0  0  0  0  0  0  0  0  # atno 6909 bound_to 6896
  146.0426  139.4899  142.9769 H   0  0  0  0  0  0  0  0  0  0  0  0  # atno 7974 bound_to 7965
  154.5994  140.2447  155.7812 H   0  0  0  0  0  0  0  0  0  0  0  0  # atno 8008 bound_to 7997
  156.2301  140.2969  156.0119 H   0  0  0  0  0  0  0  0  0  0  0  0  # atno 8009 bound_to 7997
  155.2236  140.0401  157.2942 H   0  0  0  0  0  0  0  0  0  0  0  0  # atno 8010 bound_to 7997
  140.6808  143.6780  150.8129 H   0  0  0  0  0  0  0  0  0  0  0  0  # atno 10167 bound_to 10162
  157.5316  130.8635  149.8696 H   0  0  0  0  0  0  0  0  0  0  0  0  # atno 10718 bound_to 10713
  154.8731  135.3763  154.4590 H   0  0  0  0  0  0  0  0  0  0  0  0  # atno 10763 bound_to 10752
  153.5259  135.7028  153.5712 H   0  0  0  0  0  0  0  0  0  0  0  0  # atno 10764 bound_to 10752
  153.3939  135.3965  155.1907 H   0  0  0  0  0  0  0  0  0  0  0  0  # atno 10765 bound_to 10752
  140.0588  134.5632  155.9177 H   0  0  0  0  0  0  0  0  0  0  0  0  # atno 11005 bound_to 11000
  145.6859  141.0178  143.1581 LP  0  0  0  0  0  0  0  0  0  0  0  0  # atno 17320 bound_to 7965
  144.7082  139.8476  143.7423 LP  0  0  0  0  0  0  0  0  0  0  0  0  # atno 17321 bound_to 7965
  140.0480  143.5279  152.2687 LP  0  0  0  0  0  0  0  0  0  0  0  0  # atno 17342 bound_to 10162
  139.6130  144.7613  151.2909 LP  0  0  0  0  0  0  0  0  0  0  0  0  # atno 17343 bound_to 10162
  156.0427  130.3735  150.1394 LP  0  0  0  0  0  0  0  0  0  0  0  0  # atno 17370 bound_to 10713
  156.9579  130.9795  151.3485 LP  0  0  0  0  0  0  0  0  0  0  0  0  # atno 17371 bound_to 10713
  141.1964  133.6591  156.5689 LP  0  0  0  0  0  0  0  0  0  0  0  0  # atno 17394 bound_to 11000
  140.3803  134.7529  157.4656 LP  0  0  0  0  0  0  0  0  0  0  0  0  # atno 17395 bound_to 11000

$$$$
