AV-unprocessed.smi:1487|AV-procd|sdf|6014|dock10
  -GOLD-   22720 6113D 1   1.00000     0.00000
 Structure written by MMmdl.
 48 50  0  0  0  0  0  0  0  0  2 V2000
  153.1151  143.1306  161.1685 C   0  0  0  0  0  0  0  0  0  0  0  0
  152.4715  142.6943  159.8641 C   0  0  0  0  0  0  0  0  0  0  0  0
  152.8816  141.4804  159.2681 C   0  0  0  0  0  0  0  0  0  0  0  0
  152.3091  141.0396  158.0550 C   0  0  0  0  0  0  0  0  0  0  0  0
  152.5536  139.9010  157.3063 N   0  0  0  0  0  0  0  0  0  0  0  0
  151.7104  140.0612  156.2909 C   0  0  0  0  0  0  0  0  0  0  0  0
  150.9428  141.1678  156.2953 N   0  0  0  0  0  0  0  0  0  0  0  0
  149.9555  141.5513  155.3017 C   0  0  0  0  0  0  0  0  0  0  0  0
  148.5098  141.3600  155.7991 C   0  0  1  0  0  0  0  0  0  0  0  0
  148.2199  142.3294  156.7881 O   0  0  0  0  0  0  0  0  0  0  0  0
  147.4908  141.5110  154.6523 C   0  0  0  0  0  0  0  0  0  0  0  0
  146.4576  142.5392  154.9386 N   0  3  2  0  0  0  0  0  0  0  0  0
  145.3841  142.0552  155.8481 C   0  0  0  0  0  0  0  0  0  0  0  0
  144.4131  143.1897  156.2171 C   0  0  0  0  0  0  0  0  0  0  0  0
  143.8106  143.8272  154.9587 C   0  0  0  0  0  0  0  0  0  0  0  0
  144.9353  144.2936  154.0232 C   0  0  2  0  0  0  0  0  0  0  0  0
  144.3768  144.7883  152.8250 O   0  0  0  0  0  0  0  0  0  0  0  0
  145.8965  143.1353  153.6984 C   0  0  0  0  0  0  0  0  0  0  0  0
  151.3068  141.8530  157.4497 C   0  0  0  0  0  0  0  0  0  0  0  0
  150.8892  143.0620  158.0337 C   0  0  0  0  0  0  0  0  0  0  0  0
  151.4725  143.4880  159.2453 C   0  0  0  0  0  0  0  0  0  0  0  0
  151.0146  144.7951  159.8680 C   0  0  0  0  0  0  0  0  0  0  0  0
  153.8151  142.3803  161.5375 H   0  0  0  0  0  0  0  0  0  0  0  0
  152.3579  143.2861  161.9373 H   0  0  0  0  0  0  0  0  0  0  0  0
  153.6646  144.0618  161.0290 H   0  0  0  0  0  0  0  0  0  0  0  0
  153.6422  140.8757  159.7398 H   0  0  0  0  0  0  0  0  0  0  0  0
  151.6442  139.3299  155.4986 H   0  0  0  0  0  0  0  0  0  0  0  0
  150.1302  142.5902  155.0196 H   0  0  0  0  0  0  0  0  0  0  0  0
  150.1260  140.9540  154.4051 H   0  0  0  0  0  0  0  0  0  0  0  0
  148.4294  140.3739  156.2559 H   0  0  0  0  0  0  0  0  0  0  0  0
  147.3102  142.5767  156.7092 H   0  0  0  0  0  0  0  0  0  0  0  0
  148.0351  141.7741  153.7437 H   0  0  0  0  0  0  0  0  0  0  0  0
  147.0019  140.5580  154.4447 H   0  0  0  0  0  0  0  0  0  0  0  0
  144.8395  141.2410  155.3675 H   0  0  0  0  0  0  0  0  0  0  0  0
  145.8148  141.6480  156.7621 H   0  0  0  0  0  0  0  0  0  0  0  0
  143.6170  142.8062  156.8562 H   0  0  0  0  0  0  0  0  0  0  0  0
  144.9386  143.9482  156.7985 H   0  0  0  0  0  0  0  0  0  0  0  0
  143.1766  143.0999  154.4489 H   0  0  0  0  0  0  0  0  0  0  0  0
  143.1691  144.6656  155.2328 H   0  0  0  0  0  0  0  0  0  0  0  0
  145.4905  145.1045  154.4969 H   0  0  0  0  0  0  0  0  0  0  0  0
  143.6718  144.2166  152.5602 H   0  0  0  0  0  0  0  0  0  0  0  0
  146.7082  143.5081  153.0719 H   0  0  0  0  0  0  0  0  0  0  0  0
  145.3826  142.3605  153.1263 H   0  0  0  0  0  0  0  0  0  0  0  0
  150.1256  143.6564  157.5541 H   0  0  0  0  0  0  0  0  0  0  0  0
  150.2724  145.2948  159.2446 H   0  0  0  0  0  0  0  0  0  0  0  0
  151.8571  145.4755  159.9949 H   0  0  0  0  0  0  0  0  0  0  0  0
  150.5645  144.6144  160.8444 H   0  0  0  0  0  0  0  0  0  0  0  0
  146.9364  143.2900  155.4159 H   0  0  0  0  0  0  0  0  0  0  0  0
  1  2  1  0  0  0  0
  1 23  1  0  0  0  0
  1 24  1  0  0  0  0
  1 25  1  0  0  0  0
  2 21  1  0  0  0  0
  2  3  2  0  0  0  0
  3  4  1  0  0  0  0
  3 26  1  0  0  0  0
  4 19  2  0  0  0  0
  4  5  1  0  0  0  0
  5  6  2  0  0  0  0
  6  7  1  0  0  0  0
  6 27  1  0  0  0  0
  7  8  1  0  0  0  0
  7 19  1  0  0  0  0
  8  9  1  0  0  0  0
  8 28  1  0  0  0  0
  8 29  1  0  0  0  0
  9 10  1  0  0  0  0
  9 11  1  0  0  0  0
  9 30  1  0  0  0  0
 10 31  1  0  0  0  0
 11 12  1  0  0  0  0
 11 32  1  0  0  0  0
 11 33  1  0  0  0  0
 12 18  1  0  0  0  0
 12 13  1  0  0  0  0
 12 48  1  0  0  0  0
 13 14  1  0  0  0  0
 13 34  1  0  0  0  0
 13 35  1  0  0  0  0
 14 15  1  0  0  0  0
 14 36  1  0  0  0  0
 14 37  1  0  0  0  0
 15 16  1  0  0  0  0
 15 38  1  0  0  0  0
 15 39  1  0  0  0  0
 16 17  1  0  0  0  0
 16 18  1  0  0  0  0
 16 40  1  0  0  0  0
 17 41  1  0  0  0  0
 18 42  1  0  0  0  0
 18 43  1  0  0  0  0
 19 20  1  0  0  0  0
 20 21  2  0  0  0  0
 20 44  1  0  0  0  0
 21 22  1  0  0  0  0
 22 45  1  0  0  0  0
 22 46  1  0  0  0  0
 22 47  1  0  0  0  0
M  CHG  1  12   1
M  END
> <s_m_source_file>
AV-unprocessed.smi

> <i_m_source_file_index>
1487

> <i_lp_mmshare_version>
43012

> <i_f3d_flags>
0

> <s_epik_input>
W0NIM11jKFtjSF0xKWMoW0NIM10pW2NIXWMoYzEyKW4oW2NIXW4yKVtDSDJdW0NASF0oW09IXSlbQ0gyXU4zW0NIMl1bQ0gyXVtDSDJdW0NAQEhdKFtPSF0pW0NIMl0z

> <s_epik_cmdline>
J2VwaWtfcHl0aG9uJywgJy1waCcsICc3LjAnLCAnLXRuJywgJzgnLCAnLW1hJywgJzIwMCcsICctbWV0YWxfYmluZGluZycsICctaW1hZScsICc8aW5maWxlLm1hZT4nLCAnLW9tYWUnLCAnPG91dGZpbGUubWFlPic=

> <r_epik_Ionization_Penalty>
0.0940186

> <r_epik_Ionization_Penalty_Charging>
0.00679686

> <r_epik_Ionization_Penalty_Neutral>
0.0872218

> <r_epik_State_Penalty>
0.0799311

> <r_epik_Charging_Adjusted_Penalty>
0.086728

> <i_epik_Tot_Q>
1

> <i_epik_Tot_abs_Q>
1

> <r_epik_Metal_State_Penalty>
7.95545e-05

> <b_epik_Metal_Only>
0

> <s_lp_Force_Field>
OPLS_2005

> <r_lp_Energy>
21.0759

> <b_lp_Chiralities_Consistent>
1

> <s_lp_Variant>
AV-unprocessed.smi:1487-8

> <Gold.Version>
5.8.1

> <Gold.Id.Protein>
6NUR|6NUR_protein|mol2

> <Gold.PLP.Fitness>
51.4511

> <Gold.PLP.PLP>
-47.7286

> <Gold.PLP.part.hbond>
-4.0990

> <Gold.PLP.part.metal>
0.0000

> <Gold.PLP.part.buried>
-8.3338

> <Gold.PLP.part.nonpolar>
-36.0288

> <Gold.PLP.part.repulsive>
0.0647

> <Gold.PLP.ligand.clash>
0.0000

> <Gold.PLP.ligand.torsion>
1.2120

> <Gold.PLP.Chemscore.Hbond>
2.0427

> <Gold.PLP.Chemscore.CHOScore>
0.0000

> <Gold.PLP.Chemscore.Metal>
0.0000

> <Gold.Chemscore.Hbonds>
donor molecule, donor type, donor heavy atom, donor atom, acceptor molecule, acceptor atom, score
      L1  H    12    48       P1  8028  0.09
      L1  H    17    41       P1 10174  1.00
      P1  H  7997  8010       L1     5  0.98

> <Gold.PLP.Chemscore.Internal.Correction>
0.0182

> <Gold.Rescore>
     Score         DG    S(hbond)    S(metal)    S(lipo)     H(rot)  DE(clash)    DE(int)     intcor
     15.37     -18.01       1.72        0.00     116.47       2.67       1.32       1.32       ----

> <Gold.Chemscore.Fitness>
15.3686

> <Gold.Chemscore.DG>
-18.0140

> <Gold.Chemscore.ZeroCoef>
-5.4800

> <Gold.Chemscore.Hbond>
1.7202

> <Gold.Chemscore.Metal>
0.0000

> <Gold.Chemscore.Lipo>
116.4689

> <Gold.Chemscore.Internal_Hbond>
0.0000

> <Gold.Chemscore.DEClash>
1.3208

> <Gold.Chemscore.DEInternal>
1.3246

> <Gold.Chemscore.Rot>
2.6712

> <Gold.Chemscore.Internal.Correction>
   9.000000E+99

> <Gold.Chemscore.Hbonds>
donor molecule, donor type, donor heavy atom, donor atom, acceptor molecule, acceptor atom, score
      L1  H    17    41       P1 10174  0.90
      P1  H  7997  8010       L1     5  0.23

> <Gold.Chemscore.Hbond.Weighted>
-5.7455

> <Gold.Chemscore.Metal.Weighted>
-0.0000

> <Gold.Chemscore.Lipo.Weighted>
-13.6269

> <Gold.Chemscore.Internal_Hbond.Weighted>
0.0000

> <Gold.Chemscore.DEClash.Weighted>
1.3208

> <Gold.Chemscore.DEInternal.Weighted>
1.3246

> <Gold.Chemscore.Rot.Weighted>
6.8383

> <Gold.Chemscore.Internal.Correction.Weighted>
   9.000000E+99

> <Gold.Protein.RotatedTorsions>
[ 6907 6896 6895 6894 ] final   66.41 input  -60.11 | X-H torsion
[ 7974 7965 7964 7962 ] final   81.69 input  175.53 | X-H torsion
[ 8008 7997 7996 7995 ] final   73.90 input   59.86 | X-H torsion
[ 10167 10162 10161 10158 ] final    7.22 input  -65.29 | X-H torsion
[ 10718 10713 10712 10709 ] final  128.41 input   66.30 | X-H torsion
[ 10763 10752 10751 10750 ] final -126.77 input  -60.55 | X-H torsion
[ 11005 11000 10999 10996 ] final   37.21 input  -57.11 | X-H torsion

> <Gold.Protein.ActiveResidues>
 VAL166  LYS551  ARG553  GLY616  TRP617  ASP618  TYR619  PRO620  LYS621  CYS622 
 ASP623  PHE694  ASN695  SER759  ASP760  ASP761  ALA762  ILE779  LEU786  VAL792 
 PHE793  MET794  SER795  GLU796  ALA797  LYS798  CYS799  TRP800  GLU811  SER814 

> <Gold.Protein.RotatedAtoms>
  152.4479  134.5457  159.9851 H   0  0  0  0  0  0  0  0  0  0  0  0  # atno 6907 bound_to 6896
  151.5537  133.3408  159.2966 H   0  0  0  0  0  0  0  0  0  0  0  0  # atno 6908 bound_to 6896
  150.8399  134.7720  159.6987 H   0  0  0  0  0  0  0  0  0  0  0  0  # atno 6909 bound_to 6896
  145.6349  139.2413  143.2063 H   0  0  0  0  0  0  0  0  0  0  0  0  # atno 7974 bound_to 7965
  155.7904  140.3479  155.5346 H   0  0  0  0  0  0  0  0  0  0  0  0  # atno 8008 bound_to 7997
  155.8639  140.0976  157.1615 H   0  0  0  0  0  0  0  0  0  0  0  0  # atno 8009 bound_to 7997
  154.4013  140.1353  156.3982 H   0  0  0  0  0  0  0  0  0  0  0  0  # atno 8010 bound_to 7997
  140.6384  143.7832  150.7392 H   0  0  0  0  0  0  0  0  0  0  0  0  # atno 10167 bound_to 10162
  157.5246  131.1098  150.9101 H   0  0  0  0  0  0  0  0  0  0  0  0  # atno 10718 bound_to 10713
  154.8748  135.3984  154.3485 H   0  0  0  0  0  0  0  0  0  0  0  0  # atno 10763 bound_to 10752
  153.4274  135.7024  153.6258 H   0  0  0  0  0  0  0  0  0  0  0  0  # atno 10764 bound_to 10752
  153.4894  135.3751  155.2454 H   0  0  0  0  0  0  0  0  0  0  0  0  # atno 10765 bound_to 10752
  140.2248  134.3597  155.7989 H   0  0  0  0  0  0  0  0  0  0  0  0  # atno 11005 bound_to 11000
  146.1327  140.7164  142.9404 LP  0  0  0  0  0  0  0  0  0  0  0  0  # atno 17320 bound_to 7965
  144.7179  140.4274  143.7030 LP  0  0  0  0  0  0  0  0  0  0  0  0  # atno 17321 bound_to 7965
  140.1458  143.4401  152.2164 LP  0  0  0  0  0  0  0  0  0  0  0  0  # atno 17342 bound_to 10162
  139.5594  144.7395  151.4200 LP  0  0  0  0  0  0  0  0  0  0  0  0  # atno 17343 bound_to 10162
  156.9701  130.5488  149.5290 LP  0  0  0  0  0  0  0  0  0  0  0  0  # atno 17370 bound_to 10713
  156.0378  130.5464  150.8697 LP  0  0  0  0  0  0  0  0  0  0  0  0  # atno 17371 bound_to 10713
  141.2221  133.7213  156.8636 LP  0  0  0  0  0  0  0  0  0  0  0  0  # atno 17394 bound_to 11000
  140.1811  134.9032  157.2950 LP  0  0  0  0  0  0  0  0  0  0  0  0  # atno 17395 bound_to 11000

$$$$
