AV-unprocessed.smi:3287|AV-procd|sdf|12603|dock9
  -GOLD-   2272018533D 1   1.00000     0.00000
 Structure written by MMmdl.
 43 44  0  0  0  0  0  0  0  0  2 V2000
  152.2406  142.9301  160.8174 C   0  0  0  0  0  0  0  0  0  0  0  0
  152.2724  142.7653  159.2875 C   0  0  1  0  0  0  0  0  0  0  0  0
  151.6909  141.3909  158.8985 C   0  0  0  0  0  0  0  0  0  0  0  0
  151.7006  141.1635  157.3786 C   0  0  0  0  0  0  0  0  0  0  0  0
  150.9622  142.2816  156.6238 C   0  0  1  0  0  0  0  0  0  0  0  0
  149.5030  142.1911  156.8643 N   0  3  0  0  0  0  0  0  0  0  0  0
  148.8353  140.9937  156.3094 C   0  0  0  0  0  0  0  0  0  0  0  0
  148.0037  141.3443  155.0636 C   0  0  1  0  0  0  0  0  0  0  0  0
  148.7977  142.1255  154.1914 O   0  0  0  0  0  0  0  0  0  0  0  0
  147.4822  140.0889  154.3820 C   0  0  0  0  0  0  0  0  0  0  0  0
  147.7064  138.8087  154.9341 C   0  0  0  0  0  0  0  0  0  0  0  0
  147.1911  137.6841  154.2591 C   0  0  0  0  0  0  0  0  0  0  0  0
  146.4885  137.7675  153.1092 N   0  0  0  0  0  0  0  0  0  0  0  0
  146.2746  138.9940  152.5871 C   0  0  0  0  0  0  0  0  0  0  0  0
  146.7468  140.1814  153.1817 C   0  0  0  0  0  0  0  0  0  0  0  0
  151.5417  143.6568  157.0162 C   0  0  0  0  0  0  0  0  0  0  0  0
  151.5319  143.9063  158.5403 C   0  0  2  0  0  0  0  0  0  0  0  0
  152.1170  145.2975  158.8425 C   0  0  0  0  0  0  0  0  0  0  0  0
  151.2176  142.9963  161.1890 H   0  0  0  0  0  0  0  0  0  0  0  0
  152.7741  143.8237  161.1403 H   0  0  0  0  0  0  0  0  0  0  0  0
  152.7179  142.0834  161.3118 H   0  0  0  0  0  0  0  0  0  0  0  0
  153.3189  142.7804  158.9787 H   0  0  0  0  0  0  0  0  0  0  0  0
  152.2618  140.5971  159.3821 H   0  0  0  0  0  0  0  0  0  0  0  0
  150.6712  141.3026  159.2759 H   0  0  0  0  0  0  0  0  0  0  0  0
  152.7347  141.1204  157.0337 H   0  0  0  0  0  0  0  0  0  0  0  0
  151.2629  140.1930  157.1421 H   0  0  0  0  0  0  0  0  0  0  0  0
  151.1255  142.1230  155.5569 H   0  0  0  0  0  0  0  0  0  0  0  0
  149.3573  142.1794  157.8635 H   0  0  0  0  0  0  0  0  0  0  0  0
  149.5718  140.2294  156.0611 H   0  0  0  0  0  0  0  0  0  0  0  0
  148.1833  140.5729  157.0763 H   0  0  0  0  0  0  0  0  0  0  0  0
  147.1493  141.9549  155.3599 H   0  0  0  0  0  0  0  0  0  0  0  0
  148.7857  143.0207  154.4959 H   0  0  0  0  0  0  0  0  0  0  0  0
  148.2590  138.6853  155.8542 H   0  0  0  0  0  0  0  0  0  0  0  0
  147.3462  136.6913  154.6551 H   0  0  0  0  0  0  0  0  0  0  0  0
  145.7088  139.0310  151.6678 H   0  0  0  0  0  0  0  0  0  0  0  0
  146.5451  141.1380  152.7222 H   0  0  0  0  0  0  0  0  0  0  0  0
  152.5710  143.7124  156.6585 H   0  0  0  0  0  0  0  0  0  0  0  0
  151.0142  144.4582  156.4998 H   0  0  0  0  0  0  0  0  0  0  0  0
  150.4928  143.9131  158.8726 H   0  0  0  0  0  0  0  0  0  0  0  0
  153.1803  145.3417  158.6045 H   0  0  0  0  0  0  0  0  0  0  0  0
  151.9958  145.5702  159.8904 H   0  0  0  0  0  0  0  0  0  0  0  0
  151.6153  146.0684  158.2568 H   0  0  0  0  0  0  0  0  0  0  0  0
  149.0583  143.0165  156.4881 H   0  0  0  0  0  0  0  0  0  0  0  0
  1  2  1  0  0  0  0
  1 19  1  0  0  0  0
  1 20  1  0  0  0  0
  1 21  1  0  0  0  0
  2 17  1  0  0  0  0
  2  3  1  0  0  0  0
  2 22  1  0  0  0  0
  3  4  1  0  0  0  0
  3 23  1  0  0  0  0
  3 24  1  0  0  0  0
  4  5  1  0  0  0  0
  4 25  1  0  0  0  0
  4 26  1  0  0  0  0
  5  6  1  0  0  0  0
  5 16  1  0  0  0  0
  5 27  1  0  0  0  0
  6  7  1  0  0  0  0
  6 28  1  0  0  0  0
  6 43  1  0  0  0  0
  7  8  1  0  0  0  0
  7 29  1  0  0  0  0
  7 30  1  0  0  0  0
  8  9  1  0  0  0  0
  8 10  1  0  0  0  0
  8 31  1  0  0  0  0
  9 32  1  0  0  0  0
 10 15  1  0  0  0  0
 10 11  2  0  0  0  0
 11 12  1  0  0  0  0
 11 33  1  0  0  0  0
 12 13  2  0  0  0  0
 12 34  1  0  0  0  0
 13 14  1  0  0  0  0
 14 15  2  0  0  0  0
 14 35  1  0  0  0  0
 15 36  1  0  0  0  0
 16 17  1  0  0  0  0
 16 37  1  0  0  0  0
 16 38  1  0  0  0  0
 17 18  1  0  0  0  0
 17 39  1  0  0  0  0
 18 40  1  0  0  0  0
 18 41  1  0  0  0  0
 18 42  1  0  0  0  0
M  CHG  1   6   1
M  END
> <s_m_source_file>
AV-unprocessed.smi

> <i_m_source_file_index>
3287

> <i_lp_mmshare_version>
43012

> <i_f3d_flags>
0

> <s_epik_input>
W0NIM11bQ0BASF0xW0NIMl1bQ0gyXVtDQEhdKFtDSDJdW0NASF0xW0NIM10pW05IXVtDSDJdW0NASF0oW09IXSljMltjSF1bY0hdbltjSF1bY0hdMg==

> <s_epik_cmdline>
J2VwaWtfcHl0aG9uJywgJy1waCcsICc3LjAnLCAnLXRuJywgJzgnLCAnLW1hJywgJzIwMCcsICctbWV0YWxfYmluZGluZycsICctaW1hZScsICc8aW5maWxlLm1hZT4nLCAnLW9tYWUnLCAnPG91dGZpbGUubWFlPic=

> <r_lp_tautomer_probability>
1

> <r_epik_Ionization_Penalty>
0.00537262

> <r_epik_Ionization_Penalty_Charging>
0.00321624

> <r_epik_Ionization_Penalty_Neutral>
0.00215638

> <r_epik_State_Penalty>
-0

> <r_epik_Charging_Adjusted_Penalty>
0.00321624

> <i_epik_Tot_Q>
1

> <i_epik_Tot_abs_Q>
1

> <r_epik_Metal_State_Penalty>
-0

> <b_epik_Metal_Only>
0

> <s_lp_Force_Field>
OPLS_2005

> <r_lp_Energy>
19.4184

> <b_lp_Chiralities_Consistent>
1

> <s_lp_Variant>
AV-unprocessed.smi:3287-14

> <Gold.Version>
5.8.1

> <Gold.Id.Protein>
6NUR|6NUR_protein|mol2

> <Gold.PLP.Fitness>
46.3780

> <Gold.PLP.PLP>
-34.1702

> <Gold.PLP.part.hbond>
-3.0000

> <Gold.PLP.part.metal>
0.0000

> <Gold.PLP.part.buried>
-1.5072

> <Gold.PLP.part.nonpolar>
-30.3939

> <Gold.PLP.part.repulsive>
0.2771

> <Gold.PLP.ligand.clash>
0.0000

> <Gold.PLP.ligand.torsion>
0.4482

> <Gold.PLP.Chemscore.Hbond>
3.2560

> <Gold.PLP.Chemscore.CHOScore>
1.1070

> <Gold.PLP.Chemscore.Metal>
0.0000

> <Gold.Chemscore.Hbonds>
donor molecule, donor type, donor heavy atom, donor atom, acceptor molecule, acceptor atom, score
      L1  H     6    43       P1  8028  2.00
      L1  H     9    32       P1  8028  0.99
      P1  H  8011  8017       L1     9  0.24
      L1  C    14    35       P1 10171  0.74
      L1  C    14    35       P1 10175  0.34

> <Gold.PLP.Chemscore.Internal.Correction>
0.0152

> <Gold.Rescore>
     Score         DG    S(hbond)    S(metal)    S(lipo)     H(rot)  DE(clash)    DE(int)     intcor
     20.69     -21.81       2.12        0.00     120.61       1.90       0.25       0.87       ----

> <Gold.Chemscore.Fitness>
20.6937

> <Gold.Chemscore.DG>
-21.8128

> <Gold.Chemscore.ZeroCoef>
-5.4800

> <Gold.Chemscore.Hbond>
2.1242

> <Gold.Chemscore.Metal>
0.0000

> <Gold.Chemscore.Lipo>
120.6059

> <Gold.Chemscore.Internal_Hbond>
0.0000

> <Gold.Chemscore.DEClash>
0.2490

> <Gold.Chemscore.DEInternal>
0.8701

> <Gold.Chemscore.Rot>
1.9035

> <Gold.Chemscore.Internal.Correction>
   9.000000E+99

> <Gold.Chemscore.Hbonds>
donor molecule, donor type, donor heavy atom, donor atom, acceptor molecule, acceptor atom, score
      L1  H     6    43       P1  8028  0.99
      L1  H     9    32       P1  8028  0.92
      P1  H  8011  8017       L1     9  0.05

> <Gold.Chemscore.Hbond.Weighted>
-7.0948

> <Gold.Chemscore.Metal.Weighted>
-0.0000

> <Gold.Chemscore.Lipo.Weighted>
-14.1109

> <Gold.Chemscore.Internal_Hbond.Weighted>
0.0000

> <Gold.Chemscore.DEClash.Weighted>
0.2490

> <Gold.Chemscore.DEInternal.Weighted>
0.8701

> <Gold.Chemscore.Rot.Weighted>
4.8729

> <Gold.Chemscore.Internal.Correction.Weighted>
   9.000000E+99

> <Gold.Protein.RotatedTorsions>
[ 6907 6896 6895 6894 ] final -112.21 input  -60.11 | X-H torsion
[ 7974 7965 7964 7962 ] final   11.68 input  175.53 | X-H torsion
[ 8008 7997 7996 7995 ] final   -2.83 input   59.86 | X-H torsion
[ 10167 10162 10161 10158 ] final -143.34 input  -65.29 | X-H torsion
[ 10718 10713 10712 10709 ] final  -84.53 input   66.30 | X-H torsion
[ 10763 10752 10751 10750 ] final -139.51 input  -60.55 | X-H torsion
[ 11005 11000 10999 10996 ] final -115.06 input  -57.11 | X-H torsion

> <Gold.Protein.ActiveResidues>
 VAL166  LYS551  ARG553  GLY616  TRP617  ASP618  TYR619  PRO620  LYS621  CYS622 
 ASP623  PHE694  ASN695  SER759  ASP760  ASP761  ALA762  ILE779  LEU786  VAL792 
 PHE793  MET794  SER795  GLU796  ALA797  LYS798  CYS799  TRP800  GLU811  SER814 

> <Gold.Protein.RotatedAtoms>
  150.7742  133.9123  159.3372 H   0  0  0  0  0  0  0  0  0  0  0  0  # atno 6907 bound_to 6896
  151.7002  135.0929  160.0259 H   0  0  0  0  0  0  0  0  0  0  0  0  # atno 6908 bound_to 6896
  152.3772  133.6459  159.6168 H   0  0  0  0  0  0  0  0  0  0  0  0  # atno 6909 bound_to 6896
  146.2366  139.9449  142.8478 H   0  0  0  0  0  0  0  0  0  0  0  0  # atno 7974 bound_to 7965
  154.6315  140.2524  155.7429 H   0  0  0  0  0  0  0  0  0  0  0  0  # atno 8008 bound_to 7997
  156.2481  140.2906  156.0588 H   0  0  0  0  0  0  0  0  0  0  0  0  # atno 8009 bound_to 7997
  155.1738  140.0387  157.2858 H   0  0  0  0  0  0  0  0  0  0  0  0  # atno 8010 bound_to 7997
  139.8002  143.7844  152.2657 H   0  0  0  0  0  0  0  0  0  0  0  0  # atno 10167 bound_to 10162
  156.0005  130.4701  150.4424 H   0  0  0  0  0  0  0  0  0  0  0  0  # atno 10718 bound_to 10713
  154.8607  135.3580  154.5558 H   0  0  0  0  0  0  0  0  0  0  0  0  # atno 10763 bound_to 10752
  153.6174  135.7007  153.5328 H   0  0  0  0  0  0  0  0  0  0  0  0  # atno 10764 bound_to 10752
  153.3157  135.4165  155.1334 H   0  0  0  0  0  0  0  0  0  0  0  0  # atno 10765 bound_to 10752
  141.0512  133.9684  157.2833 H   0  0  0  0  0  0  0  0  0  0  0  0  # atno 11005 bound_to 11000
  145.1916  140.9814  143.4207 LP  0  0  0  0  0  0  0  0  0  0  0  0  # atno 17320 bound_to 7965
  144.9852  139.3744  143.6242 LP  0  0  0  0  0  0  0  0  0  0  0  0  # atno 17321 bound_to 7965
  139.7961  144.7392  150.9888 LP  0  0  0  0  0  0  0  0  0  0  0  0  # atno 17342 bound_to 10162
  140.7820  143.4392  151.0577 LP  0  0  0  0  0  0  0  0  0  0  0  0  # atno 17343 bound_to 10162
  157.2464  131.0536  151.2406 LP  0  0  0  0  0  0  0  0  0  0  0  0  # atno 17370 bound_to 10713
  157.3571  130.7112  149.6478 LP  0  0  0  0  0  0  0  0  0  0  0  0  # atno 17371 bound_to 10713
  139.9352  135.0197  156.8531 LP  0  0  0  0  0  0  0  0  0  0  0  0  # atno 17394 bound_to 11000
  140.6052  134.0134  155.7553 LP  0  0  0  0  0  0  0  0  0  0  0  0  # atno 17395 bound_to 11000

$$$$
