AV-unprocessed.smi:113|AV-procd|sdf|1091|dock2
  -GOLD-   2262018193D 1   1.00000     0.00000
 Structure written by MMmdl.
 52 55  0  0  0  0  0  0  0  0  1 V2000
  154.6254  140.6074  162.4140 C   0  0  0  0  0  0  0  0  0  0  0  0
  153.8861  140.9990  161.1515 C   0  0  0  0  0  0  0  0  0  0  0  0
  153.6886  140.0668  160.1174 C   0  0  0  0  0  0  0  0  0  0  0  0
  152.9980  140.4709  158.9519 C   0  0  0  0  0  0  0  0  0  0  0  0
  152.7571  139.4951  157.7947 C   0  0  0  0  0  0  0  0  0  0  0  0
  151.3749  139.2855  157.3869 N   0  0  0  0  0  0  0  0  0  0  0  0
  150.5035  138.6478  158.3029 C   0  0  0  0  0  0  0  0  0  0  0  0
  150.8935  138.2735  159.4109 O   0  0  0  0  0  0  0  0  0  0  0  0
  149.1310  138.4590  157.8271 C   0  0  0  0  0  0  0  0  0  0  0  0
  148.1314  137.8029  158.7668 C   0  0  0  0  0  0  0  0  0  0  0  0
  148.7875  138.8663  156.5815 C   0  0  0  0  0  0  0  0  0  0  0  0
  149.6677  139.4664  155.6944 N   0  0  0  0  0  0  0  0  0  0  0  0
  149.2464  139.8967  154.3011 C   0  0  2  0  0  0  0  0  0  0  0  0
  148.2854  141.0833  154.3715 C   0  0  0  0  0  0  0  0  0  0  0  0
  146.9476  140.3816  154.4726 C   0  0  1  0  0  0  0  0  0  0  0  0
  145.8888  141.2246  154.0642 O   0  0  0  0  0  0  0  0  0  0  0  0
  147.1546  139.1261  153.6048 C   0  0  1  0  0  0  0  0  0  0  0  0
  146.7930  139.2730  152.1129 C   0  0  0  0  0  0  0  0  0  0  0  0
  147.2941  138.1841  151.3655 O   0  0  0  0  0  0  0  0  0  0  0  0
  148.5591  138.8579  153.6659 O   0  0  0  0  0  0  0  0  0  0  0  0
  151.0038  139.6925  156.0860 C   0  0  0  0  0  0  0  0  0  0  0  0
  151.8090  140.2180  155.3133 O   0  0  0  0  0  0  0  0  0  0  0  0
  152.5338  141.8124  158.8855 C   0  0  0  0  0  0  0  0  0  0  0  0
  151.8313  142.2970  157.7554 C   0  0  0  0  0  0  0  0  0  0  0  0
  151.3806  143.6284  157.7093 C   0  0  0  0  0  0  0  0  0  0  0  0
  151.6280  144.4897  158.7909 C   0  0  0  0  0  0  0  0  0  0  0  0
  152.3250  144.0161  159.9169 C   0  0  0  0  0  0  0  0  0  0  0  0
  152.7855  142.6837  159.9862 C   0  0  0  0  0  0  0  0  0  0  0  0
  153.4498  142.2721  161.0883 N   0  0  0  0  0  0  0  0  0  0  0  0
  154.5495  139.5344  162.5924 H   0  0  0  0  0  0  0  0  0  0  0  0
  154.2149  141.1228  163.2832 H   0  0  0  0  0  0  0  0  0  0  0  0
  155.6807  140.8667  162.3268 H   0  0  0  0  0  0  0  0  0  0  0  0
  154.0675  139.0622  160.2313 H   0  0  0  0  0  0  0  0  0  0  0  0
  153.3129  139.8147  156.9118 H   0  0  0  0  0  0  0  0  0  0  0  0
  153.1750  138.5163  158.0353 H   0  0  0  0  0  0  0  0  0  0  0  0
  147.1419  137.7210  158.3160 H   0  0  0  0  0  0  0  0  0  0  0  0
  148.0319  138.3843  159.6840 H   0  0  0  0  0  0  0  0  0  0  0  0
  148.4603  136.7974  159.0316 H   0  0  0  0  0  0  0  0  0  0  0  0
  147.7641  138.7080  156.2781 H   0  0  0  0  0  0  0  0  0  0  0  0
  150.1725  140.1045  153.7628 H   0  0  0  0  0  0  0  0  0  0  0  0
  148.5027  141.7518  155.2051 H   0  0  0  0  0  0  0  0  0  0  0  0
  148.3646  141.6442  153.4392 H   0  0  0  0  0  0  0  0  0  0  0  0
  146.7764  140.0821  155.5072 H   0  0  0  0  0  0  0  0  0  0  0  0
  145.3016  140.7259  153.5164 H   0  0  0  0  0  0  0  0  0  0  0  0
  146.6183  138.2751  154.0264 H   0  0  0  0  0  0  0  0  0  0  0  0
  145.7163  139.3660  151.9684 H   0  0  0  0  0  0  0  0  0  0  0  0
  147.2469  140.1785  151.7094 H   0  0  0  0  0  0  0  0  0  0  0  0
  147.7236  137.5862  151.9583 H   0  0  0  0  0  0  0  0  0  0  0  0
  151.6247  141.6623  156.9075 H   0  0  0  0  0  0  0  0  0  0  0  0
  150.8451  143.9882  156.8430 H   0  0  0  0  0  0  0  0  0  0  0  0
  151.2837  145.5128  158.7578 H   0  0  0  0  0  0  0  0  0  0  0  0
  152.5089  144.6881  160.7426 H   0  0  0  0  0  0  0  0  0  0  0  0
  1  2  1  0  0  0  0
  1 30  1  0  0  0  0
  1 31  1  0  0  0  0
  1 32  1  0  0  0  0
  2 29  1  0  0  0  0
  2  3  2  0  0  0  0
  3  4  1  0  0  0  0
  3 33  1  0  0  0  0
  4  5  1  0  0  0  0
  4 23  2  0  0  0  0
  5  6  1  0  0  0  0
  5 34  1  0  0  0  0
  5 35  1  0  0  0  0
  6 21  1  0  0  0  0
  6  7  1  0  0  0  0
  7  8  2  0  0  0  0
  7  9  1  0  0  0  0
  9 10  1  0  0  0  0
  9 11  2  0  0  0  0
 10 36  1  0  0  0  0
 10 37  1  0  0  0  0
 10 38  1  0  0  0  0
 11 12  1  0  0  0  0
 11 39  1  0  0  0  0
 12 13  1  0  0  0  0
 12 21  1  0  0  0  0
 13 20  1  0  0  0  0
 13 14  1  0  0  0  0
 13 40  1  0  0  0  0
 14 15  1  0  0  0  0
 14 41  1  0  0  0  0
 14 42  1  0  0  0  0
 15 16  1  0  0  0  0
 15 17  1  0  0  0  0
 15 43  1  0  0  0  0
 16 44  1  0  0  0  0
 17 18  1  0  0  0  0
 17 20  1  0  0  0  0
 17 45  1  0  0  0  0
 18 19  1  0  0  0  0
 18 46  1  0  0  0  0
 18 47  1  0  0  0  0
 19 48  1  0  0  0  0
 21 22  2  0  0  0  0
 23 28  1  0  0  0  0
 23 24  1  0  0  0  0
 24 25  2  0  0  0  0
 24 49  1  0  0  0  0
 25 26  1  0  0  0  0
 25 50  1  0  0  0  0
 26 27  2  0  0  0  0
 26 51  1  0  0  0  0
 27 28  1  0  0  0  0
 27 52  1  0  0  0  0
 28 29  2  0  0  0  0
M  END
> <s_m_source_file>
AV-unprocessed.smi

> <i_m_source_file_index>
113

> <i_lp_mmshare_version>
43012

> <i_f3d_flags>
0

> <s_epik_input>
W2NIXTFbY0hdW2NIXVtjSF1jKGMxMiluYyhbQ0gzXSlbY0hdYzJbQ0gyXW4zYyg9TyljKFtDSDNdKVtjSF1uKGMzPU8pW0NAQEhdNFtDSDJdW0NAQEhdKFtPSF0pW0NASF0oTzQpW0NIMl1bT0hd

> <s_epik_cmdline>
J2VwaWtfcHl0aG9uJywgJy1waCcsICc3LjAnLCAnLXRuJywgJzgnLCAnLW1hJywgJzIwMCcsICctbWV0YWxfYmluZGluZycsICctaW1hZScsICc8aW5maWxlLm1hZT4nLCAnLW9tYWUnLCAnPG91dGZpbGUubWFlPic=

> <r_lp_tautomer_probability>
1

> <r_epik_Ionization_Penalty>
0.214728

> <r_epik_Ionization_Penalty_Charging>
3.04883e-08

> <r_epik_Ionization_Penalty_Neutral>
0.214728

> <r_epik_State_Penalty>
0.204913

> <r_epik_Charging_Adjusted_Penalty>
0.204913

> <i_epik_Tot_Q>
0

> <i_epik_Tot_abs_Q>
0

> <r_epik_Metal_State_Penalty>
0.000244761

> <b_epik_Metal_Only>
0

> <s_epik_Chemistry_Notes>
This compound contains an acetal/aminal-like group ( X-CH(R)-Y where X, Y are N, S, or O) that may be acid/base labile, releasing an aldehyde.

> <s_lp_Force_Field>
OPLS_2005

> <r_lp_Energy>
41.1863

> <b_lp_Chiralities_Consistent>
1

> <s_lp_Variant>
AV-unprocessed.smi:113-1

> <Gold.Version>
5.8.1

> <Gold.Id.Protein>
6NUR|6NUR_protein|mol2

> <Gold.PLP.Fitness>
60.8039

> <Gold.PLP.PLP>
-50.7018

> <Gold.PLP.part.hbond>
-5.6687

> <Gold.PLP.part.metal>
0.0000

> <Gold.PLP.part.buried>
-4.6864

> <Gold.PLP.part.nonpolar>
-42.7271

> <Gold.PLP.part.repulsive>
1.2641

> <Gold.PLP.ligand.clash>
0.0000

> <Gold.PLP.ligand.torsion>
0.3080

> <Gold.PLP.Chemscore.Hbond>
3.5680

> <Gold.PLP.Chemscore.CHOScore>
0.0000

> <Gold.PLP.Chemscore.Metal>
0.0000

> <Gold.Chemscore.Hbonds>
donor molecule, donor type, donor heavy atom, donor atom, acceptor molecule, acceptor atom, score
      L1  H    16    44       P1 10175  1.00
      L1  H    19    48       P1  7948  0.72
      P1  H  7954  7966       L1    19  1.00
      P1  H  7989  7998       L1    22  0.85

> <Gold.PLP.Chemscore.Internal.Correction>
0.0141

> <Gold.Rescore>
     Score         DG    S(hbond)    S(metal)    S(lipo)     H(rot)  DE(clash)    DE(int)     intcor
     20.92     -24.16       2.96        0.00     139.68       2.95       2.26       0.97       ----

> <Gold.Chemscore.Fitness>
20.9232

> <Gold.Chemscore.DG>
-24.1552

> <Gold.Chemscore.ZeroCoef>
-5.4800

> <Gold.Chemscore.Hbond>
2.9569

> <Gold.Chemscore.Metal>
0.0000

> <Gold.Chemscore.Lipo>
139.6839

> <Gold.Chemscore.Internal_Hbond>
0.0000

> <Gold.Chemscore.DEClash>
2.2609

> <Gold.Chemscore.DEInternal>
0.9711

> <Gold.Chemscore.Rot>
2.9469

> <Gold.Chemscore.Internal.Correction>
   9.000000E+99

> <Gold.Chemscore.Hbonds>
donor molecule, donor type, donor heavy atom, donor atom, acceptor molecule, acceptor atom, score
      L1  H    16    44       P1 10175  0.87
      L1  H    19    48       P1  7948  0.72
      P1  H  7954  7966       L1    19  0.30
      P1  H  7989  7998       L1    22  0.83

> <Gold.Chemscore.Hbond.Weighted>
-9.8761

> <Gold.Chemscore.Metal.Weighted>
-0.0000

> <Gold.Chemscore.Lipo.Weighted>
-16.3430

> <Gold.Chemscore.Internal_Hbond.Weighted>
0.0000

> <Gold.Chemscore.DEClash.Weighted>
2.2609

> <Gold.Chemscore.DEInternal.Weighted>
0.9711

> <Gold.Chemscore.Rot.Weighted>
7.5439

> <Gold.Chemscore.Internal.Correction.Weighted>
   9.000000E+99

> <Gold.Protein.RotatedTorsions>
[ 6907 6896 6895 6894 ] final  -19.22 input  -60.11 | X-H torsion
[ 7974 7965 7964 7962 ] final   32.05 input  175.53 | X-H torsion
[ 8008 7997 7996 7995 ] final -161.20 input   59.86 | X-H torsion
[ 10167 10162 10161 10158 ] final  -29.20 input  -65.29 | X-H torsion
[ 10718 10713 10712 10709 ] final   53.09 input   66.30 | X-H torsion
[ 10763 10752 10751 10750 ] final  -19.27 input  -60.55 | X-H torsion
[ 11005 11000 10999 10996 ] final   -1.99 input  -57.11 | X-H torsion

> <Gold.Protein.ActiveResidues>
 VAL166  LYS551  ARG553  GLY616  TRP617  ASP618  TYR619  PRO620  LYS621  CYS622 
 ASP623  PHE694  ASN695  SER759  ASP760  ASP761  ALA762  ILE779  LEU786  VAL792 
 PHE793  MET794  SER795  GLU796  ALA797  LYS798  CYS799  TRP800  GLU811  SER814 

> <Gold.Protein.RotatedAtoms>
  151.2663  135.0670  159.9117 H   0  0  0  0  0  0  0  0  0  0  0  0  # atno 6907 bound_to 6896
  152.5358  134.0177  159.7978 H   0  0  0  0  0  0  0  0  0  0  0  0  # atno 6908 bound_to 6896
  151.0408  133.5658  159.2682 H   0  0  0  0  0  0  0  0  0  0  0  0  # atno 6909 bound_to 6896
  146.1511  139.6576  142.9098 H   0  0  0  0  0  0  0  0  0  0  0  0  # atno 7974 bound_to 7965
  155.7887  140.0875  157.2021 H   0  0  0  0  0  0  0  0  0  0  0  0  # atno 8008 bound_to 7997
  154.3986  140.1494  156.3195 H   0  0  0  0  0  0  0  0  0  0  0  0  # atno 8009 bound_to 7997
  155.8581  140.3431  155.5740 H   0  0  0  0  0  0  0  0  0  0  0  0  # atno 8010 bound_to 7997
  140.7263  143.3948  151.1367 H   0  0  0  0  0  0  0  0  0  0  0  0  # atno 10167 bound_to 10162
  157.5135  130.8516  149.8465 H   0  0  0  0  0  0  0  0  0  0  0  0  # atno 10718 bound_to 10713
  153.6021  135.6999  153.5380 H   0  0  0  0  0  0  0  0  0  0  0  0  # atno 10763 bound_to 10752
  153.3088  135.4107  155.1317 H   0  0  0  0  0  0  0  0  0  0  0  0  # atno 10764 bound_to 10752
  154.8580  135.3667  154.5557 H   0  0  0  0  0  0  0  0  0  0  0  0  # atno 10765 bound_to 10752
  140.6534  133.9384  155.8393 H   0  0  0  0  0  0  0  0  0  0  0  0  # atno 11005 bound_to 11000
  145.4821  141.0438  143.2640 LP  0  0  0  0  0  0  0  0  0  0  0  0  # atno 17320 bound_to 7965
  144.7905  139.6338  143.7115 LP  0  0  0  0  0  0  0  0  0  0  0  0  # atno 17321 bound_to 7965
  139.7558  143.8709  152.3088 LP  0  0  0  0  0  0  0  0  0  0  0  0  # atno 17342 bound_to 10162
  139.8578  144.7132  150.9136 LP  0  0  0  0  0  0  0  0  0  0  0  0  # atno 17343 bound_to 10162
  156.0304  130.3766  150.1703 LP  0  0  0  0  0  0  0  0  0  0  0  0  # atno 17370 bound_to 10713
  156.9892  130.9888  151.3419 LP  0  0  0  0  0  0  0  0  0  0  0  0  # atno 17371 bound_to 10713
  141.0519  134.0472  157.3772 LP  0  0  0  0  0  0  0  0  0  0  0  0  # atno 17394 bound_to 11000
  139.9038  135.0173  156.7391 LP  0  0  0  0  0  0  0  0  0  0  0  0  # atno 17395 bound_to 11000

$$$$
