AV-unprocessed.smi:3003|AV-procd|sdf|11437|dock5
  -GOLD-   2272016363D 1   1.00000     0.00000
 Structure written by MMmdl.
 41 42  0  0  0  0  0  0  0  0  1 V2000
  149.3966  133.0971  155.0376 C   0  0  0  0  0  0  0  0  0  0  0  0
  150.1329  134.7496  154.9154 S   0  0  0  0  0  0  0  0  0  0  0  0
  148.8063  135.7747  155.6199 C   0  0  2  0  0  0  0  0  0  0  0  0
  147.4810  135.4984  154.8928 C   0  0  0  0  0  0  0  0  0  0  0  0
  149.1517  137.2682  155.5796 C   0  0  0  0  0  0  0  0  0  0  0  0
  149.0020  137.9680  156.5821 O   0  0  0  0  0  0  0  0  0  0  0  0
  149.6005  137.7484  154.4091 N   0  0  0  0  0  0  0  0  0  0  0  0
  149.9499  139.1426  154.1603 C   0  0  0  0  0  0  0  0  0  0  0  0
  150.6238  139.8130  155.3461 C   0  0  0  0  0  0  0  0  0  0  0  0
  150.0640  140.9510  155.9603 C   0  0  0  0  0  0  0  0  0  0  0  0
  150.7273  141.5306  157.0583 C   0  0  0  0  0  0  0  0  0  0  0  0
  151.9409  140.9604  157.5119 C   0  0  0  0  0  0  0  0  0  0  0  0
  152.6240  141.5242  158.6115 N   0  0  0  0  0  0  0  0  0  0  0  0
  153.0703  140.5810  159.6340 C   0  0  0  0  0  0  0  0  0  0  0  0
  154.0569  141.2630  160.5975 C   0  0  0  0  0  0  0  0  0  0  0  0
  153.4630  142.4339  161.1481 O   0  0  0  0  0  0  0  0  0  0  0  0
  153.1378  143.3860  160.1413 C   0  0  0  0  0  0  0  0  0  0  0  0
  152.1171  142.7792  159.1642 C   0  0  0  0  0  0  0  0  0  0  0  0
  152.4752  139.8652  156.9161 N   0  0  0  0  0  0  0  0  0  0  0  0
  151.8349  139.3130  155.8643 C   0  0  0  0  0  0  0  0  0  0  0  0
  150.0580  132.3591  154.5842 H   0  0  0  0  0  0  0  0  0  0  0  0
  148.4379  133.0655  154.5205 H   0  0  0  0  0  0  0  0  0  0  0  0
  149.2424  132.8211  156.0799 H   0  0  0  0  0  0  0  0  0  0  0  0
  148.6832  135.4698  156.6602 H   0  0  0  0  0  0  0  0  0  0  0  0
  146.6706  136.1051  155.2989 H   0  0  0  0  0  0  0  0  0  0  0  0
  147.1907  134.4527  154.9995 H   0  0  0  0  0  0  0  0  0  0  0  0
  147.5557  135.7118  153.8256 H   0  0  0  0  0  0  0  0  0  0  0  0
  149.6959  137.1064  153.6356 H   0  0  0  0  0  0  0  0  0  0  0  0
  150.5812  139.2172  153.2730 H   0  0  0  0  0  0  0  0  0  0  0  0
  149.0341  139.6885  153.9331 H   0  0  0  0  0  0  0  0  0  0  0  0
  149.1372  141.3735  155.6011 H   0  0  0  0  0  0  0  0  0  0  0  0
  150.2922  142.3904  157.5452 H   0  0  0  0  0  0  0  0  0  0  0  0
  152.1996  140.2227  160.1850 H   0  0  0  0  0  0  0  0  0  0  0  0
  153.5502  139.7063  159.1976 H   0  0  0  0  0  0  0  0  0  0  0  0
  154.3190  140.5835  161.4084 H   0  0  0  0  0  0  0  0  0  0  0  0
  154.9856  141.5196  160.0853 H   0  0  0  0  0  0  0  0  0  0  0  0
  152.7210  144.2750  160.6145 H   0  0  0  0  0  0  0  0  0  0  0  0
  154.0414  143.6990  159.6155 H   0  0  0  0  0  0  0  0  0  0  0  0
  151.9166  143.4921  158.3633 H   0  0  0  0  0  0  0  0  0  0  0  0
  151.1739  142.5919  159.6790 H   0  0  0  0  0  0  0  0  0  0  0  0
  152.3040  138.4436  155.4279 H   0  0  0  0  0  0  0  0  0  0  0  0
  1  2  1  0  0  0  0
  1 21  1  0  0  0  0
  1 22  1  0  0  0  0
  1 23  1  0  0  0  0
  2  3  1  0  0  0  0
  3  4  1  0  0  0  0
  3  5  1  0  0  0  0
  3 24  1  0  0  0  0
  4 25  1  0  0  0  0
  4 26  1  0  0  0  0
  4 27  1  0  0  0  0
  5  6  2  0  0  0  0
  5  7  1  0  0  0  0
  7  8  1  0  0  0  0
  7 28  1  0  0  0  0
  8  9  1  0  0  0  0
  8 29  1  0  0  0  0
  8 30  1  0  0  0  0
  9 20  1  0  0  0  0
  9 10  2  0  0  0  0
 10 11  1  0  0  0  0
 10 31  1  0  0  0  0
 11 12  2  0  0  0  0
 11 32  1  0  0  0  0
 12 13  1  0  0  0  0
 12 19  1  0  0  0  0
 13 18  1  0  0  0  0
 13 14  1  0  0  0  0
 14 15  1  0  0  0  0
 14 33  1  0  0  0  0
 14 34  1  0  0  0  0
 15 16  1  0  0  0  0
 15 35  1  0  0  0  0
 15 36  1  0  0  0  0
 16 17  1  0  0  0  0
 17 18  1  0  0  0  0
 17 37  1  0  0  0  0
 17 38  1  0  0  0  0
 18 39  1  0  0  0  0
 18 40  1  0  0  0  0
 19 20  2  0  0  0  0
 20 41  1  0  0  0  0
M  END
> <s_m_source_file>
AV-unprocessed.smi

> <i_m_source_file_index>
3003

> <i_lp_mmshare_version>
43012

> <i_f3d_flags>
0

> <s_epik_input>
W0NIM11TW0NASF0oW0NIM10pQyg9TylbTkhdW0NIMl1jMVtjSF1bY0hdYyhuW2NIXTEpTjJbQ0gyXVtDSDJdT1tDSDJdW0NIMl0y

> <s_epik_cmdline>
J2VwaWtfcHl0aG9uJywgJy1waCcsICc3LjAnLCAnLXRuJywgJzgnLCAnLW1hJywgJzIwMCcsICctbWV0YWxfYmluZGluZycsICctaW1hZScsICc8aW5maWxlLm1hZT4nLCAnLW9tYWUnLCAnPG91dGZpbGUubWFlPic=

> <r_lp_tautomer_probability>
1

> <r_epik_Ionization_Penalty>
0.00417642

> <r_epik_Ionization_Penalty_Charging>
0

> <r_epik_Ionization_Penalty_Neutral>
0.00417642

> <r_epik_State_Penalty>
0.00299889

> <r_epik_Charging_Adjusted_Penalty>
0.00299889

> <i_epik_Tot_Q>
0

> <i_epik_Tot_abs_Q>
0

> <r_epik_Metal_State_Penalty>
-0

> <b_epik_Metal_Only>
0

> <s_lp_Force_Field>
OPLS_2005

> <r_lp_Energy>
16.2796

> <b_lp_Chiralities_Consistent>
1

> <s_lp_Variant>
AV-unprocessed.smi:3003-1

> <Gold.Version>
5.8.1

> <Gold.Id.Protein>
6NUR|6NUR_protein|mol2

> <Gold.PLP.Fitness>
40.1991

> <Gold.PLP.PLP>
-35.1531

> <Gold.PLP.part.hbond>
-2.0000

> <Gold.PLP.part.metal>
0.0000

> <Gold.PLP.part.buried>
-3.2489

> <Gold.PLP.part.nonpolar>
-29.6255

> <Gold.PLP.part.repulsive>
0.0321

> <Gold.PLP.ligand.clash>
0.0034

> <Gold.PLP.ligand.torsion>
0.6646

> <Gold.PLP.Chemscore.Hbond>
2.0000

> <Gold.PLP.Chemscore.CHOScore>
0.0000

> <Gold.PLP.Chemscore.Metal>
0.0000

> <Gold.Chemscore.Hbonds>
donor molecule, donor type, donor heavy atom, donor atom, acceptor molecule, acceptor atom, score
      L1  H     7    28       P1  7948  0.88
      P1  H  7997  8010       L1    19  1.00

> <Gold.PLP.Chemscore.Internal.Correction>
0.3786

> <Gold.Rescore>
     Score         DG    S(hbond)    S(metal)    S(lipo)     H(rot)  DE(clash)    DE(int)     intcor
     15.73     -17.71       1.77        0.00      90.50       1.67       0.04       1.94       ----

> <Gold.Chemscore.Fitness>
15.7278

> <Gold.Chemscore.DG>
-17.7105

> <Gold.Chemscore.ZeroCoef>
-5.4800

> <Gold.Chemscore.Hbond>
1.7702

> <Gold.Chemscore.Metal>
0.0000

> <Gold.Chemscore.Lipo>
90.5009

> <Gold.Chemscore.Internal_Hbond>
0.0000

> <Gold.Chemscore.DEClash>
0.0392

> <Gold.Chemscore.DEInternal>
1.9435

> <Gold.Chemscore.Rot>
1.6682

> <Gold.Chemscore.Internal.Correction>
   9.000000E+99

> <Gold.Chemscore.Hbonds>
donor molecule, donor type, donor heavy atom, donor atom, acceptor molecule, acceptor atom, score
      L1  H     7    28       P1  7948  0.61
      P1  H  7997  8010       L1    19  0.61

> <Gold.Chemscore.Hbond.Weighted>
-5.9126

> <Gold.Chemscore.Metal.Weighted>
-0.0000

> <Gold.Chemscore.Lipo.Weighted>
-10.5886

> <Gold.Chemscore.Internal_Hbond.Weighted>
0.0000

> <Gold.Chemscore.DEClash.Weighted>
0.0392

> <Gold.Chemscore.DEInternal.Weighted>
1.9435

> <Gold.Chemscore.Rot.Weighted>
4.2707

> <Gold.Chemscore.Internal.Correction.Weighted>
   9.000000E+99

> <Gold.Protein.RotatedTorsions>
[ 6907 6896 6895 6894 ] final   86.06 input  -60.11 | X-H torsion
[ 7974 7965 7964 7962 ] final   21.13 input  175.53 | X-H torsion
[ 8008 7997 7996 7995 ] final   69.13 input   59.86 | X-H torsion
[ 10167 10162 10161 10158 ] final -115.39 input  -65.29 | X-H torsion
[ 10718 10713 10712 10709 ] final   62.90 input   66.30 | X-H torsion
[ 10763 10752 10751 10750 ] final -159.76 input  -60.55 | X-H torsion
[ 11005 11000 10999 10996 ] final  118.44 input  -57.11 | X-H torsion

> <Gold.Protein.ActiveResidues>
 VAL166  LYS551  ARG553  GLY616  TRP617  ASP618  TYR619  PRO620  LYS621  CYS622 
 ASP623  PHE694  ASN695  SER759  ASP760  ASP761  ALA762  ILE779  LEU786  VAL792 
 PHE793  MET794  SER795  GLU796  ALA797  LYS798  CYS799  TRP800  GLU811  SER814 

> <Gold.Protein.RotatedAtoms>
  152.5387  134.2490  159.8890 H   0  0  0  0  0  0  0  0  0  0  0  0  # atno 6907 bound_to 6896
  151.2454  133.4371  159.2616 H   0  0  0  0  0  0  0  0  0  0  0  0  # atno 6908 bound_to 6896
  151.0588  134.9737  159.8306 H   0  0  0  0  0  0  0  0  0  0  0  0  # atno 6909 bound_to 6896
  146.2084  139.8071  142.8708 H   0  0  0  0  0  0  0  0  0  0  0  0  # atno 7974 bound_to 7965
  155.7189  140.3493  155.5007 H   0  0  0  0  0  0  0  0  0  0  0  0  # atno 8008 bound_to 7997
  155.9288  140.1080  157.1170 H   0  0  0  0  0  0  0  0  0  0  0  0  # atno 8009 bound_to 7997
  154.4082  140.1235  156.4762 H   0  0  0  0  0  0  0  0  0  0  0  0  # atno 8010 bound_to 7997
  140.0906  143.4703  152.1872 H   0  0  0  0  0  0  0  0  0  0  0  0  # atno 10167 bound_to 10162
  157.5934  130.9076  149.9647 H   0  0  0  0  0  0  0  0  0  0  0  0  # atno 10718 bound_to 10713
  154.7447  135.3077  154.8665 H   0  0  0  0  0  0  0  0  0  0  0  0  # atno 10763 bound_to 10752
  153.9469  135.6768  153.4748 H   0  0  0  0  0  0  0  0  0  0  0  0  # atno 10764 bound_to 10752
  153.1044  135.4896  154.8851 H   0  0  0  0  0  0  0  0  0  0  0  0  # atno 10765 bound_to 10752
  139.9110  134.9620  156.7503 H   0  0  0  0  0  0  0  0  0  0  0  0  # atno 11005 bound_to 11000
  145.3235  141.0249  143.3487 LP  0  0  0  0  0  0  0  0  0  0  0  0  # atno 17320 bound_to 7965
  144.8850  139.4852  143.6705 LP  0  0  0  0  0  0  0  0  0  0  0  0  # atno 17321 bound_to 7965
  139.5727  144.7471  151.3849 LP  0  0  0  0  0  0  0  0  0  0  0  0  # atno 17342 bound_to 10162
  140.7030  143.7584  150.7435 LP  0  0  0  0  0  0  0  0  0  0  0  0  # atno 17343 bound_to 10162
  156.0992  130.3657  150.0250 LP  0  0  0  0  0  0  0  0  0  0  0  0  # atno 17370 bound_to 10713
  156.8368  130.9412  151.3634 LP  0  0  0  0  0  0  0  0  0  0  0  0  # atno 17371 bound_to 10713
  140.6778  133.9501  155.7893 LP  0  0  0  0  0  0  0  0  0  0  0  0  # atno 17394 bound_to 11000
  141.0531  134.0455  157.3757 LP  0  0  0  0  0  0  0  0  0  0  0  0  # atno 17395 bound_to 11000

$$$$
