AV-unprocessed.smi:2061|AV-procd|sdf|8391|dock4
  -GOLD-   2272011 73D 1   1.00000     0.00000
 Structure written by MMmdl.
 45 46  0  0  0  0  0  0  0  0  3 V2000
  150.8608  141.8823  157.7486 C   0  0  0  0  0  0  0  0  0  0  0  0
  150.4590  141.2000  156.4864 C   0  0  0  0  0  0  0  0  0  0  0  0
  149.2889  141.1633  155.7814 C   0  0  0  0  0  0  0  0  0  0  0  0
  149.6046  140.3263  154.6781 C   0  0  0  0  0  0  0  0  0  0  0  0
  148.6276  140.0293  153.6914 N   0  0  0  0  0  0  0  0  0  0  0  0
  147.2869  140.0505  153.8014 C   0  0  0  0  0  0  0  0  0  0  0  0
  146.7525  140.3351  154.8802 O   0  0  0  0  0  0  0  0  0  0  0  0
  146.6670  139.7392  152.6293 N   0  5  0  0  0  0  0  0  0  0  0  0
  146.3900  138.3778  152.1670 C   0  0  0  0  0  0  0  0  0  0  0  0
  146.3978  137.3700  153.3505 C   0  0  1  0  0  0  0  0  0  0  0  0
  145.3130  137.6417  154.4229 C   0  0  0  0  0  0  0  0  0  0  0  0
  146.3740  135.9646  152.8394 N   0  3  1  0  0  0  0  0  0  0  0  0
  146.5005  134.9426  153.9075 C   0  0  0  0  0  0  0  0  0  0  0  0
  146.6771  133.5356  153.3034 C   0  0  2  0  0  0  0  0  0  0  0  0
  148.0739  133.2995  152.7020 C   0  0  0  0  0  0  0  0  0  0  0  0
  145.6340  133.2608  152.3676 O   0  0  0  0  0  0  0  0  0  0  0  0
  145.5021  134.2142  151.3156 C   0  0  1  0  0  0  0  0  0  0  0  0
  144.3422  133.7669  150.4192 C   0  0  0  0  0  0  0  0  0  0  0  0
  145.2599  135.6077  151.9198 C   0  0  0  0  0  0  0  0  0  0  0  0
  150.8559  139.8914  154.7088 N   0  0  0  0  0  0  0  0  0  0  0  0
  151.4097  140.4497  155.8668 O   0  0  0  0  0  0  0  0  0  0  0  0
  149.9851  142.1818  158.3244 H   0  0  0  0  0  0  0  0  0  0  0  0
  151.4470  142.7757  157.5331 H   0  0  0  0  0  0  0  0  0  0  0  0
  151.4647  141.2221  158.3715 H   0  0  0  0  0  0  0  0  0  0  0  0
  148.3576  141.6558  156.0182 H   0  0  0  0  0  0  0  0  0  0  0  0
  148.9882  139.7775  152.7830 H   0  0  0  0  0  0  0  0  0  0  0  0
  145.4272  138.3196  151.6589 H   0  0  0  0  0  0  0  0  0  0  0  0
  147.1212  138.0546  151.4241 H   0  0  0  0  0  0  0  0  0  0  0  0
  147.3612  137.4975  153.8469 H   0  0  0  0  0  0  0  0  0  0  0  0
  145.4436  138.6184  154.8923 H   0  0  0  0  0  0  0  0  0  0  0  0
  145.3666  136.9047  155.2243 H   0  0  0  0  0  0  0  0  0  0  0  0
  144.3003  137.6109  154.0171 H   0  0  0  0  0  0  0  0  0  0  0  0
  147.3486  135.1684  154.5555 H   0  0  0  0  0  0  0  0  0  0  0  0
  145.6082  134.9688  154.5343 H   0  0  0  0  0  0  0  0  0  0  0  0
  146.5569  132.8115  154.1097 H   0  0  0  0  0  0  0  0  0  0  0  0
  148.8435  133.3849  153.4695 H   0  0  0  0  0  0  0  0  0  0  0  0
  148.3168  134.0195  151.9209 H   0  0  0  0  0  0  0  0  0  0  0  0
  148.1480  132.3004  152.2724 H   0  0  0  0  0  0  0  0  0  0  0  0
  146.4100  134.2284  150.7122 H   0  0  0  0  0  0  0  0  0  0  0  0
  144.1997  134.4564  149.5868 H   0  0  0  0  0  0  0  0  0  0  0  0
  143.4066  133.7182  150.9774 H   0  0  0  0  0  0  0  0  0  0  0  0
  144.5316  132.7775  150.0020 H   0  0  0  0  0  0  0  0  0  0  0  0
  144.3120  135.6126  152.4599 H   0  0  0  0  0  0  0  0  0  0  0  0
  145.1762  136.3414  151.1174 H   0  0  0  0  0  0  0  0  0  0  0  0
  147.2220  135.8826  152.2964 H   0  0  0  0  0  0  0  0  0  0  0  0
  1  2  1  0  0  0  0
  1 22  1  0  0  0  0
  1 23  1  0  0  0  0
  1 24  1  0  0  0  0
  2 21  1  0  0  0  0
  2  3  2  0  0  0  0
  3  4  1  0  0  0  0
  3 25  1  0  0  0  0
  4  5  1  0  0  0  0
  4 20  2  0  0  0  0
  5  6  1  0  0  0  0
  5 26  1  0  0  0  0
  6  7  2  0  0  0  0
  6  8  1  0  0  0  0
  8  9  1  0  0  0  0
  9 10  1  0  0  0  0
  9 27  1  0  0  0  0
  9 28  1  0  0  0  0
 10 11  1  0  0  0  0
 10 12  1  0  0  0  0
 10 29  1  0  0  0  0
 11 30  1  0  0  0  0
 11 31  1  0  0  0  0
 11 32  1  0  0  0  0
 12 19  1  0  0  0  0
 12 13  1  0  0  0  0
 12 45  1  0  0  0  0
 13 14  1  0  0  0  0
 13 33  1  0  0  0  0
 13 34  1  0  0  0  0
 14 15  1  0  0  0  0
 14 16  1  0  0  0  0
 14 35  1  0  0  0  0
 15 36  1  0  0  0  0
 15 37  1  0  0  0  0
 15 38  1  0  0  0  0
 16 17  1  0  0  0  0
 17 18  1  0  0  0  0
 17 19  1  0  0  0  0
 17 39  1  0  0  0  0
 18 40  1  0  0  0  0
 18 41  1  0  0  0  0
 18 42  1  0  0  0  0
 19 43  1  0  0  0  0
 19 44  1  0  0  0  0
 20 21  1  0  0  0  0
M  CHG  1   8  -1
M  CHG  1  12   1
M  END
> <s_m_source_file>
AV-unprocessed.smi

> <i_m_source_file_index>
2061

> <i_lp_mmshare_version>
43012

> <i_f3d_flags>
0

> <s_epik_input>
W0NIM11jMVtjSF1jKG5vMSlbTkhdQyg9TylbTkhdW0NIMl1bQ0BIXShbQ0gzXSlOMltDSDJdW0NAQEhdKFtDSDNdKU9bQ0BASF0oW0NIM10pW0NIMl0y

> <s_epik_cmdline>
J2VwaWtfcHl0aG9uJywgJy1waCcsICc3LjAnLCAnLXRuJywgJzgnLCAnLW1hJywgJzIwMCcsICctbWV0YWxfYmluZGluZycsICctaW1hZScsICc8aW5maWxlLm1hZT4nLCAnLW9tYWUnLCAnPG91dGZpbGUubWFlPic=

> <r_epik_Ionization_Penalty>
6.8073

> <r_epik_Ionization_Penalty_Charging>
6.80729

> <r_epik_Ionization_Penalty_Neutral>
5.65391e-06

> <r_epik_State_Penalty>
7.47323

> <r_epik_Charging_Adjusted_Penalty>
14.2805

> <i_epik_Tot_Q>
0

> <i_epik_Tot_abs_Q>
2

> <r_epik_Metal_State_Penalty>
3.40035

> <b_epik_Metal_Only>
1

> <s_lp_Force_Field>
OPLS_2005

> <r_lp_Energy>
19.3707

> <b_lp_Chiralities_Consistent>
1

> <s_lp_Variant>
AV-unprocessed.smi:2061-32

> <Gold.Version>
5.8.1

> <Gold.Id.Protein>
6NUR|6NUR_protein|mol2

> <Gold.PLP.Fitness>
42.7931

> <Gold.PLP.PLP>
-32.8631

> <Gold.PLP.part.hbond>
-3.5294

> <Gold.PLP.part.metal>
0.0000

> <Gold.PLP.part.buried>
-4.3469

> <Gold.PLP.part.nonpolar>
-26.9552

> <Gold.PLP.part.repulsive>
1.4878

> <Gold.PLP.ligand.clash>
0.0000

> <Gold.PLP.ligand.torsion>
1.1098

> <Gold.PLP.Chemscore.Hbond>
4.0000

> <Gold.PLP.Chemscore.CHOScore>
0.0000

> <Gold.PLP.Chemscore.Metal>
0.0000

> <Gold.Chemscore.Hbonds>
donor molecule, donor type, donor heavy atom, donor atom, acceptor molecule, acceptor atom, score
      L1  H     5    26       P1  7957  1.00
      L1  H    12    45       P1  7948  2.00
      P1  H  7989  7998       L1    20  1.00

> <Gold.PLP.Chemscore.Internal.Correction>
0.1495

> <Gold.Rescore>
     Score         DG    S(hbond)    S(metal)    S(lipo)     H(rot)  DE(clash)    DE(int)     intcor
     13.68     -17.22       2.51        0.00      62.75       1.56       1.04       2.49       ----

> <Gold.Chemscore.Fitness>
13.6848

> <Gold.Chemscore.DG>
-17.2187

> <Gold.Chemscore.ZeroCoef>
-5.4800

> <Gold.Chemscore.Hbond>
2.5081

> <Gold.Chemscore.Metal>
0.0000

> <Gold.Chemscore.Lipo>
62.7548

> <Gold.Chemscore.Internal_Hbond>
0.0000

> <Gold.Chemscore.DEClash>
1.0440

> <Gold.Chemscore.DEInternal>
2.4899

> <Gold.Chemscore.Rot>
1.5550

> <Gold.Chemscore.Internal.Correction>
   9.000000E+99

> <Gold.Chemscore.Hbonds>
donor molecule, donor type, donor heavy atom, donor atom, acceptor molecule, acceptor atom, score
      L1  H     5    26       P1  7957  0.99
      L1  H    12    45       P1  7948  0.99
      P1  H  7989  7998       L1    20  0.10

> <Gold.Chemscore.Hbond.Weighted>
-8.3772

> <Gold.Chemscore.Metal.Weighted>
-0.0000

> <Gold.Chemscore.Lipo.Weighted>
-7.3423

> <Gold.Chemscore.Internal_Hbond.Weighted>
0.0000

> <Gold.Chemscore.DEClash.Weighted>
1.0440

> <Gold.Chemscore.DEInternal.Weighted>
2.4899

> <Gold.Chemscore.Rot.Weighted>
3.9809

> <Gold.Chemscore.Internal.Correction.Weighted>
   9.000000E+99

> <Gold.Protein.RotatedTorsions>
[ 6907 6896 6895 6894 ] final  -34.70 input  -60.11 | X-H torsion
[ 7974 7965 7964 7962 ] final  141.04 input  175.53 | X-H torsion
[ 8008 7997 7996 7995 ] final -170.72 input   59.86 | X-H torsion
[ 10167 10162 10161 10158 ] final  176.62 input  -65.29 | X-H torsion
[ 10718 10713 10712 10709 ] final -141.51 input   66.30 | X-H torsion
[ 10763 10752 10751 10750 ] final  178.00 input  -60.55 | X-H torsion
[ 11005 11000 10999 10996 ] final  -30.86 input  -57.11 | X-H torsion

> <Gold.Protein.ActiveResidues>
 VAL166  LYS551  ARG553  GLY616  TRP617  ASP618  TYR619  PRO620  LYS621  CYS622 
 ASP623  PHE694  ASN695  SER759  ASP760  ASP761  ALA762  ILE779  LEU786  VAL792 
 PHE793  MET794  SER795  GLU796  ALA797  LYS798  CYS799  TRP800  GLU811  SER814 

> <Gold.Protein.RotatedAtoms>
  151.0493  134.9662  159.8202 H   0  0  0  0  0  0  0  0  0  0  0  0  # atno 6907 bound_to 6896
  152.5378  134.2558  159.8926 H   0  0  0  0  0  0  0  0  0  0  0  0  # atno 6908 bound_to 6896
  151.2573  133.4277  159.2648 H   0  0  0  0  0  0  0  0  0  0  0  0  # atno 6909 bound_to 6896
  144.9132  139.5265  143.5699 H   0  0  0  0  0  0  0  0  0  0  0  0  # atno 7974 bound_to 7965
  155.9221  140.1076  157.1199 H   0  0  0  0  0  0  0  0  0  0  0  0  # atno 8008 bound_to 7997
  154.4056  140.1254  156.4758 H   0  0  0  0  0  0  0  0  0  0  0  0  # atno 8009 bound_to 7997
  155.7183  140.3470  155.5007 H   0  0  0  0  0  0  0  0  0  0  0  0  # atno 8010 bound_to 7997
  139.5221  144.2893  152.0477 H   0  0  0  0  0  0  0  0  0  0  0  0  # atno 10167 bound_to 10162
  156.3348  130.7606  151.1731 H   0  0  0  0  0  0  0  0  0  0  0  0  # atno 10718 bound_to 10713
  154.5019  135.2784  155.1413 H   0  0  0  0  0  0  0  0  0  0  0  0  # atno 10763 bound_to 10752
  154.3043  135.6242  153.5442 H   0  0  0  0  0  0  0  0  0  0  0  0  # atno 10764 bound_to 10752
  152.9904  135.5704  154.5464 H   0  0  0  0  0  0  0  0  0  0  0  0  # atno 10765 bound_to 10752
  140.9419  133.7274  156.1088 H   0  0  0  0  0  0  0  0  0  0  0  0  # atno 11005 bound_to 11000
  146.3169  139.7954  142.8976 LP  0  0  0  0  0  0  0  0  0  0  0  0  # atno 17320 bound_to 7965
  145.3419  141.0289  143.3387 LP  0  0  0  0  0  0  0  0  0  0  0  0  # atno 17321 bound_to 7965
  140.2345  144.4334  150.6286 LP  0  0  0  0  0  0  0  0  0  0  0  0  # atno 17342 bound_to 10162
  140.6332  143.2191  151.6450 LP  0  0  0  0  0  0  0  0  0  0  0  0  # atno 17343 bound_to 10162
  157.7437  131.0471  150.4927 LP  0  0  0  0  0  0  0  0  0  0  0  0  # atno 17370 bound_to 10713
  156.5098  130.4136  149.6307 LP  0  0  0  0  0  0  0  0  0  0  0  0  # atno 17371 bound_to 10713
  140.7723  134.3819  157.5505 LP  0  0  0  0  0  0  0  0  0  0  0  0  # atno 17394 bound_to 11000
  139.8822  134.9030  156.2844 LP  0  0  0  0  0  0  0  0  0  0  0  0  # atno 17395 bound_to 11000

$$$$
