AV-unprocessed.smi:552|AV-procd|sdf|2903|dock6
  -GOLD-   2262023393D 1   1.00000     0.00000
 Structure written by MMmdl.
 42 43  0  0  0  0  0  0  0  0  1 V2000
  147.7133  133.2777  152.2457 C   0  0  0  0  0  0  0  0  0  0  0  0
  149.0268  132.5835  152.6342 C   0  0  0  0  0  0  0  0  0  0  0  0
  149.6378  133.0973  153.9525 C   0  0  1  0  0  0  0  0  0  0  0  0
  150.9941  132.4392  154.2411 C   0  0  0  0  0  0  0  0  0  0  0  0
  149.8059  134.5496  153.9093 N   0  0  0  0  0  0  0  0  0  0  0  0
  150.3329  135.3108  154.8800 C   0  0  0  0  0  0  0  0  0  0  0  0
  150.7526  134.8640  155.9473 O   0  0  0  0  0  0  0  0  0  0  0  0
  150.3137  136.6110  154.5393 N   0  0  0  0  0  0  0  0  0  0  0  0
  150.7779  137.7245  155.2899 C   0  0  0  0  0  0  0  0  0  0  0  0
  150.7084  139.0660  154.8450 C   0  0  0  0  0  0  0  0  0  0  0  0
  151.1863  140.0878  155.6874 C   0  0  0  0  0  0  0  0  0  0  0  0
  151.7107  139.7405  156.9490 C   0  0  0  0  0  0  0  0  0  0  0  0
  152.1905  140.7562  157.7873 N   0  0  0  0  0  0  0  0  0  0  0  0
  152.7976  140.2590  159.0155 C   0  0  0  0  0  0  0  0  0  0  0  0
  153.4127  141.4264  159.8068 C   0  0  0  0  0  0  0  0  0  0  0  0
  152.4159  142.4142  160.0546 O   0  0  0  0  0  0  0  0  0  0  0  0
  151.8777  142.9466  158.8473 C   0  0  0  0  0  0  0  0  0  0  0  0
  151.2224  141.8178  158.0326 C   0  0  0  0  0  0  0  0  0  0  0  0
  151.7668  138.4607  157.3879 N   0  0  0  0  0  0  0  0  0  0  0  0
  151.3059  137.4860  156.5757 C   0  0  0  0  0  0  0  0  0  0  0  0
  147.2974  132.8375  151.3392 H   0  0  0  0  0  0  0  0  0  0  0  0
  147.8615  134.3408  152.0554 H   0  0  0  0  0  0  0  0  0  0  0  0
  146.9679  133.1791  153.0350 H   0  0  0  0  0  0  0  0  0  0  0  0
  148.8383  131.5130  152.7232 H   0  0  0  0  0  0  0  0  0  0  0  0
  149.7475  132.6965  151.8233 H   0  0  0  0  0  0  0  0  0  0  0  0
  148.9646  132.8194  154.7651 H   0  0  0  0  0  0  0  0  0  0  0  0
  150.8982  131.3548  154.3003 H   0  0  0  0  0  0  0  0  0  0  0  0
  151.4041  132.7841  155.1910 H   0  0  0  0  0  0  0  0  0  0  0  0
  151.7215  132.6667  153.4610 H   0  0  0  0  0  0  0  0  0  0  0  0
  149.4848  135.0131  153.0721 H   0  0  0  0  0  0  0  0  0  0  0  0
  149.8559  136.8362  153.6683 H   0  0  0  0  0  0  0  0  0  0  0  0
  150.2888  139.3323  153.8874 H   0  0  0  0  0  0  0  0  0  0  0  0
  151.1458  141.1194  155.3695 H   0  0  0  0  0  0  0  0  0  0  0  0
  152.0438  139.7565  159.6235 H   0  0  0  0  0  0  0  0  0  0  0  0
  153.5651  139.5217  158.7770 H   0  0  0  0  0  0  0  0  0  0  0  0
  153.8052  141.0702  160.7591 H   0  0  0  0  0  0  0  0  0  0  0  0
  154.2487  141.8678  159.2618 H   0  0  0  0  0  0  0  0  0  0  0  0
  151.1402  143.7108  159.0925 H   0  0  0  0  0  0  0  0  0  0  0  0
  152.6647  143.4355  158.2706 H   0  0  0  0  0  0  0  0  0  0  0  0
  150.8512  142.2065  157.0834 H   0  0  0  0  0  0  0  0  0  0  0  0
  150.3651  141.4184  158.5765 H   0  0  0  0  0  0  0  0  0  0  0  0
  151.3670  136.4805  156.9657 H   0  0  0  0  0  0  0  0  0  0  0  0
  1  2  1  0  0  0  0
  1 21  1  0  0  0  0
  1 22  1  0  0  0  0
  1 23  1  0  0  0  0
  2  3  1  0  0  0  0
  2 24  1  0  0  0  0
  2 25  1  0  0  0  0
  3  4  1  0  0  0  0
  3  5  1  0  0  0  0
  3 26  1  0  0  0  0
  4 27  1  0  0  0  0
  4 28  1  0  0  0  0
  4 29  1  0  0  0  0
  5  6  1  0  0  0  0
  5 30  1  0  0  0  0
  6  7  2  0  0  0  0
  6  8  1  0  0  0  0
  8  9  1  0  0  0  0
  8 31  1  0  0  0  0
  9 20  1  0  0  0  0
  9 10  2  0  0  0  0
 10 11  1  0  0  0  0
 10 32  1  0  0  0  0
 11 12  2  0  0  0  0
 11 33  1  0  0  0  0
 12 13  1  0  0  0  0
 12 19  1  0  0  0  0
 13 18  1  0  0  0  0
 13 14  1  0  0  0  0
 14 15  1  0  0  0  0
 14 34  1  0  0  0  0
 14 35  1  0  0  0  0
 15 16  1  0  0  0  0
 15 36  1  0  0  0  0
 15 37  1  0  0  0  0
 16 17  1  0  0  0  0
 17 18  1  0  0  0  0
 17 38  1  0  0  0  0
 17 39  1  0  0  0  0
 18 40  1  0  0  0  0
 18 41  1  0  0  0  0
 19 20  2  0  0  0  0
 20 42  1  0  0  0  0
M  END
> <s_m_source_file>
AV-unprocessed.smi

> <i_m_source_file_index>
552

> <i_lp_mmshare_version>
43012

> <i_f3d_flags>
0

> <s_epik_input>
W0NIM11bQ0gyXVtDQEhdKFtDSDNdKVtOSF1DKD1PKVtOSF1jMVtjSF1bY0hdYyhuW2NIXTEpTjJbQ0gyXVtDSDJdT1tDSDJdW0NIMl0y

> <s_epik_cmdline>
J2VwaWtfcHl0aG9uJywgJy1waCcsICc3LjAnLCAnLXRuJywgJzgnLCAnLW1hJywgJzIwMCcsICctbWV0YWxfYmluZGluZycsICctaW1hZScsICc8aW5maWxlLm1hZT4nLCAnLW9tYWUnLCAnPG91dGZpbGUubWFlPic=

> <r_lp_tautomer_probability>
1

> <r_epik_Ionization_Penalty>
0.00215965

> <r_epik_Ionization_Penalty_Charging>
0

> <r_epik_Ionization_Penalty_Neutral>
0.00215965

> <r_epik_State_Penalty>
0.00145276

> <r_epik_Charging_Adjusted_Penalty>
0.00145276

> <i_epik_Tot_Q>
0

> <i_epik_Tot_abs_Q>
0

> <r_epik_Metal_State_Penalty>
-0

> <b_epik_Metal_Only>
0

> <s_lp_Force_Field>
OPLS_2005

> <r_lp_Energy>
22.6914

> <b_lp_Chiralities_Consistent>
1

> <s_lp_Variant>
AV-unprocessed.smi:552-2

> <Gold.Version>
5.8.1

> <Gold.Id.Protein>
6NUR|6NUR_protein|mol2

> <Gold.PLP.Fitness>
40.0773

> <Gold.PLP.PLP>
-34.1414

> <Gold.PLP.part.hbond>
-2.0000

> <Gold.PLP.part.metal>
0.0000

> <Gold.PLP.part.buried>
-4.0358

> <Gold.PLP.part.nonpolar>
-28.1340

> <Gold.PLP.part.repulsive>
0.0741

> <Gold.PLP.ligand.clash>
0.0000

> <Gold.PLP.ligand.torsion>
0.0790

> <Gold.PLP.Chemscore.Hbond>
1.9920

> <Gold.PLP.Chemscore.CHOScore>
0.0000

> <Gold.PLP.Chemscore.Metal>
0.0000

> <Gold.Chemscore.Hbonds>
donor molecule, donor type, donor heavy atom, donor atom, acceptor molecule, acceptor atom, score
      L1  H     5    30       P1  7948  0.25
      L1  H     8    31       P1  7948  0.89

> <Gold.PLP.Chemscore.Internal.Correction>
0.1179

> <Gold.Rescore>
     Score         DG    S(hbond)    S(metal)    S(lipo)     H(rot)  DE(clash)    DE(int)     intcor
     15.05     -16.86       1.77        0.00      76.48       1.35       0.04       1.77       ----

> <Gold.Chemscore.Fitness>
15.0502

> <Gold.Chemscore.DG>
-16.8645

> <Gold.Chemscore.ZeroCoef>
-5.4800

> <Gold.Chemscore.Hbond>
1.7667

> <Gold.Chemscore.Metal>
0.0000

> <Gold.Chemscore.Lipo>
76.4751

> <Gold.Chemscore.Internal_Hbond>
0.0000

> <Gold.Chemscore.DEClash>
0.0431

> <Gold.Chemscore.DEInternal>
1.7711

> <Gold.Chemscore.Rot>
1.3530

> <Gold.Chemscore.Internal.Correction>
   9.000000E+99

> <Gold.Chemscore.Hbonds>
donor molecule, donor type, donor heavy atom, donor atom, acceptor molecule, acceptor atom, score
      L1  H     8    31       P1  7948  0.37

> <Gold.Chemscore.Hbond.Weighted>
-5.9007

> <Gold.Chemscore.Metal.Weighted>
-0.0000

> <Gold.Chemscore.Lipo.Weighted>
-8.9476

> <Gold.Chemscore.Internal_Hbond.Weighted>
0.0000

> <Gold.Chemscore.DEClash.Weighted>
0.0431

> <Gold.Chemscore.DEInternal.Weighted>
1.7711

> <Gold.Chemscore.Rot.Weighted>
3.4638

> <Gold.Chemscore.Internal.Correction.Weighted>
   9.000000E+99

> <Gold.Protein.RotatedTorsions>
[ 6907 6896 6895 6894 ] final  -15.04 input  -60.11 | X-H torsion
[ 7974 7965 7964 7962 ] final   20.20 input  175.53 | X-H torsion
[ 8008 7997 7996 7995 ] final   54.16 input   59.86 | X-H torsion
[ 10167 10162 10161 10158 ] final -140.15 input  -65.29 | X-H torsion
[ 10718 10713 10712 10709 ] final   74.17 input   66.30 | X-H torsion
[ 10763 10752 10751 10750 ] final    1.35 input  -60.55 | X-H torsion
[ 11005 11000 10999 10996 ] final   -7.37 input  -57.11 | X-H torsion

> <Gold.Protein.ActiveResidues>
 VAL166  LYS551  ARG553  GLY616  TRP617  ASP618  TYR619  PRO620  LYS621  CYS622 
 ASP623  PHE694  ASN695  SER759  ASP760  ASP761  ALA762  ILE779  LEU786  VAL792 
 PHE793  MET794  SER795  GLU796  ALA797  LYS798  CYS799  TRP800  GLU811  SER814 

> <Gold.Protein.RotatedAtoms>
  151.3301  135.0839  159.9335 H   0  0  0  0  0  0  0  0  0  0  0  0  # atno 6907 bound_to 6896
  152.5236  133.9551  159.7701 H   0  0  0  0  0  0  0  0  0  0  0  0  # atno 6908 bound_to 6896
  150.9888  133.6117  159.2741 H   0  0  0  0  0  0  0  0  0  0  0  0  # atno 6909 bound_to 6896
  146.2120  139.8204  142.8681 H   0  0  0  0  0  0  0  0  0  0  0  0  # atno 7974 bound_to 7965
  155.4802  140.3468  155.4338 H   0  0  0  0  0  0  0  0  0  0  0  0  # atno 8008 bound_to 7997
  156.1044  140.1444  156.9453 H   0  0  0  0  0  0  0  0  0  0  0  0  # atno 8009 bound_to 7997
  154.4714  140.0899  156.7133 H   0  0  0  0  0  0  0  0  0  0  0  0  # atno 8010 bound_to 7997
  139.8309  143.7448  152.2666 H   0  0  0  0  0  0  0  0  0  0  0  0  # atno 10167 bound_to 10162
  157.6580  130.9665  150.1173 H   0  0  0  0  0  0  0  0  0  0  0  0  # atno 10718 bound_to 10713
  153.3091  135.6961  153.7132 H   0  0  0  0  0  0  0  0  0  0  0  0  # atno 10763 bound_to 10752
  153.6016  135.3461  155.2948 H   0  0  0  0  0  0  0  0  0  0  0  0  # atno 10764 bound_to 10752
  154.8570  135.4342  154.2224 H   0  0  0  0  0  0  0  0  0  0  0  0  # atno 10765 bound_to 10752
  140.7120  133.8901  155.8758 H   0  0  0  0  0  0  0  0  0  0  0  0  # atno 11005 bound_to 11000
  145.3102  141.0218  143.3559 LP  0  0  0  0  0  0  0  0  0  0  0  0  # atno 17320 bound_to 7965
  144.8941  139.4735  143.6664 LP  0  0  0  0  0  0  0  0  0  0  0  0  # atno 17321 bound_to 7965
  139.7655  144.7493  151.0301 LP  0  0  0  0  0  0  0  0  0  0  0  0  # atno 17342 bound_to 10162
  140.7806  143.4703  151.0156 LP  0  0  0  0  0  0  0  0  0  0  0  0  # atno 17343 bound_to 10162
  156.2054  130.3663  149.8736 LP  0  0  0  0  0  0  0  0  0  0  0  0  # atno 17370 bound_to 10713
  156.6629  130.8789  151.3550 LP  0  0  0  0  0  0  0  0  0  0  0  0  # atno 17371 bound_to 10713
  141.0076  134.1064  157.4254 LP  0  0  0  0  0  0  0  0  0  0  0  0  # atno 17394 bound_to 11000
  139.8869  135.0085  156.6529 LP  0  0  0  0  0  0  0  0  0  0  0  0  # atno 17395 bound_to 11000

$$$$
