AV-unprocessed.smi:114|AV-procd|sdf|1111|dock2
  -GOLD-   2262018223D 1   1.00000     0.00000
 Structure written by MMmdl.
 32 34  0  0  0  0  0  0  0  0  1 V2000
  153.9212  136.5264  161.2160 N   0  0  0  0  0  0  0  0  0  0  0  0
  153.8149  137.5710  160.3828 C   0  0  0  0  0  0  0  0  0  0  0  0
  154.5383  138.6836  160.6483 N   0  0  0  0  0  0  0  0  0  0  0  0
  154.4610  139.7500  159.8421 C   0  0  0  0  0  0  0  0  0  0  0  0
  155.2189  140.8180  160.1842 F   0  0  0  0  0  0  0  0  0  0  0  0
  153.7190  139.8792  158.7366 N   0  0  0  0  0  0  0  0  0  0  0  0
  152.9892  138.7582  158.4676 C   0  0  0  0  0  0  0  0  0  0  0  0
  152.9813  137.5658  159.2381 C   0  0  0  0  0  0  0  0  0  0  0  0
  152.1226  136.6378  158.6648 N   0  0  0  0  0  0  0  0  0  0  0  0
  151.6504  137.2544  157.6140 C   0  0  0  0  0  0  0  0  0  0  0  0
  152.1271  138.5339  157.4167 N   0  0  0  0  0  0  0  0  0  0  0  0
  151.8018  139.5085  156.3263 C   0  0  2  0  0  0  0  0  0  0  0  0
  150.4312  139.4114  156.0757 O   0  0  0  0  0  0  0  0  0  0  0  0
  150.1823  139.0606  154.7150 C   0  0  2  0  0  0  0  0  0  0  0  0
  148.9062  138.2103  154.5880 C   0  0  0  0  0  0  0  0  0  0  0  0
  148.3625  138.3455  153.2927 O   0  0  0  0  0  0  0  0  0  0  0  0
  151.4779  138.3895  154.2368 C   0  0  2  0  0  0  0  0  0  0  0  0
  151.4895  137.0030  154.5356 O   0  0  0  0  0  0  0  0  0  0  0  0
  152.5312  139.1668  155.0135 C   0  0  2  0  0  0  0  0  0  0  0  0
  153.7537  138.4639  155.1538 O   0  0  0  0  0  0  0  0  0  0  0  0
  152.0655  140.4840  156.7364 H   0  0  0  0  0  0  0  0  0  0  0  0
  150.0676  139.9892  154.1523 H   0  0  0  0  0  0  0  0  0  0  0  0
  151.6111  138.5006  153.1602 H   0  0  0  0  0  0  0  0  0  0  0  0
  152.7262  140.1084  154.4987 H   0  0  0  0  0  0  0  0  0  0  0  0
  153.3909  135.6855  161.0382 H   0  0  0  0  0  0  0  0  0  0  0  0
  154.5310  136.5819  162.0189 H   0  0  0  0  0  0  0  0  0  0  0  0
  150.9369  136.7867  156.9514 H   0  0  0  0  0  0  0  0  0  0  0  0
  149.1404  137.1552  154.7337 H   0  0  0  0  0  0  0  0  0  0  0  0
  148.1658  138.4869  155.3391 H   0  0  0  0  0  0  0  0  0  0  0  0
  148.7283  137.6705  152.7415 H   0  0  0  0  0  0  0  0  0  0  0  0
  150.7390  136.6029  154.1231 H   0  0  0  0  0  0  0  0  0  0  0  0
  153.8051  137.8203  154.4635 H   0  0  0  0  0  0  0  0  0  0  0  0
  1  2  1  0  0  0  0
  1 25  1  0  0  0  0
  1 26  1  0  0  0  0
  2  8  1  0  0  0  0
  2  3  2  0  0  0  0
  3  4  1  0  0  0  0
  4  5  1  0  0  0  0
  4  6  2  0  0  0  0
  6  7  1  0  0  0  0
  7 11  1  0  0  0  0
  7  8  2  0  0  0  0
  8  9  1  0  0  0  0
  9 10  2  0  0  0  0
 10 11  1  0  0  0  0
 10 27  1  0  0  0  0
 11 12  1  0  0  0  0
 12 21  1  0  0  0  0
 12 19  1  0  0  0  0
 12 13  1  0  0  0  0
 13 14  1  0  0  0  0
 14 22  1  0  0  0  0
 14 15  1  0  0  0  0
 14 17  1  0  0  0  0
 15 16  1  0  0  0  0
 15 28  1  0  0  0  0
 15 29  1  0  0  0  0
 16 30  1  0  0  0  0
 17 23  1  0  0  0  0
 17 18  1  0  0  0  0
 17 19  1  0  0  0  0
 18 31  1  0  0  0  0
 19 24  1  0  0  0  0
 19 20  1  0  0  0  0
 20 32  1  0  0  0  0
M  END
> <s_m_source_file>
AV-unprocessed.smi

> <i_m_source_file_index>
114

> <i_lp_mmshare_version>
43012

> <i_f3d_flags>
0

> <s_epik_input>
RmMobjEpbmMoW05IMl0pYyhjMTIpbltjSF1uMltDQEBIXTNPW0NASF0oW0NIMl1bT0hdKVtDQEBIXShbT0hdKVtDQEBIXTNbT0hd

> <s_epik_cmdline>
J2VwaWtfcHl0aG9uJywgJy1waCcsICc3LjAnLCAnLXRuJywgJzgnLCAnLW1hJywgJzIwMCcsICctbWV0YWxfYmluZGluZycsICctaW1hZScsICc8aW5maWxlLm1hZT4nLCAnLW9tYWUnLCAnPG91dGZpbGUubWFlPic=

> <r_lp_tautomer_probability>
1

> <r_epik_Ionization_Penalty>
1.13199e-05

> <r_epik_Ionization_Penalty_Charging>
0

> <r_epik_Ionization_Penalty_Neutral>
1.13199e-05

> <r_epik_State_Penalty>
-0

> <r_epik_Charging_Adjusted_Penalty>
0

> <i_epik_Tot_Q>
0

> <i_epik_Tot_abs_Q>
0

> <r_epik_Metal_State_Penalty>
-0

> <b_epik_Metal_Only>
0

> <s_epik_Chemistry_Notes>
This compound contains an acetal/aminal-like group ( X-CH(R)-Y where X, Y are N, S, or O) that may be acid/base labile, releasing an aldehyde.

> <s_lp_Force_Field>
OPLS_2005

> <r_lp_Energy>
42.0109

> <b_lp_Chiralities_Consistent>
1

> <s_lp_Variant>
AV-unprocessed.smi:114-5

> <Gold.Version>
5.8.1

> <Gold.Id.Protein>
6NUR|6NUR_protein|mol2

> <Gold.PLP.Fitness>
40.0802

> <Gold.PLP.PLP>
-28.9046

> <Gold.PLP.part.hbond>
-6.2551

> <Gold.PLP.part.metal>
0.0000

> <Gold.PLP.part.buried>
-5.3016

> <Gold.PLP.part.nonpolar>
-18.8037

> <Gold.PLP.part.repulsive>
0.0758

> <Gold.PLP.ligand.clash>
0.0000

> <Gold.PLP.ligand.torsion>
0.7838

> <Gold.PLP.Chemscore.Hbond>
4.1644

> <Gold.PLP.Chemscore.CHOScore>
0.0000

> <Gold.PLP.Chemscore.Metal>
0.0000

> <Gold.Chemscore.Hbonds>
donor molecule, donor type, donor heavy atom, donor atom, acceptor molecule, acceptor atom, score
      L1  H    16    30       P1  7948  1.00
      P1  H  6896  6907       L1     9  0.70
      P1  H  7997  8009       L1     6  1.00
      P1  H  7997  8010       L1    20  0.30
      P1  H 10752 10764       L1    18  1.00

> <Gold.PLP.Chemscore.Internal.Correction>
0.2499

> <Gold.Rescore>
     Score         DG    S(hbond)    S(metal)    S(lipo)     H(rot)  DE(clash)    DE(int)     intcor
      9.70     -10.56       3.45        0.00      33.09       4.03       0.00       0.86       ----

> <Gold.Chemscore.Fitness>
9.7040

> <Gold.Chemscore.DG>
-10.5637

> <Gold.Chemscore.ZeroCoef>
-5.4800

> <Gold.Chemscore.Hbond>
3.4499

> <Gold.Chemscore.Metal>
0.0000

> <Gold.Chemscore.Lipo>
33.0934

> <Gold.Chemscore.Internal_Hbond>
0.0000

> <Gold.Chemscore.DEClash>
0.0004

> <Gold.Chemscore.DEInternal>
0.8593

> <Gold.Chemscore.Rot>
4.0277

> <Gold.Chemscore.Internal.Correction>
   9.000000E+99

> <Gold.Chemscore.Hbonds>
donor molecule, donor type, donor heavy atom, donor atom, acceptor molecule, acceptor atom, score
      L1  H    16    30       P1  7948  1.00
      P1  H  6896  6907       L1     9  0.57
      P1  H  7997  8009       L1     6  0.29
      P1  H  7997  8010       L1    20  0.02
      P1  H 10752 10764       L1    18  0.37

> <Gold.Chemscore.Hbond.Weighted>
-11.5227

> <Gold.Chemscore.Metal.Weighted>
-0.0000

> <Gold.Chemscore.Lipo.Weighted>
-3.8719

> <Gold.Chemscore.Internal_Hbond.Weighted>
0.0000

> <Gold.Chemscore.DEClash.Weighted>
0.0004

> <Gold.Chemscore.DEInternal.Weighted>
0.8593

> <Gold.Chemscore.Rot.Weighted>
10.3110

> <Gold.Chemscore.Internal.Correction.Weighted>
   9.000000E+99

> <Gold.Protein.RotatedTorsions>
[ 6907 6896 6895 6894 ] final    0.18 input  -60.11 | X-H torsion
[ 7974 7965 7964 7962 ] final  -25.38 input  175.53 | X-H torsion
[ 8008 7997 7996 7995 ] final  130.22 input   59.86 | X-H torsion
[ 10167 10162 10161 10158 ] final  163.05 input  -65.29 | X-H torsion
[ 10718 10713 10712 10709 ] final -162.69 input   66.30 | X-H torsion
[ 10763 10752 10751 10750 ] final  -84.35 input  -60.55 | X-H torsion
[ 11005 11000 10999 10996 ] final  136.84 input  -57.11 | X-H torsion

> <Gold.Protein.ActiveResidues>
 VAL166  LYS551  ARG553  GLY616  TRP617  ASP618  TYR619  PRO620  LYS621  CYS622 
 ASP623  PHE694  ASN695  SER759  ASP760  ASP761  ALA762  ILE779  LEU786  VAL792 
 PHE793  MET794  SER795  GLU796  ALA797  LYS798  CYS799  TRP800  GLU811  SER814 

> <Gold.Protein.RotatedAtoms>
  151.5723  135.1062  159.9997 H   0  0  0  0  0  0  0  0  0  0  0  0  # atno 6907 bound_to 6896
  152.4395  133.7417  159.6655 H   0  0  0  0  0  0  0  0  0  0  0  0  # atno 6908 bound_to 6896
  150.8298  133.8042  159.3127 H   0  0  0  0  0  0  0  0  0  0  0  0  # atno 6909 bound_to 6896
  146.1494  140.4879  142.8617 H   0  0  0  0  0  0  0  0  0  0  0  0  # atno 7974 bound_to 7965
  156.2951  140.2601  156.2727 H   0  0  0  0  0  0  0  0  0  0  0  0  # atno 8008 bound_to 7997
  154.9679  140.0391  157.2239 H   0  0  0  0  0  0  0  0  0  0  0  0  # atno 8009 bound_to 7997
  154.7886  140.2808  155.6013 H   0  0  0  0  0  0  0  0  0  0  0  0  # atno 8010 bound_to 7997
  139.4868  144.4376  151.8992 H   0  0  0  0  0  0  0  0  0  0  0  0  # atno 10167 bound_to 10162
  156.6141  130.8863  151.2943 H   0  0  0  0  0  0  0  0  0  0  0  0  # atno 10718 bound_to 10713
  154.5985  135.5523  153.7350 H   0  0  0  0  0  0  0  0  0  0  0  0  # atno 10763 bound_to 10752
  153.0145  135.6360  154.1748 H   0  0  0  0  0  0  0  0  0  0  0  0  # atno 10764 bound_to 10752
  154.1688  135.2893  155.3067 H   0  0  0  0  0  0  0  0  0  0  0  0  # atno 10765 bound_to 10752
  140.0073  134.9454  157.0203 H   0  0  0  0  0  0  0  0  0  0  0  0  # atno 11005 bound_to 11000
  144.7886  140.5986  143.6557 LP  0  0  0  0  0  0  0  0  0  0  0  0  # atno 17320 bound_to 7965
  145.4859  139.1492  143.3736 LP  0  0  0  0  0  0  0  0  0  0  0  0  # atno 17321 bound_to 7965
  140.3827  144.2716  150.5907 LP  0  0  0  0  0  0  0  0  0  0  0  0  # atno 17342 bound_to 10162
  140.5219  143.2264  151.8375 LP  0  0  0  0  0  0  0  0  0  0  0  0  # atno 17343 bound_to 10162
  157.7246  130.9605  150.1580 LP  0  0  0  0  0  0  0  0  0  0  0  0  # atno 17370 bound_to 10713
  156.2365  130.3687  149.8385 LP  0  0  0  0  0  0  0  0  0  0  0  0  # atno 17371 bound_to 10713
  140.4618  134.1476  155.7192 LP  0  0  0  0  0  0  0  0  0  0  0  0  # atno 17394 bound_to 11000
  141.1686  133.8654  157.1640 LP  0  0  0  0  0  0  0  0  0  0  0  0  # atno 17395 bound_to 11000

$$$$
