AV-unprocessed.smi:1899|AV-procd|sdf|7706|dock5
  -GOLD-   22720 9443D 1   1.00000     0.00000
 Structure written by MMmdl.
 34 35  0  0  0  0  0  0  0  0  2 V2000
  151.6326  140.9083  157.0868 O   0  0  0  0  0  0  0  0  0  0  0  0
  150.9867  141.9559  157.1134 C   0  0  0  0  0  0  0  0  0  0  0  0
  150.1529  142.3295  156.1305 N   0  0  0  0  0  0  0  0  0  0  0  0
  149.8794  141.5635  154.9178 C   0  0  0  0  0  0  0  0  0  0  0  0
  148.3868  141.5641  154.5317 C   0  0  0  0  0  0  0  0  0  0  0  0
  148.0177  140.4140  153.7011 N   0  0  0  0  0  0  0  0  0  0  0  0
  146.8744  140.2554  152.9611 C   0  0  0  0  0  0  0  0  0  0  0  0
  146.9677  139.0279  152.3571 C   0  0  0  0  0  0  0  0  0  0  0  0
  148.1629  138.4899  152.7537 N   0  3  0  0  0  0  0  0  0  0  0  0
  148.8010  139.3354  153.5692 C   0  0  0  0  0  0  0  0  0  0  0  0
  151.0976  142.9039  158.3142 C   0  0  1  0  0  0  0  0  0  0  0  0
  152.0636  142.3356  159.3794 C   0  0  0  0  0  0  0  0  0  0  0  0
  152.3919  143.3545  160.4562 C   0  0  0  0  0  0  0  0  0  0  0  0
  152.1610  144.6719  160.3223 C   0  0  0  0  0  0  0  0  0  0  0  0
  151.5508  145.2918  159.0776 C   0  0  0  0  0  0  0  0  0  0  0  0
  151.5398  144.3174  157.8844 C   0  0  0  0  0  0  0  0  0  0  0  0
  149.6707  143.2113  156.2310 H   0  0  0  0  0  0  0  0  0  0  0  0
  150.4726  141.9869  154.1069 H   0  0  0  0  0  0  0  0  0  0  0  0
  150.2292  140.5386  155.0511 H   0  0  0  0  0  0  0  0  0  0  0  0
  147.7698  141.5303  155.4304 H   0  0  0  0  0  0  0  0  0  0  0  0
  148.1135  142.4774  154.0015 H   0  0  0  0  0  0  0  0  0  0  0  0
  146.0998  141.0077  152.9209 H   0  0  0  0  0  0  0  0  0  0  0  0
  146.2908  138.5107  151.6926 H   0  0  0  0  0  0  0  0  0  0  0  0
  149.7580  139.1764  154.0343 H   0  0  0  0  0  0  0  0  0  0  0  0
  150.1088  142.9943  158.7684 H   0  0  0  0  0  0  0  0  0  0  0  0
  151.6164  141.4612  159.8535 H   0  0  0  0  0  0  0  0  0  0  0  0
  153.0024  142.0080  158.9303 H   0  0  0  0  0  0  0  0  0  0  0  0
  152.8454  142.9787  161.3617 H   0  0  0  0  0  0  0  0  0  0  0  0
  152.4057  145.3447  161.1314 H   0  0  0  0  0  0  0  0  0  0  0  0
  150.5343  145.6038  159.3193 H   0  0  0  0  0  0  0  0  0  0  0  0
  152.1061  146.1927  158.8152 H   0  0  0  0  0  0  0  0  0  0  0  0
  152.5422  144.2710  157.4552 H   0  0  0  0  0  0  0  0  0  0  0  0
  150.8883  144.7062  157.1004 H   0  0  0  0  0  0  0  0  0  0  0  0
  148.5155  137.5839  152.4712 H   0  0  0  0  0  0  0  0  0  0  0  0
  1  2  2  0  0  0  0
  2  3  1  0  0  0  0
  2 11  1  0  0  0  0
  3  4  1  0  0  0  0
  3 17  1  0  0  0  0
  4  5  1  0  0  0  0
  4 18  1  0  0  0  0
  4 19  1  0  0  0  0
  5  6  1  0  0  0  0
  5 20  1  0  0  0  0
  5 21  1  0  0  0  0
  6 10  1  0  0  0  0
  6  7  1  0  0  0  0
  7  8  2  0  0  0  0
  7 22  1  0  0  0  0
  8  9  1  0  0  0  0
  8 23  1  0  0  0  0
  9 10  2  0  0  0  0
  9 34  1  0  0  0  0
 10 24  1  0  0  0  0
 11 16  1  0  0  0  0
 11 12  1  0  0  0  0
 11 25  1  0  0  0  0
 12 13  1  0  0  0  0
 12 26  1  0  0  0  0
 12 27  1  0  0  0  0
 13 14  2  0  0  0  0
 13 28  1  0  0  0  0
 14 15  1  0  0  0  0
 14 29  1  0  0  0  0
 15 16  1  0  0  0  0
 15 30  1  0  0  0  0
 15 31  1  0  0  0  0
 16 32  1  0  0  0  0
 16 33  1  0  0  0  0
M  CHG  1   9   1
M  END
> <s_m_source_file>
AV-unprocessed.smi

> <i_m_source_file_index>
1899

> <i_lp_mmshare_version>
43012

> <i_f3d_flags>
0

> <s_epik_input>
W0NIMl0xW0NIMl1bQ0hdPVtDSF1bQ0gyXVtDQEhdMUMoPU8pW05IXVtDSDJdW0NIMl1uMltjSF1bY0hdbltjSF0y

> <s_epik_cmdline>
J2VwaWtfcHl0aG9uJywgJy1waCcsICc3LjAnLCAnLXRuJywgJzgnLCAnLW1hJywgJzIwMCcsICctbWV0YWxfYmluZGluZycsICctaW1hZScsICc8aW5maWxlLm1hZT4nLCAnLW9tYWUnLCAnPG91dGZpbGUubWFlPic=

> <r_lp_tautomer_probability>
1

> <r_epik_Ionization_Penalty>
0.268283

> <r_epik_Ionization_Penalty_Charging>
0

> <r_epik_Ionization_Penalty_Neutral>
0.268283

> <r_epik_State_Penalty>
0.260312

> <r_epik_Charging_Adjusted_Penalty>
0.260312

> <i_epik_Tot_Q>
1

> <i_epik_Tot_abs_Q>
1

> <r_epik_Metal_State_Penalty>
0.545819

> <b_epik_Metal_Only>
0

> <s_lp_Force_Field>
OPLS_2005

> <r_lp_Energy>
11.7263

> <b_lp_Chiralities_Consistent>
1

> <s_lp_Variant>
AV-unprocessed.smi:1899-2

> <Gold.Version>
5.8.1

> <Gold.Id.Protein>
6NUR|6NUR_protein|mol2

> <Gold.PLP.Fitness>
50.2471

> <Gold.PLP.PLP>
-39.6777

> <Gold.PLP.part.hbond>
-3.0000

> <Gold.PLP.part.metal>
0.0000

> <Gold.PLP.part.buried>
0.1557

> <Gold.PLP.part.nonpolar>
-36.5345

> <Gold.PLP.part.repulsive>
0.1563

> <Gold.PLP.ligand.clash>
0.0000

> <Gold.PLP.ligand.torsion>
0.4439

> <Gold.PLP.Chemscore.Hbond>
3.0000

> <Gold.PLP.Chemscore.CHOScore>
0.8138

> <Gold.PLP.Chemscore.Metal>
0.0000

> <Gold.Chemscore.Hbonds>
donor molecule, donor type, donor heavy atom, donor atom, acceptor molecule, acceptor atom, score
      L1  H     3    17       P1  8028  1.00
      L1  H     9    34       P1  7948  1.98
      L1  C     7    22       P1 10175  0.88

> <Gold.PLP.Chemscore.Internal.Correction>
0.0159

> <Gold.Rescore>
     Score         DG    S(hbond)    S(metal)    S(lipo)     H(rot)  DE(clash)    DE(int)     intcor
     17.80     -18.37       1.87        0.00      97.86       1.87       0.12       0.45       ----

> <Gold.Chemscore.Fitness>
17.8043

> <Gold.Chemscore.DG>
-18.3671

> <Gold.Chemscore.ZeroCoef>
-5.4800

> <Gold.Chemscore.Hbond>
1.8669

> <Gold.Chemscore.Metal>
0.0000

> <Gold.Chemscore.Lipo>
97.8637

> <Gold.Chemscore.Internal_Hbond>
0.0000

> <Gold.Chemscore.DEClash>
0.1153

> <Gold.Chemscore.DEInternal>
0.4475

> <Gold.Chemscore.Rot>
1.8743

> <Gold.Chemscore.Internal.Correction>
   9.000000E+99

> <Gold.Chemscore.Hbonds>
donor molecule, donor type, donor heavy atom, donor atom, acceptor molecule, acceptor atom, score
      L1  H     3    17       P1  8028  0.99
      L1  H     9    34       P1  7948  0.92

> <Gold.Chemscore.Hbond.Weighted>
-6.2353

> <Gold.Chemscore.Metal.Weighted>
-0.0000

> <Gold.Chemscore.Lipo.Weighted>
-11.4501

> <Gold.Chemscore.Internal_Hbond.Weighted>
0.0000

> <Gold.Chemscore.DEClash.Weighted>
0.1153

> <Gold.Chemscore.DEInternal.Weighted>
0.4475

> <Gold.Chemscore.Rot.Weighted>
4.7983

> <Gold.Chemscore.Internal.Correction.Weighted>
   9.000000E+99

> <Gold.Protein.RotatedTorsions>
[ 6907 6896 6895 6894 ] final  -50.19 input  -60.11 | X-H torsion
[ 7974 7965 7964 7962 ] final   44.95 input  175.53 | X-H torsion
[ 8008 7997 7996 7995 ] final -121.83 input   59.86 | X-H torsion
[ 10167 10162 10161 10158 ] final  -46.87 input  -65.29 | X-H torsion
[ 10718 10713 10712 10709 ] final  119.20 input   66.30 | X-H torsion
[ 10763 10752 10751 10750 ] final -120.43 input  -60.55 | X-H torsion
[ 11005 11000 10999 10996 ] final  -61.64 input  -57.11 | X-H torsion

> <Gold.Protein.ActiveResidues>
 VAL166  LYS551  ARG553  GLY616  TRP617  ASP618  TYR619  PRO620  LYS621  CYS622 
 ASP623  PHE694  ASN695  SER759  ASP760  ASP761  ALA762  ILE779  LEU786  VAL792 
 PHE793  MET794  SER795  GLU796  ALA797  LYS798  CYS799  TRP800  GLU811  SER814 

> <Gold.Protein.RotatedAtoms>
  150.8731  134.8109  159.7169 H   0  0  0  0  0  0  0  0  0  0  0  0  # atno 6907 bound_to 6896
  152.4728  134.4914  159.9706 H   0  0  0  0  0  0  0  0  0  0  0  0  # atno 6908 bound_to 6896
  151.5000  133.3468  159.2903 H   0  0  0  0  0  0  0  0  0  0  0  0  # atno 6909 bound_to 6896
  146.0523  139.5018  142.9710 H   0  0  0  0  0  0  0  0  0  0  0  0  # atno 7974 bound_to 7965
  155.1543  140.0404  157.2828 H   0  0  0  0  0  0  0  0  0  0  0  0  # atno 8008 bound_to 7997
  154.6381  140.2540  155.7327 H   0  0  0  0  0  0  0  0  0  0  0  0  # atno 8009 bound_to 7997
  156.2519  140.2861  156.0763 H   0  0  0  0  0  0  0  0  0  0  0  0  # atno 8010 bound_to 7997
  140.6799  143.2811  151.3845 H   0  0  0  0  0  0  0  0  0  0  0  0  # atno 10167 bound_to 10162
  157.5978  131.1055  150.7863 H   0  0  0  0  0  0  0  0  0  0  0  0  # atno 10718 bound_to 10713
  154.8644  135.4203  154.2457 H   0  0  0  0  0  0  0  0  0  0  0  0  # atno 10763 bound_to 10752
  153.3414  135.6994  153.6870 H   0  0  0  0  0  0  0  0  0  0  0  0  # atno 10764 bound_to 10752
  153.5847  135.3566  155.2861 H   0  0  0  0  0  0  0  0  0  0  0  0  # atno 10765 bound_to 10752
  141.1331  133.6632  156.5406 H   0  0  0  0  0  0  0  0  0  0  0  0  # atno 11005 bound_to 11000
  145.6703  141.0218  143.1661 LP  0  0  0  0  0  0  0  0  0  0  0  0  # atno 17320 bound_to 7965
  144.7129  139.8302  143.7408 LP  0  0  0  0  0  0  0  0  0  0  0  0  # atno 17321 bound_to 7965
  139.6115  144.1089  152.2303 LP  0  0  0  0  0  0  0  0  0  0  0  0  # atno 17342 bound_to 10162
  140.0504  144.5937  150.7340 LP  0  0  0  0  0  0  0  0  0  0  0  0  # atno 17343 bound_to 10162
  156.8269  130.5003  149.5336 LP  0  0  0  0  0  0  0  0  0  0  0  0  # atno 17370 bound_to 10713
  156.1044  130.5993  150.9947 LP  0  0  0  0  0  0  0  0  0  0  0  0  # atno 17371 bound_to 10713
  140.4143  134.7244  157.4853 LP  0  0  0  0  0  0  0  0  0  0  0  0  # atno 17394 bound_to 11000
  140.0405  134.6274  155.8987 LP  0  0  0  0  0  0  0  0  0  0  0  0  # atno 17395 bound_to 11000

$$$$
