AV-unprocessed.smi:1535|AV-procd|sdf|6170|dock4
  -GOLD-   22720 6323D 1   1.00000     0.00000
 Structure written by MMmdl.
 46 47  0  0  0  0  0  0  0  0  1 V2000
  152.6826  143.4955  161.3798 C   0  0  0  0  0  0  0  0  0  0  0  0
  152.1558  142.9946  160.0466 C   0  0  0  0  0  0  0  0  0  0  0  0
  152.6563  141.7817  159.5222 C   0  0  0  0  0  0  0  0  0  0  0  0
  152.1941  141.2818  158.2854 C   0  0  0  0  0  0  0  0  0  0  0  0
  152.5390  140.1322  157.5957 N   0  0  0  0  0  0  0  0  0  0  0  0
  151.7659  140.2244  156.5177 C   0  0  0  0  0  0  0  0  0  0  0  0
  150.9585  141.2985  156.4279 N   0  0  0  0  0  0  0  0  0  0  0  0
  150.0316  141.6025  155.3527 C   0  0  0  0  0  0  0  0  0  0  0  0
  149.3717  140.3372  154.7735 C   0  0  2  0  0  0  0  0  0  0  0  0
  150.3066  139.7245  153.9101 O   0  0  0  0  0  0  0  0  0  0  0  0
  148.0853  140.6363  153.9737 C   0  0  0  0  0  0  0  0  0  0  0  0
  147.0581  141.4494  154.6389 N   0  0  0  0  0  0  0  0  0  0  0  0
  146.1326  140.5629  155.3341 C   0  0  0  0  0  0  0  0  0  0  0  0
  146.3238  142.3109  153.7065 C   0  0  0  0  0  0  0  0  0  0  0  0
  145.6209  143.5199  154.3570 C   0  0  2  0  0  0  0  0  0  0  0  0
  144.4935  143.0804  155.3004 C   0  0  0  0  0  0  0  0  0  0  0  0
  145.1107  144.4475  153.3346 C   0  0  0  0  0  0  0  0  0  0  0  0
  144.7082  145.1765  152.5316 N   0  0  0  0  0  0  0  0  0  0  0  0
  151.2091  142.0346  157.5813 C   0  0  0  0  0  0  0  0  0  0  0  0
  150.7026  143.2425  158.0929 C   0  0  0  0  0  0  0  0  0  0  0  0
  151.1762  143.7279  159.3299 C   0  0  0  0  0  0  0  0  0  0  0  0
  150.6252  145.0344  159.8731 C   0  0  0  0  0  0  0  0  0  0  0  0
  153.4001  142.7978  161.8123 H   0  0  0  0  0  0  0  0  0  0  0  0
  151.8666  143.6195  162.0922 H   0  0  0  0  0  0  0  0  0  0  0  0
  153.1832  144.4560  161.2550 H   0  0  0  0  0  0  0  0  0  0  0  0
  153.4025  141.2228  160.0675 H   0  0  0  0  0  0  0  0  0  0  0  0
  151.7846  139.4653  155.7493 H   0  0  0  0  0  0  0  0  0  0  0  0
  149.2760  142.2959  155.7245 H   0  0  0  0  0  0  0  0  0  0  0  0
  150.5819  142.1311  154.5729 H   0  0  0  0  0  0  0  0  0  0  0  0
  149.1627  139.6661  155.6048 H   0  0  0  0  0  0  0  0  0  0  0  0
  149.8943  139.5958  153.0693 H   0  0  0  0  0  0  0  0  0  0  0  0
  148.3544  141.1253  153.0371 H   0  0  0  0  0  0  0  0  0  0  0  0
  147.6491  139.6790  153.6831 H   0  0  0  0  0  0  0  0  0  0  0  0
  145.3894  141.1362  155.8894 H   0  0  0  0  0  0  0  0  0  0  0  0
  146.6603  139.9347  156.0526 H   0  0  0  0  0  0  0  0  0  0  0  0
  145.6071  139.9119  154.6337 H   0  0  0  0  0  0  0  0  0  0  0  0
  147.0020  142.6516  152.9221 H   0  0  0  0  0  0  0  0  0  0  0  0
  145.5646  141.7322  153.1777 H   0  0  0  0  0  0  0  0  0  0  0  0
  146.3294  144.0958  154.9493 H   0  0  0  0  0  0  0  0  0  0  0  0
  144.0321  143.9416  155.7844 H   0  0  0  0  0  0  0  0  0  0  0  0
  144.8726  142.4234  156.0836 H   0  0  0  0  0  0  0  0  0  0  0  0
  143.7117  142.5445  154.7612 H   0  0  0  0  0  0  0  0  0  0  0  0
  149.9545  143.7895  157.5386 H   0  0  0  0  0  0  0  0  0  0  0  0
  149.9072  145.4805  159.1842 H   0  0  0  0  0  0  0  0  0  0  0  0
  151.4299  145.7533  160.0287 H   0  0  0  0  0  0  0  0  0  0  0  0
  150.1185  144.8689  160.8240 H   0  0  0  0  0  0  0  0  0  0  0  0
  1  2  1  0  0  0  0
  1 23  1  0  0  0  0
  1 24  1  0  0  0  0
  1 25  1  0  0  0  0
  2 21  1  0  0  0  0
  2  3  2  0  0  0  0
  3  4  1  0  0  0  0
  3 26  1  0  0  0  0
  4 19  2  0  0  0  0
  4  5  1  0  0  0  0
  5  6  2  0  0  0  0
  6  7  1  0  0  0  0
  6 27  1  0  0  0  0
  7  8  1  0  0  0  0
  7 19  1  0  0  0  0
  8  9  1  0  0  0  0
  8 28  1  0  0  0  0
  8 29  1  0  0  0  0
  9 10  1  0  0  0  0
  9 11  1  0  0  0  0
  9 30  1  0  0  0  0
 10 31  1  0  0  0  0
 11 12  1  0  0  0  0
 11 32  1  0  0  0  0
 11 33  1  0  0  0  0
 12 13  1  0  0  0  0
 12 14  1  0  0  0  0
 13 34  1  0  0  0  0
 13 35  1  0  0  0  0
 13 36  1  0  0  0  0
 14 15  1  0  0  0  0
 14 37  1  0  0  0  0
 14 38  1  0  0  0  0
 15 16  1  0  0  0  0
 15 17  1  0  0  0  0
 15 39  1  0  0  0  0
 16 40  1  0  0  0  0
 16 41  1  0  0  0  0
 16 42  1  0  0  0  0
 17 18  3  0  0  0  0
 19 20  1  0  0  0  0
 20 21  2  0  0  0  0
 20 43  1  0  0  0  0
 21 22  1  0  0  0  0
 22 44  1  0  0  0  0
 22 45  1  0  0  0  0
 22 46  1  0  0  0  0
M  END
> <s_m_source_file>
AV-unprocessed.smi

> <i_m_source_file_index>
1535

> <i_lp_mmshare_version>
43012

> <i_f3d_flags>
0

> <s_epik_input>
W0NIM11jKFtjSF0xKWMoW0NIM10pW2NIXWMoYzEyKW4oW2NIXW4yKVtDSDJdW0NASF0oW09IXSlbQ0gyXU4oW0NIM10pW0NIMl1bQ0BIXShbQ0gzXSlDI04=

> <s_epik_cmdline>
J2VwaWtfcHl0aG9uJywgJy1waCcsICc3LjAnLCAnLXRuJywgJzgnLCAnLW1hJywgJzIwMCcsICctbWV0YWxfYmluZGluZycsICctaW1hZScsICc8aW5maWxlLm1hZT4nLCAnLW9tYWUnLCAnPG91dGZpbGUubWFlPic=

> <r_epik_Ionization_Penalty>
0.098511

> <r_epik_Ionization_Penalty_Charging>
0

> <r_epik_Ionization_Penalty_Neutral>
0.098511

> <r_epik_State_Penalty>
0.0881608

> <r_epik_Charging_Adjusted_Penalty>
0.0881608

> <i_epik_Tot_Q>
0

> <i_epik_Tot_abs_Q>
0

> <r_epik_Metal_State_Penalty>
0.0128087

> <b_epik_Metal_Only>
0

> <s_lp_Force_Field>
OPLS_2005

> <r_lp_Energy>
27.6844

> <b_lp_Chiralities_Consistent>
1

> <s_lp_Variant>
AV-unprocessed.smi:1535-1

> <Gold.Version>
5.8.1

> <Gold.Id.Protein>
6NUR|6NUR_protein|mol2

> <Gold.PLP.Fitness>
56.6477

> <Gold.PLP.PLP>
-49.8146

> <Gold.PLP.part.hbond>
-4.0000

> <Gold.PLP.part.metal>
0.0000

> <Gold.PLP.part.buried>
-7.6605

> <Gold.PLP.part.nonpolar>
-38.8176

> <Gold.PLP.part.repulsive>
0.2976

> <Gold.PLP.ligand.clash>
0.0000

> <Gold.PLP.ligand.torsion>
1.1818

> <Gold.PLP.Chemscore.Hbond>
3.0000

> <Gold.PLP.Chemscore.CHOScore>
0.0000

> <Gold.PLP.Chemscore.Metal>
0.0000

> <Gold.Chemscore.Hbonds>
donor molecule, donor type, donor heavy atom, donor atom, acceptor molecule, acceptor atom, score
      L1  H    10    31       P1  7957  1.00
      P1  H  7989  7998       L1    10  1.00
      P1  H  7997  8009       L1     5  0.94

> <Gold.PLP.Chemscore.Internal.Correction>
0.1967

> <Gold.Rescore>
     Score         DG    S(hbond)    S(metal)    S(lipo)     H(rot)  DE(clash)    DE(int)     intcor
     17.42     -19.98       2.25        0.00     114.75       2.51       0.38       2.19       ----

> <Gold.Chemscore.Fitness>
17.4216

> <Gold.Chemscore.DG>
-19.9850

> <Gold.Chemscore.ZeroCoef>
-5.4800

> <Gold.Chemscore.Hbond>
2.2480

> <Gold.Chemscore.Metal>
0.0000

> <Gold.Chemscore.Lipo>
114.7491

> <Gold.Chemscore.Internal_Hbond>
0.0000

> <Gold.Chemscore.DEClash>
0.3772

> <Gold.Chemscore.DEInternal>
2.1862

> <Gold.Chemscore.Rot>
2.5113

> <Gold.Chemscore.Internal.Correction>
   9.000000E+99

> <Gold.Chemscore.Hbonds>
donor molecule, donor type, donor heavy atom, donor atom, acceptor molecule, acceptor atom, score
      L1  H    10    31       P1  7957  0.95
      P1  H  7989  7998       L1    10  0.22
      P1  H  7997  8009       L1     5  0.36

> <Gold.Chemscore.Hbond.Weighted>
-7.5082

> <Gold.Chemscore.Metal.Weighted>
-0.0000

> <Gold.Chemscore.Lipo.Weighted>
-13.4256

> <Gold.Chemscore.Internal_Hbond.Weighted>
0.0000

> <Gold.Chemscore.DEClash.Weighted>
0.3772

> <Gold.Chemscore.DEInternal.Weighted>
2.1862

> <Gold.Chemscore.Rot.Weighted>
6.4289

> <Gold.Chemscore.Internal.Correction.Weighted>
   9.000000E+99

> <Gold.Protein.RotatedTorsions>
[ 6907 6896 6895 6894 ] final   85.80 input  -60.11 | X-H torsion
[ 7974 7965 7964 7962 ] final  164.45 input  175.53 | X-H torsion
[ 8008 7997 7996 7995 ] final  168.59 input   59.86 | X-H torsion
[ 10167 10162 10161 10158 ] final   22.79 input  -65.29 | X-H torsion
[ 10718 10713 10712 10709 ] final  -44.65 input   66.30 | X-H torsion
[ 10763 10752 10751 10750 ] final  120.83 input  -60.55 | X-H torsion
[ 11005 11000 10999 10996 ] final   23.14 input  -57.11 | X-H torsion

> <Gold.Protein.ActiveResidues>
 VAL166  LYS551  ARG553  GLY616  TRP617  ASP618  TYR619  PRO620  LYS621  CYS622 
 ASP623  PHE694  ASN695  SER759  ASP760  ASP761  ALA762  ILE779  LEU786  VAL792 
 PHE793  MET794  SER795  GLU796  ALA797  LYS798  CYS799  TRP800  GLU811  SER814 

> <Gold.Protein.RotatedAtoms>
  152.5382  134.2529  159.8905 H   0  0  0  0  0  0  0  0  0  0  0  0  # atno 6907 bound_to 6896
  151.2492  133.4352  159.2618 H   0  0  0  0  0  0  0  0  0  0  0  0  # atno 6908 bound_to 6896
  151.0555  134.9716  159.8290 H   0  0  0  0  0  0  0  0  0  0  0  0  # atno 6909 bound_to 6896
  144.7545  139.8327  143.6355 H   0  0  0  0  0  0  0  0  0  0  0  0  # atno 7974 bound_to 7965
  156.1533  140.1586  156.8733 H   0  0  0  0  0  0  0  0  0  0  0  0  # atno 8008 bound_to 7997
  154.5091  140.0805  156.7991 H   0  0  0  0  0  0  0  0  0  0  0  0  # atno 8009 bound_to 7997
  155.3852  140.3407  155.4251 H   0  0  0  0  0  0  0  0  0  0  0  0  # atno 8010 bound_to 7997
  140.5320  143.9824  150.6471 H   0  0  0  0  0  0  0  0  0  0  0  0  # atno 10167 bound_to 10162
  156.2364  130.4176  149.8812 H   0  0  0  0  0  0  0  0  0  0  0  0  # atno 10718 bound_to 10713
  153.6046  135.3441  155.2957 H   0  0  0  0  0  0  0  0  0  0  0  0  # atno 10763 bound_to 10752
  154.8630  135.4235  154.2375 H   0  0  0  0  0  0  0  0  0  0  0  0  # atno 10764 bound_to 10752
  153.3212  135.7038  153.7101 H   0  0  0  0  0  0  0  0  0  0  0  0  # atno 10765 bound_to 10752
  140.3729  134.2003  155.7666 H   0  0  0  0  0  0  0  0  0  0  0  0  # atno 11005 bound_to 11000
  146.1537  139.4628  143.0032 LP  0  0  0  0  0  0  0  0  0  0  0  0  # atno 17320 bound_to 7965
  145.6828  141.0186  143.1597 LP  0  0  0  0  0  0  0  0  0  0  0  0  # atno 17321 bound_to 7965
  140.3202  143.3142  152.0792 LP  0  0  0  0  0  0  0  0  0  0  0  0  # atno 17342 bound_to 10162
  139.4958  144.6579  151.6532 LP  0  0  0  0  0  0  0  0  0  0  0  0  # atno 17343 bound_to 10162
  156.6409  130.8704  151.3513 LP  0  0  0  0  0  0  0  0  0  0  0  0  # atno 17370 bound_to 10713
  157.7156  130.9493  150.1244 LP  0  0  0  0  0  0  0  0  0  0  0  0  # atno 17371 bound_to 10713
  141.1949  133.8118  157.0739 LP  0  0  0  0  0  0  0  0  0  0  0  0  # atno 17394 bound_to 11000
  140.0538  134.9791  157.1184 LP  0  0  0  0  0  0  0  0  0  0  0  0  # atno 17395 bound_to 11000

$$$$
