AV-unprocessed.smi:1550|AV-procd|sdf|6226|dock8
  -GOLD-   22720 6403D 1   1.00000     0.00000
 Structure written by MMmdl.
 43 44  0  0  0  0  0  0  0  0  1 V2000
  153.2038  138.2203  157.0976 C   0  0  0  0  0  0  0  0  0  0  0  0
  152.5937  138.8737  158.3463 C   0  0  2  0  0  0  0  0  0  0  0  0
  153.1445  140.1833  158.4570 O   0  0  0  0  0  0  0  0  0  0  0  0
  152.2978  141.2440  158.0275 C   0  0  0  0  0  0  0  0  0  0  0  0
  152.6623  142.5108  158.8118 C   0  0  1  0  0  0  0  0  0  0  0  0
  152.0987  143.7816  158.1460 C   0  0  0  0  0  0  0  0  0  0  0  0
  152.3995  145.0176  159.0017 C   0  0  0  0  0  0  0  0  0  0  0  0
  151.9027  144.7880  160.4329 C   0  0  0  0  0  0  0  0  0  0  0  0
  152.4589  143.4663  160.9856 C   0  0  0  0  0  0  0  0  0  0  0  0
  152.1047  142.3929  160.1193 O   0  0  0  0  0  0  0  0  0  0  0  0
  152.9049  138.0574  159.6115 C   0  0  0  0  0  0  0  0  0  0  0  0
  152.5639  136.8760  159.6702 O   0  0  0  0  0  0  0  0  0  0  0  0
  153.5474  138.7263  160.5891 N   0  0  0  0  0  0  0  0  0  0  0  0
  154.0230  138.2499  161.8214 C   0  0  0  0  0  0  0  0  0  0  0  0
  153.9670  136.9524  162.2206 C   0  0  0  0  0  0  0  0  0  0  0  0
  154.4921  136.5170  163.5039 C   0  0  0  0  0  0  0  0  0  0  0  0
  154.4789  135.0522  163.9129 C   0  0  0  0  0  0  0  0  0  0  0  0
  155.6769  134.6594  164.3480 F   0  0  0  0  0  0  0  0  0  0  0  0
  153.5981  134.8634  164.8945 F   0  0  0  0  0  0  0  0  0  0  0  0
  154.1302  134.2740  162.8880 F   0  0  0  0  0  0  0  0  0  0  0  0
  155.0665  137.4636  164.2691 C   0  0  0  0  0  0  0  0  0  0  0  0
  155.1278  138.7995  163.8661 N   0  0  0  0  0  0  0  0  0  0  0  0
  154.6497  139.2608  162.6888 C   0  0  0  0  0  0  0  0  0  0  0  0
  154.7518  140.4527  162.4003 O   0  0  0  0  0  0  0  0  0  0  0  0
  155.5674  139.4503  164.5009 H   0  0  0  0  0  0  0  0  0  0  0  0
  152.8324  137.2042  156.9600 H   0  0  0  0  0  0  0  0  0  0  0  0
  154.2919  138.1748  157.1590 H   0  0  0  0  0  0  0  0  0  0  0  0
  152.9496  138.7876  156.2020 H   0  0  0  0  0  0  0  0  0  0  0  0
  151.5136  138.9467  158.2033 H   0  0  0  0  0  0  0  0  0  0  0  0
  152.4546  141.4102  156.9607 H   0  0  0  0  0  0  0  0  0  0  0  0
  151.2422  141.0098  158.1702 H   0  0  0  0  0  0  0  0  0  0  0  0
  153.7492  142.5869  158.8789 H   0  0  0  0  0  0  0  0  0  0  0  0
  152.5223  143.9076  157.1492 H   0  0  0  0  0  0  0  0  0  0  0  0
  151.0200  143.6817  158.0173 H   0  0  0  0  0  0  0  0  0  0  0  0
  153.4739  145.2060  159.0111 H   0  0  0  0  0  0  0  0  0  0  0  0
  151.9286  145.9022  158.5727 H   0  0  0  0  0  0  0  0  0  0  0  0
  152.1961  145.6198  161.0737 H   0  0  0  0  0  0  0  0  0  0  0  0
  150.8125  144.7547  160.4414 H   0  0  0  0  0  0  0  0  0  0  0  0
  153.5430  143.5148  161.0980 H   0  0  0  0  0  0  0  0  0  0  0  0
  152.0452  143.2704  161.9748 H   0  0  0  0  0  0  0  0  0  0  0  0
  153.6841  139.7156  160.4386 H   0  0  0  0  0  0  0  0  0  0  0  0
  153.5426  136.1957  161.5807 H   0  0  0  0  0  0  0  0  0  0  0  0
  155.5226  137.2752  165.2298 H   0  0  0  0  0  0  0  0  0  0  0  0
  1  2  1  0  0  0  0
  1 26  1  0  0  0  0
  1 27  1  0  0  0  0
  1 28  1  0  0  0  0
  2  3  1  0  0  0  0
  2 11  1  0  0  0  0
  2 29  1  0  0  0  0
  3  4  1  0  0  0  0
  4  5  1  0  0  0  0
  4 30  1  0  0  0  0
  4 31  1  0  0  0  0
  5 10  1  0  0  0  0
  5  6  1  0  0  0  0
  5 32  1  0  0  0  0
  6  7  1  0  0  0  0
  6 33  1  0  0  0  0
  6 34  1  0  0  0  0
  7  8  1  0  0  0  0
  7 35  1  0  0  0  0
  7 36  1  0  0  0  0
  8  9  1  0  0  0  0
  8 37  1  0  0  0  0
  8 38  1  0  0  0  0
  9 10  1  0  0  0  0
  9 39  1  0  0  0  0
  9 40  1  0  0  0  0
 11 12  2  0  0  0  0
 11 13  1  0  0  0  0
 13 14  1  0  0  0  0
 13 41  1  0  0  0  0
 14 23  1  0  0  0  0
 14 15  2  0  0  0  0
 15 16  1  0  0  0  0
 15 42  1  0  0  0  0
 16 17  1  0  0  0  0
 16 21  2  0  0  0  0
 17 18  1  0  0  0  0
 17 19  1  0  0  0  0
 17 20  1  0  0  0  0
 21 22  1  0  0  0  0
 21 43  1  0  0  0  0
 22 25  1  0  0  0  0
 22 23  1  0  0  0  0
 23 24  2  0  0  0  0
M  END
> <s_m_source_file>
AV-unprocessed.smi

> <i_m_source_file_index>
1550

> <i_lp_mmshare_version>
43012

> <i_f3d_flags>
0

> <s_epik_input>
TzFbQ0gyXVtDSDJdW0NIMl1bQ0gyXVtDQEhdMVtDSDJdT1tDQEBIXShbQ0gzXSlDKD1PKVtOSF1jMltjSF1jKEMoRikoRilGKVtjSF1bbkhdYzI9Tw==

> <s_epik_cmdline>
J2VwaWtfcHl0aG9uJywgJy1waCcsICc3LjAnLCAnLXRuJywgJzgnLCAnLW1hJywgJzIwMCcsICctbWV0YWxfYmluZGluZycsICctaW1hZScsICc8aW5maWxlLm1hZT4nLCAnLW9tYWUnLCAnPG91dGZpbGUubWFlPic=

> <r_lp_tautomer_probability>
0.999

> <r_epik_Ionization_Penalty>
0.00891333

> <r_epik_Ionization_Penalty_Charging>
0.00891323

> <r_epik_Ionization_Penalty_Neutral>
1.00146e-07

> <r_epik_State_Penalty>
0.00674197

> <r_epik_Charging_Adjusted_Penalty>
0.0156552

> <i_epik_Tot_Q>
0

> <i_epik_Tot_abs_Q>
0

> <r_epik_Metal_State_Penalty>
0.321024

> <b_epik_Metal_Only>
0

> <s_lp_Force_Field>
OPLS_2005

> <r_lp_Energy>
25.8894

> <b_lp_Chiralities_Consistent>
1

> <s_lp_Variant>
AV-unprocessed.smi:1550-3

> <Gold.Version>
5.8.1

> <Gold.Id.Protein>
6NUR|6NUR_protein|mol2

> <Gold.PLP.Fitness>
47.4119

> <Gold.PLP.PLP>
-44.0429

> <Gold.PLP.part.hbond>
-2.6138

> <Gold.PLP.part.metal>
0.0000

> <Gold.PLP.part.buried>
-3.9806

> <Gold.PLP.part.nonpolar>
-36.3395

> <Gold.PLP.part.repulsive>
0.0558

> <Gold.PLP.ligand.clash>
0.0000

> <Gold.PLP.ligand.torsion>
1.3212

> <Gold.PLP.Chemscore.Hbond>
1.9675

> <Gold.PLP.Chemscore.CHOScore>
0.0000

> <Gold.PLP.Chemscore.Metal>
0.0000

> <Gold.Chemscore.Hbonds>
donor molecule, donor type, donor heavy atom, donor atom, acceptor molecule, acceptor atom, score
      P1  H  6896  6908       L1    12  1.00
      P1  H  7997  8010       L1     3  0.92

> <Gold.PLP.Chemscore.Internal.Correction>
0.1088

> <Gold.Rescore>
     Score         DG    S(hbond)    S(metal)    S(lipo)     H(rot)  DE(clash)    DE(int)     intcor
     16.36     -18.97       1.64        0.00     109.16       1.86       0.07       2.54       ----

> <Gold.Chemscore.Fitness>
16.3575

> <Gold.Chemscore.DG>
-18.9660

> <Gold.Chemscore.ZeroCoef>
-5.4800

> <Gold.Chemscore.Hbond>
1.6373

> <Gold.Chemscore.Metal>
0.0000

> <Gold.Chemscore.Lipo>
109.1575

> <Gold.Chemscore.Internal_Hbond>
0.0000

> <Gold.Chemscore.DEClash>
0.0658

> <Gold.Chemscore.DEInternal>
2.5427

> <Gold.Chemscore.Rot>
1.8571

> <Gold.Chemscore.Internal.Correction>
   9.000000E+99

> <Gold.Chemscore.Hbonds>
donor molecule, donor type, donor heavy atom, donor atom, acceptor molecule, acceptor atom, score
      P1  H  6896  6908       L1    12  0.99
      P1  H  7997  8010       L1     3  0.09

> <Gold.Chemscore.Hbond.Weighted>
-5.4686

> <Gold.Chemscore.Metal.Weighted>
-0.0000

> <Gold.Chemscore.Lipo.Weighted>
-12.7714

> <Gold.Chemscore.Internal_Hbond.Weighted>
0.0000

> <Gold.Chemscore.DEClash.Weighted>
0.0658

> <Gold.Chemscore.DEInternal.Weighted>
2.5427

> <Gold.Chemscore.Rot.Weighted>
4.7541

> <Gold.Chemscore.Internal.Correction.Weighted>
   9.000000E+99

> <Gold.Protein.RotatedTorsions>
[ 6907 6896 6895 6894 ] final -104.16 input  -60.11 | X-H torsion
[ 7974 7965 7964 7962 ] final  158.36 input  175.53 | X-H torsion
[ 8008 7997 7996 7995 ] final   34.95 input   59.86 | X-H torsion
[ 10167 10162 10161 10158 ] final   78.23 input  -65.29 | X-H torsion
[ 10718 10713 10712 10709 ] final  -81.00 input   66.30 | X-H torsion
[ 10763 10752 10751 10750 ] final   -6.58 input  -60.55 | X-H torsion
[ 11005 11000 10999 10996 ] final  -68.01 input  -57.11 | X-H torsion

> <Gold.Protein.ActiveResidues>
 VAL166  LYS551  ARG553  GLY616  TRP617  ASP618  TYR619  PRO620  LYS621  CYS622 
 ASP623  PHE694  ASN695  SER759  ASP760  ASP761  ALA762  ILE779  LEU786  VAL792 
 PHE793  MET794  SER795  GLU796  ALA797  LYS798  CYS799  TRP800  GLU811  SER814 

> <Gold.Protein.RotatedAtoms>
  150.7274  134.0320  159.3736 H   0  0  0  0  0  0  0  0  0  0  0  0  # atno 6907 bound_to 6896
  151.8289  135.0625  160.0444 H   0  0  0  0  0  0  0  0  0  0  0  0  # atno 6908 bound_to 6896
  152.2948  133.5560  159.5617 H   0  0  0  0  0  0  0  0  0  0  0  0  # atno 6909 bound_to 6896
  144.7850  139.7468  143.6244 H   0  0  0  0  0  0  0  0  0  0  0  0  # atno 7974 bound_to 7965
  155.1632  140.3285  155.4407 H   0  0  0  0  0  0  0  0  0  0  0  0  # atno 8008 bound_to 7997
  156.2535  140.1956  156.6689 H   0  0  0  0  0  0  0  0  0  0  0  0  # atno 8009 bound_to 7997
  154.6390  140.0572  156.9809 H   0  0  0  0  0  0  0  0  0  0  0  0  # atno 8010 bound_to 7997
  139.9731  144.5880  150.7967 H   0  0  0  0  0  0  0  0  0  0  0  0  # atno 10167 bound_to 10162
  156.0059  130.4591  150.3886 H   0  0  0  0  0  0  0  0  0  0  0  0  # atno 10718 bound_to 10713
  153.4144  135.7008  153.6337 H   0  0  0  0  0  0  0  0  0  0  0  0  # atno 10763 bound_to 10752
  153.4817  135.3692  155.2446 H   0  0  0  0  0  0  0  0  0  0  0  0  # atno 10764 bound_to 10752
  154.8719  135.4067  154.3501 H   0  0  0  0  0  0  0  0  0  0  0  0  # atno 10765 bound_to 10752
  141.1522  133.6731  156.6380 H   0  0  0  0  0  0  0  0  0  0  0  0  # atno 11005 bound_to 11000
  146.2077  139.5413  142.9701 LP  0  0  0  0  0  0  0  0  0  0  0  0  # atno 17320 bound_to 7965
  145.5946  141.0364  143.2051 LP  0  0  0  0  0  0  0  0  0  0  0  0  # atno 17321 bound_to 7965
  140.7515  143.2973  151.3170 LP  0  0  0  0  0  0  0  0  0  0  0  0  # atno 17342 bound_to 10162
  139.6466  144.0440  152.2595 LP  0  0  0  0  0  0  0  0  0  0  0  0  # atno 17343 bound_to 10162
  157.1962  131.0427  151.2674 LP  0  0  0  0  0  0  0  0  0  0  0  0  # atno 17370 bound_to 10713
  157.4016  130.7336  149.6772 LP  0  0  0  0  0  0  0  0  0  0  0  0  # atno 17371 bound_to 10713
  140.3415  134.7845  157.4401 LP  0  0  0  0  0  0  0  0  0  0  0  0  # atno 17394 bound_to 11000
  140.0934  134.5570  155.8422 LP  0  0  0  0  0  0  0  0  0  0  0  0  # atno 17395 bound_to 11000

$$$$
