AV-unprocessed.smi:2028|AV-procd|sdf|8221|dock7
  -GOLD-   2272010493D 1   1.00000     0.00000
 Structure written by MMmdl.
 38 39  0  0  0  0  0  0  0  0  1 V2000
  145.0402  144.0770  156.7032 C   0  0  0  0  0  0  0  0  0  0  0  0
  144.4567  143.5494  155.3808 C   0  0  0  0  0  0  0  0  0  0  0  0
  143.4953  142.3818  155.6858 C   0  0  0  0  0  0  0  0  0  0  0  0
  143.7107  144.6977  154.6684 C   0  0  0  0  0  0  0  0  0  0  0  0
  145.5895  143.0812  154.5746 N   0  0  0  0  0  0  0  0  0  0  0  0
  146.5793  142.2407  154.9271 C   0  0  0  0  0  0  0  0  0  0  0  0
  146.6607  141.6902  156.0247 O   0  0  0  0  0  0  0  0  0  0  0  0
  147.6595  141.9954  153.8729 C   0  0  0  0  0  0  0  0  0  0  0  0
  148.7966  141.2247  154.4773 C   0  0  0  0  0  0  0  0  0  0  0  0
  149.3028  140.0260  154.0374 C   0  0  0  0  0  0  0  0  0  0  0  0
  150.6168  139.4657  155.0350 S   0  0  0  0  0  0  0  0  0  0  0  0
  150.4312  140.9112  156.0327 C   0  0  0  0  0  0  0  0  0  0  0  0
  151.1939  141.2432  157.1914 N   0  0  0  0  0  0  0  0  0  0  0  0
  150.8906  142.4212  157.9986 C   0  0  0  0  0  0  0  0  0  0  0  0
  151.7611  142.3063  159.2547 C   0  0  0  0  0  0  0  0  0  0  0  0
  152.8048  141.2398  158.9278 C   0  0  0  0  0  0  0  0  0  0  0  0
  152.2569  140.5765  157.6751 C   0  0  0  0  0  0  0  0  0  0  0  0
  152.7724  139.5624  157.2074 O   0  0  0  0  0  0  0  0  0  0  0  0
  149.4544  141.7201  155.6091 N   0  0  0  0  0  0  0  0  0  0  0  0
  144.2555  144.4440  157.3659 H   0  0  0  0  0  0  0  0  0  0  0  0
  145.7347  144.9004  156.5313 H   0  0  0  0  0  0  0  0  0  0  0  0
  145.5823  143.2964  157.2387 H   0  0  0  0  0  0  0  0  0  0  0  0
  144.0180  141.5521  156.1636 H   0  0  0  0  0  0  0  0  0  0  0  0
  143.0209  141.9954  154.7836 H   0  0  0  0  0  0  0  0  0  0  0  0
  142.6964  142.6960  156.3583 H   0  0  0  0  0  0  0  0  0  0  0  0
  142.9317  145.1139  155.3079 H   0  0  0  0  0  0  0  0  0  0  0  0
  143.2241  144.3662  153.7512 H   0  0  0  0  0  0  0  0  0  0  0  0
  144.3889  145.5108  154.4075 H   0  0  0  0  0  0  0  0  0  0  0  0
  145.6425  143.4658  153.6425 H   0  0  0  0  0  0  0  0  0  0  0  0
  147.2231  141.4476  153.0368 H   0  0  0  0  0  0  0  0  0  0  0  0
  148.0073  142.9473  153.4682 H   0  0  0  0  0  0  0  0  0  0  0  0
  148.9778  139.4370  153.1927 H   0  0  0  0  0  0  0  0  0  0  0  0
  151.1445  143.3191  157.4331 H   0  0  0  0  0  0  0  0  0  0  0  0
  149.8313  142.4694  158.2557 H   0  0  0  0  0  0  0  0  0  0  0  0
  152.2178  143.2605  159.5194 H   0  0  0  0  0  0  0  0  0  0  0  0
  151.1558  141.9844  160.1033 H   0  0  0  0  0  0  0  0  0  0  0  0
  153.7741  141.6870  158.7048 H   0  0  0  0  0  0  0  0  0  0  0  0
  152.9283  140.5215  159.7389 H   0  0  0  0  0  0  0  0  0  0  0  0
  1  2  1  0  0  0  0
  1 20  1  0  0  0  0
  1 21  1  0  0  0  0
  1 22  1  0  0  0  0
  2  3  1  0  0  0  0
  2  4  1  0  0  0  0
  2  5  1  0  0  0  0
  3 23  1  0  0  0  0
  3 24  1  0  0  0  0
  3 25  1  0  0  0  0
  4 26  1  0  0  0  0
  4 27  1  0  0  0  0
  4 28  1  0  0  0  0
  5  6  1  0  0  0  0
  5 29  1  0  0  0  0
  6  7  2  0  0  0  0
  6  8  1  0  0  0  0
  8  9  1  0  0  0  0
  8 30  1  0  0  0  0
  8 31  1  0  0  0  0
  9 19  1  0  0  0  0
  9 10  2  0  0  0  0
 10 11  1  0  0  0  0
 10 32  1  0  0  0  0
 11 12  1  0  0  0  0
 12 13  1  0  0  0  0
 12 19  2  0  0  0  0
 13 17  1  0  0  0  0
 13 14  1  0  0  0  0
 14 15  1  0  0  0  0
 14 33  1  0  0  0  0
 14 34  1  0  0  0  0
 15 16  1  0  0  0  0
 15 35  1  0  0  0  0
 15 36  1  0  0  0  0
 16 17  1  0  0  0  0
 16 37  1  0  0  0  0
 16 38  1  0  0  0  0
 17 18  2  0  0  0  0
M  END
> <s_m_source_file>
AV-unprocessed.smi

> <i_m_source_file_index>
2028

> <i_lp_mmshare_version>
43012

> <i_f3d_flags>
0

> <s_epik_input>
W0NIM11DKFtDSDNdKShbQ0gzXSlbTkhdQyg9TylbQ0gyXWMxW2NIXXNjKG4xKU4yW0NIMl1bQ0gyXVtDSDJdQzI9Tw==

> <s_epik_cmdline>
J2VwaWtfcHl0aG9uJywgJy1waCcsICc3LjAnLCAnLXRuJywgJzgnLCAnLW1hJywgJzIwMCcsICctbWV0YWxfYmluZGluZycsICctaW1hZScsICc8aW5maWxlLm1hZT4nLCAnLW9tYWUnLCAnPG91dGZpbGUubWFlPic=

> <r_lp_tautomer_probability>
1

> <r_epik_Ionization_Penalty>
2.98188e-05

> <r_epik_Ionization_Penalty_Charging>
0

> <r_epik_Ionization_Penalty_Neutral>
2.98188e-05

> <r_epik_State_Penalty>
-0

> <r_epik_Charging_Adjusted_Penalty>
0

> <i_epik_Tot_Q>
0

> <i_epik_Tot_abs_Q>
0

> <r_epik_Metal_State_Penalty>
-0

> <b_epik_Metal_Only>
0

> <s_lp_Force_Field>
OPLS_2005

> <r_lp_Energy>
17.4642

> <b_lp_Chiralities_Consistent>
1

> <s_lp_Variant>
AV-unprocessed.smi:2028-1

> <Gold.Version>
5.8.1

> <Gold.Id.Protein>
6NUR|6NUR_protein|mol2

> <Gold.PLP.Fitness>
36.7593

> <Gold.PLP.PLP>
-31.7614

> <Gold.PLP.part.hbond>
-1.0000

> <Gold.PLP.part.metal>
0.0000

> <Gold.PLP.part.buried>
-3.4075

> <Gold.PLP.part.nonpolar>
-27.4808

> <Gold.PLP.part.repulsive>
0.6407

> <Gold.PLP.ligand.clash>
0.0000

> <Gold.PLP.ligand.torsion>
0.2073

> <Gold.PLP.Chemscore.Hbond>
1.0000

> <Gold.PLP.Chemscore.CHOScore>
0.7990

> <Gold.PLP.Chemscore.Metal>
0.0000

> <Gold.Chemscore.Hbonds>
donor molecule, donor type, donor heavy atom, donor atom, acceptor molecule, acceptor atom, score
      P1  H  7997  8008       L1    18  1.00
      L1  C    10    32       P1  7957  0.79

> <Gold.PLP.Chemscore.Internal.Correction>
0.0156

> <Gold.Rescore>
     Score         DG    S(hbond)    S(metal)    S(lipo)     H(rot)  DE(clash)    DE(int)     intcor
     10.50     -12.69       0.96        0.00      65.54       1.44       0.03       2.15       ----

> <Gold.Chemscore.Fitness>
10.5032

> <Gold.Chemscore.DG>
-12.6888

> <Gold.Chemscore.ZeroCoef>
-5.4800

> <Gold.Chemscore.Hbond>
0.9640

> <Gold.Chemscore.Metal>
0.0000

> <Gold.Chemscore.Lipo>
65.5371

> <Gold.Chemscore.Internal_Hbond>
0.0000

> <Gold.Chemscore.DEClash>
0.0308

> <Gold.Chemscore.DEInternal>
2.1548

> <Gold.Chemscore.Rot>
1.4371

> <Gold.Chemscore.Internal.Correction>
   9.000000E+99

> <Gold.Chemscore.Hbonds>
donor molecule, donor type, donor heavy atom, donor atom, acceptor molecule, acceptor atom, score
      P1  H  7997  8008       L1    18  0.45

> <Gold.Chemscore.Hbond.Weighted>
-3.2199

> <Gold.Chemscore.Metal.Weighted>
-0.0000

> <Gold.Chemscore.Lipo.Weighted>
-7.6678

> <Gold.Chemscore.Internal_Hbond.Weighted>
0.0000

> <Gold.Chemscore.DEClash.Weighted>
0.0308

> <Gold.Chemscore.DEInternal.Weighted>
2.1548

> <Gold.Chemscore.Rot.Weighted>
3.6789

> <Gold.Chemscore.Internal.Correction.Weighted>
   9.000000E+99

> <Gold.Protein.RotatedTorsions>
[ 6907 6896 6895 6894 ] final  -54.18 input  -60.11 | X-H torsion
[ 7974 7965 7964 7962 ] final  144.07 input  175.53 | X-H torsion
[ 8008 7997 7996 7995 ] final  -73.20 input   59.86 | X-H torsion
[ 10167 10162 10161 10158 ] final -162.60 input  -65.29 | X-H torsion
[ 10718 10713 10712 10709 ] final   53.37 input   66.30 | X-H torsion
[ 10763 10752 10751 10750 ] final   45.18 input  -60.55 | X-H torsion
[ 11005 11000 10999 10996 ] final  -90.85 input  -57.11 | X-H torsion

> <Gold.Protein.ActiveResidues>
 VAL166  LYS551  ARG553  GLY616  TRP617  ASP618  TYR619  PRO620  LYS621  CYS622 
 ASP623  PHE694  ASN695  SER759  ASP760  ASP761  ALA762  ILE779  LEU786  VAL792 
 PHE793  MET794  SER795  GLU796  ALA797  LYS798  CYS799  TRP800  GLU811  SER814 

> <Gold.Protein.RotatedAtoms>
  150.8360  134.7634  159.6893 H   0  0  0  0  0  0  0  0  0  0  0  0  # atno 6907 bound_to 6896
  152.4457  134.5496  159.9873 H   0  0  0  0  0  0  0  0  0  0  0  0  # atno 6908 bound_to 6896
  151.5646  133.3360  159.3013 H   0  0  0  0  0  0  0  0  0  0  0  0  # atno 6909 bound_to 6896
  144.8867  139.5618  143.5817 H   0  0  0  0  0  0  0  0  0  0  0  0  # atno 7974 bound_to 7965
  154.5228  140.0783  156.8203 H   0  0  0  0  0  0  0  0  0  0  0  0  # atno 8008 bound_to 7997
  155.3539  140.3414  155.4221 H   0  0  0  0  0  0  0  0  0  0  0  0  # atno 8009 bound_to 7997
  156.1699  140.1616  156.8452 H   0  0  0  0  0  0  0  0  0  0  0  0  # atno 8010 bound_to 7997
  139.6380  144.0313  152.2070 H   0  0  0  0  0  0  0  0  0  0  0  0  # atno 10167 bound_to 10162
  157.5161  130.8533  149.8497 H   0  0  0  0  0  0  0  0  0  0  0  0  # atno 10718 bound_to 10713
  152.9828  135.6047  154.3395 H   0  0  0  0  0  0  0  0  0  0  0  0  # atno 10763 bound_to 10752
  154.3092  135.2771  155.2576 H   0  0  0  0  0  0  0  0  0  0  0  0  # atno 10764 bound_to 10752
  154.4793  135.5921  153.6433 H   0  0  0  0  0  0  0  0  0  0  0  0  # atno 10765 bound_to 10752
  141.1557  133.7718  156.9796 H   0  0  0  0  0  0  0  0  0  0  0  0  # atno 11005 bound_to 11000
  146.3029  139.7483  142.9078 LP  0  0  0  0  0  0  0  0  0  0  0  0  # atno 17320 bound_to 7965
  145.3856  141.0365  143.3153 LP  0  0  0  0  0  0  0  0  0  0  0  0  # atno 17321 bound_to 7965
  139.9995  144.6303  150.7742 LP  0  0  0  0  0  0  0  0  0  0  0  0  # atno 17342 bound_to 10162
  140.7476  143.2908  151.3335 LP  0  0  0  0  0  0  0  0  0  0  0  0  # atno 17343 bound_to 10162
  156.0321  130.3761  150.1659 LP  0  0  0  0  0  0  0  0  0  0  0  0  # atno 17370 bound_to 10713
  156.9848  130.9875  151.3429 LP  0  0  0  0  0  0  0  0  0  0  0  0  # atno 17371 bound_to 10713
  140.1075  134.9497  157.2016 LP  0  0  0  0  0  0  0  0  0  0  0  0  # atno 17394 bound_to 11000
  140.3237  134.2887  155.7241 LP  0  0  0  0  0  0  0  0  0  0  0  0  # atno 17395 bound_to 11000

$$$$
