AV-unprocessed.smi:2623|AV-procd|sdf|10229|dock4
  -GOLD-   2272014233D 1   1.00000     0.00000
 Structure written by MMmdl.
 40 42  0  0  0  0  0  0  0  0  1 V2000
  151.9799  136.9290  154.8868 O   0  0  0  0  0  0  0  0  0  0  0  0
  152.1178  137.9908  155.8053 C   0  0  0  0  0  0  0  0  0  0  0  0
  150.9615  138.9439  155.7739 C   0  0  0  0  0  0  0  0  0  0  0  0
  150.5639  139.5207  154.6391 N   0  0  0  0  0  0  0  0  0  0  0  0
  149.4870  140.2834  155.0450 C   0  0  0  0  0  0  0  0  0  0  0  0
  148.6293  141.1282  154.3049 C   0  0  0  0  0  0  0  0  0  0  0  0
  147.5745  141.8117  154.9443 C   0  0  0  0  0  0  0  0  0  0  0  0
  147.3614  141.6592  156.3295 C   0  0  0  0  0  0  0  0  0  0  0  0
  148.2048  140.8225  157.0855 C   0  0  0  0  0  0  0  0  0  0  0  0
  149.2591  140.1455  156.4432 C   0  0  0  0  0  0  0  0  0  0  0  0
  150.2506  139.2736  156.8837 N   0  0  0  0  0  0  0  0  0  0  0  0
  150.4357  138.8201  158.2572 C   0  0  0  0  0  0  0  0  0  0  0  0
  151.9044  138.9057  158.7213 C   0  0  2  0  0  0  0  0  0  0  0  0
  152.0441  138.3113  159.9955 O   0  0  0  0  0  0  0  0  0  0  0  0
  152.4083  140.3536  158.8029 C   0  0  0  0  0  0  0  0  0  0  0  0
  151.8630  140.9643  159.9653 O   0  0  0  0  0  0  0  0  0  0  0  0
  151.8919  142.3393  160.0561 C   0  0  0  0  0  0  0  0  0  0  0  0
  151.8615  143.0605  158.8444 C   0  0  0  0  0  0  0  0  0  0  0  0
  151.8894  144.4684  158.8424 C   0  0  0  0  0  0  0  0  0  0  0  0
  151.9466  145.1724  160.0592 C   0  0  0  0  0  0  0  0  0  0  0  0
  151.9769  144.4658  161.2758 C   0  0  0  0  0  0  0  0  0  0  0  0
  151.9505  143.0573  161.2777 C   0  0  0  0  0  0  0  0  0  0  0  0
  151.2661  137.1296  154.3010 H   0  0  0  0  0  0  0  0  0  0  0  0
  152.2085  137.5686  156.8069 H   0  0  0  0  0  0  0  0  0  0  0  0
  153.0467  138.5276  155.6131 H   0  0  0  0  0  0  0  0  0  0  0  0
  148.7825  141.2491  153.2426 H   0  0  0  0  0  0  0  0  0  0  0  0
  146.9249  142.4548  154.3687 H   0  0  0  0  0  0  0  0  0  0  0  0
  146.5499  142.1846  156.8116 H   0  0  0  0  0  0  0  0  0  0  0  0
  148.0425  140.7031  158.1465 H   0  0  0  0  0  0  0  0  0  0  0  0
  149.8071  139.4407  158.8970 H   0  0  0  0  0  0  0  0  0  0  0  0
  150.0654  137.8020  158.3693 H   0  0  0  0  0  0  0  0  0  0  0  0
  152.5430  138.3508  158.0336 H   0  0  0  0  0  0  0  0  0  0  0  0
  152.9508  138.3700  160.2565 H   0  0  0  0  0  0  0  0  0  0  0  0
  153.4993  140.3694  158.8307 H   0  0  0  0  0  0  0  0  0  0  0  0
  152.0835  140.9058  157.9192 H   0  0  0  0  0  0  0  0  0  0  0  0
  151.8170  142.5280  157.9057 H   0  0  0  0  0  0  0  0  0  0  0  0
  151.8669  145.0078  157.9069 H   0  0  0  0  0  0  0  0  0  0  0  0
  151.9683  146.2522  160.0592 H   0  0  0  0  0  0  0  0  0  0  0  0
  152.0212  145.0045  162.2108 H   0  0  0  0  0  0  0  0  0  0  0  0
  151.9772  142.5512  162.2305 H   0  0  0  0  0  0  0  0  0  0  0  0
  1  2  1  0  0  0  0
  1 23  1  0  0  0  0
  2  3  1  0  0  0  0
  2 24  1  0  0  0  0
  2 25  1  0  0  0  0
  3 11  1  0  0  0  0
  3  4  2  0  0  0  0
  4  5  1  0  0  0  0
  5 10  2  0  0  0  0
  5  6  1  0  0  0  0
  6  7  2  0  0  0  0
  6 26  1  0  0  0  0
  7  8  1  0  0  0  0
  7 27  1  0  0  0  0
  8  9  2  0  0  0  0
  8 28  1  0  0  0  0
  9 10  1  0  0  0  0
  9 29  1  0  0  0  0
 10 11  1  0  0  0  0
 11 12  1  0  0  0  0
 12 13  1  0  0  0  0
 12 30  1  0  0  0  0
 12 31  1  0  0  0  0
 13 14  1  0  0  0  0
 13 15  1  0  0  0  0
 13 32  1  0  0  0  0
 14 33  1  0  0  0  0
 15 16  1  0  0  0  0
 15 34  1  0  0  0  0
 15 35  1  0  0  0  0
 16 17  1  0  0  0  0
 17 22  1  0  0  0  0
 17 18  2  0  0  0  0
 18 19  1  0  0  0  0
 18 36  1  0  0  0  0
 19 20  2  0  0  0  0
 19 37  1  0  0  0  0
 20 21  1  0  0  0  0
 20 38  1  0  0  0  0
 21 22  2  0  0  0  0
 21 39  1  0  0  0  0
 22 40  1  0  0  0  0
M  END
> <s_m_source_file>
AV-unprocessed.smi

> <i_m_source_file_index>
2623

> <i_lp_mmshare_version>
43012

> <i_f3d_flags>
0

> <s_epik_input>
W2NIXTFbY0hdW2NIXVtjSF1jKGMxMiluKGMobjIpW0NIMl1bT0hdKVtDSDJdW0NASF0oW09IXSlbQ0gyXU9jM1tjSF1bY0hdW2NIXVtjSF1bY0hdMw==

> <s_epik_cmdline>
J2VwaWtfcHl0aG9uJywgJy1waCcsICc3LjAnLCAnLXRuJywgJzgnLCAnLW1hJywgJzIwMCcsICctbWV0YWxfYmluZGluZycsICctaW1hZScsICc8aW5maWxlLm1hZT4nLCAnLW9tYWUnLCAnPG91dGZpbGUubWFlPic=

> <r_lp_tautomer_probability>
1

> <r_epik_Ionization_Penalty>
0.0583159

> <r_epik_Ionization_Penalty_Charging>
0

> <r_epik_Ionization_Penalty_Neutral>
0.0583159

> <r_epik_State_Penalty>
0.0503525

> <r_epik_Charging_Adjusted_Penalty>
0.0503525

> <i_epik_Tot_Q>
0

> <i_epik_Tot_abs_Q>
0

> <r_epik_Metal_State_Penalty>
5.25517e-05

> <b_epik_Metal_Only>
0

> <s_lp_Force_Field>
OPLS_2005

> <r_lp_Energy>
14.6276

> <b_lp_Chiralities_Consistent>
1

> <s_lp_Variant>
AV-unprocessed.smi:2623-1

> <Gold.Version>
5.8.1

> <Gold.Id.Protein>
6NUR|6NUR_protein|mol2

> <Gold.PLP.Fitness>
52.0086

> <Gold.PLP.PLP>
-47.4204

> <Gold.PLP.part.hbond>
-2.9151

> <Gold.PLP.part.metal>
0.0000

> <Gold.PLP.part.buried>
-6.5366

> <Gold.PLP.part.nonpolar>
-38.6854

> <Gold.PLP.part.repulsive>
0.7637

> <Gold.PLP.ligand.clash>
0.0000

> <Gold.PLP.ligand.torsion>
0.7425

> <Gold.PLP.Chemscore.Hbond>
1.9920

> <Gold.PLP.Chemscore.CHOScore>
0.0000

> <Gold.PLP.Chemscore.Metal>
0.0000

> <Gold.Chemscore.Hbonds>
donor molecule, donor type, donor heavy atom, donor atom, acceptor molecule, acceptor atom, score
      P1  H  7989  7998       L1     4  0.93
      P1  H 10752 10765       L1     1  0.69

> <Gold.PLP.Chemscore.Internal.Correction>
0.0972

> <Gold.Rescore>
     Score         DG    S(hbond)    S(metal)    S(lipo)     H(rot)  DE(clash)    DE(int)     intcor
     15.92     -17.43       1.50        0.00     125.77       3.04       0.09       1.42       ----

> <Gold.Chemscore.Fitness>
15.9228

> <Gold.Chemscore.DG>
-17.4287

> <Gold.Chemscore.ZeroCoef>
-5.4800

> <Gold.Chemscore.Hbond>
1.4984

> <Gold.Chemscore.Metal>
0.0000

> <Gold.Chemscore.Lipo>
125.7747

> <Gold.Chemscore.Internal_Hbond>
0.0000

> <Gold.Chemscore.DEClash>
0.0907

> <Gold.Chemscore.DEInternal>
1.4152

> <Gold.Chemscore.Rot>
3.0358

> <Gold.Chemscore.Internal.Correction>
   9.000000E+99

> <Gold.Chemscore.Hbonds>
donor molecule, donor type, donor heavy atom, donor atom, acceptor molecule, acceptor atom, score
      P1  H  7989  7998       L1     4  0.31
      P1  H 10752 10765       L1     1  0.46

> <Gold.Chemscore.Hbond.Weighted>
-5.0047

> <Gold.Chemscore.Metal.Weighted>
-0.0000

> <Gold.Chemscore.Lipo.Weighted>
-14.7156

> <Gold.Chemscore.Internal_Hbond.Weighted>
0.0000

> <Gold.Chemscore.DEClash.Weighted>
0.0907

> <Gold.Chemscore.DEInternal.Weighted>
1.4152

> <Gold.Chemscore.Rot.Weighted>
7.7716

> <Gold.Chemscore.Internal.Correction.Weighted>
   9.000000E+99

> <Gold.Protein.RotatedTorsions>
[ 6907 6896 6895 6894 ] final  -21.02 input  -60.11 | X-H torsion
[ 7974 7965 7964 7962 ] final  -79.93 input  175.53 | X-H torsion
[ 8008 7997 7996 7995 ] final -142.30 input   59.86 | X-H torsion
[ 10167 10162 10161 10158 ] final   86.02 input  -65.29 | X-H torsion
[ 10718 10713 10712 10709 ] final  -29.69 input   66.30 | X-H torsion
[ 10763 10752 10751 10750 ] final  148.65 input  -60.55 | X-H torsion
[ 11005 11000 10999 10996 ] final -164.10 input  -57.11 | X-H torsion

> <Gold.Protein.ActiveResidues>
 VAL166  LYS551  ARG553  GLY616  TRP617  ASP618  TYR619  PRO620  LYS621  CYS622 
 ASP623  PHE694  ASN695  SER759  ASP760  ASP761  ALA762  ILE779  LEU786  VAL792 
 PHE793  MET794  SER795  GLU796  ALA797  LYS798  CYS799  TRP800  GLU811  SER814 

> <Gold.Protein.RotatedAtoms>
  151.2395  135.0584  159.9019 H   0  0  0  0  0  0  0  0  0  0  0  0  # atno 6907 bound_to 6896
  152.5395  134.0449  159.8094 H   0  0  0  0  0  0  0  0  0  0  0  0  # atno 6908 bound_to 6896
  151.0641  133.5471  159.2663 H   0  0  0  0  0  0  0  0  0  0  0  0  # atno 6909 bound_to 6896
  145.5666  140.9473  143.1418 H   0  0  0  0  0  0  0  0  0  0  0  0  # atno 7974 bound_to 7965
  155.4920  140.0568  157.2952 H   0  0  0  0  0  0  0  0  0  0  0  0  # atno 8008 bound_to 7997
  154.4620  140.2000  156.0171 H   0  0  0  0  0  0  0  0  0  0  0  0  # atno 8009 bound_to 7997
  156.0906  140.3234  155.7815 H   0  0  0  0  0  0  0  0  0  0  0  0  # atno 8010 bound_to 7997
  139.8918  144.6381  150.8731 H   0  0  0  0  0  0  0  0  0  0  0  0  # atno 10167 bound_to 10162
  156.4093  130.4405  149.7264 H   0  0  0  0  0  0  0  0  0  0  0  0  # atno 10718 bound_to 10713
  154.0583  135.2876  155.3329 H   0  0  0  0  0  0  0  0  0  0  0  0  # atno 10763 bound_to 10752
  154.6825  135.5258  153.8285 H   0  0  0  0  0  0  0  0  0  0  0  0  # atno 10764 bound_to 10752
  153.0533  135.6585  154.0774 H   0  0  0  0  0  0  0  0  0  0  0  0  # atno 10765 bound_to 10752
  140.5906  134.5048  157.5192 H   0  0  0  0  0  0  0  0  0  0  0  0  # atno 11005 bound_to 11000
  144.7457  139.7326  143.7293 LP  0  0  0  0  0  0  0  0  0  0  0  0  # atno 17320 bound_to 7965
  146.1814  139.5008  142.9864 LP  0  0  0  0  0  0  0  0  0  0  0  0  # atno 17321 bound_to 7965
  140.7725  143.3504  151.2025 LP  0  0  0  0  0  0  0  0  0  0  0  0  # atno 17342 bound_to 10162
  139.7103  143.9388  152.2944 LP  0  0  0  0  0  0  0  0  0  0  0  0  # atno 17343 bound_to 10162
  156.4249  130.7787  151.2805 LP  0  0  0  0  0  0  0  0  0  0  0  0  # atno 17370 bound_to 10713
  157.7506  131.0171  150.3573 LP  0  0  0  0  0  0  0  0  0  0  0  0  # atno 17371 bound_to 10713
  139.9276  134.8026  156.1024 LP  0  0  0  0  0  0  0  0  0  0  0  0  # atno 17394 bound_to 11000
  141.0937  133.6704  156.2597 LP  0  0  0  0  0  0  0  0  0  0  0  0  # atno 17395 bound_to 11000

$$$$
