AV-unprocessed.smi:1464|AV-procd|sdf|5944|dock7
  -GOLD-   22720 6 23D 1   1.00000     0.00000
 Structure written by MMmdl.
 41 42  0  0  0  0  0  0  0  0  1 V2000
  151.8352  145.5633  159.8313 C   0  0  0  0  0  0  0  0  0  0  0  0
  152.2817  144.1468  159.4322 C   0  0  1  0  0  0  0  0  0  0  0  0
  152.5540  143.2638  160.6671 C   0  0  0  0  0  0  0  0  0  0  0  0
  153.0955  141.8830  160.2642 C   0  0  0  0  0  0  0  0  0  0  0  0
  152.1661  141.1816  159.2623 C   0  0  0  0  0  0  0  0  0  0  0  0
  151.9029  142.0680  158.0298 C   0  0  1  0  0  0  0  0  0  0  0  0
  151.0481  141.3572  157.0814 N   0  0  0  0  0  0  0  0  0  0  0  0
  151.4334  140.3360  156.3008 C   0  0  0  0  0  0  0  0  0  0  0  0
  152.5818  139.8901  156.2904 O   0  0  0  0  0  0  0  0  0  0  0  0
  150.3544  139.7528  155.3770 C   0  0  0  0  0  0  0  0  0  0  0  0
  149.0381  140.3857  155.5454 N   0  0  0  0  0  0  0  0  0  0  0  0
  148.4017  140.0633  156.7346 N   0  0  0  0  0  0  0  0  0  0  0  0
  147.2448  140.5670  157.0034 C   0  0  0  0  0  0  0  0  0  0  0  0
  146.6522  140.2249  158.1940 O   0  0  0  0  0  0  0  0  0  0  0  0
  146.5868  141.4662  156.0812 C   0  0  0  0  0  0  0  0  0  0  0  0
  147.2126  141.7708  154.9231 C   0  0  0  0  0  0  0  0  0  0  0  0
  148.5259  141.2180  154.5871 C   0  0  0  0  0  0  0  0  0  0  0  0
  149.1180  141.4767  153.5394 O   0  0  0  0  0  0  0  0  0  0  0  0
  151.3199  143.4510  158.4322 C   0  0  1  0  0  0  0  0  0  0  0  0
  149.8584  143.3735  158.9326 C   0  0  0  0  0  0  0  0  0  0  0  0
  147.3592  140.1660  158.8180 H   0  0  0  0  0  0  0  0  0  0  0  0
  150.9390  145.5464  160.4514 H   0  0  0  0  0  0  0  0  0  0  0  0
  151.6261  146.1730  158.9520 H   0  0  0  0  0  0  0  0  0  0  0  0
  152.6144  146.0686  160.4025 H   0  0  0  0  0  0  0  0  0  0  0  0
  153.2348  144.2684  158.9148 H   0  0  0  0  0  0  0  0  0  0  0  0
  153.2738  143.7551  161.3227 H   0  0  0  0  0  0  0  0  0  0  0  0
  151.6425  143.1447  161.2535 H   0  0  0  0  0  0  0  0  0  0  0  0
  154.0857  141.9969  159.8211 H   0  0  0  0  0  0  0  0  0  0  0  0
  153.2249  141.2612  161.1504 H   0  0  0  0  0  0  0  0  0  0  0  0
  152.6163  140.2378  158.9520 H   0  0  0  0  0  0  0  0  0  0  0  0
  151.2266  140.9239  159.7524 H   0  0  0  0  0  0  0  0  0  0  0  0
  152.8676  142.2344  157.5456 H   0  0  0  0  0  0  0  0  0  0  0  0
  150.0879  141.6632  157.0191 H   0  0  0  0  0  0  0  0  0  0  0  0
  150.6770  139.8378  154.3375 H   0  0  0  0  0  0  0  0  0  0  0  0
  150.2859  138.6815  155.5747 H   0  0  0  0  0  0  0  0  0  0  0  0
  145.6182  141.8788  156.3219 H   0  0  0  0  0  0  0  0  0  0  0  0
  146.7327  142.4412  154.2253 H   0  0  0  0  0  0  0  0  0  0  0  0
  151.3008  144.0664  157.5315 H   0  0  0  0  0  0  0  0  0  0  0  0
  149.7690  142.7945  159.8510 H   0  0  0  0  0  0  0  0  0  0  0  0
  149.2046  142.9145  158.1912 H   0  0  0  0  0  0  0  0  0  0  0  0
  149.4497  144.3644  159.1273 H   0  0  0  0  0  0  0  0  0  0  0  0
  1  2  1  0  0  0  0
  1 22  1  0  0  0  0
  1 23  1  0  0  0  0
  1 24  1  0  0  0  0
  2 19  1  0  0  0  0
  2  3  1  0  0  0  0
  2 25  1  0  0  0  0
  3  4  1  0  0  0  0
  3 26  1  0  0  0  0
  3 27  1  0  0  0  0
  4  5  1  0  0  0  0
  4 28  1  0  0  0  0
  4 29  1  0  0  0  0
  5  6  1  0  0  0  0
  5 30  1  0  0  0  0
  5 31  1  0  0  0  0
  6  7  1  0  0  0  0
  6 19  1  0  0  0  0
  6 32  1  0  0  0  0
  7  8  1  0  0  0  0
  7 33  1  0  0  0  0
  8  9  2  0  0  0  0
  8 10  1  0  0  0  0
 10 34  1  0  0  0  0
 10 35  1  0  0  0  0
 10 11  1  0  0  0  0
 11 12  1  0  0  0  0
 11 17  1  0  0  0  0
 12 13  2  0  0  0  0
 13 14  1  0  0  0  0
 13 15  1  0  0  0  0
 14 21  1  0  0  0  0
 15 36  1  0  0  0  0
 15 16  2  0  0  0  0
 16 37  1  0  0  0  0
 16 17  1  0  0  0  0
 17 18  2  0  0  0  0
 19 20  1  0  0  0  0
 19 38  1  0  0  0  0
 20 39  1  0  0  0  0
 20 40  1  0  0  0  0
 20 41  1  0  0  0  0
M  END
> <s_m_source_file>
AV-unprocessed.smi

> <i_m_source_file_index>
1464

> <i_lp_mmshare_version>
43012

> <i_f3d_flags>
0

> <s_epik_input>
W0NIM11bQ0BASF0xW0NIMl1bQ0gyXVtDSDJdW0NASF0oW0NASF0xW0NIM10pW05IXUMoPU8pW0NIMl1uMltuSF1jKD1PKVtjSF1bY0hdYzI9Tw==

> <s_epik_cmdline>
J2VwaWtfcHl0aG9uJywgJy1waCcsICc3LjAnLCAnLXRuJywgJzgnLCAnLW1hJywgJzIwMCcsICctbWV0YWxfYmluZGluZycsICctaW1hZScsICc8aW5maWxlLm1hZT4nLCAnLW9tYWUnLCAnPG91dGZpbGUubWFlPic=

> <r_lp_tautomer_probability>
0.9996

> <r_epik_Ionization_Penalty>
2.10335

> <r_epik_Ionization_Penalty_Charging>
3.98079e-08

> <r_epik_Ionization_Penalty_Neutral>
2.10335

> <r_epik_State_Penalty>
1.67957

> <r_epik_Charging_Adjusted_Penalty>
1.67957

> <i_epik_Tot_Q>
0

> <i_epik_Tot_abs_Q>
0

> <r_epik_Metal_State_Penalty>
1.67957

> <b_epik_Metal_Only>
0

> <s_lp_Force_Field>
OPLS_2005

> <r_lp_Energy>
25.7359

> <b_lp_Chiralities_Consistent>
1

> <s_lp_Variant>
AV-unprocessed.smi:1464-10

> <Gold.Version>
5.8.1

> <Gold.Id.Protein>
6NUR|6NUR_protein|mol2

> <Gold.PLP.Fitness>
44.3240

> <Gold.PLP.PLP>
-39.2783

> <Gold.PLP.part.hbond>
-3.9587

> <Gold.PLP.part.metal>
0.0000

> <Gold.PLP.part.buried>
-5.6133

> <Gold.PLP.part.nonpolar>
-32.5675

> <Gold.PLP.part.repulsive>
2.6979

> <Gold.PLP.ligand.clash>
0.0000

> <Gold.PLP.ligand.torsion>
0.3291

> <Gold.PLP.Chemscore.Hbond>
1.8960

> <Gold.PLP.Chemscore.CHOScore>
0.0000

> <Gold.PLP.Chemscore.Metal>
0.0000

> <Gold.Chemscore.Hbonds>
donor molecule, donor type, donor heavy atom, donor atom, acceptor molecule, acceptor atom, score
      P1  H  7997  8010       L1     9  1.00
      P1  H  8011  8017       L1    18  0.85

> <Gold.PLP.Chemscore.Internal.Correction>
0.0159

> <Gold.Rescore>
     Score         DG    S(hbond)    S(metal)    S(lipo)     H(rot)  DE(clash)    DE(int)     intcor
     16.09     -16.71       1.76        0.00      94.45       2.22       0.16       0.47       ----

> <Gold.Chemscore.Fitness>
16.0854

> <Gold.Chemscore.DG>
-16.7100

> <Gold.Chemscore.ZeroCoef>
-5.4800

> <Gold.Chemscore.Hbond>
1.7570

> <Gold.Chemscore.Metal>
0.0000

> <Gold.Chemscore.Lipo>
94.4516

> <Gold.Chemscore.Internal_Hbond>
0.0000

> <Gold.Chemscore.DEClash>
0.1578

> <Gold.Chemscore.DEInternal>
0.4668

> <Gold.Chemscore.Rot>
2.2224

> <Gold.Chemscore.Internal.Correction>
   9.000000E+99

> <Gold.Chemscore.Hbonds>
donor molecule, donor type, donor heavy atom, donor atom, acceptor molecule, acceptor atom, score
      P1  H  7997  8010       L1     9  1.00
      P1  H  8011  8017       L1    18  0.83

> <Gold.Chemscore.Hbond.Weighted>
-5.8685

> <Gold.Chemscore.Metal.Weighted>
-0.0000

> <Gold.Chemscore.Lipo.Weighted>
-11.0508

> <Gold.Chemscore.Internal_Hbond.Weighted>
0.0000

> <Gold.Chemscore.DEClash.Weighted>
0.1578

> <Gold.Chemscore.DEInternal.Weighted>
0.4668

> <Gold.Chemscore.Rot.Weighted>
5.6893

> <Gold.Chemscore.Internal.Correction.Weighted>
   9.000000E+99

> <Gold.Protein.RotatedTorsions>
[ 6907 6896 6895 6894 ] final   25.83 input  -60.11 | X-H torsion
[ 7974 7965 7964 7962 ] final  114.08 input  175.53 | X-H torsion
[ 8008 7997 7996 7995 ] final   70.00 input   59.86 | X-H torsion
[ 10167 10162 10161 10158 ] final  105.53 input  -65.29 | X-H torsion
[ 10718 10713 10712 10709 ] final   33.49 input   66.30 | X-H torsion
[ 10763 10752 10751 10750 ] final  177.47 input  -60.55 | X-H torsion
[ 11005 11000 10999 10996 ] final   89.31 input  -57.11 | X-H torsion

> <Gold.Protein.ActiveResidues>
 VAL166  LYS551  ARG553  GLY616  TRP617  ASP618  TYR619  PRO620  LYS621  CYS622 
 ASP623  PHE694  ASN695  SER759  ASP760  ASP761  ALA762  ILE779  LEU786  VAL792 
 PHE793  MET794  SER795  GLU796  ALA797  LYS798  CYS799  TRP800  GLU811  SER814 

> <Gold.Protein.RotatedAtoms>
  151.9784  135.0041  160.0555 H   0  0  0  0  0  0  0  0  0  0  0  0  # atno 6907 bound_to 6896
  152.1719  133.4644  159.4922 H   0  0  0  0  0  0  0  0  0  0  0  0  # atno 6908 bound_to 6896
  150.6903  134.1860  159.4310 H   0  0  0  0  0  0  0  0  0  0  0  0  # atno 6909 bound_to 6896
  145.2089  139.2916  143.4279 H   0  0  0  0  0  0  0  0  0  0  0  0  # atno 7974 bound_to 7965
  155.7321  140.3491  155.5064 H   0  0  0  0  0  0  0  0  0  0  0  0  # atno 8008 bound_to 7997
  155.9172  140.1061  157.1256 H   0  0  0  0  0  0  0  0  0  0  0  0  # atno 8009 bound_to 7997
  154.4064  140.1256  156.4620 H   0  0  0  0  0  0  0  0  0  0  0  0  # atno 8010 bound_to 7997
  139.7085  144.7082  151.1066 H   0  0  0  0  0  0  0  0  0  0  0  0  # atno 10167 bound_to 10162
  157.2985  130.7339  149.6653 H   0  0  0  0  0  0  0  0  0  0  0  0  # atno 10718 bound_to 10713
  154.4949  135.2781  155.1467 H   0  0  0  0  0  0  0  0  0  0  0  0  # atno 10763 bound_to 10752
  154.3124  135.6226  153.5475 H   0  0  0  0  0  0  0  0  0  0  0  0  # atno 10764 bound_to 10752
  152.9893  135.5723  154.5378 H   0  0  0  0  0  0  0  0  0  0  0  0  # atno 10765 bound_to 10752
  139.8878  134.8544  156.3124 H   0  0  0  0  0  0  0  0  0  0  0  0  # atno 11005 bound_to 11000
  146.3402  140.2358  142.8594 LP  0  0  0  0  0  0  0  0  0  0  0  0  # atno 17320 bound_to 7965
  144.9875  140.8517  143.5359 LP  0  0  0  0  0  0  0  0  0  0  0  0  # atno 17321 bound_to 7965
  140.7727  143.5325  150.9406 LP  0  0  0  0  0  0  0  0  0  0  0  0  # atno 17342 bound_to 10162
  139.9009  143.6837  152.3131 LP  0  0  0  0  0  0  0  0  0  0  0  0  # atno 17343 bound_to 10162
  155.9670  130.4287  150.4800 LP  0  0  0  0  0  0  0  0  0  0  0  0  # atno 17370 bound_to 10713
  157.2776  131.0600  151.2219 LP  0  0  0  0  0  0  0  0  0  0  0  0  # atno 17371 bound_to 10713
  140.9841  133.7249  156.0715 LP  0  0  0  0  0  0  0  0  0  0  0  0  # atno 17394 bound_to 11000
  140.7711  134.3831  157.5507 LP  0  0  0  0  0  0  0  0  0  0  0  0  # atno 17395 bound_to 11000

$$$$
