AV-unprocessed.smi:2604|AV-procd|sdf|10191|dock9
  -GOLD-   2272014203D 1   1.00000     0.00000
 Structure written by MMmdl.
 26 27  0  0  0  0  0  0  0  0  2 V2000
  141.7607  137.2925  153.5010 C   0  0  0  0  0  0  0  0  0  0  0  0
  140.6663  136.5551  153.9940 C   0  0  0  0  0  0  0  0  0  0  0  0
  140.5856  135.2097  153.9147 N   0  0  0  0  0  0  0  0  0  0  0  0
  141.6089  134.5466  153.3353 C   0  0  0  0  0  0  0  0  0  0  0  0
  142.7533  135.1855  152.8091 C   0  0  0  0  0  0  0  0  0  0  0  0
  143.8618  134.3715  152.1597 C   0  0  2  0  0  0  0  0  0  0  0  0
  144.2573  134.8995  150.7612 C   0  0  0  0  0  0  0  0  0  0  0  0
  145.3479  134.0971  150.2158 N   0  0  0  0  0  0  0  0  0  0  0  0
  144.8902  132.7196  150.0615 C   0  0  0  0  0  0  0  0  0  0  0  0
  144.5213  132.1354  151.4381 C   0  0  0  0  0  0  0  0  0  0  0  0
  143.4632  132.9504  152.0692 N   0  3  0  0  0  0  0  0  0  0  0  0
  142.8235  136.5934  152.8976 C   0  0  0  0  0  0  0  0  0  0  0  0
  141.7822  138.3693  153.5826 H   0  0  0  0  0  0  0  0  0  0  0  0
  139.8326  137.0588  154.4607 H   0  0  0  0  0  0  0  0  0  0  0  0
  141.5065  133.4724  153.2878 H   0  0  0  0  0  0  0  0  0  0  0  0
  144.7387  134.4262  152.8077 H   0  0  0  0  0  0  0  0  0  0  0  0
  143.4131  134.8810  150.0708 H   0  0  0  0  0  0  0  0  0  0  0  0
  144.5895  135.9357  150.8330 H   0  0  0  0  0  0  0  0  0  0  0  0
  145.6220  134.4663  149.3156 H   0  0  0  0  0  0  0  0  0  0  0  0
  144.0384  132.6824  149.3807 H   0  0  0  0  0  0  0  0  0  0  0  0
  145.6883  132.1314  149.6079 H   0  0  0  0  0  0  0  0  0  0  0  0
  144.1658  131.1103  151.3329 H   0  0  0  0  0  0  0  0  0  0  0  0
  145.3958  132.1057  152.0898 H   0  0  0  0  0  0  0  0  0  0  0  0
  143.2717  132.5948  152.9949 H   0  0  0  0  0  0  0  0  0  0  0  0
  143.6711  137.1352  152.5045 H   0  0  0  0  0  0  0  0  0  0  0  0
  142.6259  132.8839  151.5087 H   0  0  0  0  0  0  0  0  0  0  0  0
  1 12  1  0  0  0  0
  1  2  2  0  0  0  0
  1 13  1  0  0  0  0
  2  3  1  0  0  0  0
  2 14  1  0  0  0  0
  3  4  2  0  0  0  0
  4  5  1  0  0  0  0
  4 15  1  0  0  0  0
  5  6  1  0  0  0  0
  5 12  2  0  0  0  0
  6 11  1  0  0  0  0
  6  7  1  0  0  0  0
  6 16  1  0  0  0  0
  7  8  1  0  0  0  0
  7 17  1  0  0  0  0
  7 18  1  0  0  0  0
  8  9  1  0  0  0  0
  8 19  1  0  0  0  0
  9 10  1  0  0  0  0
  9 20  1  0  0  0  0
  9 21  1  0  0  0  0
 10 11  1  0  0  0  0
 10 22  1  0  0  0  0
 10 23  1  0  0  0  0
 11 24  1  0  0  0  0
 11 26  1  0  0  0  0
 12 25  1  0  0  0  0
M  CHG  1  11   1
M  END
> <s_m_source_file>
AV-unprocessed.smi

> <i_m_source_file_index>
2604

> <i_lp_mmshare_version>
43012

> <i_f3d_flags>
0

> <s_epik_input>
W2NIXTFbY0hdW2NIXW5bY0hdYzFbQ0BASF0yW0NIMl1bTkhdW0NIMl1bQ0gyXVtOSF0y

> <s_epik_cmdline>
J2VwaWtfcHl0aG9uJywgJy1waCcsICc3LjAnLCAnLXRuJywgJzgnLCAnLW1hJywgJzIwMCcsICctbWV0YWxfYmluZGluZycsICctaW1hZScsICc8aW5maWxlLm1hZT4nLCAnLW9tYWUnLCAnPG91dGZpbGUubWFlPic=

> <r_epik_Ionization_Penalty>
0.0278512

> <r_epik_Ionization_Penalty_Charging>
0.015072

> <r_epik_Ionization_Penalty_Neutral>
0.0127792

> <r_epik_State_Penalty>
0.548815

> <r_epik_Charging_Adjusted_Penalty>
0.563887

> <i_epik_Tot_Q>
1

> <i_epik_Tot_abs_Q>
1

> <r_epik_Metal_State_Penalty>
0.542887

> <b_epik_Metal_Only>
0

> <s_lp_Force_Field>
OPLS_2005

> <r_lp_Energy>
7.72855

> <b_lp_Chiralities_Consistent>
1

> <s_lp_Variant>
AV-unprocessed.smi:2604-3

> <Gold.Version>
5.8.1

> <Gold.Id.Protein>
6NUR|6NUR_protein|mol2

> <Gold.PLP.Fitness>
39.4527

> <Gold.PLP.PLP>
-25.8704

> <Gold.PLP.part.hbond>
-3.5451

> <Gold.PLP.part.metal>
0.0000

> <Gold.PLP.part.buried>
-6.2773

> <Gold.PLP.part.nonpolar>
-18.1271

> <Gold.PLP.part.repulsive>
0.1792

> <Gold.PLP.ligand.clash>
0.0000

> <Gold.PLP.ligand.torsion>
0.1216

> <Gold.PLP.Chemscore.Hbond>
3.6488

> <Gold.PLP.Chemscore.CHOScore>
0.9557

> <Gold.PLP.Chemscore.Metal>
0.0000

> <Gold.Chemscore.Hbonds>
donor molecule, donor type, donor heavy atom, donor atom, acceptor molecule, acceptor atom, score
      L1  H     8    19       P1  7921  1.00
      L1  H    11    24       P1 10957  1.66
      P1  H 11000 11005       L1     3  0.99
      L1  C     4    15       P1 10957  0.96

> <Gold.PLP.Chemscore.Internal.Correction>
0.0121

> <Gold.Rescore>
     Score         DG    S(hbond)    S(metal)    S(lipo)     H(rot)  DE(clash)    DE(int)     intcor
     15.28     -15.56       1.86        0.00      54.92       1.00       0.00       0.28       ----

> <Gold.Chemscore.Fitness>
15.2834

> <Gold.Chemscore.DG>
-15.5617

> <Gold.Chemscore.ZeroCoef>
-5.4800

> <Gold.Chemscore.Hbond>
1.8611

> <Gold.Chemscore.Metal>
0.0000

> <Gold.Chemscore.Lipo>
54.9217

> <Gold.Chemscore.Internal_Hbond>
0.0000

> <Gold.Chemscore.DEClash>
0.0000

> <Gold.Chemscore.DEInternal>
0.2784

> <Gold.Chemscore.Rot>
1.0000

> <Gold.Chemscore.Internal.Correction>
   9.000000E+99

> <Gold.Chemscore.Hbonds>
donor molecule, donor type, donor heavy atom, donor atom, acceptor molecule, acceptor atom, score
      L1  H     8    19       P1  7921  0.91
      L1  H    11    24       P1 10957  0.13
      P1  H 11000 11005       L1     3  0.41

> <Gold.Chemscore.Hbond.Weighted>
-6.2159

> <Gold.Chemscore.Metal.Weighted>
-0.0000

> <Gold.Chemscore.Lipo.Weighted>
-6.4258

> <Gold.Chemscore.Internal_Hbond.Weighted>
0.0000

> <Gold.Chemscore.DEClash.Weighted>
0.0000

> <Gold.Chemscore.DEInternal.Weighted>
0.2784

> <Gold.Chemscore.Rot.Weighted>
2.5600

> <Gold.Chemscore.Internal.Correction.Weighted>
   9.000000E+99

> <Gold.Protein.RotatedTorsions>
[ 6907 6896 6895 6894 ] final -100.98 input  -60.11 | X-H torsion
[ 7974 7965 7964 7962 ] final  -91.99 input  175.53 | X-H torsion
[ 8008 7997 7996 7995 ] final -114.76 input   59.86 | X-H torsion
[ 10167 10162 10161 10158 ] final -167.05 input  -65.29 | X-H torsion
[ 10718 10713 10712 10709 ] final  -12.89 input   66.30 | X-H torsion
[ 10763 10752 10751 10750 ] final  -30.38 input  -60.55 | X-H torsion
[ 11005 11000 10999 10996 ] final   29.23 input  -57.11 | X-H torsion

> <Gold.Protein.ActiveResidues>
 VAL166  LYS551  ARG553  GLY616  TRP617  ASP618  TYR619  PRO620  LYS621  CYS622 
 ASP623  PHE694  ASN695  SER759  ASP760  ASP761  ALA762  ILE779  LEU786  VAL792 
 PHE793  MET794  SER795  GLU796  ALA797  LYS798  CYS799  TRP800  GLU811  SER814 

> <Gold.Protein.RotatedAtoms>
  150.7136  134.0804  159.3895 H   0  0  0  0  0  0  0  0  0  0  0  0  # atno 6907 bound_to 6896
  151.8788  135.0459  160.0496 H   0  0  0  0  0  0  0  0  0  0  0  0  # atno 6908 bound_to 6896
  152.2584  133.5240  159.5404 H   0  0  0  0  0  0  0  0  0  0  0  0  # atno 6909 bound_to 6896
  145.4057  140.9541  143.2262 H   0  0  0  0  0  0  0  0  0  0  0  0  # atno 7974 bound_to 7965
  155.0414  140.0392  157.2511 H   0  0  0  0  0  0  0  0  0  0  0  0  # atno 8008 bound_to 7997
  154.7214  140.2712  155.6514 H   0  0  0  0  0  0  0  0  0  0  0  0  # atno 8009 bound_to 7997
  156.2817  140.2702  156.1886 H   0  0  0  0  0  0  0  0  0  0  0  0  # atno 8010 bound_to 7997
  139.6075  144.0883  152.1808 H   0  0  0  0  0  0  0  0  0  0  0  0  # atno 10167 bound_to 10162
  156.6381  130.4920  149.6105 H   0  0  0  0  0  0  0  0  0  0  0  0  # atno 10718 bound_to 10713
  153.7800  135.6906  153.4890 H   0  0  0  0  0  0  0  0  0  0  0  0  # atno 10763 bound_to 10752
  153.1818  135.4503  155.0036 H   0  0  0  0  0  0  0  0  0  0  0  0  # atno 10764 bound_to 10752
  154.8085  135.3367  154.7304 H   0  0  0  0  0  0  0  0  0  0  0  0  # atno 10765 bound_to 10752
  140.3072  134.2690  155.7741 H   0  0  0  0  0  0  0  0  0  0  0  0  # atno 11005 bound_to 11000
  144.8343  139.5576  143.6929 LP  0  0  0  0  0  0  0  0  0  0  0  0  # atno 17320 bound_to 7965
  146.2730  139.6681  142.9283 LP  0  0  0  0  0  0  0  0  0  0  0  0  # atno 17321 bound_to 7965
  140.0494  144.5945  150.7348 LP  0  0  0  0  0  0  0  0  0  0  0  0  # atno 17342 bound_to 10162
  140.7295  143.2673  151.4002 LP  0  0  0  0  0  0  0  0  0  0  0  0  # atno 17343 bound_to 10162
  156.2181  130.6720  151.1340 LP  0  0  0  0  0  0  0  0  0  0  0  0  # atno 17370 bound_to 10713
  157.7179  131.0699  150.6253 LP  0  0  0  0  0  0  0  0  0  0  0  0  # atno 17371 bound_to 10713
  141.2116  133.7684  156.9854 LP  0  0  0  0  0  0  0  0  0  0  0  0  # atno 17394 bound_to 11000
  140.1057  134.9508  157.1990 LP  0  0  0  0  0  0  0  0  0  0  0  0  # atno 17395 bound_to 11000

$$$$
