AV-unprocessed.smi:2949|AV-procd|sdf|11286|dock4
  -GOLD-   2272016173D 1   1.00000     0.00000
 Structure written by MMmdl.
 34 35  0  0  0  0  0  0  0  0  1 V2000
  146.5474  139.6855  155.9729 N   0  0  0  0  0  0  0  0  0  0  0  0
  146.4847  139.4567  154.7085 C   0  0  0  0  0  0  0  0  0  0  0  0
  145.4121  138.2357  153.8729 S   0  0  0  0  0  0  0  0  0  0  0  0
  146.0588  138.7395  152.3258 C   0  0  0  0  0  0  0  0  0  0  0  0
  146.9697  139.7030  152.4521 C   0  0  0  0  0  0  0  0  0  0  0  0
  147.2399  140.1201  153.7393 N   0  0  0  0  0  0  0  0  0  0  0  0
  148.1521  141.2260  154.0299 C   0  0  0  0  0  0  0  0  0  0  0  0
  149.2538  140.9221  155.0532 C   0  0  0  0  0  0  0  0  0  0  0  0
  149.7841  139.8082  155.0677 O   0  0  0  0  0  0  0  0  0  0  0  0
  149.5492  141.9460  155.8870 N   0  0  0  0  0  0  0  0  0  0  0  0
  150.4491  142.0421  156.8945 C   0  0  0  0  0  0  0  0  0  0  0  0
  150.9243  141.0306  157.4084 O   0  0  0  0  0  0  0  0  0  0  0  0
  150.7884  143.2807  157.2989 N   0  0  0  0  0  0  0  0  0  0  0  0
  151.9701  143.6223  158.0849 C   0  0  0  0  0  0  0  0  0  0  0  0
  152.1077  142.7248  159.3332 C   0  0  0  0  0  0  0  0  0  0  0  0
  152.2748  143.6715  160.5240 C   0  0  0  0  0  0  0  0  0  0  0  0
  151.5540  144.9467  160.0992 C   0  0  0  0  0  0  0  0  0  0  0  0
  151.8642  145.0659  158.6076 C   0  0  0  0  0  0  0  0  0  0  0  0
  145.7202  138.2907  151.4039 H   0  0  0  0  0  0  0  0  0  0  0  0
  147.5097  140.1839  151.6493 H   0  0  0  0  0  0  0  0  0  0  0  0
  148.6112  141.5749  153.1032 H   0  0  0  0  0  0  0  0  0  0  0  0
  147.5720  142.0711  154.4033 H   0  0  0  0  0  0  0  0  0  0  0  0
  149.0055  142.7827  155.7340 H   0  0  0  0  0  0  0  0  0  0  0  0
  150.1783  144.0433  157.0396 H   0  0  0  0  0  0  0  0  0  0  0  0
  152.8573  143.5376  157.4547 H   0  0  0  0  0  0  0  0  0  0  0  0
  151.2083  142.1244  159.4791 H   0  0  0  0  0  0  0  0  0  0  0  0
  152.9449  142.0316  159.2475 H   0  0  0  0  0  0  0  0  0  0  0  0
  151.8804  143.2544  161.4508 H   0  0  0  0  0  0  0  0  0  0  0  0
  153.3335  143.8842  160.6784 H   0  0  0  0  0  0  0  0  0  0  0  0
  150.4793  144.8279  160.2436 H   0  0  0  0  0  0  0  0  0  0  0  0
  151.8738  145.8206  160.6669 H   0  0  0  0  0  0  0  0  0  0  0  0
  152.8267  145.5638  158.4830 H   0  0  0  0  0  0  0  0  0  0  0  0
  151.1229  145.6665  158.0786 H   0  0  0  0  0  0  0  0  0  0  0  0
  145.9077  139.0817  156.4695 H   0  0  0  0  0  0  0  0  0  0  0  0
  1  2  2  0  0  0  0
  1 34  1  0  0  0  0
  2  6  1  0  0  0  0
  2  3  1  0  0  0  0
  3  4  1  0  0  0  0
  4  5  2  0  0  0  0
  4 19  1  0  0  0  0
  5  6  1  0  0  0  0
  5 20  1  0  0  0  0
  6  7  1  0  0  0  0
  7  8  1  0  0  0  0
  7 21  1  0  0  0  0
  7 22  1  0  0  0  0
  8  9  2  0  0  0  0
  8 10  1  0  0  0  0
 10 11  1  0  0  0  0
 10 23  1  0  0  0  0
 11 12  2  0  0  0  0
 11 13  1  0  0  0  0
 13 14  1  0  0  0  0
 13 24  1  0  0  0  0
 14 18  1  0  0  0  0
 14 15  1  0  0  0  0
 14 25  1  0  0  0  0
 15 16  1  0  0  0  0
 15 26  1  0  0  0  0
 15 27  1  0  0  0  0
 16 17  1  0  0  0  0
 16 28  1  0  0  0  0
 16 29  1  0  0  0  0
 17 18  1  0  0  0  0
 17 30  1  0  0  0  0
 17 31  1  0  0  0  0
 18 32  1  0  0  0  0
 18 33  1  0  0  0  0
M  END
> <s_m_source_file>
AV-unprocessed.smi

> <i_m_source_file_index>
2949

> <i_lp_mmshare_version>
43012

> <i_f3d_flags>
0

> <s_epik_input>
W0hdL049YzFcc1tjSF1bY0hdbjFbQ0gyXUMoPU8pW05IXUMoPU8pW05IXVtDSF0yW0NIMl1bQ0gyXVtDSDJdW0NIMl0y

> <s_epik_cmdline>
J2VwaWtfcHl0aG9uJywgJy1waCcsICc3LjAnLCAnLXRuJywgJzgnLCAnLW1hJywgJzIwMCcsICctbWV0YWxfYmluZGluZycsICctaW1hZScsICc8aW5maWxlLm1hZT4nLCAnLW9tYWUnLCAnPG91dGZpbGUubWFlPic=

> <r_epik_Ionization_Penalty>
2.0346

> <r_epik_Ionization_Penalty_Charging>
2.03458

> <r_epik_Ionization_Penalty_Neutral>
2.61125e-05

> <r_epik_State_Penalty>
2.18096

> <r_epik_Charging_Adjusted_Penalty>
4.21554

> <i_epik_Tot_Q>
0

> <i_epik_Tot_abs_Q>
0

> <r_epik_Metal_State_Penalty>
2.18096

> <b_epik_Metal_Only>
0

> <s_lp_Force_Field>
OPLS_2005

> <r_lp_Energy>
22.3694

> <b_lp_Chiralities_Consistent>
1

> <s_lp_Variant>
AV-unprocessed.smi:2949-2

> <Gold.Version>
5.8.1

> <Gold.Id.Protein>
6NUR|6NUR_protein|mol2

> <Gold.PLP.Fitness>
51.3974

> <Gold.PLP.PLP>
-39.9059

> <Gold.PLP.part.hbond>
-3.0000

> <Gold.PLP.part.metal>
0.0000

> <Gold.PLP.part.buried>
0.5829

> <Gold.PLP.part.nonpolar>
-37.5760

> <Gold.PLP.part.repulsive>
0.2651

> <Gold.PLP.ligand.clash>
0.0000

> <Gold.PLP.ligand.torsion>
0.6165

> <Gold.PLP.Chemscore.Hbond>
2.6620

> <Gold.PLP.Chemscore.CHOScore>
1.5718

> <Gold.PLP.Chemscore.Metal>
0.0000

> <Gold.Chemscore.Hbonds>
donor molecule, donor type, donor heavy atom, donor atom, acceptor molecule, acceptor atom, score
      L1  H    10    23       P1  8028  1.00
      L1  H    13    24       P1  8028  0.93
      L1  C     4    19       P1 10171  1.00
      L1  C     5    20       P1  7957  1.00

> <Gold.PLP.Chemscore.Internal.Correction>
0.0234

> <Gold.Rescore>
     Score         DG    S(hbond)    S(metal)    S(lipo)     H(rot)  DE(clash)    DE(int)     intcor
     14.04     -17.29       1.83        0.00      85.69       1.69       0.19       3.05       ----

> <Gold.Chemscore.Fitness>
14.0445

> <Gold.Chemscore.DG>
-17.2853

> <Gold.Chemscore.ZeroCoef>
-5.4800

> <Gold.Chemscore.Hbond>
1.8261

> <Gold.Chemscore.Metal>
0.0000

> <Gold.Chemscore.Lipo>
85.6855

> <Gold.Chemscore.Internal_Hbond>
0.0000

> <Gold.Chemscore.DEClash>
0.1890

> <Gold.Chemscore.DEInternal>
3.0518

> <Gold.Chemscore.Rot>
1.6871

> <Gold.Chemscore.Internal.Correction>
   9.000000E+99

> <Gold.Chemscore.Hbonds>
donor molecule, donor type, donor heavy atom, donor atom, acceptor molecule, acceptor atom, score
      L1  H    10    23       P1  8028  0.95
      L1  H    13    24       P1  8028  0.82

> <Gold.Chemscore.Hbond.Weighted>
-6.0992

> <Gold.Chemscore.Metal.Weighted>
-0.0000

> <Gold.Chemscore.Lipo.Weighted>
-10.0252

> <Gold.Chemscore.Internal_Hbond.Weighted>
0.0000

> <Gold.Chemscore.DEClash.Weighted>
0.1890

> <Gold.Chemscore.DEInternal.Weighted>
3.0518

> <Gold.Chemscore.Rot.Weighted>
4.3191

> <Gold.Chemscore.Internal.Correction.Weighted>
   9.000000E+99

> <Gold.Protein.RotatedTorsions>
[ 6907 6896 6895 6894 ] final   17.20 input  -60.11 | X-H torsion
[ 7974 7965 7964 7962 ] final -115.69 input  175.53 | X-H torsion
[ 8008 7997 7996 7995 ] final  178.10 input   59.86 | X-H torsion
[ 10167 10162 10161 10158 ] final  -52.24 input  -65.29 | X-H torsion
[ 10718 10713 10712 10709 ] final   35.56 input   66.30 | X-H torsion
[ 10763 10752 10751 10750 ] final   37.99 input  -60.55 | X-H torsion
[ 11005 11000 10999 10996 ] final -106.05 input  -57.11 | X-H torsion

> <Gold.Protein.ActiveResidues>
 VAL166  LYS551  ARG553  GLY616  TRP617  ASP618  TYR619  PRO620  LYS621  CYS622 
 ASP623  PHE694  ASN695  SER759  ASP760  ASP761  ALA762  ILE779  LEU786  VAL792 
 PHE793  MET794  SER795  GLU796  ALA797  LYS798  CYS799  TRP800  GLU811  SER814 

> <Gold.Protein.RotatedAtoms>
  151.8459  135.0574  160.0453 H   0  0  0  0  0  0  0  0  0  0  0  0  # atno 6907 bound_to 6896
  152.2774  133.5434  159.5485 H   0  0  0  0  0  0  0  0  0  0  0  0  # atno 6908 bound_to 6896
  150.7175  134.0529  159.3847 H   0  0  0  0  0  0  0  0  0  0  0  0  # atno 6909 bound_to 6896
  145.1054  140.8578  143.3901 H   0  0  0  0  0  0  0  0  0  0  0  0  # atno 7974 bound_to 7965
  156.0584  140.1342  156.9970 H   0  0  0  0  0  0  0  0  0  0  0  0  # atno 8008 bound_to 7997
  154.4469  140.0996  156.6550 H   0  0  0  0  0  0  0  0  0  0  0  0  # atno 8009 bound_to 7997
  155.5416  140.3461  155.4450 H   0  0  0  0  0  0  0  0  0  0  0  0  # atno 8010 bound_to 7997
  140.6548  143.2591  151.4619 H   0  0  0  0  0  0  0  0  0  0  0  0  # atno 10167 bound_to 10162
  157.3242  130.7464  149.6805 H   0  0  0  0  0  0  0  0  0  0  0  0  # atno 10718 bound_to 10713
  153.0017  135.6262  154.2233 H   0  0  0  0  0  0  0  0  0  0  0  0  # atno 10763 bound_to 10752
  154.1976  135.2805  155.3003 H   0  0  0  0  0  0  0  0  0  0  0  0  # atno 10764 bound_to 10752
  154.5710  135.5676  153.7154 H   0  0  0  0  0  0  0  0  0  0  0  0  # atno 10765 bound_to 10752
  141.1024  133.8860  157.1809 H   0  0  0  0  0  0  0  0  0  0  0  0  # atno 11005 bound_to 11000
  145.0907  139.2892  143.5736 LP  0  0  0  0  0  0  0  0  0  0  0  0  # atno 17320 bound_to 7965
  146.3528  140.0443  142.8640 LP  0  0  0  0  0  0  0  0  0  0  0  0  # atno 17321 bound_to 7965
  139.5768  144.1800  152.1914 LP  0  0  0  0  0  0  0  0  0  0  0  0  # atno 17342 bound_to 10162
  140.1113  144.5454  150.6923 LP  0  0  0  0  0  0  0  0  0  0  0  0  # atno 17343 bound_to 10162
  155.9689  130.4214  150.4468 LP  0  0  0  0  0  0  0  0  0  0  0  0  # atno 17370 bound_to 10713
  157.2489  131.0542  151.2391 LP  0  0  0  0  0  0  0  0  0  0  0  0  # atno 17371 bound_to 10713
  139.9880  135.0075  156.9908 LP  0  0  0  0  0  0  0  0  0  0  0  0  # atno 17394 bound_to 11000
  140.4989  134.1117  155.7246 LP  0  0  0  0  0  0  0  0  0  0  0  0  # atno 17395 bound_to 11000

$$$$
