AV-unprocessed.smi:2881|AV-procd|sdf|11057|dock10
  -GOLD-   2272015523D 1   1.00000     0.00000
 Structure written by MMmdl.
 40 42  0  0  0  0  0  0  0  0  1 V2000
  153.3064  141.7925  161.4552 C   0  0  0  0  0  0  0  0  0  0  0  0
  152.5814  141.8875  160.1561 C   0  0  0  0  0  0  0  0  0  0  0  0
  152.0917  142.9631  159.4711 C   0  0  0  0  0  0  0  0  0  0  0  0
  151.5097  142.3999  158.2970 C   0  0  0  0  0  0  0  0  0  0  0  0
  150.8231  143.1200  157.1673 C   0  0  0  0  0  0  0  0  0  0  0  0
  150.4689  142.1348  156.0527 C   0  0  0  0  0  0  0  0  0  0  0  0
  151.3058  141.3239  155.6560 O   0  0  0  0  0  0  0  0  0  0  0  0
  149.2255  142.2174  155.5561 N   0  0  0  0  0  0  0  0  0  0  0  0
  148.6769  141.3480  154.5189 C   0  0  2  0  0  0  0  0  0  0  0  0
  147.3810  141.8940  153.8669 C   0  0  2  0  0  0  0  0  0  0  0  0
  146.3321  142.2822  154.9310 C   0  0  0  0  0  0  0  0  0  0  0  0
  145.8992  140.9146  155.4910 C   0  0  0  0  0  0  0  0  0  0  0  0
  146.7360  139.9240  154.6577 C   0  0  1  0  0  0  0  0  0  0  0  0
  146.7662  140.6200  153.3016 C   0  0  0  0  0  0  0  0  0  0  0  0
  148.2135  139.9905  155.1104 C   0  0  1  0  0  0  0  0  0  0  0  0
  149.0468  138.7919  154.6177 C   0  0  0  0  0  0  0  0  0  0  0  0
  149.3805  138.9589  153.2556 O   0  0  0  0  0  0  0  0  0  0  0  0
  151.6227  141.0789  158.2622 N   0  0  0  0  0  0  0  0  0  0  0  0
  152.2785  140.7795  159.3989 N   0  0  0  0  0  0  0  0  0  0  0  0
  152.5099  139.8268  159.6419 H   0  0  0  0  0  0  0  0  0  0  0  0
  153.6232  142.7779  161.7974 H   0  0  0  0  0  0  0  0  0  0  0  0
  154.1950  141.1681  161.3599 H   0  0  0  0  0  0  0  0  0  0  0  0
  152.6670  141.3585  162.2239 H   0  0  0  0  0  0  0  0  0  0  0  0
  152.1447  144.0023  159.7609 H   0  0  0  0  0  0  0  0  0  0  0  0
  149.9153  143.6182  157.5112 H   0  0  0  0  0  0  0  0  0  0  0  0
  151.4722  143.9003  156.7680 H   0  0  0  0  0  0  0  0  0  0  0  0
  148.6038  142.9108  155.9468 H   0  0  0  0  0  0  0  0  0  0  0  0
  149.4323  141.1866  153.7472 H   0  0  0  0  0  0  0  0  0  0  0  0
  147.5616  142.6771  153.1297 H   0  0  0  0  0  0  0  0  0  0  0  0
  146.7189  142.9493  155.7013 H   0  0  0  0  0  0  0  0  0  0  0  0
  145.4842  142.7846  154.4637 H   0  0  0  0  0  0  0  0  0  0  0  0
  146.0886  140.8234  156.5611 H   0  0  0  0  0  0  0  0  0  0  0  0
  144.8325  140.7560  155.3276 H   0  0  0  0  0  0  0  0  0  0  0  0
  146.3218  138.9153  154.6482 H   0  0  0  0  0  0  0  0  0  0  0  0
  145.7751  140.7710  152.8700 H   0  0  0  0  0  0  0  0  0  0  0  0
  147.4002  140.1225  152.5664 H   0  0  0  0  0  0  0  0  0  0  0  0
  148.2495  139.9990  156.2017 H   0  0  0  0  0  0  0  0  0  0  0  0
  149.9722  138.7137  155.1892 H   0  0  0  0  0  0  0  0  0  0  0  0
  148.5100  137.8516  154.7440 H   0  0  0  0  0  0  0  0  0  0  0  0
  149.2337  138.1402  152.8069 H   0  0  0  0  0  0  0  0  0  0  0  0
  1  2  1  0  0  0  0
  1 21  1  0  0  0  0
  1 22  1  0  0  0  0
  1 23  1  0  0  0  0
  2 19  1  0  0  0  0
  2  3  2  0  0  0  0
  3  4  1  0  0  0  0
  3 24  1  0  0  0  0
  4  5  1  0  0  0  0
  4 18  2  0  0  0  0
  5  6  1  0  0  0  0
  5 25  1  0  0  0  0
  5 26  1  0  0  0  0
  6  7  2  0  0  0  0
  6  8  1  0  0  0  0
  8  9  1  0  0  0  0
  8 27  1  0  0  0  0
  9 15  1  0  0  0  0
  9 10  1  0  0  0  0
  9 28  1  0  0  0  0
 10 14  1  0  0  0  0
 10 11  1  0  0  0  0
 10 29  1  0  0  0  0
 11 12  1  0  0  0  0
 11 30  1  0  0  0  0
 11 31  1  0  0  0  0
 12 13  1  0  0  0  0
 12 32  1  0  0  0  0
 12 33  1  0  0  0  0
 13 14  1  0  0  0  0
 13 15  1  0  0  0  0
 13 34  1  0  0  0  0
 14 35  1  0  0  0  0
 14 36  1  0  0  0  0
 15 16  1  0  0  0  0
 15 37  1  0  0  0  0
 16 17  1  0  0  0  0
 16 38  1  0  0  0  0
 16 39  1  0  0  0  0
 17 40  1  0  0  0  0
 18 19  1  0  0  0  0
 19 20  1  0  0  0  0
M  END
> <s_m_source_file>
AV-unprocessed.smi

> <i_m_source_file_index>
2881

> <i_lp_mmshare_version>
43012

> <i_f3d_flags>
0

> <s_epik_input>
W0NIM11jMVtjSF1jKG5bbkhdMSlbQ0gyXUMoPU8pW05IXVtDQEhdKFtDQEBIXTIzKVtDQEhdKFtDSDJdW09IXSlbQ0BASF0oW0NIMl0zKVtDSDJdW0NIMl0y

> <s_epik_cmdline>
J2VwaWtfcHl0aG9uJywgJy1waCcsICc3LjAnLCAnLXRuJywgJzgnLCAnLW1hJywgJzIwMCcsICctbWV0YWxfYmluZGluZycsICctaW1hZScsICc8aW5maWxlLm1hZT4nLCAnLW9tYWUnLCAnPG91dGZpbGUubWFlPic=

> <r_lp_tautomer_probability>
0.5

> <r_epik_Ionization_Penalty>
9.4349e-05

> <r_epik_Ionization_Penalty_Charging>
0

> <r_epik_Ionization_Penalty_Neutral>
9.4349e-05

> <r_epik_State_Penalty>
0.41068

> <r_epik_Charging_Adjusted_Penalty>
0.41068

> <i_epik_Tot_Q>
0

> <i_epik_Tot_abs_Q>
0

> <r_epik_Metal_State_Penalty>
0.4107

> <b_epik_Metal_Only>
0

> <s_lp_Force_Field>
OPLS_2005

> <r_lp_Energy>
47.2373

> <b_lp_Chiralities_Consistent>
1

> <s_lp_Variant>
AV-unprocessed.smi:2881-3

> <Gold.Version>
5.8.1

> <Gold.Id.Protein>
6NUR|6NUR_protein|mol2

> <Gold.PLP.Fitness>
42.8809

> <Gold.PLP.PLP>
-36.6226

> <Gold.PLP.part.hbond>
-4.0000

> <Gold.PLP.part.metal>
0.0000

> <Gold.PLP.part.buried>
-3.9490

> <Gold.PLP.part.nonpolar>
-26.4984

> <Gold.PLP.part.repulsive>
0.3299

> <Gold.PLP.ligand.clash>
0.0000

> <Gold.PLP.ligand.torsion>
0.6143

> <Gold.PLP.Chemscore.Hbond>
2.4877

> <Gold.PLP.Chemscore.CHOScore>
0.0000

> <Gold.PLP.Chemscore.Metal>
0.0000

> <Gold.Chemscore.Hbonds>
donor molecule, donor type, donor heavy atom, donor atom, acceptor molecule, acceptor atom, score
      L1  H     8    27       P1  8028  0.43
      L1  H    17    40       P1  7948  0.80
      P1  H  7989  7998       L1     7  0.27

> <Gold.PLP.Chemscore.Internal.Correction>
0.0238

> <Gold.Rescore>
     Score         DG    S(hbond)    S(metal)    S(lipo)     H(rot)  DE(clash)    DE(int)     intcor
     15.56     -17.69       2.22        0.00      90.88       2.28       0.11       2.03       ----

> <Gold.Chemscore.Fitness>
15.5575

> <Gold.Chemscore.DG>
-17.6898

> <Gold.Chemscore.ZeroCoef>
-5.4800

> <Gold.Chemscore.Hbond>
2.2163

> <Gold.Chemscore.Metal>
0.0000

> <Gold.Chemscore.Lipo>
90.8760

> <Gold.Chemscore.Internal_Hbond>
0.0000

> <Gold.Chemscore.DEClash>
0.1054

> <Gold.Chemscore.DEInternal>
2.0269

> <Gold.Chemscore.Rot>
2.2755

> <Gold.Chemscore.Internal.Correction>
   9.000000E+99

> <Gold.Chemscore.Hbonds>
donor molecule, donor type, donor heavy atom, donor atom, acceptor molecule, acceptor atom, score
      L1  H     8    27       P1  8028  0.44
      L1  H    17    40       P1  7948  0.75
      P1  H  7989  7998       L1     7  0.27

> <Gold.Chemscore.Hbond.Weighted>
-7.4026

> <Gold.Chemscore.Metal.Weighted>
-0.0000

> <Gold.Chemscore.Lipo.Weighted>
-10.6325

> <Gold.Chemscore.Internal_Hbond.Weighted>
0.0000

> <Gold.Chemscore.DEClash.Weighted>
0.1054

> <Gold.Chemscore.DEInternal.Weighted>
2.0269

> <Gold.Chemscore.Rot.Weighted>
5.8252

> <Gold.Chemscore.Internal.Correction.Weighted>
   9.000000E+99

> <Gold.Protein.RotatedTorsions>
[ 6907 6896 6895 6894 ] final  -90.60 input  -60.11 | X-H torsion
[ 7974 7965 7964 7962 ] final -170.41 input  175.53 | X-H torsion
[ 8008 7997 7996 7995 ] final  -14.61 input   59.86 | X-H torsion
[ 10167 10162 10161 10158 ] final  -54.73 input  -65.29 | X-H torsion
[ 10718 10713 10712 10709 ] final   45.87 input   66.30 | X-H torsion
[ 10763 10752 10751 10750 ] final   44.53 input  -60.55 | X-H torsion
[ 11005 11000 10999 10996 ] final  127.98 input  -57.11 | X-H torsion

> <Gold.Protein.ActiveResidues>
 VAL166  LYS551  ARG553  GLY616  TRP617  ASP618  TYR619  PRO620  LYS621  CYS622 
 ASP623  PHE694  ASN695  SER759  ASP760  ASP761  ALA762  ILE779  LEU786  VAL792 
 PHE793  MET794  SER795  GLU796  ALA797  LYS798  CYS799  TRP800  GLU811  SER814 

> <Gold.Protein.RotatedAtoms>
  150.6883  134.2406  159.4470 H   0  0  0  0  0  0  0  0  0  0  0  0  # atno 6907 bound_to 6896
  152.0351  134.9742  160.0582 H   0  0  0  0  0  0  0  0  0  0  0  0  # atno 6908 bound_to 6896
  152.1266  133.4349  159.4738 H   0  0  0  0  0  0  0  0  0  0  0  0  # atno 6909 bound_to 6896
  144.7170  140.2076  143.6331 H   0  0  0  0  0  0  0  0  0  0  0  0  # atno 7974 bound_to 7965
  154.5197  140.2218  155.9000 H   0  0  0  0  0  0  0  0  0  0  0  0  # atno 8008 bound_to 7997
  156.1647  140.3134  155.8834 H   0  0  0  0  0  0  0  0  0  0  0  0  # atno 8009 bound_to 7997
  155.3680  140.0465  157.3036 H   0  0  0  0  0  0  0  0  0  0  0  0  # atno 8010 bound_to 7997
  140.6414  143.2510  151.4978 H   0  0  0  0  0  0  0  0  0  0  0  0  # atno 10167 bound_to 10162
  157.4421  130.8088  149.7705 H   0  0  0  0  0  0  0  0  0  0  0  0  # atno 10718 bound_to 10713
  152.9839  135.6068  154.3289 H   0  0  0  0  0  0  0  0  0  0  0  0  # atno 10763 bound_to 10752
  154.2994  135.2773  155.2620 H   0  0  0  0  0  0  0  0  0  0  0  0  # atno 10764 bound_to 10752
  154.4879  135.5900  153.6494 H   0  0  0  0  0  0  0  0  0  0  0  0  # atno 10765 bound_to 10752
  139.9536  134.9617  156.8935 H   0  0  0  0  0  0  0  0  0  0  0  0  # atno 11005 bound_to 11000
  145.8621  139.2228  143.1710 LP  0  0  0  0  0  0  0  0  0  0  0  0  # atno 17320 bound_to 7965
  146.0164  140.8389  142.9945 LP  0  0  0  0  0  0  0  0  0  0  0  0  # atno 17321 bound_to 7965
  139.5624  144.2125  152.1712 LP  0  0  0  0  0  0  0  0  0  0  0  0  # atno 17342 bound_to 10162
  140.1396  144.5214  150.6752 LP  0  0  0  0  0  0  0  0  0  0  0  0  # atno 17343 bound_to 10162
  155.9953  130.3913  150.2825 LP  0  0  0  0  0  0  0  0  0  0  0  0  # atno 17370 bound_to 10713
  157.0990  131.0190  151.3093 LP  0  0  0  0  0  0  0  0  0  0  0  0  # atno 17371 bound_to 10713
  140.5660  134.0488  155.7414 LP  0  0  0  0  0  0  0  0  0  0  0  0  # atno 17394 bound_to 11000
  141.1204  133.9471  157.2741 LP  0  0  0  0  0  0  0  0  0  0  0  0  # atno 17395 bound_to 11000

$$$$
