AV-unprocessed.smi:13|AV-procd|sdf|70|dock2
  -GOLD-   2262015193D 1   1.00000     0.00000
 Structure written by MMmdl.
 54 58  0  0  0  0  0  0  0  0  1 V2000
  144.6111  138.8344  158.6673 C   0  0  0  0  0  0  0  0  0  0  0  0
  143.5397  138.6375  157.5866 C   0  0  0  0  0  0  0  0  0  0  0  0
  142.4362  139.6557  157.8716 C   0  0  0  0  0  0  0  0  0  0  0  0
  144.0569  138.5990  156.1403 C   0  0  0  0  0  0  0  0  0  0  0  0
  144.0468  137.1491  156.2490 N   0  0  0  0  0  0  0  0  0  0  0  0
  143.6361  136.4523  155.0815 C   0  0  0  0  0  0  0  0  0  0  0  0
  142.4433  135.8096  155.1513 N   0  0  0  0  0  0  0  0  0  0  0  0
  141.9572  135.1382  154.1040 C   0  0  0  0  0  0  0  0  0  0  0  0
  142.4941  134.9799  152.8945 N   0  0  0  0  0  0  0  0  0  0  0  0
  143.6934  135.6204  152.8047 C   0  0  0  0  0  0  0  0  0  0  0  0
  144.3307  136.3680  153.8365 C   0  0  0  0  0  0  0  0  0  0  0  0
  145.5396  136.8712  153.3676 N   0  0  0  0  0  0  0  0  0  0  0  0
  145.6124  136.4455  152.1367 C   0  0  0  0  0  0  0  0  0  0  0  0
  144.5413  135.6930  151.7134 N   0  0  0  0  0  0  0  0  0  0  0  0
  144.3582  135.1025  150.3966 C   0  0  0  0  0  0  0  0  0  0  0  0
  144.2133  133.5634  150.4324 C   0  0  2  0  0  0  0  0  0  0  0  0
  143.0186  133.2311  151.1190 O   0  0  0  0  0  0  0  0  0  0  0  0
  145.3763  132.8403  151.1066 C   0  0  0  0  0  0  0  0  0  0  0  0
  145.4344  131.5184  150.3543 C   0  0  0  0  0  0  0  0  0  0  0  0
  145.1731  131.9128  149.0184 O   0  0  0  0  0  0  0  0  0  0  0  0
  144.1653  132.9190  149.0323 C   0  0  0  0  0  0  0  0  0  0  0  0
  143.0577  137.1961  157.3185 C   0  0  1  0  0  0  0  0  0  0  0  0
  143.2691  136.0723  158.3337 C   0  0  2  0  0  0  0  0  0  0  0  0
  144.7332  135.8169  158.6868 C   0  0  0  0  0  0  0  0  0  0  0  0
  144.7253  134.3771  159.1682 C   0  0  0  0  0  0  0  0  0  0  0  0
  143.4527  133.7897  158.5508 C   0  0  0  0  0  0  0  0  0  0  0  0
  142.8933  134.8307  157.7597 O   0  0  0  0  0  0  0  0  0  0  0  0
  145.0060  139.8508  158.6580 H   0  0  0  0  0  0  0  0  0  0  0  0
  145.4583  138.1636  158.5223 H   0  0  0  0  0  0  0  0  0  0  0  0
  144.2141  138.6443  159.6649 H   0  0  0  0  0  0  0  0  0  0  0  0
  141.6338  139.5900  157.1360 H   0  0  0  0  0  0  0  0  0  0  0  0
  142.8152  140.6777  157.8441 H   0  0  0  0  0  0  0  0  0  0  0  0
  141.9880  139.4940  158.8526 H   0  0  0  0  0  0  0  0  0  0  0  0
  143.3505  139.0040  155.4154 H   0  0  0  0  0  0  0  0  0  0  0  0
  145.0551  139.0176  156.0090 H   0  0  0  0  0  0  0  0  0  0  0  0
  140.9998  134.6625  154.2571 H   0  0  0  0  0  0  0  0  0  0  0  0
  146.4519  136.6758  151.4967 H   0  0  0  0  0  0  0  0  0  0  0  0
  143.4807  135.5571  149.9345 H   0  0  0  0  0  0  0  0  0  0  0  0
  145.2095  135.3836  149.7755 H   0  0  0  0  0  0  0  0  0  0  0  0
  142.3122  133.7412  150.7531 H   0  0  0  0  0  0  0  0  0  0  0  0
  146.3078  133.3802  150.9329 H   0  0  0  0  0  0  0  0  0  0  0  0
  145.2579  132.7200  152.1844 H   0  0  0  0  0  0  0  0  0  0  0  0
  146.3998  131.0205  150.4467 H   0  0  0  0  0  0  0  0  0  0  0  0
  144.6558  130.8351  150.6973 H   0  0  0  0  0  0  0  0  0  0  0  0
  143.1950  132.4671  148.8202 H   0  0  0  0  0  0  0  0  0  0  0  0
  144.3696  133.6369  148.2375 H   0  0  0  0  0  0  0  0  0  0  0  0
  142.0391  137.2134  156.9293 H   0  0  0  0  0  0  0  0  0  0  0  0
  142.6850  136.2313  159.2423 H   0  0  0  0  0  0  0  0  0  0  0  0
  145.3570  135.9042  157.7959 H   0  0  0  0  0  0  0  0  0  0  0  0
  145.1157  136.5115  159.4350 H   0  0  0  0  0  0  0  0  0  0  0  0
  145.6230  133.8440  158.8532 H   0  0  0  0  0  0  0  0  0  0  0  0
  144.6716  134.3324  160.2565 H   0  0  0  0  0  0  0  0  0  0  0  0
  143.6558  132.9116  157.9375 H   0  0  0  0  0  0  0  0  0  0  0  0
  142.7439  133.5041  159.3294 H   0  0  0  0  0  0  0  0  0  0  0  0
  1  2  1  0  0  0  0
  1 28  1  0  0  0  0
  1 29  1  0  0  0  0
  1 30  1  0  0  0  0
  2 22  1  0  0  0  0
  2  3  1  0  0  0  0
  2  4  1  0  0  0  0
  3 31  1  0  0  0  0
  3 32  1  0  0  0  0
  3 33  1  0  0  0  0
  4  5  1  0  0  0  0
  4 34  1  0  0  0  0
  4 35  1  0  0  0  0
  5  6  1  0  0  0  0
  5 22  1  0  0  0  0
  6 11  1  0  0  0  0
  6  7  2  0  0  0  0
  7  8  1  0  0  0  0
  8  9  2  0  0  0  0
  8 36  1  0  0  0  0
  9 10  1  0  0  0  0
 10 14  1  0  0  0  0
 10 11  2  0  0  0  0
 11 12  1  0  0  0  0
 12 13  2  0  0  0  0
 13 14  1  0  0  0  0
 13 37  1  0  0  0  0
 14 15  1  0  0  0  0
 15 16  1  0  0  0  0
 15 38  1  0  0  0  0
 15 39  1  0  0  0  0
 16 21  1  0  0  0  0
 16 17  1  0  0  0  0
 16 18  1  0  0  0  0
 17 40  1  0  0  0  0
 18 19  1  0  0  0  0
 18 41  1  0  0  0  0
 18 42  1  0  0  0  0
 19 20  1  0  0  0  0
 19 43  1  0  0  0  0
 19 44  1  0  0  0  0
 20 21  1  0  0  0  0
 21 45  1  0  0  0  0
 21 46  1  0  0  0  0
 22 23  1  0  0  0  0
 22 47  1  0  0  0  0
 23 27  1  0  0  0  0
 23 24  1  0  0  0  0
 23 48  1  0  0  0  0
 24 25  1  0  0  0  0
 24 49  1  0  0  0  0
 24 50  1  0  0  0  0
 25 26  1  0  0  0  0
 25 51  1  0  0  0  0
 25 52  1  0  0  0  0
 26 27  1  0  0  0  0
 26 53  1  0  0  0  0
 26 54  1  0  0  0  0
M  END
> <s_m_source_file>
AV-unprocessed.smi

> <i_m_source_file_index>
13

> <i_lp_mmshare_version>
43012

> <i_f3d_flags>
0

> <s_epik_input>
TzFbQ0gyXVtDSDJdW0NIMl1bQ0BIXTFbQ0BASF0yTihbQ0gyXUMyKFtDSDNdKVtDSDNdKWMobltjSF1uMyljKGMzNCluW2NIXW40W0NIMl1bQ0BAXTUoW09IXSlbQ0gyXVtDSDJdT1tDSDJdNQ==

> <s_epik_cmdline>
J2VwaWtfcHl0aG9uJywgJy1waCcsICc3LjAnLCAnLXRuJywgJzgnLCAnLW1hJywgJzIwMCcsICctbWV0YWxfYmluZGluZycsICctaW1hZScsICc8aW5maWxlLm1hZT4nLCAnLW9tYWUnLCAnPG91dGZpbGUubWFlPic=

> <r_lp_tautomer_probability>
1

> <r_epik_Ionization_Penalty>
0.00202764

> <r_epik_Ionization_Penalty_Charging>
0

> <r_epik_Ionization_Penalty_Neutral>
0.00202764

> <r_epik_State_Penalty>
0.00134017

> <r_epik_Charging_Adjusted_Penalty>
0.00134017

> <i_epik_Tot_Q>
0

> <i_epik_Tot_abs_Q>
0

> <r_epik_Metal_State_Penalty>
-0

> <b_epik_Metal_Only>
0

> <s_lp_Force_Field>
OPLS_2005

> <r_lp_Energy>
60.4811

> <b_lp_Chiralities_Consistent>
1

> <s_lp_Variant>
AV-unprocessed.smi:13-2

> <Gold.Version>
5.8.1

> <Gold.Id.Protein>
6NUR|6NUR_protein|mol2

> <Gold.PLP.Fitness>
37.5377

> <Gold.PLP.PLP>
-26.9847

> <Gold.PLP.part.hbond>
-3.5327

> <Gold.PLP.part.metal>
0.0000

> <Gold.PLP.part.buried>
-5.0046

> <Gold.PLP.part.nonpolar>
-20.3534

> <Gold.PLP.part.repulsive>
0.6013

> <Gold.PLP.ligand.clash>
0.0000

> <Gold.PLP.ligand.torsion>
0.2682

> <Gold.PLP.Chemscore.Hbond>
1.8000

> <Gold.PLP.Chemscore.CHOScore>
1.7414

> <Gold.PLP.Chemscore.Metal>
0.0000

> <Gold.Chemscore.Hbonds>
donor molecule, donor type, donor heavy atom, donor atom, acceptor molecule, acceptor atom, score
      L1  H    17    40       P1 10186  1.00
      P1  H 11000 11005       L1    27  0.80
      L1  C     8    36       P1 11000  0.74
      L1  C    13    37       P1  7948  0.99

> <Gold.PLP.Chemscore.Internal.Correction>
0.4650

> <Gold.Rescore>
     Score         DG    S(hbond)    S(metal)    S(lipo)     H(rot)  DE(clash)    DE(int)     intcor
      8.62     -11.62       1.69        0.00      54.65       2.30       0.45       2.55       ----

> <Gold.Chemscore.Fitness>
8.6241

> <Gold.Chemscore.DG>
-11.6218

> <Gold.Chemscore.ZeroCoef>
-5.4800

> <Gold.Chemscore.Hbond>
1.6870

> <Gold.Chemscore.Metal>
0.0000

> <Gold.Chemscore.Lipo>
54.6507

> <Gold.Chemscore.Internal_Hbond>
0.0000

> <Gold.Chemscore.DEClash>
0.4520

> <Gold.Chemscore.DEInternal>
2.5457

> <Gold.Chemscore.Rot>
2.2996

> <Gold.Chemscore.Internal.Correction>
   9.000000E+99

> <Gold.Chemscore.Hbonds>
donor molecule, donor type, donor heavy atom, donor atom, acceptor molecule, acceptor atom, score
      L1  H    17    40       P1 10186  0.78
      P1  H 11000 11005       L1    27  0.22

> <Gold.Chemscore.Hbond.Weighted>
-5.6347

> <Gold.Chemscore.Metal.Weighted>
-0.0000

> <Gold.Chemscore.Lipo.Weighted>
-6.3941

> <Gold.Chemscore.Internal_Hbond.Weighted>
0.0000

> <Gold.Chemscore.DEClash.Weighted>
0.4520

> <Gold.Chemscore.DEInternal.Weighted>
2.5457

> <Gold.Chemscore.Rot.Weighted>
5.8869

> <Gold.Chemscore.Internal.Correction.Weighted>
   9.000000E+99

> <Gold.Protein.RotatedTorsions>
[ 6907 6896 6895 6894 ] final -115.94 input  -60.11 | X-H torsion
[ 7974 7965 7964 7962 ] final  170.11 input  175.53 | X-H torsion
[ 8008 7997 7996 7995 ] final   50.37 input   59.86 | X-H torsion
[ 10167 10162 10161 10158 ] final -115.23 input  -65.29 | X-H torsion
[ 10718 10713 10712 10709 ] final  165.28 input   66.30 | X-H torsion
[ 10763 10752 10751 10750 ] final -138.32 input  -60.55 | X-H torsion
[ 11005 11000 10999 10996 ] final -123.69 input  -57.11 | X-H torsion

> <Gold.Protein.ActiveResidues>
 VAL166  LYS551  ARG553  GLY616  TRP617  ASP618  TYR619  PRO620  LYS621  CYS622 
 ASP623  PHE694  ASN695  SER759  ASP760  ASP761  ALA762  ILE779  LEU786  VAL792 
 PHE793  MET794  SER795  GLU796  ALA797  LYS798  CYS799  TRP800  GLU811  SER814 

> <Gold.Protein.RotatedAtoms>
  150.8017  133.8586  159.3225 H   0  0  0  0  0  0  0  0  0  0  0  0  # atno 6907 bound_to 6896
  151.6397  135.1012  160.0148 H   0  0  0  0  0  0  0  0  0  0  0  0  # atno 6908 bound_to 6896
  152.4105  133.6916  159.6428 H   0  0  0  0  0  0  0  0  0  0  0  0  # atno 6909 bound_to 6896
  144.7334  139.9153  143.6417 H   0  0  0  0  0  0  0  0  0  0  0  0  # atno 7974 bound_to 7965
  155.4177  140.3445  155.4269 H   0  0  0  0  0  0  0  0  0  0  0  0  # atno 8008 bound_to 7997
  156.1411  140.1542  156.8950 H   0  0  0  0  0  0  0  0  0  0  0  0  # atno 8009 bound_to 7997
  154.4972  140.0824  156.7702 H   0  0  0  0  0  0  0  0  0  0  0  0  # atno 8010 bound_to 7997
  140.0924  143.4688  152.1862 H   0  0  0  0  0  0  0  0  0  0  0  0  # atno 10167 bound_to 10162
  157.0824  131.0395  151.2570 H   0  0  0  0  0  0  0  0  0  0  0  0  # atno 10718 bound_to 10713
  154.8640  135.3615  154.5366 H   0  0  0  0  0  0  0  0  0  0  0  0  # atno 10763 bound_to 10752
  153.5989  135.7013  153.5397 H   0  0  0  0  0  0  0  0  0  0  0  0  # atno 10764 bound_to 10752
  153.3308  135.4125  155.1455 H   0  0  0  0  0  0  0  0  0  0  0  0  # atno 10765 bound_to 10752
  140.9899  134.0554  157.3667 H   0  0  0  0  0  0  0  0  0  0  0  0  # atno 11005 bound_to 11000
  146.0970  139.3963  143.0370 LP  0  0  0  0  0  0  0  0  0  0  0  0  # atno 17320 bound_to 7965
  145.7631  140.9927  143.1189 LP  0  0  0  0  0  0  0  0  0  0  0  0  # atno 17321 bound_to 7965
  139.5717  144.7466  151.3872 LP  0  0  0  0  0  0  0  0  0  0  0  0  # atno 17342 bound_to 10162
  140.7021  143.7604  150.7421 LP  0  0  0  0  0  0  0  0  0  0  0  0  # atno 17343 bound_to 10162
  157.4789  130.7753  149.7395 LP  0  0  0  0  0  0  0  0  0  0  0  0  # atno 17370 bound_to 10713
  155.9920  130.3934  150.2961 LP  0  0  0  0  0  0  0  0  0  0  0  0  # atno 17371 bound_to 10713
  139.8987  135.0156  156.7163 LP  0  0  0  0  0  0  0  0  0  0  0  0  # atno 17394 bound_to 11000
  140.7056  133.9268  155.8052 LP  0  0  0  0  0  0  0  0  0  0  0  0  # atno 17395 bound_to 11000

$$$$
