AV-unprocessed.smi:1072|AV-procd|sdf|4688|dock5
  -GOLD-   22720 3203D 1   1.00000     0.00000
 Structure written by MMmdl.
 45 46  0  0  0  0  0  0  0  0  2 V2000
  147.0805  136.9181  154.6971 C   0  0  0  0  0  0  0  0  0  0  0  0
  147.7601  138.2603  154.8642 C   0  0  0  0  0  0  0  0  0  0  0  0
  147.0587  139.2797  155.1854 N   0  0  0  0  0  0  0  0  0  0  0  0
  147.6845  140.5281  155.3418 C   0  0  0  0  0  0  0  0  0  0  0  0
  146.7744  141.6833  155.7217 C   0  0  0  0  0  0  0  0  0  0  0  0
  149.0284  140.6720  155.1590 C   0  0  0  0  0  0  0  0  0  0  0  0
  149.7527  142.0093  155.3138 C   0  0  0  0  0  0  0  0  0  0  0  0
  150.8356  142.0634  156.3943 C   0  0  0  0  0  0  0  0  0  0  0  0
  151.6625  141.1564  156.4871 O   0  0  0  0  0  0  0  0  0  0  0  0
  150.8007  143.1386  157.2026 N   0  0  0  0  0  0  0  0  0  0  0  0
  151.6646  143.4793  158.3419 C   0  0  1  0  0  0  0  0  0  0  0  0
  152.7730  144.3813  157.7576 C   0  0  0  0  0  0  0  0  0  0  0  0
  150.8563  144.2542  159.4194 C   0  0  0  0  0  0  0  0  0  0  0  0
  151.6528  144.5018  160.7130 C   0  0  0  0  0  0  0  0  0  0  0  0
  152.2105  143.1917  161.2977 C   0  0  2  0  0  0  0  0  0  0  0  0
  152.9935  143.4450  162.5937 C   0  0  0  0  0  0  0  0  0  0  0  0
  153.0719  142.4609  160.2522 C   0  0  0  0  0  0  0  0  0  0  0  0
  152.2873  142.1945  158.9550 C   0  0  0  0  0  0  0  0  0  0  0  0
  149.8017  139.4715  154.7932 C   0  0  0  0  0  0  0  0  0  0  0  0
  151.0189  139.5425  154.6278 O   0  0  0  0  0  0  0  0  0  0  0  0
  149.1200  138.2989  154.6516 N   0  5  0  0  0  0  0  0  0  0  0  0
  146.0747  136.9324  155.1191 H   0  0  0  0  0  0  0  0  0  0  0  0
  147.6488  136.1360  155.2020 H   0  0  0  0  0  0  0  0  0  0  0  0
  147.0060  136.6644  153.6394 H   0  0  0  0  0  0  0  0  0  0  0  0
  146.7711  142.4408  154.9380 H   0  0  0  0  0  0  0  0  0  0  0  0
  147.1064  142.1452  156.6515 H   0  0  0  0  0  0  0  0  0  0  0  0
  145.7474  141.3458  155.8655 H   0  0  0  0  0  0  0  0  0  0  0  0
  150.1992  142.3216  154.3695 H   0  0  0  0  0  0  0  0  0  0  0  0
  149.0050  142.7733  155.5298 H   0  0  0  0  0  0  0  0  0  0  0  0
  150.0693  143.8072  157.0096 H   0  0  0  0  0  0  0  0  0  0  0  0
  153.4896  144.7055  158.5108 H   0  0  0  0  0  0  0  0  0  0  0  0
  152.3531  145.2815  157.3068 H   0  0  0  0  0  0  0  0  0  0  0  0
  153.3364  143.8618  156.9815 H   0  0  0  0  0  0  0  0  0  0  0  0
  150.5062  145.2051  159.0156 H   0  0  0  0  0  0  0  0  0  0  0  0
  149.9579  143.7021  159.6939 H   0  0  0  0  0  0  0  0  0  0  0  0
  152.4663  145.2025  160.5243 H   0  0  0  0  0  0  0  0  0  0  0  0
  151.0050  144.9848  161.4452 H   0  0  0  0  0  0  0  0  0  0  0  0
  151.3653  142.5476  161.5450 H   0  0  0  0  0  0  0  0  0  0  0  0
  153.8570  144.0869  162.4167 H   0  0  0  0  0  0  0  0  0  0  0  0
  153.3553  142.5104  163.0229 H   0  0  0  0  0  0  0  0  0  0  0  0
  152.3660  143.9292  163.3424 H   0  0  0  0  0  0  0  0  0  0  0  0
  153.9694  143.0410  160.0362 H   0  0  0  0  0  0  0  0  0  0  0  0
  153.4203  141.5117  160.6611 H   0  0  0  0  0  0  0  0  0  0  0  0
  151.5098  141.4691  159.1922 H   0  0  0  0  0  0  0  0  0  0  0  0
  152.9353  141.7054  158.2267 H   0  0  0  0  0  0  0  0  0  0  0  0
  1  2  1  0  0  0  0
  1 22  1  0  0  0  0
  1 23  1  0  0  0  0
  1 24  1  0  0  0  0
  2 21  1  0  0  0  0
  2  3  2  0  0  0  0
  3  4  1  0  0  0  0
  4  5  1  0  0  0  0
  4  6  2  0  0  0  0
  5 25  1  0  0  0  0
  5 26  1  0  0  0  0
  5 27  1  0  0  0  0
  6  7  1  0  0  0  0
  6 19  1  0  0  0  0
  7  8  1  0  0  0  0
  7 28  1  0  0  0  0
  7 29  1  0  0  0  0
  8  9  2  0  0  0  0
  8 10  1  0  0  0  0
 10 11  1  0  0  0  0
 10 30  1  0  0  0  0
 11 18  1  0  0  0  0
 11 12  1  0  0  0  0
 11 13  1  0  0  0  0
 12 31  1  0  0  0  0
 12 32  1  0  0  0  0
 12 33  1  0  0  0  0
 13 14  1  0  0  0  0
 13 34  1  0  0  0  0
 13 35  1  0  0  0  0
 14 15  1  0  0  0  0
 14 36  1  0  0  0  0
 14 37  1  0  0  0  0
 15 16  1  0  0  0  0
 15 17  1  0  0  0  0
 15 38  1  0  0  0  0
 16 39  1  0  0  0  0
 16 40  1  0  0  0  0
 16 41  1  0  0  0  0
 17 18  1  0  0  0  0
 17 42  1  0  0  0  0
 17 43  1  0  0  0  0
 18 44  1  0  0  0  0
 18 45  1  0  0  0  0
 19 20  2  0  0  0  0
 19 21  1  0  0  0  0
M  CHG  1  21  -1
M  END
> <s_m_source_file>
AV-unprocessed.smi

> <i_m_source_file_index>
1072

> <i_lp_mmshare_version>
43012

> <i_f3d_flags>
0

> <s_epik_input>
W0NIM11jMW5jKFtDSDNdKWMoYyg9TylbbkhdMSlbQ0gyXUMoPU8pW05IXVtDQEBdMihbQ0gzXSlbQ0gyXVtDSDJdW0NAQEhdKFtDSDNdKVtDSDJdW0NIMl0y

> <s_epik_cmdline>
J2VwaWtfcHl0aG9uJywgJy1waCcsICc3LjAnLCAnLXRuJywgJzgnLCAnLW1hJywgJzIwMCcsICctbWV0YWxfYmluZGluZycsICctaW1hZScsICc8aW5maWxlLm1hZT4nLCAnLW9tYWUnLCAnPG91dGZpbGUubWFlPic=

> <r_lp_tautomer_probability>
0.839158

> <r_epik_Ionization_Penalty>
6.73882

> <r_epik_Ionization_Penalty_Charging>
8.02239e-08

> <r_epik_Ionization_Penalty_Neutral>
6.73882

> <r_epik_State_Penalty>
4.55873

> <r_epik_Charging_Adjusted_Penalty>
4.55873

> <i_epik_Tot_Q>
-1

> <i_epik_Tot_abs_Q>
1

> <r_epik_Metal_State_Penalty>
0.872514

> <b_epik_Metal_Only>
1

> <s_lp_Force_Field>
OPLS_2005

> <r_lp_Energy>
18.4266

> <b_lp_Chiralities_Consistent>
1

> <s_lp_Variant>
AV-unprocessed.smi:1072-6

> <Gold.Version>
5.8.1

> <Gold.Id.Protein>
6NUR|6NUR_protein|mol2

> <Gold.PLP.Fitness>
43.5555

> <Gold.PLP.PLP>
-38.9721

> <Gold.PLP.part.hbond>
-2.0000

> <Gold.PLP.part.metal>
0.0000

> <Gold.PLP.part.buried>
-3.0521

> <Gold.PLP.part.nonpolar>
-34.4513

> <Gold.PLP.part.repulsive>
0.3392

> <Gold.PLP.ligand.clash>
0.0281

> <Gold.PLP.ligand.torsion>
0.6971

> <Gold.PLP.Chemscore.Hbond>
2.0000

> <Gold.PLP.Chemscore.CHOScore>
0.0000

> <Gold.PLP.Chemscore.Metal>
0.0000

> <Gold.Chemscore.Hbonds>
donor molecule, donor type, donor heavy atom, donor atom, acceptor molecule, acceptor atom, score
      L1  H    10    30       P1  8028  0.99
      P1  H  7989  7998       L1    20  1.00

> <Gold.PLP.Chemscore.Internal.Correction>
0.0056

> <Gold.Rescore>
     Score         DG    S(hbond)    S(metal)    S(lipo)     H(rot)  DE(clash)    DE(int)     intcor
     17.52     -21.40       1.95        0.00     111.78       1.43       0.40       3.47       ----

> <Gold.Chemscore.Fitness>
17.5231

> <Gold.Chemscore.DG>
-21.3995

> <Gold.Chemscore.ZeroCoef>
-5.4800

> <Gold.Chemscore.Hbond>
1.9497

> <Gold.Chemscore.Metal>
0.0000

> <Gold.Chemscore.Lipo>
111.7795

> <Gold.Chemscore.Internal_Hbond>
0.0000

> <Gold.Chemscore.DEClash>
0.4015

> <Gold.Chemscore.DEInternal>
3.4749

> <Gold.Chemscore.Rot>
1.4339

> <Gold.Chemscore.Internal.Correction>
   9.000000E+99

> <Gold.Chemscore.Hbonds>
donor molecule, donor type, donor heavy atom, donor atom, acceptor molecule, acceptor atom, score
      L1  H    10    30       P1  8028  0.89
      P1  H  7989  7998       L1    20  0.94

> <Gold.Chemscore.Hbond.Weighted>
-6.5121

> <Gold.Chemscore.Metal.Weighted>
-0.0000

> <Gold.Chemscore.Lipo.Weighted>
-13.0782

> <Gold.Chemscore.Internal_Hbond.Weighted>
0.0000

> <Gold.Chemscore.DEClash.Weighted>
0.4015

> <Gold.Chemscore.DEInternal.Weighted>
3.4749

> <Gold.Chemscore.Rot.Weighted>
3.6708

> <Gold.Chemscore.Internal.Correction.Weighted>
   9.000000E+99

> <Gold.Protein.RotatedTorsions>
[ 6907 6896 6895 6894 ] final   97.79 input  -60.11 | X-H torsion
[ 7974 7965 7964 7962 ] final   92.35 input  175.53 | X-H torsion
[ 8008 7997 7996 7995 ] final   13.29 input   59.86 | X-H torsion
[ 10167 10162 10161 10158 ] final  111.93 input  -65.29 | X-H torsion
[ 10718 10713 10712 10709 ] final   32.34 input   66.30 | X-H torsion
[ 10763 10752 10751 10750 ] final  -37.76 input  -60.55 | X-H torsion
[ 11005 11000 10999 10996 ] final   28.77 input  -57.11 | X-H torsion

> <Gold.Protein.ActiveResidues>
 VAL166  LYS551  ARG553  GLY616  TRP617  ASP618  TYR619  PRO620  LYS621  CYS622 
 ASP623  PHE694  ASN695  SER759  ASP760  ASP761  ALA762  ILE779  LEU786  VAL792 
 PHE793  MET794  SER795  GLU796  ALA797  LYS798  CYS799  TRP800  GLU811  SER814 

> <Gold.Protein.RotatedAtoms>
  152.5418  134.0679  159.8180 H   0  0  0  0  0  0  0  0  0  0  0  0  # atno 6907 bound_to 6896
  151.0797  133.5392  159.2629 H   0  0  0  0  0  0  0  0  0  0  0  0  # atno 6908 bound_to 6896
  151.2224  135.0532  159.9009 H   0  0  0  0  0  0  0  0  0  0  0  0  # atno 6909 bound_to 6896
  145.4934  139.2276  143.2817 H   0  0  0  0  0  0  0  0  0  0  0  0  # atno 7974 bound_to 7965
  154.8323  140.2901  155.5714 H   0  0  0  0  0  0  0  0  0  0  0  0  # atno 8008 bound_to 7997
  156.3006  140.2529  156.3182 H   0  0  0  0  0  0  0  0  0  0  0  0  # atno 8009 bound_to 7997
  154.9217  140.0386  157.1990 H   0  0  0  0  0  0  0  0  0  0  0  0  # atno 8010 bound_to 7997
  139.6574  144.7129  151.1931 H   0  0  0  0  0  0  0  0  0  0  0  0  # atno 10167 bound_to 10162
  157.2839  130.7269  149.6572 H   0  0  0  0  0  0  0  0  0  0  0  0  # atno 10718 bound_to 10713
  153.9016  135.6802  153.4755 H   0  0  0  0  0  0  0  0  0  0  0  0  # atno 10763 bound_to 10752
  153.1126  135.4776  154.9059 H   0  0  0  0  0  0  0  0  0  0  0  0  # atno 10764 bound_to 10752
  154.7572  135.3201  154.8401 H   0  0  0  0  0  0  0  0  0  0  0  0  # atno 10765 bound_to 10752
  140.3120  134.2639  155.7732 H   0  0  0  0  0  0  0  0  0  0  0  0  # atno 11005 bound_to 11000
  146.2270  140.5730  142.8992 LP  0  0  0  0  0  0  0  0  0  0  0  0  # atno 17320 bound_to 7965
  144.7821  140.5861  143.6599 LP  0  0  0  0  0  0  0  0  0  0  0  0  # atno 17321 bound_to 7965
  140.7565  143.6050  150.8662 LP  0  0  0  0  0  0  0  0  0  0  0  0  # atno 17342 bound_to 10162
  139.9704  143.6063  152.2975 LP  0  0  0  0  0  0  0  0  0  0  0  0  # atno 17343 bound_to 10162
  155.9665  130.4329  150.4985 LP  0  0  0  0  0  0  0  0  0  0  0  0  # atno 17370 bound_to 10713
  157.2934  131.0631  151.2118 LP  0  0  0  0  0  0  0  0  0  0  0  0  # atno 17371 bound_to 10713
  141.2106  133.7714  156.9921 LP  0  0  0  0  0  0  0  0  0  0  0  0  # atno 17394 bound_to 11000
  140.1016  134.9531  157.1932 LP  0  0  0  0  0  0  0  0  0  0  0  0  # atno 17395 bound_to 11000

$$$$
