AV-unprocessed.smi:2694|AV-procd|sdf|10406|dock9
  -GOLD-   2272014443D 1   1.00000     0.00000
 Structure written by MMmdl.
 42 44  0  0  0  0  0  0  0  0  1 V2000
  152.8127  138.1887  158.2993 O   0  0  0  0  0  0  0  0  0  0  0  0
  152.3726  139.1913  157.7361 C   0  0  0  0  0  0  0  0  0  0  0  0
  152.0410  140.4195  158.4584 C   0  0  0  0  0  0  0  0  0  0  0  0
  151.5553  141.5007  157.8028 C   0  0  0  0  0  0  0  0  0  0  0  0
  151.1792  142.7830  158.5324 C   0  0  0  0  0  0  0  0  0  0  0  0
  151.9175  144.0548  158.0835 C   0  0  0  0  0  0  0  0  0  0  0  0
  151.9591  144.4738  159.5573 C   0  0  0  0  0  0  0  0  0  0  0  0
  151.8220  142.9898  159.9146 C   0  0  0  0  0  0  0  0  0  0  0  0
  151.3494  141.4605  156.4189 N   0  0  0  0  0  0  0  0  0  0  0  0
  151.6347  140.3853  155.7564 C   0  0  0  0  0  0  0  0  0  0  0  0
  152.1513  139.2392  156.3901 N   0  0  0  0  0  0  0  0  0  0  0  0
  152.4311  138.0827  155.5240 C   0  0  0  0  0  0  0  0  0  0  0  0
  151.1564  137.5458  154.8345 C   0  0  1  0  0  0  0  0  0  0  0  0
  151.4905  136.5729  153.8647 O   0  0  0  0  0  0  0  0  0  0  0  0
  150.1638  136.9043  155.8194 C   0  0  0  0  0  0  0  0  0  0  0  0
  150.5826  135.5814  156.1316 O   0  0  0  0  0  0  0  0  0  0  0  0
  149.9916  134.5272  155.4676 C   0  0  0  0  0  0  0  0  0  0  0  0
  148.9266  134.6721  154.5421 C   0  0  0  0  0  0  0  0  0  0  0  0
  148.3782  133.5441  153.9016 C   0  0  0  0  0  0  0  0  0  0  0  0
  148.8833  132.2602  154.1760 C   0  0  0  0  0  0  0  0  0  0  0  0
  149.9381  132.1053  155.0936 C   0  0  0  0  0  0  0  0  0  0  0  0
  150.4888  133.2319  155.7355 C   0  0  0  0  0  0  0  0  0  0  0  0
  151.7825  133.0139  156.8594 Cl  0  0  0  0  0  0  0  0  0  0  0  0
  152.1888  140.4553  159.5279 H   0  0  0  0  0  0  0  0  0  0  0  0
  150.0979  142.9299  158.5611 H   0  0  0  0  0  0  0  0  0  0  0  0
  152.9124  143.8617  157.6780 H   0  0  0  0  0  0  0  0  0  0  0  0
  151.3387  144.7153  157.4373 H   0  0  0  0  0  0  0  0  0  0  0  0
  152.8935  144.9369  159.8756 H   0  0  0  0  0  0  0  0  0  0  0  0
  151.0907  145.0638  159.8551 H   0  0  0  0  0  0  0  0  0  0  0  0
  151.1651  142.7817  160.7596 H   0  0  0  0  0  0  0  0  0  0  0  0
  152.7911  142.4994  160.0254 H   0  0  0  0  0  0  0  0  0  0  0  0
  151.4897  140.3001  154.6780 H   0  0  0  0  0  0  0  0  0  0  0  0
  153.2015  138.3044  154.7822 H   0  0  0  0  0  0  0  0  0  0  0  0
  152.8675  137.2913  156.1363 H   0  0  0  0  0  0  0  0  0  0  0  0
  150.6362  138.3534  154.3181 H   0  0  0  0  0  0  0  0  0  0  0  0
  151.4686  136.9781  153.0114 H   0  0  0  0  0  0  0  0  0  0  0  0
  150.1492  137.4953  156.7366 H   0  0  0  0  0  0  0  0  0  0  0  0
  149.1549  136.9134  155.4030 H   0  0  0  0  0  0  0  0  0  0  0  0
  148.5115  135.6397  154.3047 H   0  0  0  0  0  0  0  0  0  0  0  0
  147.5678  133.6651  153.1978 H   0  0  0  0  0  0  0  0  0  0  0  0
  148.4622  131.3957  153.6839 H   0  0  0  0  0  0  0  0  0  0  0  0
  150.3256  131.1193  155.3049 H   0  0  0  0  0  0  0  0  0  0  0  0
  1  2  2  0  0  0  0
  2 11  1  0  0  0  0
  2  3  1  0  0  0  0
  3  4  2  0  0  0  0
  3 24  1  0  0  0  0
  4  5  1  0  0  0  0
  4  9  1  0  0  0  0
  5  8  1  0  0  0  0
  5  6  1  0  0  0  0
  5 25  1  0  0  0  0
  6  7  1  0  0  0  0
  6 26  1  0  0  0  0
  6 27  1  0  0  0  0
  7  8  1  0  0  0  0
  7 28  1  0  0  0  0
  7 29  1  0  0  0  0
  8 30  1  0  0  0  0
  8 31  1  0  0  0  0
  9 10  2  0  0  0  0
 10 11  1  0  0  0  0
 10 32  1  0  0  0  0
 11 12  1  0  0  0  0
 12 13  1  0  0  0  0
 12 33  1  0  0  0  0
 12 34  1  0  0  0  0
 13 14  1  0  0  0  0
 13 15  1  0  0  0  0
 13 35  1  0  0  0  0
 14 36  1  0  0  0  0
 15 16  1  0  0  0  0
 15 37  1  0  0  0  0
 15 38  1  0  0  0  0
 16 17  1  0  0  0  0
 17 22  1  0  0  0  0
 17 18  2  0  0  0  0
 18 19  1  0  0  0  0
 18 39  1  0  0  0  0
 19 20  2  0  0  0  0
 19 40  1  0  0  0  0
 20 21  1  0  0  0  0
 20 41  1  0  0  0  0
 21 22  2  0  0  0  0
 21 42  1  0  0  0  0
 22 23  1  0  0  0  0
M  END
> <s_m_source_file>
AV-unprocessed.smi

> <i_m_source_file_index>
2694

> <i_lp_mmshare_version>
43012

> <i_f3d_flags>
0

> <s_epik_input>
W0NIMl0xW0NIMl1bQ0gyXVtDSF0xYyhbY0hdYzI9TyluW2NIXW4yW0NIMl1bQ0BIXShbT0hdKVtDSDJdT2MzW2NIXVtjSF1bY0hdW2NIXWMzQ2w=

> <s_epik_cmdline>
J2VwaWtfcHl0aG9uJywgJy1waCcsICc3LjAnLCAnLXRuJywgJzgnLCAnLW1hJywgJzIwMCcsICctbWV0YWxfYmluZGluZycsICctaW1hZScsICc8aW5maWxlLm1hZT4nLCAnLW9tYWUnLCAnPG91dGZpbGUubWFlPic=

> <r_lp_tautomer_probability>
1

> <r_epik_Ionization_Penalty>
1.78212e-05

> <r_epik_Ionization_Penalty_Charging>
5.61663e-08

> <r_epik_Ionization_Penalty_Neutral>
1.7765e-05

> <r_epik_State_Penalty>
-0

> <r_epik_Charging_Adjusted_Penalty>
5.61663e-08

> <i_epik_Tot_Q>
0

> <i_epik_Tot_abs_Q>
0

> <r_epik_Metal_State_Penalty>
-0

> <b_epik_Metal_Only>
0

> <s_lp_Force_Field>
OPLS_2005

> <r_lp_Energy>
33.164

> <b_lp_Chiralities_Consistent>
1

> <s_lp_Variant>
AV-unprocessed.smi:2694-2

> <Gold.Version>
5.8.1

> <Gold.Id.Protein>
6NUR|6NUR_protein|mol2

> <Gold.PLP.Fitness>
47.4333

> <Gold.PLP.PLP>
-44.2396

> <Gold.PLP.part.hbond>
-2.2276

> <Gold.PLP.part.metal>
0.0000

> <Gold.PLP.part.buried>
-1.7713

> <Gold.PLP.part.nonpolar>
-39.1368

> <Gold.PLP.part.repulsive>
0.0742

> <Gold.PLP.ligand.clash>
0.0000

> <Gold.PLP.ligand.torsion>
0.7847

> <Gold.PLP.Chemscore.Hbond>
1.4320

> <Gold.PLP.Chemscore.CHOScore>
0.0000

> <Gold.PLP.Chemscore.Metal>
0.0000

> <Gold.Chemscore.Hbonds>
donor molecule, donor type, donor heavy atom, donor atom, acceptor molecule, acceptor atom, score
      L1  H    14    36       P1  7949  0.43
      P1  H 10752 10763       L1    14  1.00

> <Gold.PLP.Chemscore.Internal.Correction>
0.4671

> <Gold.Rescore>
     Score         DG    S(hbond)    S(metal)    S(lipo)     H(rot)  DE(clash)    DE(int)     intcor
     15.33     -17.19       1.43        0.00     112.17       2.42       0.17       1.68       ----

> <Gold.Chemscore.Fitness>
15.3310

> <Gold.Chemscore.DG>
-17.1870

> <Gold.Chemscore.ZeroCoef>
-5.4800

> <Gold.Chemscore.Hbond>
1.4341

> <Gold.Chemscore.Metal>
0.0000

> <Gold.Chemscore.Lipo>
112.1679

> <Gold.Chemscore.Internal_Hbond>
0.0000

> <Gold.Chemscore.DEClash>
0.1736

> <Gold.Chemscore.DEInternal>
1.6824

> <Gold.Chemscore.Rot>
2.4245

> <Gold.Chemscore.Internal.Correction>
   9.000000E+99

> <Gold.Chemscore.Hbonds>
donor molecule, donor type, donor heavy atom, donor atom, acceptor molecule, acceptor atom, score
      L1  H    14    36       P1  7949  0.37
      P1  H 10752 10763       L1    14  0.82

> <Gold.Chemscore.Hbond.Weighted>
-4.7899

> <Gold.Chemscore.Metal.Weighted>
-0.0000

> <Gold.Chemscore.Lipo.Weighted>
-13.1236

> <Gold.Chemscore.Internal_Hbond.Weighted>
0.0000

> <Gold.Chemscore.DEClash.Weighted>
0.1736

> <Gold.Chemscore.DEInternal.Weighted>
1.6824

> <Gold.Chemscore.Rot.Weighted>
6.2066

> <Gold.Chemscore.Internal.Correction.Weighted>
   9.000000E+99

> <Gold.Protein.RotatedTorsions>
[ 6907 6896 6895 6894 ] final -131.86 input  -60.11 | X-H torsion
[ 7974 7965 7964 7962 ] final   -4.07 input  175.53 | X-H torsion
[ 8008 7997 7996 7995 ] final -171.84 input   59.86 | X-H torsion
[ 10167 10162 10161 10158 ] final  -75.20 input  -65.29 | X-H torsion
[ 10718 10713 10712 10709 ] final  162.78 input   66.30 | X-H torsion
[ 10763 10752 10751 10750 ] final   35.63 input  -60.55 | X-H torsion
[ 11005 11000 10999 10996 ] final   60.97 input  -57.11 | X-H torsion

> <Gold.Protein.ActiveResidues>
 VAL166  LYS551  ARG553  GLY616  TRP617  ASP618  TYR619  PRO620  LYS621  CYS622 
 ASP623  PHE694  ASN695  SER759  ASP760  ASP761  ALA762  ILE779  LEU786  VAL792 
 PHE793  MET794  SER795  GLU796  ALA797  LYS798  CYS799  TRP800  GLU811  SER814 

> <Gold.Protein.RotatedAtoms>
  150.9557  133.6500  159.2763 H   0  0  0  0  0  0  0  0  0  0  0  0  # atno 6907 bound_to 6896
  151.3840  135.0943  159.9515 H   0  0  0  0  0  0  0  0  0  0  0  0  # atno 6908 bound_to 6896
  152.5128  133.9086  159.7531 H   0  0  0  0  0  0  0  0  0  0  0  0  # atno 6909 bound_to 6896
  146.2379  140.1816  142.8332 H   0  0  0  0  0  0  0  0  0  0  0  0  # atno 7974 bound_to 7965
  155.9368  140.1101  157.1088 H   0  0  0  0  0  0  0  0  0  0  0  0  # atno 8008 bound_to 7997
  154.4081  140.1227  156.4940 H   0  0  0  0  0  0  0  0  0  0  0  0  # atno 8009 bound_to 7997
  155.7012  140.3472  155.4936 H   0  0  0  0  0  0  0  0  0  0  0  0  # atno 8010 bound_to 7997
  140.4962  143.2370  151.7826 H   0  0  0  0  0  0  0  0  0  0  0  0  # atno 10167 bound_to 10162
  157.1177  131.0484  151.2429 H   0  0  0  0  0  0  0  0  0  0  0  0  # atno 10718 bound_to 10713
  153.0111  135.6328  154.1857 H   0  0  0  0  0  0  0  0  0  0  0  0  # atno 10763 bound_to 10752
  154.1599  135.2824  155.3113 H   0  0  0  0  0  0  0  0  0  0  0  0  # atno 10764 bound_to 10752
  154.5989  135.5593  153.7414 H   0  0  0  0  0  0  0  0  0  0  0  0  # atno 10765 bound_to 10752
  140.0194  134.6175  155.9661 H   0  0  0  0  0  0  0  0  0  0  0  0  # atno 11005 bound_to 11000
  144.9930  140.8564  143.5328 LP  0  0  0  0  0  0  0  0  0  0  0  0  # atno 17320 bound_to 7965
  145.1825  139.2344  143.5285 LP  0  0  0  0  0  0  0  0  0  0  0  0  # atno 17321 bound_to 7965
  139.4862  144.4583  151.9572 LP  0  0  0  0  0  0  0  0  0  0  0  0  # atno 17342 bound_to 10162
  140.3671  144.2901  150.5925 LP  0  0  0  0  0  0  0  0  0  0  0  0  # atno 17343 bound_to 10162
  157.4503  130.7595  149.7146 LP  0  0  0  0  0  0  0  0  0  0  0  0  # atno 17370 bound_to 10713
  155.9835  130.3999  150.3357 LP  0  0  0  0  0  0  0  0  0  0  0  0  # atno 17371 bound_to 10713
  141.1764  133.6541  156.4846 LP  0  0  0  0  0  0  0  0  0  0  0  0  # atno 17394 bound_to 11000
  140.4413  134.7012  157.4993 LP  0  0  0  0  0  0  0  0  0  0  0  0  # atno 17395 bound_to 11000

$$$$
