AV-unprocessed.smi:3278|AV-procd|sdf|12543|dock5
  -GOLD-   2272018453D 1   1.00000     0.00000
 Structure written by MMmdl.
 39 40  0  0  0  0  0  0  0  0  2 V2000
  149.5009  137.1660  159.1009 C   0  0  0  0  0  0  0  0  0  0  0  0
  149.2392  138.1999  158.1226 N   0  0  0  0  0  0  0  0  0  0  0  0
  150.1066  138.7632  157.2130 C   0  0  0  0  0  0  0  0  0  0  0  0
  149.4091  139.6973  156.4967 C   0  0  0  0  0  0  0  0  0  0  0  0
  149.9030  140.5829  155.3721 C   0  0  2  0  0  0  0  0  0  0  0  0
  148.7329  141.3976  154.7944 C   0  0  0  0  0  0  0  0  0  0  0  0
  150.4219  139.8276  154.2930 O   0  0  0  0  0  0  0  0  0  0  0  0
  151.0288  141.5204  155.8602 C   0  0  0  0  0  0  0  0  0  0  0  0
  150.5136  142.5605  156.7799 N   0  3  0  0  0  0  0  0  0  0  0  0
  151.5075  143.1427  157.7081 C   0  0  1  0  0  0  0  0  0  0  0  0
  151.0206  144.4999  158.2634 C   0  0  0  0  0  0  0  0  0  0  0  0
  152.0449  145.1653  159.1978 C   0  0  0  0  0  0  0  0  0  0  0  0
  152.3649  144.3075  160.4292 C   0  0  0  0  0  0  0  0  0  0  0  0
  153.1009  142.7238  159.9455 S   0  0  0  0  0  0  0  0  0  0  0  0
  151.7817  142.1425  158.8456 C   0  0  0  0  0  0  0  0  0  0  0  0
  148.1026  139.6293  157.0649 C   0  0  0  0  0  0  0  0  0  0  0  0
  148.0039  138.7307  158.0304 N   0  0  0  0  0  0  0  0  0  0  0  0
  150.5414  136.8459  159.0377 H   0  0  0  0  0  0  0  0  0  0  0  0
  148.8541  136.3082  158.9141 H   0  0  0  0  0  0  0  0  0  0  0  0
  149.3084  137.5492  160.1035 H   0  0  0  0  0  0  0  0  0  0  0  0
  151.1397  138.4546  157.1478 H   0  0  0  0  0  0  0  0  0  0  0  0
  148.2838  142.0409  155.5521 H   0  0  0  0  0  0  0  0  0  0  0  0
  147.9468  140.7451  154.4118 H   0  0  0  0  0  0  0  0  0  0  0  0
  149.0576  142.0383  153.9735 H   0  0  0  0  0  0  0  0  0  0  0  0
  150.8737  139.0727  154.6394 H   0  0  0  0  0  0  0  0  0  0  0  0
  151.8109  140.9488  156.3622 H   0  0  0  0  0  0  0  0  0  0  0  0
  151.4961  142.0001  155.0004 H   0  0  0  0  0  0  0  0  0  0  0  0
  150.0948  143.3035  156.2387 H   0  0  0  0  0  0  0  0  0  0  0  0
  152.4380  143.2896  157.1575 H   0  0  0  0  0  0  0  0  0  0  0  0
  150.8116  145.1899  157.4465 H   0  0  0  0  0  0  0  0  0  0  0  0
  150.0770  144.3655  158.7940 H   0  0  0  0  0  0  0  0  0  0  0  0
  152.9632  145.3765  158.6486 H   0  0  0  0  0  0  0  0  0  0  0  0
  151.6575  146.1305  159.5252 H   0  0  0  0  0  0  0  0  0  0  0  0
  153.0612  144.8312  161.0844 H   0  0  0  0  0  0  0  0  0  0  0  0
  151.4606  144.1189  161.0087 H   0  0  0  0  0  0  0  0  0  0  0  0
  150.8802  141.9733  159.4359 H   0  0  0  0  0  0  0  0  0  0  0  0
  152.0825  141.1763  158.4388 H   0  0  0  0  0  0  0  0  0  0  0  0
  147.2244  140.2002  156.8009 H   0  0  0  0  0  0  0  0  0  0  0  0
  149.7887  142.1274  157.3344 H   0  0  0  0  0  0  0  0  0  0  0  0
  1  2  1  0  0  0  0
  1 18  1  0  0  0  0
  1 19  1  0  0  0  0
  1 20  1  0  0  0  0
  2 17  1  0  0  0  0
  2  3  1  0  0  0  0
  3  4  2  0  0  0  0
  3 21  1  0  0  0  0
  4  5  1  0  0  0  0
  4 16  1  0  0  0  0
  5  6  1  0  0  0  0
  5  7  1  0  0  0  0
  5  8  1  0  0  0  0
  6 22  1  0  0  0  0
  6 23  1  0  0  0  0
  6 24  1  0  0  0  0
  7 25  1  0  0  0  0
  8  9  1  0  0  0  0
  8 26  1  0  0  0  0
  8 27  1  0  0  0  0
  9 10  1  0  0  0  0
  9 28  1  0  0  0  0
  9 39  1  0  0  0  0
 10 15  1  0  0  0  0
 10 11  1  0  0  0  0
 10 29  1  0  0  0  0
 11 12  1  0  0  0  0
 11 30  1  0  0  0  0
 11 31  1  0  0  0  0
 12 13  1  0  0  0  0
 12 32  1  0  0  0  0
 12 33  1  0  0  0  0
 13 14  1  0  0  0  0
 13 34  1  0  0  0  0
 13 35  1  0  0  0  0
 14 15  1  0  0  0  0
 15 36  1  0  0  0  0
 15 37  1  0  0  0  0
 16 17  2  0  0  0  0
 16 38  1  0  0  0  0
M  CHG  1   9   1
M  END
> <s_m_source_file>
AV-unprocessed.smi

> <i_m_source_file_index>
3278

> <i_lp_mmshare_version>
43012

> <i_f3d_flags>
0

> <s_epik_input>
W0NIM11uMVtjSF1jKFtjSF1uMSlbQ0BAXShbQ0gzXSkoW09IXSlbQ0gyXVtOSF1bQ0BASF0yW0NIMl1bQ0gyXVtDSDJdU1tDSDJdMg==

> <s_epik_cmdline>
J2VwaWtfcHl0aG9uJywgJy1waCcsICc3LjAnLCAnLXRuJywgJzgnLCAnLW1hJywgJzIwMCcsICctbWV0YWxfYmluZGluZycsICctaW1hZScsICc8aW5maWxlLm1hZT4nLCAnLW9tYWUnLCAnPG91dGZpbGUubWFlPic=

> <r_lp_tautomer_probability>
1

> <r_epik_Ionization_Penalty>
0.0185703

> <r_epik_Ionization_Penalty_Charging>
0.0185619

> <r_epik_Ionization_Penalty_Neutral>
8.47286e-06

> <r_epik_State_Penalty>
0.0147768

> <r_epik_Charging_Adjusted_Penalty>
0.0333386

> <i_epik_Tot_Q>
1

> <i_epik_Tot_abs_Q>
1

> <r_epik_Metal_State_Penalty>
0.0147782

> <b_epik_Metal_Only>
0

> <s_lp_Force_Field>
OPLS_2005

> <r_lp_Energy>
8.58851

> <b_lp_Chiralities_Consistent>
1

> <s_lp_Variant>
AV-unprocessed.smi:3278-4

> <Gold.Version>
5.8.1

> <Gold.Id.Protein>
6NUR|6NUR_protein|mol2

> <Gold.PLP.Fitness>
43.9611

> <Gold.PLP.PLP>
-35.7015

> <Gold.PLP.part.hbond>
-2.3818

> <Gold.PLP.part.metal>
0.0000

> <Gold.PLP.part.buried>
-5.8153

> <Gold.PLP.part.nonpolar>
-27.2706

> <Gold.PLP.part.repulsive>
0.0410

> <Gold.PLP.ligand.clash>
0.0000

> <Gold.PLP.ligand.torsion>
0.3872

> <Gold.PLP.Chemscore.Hbond>
3.0000

> <Gold.PLP.Chemscore.CHOScore>
0.0000

> <Gold.PLP.Chemscore.Metal>
0.0000

> <Gold.Chemscore.Hbonds>
donor molecule, donor type, donor heavy atom, donor atom, acceptor molecule, acceptor atom, score
      L1  H     9    28       P1  8028  2.00
      P1  H  7989  7998       L1     7  1.00

> <Gold.PLP.Chemscore.Internal.Correction>
0.0340

> <Gold.Rescore>
     Score         DG    S(hbond)    S(metal)    S(lipo)     H(rot)  DE(clash)    DE(int)     intcor
     18.14     -18.34       1.86        0.00     100.60       2.00       0.01       0.19       ----

> <Gold.Chemscore.Fitness>
18.1352

> <Gold.Chemscore.DG>
-18.3425

> <Gold.Chemscore.ZeroCoef>
-5.4800

> <Gold.Chemscore.Hbond>
1.8630

> <Gold.Chemscore.Metal>
0.0000

> <Gold.Chemscore.Lipo>
100.5959

> <Gold.Chemscore.Internal_Hbond>
0.0000

> <Gold.Chemscore.DEClash>
0.0130

> <Gold.Chemscore.DEInternal>
0.1943

> <Gold.Chemscore.Rot>
2.0038

> <Gold.Chemscore.Internal.Correction>
   9.000000E+99

> <Gold.Chemscore.Hbonds>
donor molecule, donor type, donor heavy atom, donor atom, acceptor molecule, acceptor atom, score
      L1  H     9    28       P1  8028  0.99
      P1  H  7989  7998       L1     7  0.39

> <Gold.Chemscore.Hbond.Weighted>
-6.2224

> <Gold.Chemscore.Metal.Weighted>
-0.0000

> <Gold.Chemscore.Lipo.Weighted>
-11.7697

> <Gold.Chemscore.Internal_Hbond.Weighted>
0.0000

> <Gold.Chemscore.DEClash.Weighted>
0.0130

> <Gold.Chemscore.DEInternal.Weighted>
0.1943

> <Gold.Chemscore.Rot.Weighted>
5.1296

> <Gold.Chemscore.Internal.Correction.Weighted>
   9.000000E+99

> <Gold.Protein.RotatedTorsions>
[ 6907 6896 6895 6894 ] final   91.19 input  -60.11 | X-H torsion
[ 7974 7965 7964 7962 ] final   -9.30 input  175.53 | X-H torsion
[ 8008 7997 7996 7995 ] final  164.13 input   59.86 | X-H torsion
[ 10167 10162 10161 10158 ] final  -95.19 input  -65.29 | X-H torsion
[ 10718 10713 10712 10709 ] final  171.17 input   66.30 | X-H torsion
[ 10763 10752 10751 10750 ] final  146.16 input  -60.55 | X-H torsion
[ 11005 11000 10999 10996 ] final   62.82 input  -57.11 | X-H torsion

> <Gold.Protein.ActiveResidues>
 VAL166  LYS551  ARG553  GLY616  TRP617  ASP618  TYR619  PRO620  LYS621  CYS622 
 ASP623  PHE694  ASN695  SER759  ASP760  ASP761  ALA762  ILE779  LEU786  VAL792 
 PHE793  MET794  SER795  GLU796  ALA797  LYS798  CYS799  TRP800  GLU811  SER814 

> <Gold.Protein.RotatedAtoms>
  152.5449  134.1694  159.8590 H   0  0  0  0  0  0  0  0  0  0  0  0  # atno 6907 bound_to 6896
  151.1706  133.4780  159.2601 H   0  0  0  0  0  0  0  0  0  0  0  0  # atno 6908 bound_to 6896
  151.1279  135.0126  159.8624 H   0  0  0  0  0  0  0  0  0  0  0  0  # atno 6909 bound_to 6896
  146.2256  140.2595  142.8351 H   0  0  0  0  0  0  0  0  0  0  0  0  # atno 7974 bound_to 7965
  156.1903  140.1705  156.8104 H   0  0  0  0  0  0  0  0  0  0  0  0  # atno 8008 bound_to 7997
  154.5464  140.0726  156.8627 H   0  0  0  0  0  0  0  0  0  0  0  0  # atno 8009 bound_to 7997
  155.3114  140.3368  155.4246 H   0  0  0  0  0  0  0  0  0  0  0  0  # atno 8010 bound_to 7997
  140.3067  143.3129  152.0191 H   0  0  0  0  0  0  0  0  0  0  0  0  # atno 10167 bound_to 10162
  156.9974  131.0166  151.2840 H   0  0  0  0  0  0  0  0  0  0  0  0  # atno 10718 bound_to 10713
  154.0173  135.2909  155.3385 H   0  0  0  0  0  0  0  0  0  0  0  0  # atno 10763 bound_to 10752
  154.7067  135.5166  153.8609 H   0  0  0  0  0  0  0  0  0  0  0  0  # atno 10764 bound_to 10752
  153.0697  135.6643  154.0398 H   0  0  0  0  0  0  0  0  0  0  0  0  # atno 10765 bound_to 10752
  140.0066  134.6360  155.9845 H   0  0  0  0  0  0  0  0  0  0  0  0  # atno 11005 bound_to 11000
  144.9350  140.8017  143.5666 LP  0  0  0  0  0  0  0  0  0  0  0  0  # atno 17320 bound_to 7965
  145.2542  139.2019  143.4926 LP  0  0  0  0  0  0  0  0  0  0  0  0  # atno 17321 bound_to 7965
  139.4902  144.6415  151.6867 LP  0  0  0  0  0  0  0  0  0  0  0  0  # atno 17342 bound_to 10162
  140.5604  144.0279  150.6167 LP  0  0  0  0  0  0  0  0  0  0  0  0  # atno 17343 bound_to 10162
  157.5415  130.8123  149.8034 LP  0  0  0  0  0  0  0  0  0  0  0  0  # atno 17370 bound_to 10713
  156.0184  130.3805  150.2039 LP  0  0  0  0  0  0  0  0  0  0  0  0  # atno 17371 bound_to 10713
  141.1681  133.6537  156.4553 LP  0  0  0  0  0  0  0  0  0  0  0  0  # atno 17394 bound_to 11000
  140.4629  134.6824  157.5094 LP  0  0  0  0  0  0  0  0  0  0  0  0  # atno 17395 bound_to 11000

$$$$
