AV-unprocessed.smi:212|AV-procd|sdf|1626|dock7
  -GOLD-   2262019573D 1   1.00000     0.00000
 Structure written by MMmdl.
 65 68  0  0  0  0  0  0  0  0  2 V2000
  145.7472  132.9842  155.0031 C   0  0  0  0  0  0  0  0  0  0  0  0
  146.9030  133.7554  154.3432 C   0  0  1  0  0  0  0  0  0  0  0  0
  146.6736  133.9663  152.8311 C   0  0  0  0  0  0  0  0  0  0  0  0
  145.6201  134.9819  152.5728 N   0  3  2  0  0  0  0  0  0  0  0  0
  145.2784  135.1244  151.1332 C   0  0  0  0  0  0  0  0  0  0  0  0
  144.5454  133.8810  150.5800 C   0  0  0  0  0  0  0  0  0  0  0  0
  145.5471  132.7412  150.3303 C   0  0  0  0  0  0  0  0  0  0  0  0
  143.4164  133.4040  151.5127 C   0  0  0  0  0  0  0  0  0  0  0  0
  143.9799  134.2060  149.3251 O   0  0  0  0  0  0  0  0  0  0  0  0
  145.9097  136.2768  153.2388 C   0  0  0  0  0  0  0  0  0  0  0  0
  146.1422  136.0814  154.7481 C   0  0  0  0  0  0  0  0  0  0  0  0
  147.1415  135.0420  155.0028 N   0  0  0  0  0  0  0  0  0  0  0  0
  148.4436  135.4068  155.1430 C   0  0  0  0  0  0  0  0  0  0  0  0
  149.3456  134.5239  155.6491 N   0  0  0  0  0  0  0  0  0  0  0  0
  150.6258  134.8764  155.8013 C   0  0  0  0  0  0  0  0  0  0  0  0
  151.2096  136.0412  155.5150 N   0  0  0  0  0  0  0  0  0  0  0  0
  150.3124  136.9291  155.0000 C   0  0  0  0  0  0  0  0  0  0  0  0
  148.9252  136.6969  154.7813 C   0  0  0  0  0  0  0  0  0  0  0  0
  148.3377  137.8306  154.2305 N   0  0  0  0  0  0  0  0  0  0  0  0
  149.3201  138.6848  154.1345 C   0  0  0  0  0  0  0  0  0  0  0  0
  150.5390  138.2279  154.5822 N   0  0  0  0  0  0  0  0  0  0  0  0
  151.7953  138.9557  154.5932 C   0  0  0  0  0  0  0  0  0  0  0  0
  152.2224  139.4009  156.0170 C   0  0  2  0  0  0  0  0  0  0  0  0
  152.7451  138.2088  156.8533 C   0  0  0  0  0  0  0  0  0  0  0  0
  153.6697  138.6362  157.8317 O   0  0  0  0  0  0  0  0  0  0  0  0
  151.1092  140.1938  156.7595 C   0  0  1  0  0  0  0  0  0  0  0  0
  151.5892  140.8693  158.0476 C   0  0  0  0  0  0  0  0  0  0  0  0
  151.1763  142.3315  157.8868 C   0  0  0  0  0  0  0  0  0  0  0  0
  151.1076  142.5118  156.4824 O   0  0  0  0  0  0  0  0  0  0  0  0
  150.4898  141.3487  155.9567 C   0  0  0  0  0  0  0  0  0  0  0  0
  145.6217  132.0038  154.5432 H   0  0  0  0  0  0  0  0  0  0  0  0
  144.7970  133.5112  154.9146 H   0  0  0  0  0  0  0  0  0  0  0  0
  145.9423  132.8246  156.0639 H   0  0  0  0  0  0  0  0  0  0  0  0
  147.7862  133.1242  154.4385 H   0  0  0  0  0  0  0  0  0  0  0  0
  147.6021  134.2951  152.3610 H   0  0  0  0  0  0  0  0  0  0  0  0
  146.4012  133.0200  152.3617 H   0  0  0  0  0  0  0  0  0  0  0  0
  144.6742  136.0198  150.9760 H   0  0  0  0  0  0  0  0  0  0  0  0
  146.1862  135.2852  150.5492 H   0  0  0  0  0  0  0  0  0  0  0  0
  146.0286  132.4293  151.2577 H   0  0  0  0  0  0  0  0  0  0  0  0
  146.3335  133.0450  149.6383 H   0  0  0  0  0  0  0  0  0  0  0  0
  145.0572  131.8642  149.9052 H   0  0  0  0  0  0  0  0  0  0  0  0
  143.8028  133.1551  152.5017 H   0  0  0  0  0  0  0  0  0  0  0  0
  142.9273  132.5125  151.1180 H   0  0  0  0  0  0  0  0  0  0  0  0
  142.6456  134.1645  151.6420 H   0  0  0  0  0  0  0  0  0  0  0  0
  144.6799  134.4001  148.7196 H   0  0  0  0  0  0  0  0  0  0  0  0
  146.7877  136.7301  152.7766 H   0  0  0  0  0  0  0  0  0  0  0  0
  145.0798  136.9669  153.0840 H   0  0  0  0  0  0  0  0  0  0  0  0
  146.4280  137.0240  155.2170 H   0  0  0  0  0  0  0  0  0  0  0  0
  145.2089  135.7858  155.2275 H   0  0  0  0  0  0  0  0  0  0  0  0
  151.2752  134.1169  156.2112 H   0  0  0  0  0  0  0  0  0  0  0  0
  149.1806  139.6796  153.7363 H   0  0  0  0  0  0  0  0  0  0  0  0
  152.5471  138.3123  154.1372 H   0  0  0  0  0  0  0  0  0  0  0  0
  151.6959  139.8181  153.9337 H   0  0  0  0  0  0  0  0  0  0  0  0
  153.0638  140.0858  155.8977 H   0  0  0  0  0  0  0  0  0  0  0  0
  151.9254  137.6790  157.3382 H   0  0  0  0  0  0  0  0  0  0  0  0
  153.2611  137.4849  156.2234 H   0  0  0  0  0  0  0  0  0  0  0  0
  153.8866  137.9002  158.3833 H   0  0  0  0  0  0  0  0  0  0  0  0
  150.3091  139.5029  157.0268 H   0  0  0  0  0  0  0  0  0  0  0  0
  151.1404  140.4256  158.9370 H   0  0  0  0  0  0  0  0  0  0  0  0
  152.6699  140.7931  158.1658 H   0  0  0  0  0  0  0  0  0  0  0  0
  150.1918  142.5064  158.3234 H   0  0  0  0  0  0  0  0  0  0  0  0
  151.8836  143.0217  158.3475 H   0  0  0  0  0  0  0  0  0  0  0  0
  150.6341  141.2689  154.8794 H   0  0  0  0  0  0  0  0  0  0  0  0
  149.4154  141.4063  156.1401 H   0  0  0  0  0  0  0  0  0  0  0  0
  144.7843  134.6256  153.0142 H   0  0  0  0  0  0  0  0  0  0  0  0
  1  2  1  0  0  0  0
  1 31  1  0  0  0  0
  1 32  1  0  0  0  0
  1 33  1  0  0  0  0
  2 12  1  0  0  0  0
  2  3  1  0  0  0  0
  2 34  1  0  0  0  0
  3  4  1  0  0  0  0
  3 35  1  0  0  0  0
  3 36  1  0  0  0  0
  4  5  1  0  0  0  0
  4 10  1  0  0  0  0
  4 65  1  0  0  0  0
  5  6  1  0  0  0  0
  5 37  1  0  0  0  0
  5 38  1  0  0  0  0
  6  7  1  0  0  0  0
  6  8  1  0  0  0  0
  6  9  1  0  0  0  0
  7 39  1  0  0  0  0
  7 40  1  0  0  0  0
  7 41  1  0  0  0  0
  8 42  1  0  0  0  0
  8 43  1  0  0  0  0
  8 44  1  0  0  0  0
  9 45  1  0  0  0  0
 10 11  1  0  0  0  0
 10 46  1  0  0  0  0
 10 47  1  0  0  0  0
 11 12  1  0  0  0  0
 11 48  1  0  0  0  0
 11 49  1  0  0  0  0
 12 13  1  0  0  0  0
 13 18  1  0  0  0  0
 13 14  2  0  0  0  0
 14 15  1  0  0  0  0
 15 16  2  0  0  0  0
 15 50  1  0  0  0  0
 16 17  1  0  0  0  0
 17 21  1  0  0  0  0
 17 18  2  0  0  0  0
 18 19  1  0  0  0  0
 19 20  2  0  0  0  0
 20 21  1  0  0  0  0
 20 51  1  0  0  0  0
 21 22  1  0  0  0  0
 22 23  1  0  0  0  0
 22 52  1  0  0  0  0
 22 53  1  0  0  0  0
 23 24  1  0  0  0  0
 23 26  1  0  0  0  0
 23 54  1  0  0  0  0
 24 25  1  0  0  0  0
 24 55  1  0  0  0  0
 24 56  1  0  0  0  0
 25 57  1  0  0  0  0
 26 30  1  0  0  0  0
 26 27  1  0  0  0  0
 26 58  1  0  0  0  0
 27 28  1  0  0  0  0
 27 59  1  0  0  0  0
 27 60  1  0  0  0  0
 28 29  1  0  0  0  0
 28 61  1  0  0  0  0
 28 62  1  0  0  0  0
 29 30  1  0  0  0  0
 30 63  1  0  0  0  0
 30 64  1  0  0  0  0
M  CHG  1   4   1
M  END
> <s_m_source_file>
AV-unprocessed.smi

> <i_m_source_file_index>
212

> <i_lp_mmshare_version>
43012

> <i_f3d_flags>
0

> <s_epik_input>
W0NIM11bQ0BASF0xW0NIMl1OKFtDSDJdQyhbQ0gzXSkoW0NIM10pW09IXSlbQ0gyXVtDSDJdTjFjKG5bY0hdbjIpYyhjMjMpbltjSF1uM1tDSDJdW0NASF0oW0NIMl1bT0hdKVtDQEBIXTRbQ0gyXVtDSDJdT1tDSDJdNA==

> <s_epik_cmdline>
J2VwaWtfcHl0aG9uJywgJy1waCcsICc3LjAnLCAnLXRuJywgJzgnLCAnLW1hJywgJzIwMCcsICctbWV0YWxfYmluZGluZycsICctaW1hZScsICc8aW5maWxlLm1hZT4nLCAnLW9tYWUnLCAnPG91dGZpbGUubWFlPic=

> <r_lp_tautomer_probability>
1

> <r_epik_Ionization_Penalty>
0.00182193

> <r_epik_Ionization_Penalty_Charging>
0.00173996

> <r_epik_Ionization_Penalty_Neutral>
8.19718e-05

> <r_epik_State_Penalty>
-0

> <r_epik_Charging_Adjusted_Penalty>
0.00173996

> <i_epik_Tot_Q>
1

> <i_epik_Tot_abs_Q>
1

> <r_epik_Metal_State_Penalty>
-0

> <b_epik_Metal_Only>
0

> <s_lp_Force_Field>
OPLS_2005

> <r_lp_Energy>
61.088

> <b_lp_Chiralities_Consistent>
1

> <s_lp_Variant>
AV-unprocessed.smi:212-10

> <Gold.Version>
5.8.1

> <Gold.Id.Protein>
6NUR|6NUR_protein|mol2

> <Gold.PLP.Fitness>
49.9062

> <Gold.PLP.PLP>
-40.7276

> <Gold.PLP.part.hbond>
-3.7234

> <Gold.PLP.part.metal>
0.0000

> <Gold.PLP.part.buried>
-2.7654

> <Gold.PLP.part.nonpolar>
-34.7804

> <Gold.PLP.part.repulsive>
1.9687

> <Gold.PLP.ligand.clash>
0.0000

> <Gold.PLP.ligand.torsion>
1.2721

> <Gold.PLP.Chemscore.Hbond>
3.0000

> <Gold.PLP.Chemscore.CHOScore>
0.5437

> <Gold.PLP.Chemscore.Metal>
0.0000

> <Gold.Chemscore.Hbonds>
donor molecule, donor type, donor heavy atom, donor atom, acceptor molecule, acceptor atom, score
      L1  H     9    45       P1  7921  1.00
      P1  H  7997  8010       L1    25  1.00
      P1  H 10752 10763       L1    16  1.00
      L1  C    20    51       P1  7957  0.55

> <Gold.PLP.Chemscore.Internal.Correction>
1.0919

> <Gold.Rescore>
     Score         DG    S(hbond)    S(metal)    S(lipo)     H(rot)  DE(clash)    DE(int)     intcor
      8.64     -15.83       2.49        0.00      91.65       3.40       2.40       4.80       ----

> <Gold.Chemscore.Fitness>
8.6370

> <Gold.Chemscore.DG>
-15.8279

> <Gold.Chemscore.ZeroCoef>
-5.4800

> <Gold.Chemscore.Hbond>
2.4925

> <Gold.Chemscore.Metal>
0.0000

> <Gold.Chemscore.Lipo>
91.6539

> <Gold.Chemscore.Internal_Hbond>
0.0000

> <Gold.Chemscore.DEClash>
2.3952

> <Gold.Chemscore.DEInternal>
4.7958

> <Gold.Chemscore.Rot>
3.3986

> <Gold.Chemscore.Internal.Correction>
   9.000000E+99

> <Gold.Chemscore.Hbonds>
donor molecule, donor type, donor heavy atom, donor atom, acceptor molecule, acceptor atom, score
      L1  H     9    45       P1  7921  1.00
      P1  H  7997  8010       L1    25  0.45
      P1  H 10752 10763       L1    16  0.49

> <Gold.Chemscore.Hbond.Weighted>
-8.3249

> <Gold.Chemscore.Metal.Weighted>
-0.0000

> <Gold.Chemscore.Lipo.Weighted>
-10.7235

> <Gold.Chemscore.Internal_Hbond.Weighted>
0.0000

> <Gold.Chemscore.DEClash.Weighted>
2.3952

> <Gold.Chemscore.DEInternal.Weighted>
4.7958

> <Gold.Chemscore.Rot.Weighted>
8.7005

> <Gold.Chemscore.Internal.Correction.Weighted>
   9.000000E+99

> <Gold.Protein.RotatedTorsions>
[ 6907 6896 6895 6894 ] final    2.15 input  -60.11 | X-H torsion
[ 7974 7965 7964 7962 ] final -147.86 input  175.53 | X-H torsion
[ 8008 7997 7996 7995 ] final   36.68 input   59.86 | X-H torsion
[ 10167 10162 10161 10158 ] final -150.43 input  -65.29 | X-H torsion
[ 10718 10713 10712 10709 ] final   -5.00 input   66.30 | X-H torsion
[ 10763 10752 10751 10750 ] final   68.40 input  -60.55 | X-H torsion
[ 11005 11000 10999 10996 ] final  -81.00 input  -57.11 | X-H torsion

> <Gold.Protein.ActiveResidues>
 VAL166  LYS551  ARG553  GLY616  TRP617  ASP618  TYR619  PRO620  LYS621  CYS622 
 ASP623  PHE694  ASN695  SER759  ASP760  ASP761  ALA762  ILE779  LEU786  VAL792 
 PHE793  MET794  SER795  GLU796  ALA797  LYS798  CYS799  TRP800  GLU811  SER814 

> <Gold.Protein.RotatedAtoms>
  151.6042  135.1045  160.0066 H   0  0  0  0  0  0  0  0  0  0  0  0  # atno 6907 bound_to 6896
  152.4242  133.7163  159.6518 H   0  0  0  0  0  0  0  0  0  0  0  0  # atno 6908 bound_to 6896
  150.8130  133.8314  159.3195 H   0  0  0  0  0  0  0  0  0  0  0  0  # atno 6909 bound_to 6896
  144.8066  140.5272  143.5671 H   0  0  0  0  0  0  0  0  0  0  0  0  # atno 7974 bound_to 7965
  155.1913  140.3308  155.4358 H   0  0  0  0  0  0  0  0  0  0  0  0  # atno 8008 bound_to 7997
  156.2441  140.1910  156.6956 H   0  0  0  0  0  0  0  0  0  0  0  0  # atno 8009 bound_to 7997
  154.6204  140.0596  156.9593 H   0  0  0  0  0  0  0  0  0  0  0  0  # atno 8010 bound_to 7997
  139.7355  143.8742  152.2547 H   0  0  0  0  0  0  0  0  0  0  0  0  # atno 10167 bound_to 10162
  156.7531  130.5245  149.5800 H   0  0  0  0  0  0  0  0  0  0  0  0  # atno 10718 bound_to 10713
  153.0233  135.5249  154.7128 H   0  0  0  0  0  0  0  0  0  0  0  0  # atno 10763 bound_to 10752
  154.6206  135.2888  155.0333 H   0  0  0  0  0  0  0  0  0  0  0  0  # atno 10764 bound_to 10752
  154.1321  135.6591  153.4976 H   0  0  0  0  0  0  0  0  0  0  0  0  # atno 10765 bound_to 10752
  141.1667  133.7176  156.8357 H   0  0  0  0  0  0  0  0  0  0  0  0  # atno 11005 bound_to 11000
  145.5423  139.1475  143.3440 LP  0  0  0  0  0  0  0  0  0  0  0  0  # atno 17320 bound_to 7965
  146.2358  140.5563  142.8955 LP  0  0  0  0  0  0  0  0  0  0  0  0  # atno 17321 bound_to 7965
  139.8678  144.7084  150.9024 LP  0  0  0  0  0  0  0  0  0  0  0  0  # atno 17342 bound_to 10162
  140.7778  143.3764  151.1556 LP  0  0  0  0  0  0  0  0  0  0  0  0  # atno 17343 bound_to 10162
  156.1388  130.6230  151.0438 LP  0  0  0  0  0  0  0  0  0  0  0  0  # atno 17370 bound_to 10713
  157.6768  131.0848  150.7473 LP  0  0  0  0  0  0  0  0  0  0  0  0  # atno 17371 bound_to 10713
  140.2019  134.8891  157.3178 LP  0  0  0  0  0  0  0  0  0  0  0  0  # atno 17394 bound_to 11000
  140.2178  134.4060  155.7580 LP  0  0  0  0  0  0  0  0  0  0  0  0  # atno 17395 bound_to 11000

$$$$
