AV-unprocessed.smi:2499|AV-procd|sdf|9837|dock3
  -GOLD-   2272013463D 1   1.00000     0.00000
 Structure written by MMmdl.
 27 28  0  0  0  0  0  0  0  0  1 V2000
  153.5927  141.9396  159.5036 C   0  0  0  0  0  0  0  0  0  0  0  0
  152.1844  142.5365  159.3782 C   0  0  2  0  0  0  0  0  0  0  0  0
  151.6212  142.1346  158.0929 N   0  0  0  0  0  0  0  0  0  0  0  0
  151.6583  140.9002  157.5689 C   0  0  0  0  0  0  0  0  0  0  0  0
  152.2100  139.9620  158.1530 O   0  0  0  0  0  0  0  0  0  0  0  0
  151.0370  140.8893  156.3288 N   0  0  0  0  0  0  0  0  0  0  0  0
  151.0099  139.7929  155.6349 C   0  0  0  0  0  0  0  0  0  0  0  0
  151.5235  138.5176  155.8563 N   0  0  0  0  0  0  0  0  0  0  0  0
  151.2088  137.7386  154.7782 C   0  0  0  0  0  0  0  0  0  0  0  0
  150.5274  138.4858  153.9150 C   0  0  0  0  0  0  0  0  0  0  0  0
  150.3904  139.7473  154.4116 O   0  0  0  0  0  0  0  0  0  0  0  0
  152.2142  144.0423  159.5797 C   0  0  0  0  0  0  0  0  0  0  0  0
  150.9830  144.8823  159.3351 C   0  0  0  0  0  0  0  0  0  0  0  0
  152.1715  144.9952  158.4083 C   0  0  0  0  0  0  0  0  0  0  0  0
  154.0319  142.1696  160.4748 H   0  0  0  0  0  0  0  0  0  0  0  0
  154.2606  142.3314  158.7355 H   0  0  0  0  0  0  0  0  0  0  0  0
  153.5706  140.8539  159.4041 H   0  0  0  0  0  0  0  0  0  0  0  0
  151.5791  142.1004  160.1754 H   0  0  0  0  0  0  0  0  0  0  0  0
  151.1606  142.8558  157.5563 H   0  0  0  0  0  0  0  0  0  0  0  0
  152.0428  138.1826  156.6552 H   0  0  0  0  0  0  0  0  0  0  0  0
  151.5154  136.7036  154.7433 H   0  0  0  0  0  0  0  0  0  0  0  0
  150.0922  138.2781  152.9487 H   0  0  0  0  0  0  0  0  0  0  0  0
  152.8305  144.3543  160.4209 H   0  0  0  0  0  0  0  0  0  0  0  0
  150.0952  144.3826  158.9525 H   0  0  0  0  0  0  0  0  0  0  0  0
  150.7954  145.7090  160.0173 H   0  0  0  0  0  0  0  0  0  0  0  0
  152.7782  145.8962  158.4731 H   0  0  0  0  0  0  0  0  0  0  0  0
  152.0694  144.5725  157.4108 H   0  0  0  0  0  0  0  0  0  0  0  0
  1  2  1  0  0  0  0
  1 15  1  0  0  0  0
  1 16  1  0  0  0  0
  1 17  1  0  0  0  0
  2  3  1  0  0  0  0
  2 12  1  0  0  0  0
  2 18  1  0  0  0  0
  3 19  1  0  0  0  0
  3  4  1  0  0  0  0
  4  6  1  0  0  0  0
  4  5  2  0  0  0  0
  6  7  2  0  0  0  0
  7 11  1  0  0  0  0
  7  8  1  0  0  0  0
  8 20  1  0  0  0  0
  8  9  1  0  0  0  0
  9 21  1  0  0  0  0
  9 10  2  0  0  0  0
 10 22  1  0  0  0  0
 10 11  1  0  0  0  0
 12 14  1  0  0  0  0
 12 13  1  0  0  0  0
 12 23  1  0  0  0  0
 13 14  1  0  0  0  0
 13 24  1  0  0  0  0
 13 25  1  0  0  0  0
 14 26  1  0  0  0  0
 14 27  1  0  0  0  0
M  END
> <s_m_source_file>
AV-unprocessed.smi

> <i_m_source_file_index>
2499

> <i_lp_mmshare_version>
43012

> <i_f3d_flags>
0

> <s_epik_input>
W0NIMl0xW0NIMl1bQ0hdMVtDQEhdKFtDSDNdKVtOSF1DKD1PKVtOSF1jMm5bY0hdW2NIXW8y

> <s_epik_cmdline>
J2VwaWtfcHl0aG9uJywgJy1waCcsICc3LjAnLCAnLXRuJywgJzgnLCAnLW1hJywgJzIwMCcsICctbWV0YWxfYmluZGluZycsICctaW1hZScsICc8aW5maWxlLm1hZT4nLCAnLW9tYWUnLCAnPG91dGZpbGUubWFlPic=

> <r_lp_tautomer_probability>
0.107061

> <r_epik_Ionization_Penalty>
1.51515

> <r_epik_Ionization_Penalty_Charging>
1.51478

> <r_epik_Ionization_Penalty_Neutral>
0.000369309

> <r_epik_State_Penalty>
2.62718

> <r_epik_Charging_Adjusted_Penalty>
4.14196

> <i_epik_Tot_Q>
0

> <i_epik_Tot_abs_Q>
0

> <r_epik_Metal_State_Penalty>
3.5378

> <b_epik_Metal_Only>
0

> <s_lp_Force_Field>
OPLS_2005

> <r_lp_Energy>
36.8038

> <b_lp_Chiralities_Consistent>
1

> <s_lp_Variant>
AV-unprocessed.smi:2499-7

> <Gold.Version>
5.8.1

> <Gold.Id.Protein>
6NUR|6NUR_protein|mol2

> <Gold.PLP.Fitness>
40.1206

> <Gold.PLP.PLP>
-31.7267

> <Gold.PLP.part.hbond>
-1.0000

> <Gold.PLP.part.metal>
0.0000

> <Gold.PLP.part.buried>
-5.3944

> <Gold.PLP.part.nonpolar>
-25.8165

> <Gold.PLP.part.repulsive>
0.3059

> <Gold.PLP.ligand.clash>
0.0000

> <Gold.PLP.ligand.torsion>
0.7371

> <Gold.PLP.Chemscore.Hbond>
1.0000

> <Gold.PLP.Chemscore.CHOScore>
1.9345

> <Gold.PLP.Chemscore.Metal>
0.0000

> <Gold.Chemscore.Hbonds>
donor molecule, donor type, donor heavy atom, donor atom, acceptor molecule, acceptor atom, score
      P1  H  7989  7998       L1    11  0.85
      L1  C    10    22       P1  7948  1.00
      L1  C    10    22       P1  7949  0.01
      L1  C    10    22       P1  7957  0.90

> <Gold.PLP.Chemscore.Internal.Correction>
1.0644

> <Gold.Rescore>
     Score         DG    S(hbond)    S(metal)    S(lipo)     H(rot)  DE(clash)    DE(int)     intcor
     12.46     -14.37       0.93        0.00      77.69       1.29       0.00       1.91       ----

> <Gold.Chemscore.Fitness>
12.4558

> <Gold.Chemscore.DG>
-14.3654

> <Gold.Chemscore.ZeroCoef>
-5.4800

> <Gold.Chemscore.Hbond>
0.9287

> <Gold.Chemscore.Metal>
0.0000

> <Gold.Chemscore.Lipo>
77.6902

> <Gold.Chemscore.Internal_Hbond>
0.0000

> <Gold.Chemscore.DEClash>
0.0009

> <Gold.Chemscore.DEInternal>
1.9087

> <Gold.Chemscore.Rot>
1.2915

> <Gold.Chemscore.Internal.Correction>
   9.000000E+99

> <Gold.Chemscore.Hbonds>
donor molecule, donor type, donor heavy atom, donor atom, acceptor molecule, acceptor atom, score
      P1  H  7989  7998       L1    11  0.09

> <Gold.Chemscore.Hbond.Weighted>
-3.1019

> <Gold.Chemscore.Metal.Weighted>
-0.0000

> <Gold.Chemscore.Lipo.Weighted>
-9.0898

> <Gold.Chemscore.Internal_Hbond.Weighted>
0.0000

> <Gold.Chemscore.DEClash.Weighted>
0.0009

> <Gold.Chemscore.DEInternal.Weighted>
1.9087

> <Gold.Chemscore.Rot.Weighted>
3.3062

> <Gold.Chemscore.Internal.Correction.Weighted>
   9.000000E+99

> <Gold.Protein.RotatedTorsions>
[ 6907 6896 6895 6894 ] final -134.83 input  -60.11 | X-H torsion
[ 7974 7965 7964 7962 ] final   64.55 input  175.53 | X-H torsion
[ 8008 7997 7996 7995 ] final  -62.72 input   59.86 | X-H torsion
[ 10167 10162 10161 10158 ] final   94.93 input  -65.29 | X-H torsion
[ 10718 10713 10712 10709 ] final  162.62 input   66.30 | X-H torsion
[ 10763 10752 10751 10750 ] final    2.82 input  -60.55 | X-H torsion
[ 11005 11000 10999 10996 ] final -131.49 input  -57.11 | X-H torsion

> <Gold.Protein.ActiveResidues>
 VAL166  LYS551  ARG553  GLY616  TRP617  ASP618  TYR619  PRO620  LYS621  CYS622 
 ASP623  PHE694  ASN695  SER759  ASP760  ASP761  ALA762  ILE779  LEU786  VAL792 
 PHE793  MET794  SER795  GLU796  ALA797  LYS798  CYS799  TRP800  GLU811  SER814 

> <Gold.Protein.RotatedAtoms>
  150.9905  133.6154  159.2708 H   0  0  0  0  0  0  0  0  0  0  0  0  # atno 6907 bound_to 6896
  151.3377  135.0855  159.9370 H   0  0  0  0  0  0  0  0  0  0  0  0  # atno 6908 bound_to 6896
  152.5244  133.9522  159.7732 H   0  0  0  0  0  0  0  0  0  0  0  0  # atno 6909 bound_to 6896
  145.8488  139.3241  143.0887 H   0  0  0  0  0  0  0  0  0  0  0  0  # atno 7974 bound_to 7965
  154.4515  140.0990  156.6630 H   0  0  0  0  0  0  0  0  0  0  0  0  # atno 8008 bound_to 7997
  155.5272  140.3480  155.4400 H   0  0  0  0  0  0  0  0  0  0  0  0  # atno 8009 bound_to 7997
  156.0690  140.1344  156.9841 H   0  0  0  0  0  0  0  0  0  0  0  0  # atno 8010 bound_to 7997
  139.8037  144.6803  150.9731 H   0  0  0  0  0  0  0  0  0  0  0  0  # atno 10167 bound_to 10162
  157.1199  131.0490  151.2419 H   0  0  0  0  0  0  0  0  0  0  0  0  # atno 10718 bound_to 10713
  153.2908  135.6948  153.7295 H   0  0  0  0  0  0  0  0  0  0  0  0  # atno 10763 bound_to 10752
  153.6246  135.3421  155.3023 H   0  0  0  0  0  0  0  0  0  0  0  0  # atno 10764 bound_to 10752
  154.8523  135.4394  154.1990 H   0  0  0  0  0  0  0  0  0  0  0  0  # atno 10765 bound_to 10752
  140.9254  134.1390  157.4280 H   0  0  0  0  0  0  0  0  0  0  0  0  # atno 11005 bound_to 11000
  145.9381  140.9000  143.0322 LP  0  0  0  0  0  0  0  0  0  0  0  0  # atno 17320 bound_to 7965
  144.6730  140.1510  143.7430 LP  0  0  0  0  0  0  0  0  0  0  0  0  # atno 17321 bound_to 7965
  140.7819  143.4255  151.0774 LP  0  0  0  0  0  0  0  0  0  0  0  0  # atno 17342 bound_to 10162
  139.7926  143.8197  152.3153 LP  0  0  0  0  0  0  0  0  0  0  0  0  # atno 17343 bound_to 10162
  157.4485  130.7585  149.7131 LP  0  0  0  0  0  0  0  0  0  0  0  0  # atno 17370 bound_to 10713
  155.9831  130.4004  150.3382 LP  0  0  0  0  0  0  0  0  0  0  0  0  # atno 17371 bound_to 10713
  139.8784  134.9986  156.5910 LP  0  0  0  0  0  0  0  0  0  0  0  0  # atno 17394 bound_to 11000
  140.7933  133.8564  155.8665 LP  0  0  0  0  0  0  0  0  0  0  0  0  # atno 17395 bound_to 11000

$$$$
