AV-unprocessed.smi:1522|AV-procd|sdf|6135|dock5
  -GOLD-   22720 6273D 1   1.00000     0.00000
 Structure written by MMmdl.
 35 36  0  0  0  0  0  0  0  0  2 V2000
  147.4012  139.5335  153.4648 C   0  0  0  0  0  0  0  0  0  0  0  0
  147.8178  138.4968  154.5326 C   0  0  1  0  0  0  0  0  0  0  0  0
  146.7947  137.3378  154.6056 C   0  0  0  0  0  0  0  0  0  0  0  0
  146.8948  136.4438  153.4560 N   0  0  0  0  0  0  0  0  0  0  0  0
  145.9286  135.6072  153.0518 C   0  0  0  0  0  0  0  0  0  0  0  0
  144.8351  135.5165  153.6100 O   0  0  0  0  0  0  0  0  0  0  0  0
  146.3151  134.8978  151.9768 N   0  0  0  0  0  0  0  0  0  0  0  0
  145.5902  133.8967  151.2772 C   0  0  0  0  0  0  0  0  0  0  0  0
  144.2607  133.7375  151.3715 N   0  0  0  0  0  0  0  0  0  0  0  0
  143.8065  132.6847  150.5880 N   0  0  0  0  0  0  0  0  0  0  0  0
  144.8098  132.0916  149.9350 C   0  0  0  0  0  0  0  0  0  0  0  0
  146.4082  132.7611  150.2134 S   0  0  0  0  0  0  0  0  0  0  0  0
  149.1932  137.9809  154.2665 N   0  3  0  0  0  0  0  0  0  0  0  0
  150.2418  139.0158  154.1339 C   0  0  0  0  0  0  0  0  0  0  0  0
  151.5771  138.2985  154.3448 C   0  0  0  0  0  0  0  0  0  0  0  0
  151.2348  137.0069  155.0912 C   0  0  0  0  0  0  0  0  0  0  0  0
  149.7145  137.0252  155.2681 C   0  0  0  0  0  0  0  0  0  0  0  0
  146.3960  139.9167  153.6406 H   0  0  0  0  0  0  0  0  0  0  0  0
  147.4157  139.0978  152.4652 H   0  0  0  0  0  0  0  0  0  0  0  0
  148.0585  140.4028  153.4604 H   0  0  0  0  0  0  0  0  0  0  0  0
  147.8315  138.9994  155.5012 H   0  0  0  0  0  0  0  0  0  0  0  0
  146.9409  136.7859  155.5360 H   0  0  0  0  0  0  0  0  0  0  0  0
  145.7724  137.7159  154.6199 H   0  0  0  0  0  0  0  0  0  0  0  0
  147.7598  136.4606  152.9356 H   0  0  0  0  0  0  0  0  0  0  0  0
  147.2402  135.0885  151.6211 H   0  0  0  0  0  0  0  0  0  0  0  0
  144.6067  131.2538  149.2845 H   0  0  0  0  0  0  0  0  0  0  0  0
  150.2029  139.5145  153.1650 H   0  0  0  0  0  0  0  0  0  0  0  0
  150.1076  139.7719  154.9093 H   0  0  0  0  0  0  0  0  0  0  0  0
  152.0345  138.0596  153.3838 H   0  0  0  0  0  0  0  0  0  0  0  0
  152.2820  138.9196  154.8983 H   0  0  0  0  0  0  0  0  0  0  0  0
  151.5376  136.1441  154.4964 H   0  0  0  0  0  0  0  0  0  0  0  0
  151.7469  136.9393  156.0516 H   0  0  0  0  0  0  0  0  0  0  0  0
  149.4682  137.3782  156.2709 H   0  0  0  0  0  0  0  0  0  0  0  0
  149.2848  136.0306  155.1448 H   0  0  0  0  0  0  0  0  0  0  0  0
  149.1676  137.4861  153.3862 H   0  0  0  0  0  0  0  0  0  0  0  0
  1  2  1  0  0  0  0
  1 18  1  0  0  0  0
  1 19  1  0  0  0  0
  1 20  1  0  0  0  0
  2  3  1  0  0  0  0
  2 13  1  0  0  0  0
  2 21  1  0  0  0  0
  3  4  1  0  0  0  0
  3 22  1  0  0  0  0
  3 23  1  0  0  0  0
  4  5  1  0  0  0  0
  4 24  1  0  0  0  0
  5  6  2  0  0  0  0
  5  7  1  0  0  0  0
  7  8  1  0  0  0  0
  7 25  1  0  0  0  0
  8 12  1  0  0  0  0
  8  9  2  0  0  0  0
  9 10  1  0  0  0  0
 10 11  2  0  0  0  0
 11 12  1  0  0  0  0
 11 26  1  0  0  0  0
 13 17  1  0  0  0  0
 13 14  1  0  0  0  0
 13 35  1  0  0  0  0
 14 15  1  0  0  0  0
 14 27  1  0  0  0  0
 14 28  1  0  0  0  0
 15 16  1  0  0  0  0
 15 29  1  0  0  0  0
 15 30  1  0  0  0  0
 16 17  1  0  0  0  0
 16 31  1  0  0  0  0
 16 32  1  0  0  0  0
 17 33  1  0  0  0  0
 17 34  1  0  0  0  0
M  CHG  1  13   1
M  END
> <s_m_source_file>
AV-unprocessed.smi

> <i_m_source_file_index>
1522

> <i_lp_mmshare_version>
43012

> <i_f3d_flags>
0

> <s_epik_input>
W0NIMl0xW0NIMl1bQ0gyXVtDSDJdTjFbQ0BIXShbQ0gzXSlbQ0gyXVtOSF1DKD1PKVtOSF1jMm5uW2NIXXMy

> <s_epik_cmdline>
J2VwaWtfcHl0aG9uJywgJy1waCcsICc3LjAnLCAnLXRuJywgJzgnLCAnLW1hJywgJzIwMCcsICctbWV0YWxfYmluZGluZycsICctaW1hZScsICc8aW5maWxlLm1hZT4nLCAnLW9tYWUnLCAnPG91dGZpbGUubWFlPic=

> <r_lp_tautomer_probability>
1

> <r_epik_Ionization_Penalty>
0.00457064

> <r_epik_Ionization_Penalty_Charging>
0.000848324

> <r_epik_Ionization_Penalty_Neutral>
0.00372231

> <r_epik_State_Penalty>
-0

> <r_epik_Charging_Adjusted_Penalty>
0.000848324

> <i_epik_Tot_Q>
1

> <i_epik_Tot_abs_Q>
1

> <r_epik_Metal_State_Penalty>
0.370178

> <b_epik_Metal_Only>
0

> <s_lp_Force_Field>
OPLS_2005

> <r_lp_Energy>
30.6198

> <b_lp_Chiralities_Consistent>
1

> <s_lp_Variant>
AV-unprocessed.smi:1522-2

> <Gold.Version>
5.8.1

> <Gold.Id.Protein>
6NUR|6NUR_protein|mol2

> <Gold.PLP.Fitness>
35.7475

> <Gold.PLP.PLP>
-24.4823

> <Gold.PLP.part.hbond>
-3.0000

> <Gold.PLP.part.metal>
0.0000

> <Gold.PLP.part.buried>
-3.4055

> <Gold.PLP.part.nonpolar>
-18.3092

> <Gold.PLP.part.repulsive>
0.4226

> <Gold.PLP.ligand.clash>
0.0000

> <Gold.PLP.ligand.torsion>
0.2895

> <Gold.PLP.Chemscore.Hbond>
3.9357

> <Gold.PLP.Chemscore.CHOScore>
0.0000

> <Gold.PLP.Chemscore.Metal>
0.0000

> <Gold.Chemscore.Hbonds>
donor molecule, donor type, donor heavy atom, donor atom, acceptor molecule, acceptor atom, score
      L1  H     4    24       P1  7948  1.00
      L1  H     7    25       P1  7948  0.94
      L1  H    13    35       P1  7948  2.00

> <Gold.PLP.Chemscore.Internal.Correction>
0.0370

> <Gold.Rescore>
     Score         DG    S(hbond)    S(metal)    S(lipo)     H(rot)  DE(clash)    DE(int)     intcor
     15.57     -17.06       2.77        0.00      57.30       1.70       0.00       1.48       ----

> <Gold.Chemscore.Fitness>
15.5749

> <Gold.Chemscore.DG>
-17.0595

> <Gold.Chemscore.ZeroCoef>
-5.4800

> <Gold.Chemscore.Hbond>
2.7650

> <Gold.Chemscore.Metal>
0.0000

> <Gold.Chemscore.Lipo>
57.2953

> <Gold.Chemscore.Internal_Hbond>
0.0000

> <Gold.Chemscore.DEClash>
0.0015

> <Gold.Chemscore.DEInternal>
1.4832

> <Gold.Chemscore.Rot>
1.7028

> <Gold.Chemscore.Internal.Correction>
   9.000000E+99

> <Gold.Chemscore.Hbonds>
donor molecule, donor type, donor heavy atom, donor atom, acceptor molecule, acceptor atom, score
      L1  H     4    24       P1  7948  0.99
      L1  H     7    25       P1  7948  0.75
      L1  H    13    35       P1  7948  0.98

> <Gold.Chemscore.Hbond.Weighted>
-9.2351

> <Gold.Chemscore.Metal.Weighted>
-0.0000

> <Gold.Chemscore.Lipo.Weighted>
-6.7036

> <Gold.Chemscore.Internal_Hbond.Weighted>
0.0000

> <Gold.Chemscore.DEClash.Weighted>
0.0015

> <Gold.Chemscore.DEInternal.Weighted>
1.4832

> <Gold.Chemscore.Rot.Weighted>
4.3592

> <Gold.Chemscore.Internal.Correction.Weighted>
   9.000000E+99

> <Gold.Protein.RotatedTorsions>
[ 6907 6896 6895 6894 ] final  150.40 input  -60.11 | X-H torsion
[ 7974 7965 7964 7962 ] final   11.31 input  175.53 | X-H torsion
[ 8008 7997 7996 7995 ] final   89.64 input   59.86 | X-H torsion
[ 10167 10162 10161 10158 ] final  149.79 input  -65.29 | X-H torsion
[ 10718 10713 10712 10709 ] final  133.67 input   66.30 | X-H torsion
[ 10763 10752 10751 10750 ] final   -9.19 input  -60.55 | X-H torsion
[ 11005 11000 10999 10996 ] final   -4.69 input  -57.11 | X-H torsion

> <Gold.Protein.ActiveResidues>
 VAL166  LYS551  ARG553  GLY616  TRP617  ASP618  TYR619  PRO620  LYS621  CYS622 
 ASP623  PHE694  ASN695  SER759  ASP760  ASP761  ALA762  ILE779  LEU786  VAL792 
 PHE793  MET794  SER795  GLU796  ALA797  LYS798  CYS799  TRP800  GLU811  SER814 

> <Gold.Protein.RotatedAtoms>
  152.1149  133.4321  159.4648 H   0  0  0  0  0  0  0  0  0  0  0  0  # atno 6907 bound_to 6896
  150.6869  134.2604  159.4556 H   0  0  0  0  0  0  0  0  0  0  0  0  # atno 6908 bound_to 6896
  152.0476  134.9673  160.0625 H   0  0  0  0  0  0  0  0  0  0  0  0  # atno 6909 bound_to 6896
  146.2373  139.9504  142.8471 H   0  0  0  0  0  0  0  0  0  0  0  0  # atno 7974 bound_to 7965
  156.0024  140.3358  155.6858 H   0  0  0  0  0  0  0  0  0  0  0  0  # atno 8008 bound_to 7997
  155.6272  140.0681  157.2678 H   0  0  0  0  0  0  0  0  0  0  0  0  # atno 8009 bound_to 7997
  154.4253  140.1766  156.1421 H   0  0  0  0  0  0  0  0  0  0  0  0  # atno 8010 bound_to 7997
  139.4857  144.5574  151.7293 H   0  0  0  0  0  0  0  0  0  0  0  0  # atno 10167 bound_to 10162
  157.4750  131.1082  150.9755 H   0  0  0  0  0  0  0  0  0  0  0  0  # atno 10718 bound_to 10713
  153.4512  135.7015  153.6107 H   0  0  0  0  0  0  0  0  0  0  0  0  # atno 10763 bound_to 10752
  153.4441  135.3773  155.2246 H   0  0  0  0  0  0  0  0  0  0  0  0  # atno 10764 bound_to 10752
  154.8728  135.3981  154.3925 H   0  0  0  0  0  0  0  0  0  0  0  0  # atno 10765 bound_to 10752
  140.6830  133.9137  155.8567 H   0  0  0  0  0  0  0  0  0  0  0  0  # atno 11005 bound_to 11000
  145.1866  140.9792  143.4235 LP  0  0  0  0  0  0  0  0  0  0  0  0  # atno 17320 bound_to 7965
  144.9894  139.3704  143.6222 LP  0  0  0  0  0  0  0  0  0  0  0  0  # atno 17321 bound_to 7965
  140.5137  144.0985  150.6002 LP  0  0  0  0  0  0  0  0  0  0  0  0  # atno 17342 bound_to 10162
  140.3920  143.2748  152.0049 LP  0  0  0  0  0  0  0  0  0  0  0  0  # atno 17343 bound_to 10162
  157.0507  130.5786  149.5370 LP  0  0  0  0  0  0  0  0  0  0  0  0  # atno 17370 bound_to 10713
  156.0092  130.5182  150.7933 LP  0  0  0  0  0  0  0  0  0  0  0  0  # atno 17371 bound_to 10713
  141.0303  134.0766  157.4022 LP  0  0  0  0  0  0  0  0  0  0  0  0  # atno 17394 bound_to 11000
  139.8946  135.0137  156.6959 LP  0  0  0  0  0  0  0  0  0  0  0  0  # atno 17395 bound_to 11000

$$$$
