AV-unprocessed.smi:2518|AV-procd|sdf|9902|dock4
  -GOLD-   2272013543D 1   1.00000     0.00000
 Structure written by MMmdl.
 41 43  0  0  0  0  0  0  0  0  1 V2000
  152.0025  145.2918  159.1664 C   0  0  0  0  0  0  0  0  0  0  0  0
  151.7865  143.7930  159.1310 C   0  0  0  0  0  0  0  0  0  0  0  0
  152.4641  142.9548  160.0383 C   0  0  0  0  0  0  0  0  0  0  0  0
  152.2616  141.5619  159.9994 C   0  0  0  0  0  0  0  0  0  0  0  0
  151.3840  140.9849  159.0587 C   0  0  0  0  0  0  0  0  0  0  0  0
  151.2458  139.6137  159.0919 O   0  0  0  0  0  0  0  0  0  0  0  0
  150.9047  138.9442  157.8857 C   0  0  0  0  0  0  0  0  0  0  0  0
  150.4543  137.5096  158.2169 C   0  0  1  0  0  0  0  0  0  0  0  0
  151.1199  137.0922  159.3918 O   0  0  0  0  0  0  0  0  0  0  0  0
  148.9406  137.3753  158.4820 C   0  0  0  0  0  0  0  0  0  0  0  0
  148.5122  135.9954  158.6573 N   0  0  0  0  0  0  0  0  0  0  0  0
  148.7557  135.0919  157.6735 N   0  0  0  0  0  0  0  0  0  0  0  0
  148.2626  133.9353  158.1117 C   0  0  0  0  0  0  0  0  0  0  0  0
  147.6795  134.0598  159.4024 C   0  0  0  0  0  0  0  0  0  0  0  0
  147.0123  133.1494  160.3280 C   0  0  0  0  0  0  0  0  0  0  0  0
  146.5871  133.6251  161.4564 N   0  0  0  0  0  0  0  0  0  0  0  0
  146.7568  134.9744  161.7873 N   0  0  0  0  0  0  0  0  0  0  0  0
  146.2151  135.3580  163.0888 C   0  0  0  0  0  0  0  0  0  0  0  0
  147.3595  135.9078  160.9908 C   0  0  0  0  0  0  0  0  0  0  0  0
  147.4794  137.0955  161.2912 O   0  0  0  0  0  0  0  0  0  0  0  0
  147.8592  135.3700  159.7021 C   0  0  0  0  0  0  0  0  0  0  0  0
  150.7065  141.8342  158.1470 C   0  0  0  0  0  0  0  0  0  0  0  0
  150.9090  143.2275  158.1850 C   0  0  0  0  0  0  0  0  0  0  0  0
  152.3844  145.6115  160.1365 H   0  0  0  0  0  0  0  0  0  0  0  0
  151.0662  145.8195  158.9820 H   0  0  0  0  0  0  0  0  0  0  0  0
  152.7203  145.5868  158.4007 H   0  0  0  0  0  0  0  0  0  0  0  0
  153.1416  143.3756  160.7668 H   0  0  0  0  0  0  0  0  0  0  0  0
  152.7863  140.9287  160.6997 H   0  0  0  0  0  0  0  0  0  0  0  0
  150.1268  139.4759  157.3347 H   0  0  0  0  0  0  0  0  0  0  0  0
  151.7978  138.9187  157.2620 H   0  0  0  0  0  0  0  0  0  0  0  0
  150.7312  136.8408  157.4008 H   0  0  0  0  0  0  0  0  0  0  0  0
  151.8332  137.6884  159.5609 H   0  0  0  0  0  0  0  0  0  0  0  0
  148.6737  137.9270  159.3850 H   0  0  0  0  0  0  0  0  0  0  0  0
  148.3658  137.8290  157.6753 H   0  0  0  0  0  0  0  0  0  0  0  0
  148.3430  133.0586  157.4861 H   0  0  0  0  0  0  0  0  0  0  0  0
  146.8783  132.0986  160.0717 H   0  0  0  0  0  0  0  0  0  0  0  0
  146.9919  135.7995  163.7151 H   0  0  0  0  0  0  0  0  0  0  0  0
  145.8034  134.5038  163.6289 H   0  0  0  0  0  0  0  0  0  0  0  0
  145.4155  136.0903  162.9685 H   0  0  0  0  0  0  0  0  0  0  0  0
  150.0258  141.4419  157.4067 H   0  0  0  0  0  0  0  0  0  0  0  0
  150.3869  143.8619  157.4837 H   0  0  0  0  0  0  0  0  0  0  0  0
  1  2  1  0  0  0  0
  1 24  1  0  0  0  0
  1 25  1  0  0  0  0
  1 26  1  0  0  0  0
  2 23  1  0  0  0  0
  2  3  2  0  0  0  0
  3  4  1  0  0  0  0
  3 27  1  0  0  0  0
  4  5  2  0  0  0  0
  4 28  1  0  0  0  0
  5  6  1  0  0  0  0
  5 22  1  0  0  0  0
  6  7  1  0  0  0  0
  7  8  1  0  0  0  0
  7 29  1  0  0  0  0
  7 30  1  0  0  0  0
  8  9  1  0  0  0  0
  8 10  1  0  0  0  0
  8 31  1  0  0  0  0
  9 32  1  0  0  0  0
 10 11  1  0  0  0  0
 10 33  1  0  0  0  0
 10 34  1  0  0  0  0
 11 21  1  0  0  0  0
 11 12  1  0  0  0  0
 12 13  2  0  0  0  0
 13 14  1  0  0  0  0
 13 35  1  0  0  0  0
 14 21  2  0  0  0  0
 14 15  1  0  0  0  0
 15 16  2  0  0  0  0
 15 36  1  0  0  0  0
 16 17  1  0  0  0  0
 17 18  1  0  0  0  0
 17 19  1  0  0  0  0
 18 37  1  0  0  0  0
 18 38  1  0  0  0  0
 18 39  1  0  0  0  0
 19 20  2  0  0  0  0
 19 21  1  0  0  0  0
 22 23  2  0  0  0  0
 22 40  1  0  0  0  0
 23 41  1  0  0  0  0
M  END
> <s_m_source_file>
AV-unprocessed.smi

> <i_m_source_file_index>
2518

> <i_lp_mmshare_version>
43012

> <i_f3d_flags>
0

> <s_epik_input>
W0NIM11jMVtjSF1bY0hdYyhbY0hdW2NIXTEpT1tDSDJdW0NASF0oW09IXSlbQ0gyXW4obltjSF0yKWMoYzIzKWMoPU8pbihbQ0gzXSluW2NIXTM=

> <s_epik_cmdline>
J2VwaWtfcHl0aG9uJywgJy1waCcsICc3LjAnLCAnLXRuJywgJzgnLCAnLW1hJywgJzIwMCcsICctbWV0YWxfYmluZGluZycsICctaW1hZScsICc8aW5maWxlLm1hZT4nLCAnLW9tYWUnLCAnPG91dGZpbGUubWFlPic=

> <r_lp_tautomer_probability>
1

> <r_epik_Ionization_Penalty>
2.246e-06

> <r_epik_Ionization_Penalty_Charging>
1.41975e-10

> <r_epik_Ionization_Penalty_Neutral>
2.24586e-06

> <r_epik_State_Penalty>
-0

> <r_epik_Charging_Adjusted_Penalty>
1.41975e-10

> <i_epik_Tot_Q>
0

> <i_epik_Tot_abs_Q>
0

> <r_epik_Metal_State_Penalty>
-0

> <b_epik_Metal_Only>
0

> <s_lp_Force_Field>
OPLS_2005

> <r_lp_Energy>
31.8709

> <b_lp_Chiralities_Consistent>
1

> <s_lp_Variant>
AV-unprocessed.smi:2518-2

> <Gold.Version>
5.8.1

> <Gold.Id.Protein>
6NUR|6NUR_protein|mol2

> <Gold.PLP.Fitness>
49.7358

> <Gold.PLP.PLP>
-42.8655

> <Gold.PLP.part.hbond>
-3.1539

> <Gold.PLP.part.metal>
0.0000

> <Gold.PLP.part.buried>
-6.2078

> <Gold.PLP.part.nonpolar>
-34.4033

> <Gold.PLP.part.repulsive>
0.0000

> <Gold.PLP.ligand.clash>
0.0000

> <Gold.PLP.ligand.torsion>
0.8307

> <Gold.PLP.Chemscore.Hbond>
2.8320

> <Gold.PLP.Chemscore.CHOScore>
0.0000

> <Gold.PLP.Chemscore.Metal>
0.0000

> <Gold.Chemscore.Hbonds>
donor molecule, donor type, donor heavy atom, donor atom, acceptor molecule, acceptor atom, score
      P1  H  6896  6907       L1     9  1.00
      P1  H  6931  6943       L1    20  0.94
      P1  H  6934  6947       L1    20  0.94

> <Gold.PLP.Chemscore.Internal.Correction>
0.0357

> <Gold.Rescore>
     Score         DG    S(hbond)    S(metal)    S(lipo)     H(rot)  DE(clash)    DE(int)     intcor
     19.80     -20.94       2.76        0.00     104.80       2.35       0.23       0.91       ----

> <Gold.Chemscore.Fitness>
19.7971

> <Gold.Chemscore.DG>
-20.9372

> <Gold.Chemscore.ZeroCoef>
-5.4800

> <Gold.Chemscore.Hbond>
2.7573

> <Gold.Chemscore.Metal>
0.0000

> <Gold.Chemscore.Lipo>
104.7981

> <Gold.Chemscore.Internal_Hbond>
0.0000

> <Gold.Chemscore.DEClash>
0.2252

> <Gold.Chemscore.DEInternal>
0.9149

> <Gold.Chemscore.Rot>
2.3490

> <Gold.Chemscore.Internal.Correction>
   9.000000E+99

> <Gold.Chemscore.Hbonds>
donor molecule, donor type, donor heavy atom, donor atom, acceptor molecule, acceptor atom, score
      P1  H  6896  6907       L1     9  0.89
      P1  H  6931  6943       L1    20  0.86
      P1  H  6934  6947       L1    20  0.89

> <Gold.Chemscore.Hbond.Weighted>
-9.2094

> <Gold.Chemscore.Metal.Weighted>
-0.0000

> <Gold.Chemscore.Lipo.Weighted>
-12.2614

> <Gold.Chemscore.Internal_Hbond.Weighted>
0.0000

> <Gold.Chemscore.DEClash.Weighted>
0.2252

> <Gold.Chemscore.DEInternal.Weighted>
0.9149

> <Gold.Chemscore.Rot.Weighted>
6.0136

> <Gold.Chemscore.Internal.Correction.Weighted>
   9.000000E+99

> <Gold.Protein.RotatedTorsions>
[ 6907 6896 6895 6894 ] final  -10.90 input  -60.11 | X-H torsion
[ 7974 7965 7964 7962 ] final   38.61 input  175.53 | X-H torsion
[ 8008 7997 7996 7995 ] final  -16.95 input   59.86 | X-H torsion
[ 10167 10162 10161 10158 ] final  143.64 input  -65.29 | X-H torsion
[ 10718 10713 10712 10709 ] final  121.34 input   66.30 | X-H torsion
[ 10763 10752 10751 10750 ] final -124.80 input  -60.55 | X-H torsion
[ 11005 11000 10999 10996 ] final -120.29 input  -57.11 | X-H torsion

> <Gold.Protein.ActiveResidues>
 VAL166  LYS551  ARG553  GLY616  TRP617  ASP618  TYR619  PRO620  LYS621  CYS622 
 ASP623  PHE694  ASN695  SER759  ASP760  ASP761  ALA762  ILE779  LEU786  VAL792 
 PHE793  MET794  SER795  GLU796  ALA797  LYS798  CYS799  TRP800  GLU811  SER814 

> <Gold.Protein.RotatedAtoms>
  151.3946  135.0961  159.9536 H   0  0  0  0  0  0  0  0  0  0  0  0  # atno 6907 bound_to 6896
  152.5069  133.8947  159.7421 H   0  0  0  0  0  0  0  0  0  0  0  0  # atno 6908 bound_to 6896
  150.9407  133.6603  159.2820 H   0  0  0  0  0  0  0  0  0  0  0  0  # atno 6909 bound_to 6896
  146.1049  139.5752  142.9390 H   0  0  0  0  0  0  0  0  0  0  0  0  # atno 7974 bound_to 7965
  154.5015  140.2156  155.9337 H   0  0  0  0  0  0  0  0  0  0  0  0  # atno 8008 bound_to 7997
  156.1439  140.3174  155.8507 H   0  0  0  0  0  0  0  0  0  0  0  0  # atno 8009 bound_to 7997
  155.4067  140.0488  157.3024 H   0  0  0  0  0  0  0  0  0  0  0  0  # atno 8010 bound_to 7997
  139.4965  144.6026  151.6447 H   0  0  0  0  0  0  0  0  0  0  0  0  # atno 10167 bound_to 10162
  157.5824  131.1073  150.8160 H   0  0  0  0  0  0  0  0  0  0  0  0  # atno 10718 bound_to 10713
  154.8728  135.4051  154.3165 H   0  0  0  0  0  0  0  0  0  0  0  0  # atno 10763 bound_to 10752
  153.4000  135.7017  153.6438 H   0  0  0  0  0  0  0  0  0  0  0  0  # atno 10764 bound_to 10752
  153.5185  135.3692  155.2591 H   0  0  0  0  0  0  0  0  0  0  0  0  # atno 10765 bound_to 10752
  141.0154  134.0202  157.3356 H   0  0  0  0  0  0  0  0  0  0  0  0  # atno 11005 bound_to 11000
  145.5781  141.0386  143.2137 LP  0  0  0  0  0  0  0  0  0  0  0  0  # atno 17320 bound_to 7965
  144.7462  139.7313  143.7291 LP  0  0  0  0  0  0  0  0  0  0  0  0  # atno 17321 bound_to 7965
  140.5680  144.0157  150.6202 LP  0  0  0  0  0  0  0  0  0  0  0  0  # atno 17342 bound_to 10162
  140.3265  143.3104  152.0731 LP  0  0  0  0  0  0  0  0  0  0  0  0  # atno 17343 bound_to 10162
  156.8603  130.5111  149.5304 LP  0  0  0  0  0  0  0  0  0  0  0  0  # atno 17370 bound_to 10713
  156.0871  130.5867  150.9668 LP  0  0  0  0  0  0  0  0  0  0  0  0  # atno 17371 bound_to 10713
  139.9114  135.0190  156.7707 LP  0  0  0  0  0  0  0  0  0  0  0  0  # atno 17394 bound_to 11000
  140.6663  133.9600  155.7832 LP  0  0  0  0  0  0  0  0  0  0  0  0  # atno 17395 bound_to 11000

$$$$
