AV-unprocessed.smi:1885|AV-procd|sdf|7653|dock2
  -GOLD-   22720 9383D 1   1.00000     0.00000
 Structure written by MMmdl.
 44 46  0  0  0  0  0  0  0  0  2 V2000
  149.6301  130.0101  154.3120 C   0  0  0  0  0  0  0  0  0  0  0  0
  149.1966  131.2917  153.8800 O   0  0  0  0  0  0  0  0  0  0  0  0
  149.6576  132.3970  154.5629 C   0  0  0  0  0  0  0  0  0  0  0  0
  150.5952  132.3433  155.6248 C   0  0  0  0  0  0  0  0  0  0  0  0
  151.0129  133.5247  156.2681 C   0  0  0  0  0  0  0  0  0  0  0  0
  150.4996  134.7750  155.8688 C   0  0  0  0  0  0  0  0  0  0  0  0
  150.9769  136.0416  156.5554 C   0  0  0  0  0  0  0  0  0  0  0  0
  152.3631  136.2755  156.3605 O   0  0  0  0  0  0  0  0  0  0  0  0
  152.8672  137.3101  157.1890 C   0  0  0  0  0  0  0  0  0  0  0  0
  152.4969  138.6734  156.5766 C   0  0  1  0  0  0  0  0  0  0  0  0
  152.6908  138.6052  155.1792 O   0  0  0  0  0  0  0  0  0  0  0  0
  151.0299  139.0873  156.8098 C   0  0  0  0  0  0  0  0  0  0  0  0
  150.8365  140.5447  156.8078 N   0  0  0  0  0  0  0  0  0  0  0  0
  150.1084  141.3159  155.9550 C   0  0  0  0  0  0  0  0  0  0  0  0
  150.2289  142.6091  156.3638 N   0  3  0  0  0  0  0  0  0  0  0  0
  151.0456  142.6666  157.4950 C   0  0  0  0  0  0  0  0  0  0  0  0
  151.4597  143.7494  158.2640 C   0  0  0  0  0  0  0  0  0  0  0  0
  152.3014  143.4659  159.3595 C   0  0  0  0  0  0  0  0  0  0  0  0
  152.7355  144.4835  160.1401 F   0  0  0  0  0  0  0  0  0  0  0  0
  152.7004  142.1453  159.6551 C   0  0  0  0  0  0  0  0  0  0  0  0
  153.5125  141.9168  160.7142 F   0  0  0  0  0  0  0  0  0  0  0  0
  152.2728  141.0552  158.8688 C   0  0  0  0  0  0  0  0  0  0  0  0
  151.4397  141.3435  157.7879 C   0  0  0  0  0  0  0  0  0  0  0  0
  149.5734  134.8346  154.8073 C   0  0  0  0  0  0  0  0  0  0  0  0
  149.1560  133.6531  154.1648 C   0  0  0  0  0  0  0  0  0  0  0  0
  149.1798  129.2457  153.6790 H   0  0  0  0  0  0  0  0  0  0  0  0
  149.3222  129.8099  155.3394 H   0  0  0  0  0  0  0  0  0  0  0  0
  150.7131  129.9074  154.2324 H   0  0  0  0  0  0  0  0  0  0  0  0
  151.0112  131.4069  155.9640 H   0  0  0  0  0  0  0  0  0  0  0  0
  151.7318  133.4662  157.0721 H   0  0  0  0  0  0  0  0  0  0  0  0
  150.4073  136.8909  156.1744 H   0  0  0  0  0  0  0  0  0  0  0  0
  150.7596  135.9543  157.6210 H   0  0  0  0  0  0  0  0  0  0  0  0
  152.4926  137.2228  158.2104 H   0  0  0  0  0  0  0  0  0  0  0  0
  153.9504  137.1973  157.2323 H   0  0  0  0  0  0  0  0  0  0  0  0
  153.1511  139.4476  156.9801 H   0  0  0  0  0  0  0  0  0  0  0  0
  152.1398  139.2513  154.7646 H   0  0  0  0  0  0  0  0  0  0  0  0
  150.4029  138.6891  156.0107 H   0  0  0  0  0  0  0  0  0  0  0  0
  150.6420  138.6654  157.7368 H   0  0  0  0  0  0  0  0  0  0  0  0
  149.5377  140.9649  155.1069 H   0  0  0  0  0  0  0  0  0  0  0  0
  151.1583  144.7621  158.0403 H   0  0  0  0  0  0  0  0  0  0  0  0
  152.5916  140.0514  159.1056 H   0  0  0  0  0  0  0  0  0  0  0  0
  149.1782  135.7847  154.4793 H   0  0  0  0  0  0  0  0  0  0  0  0
  148.4437  133.7122  153.3548 H   0  0  0  0  0  0  0  0  0  0  0  0
  149.7845  143.3925  155.9021 H   0  0  0  0  0  0  0  0  0  0  0  0
  1  2  1  0  0  0  0
  1 26  1  0  0  0  0
  1 27  1  0  0  0  0
  1 28  1  0  0  0  0
  2  3  1  0  0  0  0
  3 25  1  0  0  0  0
  3  4  2  0  0  0  0
  4  5  1  0  0  0  0
  4 29  1  0  0  0  0
  5  6  2  0  0  0  0
  5 30  1  0  0  0  0
  6  7  1  0  0  0  0
  6 24  1  0  0  0  0
  7  8  1  0  0  0  0
  7 31  1  0  0  0  0
  7 32  1  0  0  0  0
  8  9  1  0  0  0  0
  9 10  1  0  0  0  0
  9 33  1  0  0  0  0
  9 34  1  0  0  0  0
 10 11  1  0  0  0  0
 10 12  1  0  0  0  0
 10 35  1  0  0  0  0
 11 36  1  0  0  0  0
 12 13  1  0  0  0  0
 12 37  1  0  0  0  0
 12 38  1  0  0  0  0
 13 23  1  0  0  0  0
 13 14  1  0  0  0  0
 14 15  2  0  0  0  0
 14 39  1  0  0  0  0
 15 16  1  0  0  0  0
 15 44  1  0  0  0  0
 16 23  2  0  0  0  0
 16 17  1  0  0  0  0
 17 18  2  0  0  0  0
 17 40  1  0  0  0  0
 18 19  1  0  0  0  0
 18 20  1  0  0  0  0
 20 21  1  0  0  0  0
 20 22  2  0  0  0  0
 22 23  1  0  0  0  0
 22 41  1  0  0  0  0
 24 25  2  0  0  0  0
 24 42  1  0  0  0  0
 25 43  1  0  0  0  0
M  CHG  1  15   1
M  END
> <s_m_source_file>
AV-unprocessed.smi

> <i_m_source_file_index>
1885

> <i_lp_mmshare_version>
43012

> <i_f3d_flags>
0

> <s_epik_input>
W0NIM11PYzFbY0hdW2NIXWMoW2NIXVtjSF0xKVtDSDJdT1tDSDJdW0NASF0oW09IXSlbQ0gyXW4oW2NIXW4yKWMoYzIzKVtjSF1jKEYpYyhGKVtjSF0z

> <s_epik_cmdline>
J2VwaWtfcHl0aG9uJywgJy1waCcsICc3LjAnLCAnLXRuJywgJzgnLCAnLW1hJywgJzIwMCcsICctbWV0YWxfYmluZGluZycsICctaW1hZScsICc8aW5maWxlLm1hZT4nLCAnLW9tYWUnLCAnPG91dGZpbGUubWFlPic=

> <r_lp_tautomer_probability>
1

> <r_epik_Ionization_Penalty>
2.14697

> <r_epik_Ionization_Penalty_Charging>
2.14697

> <r_epik_Ionization_Penalty_Neutral>
9.74819e-07

> <r_epik_State_Penalty>
2.28651

> <r_epik_Charging_Adjusted_Penalty>
4.43348

> <i_epik_Tot_Q>
1

> <i_epik_Tot_abs_Q>
1

> <r_epik_Metal_State_Penalty>
6.36664

> <b_epik_Metal_Only>
0

> <s_lp_Force_Field>
OPLS_2005

> <r_lp_Energy>
25.0693

> <b_lp_Chiralities_Consistent>
1

> <s_lp_Variant>
AV-unprocessed.smi:1885-4

> <Gold.Version>
5.8.1

> <Gold.Id.Protein>
6NUR|6NUR_protein|mol2

> <Gold.PLP.Fitness>
58.3424

> <Gold.PLP.PLP>
-50.2589

> <Gold.PLP.part.hbond>
-2.0000

> <Gold.PLP.part.metal>
0.0000

> <Gold.PLP.part.buried>
-7.2959

> <Gold.PLP.part.nonpolar>
-41.7936

> <Gold.PLP.part.repulsive>
0.2000

> <Gold.PLP.ligand.clash>
0.0000

> <Gold.PLP.ligand.torsion>
0.6264

> <Gold.PLP.Chemscore.Hbond>
3.0000

> <Gold.PLP.Chemscore.CHOScore>
0.0000

> <Gold.PLP.Chemscore.Metal>
0.0000

> <Gold.Chemscore.Hbonds>
donor molecule, donor type, donor heavy atom, donor atom, acceptor molecule, acceptor atom, score
      L1  H    15    44       P1  8028  2.00
      P1  H 10752 10763       L1     8  1.00

> <Gold.PLP.Chemscore.Internal.Correction>
0.3362

> <Gold.Rescore>
     Score         DG    S(hbond)    S(metal)    S(lipo)     H(rot)  DE(clash)    DE(int)     intcor
     16.53     -17.22       1.97        0.00     110.49       3.03       0.06       0.63       ----

> <Gold.Chemscore.Fitness>
16.5305

> <Gold.Chemscore.DG>
-17.2233

> <Gold.Chemscore.ZeroCoef>
-5.4800

> <Gold.Chemscore.Hbond>
1.9663

> <Gold.Chemscore.Metal>
0.0000

> <Gold.Chemscore.Lipo>
110.4871

> <Gold.Chemscore.Internal_Hbond>
0.0000

> <Gold.Chemscore.DEClash>
0.0600

> <Gold.Chemscore.DEInternal>
0.6329

> <Gold.Chemscore.Rot>
3.0278

> <Gold.Chemscore.Internal.Correction>
   9.000000E+99

> <Gold.Chemscore.Hbonds>
donor molecule, donor type, donor heavy atom, donor atom, acceptor molecule, acceptor atom, score
      L1  H    15    44       P1  8028  0.99
      P1  H 10752 10763       L1     8  0.99

> <Gold.Chemscore.Hbond.Weighted>
-6.5675

> <Gold.Chemscore.Metal.Weighted>
-0.0000

> <Gold.Chemscore.Lipo.Weighted>
-12.9270

> <Gold.Chemscore.Internal_Hbond.Weighted>
0.0000

> <Gold.Chemscore.DEClash.Weighted>
0.0600

> <Gold.Chemscore.DEInternal.Weighted>
0.6329

> <Gold.Chemscore.Rot.Weighted>
7.7512

> <Gold.Chemscore.Internal.Correction.Weighted>
   9.000000E+99

> <Gold.Protein.RotatedTorsions>
[ 6907 6896 6895 6894 ] final    3.14 input  -60.11 | X-H torsion
[ 7974 7965 7964 7962 ] final  173.41 input  175.53 | X-H torsion
[ 8008 7997 7996 7995 ] final  -86.81 input   59.86 | X-H torsion
[ 10167 10162 10161 10158 ] final  -52.58 input  -65.29 | X-H torsion
[ 10718 10713 10712 10709 ] final  -73.77 input   66.30 | X-H torsion
[ 10763 10752 10751 10750 ] final  105.04 input  -60.55 | X-H torsion
[ 11005 11000 10999 10996 ] final -136.81 input  -57.11 | X-H torsion

> <Gold.Protein.ActiveResidues>
 VAL166  LYS551  ARG553  GLY616  TRP617  ASP618  TYR619  PRO620  LYS621  CYS622 
 ASP623  PHE694  ASN695  SER759  ASP760  ASP761  ALA762  ILE779  LEU786  VAL792 
 PHE793  MET794  SER795  GLU796  ALA797  LYS798  CYS799  TRP800  GLU811  SER814 

> <Gold.Protein.RotatedAtoms>
  151.6202  135.1033  160.0099 H   0  0  0  0  0  0  0  0  0  0  0  0  # atno 6907 bound_to 6896
  152.4162  133.7037  159.6449 H   0  0  0  0  0  0  0  0  0  0  0  0  # atno 6908 bound_to 6896
  150.8050  133.8453  159.3231 H   0  0  0  0  0  0  0  0  0  0  0  0  # atno 6909 bound_to 6896
  144.7244  139.9643  143.6435 H   0  0  0  0  0  0  0  0  0  0  0  0  # atno 7974 bound_to 7965
  154.6560  140.0574  157.0010 H   0  0  0  0  0  0  0  0  0  0  0  0  # atno 8008 bound_to 7997
  155.1299  140.3255  155.4458 H   0  0  0  0  0  0  0  0  0  0  0  0  # atno 8009 bound_to 7997
  156.2597  140.1982  156.6418 H   0  0  0  0  0  0  0  0  0  0  0  0  # atno 8010 bound_to 7997
  140.6530  143.2579  151.4668 H   0  0  0  0  0  0  0  0  0  0  0  0  # atno 10167 bound_to 10162
  156.0268  130.4401  150.2791 H   0  0  0  0  0  0  0  0  0  0  0  0  # atno 10718 bound_to 10713
  153.3740  135.3923  155.1809 H   0  0  0  0  0  0  0  0  0  0  0  0  # atno 10763 bound_to 10752
  154.8698  135.3709  154.4941 H   0  0  0  0  0  0  0  0  0  0  0  0  # atno 10764 bound_to 10752
  153.5412  135.7084  153.5697 H   0  0  0  0  0  0  0  0  0  0  0  0  # atno 10765 bound_to 10752
  140.8770  134.1979  157.4615 H   0  0  0  0  0  0  0  0  0  0  0  0  # atno 11005 bound_to 11000
  146.0613  139.3606  143.0580 LP  0  0  0  0  0  0  0  0  0  0  0  0  # atno 17320 bound_to 7965
  145.8089  140.9735  143.0959 LP  0  0  0  0  0  0  0  0  0  0  0  0  # atno 17321 bound_to 7965
  139.5748  144.1845  152.1887 LP  0  0  0  0  0  0  0  0  0  0  0  0  # atno 17342 bound_to 10162
  140.1152  144.5422  150.6899 LP  0  0  0  0  0  0  0  0  0  0  0  0  # atno 17343 bound_to 10162
  157.0895  131.0165  151.3127 LP  0  0  0  0  0  0  0  0  0  0  0  0  # atno 17370 bound_to 10713
  157.4865  130.7796  149.7465 LP  0  0  0  0  0  0  0  0  0  0  0  0  # atno 17371 bound_to 10713
  139.8716  134.9800  156.5060 LP  0  0  0  0  0  0  0  0  0  0  0  0  # atno 17394 bound_to 11000
  140.8506  133.8135  155.9164 LP  0  0  0  0  0  0  0  0  0  0  0  0  # atno 17395 bound_to 11000

$$$$
