AV-unprocessed.smi:1033|AV-procd|sdf|4513|dock6
  -GOLD-   22720 2523D 1   1.00000     0.00000
 Structure written by MMmdl.
 57 59  0  0  0  0  0  0  0  0  3 V2000
  152.5819  143.0109  160.8083 C   0  0  0  0  0  0  0  0  0  0  0  0
  152.0227  142.4924  159.4950 C   0  0  0  0  0  0  0  0  0  0  0  0
  152.6304  141.3725  158.8843 C   0  0  0  0  0  0  0  0  0  0  0  0
  152.1420  140.8599  157.6627 C   0  0  0  0  0  0  0  0  0  0  0  0
  152.5749  139.7886  156.9002 N   0  0  0  0  0  0  0  0  0  0  0  0
  151.7197  139.8204  155.8828 C   0  0  0  0  0  0  0  0  0  0  0  0
  150.7783  140.7836  155.8979 N   0  0  0  0  0  0  0  0  0  0  0  0
  149.7446  141.0102  154.9034 C   0  0  0  0  0  0  0  0  0  0  0  0
  148.3267  140.9535  155.5036 C   0  0  1  0  0  0  0  0  0  0  0  0
  147.4702  141.8056  154.7672 O   0  0  0  0  0  0  0  0  0  0  0  0
  147.7469  139.5257  155.4641 C   0  0  0  0  0  0  0  0  0  0  0  0
  146.8055  139.3231  154.3324 N   0  3  2  0  0  0  0  0  0  0  0  0
  145.9596  138.1101  154.4735 C   0  0  0  0  0  0  0  0  0  0  0  0
  144.9403  138.0117  153.3224 C   0  0  0  0  0  0  0  0  0  0  0  0
  145.6019  138.0346  151.9934 N   0  3  2  0  0  0  0  0  0  0  0  0
  146.2449  136.7435  151.6268 C   0  0  0  0  0  0  0  0  0  0  0  0
  145.3017  135.8072  150.8444 C   0  0  1  0  0  0  0  0  0  0  0  0
  143.9723  135.5957  151.5802 C   0  0  0  0  0  0  0  0  0  0  0  0
  145.0114  136.3779  149.5843 O   0  0  0  0  0  0  0  0  0  0  0  0
  146.4791  139.2274  151.8544 C   0  0  0  0  0  0  0  0  0  0  0  0
  147.4883  139.3518  153.0149 C   0  0  0  0  0  0  0  0  0  0  0  0
  151.0197  141.5035  157.0635 C   0  0  0  0  0  0  0  0  0  0  0  0
  150.4056  142.6177  157.6622 C   0  0  0  0  0  0  0  0  0  0  0  0
  150.9070  143.1175  158.8823 C   0  0  0  0  0  0  0  0  0  0  0  0
  150.2374  144.3217  159.5206 C   0  0  0  0  0  0  0  0  0  0  0  0
  153.3999  142.3857  161.1673 H   0  0  0  0  0  0  0  0  0  0  0  0
  151.8087  143.0218  161.5767 H   0  0  0  0  0  0  0  0  0  0  0  0
  152.9637  144.0247  160.6859 H   0  0  0  0  0  0  0  0  0  0  0  0
  153.4803  140.8961  159.3510 H   0  0  0  0  0  0  0  0  0  0  0  0
  151.7791  139.0995  155.0803 H   0  0  0  0  0  0  0  0  0  0  0  0
  149.9230  141.9756  154.4279 H   0  0  0  0  0  0  0  0  0  0  0  0
  149.8535  140.2556  154.1232 H   0  0  0  0  0  0  0  0  0  0  0  0
  148.3717  141.3197  156.5290 H   0  0  0  0  0  0  0  0  0  0  0  0
  147.8358  141.9260  153.9028 H   0  0  0  0  0  0  0  0  0  0  0  0
  148.5767  138.8214  155.3825 H   0  0  0  0  0  0  0  0  0  0  0  0
  147.2416  139.2893  156.4018 H   0  0  0  0  0  0  0  0  0  0  0  0
  146.5926  137.2215  154.4957 H   0  0  0  0  0  0  0  0  0  0  0  0
  145.4207  138.1329  155.4200 H   0  0  0  0  0  0  0  0  0  0  0  0
  144.3249  137.1173  153.4273 H   0  0  0  0  0  0  0  0  0  0  0  0
  144.2528  138.8569  153.3768 H   0  0  0  0  0  0  0  0  0  0  0  0
  147.1508  136.9328  151.0509 H   0  0  0  0  0  0  0  0  0  0  0  0
  146.5708  136.2238  152.5294 H   0  0  0  0  0  0  0  0  0  0  0  0
  145.7603  134.8323  150.6832 H   0  0  0  0  0  0  0  0  0  0  0  0
  144.1339  135.1350  152.5551 H   0  0  0  0  0  0  0  0  0  0  0  0
  143.3093  134.9403  151.0141 H   0  0  0  0  0  0  0  0  0  0  0  0
  143.4494  136.5394  151.7408 H   0  0  0  0  0  0  0  0  0  0  0  0
  144.3982  137.0875  149.6984 H   0  0  0  0  0  0  0  0  0  0  0  0
  147.0014  139.2217  150.8984 H   0  0  0  0  0  0  0  0  0  0  0  0
  145.8414  140.1125  151.8412 H   0  0  0  0  0  0  0  0  0  0  0  0
  148.0360  140.2892  152.9092 H   0  0  0  0  0  0  0  0  0  0  0  0
  148.2293  138.5525  152.9703 H   0  0  0  0  0  0  0  0  0  0  0  0
  149.5554  143.0841  157.1870 H   0  0  0  0  0  0  0  0  0  0  0  0
  149.4371  144.7120  158.8910 H   0  0  0  0  0  0  0  0  0  0  0  0
  150.9586  145.1239  159.6781 H   0  0  0  0  0  0  0  0  0  0  0  0
  149.8045  144.0506  160.4836 H   0  0  0  0  0  0  0  0  0  0  0  0
  144.8544  138.1480  151.3231 H   0  0  0  0  0  0  0  0  0  0  0  0
  146.1853  140.1210  154.3442 H   0  0  0  0  0  0  0  0  0  0  0  0
  1  2  1  0  0  0  0
  1 26  1  0  0  0  0
  1 27  1  0  0  0  0
  1 28  1  0  0  0  0
  2 24  1  0  0  0  0
  2  3  2  0  0  0  0
  3  4  1  0  0  0  0
  3 29  1  0  0  0  0
  4 22  2  0  0  0  0
  4  5  1  0  0  0  0
  5  6  2  0  0  0  0
  6  7  1  0  0  0  0
  6 30  1  0  0  0  0
  7  8  1  0  0  0  0
  7 22  1  0  0  0  0
  8  9  1  0  0  0  0
  8 31  1  0  0  0  0
  8 32  1  0  0  0  0
  9 10  1  0  0  0  0
  9 11  1  0  0  0  0
  9 33  1  0  0  0  0
 10 34  1  0  0  0  0
 11 12  1  0  0  0  0
 11 35  1  0  0  0  0
 11 36  1  0  0  0  0
 12 21  1  0  0  0  0
 12 13  1  0  0  0  0
 12 57  1  0  0  0  0
 13 14  1  0  0  0  0
 13 37  1  0  0  0  0
 13 38  1  0  0  0  0
 14 15  1  0  0  0  0
 14 39  1  0  0  0  0
 14 40  1  0  0  0  0
 15 16  1  0  0  0  0
 15 20  1  0  0  0  0
 15 56  1  0  0  0  0
 16 17  1  0  0  0  0
 16 41  1  0  0  0  0
 16 42  1  0  0  0  0
 17 18  1  0  0  0  0
 17 19  1  0  0  0  0
 17 43  1  0  0  0  0
 18 44  1  0  0  0  0
 18 45  1  0  0  0  0
 18 46  1  0  0  0  0
 19 47  1  0  0  0  0
 20 21  1  0  0  0  0
 20 48  1  0  0  0  0
 20 49  1  0  0  0  0
 21 50  1  0  0  0  0
 21 51  1  0  0  0  0
 22 23  1  0  0  0  0
 23 24  2  0  0  0  0
 23 52  1  0  0  0  0
 24 25  1  0  0  0  0
 25 53  1  0  0  0  0
 25 54  1  0  0  0  0
 25 55  1  0  0  0  0
M  CHG  1  12   1
M  CHG  1  15   1
M  END
> <s_m_source_file>
AV-unprocessed.smi

> <i_m_source_file_index>
1033

> <i_lp_mmshare_version>
43012

> <i_f3d_flags>
0

> <s_epik_input>
W0NIM11jKFtjSF0xKWMoW0NIM10pW2NIXWMoYzEyKW4oW2NIXW4yKVtDSDJdW0NASF0oW09IXSlbQ0gyXU4zW0NIMl1bQ0gyXU4oW0NIMl1bQ0gyXTMpW0NIMl1bQ0BIXShbQ0gzXSlbT0hd

> <s_epik_cmdline>
J2VwaWtfcHl0aG9uJywgJy1waCcsICc3LjAnLCAnLXRuJywgJzgnLCAnLW1hJywgJzIwMCcsICctbWV0YWxfYmluZGluZycsICctaW1hZScsICc8aW5maWxlLm1hZT4nLCAnLW9tYWUnLCAnPG91dGZpbGUubWFlPic=

> <r_epik_Ionization_Penalty>
3.16016

> <r_epik_Ionization_Penalty_Charging>
3.07679

> <r_epik_Ionization_Penalty_Neutral>
0.083365

> <r_epik_State_Penalty>
2.09701

> <r_epik_Charging_Adjusted_Penalty>
5.1738

> <i_epik_Tot_Q>
2

> <i_epik_Tot_abs_Q>
2

> <r_epik_Metal_State_Penalty>
2.02534

> <b_epik_Metal_Only>
0

> <s_lp_Force_Field>
OPLS_2005

> <r_lp_Energy>
29.7728

> <b_lp_Chiralities_Consistent>
1

> <s_lp_Variant>
AV-unprocessed.smi:1033-24

> <Gold.Version>
5.8.1

> <Gold.Id.Protein>
6NUR|6NUR_protein|mol2

> <Gold.PLP.Fitness>
49.3411

> <Gold.PLP.PLP>
-43.1863

> <Gold.PLP.part.hbond>
-4.5845

> <Gold.PLP.part.metal>
0.0000

> <Gold.PLP.part.buried>
1.7227

> <Gold.PLP.part.nonpolar>
-40.4726

> <Gold.PLP.part.repulsive>
0.0335

> <Gold.PLP.ligand.clash>
0.0000

> <Gold.PLP.ligand.torsion>
1.5166

> <Gold.PLP.Chemscore.Hbond>
3.0000

> <Gold.PLP.Chemscore.CHOScore>
0.0000

> <Gold.PLP.Chemscore.Metal>
0.0000

> <Gold.Chemscore.Hbonds>
donor molecule, donor type, donor heavy atom, donor atom, acceptor molecule, acceptor atom, score
      L1  H    15    56       P1 10171  1.00
      L1  H    19    47       P1 10171  1.00
      P1  H  7997  8010       L1     5  1.00

> <Gold.PLP.Chemscore.Internal.Correction>
0.1881

> <Gold.Rescore>
     Score         DG    S(hbond)    S(metal)    S(lipo)     H(rot)  DE(clash)    DE(int)     intcor
     16.03     -21.71       2.81        0.00     127.23       3.14       3.13       2.54       ----

> <Gold.Chemscore.Fitness>
16.0339

> <Gold.Chemscore.DG>
-21.7088

> <Gold.Chemscore.ZeroCoef>
-5.4800

> <Gold.Chemscore.Hbond>
2.8073

> <Gold.Chemscore.Metal>
0.0000

> <Gold.Chemscore.Lipo>
127.2268

> <Gold.Chemscore.Internal_Hbond>
0.0000

> <Gold.Chemscore.DEClash>
3.1336

> <Gold.Chemscore.DEInternal>
2.5413

> <Gold.Chemscore.Rot>
3.1380

> <Gold.Chemscore.Internal.Correction>
   9.000000E+99

> <Gold.Chemscore.Hbonds>
donor molecule, donor type, donor heavy atom, donor atom, acceptor molecule, acceptor atom, score
      L1  H    15    56       P1 10171  1.00
      L1  H    19    47       P1 10171  0.96
      P1  H  7997  8010       L1     5  0.38

> <Gold.Chemscore.Hbond.Weighted>
-9.3765

> <Gold.Chemscore.Metal.Weighted>
-0.0000

> <Gold.Chemscore.Lipo.Weighted>
-14.8855

> <Gold.Chemscore.Internal_Hbond.Weighted>
0.0000

> <Gold.Chemscore.DEClash.Weighted>
3.1336

> <Gold.Chemscore.DEInternal.Weighted>
2.5413

> <Gold.Chemscore.Rot.Weighted>
8.0332

> <Gold.Chemscore.Internal.Correction.Weighted>
   9.000000E+99

> <Gold.Protein.RotatedTorsions>
[ 6907 6896 6895 6894 ] final -108.69 input  -60.11 | X-H torsion
[ 7974 7965 7964 7962 ] final   38.53 input  175.53 | X-H torsion
[ 8008 7997 7996 7995 ] final   48.17 input   59.86 | X-H torsion
[ 10167 10162 10161 10158 ] final -138.97 input  -65.29 | X-H torsion
[ 10718 10713 10712 10709 ] final -121.73 input   66.30 | X-H torsion
[ 10763 10752 10751 10750 ] final  104.24 input  -60.55 | X-H torsion
[ 11005 11000 10999 10996 ] final  159.84 input  -57.11 | X-H torsion

> <Gold.Protein.ActiveResidues>
 VAL166  LYS551  ARG553  GLY616  TRP617  ASP618  TYR619  PRO620  LYS621  CYS622 
 ASP623  PHE694  ASN695  SER759  ASP760  ASP761  ALA762  ILE779  LEU786  VAL792 
 PHE793  MET794  SER795  GLU796  ALA797  LYS798  CYS799  TRP800  GLU811  SER814 

> <Gold.Protein.RotatedAtoms>
  150.7517  133.9640  159.3524 H   0  0  0  0  0  0  0  0  0  0  0  0  # atno 6907 bound_to 6896
  151.7568  135.0818  160.0349 H   0  0  0  0  0  0  0  0  0  0  0  0  # atno 6908 bound_to 6896
  152.3430  133.6052  159.5926 H   0  0  0  0  0  0  0  0  0  0  0  0  # atno 6909 bound_to 6896
  146.1054  139.5760  142.9387 H   0  0  0  0  0  0  0  0  0  0  0  0  # atno 7974 bound_to 7965
  155.3812  140.3428  155.4247 H   0  0  0  0  0  0  0  0  0  0  0  0  # atno 8008 bound_to 7997
  156.1609  140.1600  156.8646 H   0  0  0  0  0  0  0  0  0  0  0  0  # atno 8009 bound_to 7997
  154.5139  140.0783  156.8025 H   0  0  0  0  0  0  0  0  0  0  0  0  # atno 8010 bound_to 7997
  139.8425  143.7303  152.2662 H   0  0  0  0  0  0  0  0  0  0  0  0  # atno 10167 bound_to 10162
  156.1361  130.6431  150.9698 H   0  0  0  0  0  0  0  0  0  0  0  0  # atno 10718 bound_to 10713
  153.3633  135.3950  155.1734 H   0  0  0  0  0  0  0  0  0  0  0  0  # atno 10763 bound_to 10752
  154.8683  135.3685  154.5071 H   0  0  0  0  0  0  0  0  0  0  0  0  # atno 10764 bound_to 10752
  153.5533  135.7082  153.5641 H   0  0  0  0  0  0  0  0  0  0  0  0  # atno 10765 bound_to 10752
  140.2001  134.8344  157.3008 H   0  0  0  0  0  0  0  0  0  0  0  0  # atno 11005 bound_to 11000
  145.5771  141.0387  143.2142 LP  0  0  0  0  0  0  0  0  0  0  0  0  # atno 17320 bound_to 7965
  144.7467  139.7302  143.7289 LP  0  0  0  0  0  0  0  0  0  0  0  0  # atno 17321 bound_to 7965
  139.7544  144.7525  151.0457 LP  0  0  0  0  0  0  0  0  0  0  0  0  # atno 17342 bound_to 10162
  140.7796  143.4822  151.0003 LP  0  0  0  0  0  0  0  0  0  0  0  0  # atno 17343 bound_to 10162
  157.6533  131.0893  150.8002 LP  0  0  0  0  0  0  0  0  0  0  0  0  # atno 17370 bound_to 10713
  156.8082  130.4944  149.5359 LP  0  0  0  0  0  0  0  0  0  0  0  0  # atno 17371 bound_to 10713
  140.2064  134.4192  155.7635 LP  0  0  0  0  0  0  0  0  0  0  0  0  # atno 17394 bound_to 11000
  141.2227  133.7097  156.8267 LP  0  0  0  0  0  0  0  0  0  0  0  0  # atno 17395 bound_to 11000

$$$$
