AV-unprocessed.smi:2694|AV-procd|sdf|10406|dock4
  -GOLD-   2272014443D 1   1.00000     0.00000
 Structure written by MMmdl.
 42 44  0  0  0  0  0  0  0  0  1 V2000
  151.6917  138.8159  157.6609 O   0  0  0  0  0  0  0  0  0  0  0  0
  151.6753  140.0471  157.6518 C   0  0  0  0  0  0  0  0  0  0  0  0
  152.2221  140.8507  158.7451 C   0  0  0  0  0  0  0  0  0  0  0  0
  152.1817  142.2039  158.6995 C   0  0  0  0  0  0  0  0  0  0  0  0
  152.7214  143.0644  159.8336 C   0  0  0  0  0  0  0  0  0  0  0  0
  152.9920  142.3372  161.1610 C   0  0  0  0  0  0  0  0  0  0  0  0
  152.4585  143.5824  161.8781 C   0  0  0  0  0  0  0  0  0  0  0  0
  151.6857  143.9088  160.5955 C   0  0  0  0  0  0  0  0  0  0  0  0
  151.6039  142.8620  157.6077 N   0  0  0  0  0  0  0  0  0  0  0  0
  151.1124  142.1737  156.6272 C   0  0  0  0  0  0  0  0  0  0  0  0
  151.1395  140.7661  156.6229 N   0  0  0  0  0  0  0  0  0  0  0  0
  150.5456  140.1040  155.4503 C   0  0  0  0  0  0  0  0  0  0  0  0
  149.3831  140.9212  154.8429 C   0  0  1  0  0  0  0  0  0  0  0  0
  148.8002  140.2236  153.7602 O   0  0  0  0  0  0  0  0  0  0  0  0
  148.2680  141.2277  155.8576 C   0  0  0  0  0  0  0  0  0  0  0  0
  147.3934  142.2162  155.3276 O   0  0  0  0  0  0  0  0  0  0  0  0
  146.7243  143.0446  156.2036 C   0  0  0  0  0  0  0  0  0  0  0  0
  146.9056  143.0209  157.6101 C   0  0  0  0  0  0  0  0  0  0  0  0
  146.1855  143.9036  158.4384 C   0  0  0  0  0  0  0  0  0  0  0  0
  145.2769  144.8182  157.8756 C   0  0  0  0  0  0  0  0  0  0  0  0
  145.0883  144.8487  156.4820 C   0  0  0  0  0  0  0  0  0  0  0  0
  145.8076  143.9672  155.6512 C   0  0  0  0  0  0  0  0  0  0  0  0
  145.5560  144.0240  153.9430 Cl  0  0  0  0  0  0  0  0  0  0  0  0
  152.6618  140.3499  159.5953 H   0  0  0  0  0  0  0  0  0  0  0  0
  153.5780  143.6617  159.5157 H   0  0  0  0  0  0  0  0  0  0  0  0
  152.3567  141.4634  161.3172 H   0  0  0  0  0  0  0  0  0  0  0  0
  154.0416  142.1138  161.3541 H   0  0  0  0  0  0  0  0  0  0  0  0
  151.8349  143.3777  162.7488 H   0  0  0  0  0  0  0  0  0  0  0  0
  153.2397  144.3114  162.0998 H   0  0  0  0  0  0  0  0  0  0  0  0
  151.6710  144.9655  160.3269 H   0  0  0  0  0  0  0  0  0  0  0  0
  150.6827  143.4777  160.5955 H   0  0  0  0  0  0  0  0  0  0  0  0
  150.6478  142.6369  155.7550 H   0  0  0  0  0  0  0  0  0  0  0  0
  151.2929  139.8778  154.6865 H   0  0  0  0  0  0  0  0  0  0  0  0
  150.1727  139.1256  155.7594 H   0  0  0  0  0  0  0  0  0  0  0  0
  149.7502  141.8725  154.4561 H   0  0  0  0  0  0  0  0  0  0  0  0
  149.4312  140.1749  153.0585 H   0  0  0  0  0  0  0  0  0  0  0  0
  147.6992  140.3145  156.0394 H   0  0  0  0  0  0  0  0  0  0  0  0
  148.6967  141.5464  156.8095 H   0  0  0  0  0  0  0  0  0  0  0  0
  147.5930  142.3343  158.0801 H   0  0  0  0  0  0  0  0  0  0  0  0
  146.3313  143.8781  159.5082 H   0  0  0  0  0  0  0  0  0  0  0  0
  144.7254  145.4950  158.5116 H   0  0  0  0  0  0  0  0  0  0  0  0
  144.3901  145.5506  156.0498 H   0  0  0  0  0  0  0  0  0  0  0  0
  1  2  2  0  0  0  0
  2 11  1  0  0  0  0
  2  3  1  0  0  0  0
  3  4  2  0  0  0  0
  3 24  1  0  0  0  0
  4  5  1  0  0  0  0
  4  9  1  0  0  0  0
  5  8  1  0  0  0  0
  5  6  1  0  0  0  0
  5 25  1  0  0  0  0
  6  7  1  0  0  0  0
  6 26  1  0  0  0  0
  6 27  1  0  0  0  0
  7  8  1  0  0  0  0
  7 28  1  0  0  0  0
  7 29  1  0  0  0  0
  8 30  1  0  0  0  0
  8 31  1  0  0  0  0
  9 10  2  0  0  0  0
 10 11  1  0  0  0  0
 10 32  1  0  0  0  0
 11 12  1  0  0  0  0
 12 13  1  0  0  0  0
 12 33  1  0  0  0  0
 12 34  1  0  0  0  0
 13 14  1  0  0  0  0
 13 15  1  0  0  0  0
 13 35  1  0  0  0  0
 14 36  1  0  0  0  0
 15 16  1  0  0  0  0
 15 37  1  0  0  0  0
 15 38  1  0  0  0  0
 16 17  1  0  0  0  0
 17 22  1  0  0  0  0
 17 18  2  0  0  0  0
 18 19  1  0  0  0  0
 18 39  1  0  0  0  0
 19 20  2  0  0  0  0
 19 40  1  0  0  0  0
 20 21  1  0  0  0  0
 20 41  1  0  0  0  0
 21 22  2  0  0  0  0
 21 42  1  0  0  0  0
 22 23  1  0  0  0  0
M  END
> <s_m_source_file>
AV-unprocessed.smi

> <i_m_source_file_index>
2694

> <i_lp_mmshare_version>
43012

> <i_f3d_flags>
0

> <s_epik_input>
W0NIMl0xW0NIMl1bQ0gyXVtDSF0xYyhbY0hdYzI9TyluW2NIXW4yW0NIMl1bQ0BIXShbT0hdKVtDSDJdT2MzW2NIXVtjSF1bY0hdW2NIXWMzQ2w=

> <s_epik_cmdline>
J2VwaWtfcHl0aG9uJywgJy1waCcsICc3LjAnLCAnLXRuJywgJzgnLCAnLW1hJywgJzIwMCcsICctbWV0YWxfYmluZGluZycsICctaW1hZScsICc8aW5maWxlLm1hZT4nLCAnLW9tYWUnLCAnPG91dGZpbGUubWFlPic=

> <r_lp_tautomer_probability>
1

> <r_epik_Ionization_Penalty>
1.78212e-05

> <r_epik_Ionization_Penalty_Charging>
5.61663e-08

> <r_epik_Ionization_Penalty_Neutral>
1.7765e-05

> <r_epik_State_Penalty>
-0

> <r_epik_Charging_Adjusted_Penalty>
5.61663e-08

> <i_epik_Tot_Q>
0

> <i_epik_Tot_abs_Q>
0

> <r_epik_Metal_State_Penalty>
-0

> <b_epik_Metal_Only>
0

> <s_lp_Force_Field>
OPLS_2005

> <r_lp_Energy>
33.164

> <b_lp_Chiralities_Consistent>
1

> <s_lp_Variant>
AV-unprocessed.smi:2694-2

> <Gold.Version>
5.8.1

> <Gold.Id.Protein>
6NUR|6NUR_protein|mol2

> <Gold.PLP.Fitness>
48.7656

> <Gold.PLP.PLP>
-44.0466

> <Gold.PLP.part.hbond>
-1.0000

> <Gold.PLP.part.metal>
0.0000

> <Gold.PLP.part.buried>
-5.8456

> <Gold.PLP.part.nonpolar>
-36.5813

> <Gold.PLP.part.repulsive>
0.2160

> <Gold.PLP.ligand.clash>
0.0000

> <Gold.PLP.ligand.torsion>
0.8421

> <Gold.PLP.Chemscore.Hbond>
0.9600

> <Gold.PLP.Chemscore.CHOScore>
1.0000

> <Gold.PLP.Chemscore.Metal>
0.0000

> <Gold.Chemscore.Hbonds>
donor molecule, donor type, donor heavy atom, donor atom, acceptor molecule, acceptor atom, score
      L1  H    14    36       P1  7957  0.88
      L1  C    10    32       P1  8028  0.50

> <Gold.PLP.Chemscore.Internal.Correction>
0.5231

> <Gold.Rescore>
     Score         DG    S(hbond)    S(metal)    S(lipo)     H(rot)  DE(clash)    DE(int)     intcor
     13.49     -14.36       1.00        0.00     100.50       2.42       0.01       0.86       ----

> <Gold.Chemscore.Fitness>
13.4873

> <Gold.Chemscore.DG>
-14.3571

> <Gold.Chemscore.ZeroCoef>
-5.4800

> <Gold.Chemscore.Hbond>
0.9955

> <Gold.Chemscore.Metal>
0.0000

> <Gold.Chemscore.Lipo>
100.5027

> <Gold.Chemscore.Internal_Hbond>
0.0000

> <Gold.Chemscore.DEClash>
0.0097

> <Gold.Chemscore.DEInternal>
0.8601

> <Gold.Chemscore.Rot>
2.4245

> <Gold.Chemscore.Internal.Correction>
   9.000000E+99

> <Gold.Chemscore.Hbonds>
donor molecule, donor type, donor heavy atom, donor atom, acceptor molecule, acceptor atom, score
      L1  H    14    36       P1  7957  0.86

> <Gold.Chemscore.Hbond.Weighted>
-3.3249

> <Gold.Chemscore.Metal.Weighted>
-0.0000

> <Gold.Chemscore.Lipo.Weighted>
-11.7588

> <Gold.Chemscore.Internal_Hbond.Weighted>
0.0000

> <Gold.Chemscore.DEClash.Weighted>
0.0097

> <Gold.Chemscore.DEInternal.Weighted>
0.8601

> <Gold.Chemscore.Rot.Weighted>
6.2066

> <Gold.Chemscore.Internal.Correction.Weighted>
   9.000000E+99

> <Gold.Protein.RotatedTorsions>
[ 6907 6896 6895 6894 ] final  -11.99 input  -60.11 | X-H torsion
[ 7974 7965 7964 7962 ] final -158.25 input  175.53 | X-H torsion
[ 8008 7997 7996 7995 ] final -102.12 input   59.86 | X-H torsion
[ 10167 10162 10161 10158 ] final -140.70 input  -65.29 | X-H torsion
[ 10718 10713 10712 10709 ] final   -8.05 input   66.30 | X-H torsion
[ 10763 10752 10751 10750 ] final  -99.23 input  -60.55 | X-H torsion
[ 11005 11000 10999 10996 ] final    7.06 input  -57.11 | X-H torsion

> <Gold.Protein.ActiveResidues>
 VAL166  LYS551  ARG553  GLY616  TRP617  ASP618  TYR619  PRO620  LYS621  CYS622 
 ASP623  PHE694  ASN695  SER759  ASP760  ASP761  ALA762  ILE779  LEU786  VAL792 
 PHE793  MET794  SER795  GLU796  ALA797  LYS798  CYS799  TRP800  GLU811  SER814 

> <Gold.Protein.RotatedAtoms>
  151.3775  135.0934  159.9485 H   0  0  0  0  0  0  0  0  0  0  0  0  # atno 6907 bound_to 6896
  152.5118  133.9104  159.7495 H   0  0  0  0  0  0  0  0  0  0  0  0  # atno 6908 bound_to 6896
  150.9531  133.6472  159.2797 H   0  0  0  0  0  0  0  0  0  0  0  0  # atno 6909 bound_to 6896
  144.7513  140.3854  143.6046 H   0  0  0  0  0  0  0  0  0  0  0  0  # atno 7974 bound_to 7965
  154.8522  140.0430  157.1611 H   0  0  0  0  0  0  0  0  0  0  0  0  # atno 8008 bound_to 7997
  154.8931  140.2989  155.5339 H   0  0  0  0  0  0  0  0  0  0  0  0  # atno 8009 bound_to 7997
  156.2996  140.2390  156.3949 H   0  0  0  0  0  0  0  0  0  0  0  0  # atno 8010 bound_to 7997
  139.8256  143.7515  152.2666 H   0  0  0  0  0  0  0  0  0  0  0  0  # atno 10167 bound_to 10162
  156.7083  130.5114  149.5899 H   0  0  0  0  0  0  0  0  0  0  0  0  # atno 10718 bound_to 10713
  154.7481  135.4980  153.9240 H   0  0  0  0  0  0  0  0  0  0  0  0  # atno 10763 bound_to 10752
  153.1113  135.6710  153.9503 H   0  0  0  0  0  0  0  0  0  0  0  0  # atno 10764 bound_to 10752
  153.9261  135.3083  155.3426 H   0  0  0  0  0  0  0  0  0  0  0  0  # atno 10765 bound_to 10752
  140.5525  134.0269  155.7942 H   0  0  0  0  0  0  0  0  0  0  0  0  # atno 11005 bound_to 11000
  145.6933  139.1644  143.2634 LP  0  0  0  0  0  0  0  0  0  0  0  0  # atno 17320 bound_to 7965
  146.1467  140.6982  142.9341 LP  0  0  0  0  0  0  0  0  0  0  0  0  # atno 17321 bound_to 7965
  139.7707  144.7477  151.0229 LP  0  0  0  0  0  0  0  0  0  0  0  0  # atno 17342 bound_to 10162
  140.7810  143.4649  151.0227 LP  0  0  0  0  0  0  0  0  0  0  0  0  # atno 17343 bound_to 10162
  156.1679  130.6417  151.0801 LP  0  0  0  0  0  0  0  0  0  0  0  0  # atno 17370 bound_to 10713
  157.6946  131.0798  150.7007 LP  0  0  0  0  0  0  0  0  0  0  0  0  # atno 17371 bound_to 10713
  141.1163  133.9535  157.2816 LP  0  0  0  0  0  0  0  0  0  0  0  0  # atno 17394 bound_to 11000
  139.9448  135.0186  156.8818 LP  0  0  0  0  0  0  0  0  0  0  0  0  # atno 17395 bound_to 11000

$$$$
