AV-unprocessed.smi:937|AV-procd|sdf|4211|dock6
  -GOLD-   22720 2123D 1   1.00000     0.00000
 Structure written by MMmdl.
 45 46  0  0  0  0  0  0  0  0  1 V2000
  146.2103  141.9565  154.6140 C   0  0  0  0  0  0  0  0  0  0  0  0
  147.3858  141.0022  154.6268 C   0  0  0  0  0  0  0  0  0  0  0  0
  148.6098  141.3703  155.2240 C   0  0  0  0  0  0  0  0  0  0  0  0
  149.6703  140.4444  155.2041 C   0  0  0  0  0  0  0  0  0  0  0  0
  149.4684  139.1912  154.5902 C   0  0  0  0  0  0  0  0  0  0  0  0
  150.5805  138.1618  154.5464 C   0  0  0  0  0  0  0  0  0  0  0  0
  150.6202  137.2989  155.8145 C   0  0  0  0  0  0  0  0  0  0  0  0
  150.7404  138.1355  156.9998 N   0  0  0  0  0  0  0  0  0  0  0  0
  151.5955  139.1635  157.1197 C   0  0  0  0  0  0  0  0  0  0  0  0
  152.3755  139.5007  156.2310 O   0  0  0  0  0  0  0  0  0  0  0  0
  151.5409  139.8109  158.2981 N   0  0  0  0  0  0  0  0  0  0  0  0
  152.3300  140.9611  158.7441 C   0  0  2  0  0  0  0  0  0  0  0  0
  153.0402  140.6505  160.0775 C   0  0  0  0  0  0  0  0  0  0  0  0
  153.8013  141.8758  160.6027 C   0  0  0  0  0  0  0  0  0  0  0  0
  152.8702  143.0890  160.7497 C   0  0  0  0  0  0  0  0  0  0  0  0
  152.1603  143.4251  159.4213 C   0  0  2  0  0  0  0  0  0  0  0  0
  151.2341  144.6516  159.5559 C   0  0  0  0  0  0  0  0  0  0  0  0
  151.8985  145.6961  160.0515 F   0  0  0  0  0  0  0  0  0  0  0  0
  150.7384  144.9831  158.3637 F   0  0  0  0  0  0  0  0  0  0  0  0
  150.2140  144.3667  160.3655 F   0  0  0  0  0  0  0  0  0  0  0  0
  151.4052  142.1849  158.8949 C   0  0  0  0  0  0  0  0  0  0  0  0
  148.2052  138.9220  154.0221 C   0  0  0  0  0  0  0  0  0  0  0  0
  147.1825  139.8040  154.0359 N   0  0  0  0  0  0  0  0  0  0  0  0
  146.4126  142.8401  155.2199 H   0  0  0  0  0  0  0  0  0  0  0  0
  145.3190  141.4698  155.0111 H   0  0  0  0  0  0  0  0  0  0  0  0
  146.0001  142.2823  153.5951 H   0  0  0  0  0  0  0  0  0  0  0  0
  148.7360  142.3378  155.6872 H   0  0  0  0  0  0  0  0  0  0  0  0
  150.6208  140.6922  155.6535 H   0  0  0  0  0  0  0  0  0  0  0  0
  150.4515  137.5297  153.6665 H   0  0  0  0  0  0  0  0  0  0  0  0
  151.5310  138.6814  154.4169 H   0  0  0  0  0  0  0  0  0  0  0  0
  149.7131  136.6957  155.8841 H   0  0  0  0  0  0  0  0  0  0  0  0
  151.4653  136.6097  155.7757 H   0  0  0  0  0  0  0  0  0  0  0  0
  150.1331  137.9237  157.7779 H   0  0  0  0  0  0  0  0  0  0  0  0
  150.8754  139.4545  158.9689 H   0  0  0  0  0  0  0  0  0  0  0  0
  153.0784  141.2030  157.9873 H   0  0  0  0  0  0  0  0  0  0  0  0
  152.3072  140.3348  160.8214 H   0  0  0  0  0  0  0  0  0  0  0  0
  153.7338  139.8179  159.9567 H   0  0  0  0  0  0  0  0  0  0  0  0
  154.2615  141.6426  161.5632 H   0  0  0  0  0  0  0  0  0  0  0  0
  154.6166  142.1199  159.9205 H   0  0  0  0  0  0  0  0  0  0  0  0
  152.1294  142.8851  161.5237 H   0  0  0  0  0  0  0  0  0  0  0  0
  153.4473  143.9470  161.0953 H   0  0  0  0  0  0  0  0  0  0  0  0
  152.9299  143.6786  158.6903 H   0  0  0  0  0  0  0  0  0  0  0  0
  150.9472  142.4135  157.9319 H   0  0  0  0  0  0  0  0  0  0  0  0
  150.5857  141.9438  159.5738 H   0  0  0  0  0  0  0  0  0  0  0  0
  148.0073  137.9741  153.5437 H   0  0  0  0  0  0  0  0  0  0  0  0
  1  2  1  0  0  0  0
  1 24  1  0  0  0  0
  1 25  1  0  0  0  0
  1 26  1  0  0  0  0
  2 23  1  0  0  0  0
  2  3  2  0  0  0  0
  3  4  1  0  0  0  0
  3 27  1  0  0  0  0
  4  5  2  0  0  0  0
  4 28  1  0  0  0  0
  5  6  1  0  0  0  0
  5 22  1  0  0  0  0
  6  7  1  0  0  0  0
  6 29  1  0  0  0  0
  6 30  1  0  0  0  0
  7  8  1  0  0  0  0
  7 31  1  0  0  0  0
  7 32  1  0  0  0  0
  8  9  1  0  0  0  0
  8 33  1  0  0  0  0
  9 10  2  0  0  0  0
  9 11  1  0  0  0  0
 11 12  1  0  0  0  0
 11 34  1  0  0  0  0
 12 21  1  0  0  0  0
 12 13  1  0  0  0  0
 12 35  1  0  0  0  0
 13 14  1  0  0  0  0
 13 36  1  0  0  0  0
 13 37  1  0  0  0  0
 14 15  1  0  0  0  0
 14 38  1  0  0  0  0
 14 39  1  0  0  0  0
 15 16  1  0  0  0  0
 15 40  1  0  0  0  0
 15 41  1  0  0  0  0
 16 17  1  0  0  0  0
 16 21  1  0  0  0  0
 16 42  1  0  0  0  0
 17 18  1  0  0  0  0
 17 19  1  0  0  0  0
 17 20  1  0  0  0  0
 21 43  1  0  0  0  0
 21 44  1  0  0  0  0
 22 23  2  0  0  0  0
 22 45  1  0  0  0  0
M  END
> <s_m_source_file>
AV-unprocessed.smi

> <i_m_source_file_index>
937

> <i_lp_mmshare_version>
43012

> <i_f3d_flags>
0

> <s_epik_input>
W0NIM11jMVtjSF1bY0hdYyhbY0hdbjEpW0NIMl1bQ0gyXVtOSF1DKD1PKVtOSF1bQ0BASF0yW0NIMl1bQ0gyXVtDSDJdW0NAQEhdKEMoRikoRilGKVtDSDJdMg==

> <s_epik_cmdline>
J2VwaWtfcHl0aG9uJywgJy1waCcsICc3LjAnLCAnLXRuJywgJzgnLCAnLW1hJywgJzIwMCcsICctbWV0YWxfYmluZGluZycsICctaW1hZScsICc8aW5maWxlLm1hZT4nLCAnLW9tYWUnLCAnPG91dGZpbGUubWFlPic=

> <r_epik_Ionization_Penalty>
0.0563445

> <r_epik_Ionization_Penalty_Charging>
0

> <r_epik_Ionization_Penalty_Neutral>
0.0563445

> <r_epik_State_Penalty>
0.0485409

> <r_epik_Charging_Adjusted_Penalty>
0.0485409

> <i_epik_Tot_Q>
0

> <i_epik_Tot_abs_Q>
0

> <r_epik_Metal_State_Penalty>
0.0443056

> <b_epik_Metal_Only>
0

> <s_lp_Force_Field>
OPLS_2005

> <r_lp_Energy>
18.9934

> <b_lp_Chiralities_Consistent>
1

> <s_lp_Variant>
AV-unprocessed.smi:937-3

> <Gold.Version>
5.8.1

> <Gold.Id.Protein>
6NUR|6NUR_protein|mol2

> <Gold.PLP.Fitness>
55.7724

> <Gold.PLP.PLP>
-50.7772

> <Gold.PLP.part.hbond>
-1.0000

> <Gold.PLP.part.metal>
0.0000

> <Gold.PLP.part.buried>
-1.9262

> <Gold.PLP.part.nonpolar>
-47.8330

> <Gold.PLP.part.repulsive>
0.4611

> <Gold.PLP.ligand.clash>
0.0000

> <Gold.PLP.ligand.torsion>
0.5225

> <Gold.PLP.Chemscore.Hbond>
1.0000

> <Gold.PLP.Chemscore.CHOScore>
1.0000

> <Gold.PLP.Chemscore.Metal>
0.0000

> <Gold.Chemscore.Hbonds>
donor molecule, donor type, donor heavy atom, donor atom, acceptor molecule, acceptor atom, score
      P1  H  7997  8010       L1    10  0.93
      L1  C    22    45       P1  7948  0.85

> <Gold.PLP.Chemscore.Internal.Correction>
0.0402

> <Gold.Rescore>
     Score         DG    S(hbond)    S(metal)    S(lipo)     H(rot)  DE(clash)    DE(int)     intcor
     17.38     -19.06       1.00        0.00     122.23       1.58       0.07       1.61       ----

> <Gold.Chemscore.Fitness>
17.3835

> <Gold.Chemscore.DG>
-19.0616

> <Gold.Chemscore.ZeroCoef>
-5.4800

> <Gold.Chemscore.Hbond>
0.9996

> <Gold.Chemscore.Metal>
0.0000

> <Gold.Chemscore.Lipo>
122.2262

> <Gold.Chemscore.Internal_Hbond>
0.0000

> <Gold.Chemscore.DEClash>
0.0725

> <Gold.Chemscore.DEInternal>
1.6056

> <Gold.Chemscore.Rot>
1.5849

> <Gold.Chemscore.Internal.Correction>
   9.000000E+99

> <Gold.Chemscore.Hbonds>
donor molecule, donor type, donor heavy atom, donor atom, acceptor molecule, acceptor atom, score
      P1  H  7997  8010       L1    10  0.89

> <Gold.Chemscore.Hbond.Weighted>
-3.3385

> <Gold.Chemscore.Metal.Weighted>
-0.0000

> <Gold.Chemscore.Lipo.Weighted>
-14.3005

> <Gold.Chemscore.Internal_Hbond.Weighted>
0.0000

> <Gold.Chemscore.DEClash.Weighted>
0.0725

> <Gold.Chemscore.DEInternal.Weighted>
1.6056

> <Gold.Chemscore.Rot.Weighted>
4.0574

> <Gold.Chemscore.Internal.Correction.Weighted>
   9.000000E+99

> <Gold.Protein.RotatedTorsions>
[ 6907 6896 6895 6894 ] final   42.18 input  -60.11 | X-H torsion
[ 7974 7965 7964 7962 ] final  -61.68 input  175.53 | X-H torsion
[ 8008 7997 7996 7995 ] final   76.63 input   59.86 | X-H torsion
[ 10167 10162 10161 10158 ] final  -75.98 input  -65.29 | X-H torsion
[ 10718 10713 10712 10709 ] final   22.68 input   66.30 | X-H torsion
[ 10763 10752 10751 10750 ] final  111.25 input  -60.55 | X-H torsion
[ 11005 11000 10999 10996 ] final   81.98 input  -57.11 | X-H torsion

> <Gold.Protein.ActiveResidues>
 VAL166  LYS551  ARG553  GLY616  TRP617  ASP618  TYR619  PRO620  LYS621  CYS622 
 ASP623  PHE694  ASN695  SER759  ASP760  ASP761  ALA762  ILE779  LEU786  VAL792 
 PHE793  MET794  SER795  GLU796  ALA797  LYS798  CYS799  TRP800  GLU811  SER814 

> <Gold.Protein.RotatedAtoms>
  152.2046  134.8557  160.0503 H   0  0  0  0  0  0  0  0  0  0  0  0  # atno 6907 bound_to 6896
  151.9398  133.3629  159.3969 H   0  0  0  0  0  0  0  0  0  0  0  0  # atno 6908 bound_to 6896
  150.6962  134.4375  159.5321 H   0  0  0  0  0  0  0  0  0  0  0  0  # atno 6909 bound_to 6896
  145.8005  140.8657  143.0233 H   0  0  0  0  0  0  0  0  0  0  0  0  # atno 7974 bound_to 7965
  155.8301  140.3466  155.5567 H   0  0  0  0  0  0  0  0  0  0  0  0  # atno 8008 bound_to 7997
  155.8251  140.0918  157.1846 H   0  0  0  0  0  0  0  0  0  0  0  0  # atno 8009 bound_to 7997
  154.4004  140.1423  156.3534 H   0  0  0  0  0  0  0  0  0  0  0  0  # atno 8010 bound_to 7997
  140.4896  143.2383  151.7928 H   0  0  0  0  0  0  0  0  0  0  0  0  # atno 10167 bound_to 10162
  157.1557  130.6694  149.6027 H   0  0  0  0  0  0  0  0  0  0  0  0  # atno 10718 bound_to 10713
  153.4606  135.3723  155.2336 H   0  0  0  0  0  0  0  0  0  0  0  0  # atno 10763 bound_to 10752
  154.8757  135.3908  154.3929 H   0  0  0  0  0  0  0  0  0  0  0  0  # atno 10764 bound_to 10752
  153.4502  135.7085  153.6178 H   0  0  0  0  0  0  0  0  0  0  0  0  # atno 10765 bound_to 10752
  139.9079  134.8037  156.2113 H   0  0  0  0  0  0  0  0  0  0  0  0  # atno 11005 bound_to 11000
  144.6769  140.0253  143.7483 LP  0  0  0  0  0  0  0  0  0  0  0  0  # atno 17320 bound_to 7965
  145.9882  139.2994  143.1001 LP  0  0  0  0  0  0  0  0  0  0  0  0  # atno 17321 bound_to 7965
  139.4848  144.4666  151.9476 LP  0  0  0  0  0  0  0  0  0  0  0  0  # atno 17342 bound_to 10162
  140.3753  144.2804  150.5915 LP  0  0  0  0  0  0  0  0  0  0  0  0  # atno 17343 bound_to 10162
  155.9762  130.4729  150.6515 LP  0  0  0  0  0  0  0  0  0  0  0  0  # atno 17370 bound_to 10713
  157.4179  131.0833  151.1159 LP  0  0  0  0  0  0  0  0  0  0  0  0  # atno 17371 bound_to 10713
  141.0464  133.6911  156.1690 LP  0  0  0  0  0  0  0  0  0  0  0  0  # atno 17394 bound_to 11000
  140.6878  134.4698  157.5589 LP  0  0  0  0  0  0  0  0  0  0  0  0  # atno 17395 bound_to 11000

$$$$
