AV-unprocessed.smi:1831|AV-procd|sdf|7461|dock4
  -GOLD-   22720 9153D 1   1.00000     0.00000
 Structure written by MMmdl.
 40 41  0  0  0  0  0  0  0  0  3 V2000
  135.5105  138.9723  154.3673 C   0  0  0  0  0  0  0  0  0  0  0  0
  136.9059  138.4535  154.4362 C   0  0  0  0  0  0  0  0  0  0  0  0
  137.9283  139.0364  153.8056 N   0  0  0  0  0  0  0  0  0  0  0  0
  139.1250  138.3684  154.0216 N   0  0  0  0  0  0  0  0  0  0  0  0
  138.9930  137.2963  154.8155 C   0  0  0  0  0  0  0  0  0  0  0  0
  140.0328  136.5126  155.1464 N   0  5  0  0  0  0  0  0  0  0  0  0
  141.2473  136.7333  154.5947 C   0  0  0  0  0  0  0  0  0  0  0  0
  141.6919  137.8203  154.2190 O   0  0  0  0  0  0  0  0  0  0  0  0
  141.9897  135.6239  154.4752 N   0  0  0  0  0  0  0  0  0  0  0  0
  143.3436  135.5399  153.9369 C   0  0  0  0  0  0  0  0  0  0  0  0
  143.3115  135.3732  152.4092 C   0  0  1  0  0  0  0  0  0  0  0  0
  144.6101  135.7436  151.6937 C   0  0  0  0  0  0  0  0  0  0  0  0
  144.5834  134.9295  150.3933 C   0  0  0  0  0  0  0  0  0  0  0  0
  143.5065  133.9162  150.5315 N   0  3  1  0  0  0  0  0  0  0  0  0
  143.8239  132.5720  149.9717 C   0  0  0  0  0  0  0  0  0  0  0  0
  145.1482  132.0313  150.5438 C   0  0  0  0  0  0  0  0  0  0  0  0
  143.9012  132.5972  148.4329 C   0  0  0  0  0  0  0  0  0  0  0  0
  143.0855  133.9355  151.9494 C   0  0  0  0  0  0  0  0  0  0  0  0
  137.3352  137.0167  155.3486 S   0  0  0  0  0  0  0  0  0  0  0  0
  135.5102  140.0397  154.1445 H   0  0  0  0  0  0  0  0  0  0  0  0
  135.0047  138.8161  155.3203 H   0  0  0  0  0  0  0  0  0  0  0  0
  134.9581  138.4497  153.5863 H   0  0  0  0  0  0  0  0  0  0  0  0
  141.5730  134.7606  154.7916 H   0  0  0  0  0  0  0  0  0  0  0  0
  143.8790  136.4496  154.2108 H   0  0  0  0  0  0  0  0  0  0  0  0
  143.8973  134.7084  154.3756 H   0  0  0  0  0  0  0  0  0  0  0  0
  142.5076  135.9897  152.0021 H   0  0  0  0  0  0  0  0  0  0  0  0
  144.6964  136.8157  151.5141 H   0  0  0  0  0  0  0  0  0  0  0  0
  145.4685  135.4401  152.2951 H   0  0  0  0  0  0  0  0  0  0  0  0
  144.3657  135.5636  149.5334 H   0  0  0  0  0  0  0  0  0  0  0  0
  145.5587  134.4691  150.2287 H   0  0  0  0  0  0  0  0  0  0  0  0
  143.0225  131.8885  150.2571 H   0  0  0  0  0  0  0  0  0  0  0  0
  145.3871  131.0561  150.1183 H   0  0  0  0  0  0  0  0  0  0  0  0
  145.1081  131.9024  151.6255 H   0  0  0  0  0  0  0  0  0  0  0  0
  145.9793  132.7007  150.3187 H   0  0  0  0  0  0  0  0  0  0  0  0
  144.1810  131.6191  148.0401 H   0  0  0  0  0  0  0  0  0  0  0  0
  144.6431  133.3164  148.0838 H   0  0  0  0  0  0  0  0  0  0  0  0
  142.9441  132.8548  147.9791 H   0  0  0  0  0  0  0  0  0  0  0  0
  143.7114  133.2533  152.5279 H   0  0  0  0  0  0  0  0  0  0  0  0
  142.0458  133.6288  152.0680 H   0  0  0  0  0  0  0  0  0  0  0  0
  142.7197  134.2760  150.0099 H   0  0  0  0  0  0  0  0  0  0  0  0
  1  2  1  0  0  0  0
  1 20  1  0  0  0  0
  1 21  1  0  0  0  0
  1 22  1  0  0  0  0
  2 19  1  0  0  0  0
  2  3  2  0  0  0  0
  3  4  1  0  0  0  0
  4  5  2  0  0  0  0
  5  6  1  0  0  0  0
  5 19  1  0  0  0  0
  6  7  1  0  0  0  0
  7  8  2  0  0  0  0
  7  9  1  0  0  0  0
  9 10  1  0  0  0  0
  9 23  1  0  0  0  0
 10 11  1  0  0  0  0
 10 24  1  0  0  0  0
 10 25  1  0  0  0  0
 11 18  1  0  0  0  0
 11 12  1  0  0  0  0
 11 26  1  0  0  0  0
 12 13  1  0  0  0  0
 12 27  1  0  0  0  0
 12 28  1  0  0  0  0
 13 14  1  0  0  0  0
 13 29  1  0  0  0  0
 13 30  1  0  0  0  0
 14 15  1  0  0  0  0
 14 18  1  0  0  0  0
 14 40  1  0  0  0  0
 15 16  1  0  0  0  0
 15 17  1  0  0  0  0
 15 31  1  0  0  0  0
 16 32  1  0  0  0  0
 16 33  1  0  0  0  0
 16 34  1  0  0  0  0
 17 35  1  0  0  0  0
 17 36  1  0  0  0  0
 17 37  1  0  0  0  0
 18 38  1  0  0  0  0
 18 39  1  0  0  0  0
M  CHG  1   6  -1
M  CHG  1  14   1
M  END
> <s_m_source_file>
AV-unprocessed.smi

> <i_m_source_file_index>
1831

> <i_lp_mmshare_version>
43012

> <i_f3d_flags>
0

> <s_epik_input>
W0NIM11jMW5uYyhzMSlbTkhdQyg9TylbTkhdW0NIMl1bQ0BASF0yW0NIMl1bQ0gyXU4oW0NIMl0yKVtDSF0oW0NIM10pW0NIM10=

> <s_epik_cmdline>
J2VwaWtfcHl0aG9uJywgJy1waCcsICc3LjAnLCAnLXRuJywgJzgnLCAnLW1hJywgJzIwMCcsICctbWV0YWxfYmluZGluZycsICctaW1hZScsICc8aW5maWxlLm1hZT4nLCAnLW9tYWUnLCAnPG91dGZpbGUubWFlPic=

> <r_lp_tautomer_probability>
1

> <r_epik_Ionization_Penalty>
4.24531

> <r_epik_Ionization_Penalty_Charging>
4.11954

> <r_epik_Ionization_Penalty_Neutral>
0.125766

> <r_epik_State_Penalty>
4.11879

> <r_epik_Charging_Adjusted_Penalty>
8.23833

> <i_epik_Tot_Q>
0

> <i_epik_Tot_abs_Q>
2

> <r_epik_Metal_State_Penalty>
0.659341

> <b_epik_Metal_Only>
1

> <s_lp_Force_Field>
OPLS_2005

> <r_lp_Energy>
24.973

> <b_lp_Chiralities_Consistent>
1

> <s_lp_Variant>
AV-unprocessed.smi:1831-6

> <Gold.Version>
5.8.1

> <Gold.Id.Protein>
6NUR|6NUR_protein|mol2

> <Gold.PLP.Fitness>
41.8402

> <Gold.PLP.PLP>
-34.1186

> <Gold.PLP.part.hbond>
-2.7031

> <Gold.PLP.part.metal>
0.0000

> <Gold.PLP.part.buried>
-4.9288

> <Gold.PLP.part.nonpolar>
-26.7702

> <Gold.PLP.part.repulsive>
0.2955

> <Gold.PLP.ligand.clash>
0.0000

> <Gold.PLP.ligand.torsion>
0.6975

> <Gold.PLP.Chemscore.Hbond>
3.0000

> <Gold.PLP.Chemscore.CHOScore>
0.0000

> <Gold.PLP.Chemscore.Metal>
0.0000

> <Gold.Chemscore.Hbonds>
donor molecule, donor type, donor heavy atom, donor atom, acceptor molecule, acceptor atom, score
      L1  H    14    40       P1 10186  2.00
      P1  H 11000 11005       L1     6  1.00

> <Gold.PLP.Chemscore.Internal.Correction>
0.1165

> <Gold.Rescore>
     Score         DG    S(hbond)    S(metal)    S(lipo)     H(rot)  DE(clash)    DE(int)     intcor
     14.55     -16.77       1.85        0.00      76.81       1.51       0.02       2.20       ----

> <Gold.Chemscore.Fitness>
14.5481

> <Gold.Chemscore.DG>
-16.7709

> <Gold.Chemscore.ZeroCoef>
-5.4800

> <Gold.Chemscore.Hbond>
1.8496

> <Gold.Chemscore.Metal>
0.0000

> <Gold.Chemscore.Lipo>
76.8084

> <Gold.Chemscore.Internal_Hbond>
0.0000

> <Gold.Chemscore.DEClash>
0.0234

> <Gold.Chemscore.DEInternal>
2.1994

> <Gold.Chemscore.Rot>
1.5131

> <Gold.Chemscore.Internal.Correction>
   9.000000E+99

> <Gold.Chemscore.Hbonds>
donor molecule, donor type, donor heavy atom, donor atom, acceptor molecule, acceptor atom, score
      L1  H    14    40       P1 10186  0.94
      P1  H 11000 11005       L1     6  0.83

> <Gold.Chemscore.Hbond.Weighted>
-6.1778

> <Gold.Chemscore.Metal.Weighted>
-0.0000

> <Gold.Chemscore.Lipo.Weighted>
-8.9866

> <Gold.Chemscore.Internal_Hbond.Weighted>
0.0000

> <Gold.Chemscore.DEClash.Weighted>
0.0234

> <Gold.Chemscore.DEInternal.Weighted>
2.1994

> <Gold.Chemscore.Rot.Weighted>
3.8735

> <Gold.Chemscore.Internal.Correction.Weighted>
   9.000000E+99

> <Gold.Protein.RotatedTorsions>
[ 6907 6896 6895 6894 ] final   71.47 input  -60.11 | X-H torsion
[ 7974 7965 7964 7962 ] final  -79.72 input  175.53 | X-H torsion
[ 8008 7997 7996 7995 ] final   52.47 input   59.86 | X-H torsion
[ 10167 10162 10161 10158 ] final   -8.11 input  -65.29 | X-H torsion
[ 10718 10713 10712 10709 ] final -168.89 input   66.30 | X-H torsion
[ 10763 10752 10751 10750 ] final  113.33 input  -60.55 | X-H torsion
[ 11005 11000 10999 10996 ] final   79.40 input  -57.11 | X-H torsion

> <Gold.Protein.ActiveResidues>
 VAL166  LYS551  ARG553  GLY616  TRP617  ASP618  TYR619  PRO620  LYS621  CYS622 
 ASP623  PHE694  ASN695  SER759  ASP760  ASP761  ALA762  ILE779  LEU786  VAL792 
 PHE793  MET794  SER795  GLU796  ALA797  LYS798  CYS799  TRP800  GLU811  SER814 

> <Gold.Protein.RotatedAtoms>
  152.4812  134.4715  159.9636 H   0  0  0  0  0  0  0  0  0  0  0  0  # atno 6907 bound_to 6896
  151.4721  133.3560  159.2833 H   0  0  0  0  0  0  0  0  0  0  0  0  # atno 6908 bound_to 6896
  150.8885  134.8312  159.7337 H   0  0  0  0  0  0  0  0  0  0  0  0  # atno 6909 bound_to 6896
  145.5695  140.9468  143.1403 H   0  0  0  0  0  0  0  0  0  0  0  0  # atno 7974 bound_to 7965
  155.4524  140.3458  155.4302 H   0  0  0  0  0  0  0  0  0  0  0  0  # atno 8008 bound_to 7997
  156.1212  140.1487  156.9231 H   0  0  0  0  0  0  0  0  0  0  0  0  # atno 8009 bound_to 7997
  154.4825  140.0865  156.7389 H   0  0  0  0  0  0  0  0  0  0  0  0  # atno 8010 bound_to 7997
  140.7049  143.6005  150.8802 H   0  0  0  0  0  0  0  0  0  0  0  0  # atno 10167 bound_to 10162
  156.7036  130.9206  151.3082 H   0  0  0  0  0  0  0  0  0  0  0  0  # atno 10718 bound_to 10713
  153.4909  135.3659  155.2491 H   0  0  0  0  0  0  0  0  0  0  0  0  # atno 10763 bound_to 10752
  154.8752  135.3977  154.3590 H   0  0  0  0  0  0  0  0  0  0  0  0  # atno 10764 bound_to 10752
  153.4210  135.7080  153.6360 H   0  0  0  0  0  0  0  0  0  0  0  0  # atno 10765 bound_to 10752
  139.9174  134.7840  156.1774 H   0  0  0  0  0  0  0  0  0  0  0  0  # atno 11005 bound_to 11000
  144.7445  139.7359  143.7298 LP  0  0  0  0  0  0  0  0  0  0  0  0  # atno 17320 bound_to 7965
  146.1795  139.4980  142.9876 LP  0  0  0  0  0  0  0  0  0  0  0  0  # atno 17321 bound_to 7965
  139.9730  143.6036  152.2967 LP  0  0  0  0  0  0  0  0  0  0  0  0  # atno 17342 bound_to 10162
  139.6629  144.7662  151.1928 LP  0  0  0  0  0  0  0  0  0  0  0  0  # atno 17343 bound_to 10162
  157.6963  130.9286  150.0655 LP  0  0  0  0  0  0  0  0  0  0  0  0  # atno 17370 bound_to 10713
  156.1711  130.3646  149.9164 LP  0  0  0  0  0  0  0  0  0  0  0  0  # atno 17371 bound_to 10713
  141.0663  133.6818  156.2051 LP  0  0  0  0  0  0  0  0  0  0  0  0  # atno 17394 bound_to 11000
  140.6580  134.4998  157.5582 LP  0  0  0  0  0  0  0  0  0  0  0  0  # atno 17395 bound_to 11000

$$$$
