AV-unprocessed.smi:3222|AV-procd|sdf|12303|dock1
  -GOLD-   2272018143D 1   1.00000     0.00000
 Structure written by MMmdl.
 41 42  0  0  0  0  0  0  0  0  2 V2000
  147.7168  141.4956  156.5287 C   0  0  0  0  0  0  0  0  0  0  0  0
  149.1057  140.9644  156.1238 C   0  0  2  0  0  0  0  0  0  0  0  0
  150.1308  142.0125  156.3446 N   0  3  0  0  0  0  0  0  0  0  0  0
  150.4096  142.3422  157.7572 C   0  0  0  0  0  0  0  0  0  0  0  0
  151.8000  142.9798  157.9023 C   0  0  0  0  0  0  0  0  0  0  0  0
  152.2579  142.9656  159.2889 N   0  0  0  0  0  0  0  0  0  0  0  0
  153.3279  142.0771  159.7097 C   0  0  0  0  0  0  0  0  0  0  0  0
  153.3973  142.2300  161.2362 C   0  0  0  0  0  0  0  0  0  0  0  0
  152.5585  143.4681  161.5723 C   0  0  0  0  0  0  0  0  0  0  0  0
  151.8219  143.7575  160.2757 C   0  0  0  0  0  0  0  0  0  0  0  0
  150.9456  144.6156  160.1810 O   0  0  0  0  0  0  0  0  0  0  0  0
  149.1525  140.4880  154.6478 C   0  0  2  0  0  0  0  0  0  0  0  0
  147.8346  139.8564  154.1605 C   0  0  0  0  0  0  0  0  0  0  0  0
  150.2539  139.5533  154.4401 N   0  0  0  0  0  0  0  0  0  0  0  0
  150.2125  138.2510  153.9812 C   0  0  0  0  0  0  0  0  0  0  0  0
  151.4911  137.7724  153.9926 C   0  0  0  0  0  0  0  0  0  0  0  0
  152.2561  138.8637  154.4896 C   0  0  0  0  0  0  0  0  0  0  0  0
  151.5123  139.9225  154.7663 N   0  0  0  0  0  0  0  0  0  0  0  0
  146.9549  140.7193  156.4646 H   0  0  0  0  0  0  0  0  0  0  0  0
  147.4062  142.3216  155.8880 H   0  0  0  0  0  0  0  0  0  0  0  0
  147.7041  141.8536  157.5578 H   0  0  0  0  0  0  0  0  0  0  0  0
  149.3491  140.1112  156.7592 H   0  0  0  0  0  0  0  0  0  0  0  0
  150.9943  141.6754  155.9421 H   0  0  0  0  0  0  0  0  0  0  0  0
  149.6441  143.0212  158.1322 H   0  0  0  0  0  0  0  0  0  0  0  0
  150.3573  141.4326  158.3572 H   0  0  0  0  0  0  0  0  0  0  0  0
  152.5202  142.4477  157.2790 H   0  0  0  0  0  0  0  0  0  0  0  0
  151.7825  144.0099  157.5420 H   0  0  0  0  0  0  0  0  0  0  0  0
  153.1262  141.0461  159.4163 H   0  0  0  0  0  0  0  0  0  0  0  0
  154.2625  142.3898  159.2422 H   0  0  0  0  0  0  0  0  0  0  0  0
  152.9713  141.3506  161.7210 H   0  0  0  0  0  0  0  0  0  0  0  0
  154.4262  142.3288  161.5843 H   0  0  0  0  0  0  0  0  0  0  0  0
  151.8642  143.2845  162.3928 H   0  0  0  0  0  0  0  0  0  0  0  0
  153.1895  144.3193  161.8304 H   0  0  0  0  0  0  0  0  0  0  0  0
  149.3396  141.3590  154.0165 H   0  0  0  0  0  0  0  0  0  0  0  0
  147.0265  140.5865  154.1255 H   0  0  0  0  0  0  0  0  0  0  0  0
  147.5170  139.0381  154.8073 H   0  0  0  0  0  0  0  0  0  0  0  0
  147.9434  139.4585  153.1507 H   0  0  0  0  0  0  0  0  0  0  0  0
  149.2877  137.7769  153.6867 H   0  0  0  0  0  0  0  0  0  0  0  0
  151.8288  136.7914  153.6927 H   0  0  0  0  0  0  0  0  0  0  0  0
  153.3211  138.9160  154.6612 H   0  0  0  0  0  0  0  0  0  0  0  0
  149.8574  142.8497  155.8500 H   0  0  0  0  0  0  0  0  0  0  0  0
  1  2  1  0  0  0  0
  1 19  1  0  0  0  0
  1 20  1  0  0  0  0
  1 21  1  0  0  0  0
  2  3  1  0  0  0  0
  2 12  1  0  0  0  0
  2 22  1  0  0  0  0
  3  4  1  0  0  0  0
  3 23  1  0  0  0  0
  3 41  1  0  0  0  0
  4  5  1  0  0  0  0
  4 24  1  0  0  0  0
  4 25  1  0  0  0  0
  5  6  1  0  0  0  0
  5 26  1  0  0  0  0
  5 27  1  0  0  0  0
  6 10  1  0  0  0  0
  6  7  1  0  0  0  0
  7  8  1  0  0  0  0
  7 28  1  0  0  0  0
  7 29  1  0  0  0  0
  8  9  1  0  0  0  0
  8 30  1  0  0  0  0
  8 31  1  0  0  0  0
  9 10  1  0  0  0  0
  9 32  1  0  0  0  0
  9 33  1  0  0  0  0
 10 11  2  0  0  0  0
 12 13  1  0  0  0  0
 12 14  1  0  0  0  0
 12 34  1  0  0  0  0
 13 35  1  0  0  0  0
 13 36  1  0  0  0  0
 13 37  1  0  0  0  0
 14 18  1  0  0  0  0
 14 15  1  0  0  0  0
 15 16  2  0  0  0  0
 15 38  1  0  0  0  0
 16 17  1  0  0  0  0
 16 39  1  0  0  0  0
 17 18  2  0  0  0  0
 17 40  1  0  0  0  0
M  CHG  1   3   1
M  END
> <s_m_source_file>
AV-unprocessed.smi

> <i_m_source_file_index>
3222

> <i_lp_mmshare_version>
43012

> <i_f3d_flags>
0

> <s_epik_input>
bjFbY0hdW2NIXVtjSF1uMVtDQEBIXShbQ0gzXSlbQ0BIXShbQ0gzXSlbTkhdW0NIMl1bQ0gyXU4yW0NIMl1bQ0gyXVtDSDJdQzI9Tw==

> <s_epik_cmdline>
J2VwaWtfcHl0aG9uJywgJy1waCcsICc3LjAnLCAnLXRuJywgJzgnLCAnLW1hJywgJzIwMCcsICctbWV0YWxfYmluZGluZycsICctaW1hZScsICc8aW5maWxlLm1hZT4nLCAnLW9tYWUnLCAnPG91dGZpbGUubWFlPic=

> <r_lp_tautomer_probability>
1

> <r_epik_Ionization_Penalty>
0.0064019

> <r_epik_Ionization_Penalty_Charging>
0.00639164

> <r_epik_Ionization_Penalty_Neutral>
1.02567e-05

> <r_epik_State_Penalty>
0.00472531

> <r_epik_Charging_Adjusted_Penalty>
0.011117

> <i_epik_Tot_Q>
1

> <i_epik_Tot_abs_Q>
1

> <r_epik_Metal_State_Penalty>
-0

> <b_epik_Metal_Only>
0

> <s_lp_Force_Field>
OPLS_2005

> <r_lp_Energy>
24.5342

> <b_lp_Chiralities_Consistent>
1

> <s_lp_Variant>
AV-unprocessed.smi:3222-1

> <Gold.Version>
5.8.1

> <Gold.Id.Protein>
6NUR|6NUR_protein|mol2

> <Gold.PLP.Fitness>
52.7960

> <Gold.PLP.PLP>
-43.6851

> <Gold.PLP.part.hbond>
-2.0000

> <Gold.PLP.part.metal>
0.0000

> <Gold.PLP.part.buried>
-5.5742

> <Gold.PLP.part.nonpolar>
-37.6756

> <Gold.PLP.part.repulsive>
0.3046

> <Gold.PLP.ligand.clash>
0.0000

> <Gold.PLP.ligand.torsion>
0.8774

> <Gold.PLP.Chemscore.Hbond>
2.5000

> <Gold.PLP.Chemscore.CHOScore>
0.9973

> <Gold.PLP.Chemscore.Metal>
0.0000

> <Gold.Chemscore.Hbonds>
donor molecule, donor type, donor heavy atom, donor atom, acceptor molecule, acceptor atom, score
      L1  H     3    41       P1  8028  1.59
      P1  H  7989  7998       L1    18  0.65
      L1  C    15    38       P1  7948  0.92

> <Gold.PLP.Chemscore.Internal.Correction>
0.3738

> <Gold.Rescore>
     Score         DG    S(hbond)    S(metal)    S(lipo)     H(rot)  DE(clash)    DE(int)     intcor
     15.49     -17.08       1.79        0.00      91.53       1.99       0.04       1.56       ----

> <Gold.Chemscore.Fitness>
15.4872

> <Gold.Chemscore.DG>
-17.0795

> <Gold.Chemscore.ZeroCoef>
-5.4800

> <Gold.Chemscore.Hbond>
1.7937

> <Gold.Chemscore.Metal>
0.0000

> <Gold.Chemscore.Lipo>
91.5269

> <Gold.Chemscore.Internal_Hbond>
0.0000

> <Gold.Chemscore.DEClash>
0.0354

> <Gold.Chemscore.DEInternal>
1.5569

> <Gold.Chemscore.Rot>
1.9922

> <Gold.Chemscore.Internal.Correction>
   9.000000E+99

> <Gold.Chemscore.Hbonds>
donor molecule, donor type, donor heavy atom, donor atom, acceptor molecule, acceptor atom, score
      L1  H     3    41       P1  8028  0.77
      P1  H  7989  7998       L1    18  0.03

> <Gold.Chemscore.Hbond.Weighted>
-5.9910

> <Gold.Chemscore.Metal.Weighted>
-0.0000

> <Gold.Chemscore.Lipo.Weighted>
-10.7086

> <Gold.Chemscore.Internal_Hbond.Weighted>
0.0000

> <Gold.Chemscore.DEClash.Weighted>
0.0354

> <Gold.Chemscore.DEInternal.Weighted>
1.5569

> <Gold.Chemscore.Rot.Weighted>
5.1002

> <Gold.Chemscore.Internal.Correction.Weighted>
   9.000000E+99

> <Gold.Protein.RotatedTorsions>
[ 6907 6896 6895 6894 ] final -121.44 input  -60.11 | X-H torsion
[ 7974 7965 7964 7962 ] final  -34.87 input  175.53 | X-H torsion
[ 8008 7997 7996 7995 ] final  -96.84 input   59.86 | X-H torsion
[ 10167 10162 10161 10158 ] final   97.53 input  -65.29 | X-H torsion
[ 10718 10713 10712 10709 ] final  -24.05 input   66.30 | X-H torsion
[ 10763 10752 10751 10750 ] final  -22.57 input  -60.55 | X-H torsion
[ 11005 11000 10999 10996 ] final   56.74 input  -57.11 | X-H torsion

> <Gold.Protein.ActiveResidues>
 VAL166  LYS551  ARG553  GLY616  TRP617  ASP618  TYR619  PRO620  LYS621  CYS622 
 ASP623  PHE694  ASN695  SER759  ASP760  ASP761  ALA762  ILE779  LEU786  VAL792 
 PHE793  MET794  SER795  GLU796  ALA797  LYS798  CYS799  TRP800  GLU811  SER814 

> <Gold.Protein.RotatedAtoms>
  150.8484  133.7825  159.3034 H   0  0  0  0  0  0  0  0  0  0  0  0  # atno 6907 bound_to 6896
  151.5505  135.1066  159.9958 H   0  0  0  0  0  0  0  0  0  0  0  0  # atno 6908 bound_to 6896
  152.4532  133.7628  159.6812 H   0  0  0  0  0  0  0  0  0  0  0  0  # atno 6909 bound_to 6896
  146.0793  140.6091  142.8915 H   0  0  0  0  0  0  0  0  0  0  0  0  # atno 7974 bound_to 7965
  154.7798  140.0468  157.1118 H   0  0  0  0  0  0  0  0  0  0  0  0  # atno 8008 bound_to 7997
  154.9718  140.3090  155.4965 H   0  0  0  0  0  0  0  0  0  0  0  0  # atno 8009 bound_to 7997
  156.2934  140.2252  156.4812 H   0  0  0  0  0  0  0  0  0  0  0  0  # atno 8010 bound_to 7997
  139.7792  144.6894  151.0046 H   0  0  0  0  0  0  0  0  0  0  0  0  # atno 10167 bound_to 10162
  156.4828  130.4549  149.6801 H   0  0  0  0  0  0  0  0  0  0  0  0  # atno 10718 bound_to 10713
  153.6540  135.6979  153.5199 H   0  0  0  0  0  0  0  0  0  0  0  0  # atno 10763 bound_to 10752
  153.2684  135.4222  155.0963 H   0  0  0  0  0  0  0  0  0  0  0  0  # atno 10764 bound_to 10752
  154.8469  135.3572  154.6085 H   0  0  0  0  0  0  0  0  0  0  0  0  # atno 10765 bound_to 10752
  140.0506  134.5742  155.9268 H   0  0  0  0  0  0  0  0  0  0  0  0  # atno 11005 bound_to 11000
  144.7283  140.4593  143.6957 LP  0  0  0  0  0  0  0  0  0  0  0  0  # atno 17320 bound_to 7965
  145.6247  139.1528  143.3003 LP  0  0  0  0  0  0  0  0  0  0  0  0  # atno 17321 bound_to 7965
  140.7817  143.4501  151.0425 LP  0  0  0  0  0  0  0  0  0  0  0  0  # atno 17342 bound_to 10162
  139.8183  143.7856  152.3175 LP  0  0  0  0  0  0  0  0  0  0  0  0  # atno 17343 bound_to 10162
  156.3504  130.7429  151.2388 LP  0  0  0  0  0  0  0  0  0  0  0  0  # atno 17370 bound_to 10713
  157.7481  131.0378  150.4475 LP  0  0  0  0  0  0  0  0  0  0  0  0  # atno 17371 bound_to 10713
  141.1928  133.6576  156.5520 LP  0  0  0  0  0  0  0  0  0  0  0  0  # atno 17394 bound_to 11000
  140.3923  134.7429  157.4729 LP  0  0  0  0  0  0  0  0  0  0  0  0  # atno 17395 bound_to 11000

$$$$
