AV-unprocessed.smi:2146|AV-procd|sdf|8741|dock2
  -GOLD-   2272011513D 1   1.00000     0.00000
 Structure written by MMmdl.
 45 46  0  0  0  0  0  0  0  0  2 V2000
  149.7148  136.0519  155.1952 C   0  0  0  0  0  0  0  0  0  0  0  0
  149.3836  134.5578  154.9714 C   0  0  1  0  0  0  0  0  0  0  0  0
  148.9605  133.8929  156.3137 C   0  0  0  0  0  0  0  0  0  0  0  0
  148.0047  134.6920  157.0762 N   0  0  0  0  0  0  0  0  0  0  0  0
  148.3060  135.4299  158.1555 C   0  0  0  0  0  0  0  0  0  0  0  0
  149.4410  135.4906  158.6303 O   0  0  0  0  0  0  0  0  0  0  0  0
  147.1413  136.2076  158.7846 C   0  0  0  0  0  0  0  0  0  0  0  0
  146.8626  135.8113  160.1749 N   0  0  0  0  0  0  0  0  0  0  0  0
  145.6015  135.2376  160.4285 C   0  0  0  0  0  0  0  0  0  0  0  0
  145.2161  134.8230  161.6502 C   0  0  0  0  0  0  0  0  0  0  0  0
  143.8232  134.2649  161.8967 C   0  0  0  0  0  0  0  0  0  0  0  0
  143.6243  133.1391  161.2109 F   0  0  0  0  0  0  0  0  0  0  0  0
  143.6360  134.0055  163.1913 F   0  0  0  0  0  0  0  0  0  0  0  0
  142.9055  135.1526  161.5163 F   0  0  0  0  0  0  0  0  0  0  0  0
  146.1666  135.0196  162.7274 C   0  0  0  0  0  0  0  0  0  0  0  0
  147.3708  135.5821  162.5051 C   0  0  0  0  0  0  0  0  0  0  0  0
  147.7783  136.0197  161.1679 C   0  0  0  0  0  0  0  0  0  0  0  0
  148.8724  136.5423  160.9546 O   0  0  0  0  0  0  0  0  0  0  0  0
  148.3675  134.4075  153.8775 N   0  3  0  0  0  0  0  0  0  0  0  0
  148.1535  132.9864  153.4864 C   0  0  0  0  0  0  0  0  0  0  0  0
  147.1651  132.8725  152.3147 C   0  0  0  0  0  0  0  0  0  0  0  0
  145.9317  133.4738  152.6767 O   0  0  0  0  0  0  0  0  0  0  0  0
  146.0906  134.8580  152.9473 C   0  0  0  0  0  0  0  0  0  0  0  0
  147.0510  135.0553  154.1335 C   0  0  0  0  0  0  0  0  0  0  0  0
  150.4637  136.1905  155.9747 H   0  0  0  0  0  0  0  0  0  0  0  0
  148.8267  136.6102  155.4916 H   0  0  0  0  0  0  0  0  0  0  0  0
  150.1255  136.5287  154.3073 H   0  0  0  0  0  0  0  0  0  0  0  0
  150.2921  134.0553  154.6352 H   0  0  0  0  0  0  0  0  0  0  0  0
  148.5065  132.9197  156.1229 H   0  0  0  0  0  0  0  0  0  0  0  0
  149.8191  133.7190  156.9632 H   0  0  0  0  0  0  0  0  0  0  0  0
  147.0468  134.6896  156.7554 H   0  0  0  0  0  0  0  0  0  0  0  0
  147.3648  137.2754  158.7482 H   0  0  0  0  0  0  0  0  0  0  0  0
  146.2593  136.0818  158.1547 H   0  0  0  0  0  0  0  0  0  0  0  0
  144.9593  135.1661  159.5624 H   0  0  0  0  0  0  0  0  0  0  0  0
  145.9119  134.7086  163.7298 H   0  0  0  0  0  0  0  0  0  0  0  0
  148.0543  135.7128  163.3312 H   0  0  0  0  0  0  0  0  0  0  0  0
  149.0876  132.5140  153.1892 H   0  0  0  0  0  0  0  0  0  0  0  0
  147.7741  132.4259  154.3424 H   0  0  0  0  0  0  0  0  0  0  0  0
  147.5679  133.3407  151.4150 H   0  0  0  0  0  0  0  0  0  0  0  0
  146.9871  131.8240  152.0754 H   0  0  0  0  0  0  0  0  0  0  0  0
  146.4577  135.3750  152.0591 H   0  0  0  0  0  0  0  0  0  0  0  0
  145.1149  135.2846  153.1810 H   0  0  0  0  0  0  0  0  0  0  0  0
  146.6118  134.6456  155.0448 H   0  0  0  0  0  0  0  0  0  0  0  0
  147.1673  136.1288  154.2770 H   0  0  0  0  0  0  0  0  0  0  0  0
  148.7509  134.8782  153.0702 H   0  0  0  0  0  0  0  0  0  0  0  0
  1  2  1  0  0  0  0
  1 25  1  0  0  0  0
  1 26  1  0  0  0  0
  1 27  1  0  0  0  0
  2  3  1  0  0  0  0
  2 19  1  0  0  0  0
  2 28  1  0  0  0  0
  3  4  1  0  0  0  0
  3 29  1  0  0  0  0
  3 30  1  0  0  0  0
  4  5  1  0  0  0  0
  4 31  1  0  0  0  0
  5  6  2  0  0  0  0
  5  7  1  0  0  0  0
  7  8  1  0  0  0  0
  7 32  1  0  0  0  0
  7 33  1  0  0  0  0
  8 17  1  0  0  0  0
  8  9  1  0  0  0  0
  9 10  2  0  0  0  0
  9 34  1  0  0  0  0
 10 11  1  0  0  0  0
 10 15  1  0  0  0  0
 11 12  1  0  0  0  0
 11 13  1  0  0  0  0
 11 14  1  0  0  0  0
 15 16  2  0  0  0  0
 15 35  1  0  0  0  0
 16 17  1  0  0  0  0
 16 36  1  0  0  0  0
 17 18  2  0  0  0  0
 19 24  1  0  0  0  0
 19 20  1  0  0  0  0
 19 45  1  0  0  0  0
 20 21  1  0  0  0  0
 20 37  1  0  0  0  0
 20 38  1  0  0  0  0
 21 22  1  0  0  0  0
 21 39  1  0  0  0  0
 21 40  1  0  0  0  0
 22 23  1  0  0  0  0
 23 24  1  0  0  0  0
 23 41  1  0  0  0  0
 23 42  1  0  0  0  0
 24 43  1  0  0  0  0
 24 44  1  0  0  0  0
M  CHG  1  19   1
M  END
> <s_m_source_file>
AV-unprocessed.smi

> <i_m_source_file_index>
2146

> <i_lp_mmshare_version>
43012

> <i_f3d_flags>
0

> <s_epik_input>
W0NIMl0xW0NIMl1PW0NIMl1bQ0gyXU4xW0NASF0oW0NIM10pW0NIMl1bTkhdQyg9TylbQ0gyXW4yW2NIXWMoQyhGKShGKUYpW2NIXVtjSF1jMj1P

> <s_epik_cmdline>
J2VwaWtfcHl0aG9uJywgJy1waCcsICc3LjAnLCAnLXRuJywgJzgnLCAnLW1hJywgJzIwMCcsICctbWV0YWxfYmluZGluZycsICctaW1hZScsICc8aW5maWxlLm1hZT4nLCAnLW9tYWUnLCAnPG91dGZpbGUubWFlPic=

> <r_lp_tautomer_probability>
1

> <r_epik_Ionization_Penalty>
0.656654

> <r_epik_Ionization_Penalty_Charging>
0.656653

> <r_epik_Ionization_Penalty_Neutral>
9.12373e-08

> <r_epik_State_Penalty>
0.675641

> <r_epik_Charging_Adjusted_Penalty>
1.33229

> <i_epik_Tot_Q>
1

> <i_epik_Tot_abs_Q>
1

> <r_epik_Metal_State_Penalty>
0.675692

> <b_epik_Metal_Only>
0

> <s_lp_Force_Field>
OPLS_2005

> <r_lp_Energy>
32.7302

> <b_lp_Chiralities_Consistent>
1

> <s_lp_Variant>
AV-unprocessed.smi:2146-4

> <Gold.Version>
5.8.1

> <Gold.Id.Protein>
6NUR|6NUR_protein|mol2

> <Gold.PLP.Fitness>
44.7957

> <Gold.PLP.PLP>
-33.6323

> <Gold.PLP.part.hbond>
-3.0000

> <Gold.PLP.part.metal>
0.0000

> <Gold.PLP.part.buried>
-2.9652

> <Gold.PLP.part.nonpolar>
-28.1582

> <Gold.PLP.part.repulsive>
0.1309

> <Gold.PLP.ligand.clash>
0.0000

> <Gold.PLP.ligand.torsion>
0.3058

> <Gold.PLP.Chemscore.Hbond>
3.8640

> <Gold.PLP.Chemscore.CHOScore>
0.0000

> <Gold.PLP.Chemscore.Metal>
0.0000

> <Gold.Chemscore.Hbonds>
donor molecule, donor type, donor heavy atom, donor atom, acceptor molecule, acceptor atom, score
      L1  H    19    45       P1  7948  2.00
      P1  H  6896  6907       L1     6  1.00
      P1  H  6931  6943       L1    18  1.00

> <Gold.PLP.Chemscore.Internal.Correction>
0.1830

> <Gold.Rescore>
     Score         DG    S(hbond)    S(metal)    S(lipo)     H(rot)  DE(clash)    DE(int)     intcor
     14.78     -16.98       2.94        0.00      62.10       2.18       0.13       2.07       ----

> <Gold.Chemscore.Fitness>
14.7787

> <Gold.Chemscore.DG>
-16.9805

> <Gold.Chemscore.ZeroCoef>
-5.4800

> <Gold.Chemscore.Hbond>
2.9394

> <Gold.Chemscore.Metal>
0.0000

> <Gold.Chemscore.Lipo>
62.0952

> <Gold.Chemscore.Internal_Hbond>
0.0000

> <Gold.Chemscore.DEClash>
0.1275

> <Gold.Chemscore.DEInternal>
2.0743

> <Gold.Chemscore.Rot>
2.1805

> <Gold.Chemscore.Internal.Correction>
   9.000000E+99

> <Gold.Chemscore.Hbonds>
donor molecule, donor type, donor heavy atom, donor atom, acceptor molecule, acceptor atom, score
      L1  H    19    45       P1  7948  0.30
      P1  H  6896  6907       L1     6  1.00
      P1  H  6931  6943       L1    18  0.78

> <Gold.Chemscore.Hbond.Weighted>
-9.8175

> <Gold.Chemscore.Metal.Weighted>
-0.0000

> <Gold.Chemscore.Lipo.Weighted>
-7.2651

> <Gold.Chemscore.Internal_Hbond.Weighted>
0.0000

> <Gold.Chemscore.DEClash.Weighted>
0.1275

> <Gold.Chemscore.DEInternal.Weighted>
2.0743

> <Gold.Chemscore.Rot.Weighted>
5.5822

> <Gold.Chemscore.Internal.Correction.Weighted>
   9.000000E+99

> <Gold.Protein.RotatedTorsions>
[ 6907 6896 6895 6894 ] final  -56.45 input  -60.11 | X-H torsion
[ 7974 7965 7964 7962 ] final   82.06 input  175.53 | X-H torsion
[ 8008 7997 7996 7995 ] final -102.50 input   59.86 | X-H torsion
[ 10167 10162 10161 10158 ] final  143.99 input  -65.29 | X-H torsion
[ 10718 10713 10712 10709 ] final   49.54 input   66.30 | X-H torsion
[ 10763 10752 10751 10750 ] final   98.21 input  -60.55 | X-H torsion
[ 11005 11000 10999 10996 ] final  107.59 input  -57.11 | X-H torsion

> <Gold.Protein.ActiveResidues>
 VAL166  LYS551  ARG553  GLY616  TRP617  ASP618  TYR619  PRO620  LYS621  CYS622 
 ASP623  PHE694  ASN695  SER759  ASP760  ASP761  ALA762  ILE779  LEU786  VAL792 
 PHE793  MET794  SER795  GLU796  ALA797  LYS798  CYS799  TRP800  GLU811  SER814 

> <Gold.Protein.RotatedAtoms>
  150.8166  134.7351  159.6735 H   0  0  0  0  0  0  0  0  0  0  0  0  # atno 6907 bound_to 6896
  152.4284  134.5820  159.9960 H   0  0  0  0  0  0  0  0  0  0  0  0  # atno 6908 bound_to 6896
  151.6015  133.3318  159.3084 H   0  0  0  0  0  0  0  0  0  0  0  0  # atno 6909 bound_to 6896
  145.6301  139.2403  143.2090 H   0  0  0  0  0  0  0  0  0  0  0  0  # atno 7974 bound_to 7965
  154.8576  140.0428  157.1644 H   0  0  0  0  0  0  0  0  0  0  0  0  # atno 8008 bound_to 7997
  154.8875  140.2981  155.5369 H   0  0  0  0  0  0  0  0  0  0  0  0  # atno 8009 bound_to 7997
  156.2998  140.2399  156.3886 H   0  0  0  0  0  0  0  0  0  0  0  0  # atno 8010 bound_to 7997
  139.4957  144.6003  151.6495 H   0  0  0  0  0  0  0  0  0  0  0  0  # atno 10167 bound_to 10162
  157.4797  130.8307  149.8079 H   0  0  0  0  0  0  0  0  0  0  0  0  # atno 10718 bound_to 10713
  153.2862  135.4156  155.1125 H   0  0  0  0  0  0  0  0  0  0  0  0  # atno 10763 bound_to 10752
  154.8506  135.3507  154.6043 H   0  0  0  0  0  0  0  0  0  0  0  0  # atno 10764 bound_to 10752
  153.6465  135.7054  153.5281 H   0  0  0  0  0  0  0  0  0  0  0  0  # atno 10765 bound_to 10752
  139.8830  134.9405  156.5842 H   0  0  0  0  0  0  0  0  0  0  0  0  # atno 11005 bound_to 11000
  146.1364  140.7117  142.9388 LP  0  0  0  0  0  0  0  0  0  0  0  0  # atno 17320 bound_to 7965
  144.7197  140.4331  143.7017 LP  0  0  0  0  0  0  0  0  0  0  0  0  # atno 17321 bound_to 7965
  140.5651  144.0203  150.6188 LP  0  0  0  0  0  0  0  0  0  0  0  0  # atno 17342 bound_to 10162
  140.3302  143.3082  152.0695 LP  0  0  0  0  0  0  0  0  0  0  0  0  # atno 17343 bound_to 10162
  156.0115  130.3831  150.2250 LP  0  0  0  0  0  0  0  0  0  0  0  0  # atno 17370 bound_to 10713
  157.0435  131.0042  151.3276 LP  0  0  0  0  0  0  0  0  0  0  0  0  # atno 17371 bound_to 10713
  140.8004  133.8510  155.8722 LP  0  0  0  0  0  0  0  0  0  0  0  0  # atno 17394 bound_to 11000
  140.9598  134.1671  157.4663 LP  0  0  0  0  0  0  0  0  0  0  0  0  # atno 17395 bound_to 11000

$$$$
