AV-unprocessed.smi:229|AV-procd|sdf|1753|dock3
  -GOLD-   2262020273D 1   1.00000     0.00000
 Structure written by MMmdl.
 58 62  0  0  0  0  0  0  0  0  1 V2000
  148.8637  131.8940  155.4611 C   0  0  0  0  0  0  0  0  0  0  0  0
  149.4106  132.6884  156.6535 C   0  0  0  0  0  0  0  0  0  0  0  0
  148.8154  134.1005  156.7568 C   0  0  2  0  0  0  0  0  0  0  0  0
  149.8704  135.1860  156.4821 C   0  0  0  0  0  0  0  0  0  0  0  0
  149.2935  136.5086  156.6988 N   0  0  0  0  0  0  0  0  0  0  0  0
  149.9610  137.5905  156.2224 C   0  0  0  0  0  0  0  0  0  0  0  0
  150.7045  137.4839  155.0884 N   0  0  0  0  0  0  0  0  0  0  0  0
  151.3623  138.5432  154.6088 C   0  0  0  0  0  0  0  0  0  0  0  0
  151.4129  139.7838  155.0961 N   0  0  0  0  0  0  0  0  0  0  0  0
  150.6695  139.9009  156.2336 C   0  0  0  0  0  0  0  0  0  0  0  0
  149.9160  138.8654  156.8560 C   0  0  0  0  0  0  0  0  0  0  0  0
  149.2662  139.3659  157.9776 N   0  0  0  0  0  0  0  0  0  0  0  0
  149.6224  140.6202  158.0209 C   0  0  0  0  0  0  0  0  0  0  0  0
  150.4792  141.0250  157.0207 N   0  0  0  0  0  0  0  0  0  0  0  0
  151.0229  142.3614  156.8117 C   0  0  0  0  0  0  0  0  0  0  0  0
  151.0068  143.2683  158.0665 C   0  0  1  0  0  0  0  0  0  0  0  0
  149.6881  143.7461  158.2462 O   0  0  0  0  0  0  0  0  0  0  0  0
  151.4441  142.5805  159.3782 C   0  0  1  0  0  0  0  0  0  0  0  0
  152.8212  141.9053  159.3255 C   0  0  0  0  0  0  0  0  0  0  0  0
  153.3921  142.0786  160.7262 C   0  0  0  0  0  0  0  0  0  0  0  0
  152.3619  142.9505  161.4396 C   0  0  0  0  0  0  0  0  0  0  0  0
  151.6473  143.5657  160.3815 O   0  0  0  0  0  0  0  0  0  0  0  0
  148.7236  136.6640  158.0321 C   0  0  0  0  0  0  0  0  0  0  0  0
  147.6915  135.5499  158.3202 C   0  0  1  0  0  0  0  0  0  0  0  0
  147.2442  135.5828  159.7780 C   0  0  0  0  0  0  0  0  0  0  0  0
  145.9628  136.4013  159.7307 C   0  0  0  0  0  0  0  0  0  0  0  0
  145.3464  135.9267  158.5488 O   0  0  0  0  0  0  0  0  0  0  0  0
  146.3567  135.7471  157.5630 C   0  0  0  0  0  0  0  0  0  0  0  0
  148.2903  134.2741  158.0748 O   0  0  0  0  0  0  0  0  0  0  0  0
  149.3216  130.9059  155.4114 H   0  0  0  0  0  0  0  0  0  0  0  0
  149.0703  132.4039  154.5198 H   0  0  0  0  0  0  0  0  0  0  0  0
  147.7850  131.7562  155.5383 H   0  0  0  0  0  0  0  0  0  0  0  0
  149.2191  132.1396  157.5762 H   0  0  0  0  0  0  0  0  0  0  0  0
  150.4947  132.7596  156.5580 H   0  0  0  0  0  0  0  0  0  0  0  0
  148.0163  134.1922  156.0206 H   0  0  0  0  0  0  0  0  0  0  0  0
  150.7297  135.0537  157.1413 H   0  0  0  0  0  0  0  0  0  0  0  0
  150.2283  135.0950  155.4557 H   0  0  0  0  0  0  0  0  0  0  0  0
  151.9283  138.3724  153.7050 H   0  0  0  0  0  0  0  0  0  0  0  0
  149.2620  141.2857  158.7912 H   0  0  0  0  0  0  0  0  0  0  0  0
  152.0476  142.2625  156.4535 H   0  0  0  0  0  0  0  0  0  0  0  0
  150.4698  142.8310  155.9973 H   0  0  0  0  0  0  0  0  0  0  0  0
  151.6502  144.1287  157.8784 H   0  0  0  0  0  0  0  0  0  0  0  0
  149.3630  144.0490  157.4124 H   0  0  0  0  0  0  0  0  0  0  0  0
  150.6947  141.8626  159.7187 H   0  0  0  0  0  0  0  0  0  0  0  0
  152.7509  140.8558  159.0432 H   0  0  0  0  0  0  0  0  0  0  0  0
  153.4702  142.4034  158.6041 H   0  0  0  0  0  0  0  0  0  0  0  0
  153.5317  141.1269  161.2395 H   0  0  0  0  0  0  0  0  0  0  0  0
  154.3591  142.5804  160.6784 H   0  0  0  0  0  0  0  0  0  0  0  0
  151.6776  142.3393  162.0301 H   0  0  0  0  0  0  0  0  0  0  0  0
  152.8182  143.6900  162.0980 H   0  0  0  0  0  0  0  0  0  0  0  0
  149.5401  136.6069  158.7534 H   0  0  0  0  0  0  0  0  0  0  0  0
  148.2624  137.6415  158.1672 H   0  0  0  0  0  0  0  0  0  0  0  0
  147.0079  134.5745  160.1217 H   0  0  0  0  0  0  0  0  0  0  0  0
  147.9890  135.9974  160.4577 H   0  0  0  0  0  0  0  0  0  0  0  0
  145.3302  136.2495  160.6052 H   0  0  0  0  0  0  0  0  0  0  0  0
  146.1773  137.4670  159.6350 H   0  0  0  0  0  0  0  0  0  0  0  0
  146.3897  136.6261  156.9181 H   0  0  0  0  0  0  0  0  0  0  0  0
  146.0885  134.8919  156.9435 H   0  0  0  0  0  0  0  0  0  0  0  0
  1  2  1  0  0  0  0
  1 30  1  0  0  0  0
  1 31  1  0  0  0  0
  1 32  1  0  0  0  0
  2  3  1  0  0  0  0
  2 33  1  0  0  0  0
  2 34  1  0  0  0  0
  3 29  1  0  0  0  0
  3  4  1  0  0  0  0
  3 35  1  0  0  0  0
  4  5  1  0  0  0  0
  4 36  1  0  0  0  0
  4 37  1  0  0  0  0
  5  6  1  0  0  0  0
  5 23  1  0  0  0  0
  6 11  1  0  0  0  0
  6  7  2  0  0  0  0
  7  8  1  0  0  0  0
  8  9  2  0  0  0  0
  8 38  1  0  0  0  0
  9 10  1  0  0  0  0
 10 14  1  0  0  0  0
 10 11  2  0  0  0  0
 11 12  1  0  0  0  0
 12 13  2  0  0  0  0
 13 14  1  0  0  0  0
 13 39  1  0  0  0  0
 14 15  1  0  0  0  0
 15 16  1  0  0  0  0
 15 40  1  0  0  0  0
 15 41  1  0  0  0  0
 16 17  1  0  0  0  0
 16 18  1  0  0  0  0
 16 42  1  0  0  0  0
 17 43  1  0  0  0  0
 18 22  1  0  0  0  0
 18 19  1  0  0  0  0
 18 44  1  0  0  0  0
 19 20  1  0  0  0  0
 19 45  1  0  0  0  0
 19 46  1  0  0  0  0
 20 21  1  0  0  0  0
 20 47  1  0  0  0  0
 20 48  1  0  0  0  0
 21 22  1  0  0  0  0
 21 49  1  0  0  0  0
 21 50  1  0  0  0  0
 23 24  1  0  0  0  0
 23 51  1  0  0  0  0
 23 52  1  0  0  0  0
 24 28  1  0  0  0  0
 24 25  1  0  0  0  0
 24 29  1  0  0  0  0
 25 26  1  0  0  0  0
 25 53  1  0  0  0  0
 25 54  1  0  0  0  0
 26 27  1  0  0  0  0
 26 55  1  0  0  0  0
 26 56  1  0  0  0  0
 27 28  1  0  0  0  0
 28 57  1  0  0  0  0
 28 58  1  0  0  0  0
M  END
> <s_m_source_file>
AV-unprocessed.smi

> <i_m_source_file_index>
229

> <i_lp_mmshare_version>
43012

> <i_f3d_flags>
0

> <s_epik_input>
W0NIMl0xT1tDSDJdW0NIMl1bQ0BdMTJbQ0gyXU4oW0NIMl1bQ0BIXShPMilbQ0gyXVtDSDNdKWMobltjSF1uMyljKGMzNCluW2NIXW40W0NIMl1bQ0BIXShbT0hdKVtDQEBIXTVbQ0gyXVtDSDJdW0NIMl1PNQ==

> <s_epik_cmdline>
J2VwaWtfcHl0aG9uJywgJy1waCcsICc3LjAnLCAnLXRuJywgJzgnLCAnLW1hJywgJzIwMCcsICctbWV0YWxfYmluZGluZycsICctaW1hZScsICc8aW5maWxlLm1hZT4nLCAnLW9tYWUnLCAnPG91dGZpbGUubWFlPic=

> <r_lp_tautomer_probability>
1

> <r_epik_Ionization_Penalty>
0.00318402

> <r_epik_Ionization_Penalty_Charging>
0

> <r_epik_Ionization_Penalty_Neutral>
0.00318402

> <r_epik_State_Penalty>
0.00215642

> <r_epik_Charging_Adjusted_Penalty>
0.00215642

> <i_epik_Tot_Q>
0

> <i_epik_Tot_abs_Q>
0

> <r_epik_Metal_State_Penalty>
-0

> <b_epik_Metal_Only>
0

> <s_lp_Force_Field>
OPLS_2005

> <r_lp_Energy>
56.4777

> <b_lp_Chiralities_Consistent>
1

> <s_lp_Variant>
AV-unprocessed.smi:229-7

> <Gold.Version>
5.8.1

> <Gold.Id.Protein>
6NUR|6NUR_protein|mol2

> <Gold.PLP.Fitness>
47.5400

> <Gold.PLP.PLP>
-41.5571

> <Gold.PLP.part.hbond>
-3.6795

> <Gold.PLP.part.metal>
0.0000

> <Gold.PLP.part.buried>
-7.6843

> <Gold.PLP.part.nonpolar>
-30.6116

> <Gold.PLP.part.repulsive>
0.2357

> <Gold.PLP.ligand.clash>
0.0000

> <Gold.PLP.ligand.torsion>
1.6937

> <Gold.PLP.Chemscore.Hbond>
2.9920

> <Gold.PLP.Chemscore.CHOScore>
0.0000

> <Gold.PLP.Chemscore.Metal>
0.0000

> <Gold.Chemscore.Hbonds>
donor molecule, donor type, donor heavy atom, donor atom, acceptor molecule, acceptor atom, score
      L1  H    17    43       P1  8028  0.90
      P1  H  7989  7998       L1     9  1.00

> <Gold.PLP.Chemscore.Internal.Correction>
0.3944

> <Gold.Rescore>
     Score         DG    S(hbond)    S(metal)    S(lipo)     H(rot)  DE(clash)    DE(int)     intcor
     13.74     -18.76       2.36        0.00      99.85       2.46       0.62       4.40       ----

> <Gold.Chemscore.Fitness>
13.7354

> <Gold.Chemscore.DG>
-18.7563

> <Gold.Chemscore.ZeroCoef>
-5.4800

> <Gold.Chemscore.Hbond>
2.3621

> <Gold.Chemscore.Metal>
0.0000

> <Gold.Chemscore.Lipo>
99.8490

> <Gold.Chemscore.Internal_Hbond>
0.0000

> <Gold.Chemscore.DEClash>
0.6166

> <Gold.Chemscore.DEInternal>
4.4043

> <Gold.Chemscore.Rot>
2.4591

> <Gold.Chemscore.Internal.Correction>
   9.000000E+99

> <Gold.Chemscore.Hbonds>
donor molecule, donor type, donor heavy atom, donor atom, acceptor molecule, acceptor atom, score
      L1  H    17    43       P1  8028  0.18
      P1  H  7989  7998       L1     9  0.39

> <Gold.Chemscore.Hbond.Weighted>
-7.8893

> <Gold.Chemscore.Metal.Weighted>
-0.0000

> <Gold.Chemscore.Lipo.Weighted>
-11.6823

> <Gold.Chemscore.Internal_Hbond.Weighted>
0.0000

> <Gold.Chemscore.DEClash.Weighted>
0.6166

> <Gold.Chemscore.DEInternal.Weighted>
4.4043

> <Gold.Chemscore.Rot.Weighted>
6.2953

> <Gold.Chemscore.Internal.Correction.Weighted>
   9.000000E+99

> <Gold.Protein.RotatedTorsions>
[ 6907 6896 6895 6894 ] final    6.02 input  -60.11 | X-H torsion
[ 7974 7965 7964 7962 ] final  143.89 input  175.53 | X-H torsion
[ 8008 7997 7996 7995 ] final   95.60 input   59.86 | X-H torsion
[ 10167 10162 10161 10158 ] final  -99.55 input  -65.29 | X-H torsion
[ 10718 10713 10712 10709 ] final  119.40 input   66.30 | X-H torsion
[ 10763 10752 10751 10750 ] final   26.08 input  -60.55 | X-H torsion
[ 11005 11000 10999 10996 ] final  -12.82 input  -57.11 | X-H torsion

> <Gold.Protein.ActiveResidues>
 VAL166  LYS551  ARG553  GLY616  TRP617  ASP618  TYR619  PRO620  LYS621  CYS622 
 ASP623  PHE694  ASN695  SER759  ASP760  ASP761  ALA762  ILE779  LEU786  VAL792 
 PHE793  MET794  SER795  GLU796  ALA797  LYS798  CYS799  TRP800  GLU811  SER814 

> <Gold.Protein.RotatedAtoms>
  151.6669  135.0981  160.0190 H   0  0  0  0  0  0  0  0  0  0  0  0  # atno 6907 bound_to 6896
  152.3914  133.6680  159.6249 H   0  0  0  0  0  0  0  0  0  0  0  0  # atno 6908 bound_to 6896
  150.7829  133.8864  159.3342 H   0  0  0  0  0  0  0  0  0  0  0  0  # atno 6909 bound_to 6896
  144.8882  139.5597  143.5811 H   0  0  0  0  0  0  0  0  0  0  0  0  # atno 7974 bound_to 7965
  156.0706  140.3284  155.7572 H   0  0  0  0  0  0  0  0  0  0  0  0  # atno 8008 bound_to 7997
  155.5311  140.0593  157.2906 H   0  0  0  0  0  0  0  0  0  0  0  0  # atno 8009 bound_to 7997
  154.4528  140.1927  156.0485 H   0  0  0  0  0  0  0  0  0  0  0  0  # atno 8010 bound_to 7997
  140.2613  143.3405  152.0623 H   0  0  0  0  0  0  0  0  0  0  0  0  # atno 10167 bound_to 10162
  157.5964  131.1057  150.7891 H   0  0  0  0  0  0  0  0  0  0  0  0  # atno 10718 bound_to 10713
  153.0647  135.6568  154.0382 H   0  0  0  0  0  0  0  0  0  0  0  0  # atno 10763 bound_to 10752
  154.0041  135.2934  155.3401 H   0  0  0  0  0  0  0  0  0  0  0  0  # atno 10764 bound_to 10752
  154.7000  135.5248  153.8582 H   0  0  0  0  0  0  0  0  0  0  0  0  # atno 10765 bound_to 10752
  140.7697  133.8448  155.9196 H   0  0  0  0  0  0  0  0  0  0  0  0  # atno 11005 bound_to 11000
  146.3037  139.7511  142.9072 LP  0  0  0  0  0  0  0  0  0  0  0  0  # atno 17320 bound_to 7965
  145.3831  141.0361  143.3166 LP  0  0  0  0  0  0  0  0  0  0  0  0  # atno 17321 bound_to 7965
  139.5016  144.6717  151.6227 LP  0  0  0  0  0  0  0  0  0  0  0  0  # atno 17342 bound_to 10162
  140.5963  143.9689  150.6357 LP  0  0  0  0  0  0  0  0  0  0  0  0  # atno 17343 bound_to 10162
  156.8300  130.5013  149.5332 LP  0  0  0  0  0  0  0  0  0  0  0  0  # atno 17370 bound_to 10713
  156.1028  130.5982  150.9921 LP  0  0  0  0  0  0  0  0  0  0  0  0  # atno 17371 bound_to 10713
  140.9585  134.1686  157.4672 LP  0  0  0  0  0  0  0  0  0  0  0  0  # atno 17394 bound_to 11000
  139.8757  134.9936  156.5652 LP  0  0  0  0  0  0  0  0  0  0  0  0  # atno 17395 bound_to 11000

$$$$
