AV-unprocessed.smi:2804|AV-procd|sdf|10810|dock6
  -GOLD-   2272015243D 1   1.00000     0.00000
 Structure written by MMmdl.
 35 36  0  0  0  0  0  0  0  0  1 V2000
  156.1732  140.0543  160.5659 C   0  0  0  0  0  0  0  0  0  0  0  0
  155.2158  141.1001  159.9855 C   0  0  0  0  0  0  0  0  0  0  0  0
  153.7404  140.7532  160.2391 C   0  0  0  0  0  0  0  0  0  0  0  0
  152.8628  141.4689  159.3164 N   0  0  0  0  0  0  0  0  0  0  0  0
  152.3770  141.0031  158.1417 C   0  0  0  0  0  0  0  0  0  0  0  0
  152.5895  139.8896  157.6622 O   0  0  0  0  0  0  0  0  0  0  0  0
  151.6261  141.9803  157.5809 N   0  0  0  0  0  0  0  0  0  0  0  0
  150.9284  141.9122  156.2951 C   0  0  0  0  0  0  0  0  0  0  0  0
  149.4957  141.3173  156.3712 C   0  0  1  0  0  0  0  0  0  0  0  0
  148.5343  142.2540  156.8277 O   0  0  0  0  0  0  0  0  0  0  0  0
  149.0197  140.7169  155.0334 C   0  0  0  0  0  0  0  0  0  0  0  0
  148.8276  141.6854  154.1373 F   0  0  0  0  0  0  0  0  0  0  0  0
  149.9066  139.8412  154.5604 F   0  0  0  0  0  0  0  0  0  0  0  0
  147.8560  140.0923  155.2156 F   0  0  0  0  0  0  0  0  0  0  0  0
  151.6430  143.1083  158.4139 C   0  0  0  0  0  0  0  0  0  0  0  0
  151.0422  144.3712  158.2725 C   0  0  0  0  0  0  0  0  0  0  0  0
  151.2662  145.3125  159.3043 C   0  0  0  0  0  0  0  0  0  0  0  0
  152.0688  144.9829  160.4274 C   0  0  0  0  0  0  0  0  0  0  0  0
  152.6643  143.7047  160.5425 C   0  0  0  0  0  0  0  0  0  0  0  0
  152.4230  142.7872  159.5050 C   0  0  0  0  0  0  0  0  0  0  0  0
  157.2104  140.3254  160.3679 H   0  0  0  0  0  0  0  0  0  0  0  0
  155.9968  139.0720  160.1269 H   0  0  0  0  0  0  0  0  0  0  0  0
  156.0526  139.9662  161.6459 H   0  0  0  0  0  0  0  0  0  0  0  0
  155.4442  142.0743  160.4196 H   0  0  0  0  0  0  0  0  0  0  0  0
  155.3927  141.1909  158.9130 H   0  0  0  0  0  0  0  0  0  0  0  0
  153.5858  139.6782  160.1332 H   0  0  0  0  0  0  0  0  0  0  0  0
  153.4655  140.9969  161.2658 H   0  0  0  0  0  0  0  0  0  0  0  0
  150.9049  142.9067  155.8477 H   0  0  0  0  0  0  0  0  0  0  0  0
  151.5291  141.3151  155.6085 H   0  0  0  0  0  0  0  0  0  0  0  0
  149.5077  140.5139  157.1089 H   0  0  0  0  0  0  0  0  0  0  0  0
  148.7943  143.1153  156.5387 H   0  0  0  0  0  0  0  0  0  0  0  0
  150.4362  144.6183  157.4135 H   0  0  0  0  0  0  0  0  0  0  0  0
  150.8222  146.2948  159.2358 H   0  0  0  0  0  0  0  0  0  0  0  0
  152.2284  145.7173  161.2032 H   0  0  0  0  0  0  0  0  0  0  0  0
  153.2792  143.4501  161.3927 H   0  0  0  0  0  0  0  0  0  0  0  0
  1  2  1  0  0  0  0
  1 21  1  0  0  0  0
  1 22  1  0  0  0  0
  1 23  1  0  0  0  0
  2  3  1  0  0  0  0
  2 24  1  0  0  0  0
  2 25  1  0  0  0  0
  3  4  1  0  0  0  0
  3 26  1  0  0  0  0
  3 27  1  0  0  0  0
  4 20  1  0  0  0  0
  4  5  1  0  0  0  0
  5  6  2  0  0  0  0
  5  7  1  0  0  0  0
  7  8  1  0  0  0  0
  7 15  1  0  0  0  0
  8  9  1  0  0  0  0
  8 28  1  0  0  0  0
  8 29  1  0  0  0  0
  9 10  1  0  0  0  0
  9 11  1  0  0  0  0
  9 30  1  0  0  0  0
 10 31  1  0  0  0  0
 11 12  1  0  0  0  0
 11 13  1  0  0  0  0
 11 14  1  0  0  0  0
 15 20  2  0  0  0  0
 15 16  1  0  0  0  0
 16 17  2  0  0  0  0
 16 32  1  0  0  0  0
 17 18  1  0  0  0  0
 17 33  1  0  0  0  0
 18 19  2  0  0  0  0
 18 34  1  0  0  0  0
 19 20  1  0  0  0  0
 19 35  1  0  0  0  0
M  END
> <s_m_source_file>
AV-unprocessed.smi

> <i_m_source_file_index>
2804

> <i_lp_mmshare_version>
43012

> <i_f3d_flags>
0

> <s_epik_input>
W2NIXTFbY0hdW2NIXVtjSF1jKGMxMiluKFtDSDJdW0NIMl1bQ0gzXSljKD1PKW4yW0NIMl1bQ0BIXShbT0hdKUMoRikoRilG

> <s_epik_cmdline>
J2VwaWtfcHl0aG9uJywgJy1waCcsICc3LjAnLCAnLXRuJywgJzgnLCAnLW1hJywgJzIwMCcsICctbWV0YWxfYmluZGluZycsICctaW1hZScsICc8aW5maWxlLm1hZT4nLCAnLW9tYWUnLCAnPG91dGZpbGUubWFlPic=

> <r_epik_Ionization_Penalty>
0.0117937

> <r_epik_Ionization_Penalty_Charging>
3.30828e-09

> <r_epik_Ionization_Penalty_Neutral>
0.0117937

> <r_epik_State_Penalty>
0.00909547

> <r_epik_Charging_Adjusted_Penalty>
0.00909547

> <i_epik_Tot_Q>
0

> <i_epik_Tot_abs_Q>
0

> <r_epik_Metal_State_Penalty>
0.00909547

> <b_epik_Metal_Only>
0

> <s_lp_Force_Field>
OPLS_2005

> <r_lp_Energy>
49.0105

> <b_lp_Chiralities_Consistent>
1

> <s_lp_Variant>
AV-unprocessed.smi:2804-2

> <Gold.Version>
5.8.1

> <Gold.Id.Protein>
6NUR|6NUR_protein|mol2

> <Gold.PLP.Fitness>
49.4937

> <Gold.PLP.PLP>
-45.5742

> <Gold.PLP.part.hbond>
-2.0000

> <Gold.PLP.part.metal>
0.0000

> <Gold.PLP.part.buried>
-3.1709

> <Gold.PLP.part.nonpolar>
-39.3571

> <Gold.PLP.part.repulsive>
0.0000

> <Gold.PLP.ligand.clash>
0.0000

> <Gold.PLP.ligand.torsion>
1.0596

> <Gold.PLP.Chemscore.Hbond>
1.9913

> <Gold.PLP.Chemscore.CHOScore>
0.0000

> <Gold.PLP.Chemscore.Metal>
0.0000

> <Gold.Chemscore.Hbonds>
donor molecule, donor type, donor heavy atom, donor atom, acceptor molecule, acceptor atom, score
      L1  H    10    31       P1  8028  1.00
      P1  H  7997  8009       L1     6  0.96

> <Gold.PLP.Chemscore.Internal.Correction>
0.0649

> <Gold.Rescore>
     Score         DG    S(hbond)    S(metal)    S(lipo)     H(rot)  DE(clash)    DE(int)     intcor
     16.91     -18.31       1.62        0.00     113.96       2.32       0.35       1.05       ----

> <Gold.Chemscore.Fitness>
16.9138

> <Gold.Chemscore.DG>
-18.3091

> <Gold.Chemscore.ZeroCoef>
-5.4800

> <Gold.Chemscore.Hbond>
1.6237

> <Gold.Chemscore.Metal>
0.0000

> <Gold.Chemscore.Lipo>
113.9556

> <Gold.Chemscore.Internal_Hbond>
0.0000

> <Gold.Chemscore.DEClash>
0.3474

> <Gold.Chemscore.DEInternal>
1.0479

> <Gold.Chemscore.Rot>
2.3152

> <Gold.Chemscore.Internal.Correction>
   9.000000E+99

> <Gold.Chemscore.Hbonds>
donor molecule, donor type, donor heavy atom, donor atom, acceptor molecule, acceptor atom, score
      L1  H    10    31       P1  8028  0.94
      P1  H  7997  8009       L1     6  0.36

> <Gold.Chemscore.Hbond.Weighted>
-5.4231

> <Gold.Chemscore.Metal.Weighted>
-0.0000

> <Gold.Chemscore.Lipo.Weighted>
-13.3328

> <Gold.Chemscore.Internal_Hbond.Weighted>
0.0000

> <Gold.Chemscore.DEClash.Weighted>
0.3474

> <Gold.Chemscore.DEInternal.Weighted>
1.0479

> <Gold.Chemscore.Rot.Weighted>
5.9268

> <Gold.Chemscore.Internal.Correction.Weighted>
   9.000000E+99

> <Gold.Protein.RotatedTorsions>
[ 6907 6896 6895 6894 ] final  -23.69 input  -60.11 | X-H torsion
[ 7974 7965 7964 7962 ] final   40.40 input  175.53 | X-H torsion
[ 8008 7997 7996 7995 ] final  166.75 input   59.86 | X-H torsion
[ 10167 10162 10161 10158 ] final  156.75 input  -65.29 | X-H torsion
[ 10718 10713 10712 10709 ] final  -38.40 input   66.30 | X-H torsion
[ 10763 10752 10751 10750 ] final  -29.34 input  -60.55 | X-H torsion
[ 11005 11000 10999 10996 ] final   69.72 input  -57.11 | X-H torsion

> <Gold.Protein.ActiveResidues>
 VAL166  LYS551  ARG553  GLY616  TRP617  ASP618  TYR619  PRO620  LYS621  CYS622 
 ASP623  PHE694  ASN695  SER759  ASP760  ASP761  ALA762  ILE779  LEU786  VAL792 
 PHE793  MET794  SER795  GLU796  ALA797  LYS798  CYS799  TRP800  GLU811  SER814 

> <Gold.Protein.RotatedAtoms>
  151.2003  135.0439  159.8869 H   0  0  0  0  0  0  0  0  0  0  0  0  # atno 6907 bound_to 6896
  152.5433  134.0858  159.8265 H   0  0  0  0  0  0  0  0  0  0  0  0  # atno 6908 bound_to 6896
  151.0997  133.5205  159.2642 H   0  0  0  0  0  0  0  0  0  0  0  0  # atno 6909 bound_to 6896
  146.0908  139.5538  142.9477 H   0  0  0  0  0  0  0  0  0  0  0  0  # atno 7974 bound_to 7965
  156.1692  140.1635  156.8477 H   0  0  0  0  0  0  0  0  0  0  0  0  # atno 8008 bound_to 7997
  154.5239  140.0772  156.8257 H   0  0  0  0  0  0  0  0  0  0  0  0  # atno 8009 bound_to 7997
  155.3548  140.3392  155.4242 H   0  0  0  0  0  0  0  0  0  0  0  0  # atno 8010 bound_to 7997
  139.4821  144.4980  151.8210 H   0  0  0  0  0  0  0  0  0  0  0  0  # atno 10167 bound_to 10162
  156.3042  130.4244  149.8113 H   0  0  0  0  0  0  0  0  0  0  0  0  # atno 10718 bound_to 10713
  153.7630  135.6918  153.4921 H   0  0  0  0  0  0  0  0  0  0  0  0  # atno 10763 bound_to 10752
  153.1926  135.4465  155.0166 H   0  0  0  0  0  0  0  0  0  0  0  0  # atno 10764 bound_to 10752
  154.8146  135.3393  154.7144 H   0  0  0  0  0  0  0  0  0  0  0  0  # atno 10765 bound_to 10752
  139.9638  134.7016  156.0589 H   0  0  0  0  0  0  0  0  0  0  0  0  # atno 11005 bound_to 11000
  145.6043  141.0350  143.2001 LP  0  0  0  0  0  0  0  0  0  0  0  0  # atno 17320 bound_to 7965
  144.7359  139.7588  143.7329 LP  0  0  0  0  0  0  0  0  0  0  0  0  # atno 17321 bound_to 7965
  140.4471  144.1907  150.5895 LP  0  0  0  0  0  0  0  0  0  0  0  0  # atno 17342 bound_to 10162
  140.4624  143.2444  151.9202 LP  0  0  0  0  0  0  0  0  0  0  0  0  # atno 17343 bound_to 10162
  156.5480  130.8329  151.3290 LP  0  0  0  0  0  0  0  0  0  0  0  0  # atno 17370 bound_to 10713
  157.7375  130.9798  150.2199 LP  0  0  0  0  0  0  0  0  0  0  0  0  # atno 17371 bound_to 10713
  141.1317  133.6585  156.3481 LP  0  0  0  0  0  0  0  0  0  0  0  0  # atno 17394 bound_to 11000
  140.5442  134.6091  157.5389 LP  0  0  0  0  0  0  0  0  0  0  0  0  # atno 17395 bound_to 11000

$$$$
