AV-unprocessed.smi:3178|AV-procd|sdf|12131|dock5
  -GOLD-   2272017573D 1   1.00000     0.00000
 Structure written by MMmdl.
 35 35  0  0  0  0  0  0  0  0  1 V2000
  145.6264  142.4892  155.8643 C   0  0  0  0  0  0  0  0  0  0  0  0
  147.0281  142.3090  155.6983 O   0  0  0  0  0  0  0  0  0  0  0  0
  147.4772  141.2820  154.8070 C   0  0  0  0  0  0  0  0  0  0  0  0
  147.0249  139.9676  155.4724 C   0  0  0  0  0  0  0  0  0  0  0  0
  146.7846  141.4104  153.4349 C   0  0  0  0  0  0  0  0  0  0  0  0
  149.0167  141.3081  154.6423 C   0  0  0  0  0  0  0  0  0  0  0  0
  149.6881  141.3870  155.9347 N   0  0  0  0  0  0  0  0  0  0  0  0
  150.9420  140.9840  156.1917 C   0  0  0  0  0  0  0  0  0  0  0  0
  151.7069  140.5537  155.3290 O   0  0  0  0  0  0  0  0  0  0  0  0
  151.4104  141.0847  157.6457 C   0  0  0  0  0  0  0  0  0  0  0  0
  151.4166  142.5031  158.1252 C   0  0  0  0  0  0  0  0  0  0  0  0
  151.9338  143.0746  159.2543 C   0  0  0  0  0  0  0  0  0  0  0  0
  151.5963  144.4548  159.1379 C   0  0  0  0  0  0  0  0  0  0  0  0
  151.9067  145.5669  160.0960 C   0  0  0  0  0  0  0  0  0  0  0  0
  150.9301  144.7204  158.0241 N   0  0  0  0  0  0  0  0  0  0  0  0
  150.8275  143.5249  157.4150 N   0  0  0  0  0  0  0  0  0  0  0  0
  150.3572  143.4222  156.5270 H   0  0  0  0  0  0  0  0  0  0  0  0
  145.4589  143.3124  156.5587 H   0  0  0  0  0  0  0  0  0  0  0  0
  145.1450  141.6091  156.2889 H   0  0  0  0  0  0  0  0  0  0  0  0
  145.1296  142.7511  154.9307 H   0  0  0  0  0  0  0  0  0  0  0  0
  147.3410  139.1002  154.8920 H   0  0  0  0  0  0  0  0  0  0  0  0
  145.9389  139.9262  155.5622 H   0  0  0  0  0  0  0  0  0  0  0  0
  147.4348  139.8589  156.4773 H   0  0  0  0  0  0  0  0  0  0  0  0
  147.0053  140.5487  152.8042 H   0  0  0  0  0  0  0  0  0  0  0  0
  147.1145  142.2940  152.8892 H   0  0  0  0  0  0  0  0  0  0  0  0
  145.7012  141.4695  153.5432 H   0  0  0  0  0  0  0  0  0  0  0  0
  149.3317  140.4127  154.1035 H   0  0  0  0  0  0  0  0  0  0  0  0
  149.3359  142.1517  154.0307 H   0  0  0  0  0  0  0  0  0  0  0  0
  149.1346  141.7284  156.7073 H   0  0  0  0  0  0  0  0  0  0  0  0
  150.7559  140.4860  158.2801 H   0  0  0  0  0  0  0  0  0  0  0  0
  152.4070  140.6494  157.7262 H   0  0  0  0  0  0  0  0  0  0  0  0
  152.4686  142.5782  160.0505 H   0  0  0  0  0  0  0  0  0  0  0  0
  152.1033  145.1802  161.0962 H   0  0  0  0  0  0  0  0  0  0  0  0
  151.0768  146.2704  160.1714 H   0  0  0  0  0  0  0  0  0  0  0  0
  152.7879  146.1227  159.7757 H   0  0  0  0  0  0  0  0  0  0  0  0
  1  2  1  0  0  0  0
  1 18  1  0  0  0  0
  1 19  1  0  0  0  0
  1 20  1  0  0  0  0
  2  3  1  0  0  0  0
  3  4  1  0  0  0  0
  3  5  1  0  0  0  0
  3  6  1  0  0  0  0
  4 21  1  0  0  0  0
  4 22  1  0  0  0  0
  4 23  1  0  0  0  0
  5 24  1  0  0  0  0
  5 25  1  0  0  0  0
  5 26  1  0  0  0  0
  6  7  1  0  0  0  0
  6 27  1  0  0  0  0
  6 28  1  0  0  0  0
  7  8  1  0  0  0  0
  7 29  1  0  0  0  0
  8  9  2  0  0  0  0
  8 10  1  0  0  0  0
 10 30  1  0  0  0  0
 10 31  1  0  0  0  0
 10 11  1  0  0  0  0
 11 16  1  0  0  0  0
 11 12  2  0  0  0  0
 12 13  1  0  0  0  0
 12 32  1  0  0  0  0
 13 14  1  0  0  0  0
 13 15  2  0  0  0  0
 14 33  1  0  0  0  0
 14 34  1  0  0  0  0
 14 35  1  0  0  0  0
 15 16  1  0  0  0  0
 16 17  1  0  0  0  0
M  END
> <s_m_source_file>
AV-unprocessed.smi

> <i_m_source_file_index>
3178

> <i_lp_mmshare_version>
43012

> <i_f3d_flags>
0

> <s_epik_input>
W0NIM11PQyhbQ0gzXSkoW0NIM10pW0NIMl1bTkhdQyg9TylbQ0gyXWMxW2NIXWMoW0NIM10pW25IXW4x

> <s_epik_cmdline>
J2VwaWtfcHl0aG9uJywgJy1waCcsICc3LjAnLCAnLXRuJywgJzgnLCAnLW1hJywgJzIwMCcsICctbWV0YWxfYmluZGluZycsICctaW1hZScsICc8aW5maWxlLm1hZT4nLCAnLW9tYWUnLCAnPG91dGZpbGUubWFlPic=

> <r_lp_tautomer_probability>
0.5

> <r_epik_Ionization_Penalty>
0.000125824

> <r_epik_Ionization_Penalty_Charging>
0

> <r_epik_Ionization_Penalty_Neutral>
0.000125824

> <r_epik_State_Penalty>
0.41068

> <r_epik_Charging_Adjusted_Penalty>
0.41068

> <i_epik_Tot_Q>
0

> <i_epik_Tot_abs_Q>
0

> <r_epik_Metal_State_Penalty>
0.410657

> <b_epik_Metal_Only>
0

> <s_lp_Force_Field>
OPLS_2005

> <r_lp_Energy>
5.55187

> <b_lp_Chiralities_Consistent>
1

> <s_lp_Variant>
AV-unprocessed.smi:3178-2

> <Gold.Version>
5.8.1

> <Gold.Id.Protein>
6NUR|6NUR_protein|mol2

> <Gold.PLP.Fitness>
33.4780

> <Gold.PLP.PLP>
-30.8416

> <Gold.PLP.part.hbond>
-2.0000

> <Gold.PLP.part.metal>
0.0000

> <Gold.PLP.part.buried>
-5.3336

> <Gold.PLP.part.nonpolar>
-24.2809

> <Gold.PLP.part.repulsive>
1.5531

> <Gold.PLP.ligand.clash>
0.0000

> <Gold.PLP.ligand.torsion>
0.3930

> <Gold.PLP.Chemscore.Hbond>
1.1295

> <Gold.PLP.Chemscore.CHOScore>
0.0000

> <Gold.PLP.Chemscore.Metal>
0.0000

> <Gold.Chemscore.Hbonds>
donor molecule, donor type, donor heavy atom, donor atom, acceptor molecule, acceptor atom, score
      L1  H    16    17       P1  8028  0.40
      P1  H  7989  7998       L1     9  0.74

> <Gold.PLP.Chemscore.Internal.Correction>
0.0338

> <Gold.Rescore>
     Score         DG    S(hbond)    S(metal)    S(lipo)     H(rot)  DE(clash)    DE(int)     intcor
     11.69     -13.81       1.37        0.00      73.48       1.89       0.39       1.74       ----

> <Gold.Chemscore.Fitness>
11.6860

> <Gold.Chemscore.DG>
-13.8099

> <Gold.Chemscore.ZeroCoef>
-5.4800

> <Gold.Chemscore.Hbond>
1.3670

> <Gold.Chemscore.Metal>
0.0000

> <Gold.Chemscore.Lipo>
73.4767

> <Gold.Chemscore.Internal_Hbond>
0.0000

> <Gold.Chemscore.DEClash>
0.3884

> <Gold.Chemscore.DEInternal>
1.7355

> <Gold.Chemscore.Rot>
1.8877

> <Gold.Chemscore.Internal.Correction>
   9.000000E+99

> <Gold.Chemscore.Hbonds>
donor molecule, donor type, donor heavy atom, donor atom, acceptor molecule, acceptor atom, score
      L1  H    16    17       P1  8028  0.39
      P1  H  7989  7998       L1     9  0.74

> <Gold.Chemscore.Hbond.Weighted>
-4.5656

> <Gold.Chemscore.Metal.Weighted>
-0.0000

> <Gold.Chemscore.Lipo.Weighted>
-8.5968

> <Gold.Chemscore.Internal_Hbond.Weighted>
0.0000

> <Gold.Chemscore.DEClash.Weighted>
0.3884

> <Gold.Chemscore.DEInternal.Weighted>
1.7355

> <Gold.Chemscore.Rot.Weighted>
4.8325

> <Gold.Chemscore.Internal.Correction.Weighted>
   9.000000E+99

> <Gold.Protein.RotatedTorsions>
[ 6907 6896 6895 6894 ] final  -30.43 input  -60.11 | X-H torsion
[ 7974 7965 7964 7962 ] final    8.86 input  175.53 | X-H torsion
[ 8008 7997 7996 7995 ] final  -83.25 input   59.86 | X-H torsion
[ 10167 10162 10161 10158 ] final -100.10 input  -65.29 | X-H torsion
[ 10718 10713 10712 10709 ] final  -49.90 input   66.30 | X-H torsion
[ 10763 10752 10751 10750 ] final   16.61 input  -60.55 | X-H torsion
[ 11005 11000 10999 10996 ] final -177.95 input  -57.11 | X-H torsion

> <Gold.Protein.ActiveResidues>
 VAL166  LYS551  ARG553  GLY616  TRP617  ASP618  TYR619  PRO620  LYS621  CYS622 
 ASP623  PHE694  ASN695  SER759  ASP760  ASP761  ALA762  ILE779  LEU786  VAL792 
 PHE793  MET794  SER795  GLU796  ALA797  LYS798  CYS799  TRP800  GLU811  SER814 

> <Gold.Protein.RotatedAtoms>
  151.1057  134.9998  159.8469 H   0  0  0  0  0  0  0  0  0  0  0  0  # atno 6907 bound_to 6896
  152.5440  134.1896  159.8679 H   0  0  0  0  0  0  0  0  0  0  0  0  # atno 6908 bound_to 6896
  151.1943  133.4604  159.2628 H   0  0  0  0  0  0  0  0  0  0  0  0  # atno 6909 bound_to 6896
  146.2411  139.9870  142.8430 H   0  0  0  0  0  0  0  0  0  0  0  0  # atno 7974 bound_to 7965
  154.6171  140.0621  156.9567 H   0  0  0  0  0  0  0  0  0  0  0  0  # atno 8008 bound_to 7997
  155.1879  140.3304  155.4345 H   0  0  0  0  0  0  0  0  0  0  0  0  # atno 8009 bound_to 7997
  156.2410  140.1886  156.6971 H   0  0  0  0  0  0  0  0  0  0  0  0  # atno 8010 bound_to 7997
  140.2554  143.3443  152.0675 H   0  0  0  0  0  0  0  0  0  0  0  0  # atno 10167 bound_to 10162
  156.1850  130.4151  149.9453 H   0  0  0  0  0  0  0  0  0  0  0  0  # atno 10718 bound_to 10713
  153.1415  135.6761  153.9020 H   0  0  0  0  0  0  0  0  0  0  0  0  # atno 10763 bound_to 10752
  153.8475  135.3097  155.3431 H   0  0  0  0  0  0  0  0  0  0  0  0  # atno 10764 bound_to 10752
  154.7791  135.4898  153.9890 H   0  0  0  0  0  0  0  0  0  0  0  0  # atno 10765 bound_to 10752
  140.4352  134.6482  157.4731 H   0  0  0  0  0  0  0  0  0  0  0  0  # atno 11005 bound_to 11000
  145.1538  140.9637  143.4417 LP  0  0  0  0  0  0  0  0  0  0  0  0  # atno 17320 bound_to 7965
  145.0180  139.3450  143.6087 LP  0  0  0  0  0  0  0  0  0  0  0  0  # atno 17321 bound_to 7965
  139.5033  144.6752  151.6145 LP  0  0  0  0  0  0  0  0  0  0  0  0  # atno 17342 bound_to 10162
  140.6007  143.9614  150.6384 LP  0  0  0  0  0  0  0  0  0  0  0  0  # atno 17343 bound_to 10162
  156.7211  130.9007  151.3618 LP  0  0  0  0  0  0  0  0  0  0  0  0  # atno 17370 bound_to 10713
  157.6893  130.9217  150.0469 LP  0  0  0  0  0  0  0  0  0  0  0  0  # atno 17371 bound_to 10713
  140.0107  134.6695  155.9385 LP  0  0  0  0  0  0  0  0  0  0  0  0  # atno 17394 bound_to 11000
  141.1729  133.6538  156.4718 LP  0  0  0  0  0  0  0  0  0  0  0  0  # atno 17395 bound_to 11000

$$$$
