AV-unprocessed.smi:1701|AV-procd|sdf|6833|dock9
  -GOLD-   22720 8 13D 1   1.00000     0.00000
 Structure written by MMmdl.
 54 56  0  0  0  0  0  0  0  0  2 V2000
  153.4419  141.4247  159.6531 C   0  0  0  0  0  0  0  0  0  0  0  0
  152.2227  142.3493  159.7944 C   0  0  0  0  0  0  0  0  0  0  0  0
  151.6872  142.7890  158.5066 N   0  0  0  0  0  0  0  0  0  0  0  0
  151.0874  144.1240  158.4537 C   0  0  0  0  0  0  0  0  0  0  0  0
  151.9645  145.2045  159.1064 C   0  0  0  0  0  0  0  0  0  0  0  0
  151.1056  141.7581  157.7371 C   0  0  0  0  0  0  0  0  0  0  0  0
  150.9002  141.9465  156.3518 C   0  0  0  0  0  0  0  0  0  0  0  0
  150.3335  140.9034  155.5967 C   0  0  0  0  0  0  0  0  0  0  0  0
  149.9842  139.6983  156.2365 C   0  0  0  0  0  0  0  0  0  0  0  0
  149.4328  138.6638  155.4329 N   0  0  0  0  0  0  0  0  0  0  0  0
  149.0199  137.4311  155.7884 C   0  0  0  0  0  0  0  0  0  0  0  0
  148.9883  137.0033  156.9391 O   0  0  0  0  0  0  0  0  0  0  0  0
  148.6252  136.6641  154.7554 N   0  0  0  0  0  0  0  0  0  0  0  0
  148.1226  135.2867  154.7775 C   0  0  2  0  0  0  0  0  0  0  0  0
  149.1624  134.2683  154.2713 C   0  0  0  0  0  0  0  0  0  0  0  0
  148.3570  133.2773  153.4256 C   0  0  0  0  0  0  0  0  0  0  0  0
  147.3079  134.1215  152.8432 N   0  3  1  0  0  0  0  0  0  0  0  0
  146.1793  133.4681  152.1501 C   0  0  0  0  0  0  0  0  0  0  0  0
  145.3285  134.5613  151.4685 C   0  0  0  0  0  0  0  0  0  0  0  0
  144.9143  135.6788  152.4526 C   0  0  0  0  0  0  0  0  0  0  0  0
  146.1226  136.2281  153.2418 C   0  0  0  0  0  0  0  0  0  0  0  0
  146.8696  135.0522  153.8978 C   0  0  2  0  0  0  0  0  0  0  0  0
  150.2366  139.5980  157.6260 C   0  0  0  0  0  0  0  0  0  0  0  0
  150.7789  140.5968  158.3538 N   0  0  0  0  0  0  0  0  0  0  0  0
  153.8034  141.1133  160.6329 H   0  0  0  0  0  0  0  0  0  0  0  0
  154.2654  141.9248  159.1425 H   0  0  0  0  0  0  0  0  0  0  0  0
  153.1963  140.5236  159.0905 H   0  0  0  0  0  0  0  0  0  0  0  0
  151.4337  141.8255  160.3350 H   0  0  0  0  0  0  0  0  0  0  0  0
  152.4833  143.2070  160.4143 H   0  0  0  0  0  0  0  0  0  0  0  0
  150.8683  144.3921  157.4195 H   0  0  0  0  0  0  0  0  0  0  0  0
  150.1263  144.0969  158.9680 H   0  0  0  0  0  0  0  0  0  0  0  0
  151.4595  146.1701  159.0871 H   0  0  0  0  0  0  0  0  0  0  0  0
  152.9178  145.3255  158.5927 H   0  0  0  0  0  0  0  0  0  0  0  0
  152.1744  144.9620  160.1483 H   0  0  0  0  0  0  0  0  0  0  0  0
  151.1617  142.8772  155.8700 H   0  0  0  0  0  0  0  0  0  0  0  0
  150.1695  141.0318  154.5365 H   0  0  0  0  0  0  0  0  0  0  0  0
  149.3332  138.8928  154.4553 H   0  0  0  0  0  0  0  0  0  0  0  0
  148.7069  137.0830  153.8400 H   0  0  0  0  0  0  0  0  0  0  0  0
  147.8786  135.0091  155.8047 H   0  0  0  0  0  0  0  0  0  0  0  0
  149.9000  134.7629  153.6370 H   0  0  0  0  0  0  0  0  0  0  0  0
  149.7029  133.7796  155.0828 H   0  0  0  0  0  0  0  0  0  0  0  0
  148.9609  132.7890  152.6601 H   0  0  0  0  0  0  0  0  0  0  0  0
  147.9065  132.5092  154.0564 H   0  0  0  0  0  0  0  0  0  0  0  0
  146.5592  132.7678  151.4056 H   0  0  0  0  0  0  0  0  0  0  0  0
  145.5817  132.8949  152.8607 H   0  0  0  0  0  0  0  0  0  0  0  0
  145.9025  135.0029  150.6527 H   0  0  0  0  0  0  0  0  0  0  0  0
  144.4430  134.1168  151.0132 H   0  0  0  0  0  0  0  0  0  0  0  0
  144.4201  136.4879  151.9139 H   0  0  0  0  0  0  0  0  0  0  0  0
  144.1782  135.2827  153.1534 H   0  0  0  0  0  0  0  0  0  0  0  0
  146.7879  136.7775  152.5742 H   0  0  0  0  0  0  0  0  0  0  0  0
  145.7733  136.9335  153.9955 H   0  0  0  0  0  0  0  0  0  0  0  0
  146.1548  134.5179  154.5277 H   0  0  0  0  0  0  0  0  0  0  0  0
  150.0262  138.7034  158.1892 H   0  0  0  0  0  0  0  0  0  0  0  0
  147.7767  134.6890  152.1516 H   0  0  0  0  0  0  0  0  0  0  0  0
  1  2  1  0  0  0  0
  1 25  1  0  0  0  0
  1 26  1  0  0  0  0
  1 27  1  0  0  0  0
  2  3  1  0  0  0  0
  2 28  1  0  0  0  0
  2 29  1  0  0  0  0
  3  4  1  0  0  0  0
  3  6  1  0  0  0  0
  4  5  1  0  0  0  0
  4 30  1  0  0  0  0
  4 31  1  0  0  0  0
  5 32  1  0  0  0  0
  5 33  1  0  0  0  0
  5 34  1  0  0  0  0
  6 24  1  0  0  0  0
  6  7  2  0  0  0  0
  7  8  1  0  0  0  0
  7 35  1  0  0  0  0
  8  9  2  0  0  0  0
  8 36  1  0  0  0  0
  9 10  1  0  0  0  0
  9 23  1  0  0  0  0
 10 11  1  0  0  0  0
 10 37  1  0  0  0  0
 11 12  2  0  0  0  0
 11 13  1  0  0  0  0
 13 14  1  0  0  0  0
 13 38  1  0  0  0  0
 14 22  1  0  0  0  0
 14 15  1  0  0  0  0
 14 39  1  0  0  0  0
 15 16  1  0  0  0  0
 15 40  1  0  0  0  0
 15 41  1  0  0  0  0
 16 17  1  0  0  0  0
 16 42  1  0  0  0  0
 16 43  1  0  0  0  0
 17 22  1  0  0  0  0
 17 18  1  0  0  0  0
 17 54  1  0  0  0  0
 18 19  1  0  0  0  0
 18 44  1  0  0  0  0
 18 45  1  0  0  0  0
 19 20  1  0  0  0  0
 19 46  1  0  0  0  0
 19 47  1  0  0  0  0
 20 21  1  0  0  0  0
 20 48  1  0  0  0  0
 20 49  1  0  0  0  0
 21 22  1  0  0  0  0
 21 50  1  0  0  0  0
 21 51  1  0  0  0  0
 22 52  1  0  0  0  0
 23 24  2  0  0  0  0
 23 53  1  0  0  0  0
M  CHG  1  17   1
M  END
> <s_m_source_file>
AV-unprocessed.smi

> <i_m_source_file_index>
1701

> <i_lp_mmshare_version>
43012

> <i_f3d_flags>
0

> <s_epik_input>
W0NIM11bQ0gyXU4oW0NIMl1bQ0gzXSljMVtjSF1bY0hdYyhbY0hdbjEpW05IXUMoPU8pW05IXVtDQEhdKFtDSDJdW0NIMl0yKVtDQEBIXShOMjMpW0NIMl1bQ0gyXVtDSDJdW0NIMl0z

> <s_epik_cmdline>
J2VwaWtfcHl0aG9uJywgJy1waCcsICc3LjAnLCAnLXRuJywgJzgnLCAnLW1hJywgJzIwMCcsICctbWV0YWxfYmluZGluZycsICctaW1hZScsICc8aW5maWxlLm1hZT4nLCAnLW9tYWUnLCAnPG91dGZpbGUubWFlPic=

> <r_lp_tautomer_probability>
1

> <r_epik_Ionization_Penalty>
0.56662

> <r_epik_Ionization_Penalty_Charging>
0.000974069

> <r_epik_Ionization_Penalty_Neutral>
0.565646

> <r_epik_State_Penalty>
2.0247

> <r_epik_Charging_Adjusted_Penalty>
2.02568

> <i_epik_Tot_Q>
1

> <i_epik_Tot_abs_Q>
1

> <r_epik_Metal_State_Penalty>
1.51504

> <b_epik_Metal_Only>
0

> <s_lp_Force_Field>
OPLS_2005

> <r_lp_Energy>
60.4427

> <b_lp_Chiralities_Consistent>
1

> <s_lp_Variant>
AV-unprocessed.smi:1701-13

> <Gold.Version>
5.8.1

> <Gold.Id.Protein>
6NUR|6NUR_protein|mol2

> <Gold.PLP.Fitness>
43.9185

> <Gold.PLP.PLP>
-37.3184

> <Gold.PLP.part.hbond>
-2.0000

> <Gold.PLP.part.metal>
0.0000

> <Gold.PLP.part.buried>
-2.1649

> <Gold.PLP.part.nonpolar>
-32.1202

> <Gold.PLP.part.repulsive>
0.0462

> <Gold.PLP.ligand.clash>
0.0000

> <Gold.PLP.ligand.torsion>
0.7604

> <Gold.PLP.Chemscore.Hbond>
2.4231

> <Gold.PLP.Chemscore.CHOScore>
0.0000

> <Gold.PLP.Chemscore.Metal>
0.0000

> <Gold.Chemscore.Hbonds>
donor molecule, donor type, donor heavy atom, donor atom, acceptor molecule, acceptor atom, score
      L1  H    13    38       P1  7948  0.45
      L1  H    17    54       P1  7948  1.86

> <Gold.PLP.Chemscore.Internal.Correction>
0.8517

> <Gold.Rescore>
     Score         DG    S(hbond)    S(metal)    S(lipo)     H(rot)  DE(clash)    DE(int)     intcor
     15.09     -17.17       1.14        0.00      98.90       1.44       0.14       1.94       ----

> <Gold.Chemscore.Fitness>
15.0892

> <Gold.Chemscore.DG>
-17.1727

> <Gold.Chemscore.ZeroCoef>
-5.4800

> <Gold.Chemscore.Hbond>
1.1405

> <Gold.Chemscore.Metal>
0.0000

> <Gold.Chemscore.Lipo>
98.8955

> <Gold.Chemscore.Internal_Hbond>
0.0000

> <Gold.Chemscore.DEClash>
0.1446

> <Gold.Chemscore.DEInternal>
1.9389

> <Gold.Chemscore.Rot>
1.4404

> <Gold.Chemscore.Internal.Correction>
   9.000000E+99

> <Gold.Chemscore.Hbonds>
donor molecule, donor type, donor heavy atom, donor atom, acceptor molecule, acceptor atom, score
      L1  H    13    38       P1  7948  0.44
      L1  H    17    54       P1  7948  0.55

> <Gold.Chemscore.Hbond.Weighted>
-3.8094

> <Gold.Chemscore.Metal.Weighted>
-0.0000

> <Gold.Chemscore.Lipo.Weighted>
-11.5708

> <Gold.Chemscore.Internal_Hbond.Weighted>
0.0000

> <Gold.Chemscore.DEClash.Weighted>
0.1446

> <Gold.Chemscore.DEInternal.Weighted>
1.9389

> <Gold.Chemscore.Rot.Weighted>
3.6875

> <Gold.Chemscore.Internal.Correction.Weighted>
   9.000000E+99

> <Gold.Protein.RotatedTorsions>
[ 6907 6896 6895 6894 ] final  -52.46 input  -60.11 | X-H torsion
[ 7974 7965 7964 7962 ] final  137.65 input  175.53 | X-H torsion
[ 8008 7997 7996 7995 ] final    3.85 input   59.86 | X-H torsion
[ 10167 10162 10161 10158 ] final  -71.25 input  -65.29 | X-H torsion
[ 10718 10713 10712 10709 ] final   -9.92 input   66.30 | X-H torsion
[ 10763 10752 10751 10750 ] final   59.73 input  -60.55 | X-H torsion
[ 11005 11000 10999 10996 ] final   -5.50 input  -57.11 | X-H torsion

> <Gold.Protein.ActiveResidues>
 VAL166  LYS551  ARG553  GLY616  TRP617  ASP618  TYR619  PRO620  LYS621  CYS622 
 ASP623  PHE694  ASN695  SER759  ASP760  ASP761  ALA762  ILE779  LEU786  VAL792 
 PHE793  MET794  SER795  GLU796  ALA797  LYS798  CYS799  TRP800  GLU811  SER814 

> <Gold.Protein.RotatedAtoms>
  150.8516  134.7842  159.7012 H   0  0  0  0  0  0  0  0  0  0  0  0  # atno 6907 bound_to 6896
  152.4579  134.5247  159.9803 H   0  0  0  0  0  0  0  0  0  0  0  0  # atno 6908 bound_to 6896
  151.5367  133.3401  159.2963 H   0  0  0  0  0  0  0  0  0  0  0  0  # atno 6909 bound_to 6896
  144.9447  139.4888  143.5555 H   0  0  0  0  0  0  0  0  0  0  0  0  # atno 7974 bound_to 7965
  154.7087  140.2688  155.6649 H   0  0  0  0  0  0  0  0  0  0  0  0  # atno 8008 bound_to 7997
  156.2788  140.2757  156.1646 H   0  0  0  0  0  0  0  0  0  0  0  0  # atno 8009 bound_to 7997
  155.0664  140.0372  157.2584 H   0  0  0  0  0  0  0  0  0  0  0  0  # atno 8010 bound_to 7997
  140.5288  143.2323  151.7299 H   0  0  0  0  0  0  0  0  0  0  0  0  # atno 10167 bound_to 10162
  156.6810  130.5037  149.5971 H   0  0  0  0  0  0  0  0  0  0  0  0  # atno 10718 bound_to 10713
  152.9902  135.5561  154.5760 H   0  0  0  0  0  0  0  0  0  0  0  0  # atno 10763 bound_to 10752
  154.5151  135.2804  155.1312 H   0  0  0  0  0  0  0  0  0  0  0  0  # atno 10764 bound_to 10752
  154.2688  135.6367  153.5355 H   0  0  0  0  0  0  0  0  0  0  0  0  # atno 10765 bound_to 10752
  140.6918  133.9065  155.8623 H   0  0  0  0  0  0  0  0  0  0  0  0  # atno 11005 bound_to 11000
  146.3299  139.8491  142.8876 LP  0  0  0  0  0  0  0  0  0  0  0  0  # atno 17320 bound_to 7965
  145.2936  141.0174  143.3649 LP  0  0  0  0  0  0  0  0  0  0  0  0  # atno 17321 bound_to 7965
  139.4947  144.4145  152.0045 LP  0  0  0  0  0  0  0  0  0  0  0  0  # atno 17342 bound_to 10162
  140.3246  144.3388  150.6001 LP  0  0  0  0  0  0  0  0  0  0  0  0  # atno 17343 bound_to 10162
  156.1868  130.6534  151.1015 LP  0  0  0  0  0  0  0  0  0  0  0  0  # atno 17370 bound_to 10713
  157.7043  131.0763  150.6717 LP  0  0  0  0  0  0  0  0  0  0  0  0  # atno 17371 bound_to 10713
  141.0235  134.0855  157.4094 LP  0  0  0  0  0  0  0  0  0  0  0  0  # atno 17394 bound_to 11000
  139.8921  135.0123  156.6829 LP  0  0  0  0  0  0  0  0  0  0  0  0  # atno 17395 bound_to 11000

$$$$
