AV-unprocessed.smi:2027|AV-procd|sdf|8213|dock4
  -GOLD-   2272010473D 1   1.00000     0.00000
 Structure written by MMmdl.
 50 52  0  0  0  0  0  0  0  0  2 V2000
  153.4037  142.7446  160.5185 C   0  0  0  0  0  0  0  0  0  0  0  0
  152.4566  142.3264  159.4075 C   0  0  0  0  0  0  0  0  0  0  0  0
  152.2529  140.9502  159.1604 C   0  0  0  0  0  0  0  0  0  0  0  0
  151.3793  140.5193  158.1384 C   0  0  0  0  0  0  0  0  0  0  0  0
  151.0374  139.2423  157.7274 N   0  0  0  0  0  0  0  0  0  0  0  0
  150.1858  139.4975  156.7389 C   0  0  0  0  0  0  0  0  0  0  0  0
  149.9382  140.7909  156.4563 N   0  0  0  0  0  0  0  0  0  0  0  0
  149.0541  141.3048  155.4252 C   0  0  0  0  0  0  0  0  0  0  0  0
  148.7338  140.2530  154.3463 C   0  0  2  0  0  0  0  0  0  0  0  0
  149.8275  140.1454  153.4551 O   0  0  0  0  0  0  0  0  0  0  0  0
  147.4778  140.6308  153.5360 C   0  0  0  0  0  0  0  0  0  0  0  0
  146.5276  139.4962  153.4086 N   0  3  2  0  0  0  0  0  0  0  0  0
  146.2027  138.8934  154.7231 C   0  0  0  0  0  0  0  0  0  0  0  0
  146.9565  138.4867  152.4060 C   0  0  0  0  0  0  0  0  0  0  0  0
  146.1687  137.2119  152.5405 C   0  0  0  0  0  0  0  0  0  0  0  0
  146.6524  135.9118  152.8647 C   0  0  0  0  0  0  0  0  0  0  0  0
  145.6935  135.0018  152.9051 N   0  0  0  0  0  0  0  0  0  0  0  0
  144.5696  135.6831  152.6025 N   0  0  0  0  0  0  0  0  0  0  0  0
  143.3036  134.9838  152.5497 C   0  0  0  0  0  0  0  0  0  0  0  0
  144.8258  137.0182  152.3756 C   0  0  0  0  0  0  0  0  0  0  0  0
  150.7087  141.5107  157.3638 C   0  0  0  0  0  0  0  0  0  0  0  0
  150.9038  142.8833  157.5994 C   0  0  0  0  0  0  0  0  0  0  0  0
  151.7805  143.2965  158.6245 C   0  0  0  0  0  0  0  0  0  0  0  0
  151.9843  144.7808  158.8714 C   0  0  0  0  0  0  0  0  0  0  0  0
  153.8610  141.8791  160.9985 H   0  0  0  0  0  0  0  0  0  0  0  0
  152.8684  143.3074  161.2836 H   0  0  0  0  0  0  0  0  0  0  0  0
  154.2052  143.3698  160.1247 H   0  0  0  0  0  0  0  0  0  0  0  0
  152.7677  140.2109  159.7564 H   0  0  0  0  0  0  0  0  0  0  0  0
  149.7166  138.6979  156.1844 H   0  0  0  0  0  0  0  0  0  0  0  0
  148.1344  141.6428  155.9048 H   0  0  0  0  0  0  0  0  0  0  0  0
  149.5130  142.1878  154.9781 H   0  0  0  0  0  0  0  0  0  0  0  0
  148.5990  139.2873  154.8330 H   0  0  0  0  0  0  0  0  0  0  0  0
  149.5359  140.3901  152.5892 H   0  0  0  0  0  0  0  0  0  0  0  0
  146.9641  141.4791  153.9913 H   0  0  0  0  0  0  0  0  0  0  0  0
  147.7954  140.9667  152.5473 H   0  0  0  0  0  0  0  0  0  0  0  0
  147.0871  138.4442  155.1770 H   0  0  0  0  0  0  0  0  0  0  0  0
  145.4381  138.1223  154.6286 H   0  0  0  0  0  0  0  0  0  0  0  0
  145.8138  139.6478  155.4078 H   0  0  0  0  0  0  0  0  0  0  0  0
  146.8288  138.8844  151.3998 H   0  0  0  0  0  0  0  0  0  0  0  0
  148.0271  138.3065  152.5128 H   0  0  0  0  0  0  0  0  0  0  0  0
  147.6668  135.6058  153.0745 H   0  0  0  0  0  0  0  0  0  0  0  0
  142.4942  135.6890  152.3597 H   0  0  0  0  0  0  0  0  0  0  0  0
  143.1185  134.4803  153.4988 H   0  0  0  0  0  0  0  0  0  0  0  0
  143.3240  134.2444  151.7488 H   0  0  0  0  0  0  0  0  0  0  0  0
  144.0397  137.7133  152.1193 H   0  0  0  0  0  0  0  0  0  0  0  0
  150.3839  143.6123  156.9957 H   0  0  0  0  0  0  0  0  0  0  0  0
  151.3702  145.3842  158.2021 H   0  0  0  0  0  0  0  0  0  0  0  0
  153.0266  145.0553  158.7076 H   0  0  0  0  0  0  0  0  0  0  0  0
  151.7145  145.0392  159.8956 H   0  0  0  0  0  0  0  0  0  0  0  0
  145.6677  139.9015  153.0663 H   0  0  0  0  0  0  0  0  0  0  0  0
  1  2  1  0  0  0  0
  1 25  1  0  0  0  0
  1 26  1  0  0  0  0
  1 27  1  0  0  0  0
  2 23  1  0  0  0  0
  2  3  2  0  0  0  0
  3  4  1  0  0  0  0
  3 28  1  0  0  0  0
  4 21  2  0  0  0  0
  4  5  1  0  0  0  0
  5  6  2  0  0  0  0
  6  7  1  0  0  0  0
  6 29  1  0  0  0  0
  7  8  1  0  0  0  0
  7 21  1  0  0  0  0
  8  9  1  0  0  0  0
  8 30  1  0  0  0  0
  8 31  1  0  0  0  0
  9 10  1  0  0  0  0
  9 11  1  0  0  0  0
  9 32  1  0  0  0  0
 10 33  1  0  0  0  0
 11 12  1  0  0  0  0
 11 34  1  0  0  0  0
 11 35  1  0  0  0  0
 12 13  1  0  0  0  0
 12 14  1  0  0  0  0
 12 50  1  0  0  0  0
 13 36  1  0  0  0  0
 13 37  1  0  0  0  0
 13 38  1  0  0  0  0
 14 15  1  0  0  0  0
 14 39  1  0  0  0  0
 14 40  1  0  0  0  0
 15 20  2  0  0  0  0
 15 16  1  0  0  0  0
 16 17  2  0  0  0  0
 16 41  1  0  0  0  0
 17 18  1  0  0  0  0
 18 19  1  0  0  0  0
 18 20  1  0  0  0  0
 19 42  1  0  0  0  0
 19 43  1  0  0  0  0
 19 44  1  0  0  0  0
 20 45  1  0  0  0  0
 21 22  1  0  0  0  0
 22 23  2  0  0  0  0
 22 46  1  0  0  0  0
 23 24  1  0  0  0  0
 24 47  1  0  0  0  0
 24 48  1  0  0  0  0
 24 49  1  0  0  0  0
M  CHG  1  12   1
M  END
> <s_m_source_file>
AV-unprocessed.smi

> <i_m_source_file_index>
2027

> <i_lp_mmshare_version>
43012

> <i_f3d_flags>
0

> <s_epik_input>
W0NIM11jKFtjSF0xKWMoW0NIM10pW2NIXWMoYzEyKW4oW2NIXW4yKVtDSDJdW0NASF0oW09IXSlbQ0gyXU4oW0NIM10pW0NIMl1jM1tjSF1ubihbQ0gzXSlbY0hdMw==

> <s_epik_cmdline>
J2VwaWtfcHl0aG9uJywgJy1waCcsICc3LjAnLCAnLXRuJywgJzgnLCAnLW1hJywgJzIwMCcsICctbWV0YWxfYmluZGluZycsICctaW1hZScsICc8aW5maWxlLm1hZT4nLCAnLW9tYWUnLCAnPG91dGZpbGUubWFlPic=

> <r_lp_tautomer_probability>
1

> <r_epik_Ionization_Penalty>
0.646578

> <r_epik_Ionization_Penalty_Charging>
0.559419

> <r_epik_Ionization_Penalty_Neutral>
0.087159

> <r_epik_State_Penalty>
0.661677

> <r_epik_Charging_Adjusted_Penalty>
1.2211

> <i_epik_Tot_Q>
1

> <i_epik_Tot_abs_Q>
1

> <r_epik_Metal_State_Penalty>
0.649174

> <b_epik_Metal_Only>
0

> <s_lp_Force_Field>
OPLS_2005

> <r_lp_Energy>
10.3354

> <b_lp_Chiralities_Consistent>
1

> <s_lp_Variant>
AV-unprocessed.smi:2027-5

> <Gold.Version>
5.8.1

> <Gold.Id.Protein>
6NUR|6NUR_protein|mol2

> <Gold.PLP.Fitness>
58.8502

> <Gold.PLP.PLP>
-44.2633

> <Gold.PLP.part.hbond>
-2.3902

> <Gold.PLP.part.metal>
0.0000

> <Gold.PLP.part.buried>
-4.4797

> <Gold.PLP.part.nonpolar>
-38.8628

> <Gold.PLP.part.repulsive>
0.0657

> <Gold.PLP.ligand.clash>
0.0000

> <Gold.PLP.ligand.torsion>
1.3417

> <Gold.PLP.Chemscore.Hbond>
3.2690

> <Gold.PLP.Chemscore.CHOScore>
2.4263

> <Gold.PLP.Chemscore.Metal>
0.0000

> <Gold.Chemscore.Hbonds>
donor molecule, donor type, donor heavy atom, donor atom, acceptor molecule, acceptor atom, score
      L1  H    10    33       P1  7957  0.76
      L1  H    12    50       P1 10175  1.40
      P1  H  7989  7998       L1    10  0.58
      L1  C    16    41       P1  7948  0.41
      L1  C    20    45       P1 10171  0.81
      L1  C    20    45       P1 10175  0.41

> <Gold.PLP.Chemscore.Internal.Correction>
0.1843

> <Gold.Rescore>
     Score         DG    S(hbond)    S(metal)    S(lipo)     H(rot)  DE(clash)    DE(int)     intcor
     18.13     -19.41       1.89        0.00     119.85       2.50       0.02       1.27       ----

> <Gold.Chemscore.Fitness>
18.1254

> <Gold.Chemscore.DG>
-19.4134

> <Gold.Chemscore.ZeroCoef>
-5.4800

> <Gold.Chemscore.Hbond>
1.8933

> <Gold.Chemscore.Metal>
0.0000

> <Gold.Chemscore.Lipo>
119.8452

> <Gold.Chemscore.Internal_Hbond>
0.0000

> <Gold.Chemscore.DEClash>
0.0195

> <Gold.Chemscore.DEInternal>
1.2685

> <Gold.Chemscore.Rot>
2.5047

> <Gold.Chemscore.Internal.Correction>
   9.000000E+99

> <Gold.Chemscore.Hbonds>
donor molecule, donor type, donor heavy atom, donor atom, acceptor molecule, acceptor atom, score
      L1  H    10    33       P1  7957  0.73
      L1  H    12    50       P1 10175  0.71
      P1  H  7989  7998       L1    10  0.17

> <Gold.Chemscore.Hbond.Weighted>
-6.3236

> <Gold.Chemscore.Metal.Weighted>
-0.0000

> <Gold.Chemscore.Lipo.Weighted>
-14.0219

> <Gold.Chemscore.Internal_Hbond.Weighted>
0.0000

> <Gold.Chemscore.DEClash.Weighted>
0.0195

> <Gold.Chemscore.DEInternal.Weighted>
1.2685

> <Gold.Chemscore.Rot.Weighted>
6.4120

> <Gold.Chemscore.Internal.Correction.Weighted>
   9.000000E+99

> <Gold.Protein.RotatedTorsions>
[ 6907 6896 6895 6894 ] final -133.06 input  -60.11 | X-H torsion
[ 7974 7965 7964 7962 ] final  154.25 input  175.53 | X-H torsion
[ 8008 7997 7996 7995 ] final   93.16 input   59.86 | X-H torsion
[ 10167 10162 10161 10158 ] final  -75.46 input  -65.29 | X-H torsion
[ 10718 10713 10712 10709 ] final   37.61 input   66.30 | X-H torsion
[ 10763 10752 10751 10750 ] final -112.27 input  -60.55 | X-H torsion
[ 11005 11000 10999 10996 ] final  -80.75 input  -57.11 | X-H torsion

> <Gold.Protein.ActiveResidues>
 VAL166  LYS551  ARG553  GLY616  TRP617  ASP618  TYR619  PRO620  LYS621  CYS622 
 ASP623  PHE694  ASN695  SER759  ASP760  ASP761  ALA762  ILE779  LEU786  VAL792 
 PHE793  MET794  SER795  GLU796  ALA797  LYS798  CYS799  TRP800  GLU811  SER814 

> <Gold.Protein.RotatedAtoms>
  150.9696  133.6358  159.2739 H   0  0  0  0  0  0  0  0  0  0  0  0  # atno 6907 bound_to 6896
  151.3651  135.0910  159.9457 H   0  0  0  0  0  0  0  0  0  0  0  0  # atno 6908 bound_to 6896
  152.5178  133.9262  159.7613 H   0  0  0  0  0  0  0  0  0  0  0  0  # atno 6909 bound_to 6896
  144.8101  139.6908  143.6145 H   0  0  0  0  0  0  0  0  0  0  0  0  # atno 7974 bound_to 7965
  156.0436  140.3316  155.7271 H   0  0  0  0  0  0  0  0  0  0  0  0  # atno 8008 bound_to 7997
  155.5707  140.0627  157.2824 H   0  0  0  0  0  0  0  0  0  0  0  0  # atno 8009 bound_to 7997
  154.4404  140.1861  156.0865 H   0  0  0  0  0  0  0  0  0  0  0  0  # atno 8010 bound_to 7997
  140.4940  143.2374  151.7861 H   0  0  0  0  0  0  0  0  0  0  0  0  # atno 10167 bound_to 10162
  157.3490  130.7588  149.6965 H   0  0  0  0  0  0  0  0  0  0  0  0  # atno 10718 bound_to 10713
  154.8341  135.4497  154.1168 H   0  0  0  0  0  0  0  0  0  0  0  0  # atno 10763 bound_to 10752
  153.2415  135.6917  153.7784 H   0  0  0  0  0  0  0  0  0  0  0  0  # atno 10764 bound_to 10752
  153.7130  135.3353  155.3226 H   0  0  0  0  0  0  0  0  0  0  0  0  # atno 10765 bound_to 10752
  141.1667  133.7164  156.8320 H   0  0  0  0  0  0  0  0  0  0  0  0  # atno 11005 bound_to 11000
  146.2399  139.5979  142.9499 LP  0  0  0  0  0  0  0  0  0  0  0  0  # atno 17320 bound_to 7965
  145.5344  141.0425  143.2365 LP  0  0  0  0  0  0  0  0  0  0  0  0  # atno 17321 bound_to 7965
  139.4857  144.4611  151.9540 LP  0  0  0  0  0  0  0  0  0  0  0  0  # atno 17342 bound_to 10162
  140.3698  144.2869  150.5921 LP  0  0  0  0  0  0  0  0  0  0  0  0  # atno 17343 bound_to 10162
  155.9718  130.4146  150.4140 LP  0  0  0  0  0  0  0  0  0  0  0  0  # atno 17370 bound_to 10713
  157.2200  131.0480  151.2552 LP  0  0  0  0  0  0  0  0  0  0  0  0  # atno 17371 bound_to 10713
  140.2044  134.8873  157.3205 LP  0  0  0  0  0  0  0  0  0  0  0  0  # atno 17394 bound_to 11000
  140.2153  134.4089  155.7592 LP  0  0  0  0  0  0  0  0  0  0  0  0  # atno 17395 bound_to 11000

$$$$
