AV-unprocessed.smi:1960|AV-procd|sdf|7917|dock1
  -GOLD-   2272010 83D 1   1.00000     0.00000
 Structure written by MMmdl.
 39 40  0  0  0  0  0  0  0  0  2 V2000
  147.4401  131.4175  157.9817 C   0  0  0  0  0  0  0  0  0  0  0  0
  149.1992  131.8341  158.3218 S   0  0  0  0  0  0  0  0  0  0  0  0
  149.3274  133.2993  158.3449 O   0  0  0  0  0  0  0  0  0  0  0  0
  149.6411  131.0452  159.4821 O   0  0  0  0  0  0  0  0  0  0  0  0
  150.0522  131.2468  156.9229 N   0  0  0  0  0  0  0  0  0  0  0  0
  149.7149  129.9265  156.3541 C   0  0  0  0  0  0  0  0  0  0  0  0
  148.8338  130.0548  155.0988 C   0  0  0  0  0  0  0  0  0  0  0  0
  149.4750  130.9859  154.0556 C   0  0  0  0  0  0  0  0  0  0  0  0
  148.5978  131.1599  152.9009 N   0  0  0  0  0  0  0  0  0  0  0  0
  147.3811  131.7227  152.9332 C   0  0  0  0  0  0  0  0  0  0  0  0
  146.8683  132.1719  153.9579 O   0  0  0  0  0  0  0  0  0  0  0  0
  146.8220  131.7459  151.7107 N   0  0  0  0  0  0  0  0  0  0  0  0
  145.5467  132.2458  151.3294 C   0  0  0  0  0  0  0  0  0  0  0  0
  145.0758  131.9192  150.0381 C   0  0  0  0  0  0  0  0  0  0  0  0
  143.8099  132.3796  149.6219 C   0  0  0  0  0  0  0  0  0  0  0  0
  143.0539  133.1190  150.4614 N   0  3  0  0  0  0  0  0  0  0  0  0
  143.4542  133.4444  151.7092 C   0  0  0  0  0  0  0  0  0  0  0  0
  144.7106  133.0124  152.1812 C   0  0  0  0  0  0  0  0  0  0  0  0
  149.7614  132.3489  154.7022 C   0  0  0  0  0  0  0  0  0  0  0  0
  150.6366  132.2014  155.9594 C   0  0  0  0  0  0  0  0  0  0  0  0
  146.8275  131.7553  158.8170 H   0  0  0  0  0  0  0  0  0  0  0  0
  147.3278  130.3400  157.8754 H   0  0  0  0  0  0  0  0  0  0  0  0
  147.1080  131.9199  157.0750 H   0  0  0  0  0  0  0  0  0  0  0  0
  150.6437  129.4168  156.0953 H   0  0  0  0  0  0  0  0  0  0  0  0
  149.2222  129.3052  157.1014 H   0  0  0  0  0  0  0  0  0  0  0  0
  148.6738  129.0647  154.6708 H   0  0  0  0  0  0  0  0  0  0  0  0
  147.8480  130.4286  155.3731 H   0  0  0  0  0  0  0  0  0  0  0  0
  150.4224  130.5557  153.7247 H   0  0  0  0  0  0  0  0  0  0  0  0
  148.9445  130.8229  152.0147 H   0  0  0  0  0  0  0  0  0  0  0  0
  147.4018  131.4157  150.9533 H   0  0  0  0  0  0  0  0  0  0  0  0
  145.6796  131.3262  149.3664 H   0  0  0  0  0  0  0  0  0  0  0  0
  143.3819  132.1782  148.6507 H   0  0  0  0  0  0  0  0  0  0  0  0
  142.7594  134.0311  152.2924 H   0  0  0  0  0  0  0  0  0  0  0  0
  145.0007  133.2667  153.1891 H   0  0  0  0  0  0  0  0  0  0  0  0
  150.2630  133.0015  153.9869 H   0  0  0  0  0  0  0  0  0  0  0  0
  148.8249  132.8433  154.9585 H   0  0  0  0  0  0  0  0  0  0  0  0
  150.7903  133.1717  156.4307 H   0  0  0  0  0  0  0  0  0  0  0  0
  151.6250  131.8395  155.6745 H   0  0  0  0  0  0  0  0  0  0  0  0
  142.1398  133.4412  150.1418 H   0  0  0  0  0  0  0  0  0  0  0  0
  1  2  1  0  0  0  0
  1 21  1  0  0  0  0
  1 22  1  0  0  0  0
  1 23  1  0  0  0  0
  2  3  2  0  0  0  0
  2  4  2  0  0  0  0
  2  5  1  0  0  0  0
  5 20  1  0  0  0  0
  5  6  1  0  0  0  0
  6  7  1  0  0  0  0
  6 24  1  0  0  0  0
  6 25  1  0  0  0  0
  7  8  1  0  0  0  0
  7 26  1  0  0  0  0
  7 27  1  0  0  0  0
  8  9  1  0  0  0  0
  8 19  1  0  0  0  0
  8 28  1  0  0  0  0
  9 10  1  0  0  0  0
  9 29  1  0  0  0  0
 10 11  2  0  0  0  0
 10 12  1  0  0  0  0
 12 13  1  0  0  0  0
 12 30  1  0  0  0  0
 13 18  1  0  0  0  0
 13 14  2  0  0  0  0
 14 15  1  0  0  0  0
 14 31  1  0  0  0  0
 15 16  2  0  0  0  0
 15 32  1  0  0  0  0
 16 17  1  0  0  0  0
 16 39  1  0  0  0  0
 17 18  2  0  0  0  0
 17 33  1  0  0  0  0
 18 34  1  0  0  0  0
 19 20  1  0  0  0  0
 19 35  1  0  0  0  0
 19 36  1  0  0  0  0
 20 37  1  0  0  0  0
 20 38  1  0  0  0  0
M  CHG  1  16   1
M  END
> <s_m_source_file>
AV-unprocessed.smi

> <i_m_source_file_index>
1960

> <i_lp_mmshare_version>
43012

> <i_f3d_flags>
0

> <s_epik_input>
W0NIM11TKD1PKSg9TylOMVtDSDJdW0NIMl1bQ0hdKFtDSDJdW0NIMl0xKVtOSF1DKD1PKVtOSF1jMltjSF1bY0hdbltjSF1bY0hdMg==

> <s_epik_cmdline>
J2VwaWtfcHl0aG9uJywgJy1waCcsICc3LjAnLCAnLXRuJywgJzgnLCAnLW1hJywgJzIwMCcsICctbWV0YWxfYmluZGluZycsICctaW1hZScsICc8aW5maWxlLm1hZT4nLCAnLW9tYWUnLCAnPG91dGZpbGUubWFlPic=

> <r_epik_Ionization_Penalty>
1.01996

> <r_epik_Ionization_Penalty_Charging>
1.01994

> <r_epik_Ionization_Penalty_Neutral>
1.92463e-05

> <r_epik_State_Penalty>
1.07014

> <r_epik_Charging_Adjusted_Penalty>
2.09007

> <i_epik_Tot_Q>
1

> <i_epik_Tot_abs_Q>
1

> <r_epik_Metal_State_Penalty>
1.16909

> <b_epik_Metal_Only>
0

> <s_lp_Force_Field>
OPLS_2005

> <r_lp_Energy>
12.0857

> <b_lp_Chiralities_Consistent>
1

> <s_lp_Variant>
AV-unprocessed.smi:1960-2

> <Gold.Version>
5.8.1

> <Gold.Id.Protein>
6NUR|6NUR_protein|mol2

> <Gold.PLP.Fitness>
43.9324

> <Gold.PLP.PLP>
-29.1206

> <Gold.PLP.part.hbond>
-4.0000

> <Gold.PLP.part.metal>
0.0000

> <Gold.PLP.part.buried>
-4.0879

> <Gold.PLP.part.nonpolar>
-21.4913

> <Gold.PLP.part.repulsive>
0.1488

> <Gold.PLP.ligand.clash>
0.0000

> <Gold.PLP.ligand.torsion>
1.1207

> <Gold.PLP.Chemscore.Hbond>
5.0000

> <Gold.PLP.Chemscore.CHOScore>
0.0000

> <Gold.PLP.Chemscore.Metal>
0.0000

> <Gold.Chemscore.Hbonds>
donor molecule, donor type, donor heavy atom, donor atom, acceptor molecule, acceptor atom, score
      L1  H     9    29       P1 10747  1.00
      L1  H    12    30       P1 10747  1.00
      L1  H    16    39       P1 10186  2.00
      P1  H  6896  6907       L1     3  1.00

> <Gold.PLP.Chemscore.Internal.Correction>
2.0531

> <Gold.Rescore>
     Score         DG    S(hbond)    S(metal)    S(lipo)     H(rot)  DE(clash)    DE(int)     intcor
     18.78     -22.20       3.52        0.00      64.36       1.00       0.02       3.40       ----

> <Gold.Chemscore.Fitness>
18.7824

> <Gold.Chemscore.DG>
-22.1957

> <Gold.Chemscore.ZeroCoef>
-5.4800

> <Gold.Chemscore.Hbond>
3.5165

> <Gold.Chemscore.Metal>
0.0000

> <Gold.Chemscore.Lipo>
64.3637

> <Gold.Chemscore.Internal_Hbond>
0.0000

> <Gold.Chemscore.DEClash>
0.0174

> <Gold.Chemscore.DEInternal>
3.3958

> <Gold.Chemscore.Rot>
1.0000

> <Gold.Chemscore.Internal.Correction>
   9.000000E+99

> <Gold.Chemscore.Hbonds>
donor molecule, donor type, donor heavy atom, donor atom, acceptor molecule, acceptor atom, score
      L1  H     9    29       P1 10747  0.43
      L1  H    12    30       P1 10747  0.97
      L1  H    16    39       P1 10186  0.98
      P1  H  6896  6907       L1     3  0.65

> <Gold.Chemscore.Hbond.Weighted>
-11.7451

> <Gold.Chemscore.Metal.Weighted>
-0.0000

> <Gold.Chemscore.Lipo.Weighted>
-7.5306

> <Gold.Chemscore.Internal_Hbond.Weighted>
0.0000

> <Gold.Chemscore.DEClash.Weighted>
0.0174

> <Gold.Chemscore.DEInternal.Weighted>
3.3958

> <Gold.Chemscore.Rot.Weighted>
2.5600

> <Gold.Chemscore.Internal.Correction.Weighted>
   9.000000E+99

> <Gold.Protein.RotatedTorsions>
[ 6907 6896 6895 6894 ] final -125.70 input  -60.11 | X-H torsion
[ 7974 7965 7964 7962 ] final   33.30 input  175.53 | X-H torsion
[ 8008 7997 7996 7995 ] final  119.06 input   59.86 | X-H torsion
[ 10167 10162 10161 10158 ] final -174.00 input  -65.29 | X-H torsion
[ 10718 10713 10712 10709 ] final   -6.88 input   66.30 | X-H torsion
[ 10763 10752 10751 10750 ] final   68.86 input  -60.55 | X-H torsion
[ 11005 11000 10999 10996 ] final  -96.22 input  -57.11 | X-H torsion

> <Gold.Protein.ActiveResidues>
 VAL166  LYS551  ARG553  GLY616  TRP617  ASP618  TYR619  PRO620  LYS621  CYS622 
 ASP623  PHE694  ASN695  SER759  ASP760  ASP761  ALA762  ILE779  LEU786  VAL792 
 PHE793  MET794  SER795  GLU796  ALA797  LYS798  CYS799  TRP800  GLU811  SER814 

> <Gold.Protein.RotatedAtoms>
  150.8894  133.7264  159.2908 H   0  0  0  0  0  0  0  0  0  0  0  0  # atno 6907 bound_to 6896
  151.4819  135.1051  159.9789 H   0  0  0  0  0  0  0  0  0  0  0  0  # atno 6908 bound_to 6896
  152.4810  133.8208  159.7108 H   0  0  0  0  0  0  0  0  0  0  0  0  # atno 6909 bound_to 6896
  146.1430  139.6415  142.9150 H   0  0  0  0  0  0  0  0  0  0  0  0  # atno 7974 bound_to 7965
  156.2577  140.2861  156.0932 H   0  0  0  0  0  0  0  0  0  0  0  0  # atno 8008 bound_to 7997
  155.1440  140.0396  157.2823 H   0  0  0  0  0  0  0  0  0  0  0  0  # atno 8009 bound_to 7997
  154.6509  140.2544  155.7222 H   0  0  0  0  0  0  0  0  0  0  0  0  # atno 8010 bound_to 7997
  139.5657  144.1760  152.1309 H   0  0  0  0  0  0  0  0  0  0  0  0  # atno 10167 bound_to 10162
  156.7254  130.5164  149.5858 H   0  0  0  0  0  0  0  0  0  0  0  0  # atno 10718 bound_to 10713
  153.0257  135.5232  154.7200 H   0  0  0  0  0  0  0  0  0  0  0  0  # atno 10763 bound_to 10752
  154.6258  135.2894  155.0276 H   0  0  0  0  0  0  0  0  0  0  0  0  # atno 10764 bound_to 10752
  154.1246  135.6602  153.4962 H   0  0  0  0  0  0  0  0  0  0  0  0  # atno 10765 bound_to 10752
  141.1418  133.8082  157.0542 H   0  0  0  0  0  0  0  0  0  0  0  0  # atno 11005 bound_to 11000
  145.5003  141.0437  143.2544 LP  0  0  0  0  0  0  0  0  0  0  0  0  # atno 17320 bound_to 7965
  144.7814  139.6518  143.7153 LP  0  0  0  0  0  0  0  0  0  0  0  0  # atno 17321 bound_to 7965
  140.1283  144.5311  150.6819 LP  0  0  0  0  0  0  0  0  0  0  0  0  # atno 17342 bound_to 10162
  140.6941  143.2393  151.5051 LP  0  0  0  0  0  0  0  0  0  0  0  0  # atno 17343 bound_to 10162
  156.1565  130.6345  151.0664 LP  0  0  0  0  0  0  0  0  0  0  0  0  # atno 17370 bound_to 10713
  157.6881  131.0819  150.7187 LP  0  0  0  0  0  0  0  0  0  0  0  0  # atno 17371 bound_to 10713
  140.0612  134.9753  157.1308 LP  0  0  0  0  0  0  0  0  0  0  0  0  # atno 17394 bound_to 11000
  140.3845  134.2251  155.7169 LP  0  0  0  0  0  0  0  0  0  0  0  0  # atno 17395 bound_to 11000

$$$$
