AV-unprocessed.smi:1809|AV-procd|sdf|7322|dock4
  -GOLD-   22720 8573D 1   1.00000     0.00000
 Structure written by MMmdl.
 39 41  0  0  0  0  0  0  0  0  3 V2000
  146.1527  134.2232  161.6701 C   0  0  0  0  0  0  0  0  0  0  0  0
  147.1972  134.6490  160.6961 C   0  0  0  0  0  0  0  0  0  0  0  0
  147.8823  133.7827  159.9456 N   0  0  0  0  0  0  0  0  0  0  0  0
  148.7972  134.4175  159.1180 N   0  0  0  0  0  0  0  0  0  0  0  0
  148.7992  135.7505  159.2615 C   0  0  0  0  0  0  0  0  0  0  0  0
  149.6089  136.5506  158.5482 N   0  5  0  0  0  0  0  0  0  0  0  0
  149.2524  137.8321  158.3088 C   0  0  0  0  0  0  0  0  0  0  0  0
  148.1107  138.2964  158.3528 O   0  0  0  0  0  0  0  0  0  0  0  0
  150.2832  138.6282  157.9997 N   0  0  0  0  0  0  0  0  0  0  0  0
  150.1810  140.0521  157.7152 C   0  0  0  0  0  0  0  0  0  0  0  0
  151.5455  140.6229  157.2834 C   0  0  1  0  0  0  0  0  0  0  0  0
  151.4765  142.1276  156.9280 C   0  0  0  0  0  0  0  0  0  0  0  0
  151.3633  142.9085  158.1741 N   0  3  2  0  0  0  0  0  0  0  0  0
  151.2703  144.3748  158.0703 C   0  0  0  0  0  0  0  0  0  0  0  0
  151.7689  144.9004  159.4311 C   0  0  0  0  0  0  0  0  0  0  0  0
  152.2933  143.6672  160.1889 C   0  0  0  0  0  0  0  0  0  0  0  0
  152.4782  142.6329  159.0827 C   0  0  1  0  0  0  0  0  0  0  0  0
  152.4532  141.1501  159.4716 C   0  0  0  0  0  0  0  0  0  0  0  0
  152.5612  140.3815  158.2704 O   0  0  0  0  0  0  0  0  0  0  0  0
  147.6297  136.3319  160.4462 S   0  0  0  0  0  0  0  0  0  0  0  0
  146.6203  133.9043  162.6016 H   0  0  0  0  0  0  0  0  0  0  0  0
  145.5728  133.3935  161.2649 H   0  0  0  0  0  0  0  0  0  0  0  0
  145.4748  135.0501  161.8826 H   0  0  0  0  0  0  0  0  0  0  0  0
  151.2041  138.2145  157.9742 H   0  0  0  0  0  0  0  0  0  0  0  0
  149.4505  140.1985  156.9181 H   0  0  0  0  0  0  0  0  0  0  0  0
  149.7953  140.5740  158.5917 H   0  0  0  0  0  0  0  0  0  0  0  0
  151.8517  140.0838  156.3861 H   0  0  0  0  0  0  0  0  0  0  0  0
  152.3769  142.4278  156.3901 H   0  0  0  0  0  0  0  0  0  0  0  0
  150.6276  142.3358  156.2756 H   0  0  0  0  0  0  0  0  0  0  0  0
  151.9188  144.7336  157.2694 H   0  0  0  0  0  0  0  0  0  0  0  0
  150.2497  144.6869  157.8479 H   0  0  0  0  0  0  0  0  0  0  0  0
  152.5635  145.6329  159.2831 H   0  0  0  0  0  0  0  0  0  0  0  0
  150.9715  145.3901  159.9909 H   0  0  0  0  0  0  0  0  0  0  0  0
  153.2146  143.8667  160.7372 H   0  0  0  0  0  0  0  0  0  0  0  0
  151.5432  143.3249  160.9035 H   0  0  0  0  0  0  0  0  0  0  0  0
  153.4143  142.8496  158.5628 H   0  0  0  0  0  0  0  0  0  0  0  0
  153.2963  140.9131  160.1207 H   0  0  0  0  0  0  0  0  0  0  0  0
  151.5468  140.8929  160.0203 H   0  0  0  0  0  0  0  0  0  0  0  0
  150.5262  142.5999  158.6480 H   0  0  0  0  0  0  0  0  0  0  0  0
  1  2  1  0  0  0  0
  1 21  1  0  0  0  0
  1 22  1  0  0  0  0
  1 23  1  0  0  0  0
  2 20  1  0  0  0  0
  2  3  2  0  0  0  0
  3  4  1  0  0  0  0
  4  5  2  0  0  0  0
  5  6  1  0  0  0  0
  5 20  1  0  0  0  0
  6  7  1  0  0  0  0
  7  8  2  0  0  0  0
  7  9  1  0  0  0  0
  9 10  1  0  0  0  0
  9 24  1  0  0  0  0
 10 11  1  0  0  0  0
 10 25  1  0  0  0  0
 10 26  1  0  0  0  0
 11 19  1  0  0  0  0
 11 12  1  0  0  0  0
 11 27  1  0  0  0  0
 12 13  1  0  0  0  0
 12 28  1  0  0  0  0
 12 29  1  0  0  0  0
 13 17  1  0  0  0  0
 13 14  1  0  0  0  0
 13 39  1  0  0  0  0
 14 15  1  0  0  0  0
 14 30  1  0  0  0  0
 14 31  1  0  0  0  0
 15 16  1  0  0  0  0
 15 32  1  0  0  0  0
 15 33  1  0  0  0  0
 16 17  1  0  0  0  0
 16 34  1  0  0  0  0
 16 35  1  0  0  0  0
 17 18  1  0  0  0  0
 17 36  1  0  0  0  0
 18 19  1  0  0  0  0
 18 37  1  0  0  0  0
 18 38  1  0  0  0  0
M  CHG  1   6  -1
M  CHG  1  13   1
M  END
> <s_m_source_file>
AV-unprocessed.smi

> <i_m_source_file_index>
1809

> <i_lp_mmshare_version>
43012

> <i_f3d_flags>
0

> <s_epik_input>
W0NIM11jMW5uYyhzMSlbTkhdQyg9TylbTkhdW0NIMl1bQ0BIXShbQ0gyXTIpT1tDSDJdW0NAQEhdKE4yMylbQ0gyXVtDSDJdW0NIMl0z

> <s_epik_cmdline>
J2VwaWtfcHl0aG9uJywgJy1waCcsICc3LjAnLCAnLXRuJywgJzgnLCAnLW1hJywgJzIwMCcsICctbWV0YWxfYmluZGluZycsICctaW1hZScsICc8aW5maWxlLm1hZT4nLCAnLW9tYWUnLCAnPG91dGZpbGUubWFlPic=

> <r_lp_tautomer_probability>
1

> <r_epik_Ionization_Penalty>
3.2601

> <r_epik_Ionization_Penalty_Charging>
3.1406

> <r_epik_Ionization_Penalty_Neutral>
0.119497

> <r_epik_State_Penalty>
3.08894

> <r_epik_Charging_Adjusted_Penalty>
6.22954

> <i_epik_Tot_Q>
0

> <i_epik_Tot_abs_Q>
2

> <r_epik_Metal_State_Penalty>
0.510807

> <b_epik_Metal_Only>
1

> <s_lp_Force_Field>
OPLS_2005

> <r_lp_Energy>
31.1034

> <b_lp_Chiralities_Consistent>
1

> <s_lp_Variant>
AV-unprocessed.smi:1809-14

> <Gold.Version>
5.8.1

> <Gold.Id.Protein>
6NUR|6NUR_protein|mol2

> <Gold.PLP.Fitness>
39.5544

> <Gold.PLP.PLP>
-36.0634

> <Gold.PLP.part.hbond>
-2.6698

> <Gold.PLP.part.metal>
0.0000

> <Gold.PLP.part.buried>
-4.5973

> <Gold.PLP.part.nonpolar>
-29.1449

> <Gold.PLP.part.repulsive>
0.1266

> <Gold.PLP.ligand.clash>
0.0000

> <Gold.PLP.ligand.torsion>
0.2535

> <Gold.PLP.Chemscore.Hbond>
1.3287

> <Gold.PLP.Chemscore.CHOScore>
0.0000

> <Gold.PLP.Chemscore.Metal>
0.0000

> <Gold.Chemscore.Hbonds>
donor molecule, donor type, donor heavy atom, donor atom, acceptor molecule, acceptor atom, score
      P1  H  6896  6908       L1     4  0.99
      P1  H  7997  8008       L1    19  0.02

> <Gold.PLP.Chemscore.Internal.Correction>
0.0120

> <Gold.Rescore>
     Score         DG    S(hbond)    S(metal)    S(lipo)     H(rot)  DE(clash)    DE(int)     intcor
     14.52     -16.20       0.84        0.00      96.59       1.32       0.11       1.58       ----

> <Gold.Chemscore.Fitness>
14.5219

> <Gold.Chemscore.DG>
-16.2041

> <Gold.Chemscore.ZeroCoef>
-5.4800

> <Gold.Chemscore.Hbond>
0.8427

> <Gold.Chemscore.Metal>
0.0000

> <Gold.Chemscore.Lipo>
96.5857

> <Gold.Chemscore.Internal_Hbond>
0.0000

> <Gold.Chemscore.DEClash>
0.1063

> <Gold.Chemscore.DEInternal>
1.5759

> <Gold.Chemscore.Rot>
1.3246

> <Gold.Chemscore.Internal.Correction>
   9.000000E+99

> <Gold.Chemscore.Hbonds>
donor molecule, donor type, donor heavy atom, donor atom, acceptor molecule, acceptor atom, score
      P1  H  6896  6908       L1     4  0.23
      P1  H  7997  8008       L1    19  0.01

> <Gold.Chemscore.Hbond.Weighted>
-2.8146

> <Gold.Chemscore.Metal.Weighted>
-0.0000

> <Gold.Chemscore.Lipo.Weighted>
-11.3005

> <Gold.Chemscore.Internal_Hbond.Weighted>
0.0000

> <Gold.Chemscore.DEClash.Weighted>
0.1063

> <Gold.Chemscore.DEInternal.Weighted>
1.5759

> <Gold.Chemscore.Rot.Weighted>
3.3910

> <Gold.Chemscore.Internal.Correction.Weighted>
   9.000000E+99

> <Gold.Protein.RotatedTorsions>
[ 6907 6896 6895 6894 ] final  137.14 input  -60.11 | X-H torsion
[ 7974 7965 7964 7962 ] final  151.80 input  175.53 | X-H torsion
[ 8008 7997 7996 7995 ] final  -65.24 input   59.86 | X-H torsion
[ 10167 10162 10161 10158 ] final  130.01 input  -65.29 | X-H torsion
[ 10718 10713 10712 10709 ] final  -80.56 input   66.30 | X-H torsion
[ 10763 10752 10751 10750 ] final   85.17 input  -60.55 | X-H torsion
[ 11005 11000 10999 10996 ] final  -31.35 input  -57.11 | X-H torsion

> <Gold.Protein.ActiveResidues>
 VAL166  LYS551  ARG553  GLY616  TRP617  ASP618  TYR619  PRO620  LYS621  CYS622 
 ASP623  PHE694  ASN695  SER759  ASP760  ASP761  ALA762  ILE779  LEU786  VAL792 
 PHE793  MET794  SER795  GLU796  ALA797  LYS798  CYS799  TRP800  GLU811  SER814 

> <Gold.Protein.RotatedAtoms>
  152.2814  133.5474  159.5500 H   0  0  0  0  0  0  0  0  0  0  0  0  # atno 6907 bound_to 6896
  150.7197  134.0558  159.3823 H   0  0  0  0  0  0  0  0  0  0  0  0  # atno 6908 bound_to 6896
  151.8469  135.0571  160.0505 H   0  0  0  0  0  0  0  0  0  0  0  0  # atno 6909 bound_to 6896
  144.8266  139.6585  143.6077 H   0  0  0  0  0  0  0  0  0  0  0  0  # atno 7974 bound_to 7965
  154.4659  140.0937  156.7020 H   0  0  0  0  0  0  0  0  0  0  0  0  # atno 8008 bound_to 7997
  155.4858  140.3469  155.4328 H   0  0  0  0  0  0  0  0  0  0  0  0  # atno 8009 bound_to 7997
  156.0956  140.1408  156.9524 H   0  0  0  0  0  0  0  0  0  0  0  0  # atno 8010 bound_to 7997
  139.5450  144.6765  151.4501 H   0  0  0  0  0  0  0  0  0  0  0  0  # atno 10167 bound_to 10162
  156.0068  130.4578  150.3819 H   0  0  0  0  0  0  0  0  0  0  0  0  # atno 10718 bound_to 10713
  153.1449  135.4627  154.9552 H   0  0  0  0  0  0  0  0  0  0  0  0  # atno 10763 bound_to 10752
  154.7778  135.3179  154.8057 H   0  0  0  0  0  0  0  0  0  0  0  0  # atno 10764 bound_to 10752
  153.8573  135.6916  153.4840 H   0  0  0  0  0  0  0  0  0  0  0  0  # atno 10765 bound_to 10752
  140.9460  133.7249  156.1148 H   0  0  0  0  0  0  0  0  0  0  0  0  # atno 11005 bound_to 11000
  146.2571  139.6327  142.9387 LP  0  0  0  0  0  0  0  0  0  0  0  0  # atno 17320 bound_to 7965
  145.4986  141.0438  143.2553 LP  0  0  0  0  0  0  0  0  0  0  0  0  # atno 17321 bound_to 7965
  140.6695  143.8324  150.6982 LP  0  0  0  0  0  0  0  0  0  0  0  0  # atno 17342 bound_to 10162
  140.1744  143.4167  152.1978 LP  0  0  0  0  0  0  0  0  0  0  0  0  # atno 17343 bound_to 10162
  157.1898  131.0412  151.2706 LP  0  0  0  0  0  0  0  0  0  0  0  0  # atno 17370 bound_to 10713
  157.4071  130.7365  149.6811 LP  0  0  0  0  0  0  0  0  0  0  0  0  # atno 17371 bound_to 10713
  140.7668  134.3877  157.5515 LP  0  0  0  0  0  0  0  0  0  0  0  0  # atno 17394 bound_to 11000
  139.8833  134.8997  156.2772 LP  0  0  0  0  0  0  0  0  0  0  0  0  # atno 17395 bound_to 11000

$$$$
