AV-unprocessed.smi:470|AV-procd|sdf|2655|dock5
  -GOLD-   2262023 63D 1   1.00000     0.00000
 Structure written by MMmdl.
 33 34  0  0  0  0  0  0  0  0  1 V2000
  145.0896  137.9057  152.2392 N   0  0  0  0  0  0  0  0  0  0  0  0
  146.3380  138.3693  152.1323 C   0  0  0  0  0  0  0  0  0  0  0  0
  146.7952  138.7890  151.0714 O   0  0  0  0  0  0  0  0  0  0  0  0
  147.1984  138.3575  153.3970 C   0  0  0  0  0  0  0  0  0  0  0  0
  147.5284  139.7607  153.8145 C   0  0  0  0  0  0  0  0  0  0  0  0
  146.8184  140.8998  153.5206 C   0  0  0  0  0  0  0  0  0  0  0  0
  147.5478  142.3226  154.2158 S   0  0  0  0  0  0  0  0  0  0  0  0
  148.8277  141.3064  154.8599 C   0  0  0  0  0  0  0  0  0  0  0  0
  149.8687  141.8327  155.6696 N   0  0  0  0  0  0  0  0  0  0  0  0
  150.3009  141.4613  156.8925 C   0  0  0  0  0  0  0  0  0  0  0  0
  149.7463  140.5300  157.4738 O   0  0  0  0  0  0  0  0  0  0  0  0
  151.4676  142.1894  157.5924 C   0  0  1  0  0  0  0  0  0  0  0  0
  151.2489  143.7212  157.6501 C   0  0  0  0  0  0  0  0  0  0  0  0
  152.2829  144.4093  158.5241 C   0  0  0  0  0  0  0  0  0  0  0  0
  153.0487  143.7553  159.4146 C   0  0  0  0  0  0  0  0  0  0  0  0
  152.9618  142.2573  159.6495 C   0  0  0  0  0  0  0  0  0  0  0  0
  151.7004  141.6416  159.0156 C   0  0  0  0  0  0  0  0  0  0  0  0
  148.6670  140.0077  154.5876 N   0  0  0  0  0  0  0  0  0  0  0  0
  144.4850  137.9033  151.4307 H   0  0  0  0  0  0  0  0  0  0  0  0
  144.7521  137.5673  153.1288 H   0  0  0  0  0  0  0  0  0  0  0  0
  146.6704  137.8282  154.1918 H   0  0  0  0  0  0  0  0  0  0  0  0
  148.1102  137.7909  153.2050 H   0  0  0  0  0  0  0  0  0  0  0  0
  145.9072  140.9848  152.9473 H   0  0  0  0  0  0  0  0  0  0  0  0
  150.3492  142.6269  155.2723 H   0  0  0  0  0  0  0  0  0  0  0  0
  152.3752  142.0495  157.0072 H   0  0  0  0  0  0  0  0  0  0  0  0
  151.3066  144.1412  156.6454 H   0  0  0  0  0  0  0  0  0  0  0  0
  150.2647  143.9754  158.0456 H   0  0  0  0  0  0  0  0  0  0  0  0
  152.3790  145.4797  158.4155 H   0  0  0  0  0  0  0  0  0  0  0  0
  153.7764  144.2991  159.9989 H   0  0  0  0  0  0  0  0  0  0  0  0
  153.8562  141.7969  159.2282 H   0  0  0  0  0  0  0  0  0  0  0  0
  152.9752  142.0581  160.7212 H   0  0  0  0  0  0  0  0  0  0  0  0
  150.8348  141.8753  159.6379 H   0  0  0  0  0  0  0  0  0  0  0  0
  151.7864  140.5545  159.0133 H   0  0  0  0  0  0  0  0  0  0  0  0
  1  2  1  0  0  0  0
  1 19  1  0  0  0  0
  1 20  1  0  0  0  0
  2  3  2  0  0  0  0
  2  4  1  0  0  0  0
  4  5  1  0  0  0  0
  4 21  1  0  0  0  0
  4 22  1  0  0  0  0
  5 18  1  0  0  0  0
  5  6  2  0  0  0  0
  6  7  1  0  0  0  0
  6 23  1  0  0  0  0
  7  8  1  0  0  0  0
  8  9  1  0  0  0  0
  8 18  2  0  0  0  0
  9 10  1  0  0  0  0
  9 24  1  0  0  0  0
 10 11  2  0  0  0  0
 10 12  1  0  0  0  0
 12 17  1  0  0  0  0
 12 13  1  0  0  0  0
 12 25  1  0  0  0  0
 13 14  1  0  0  0  0
 13 26  1  0  0  0  0
 13 27  1  0  0  0  0
 14 15  2  0  0  0  0
 14 28  1  0  0  0  0
 15 16  1  0  0  0  0
 15 29  1  0  0  0  0
 16 17  1  0  0  0  0
 16 30  1  0  0  0  0
 16 31  1  0  0  0  0
 17 32  1  0  0  0  0
 17 33  1  0  0  0  0
M  END
> <s_m_source_file>
AV-unprocessed.smi

> <i_m_source_file_index>
470

> <i_lp_mmshare_version>
43012

> <i_f3d_flags>
0

> <s_epik_input>
W05IMl1DKD1PKVtDSDJdYzFbY0hdc2MobjEpW05IXUMoPU8pW0NAQEhdMltDSDJdW0NIXT1bQ0hdW0NIMl1bQ0gyXTI=

> <s_epik_cmdline>
J2VwaWtfcHl0aG9uJywgJy1waCcsICc3LjAnLCAnLXRuJywgJzgnLCAnLW1hJywgJzIwMCcsICctbWV0YWxfYmluZGluZycsICctaW1hZScsICc8aW5maWxlLm1hZT4nLCAnLW9tYWUnLCAnPG91dGZpbGUubWFlPic=

> <r_lp_tautomer_probability>
1

> <r_epik_Ionization_Penalty>
0.00025496

> <r_epik_Ionization_Penalty_Charging>
0

> <r_epik_Ionization_Penalty_Neutral>
0.00025496

> <r_epik_State_Penalty>
-0

> <r_epik_Charging_Adjusted_Penalty>
0

> <i_epik_Tot_Q>
0

> <i_epik_Tot_abs_Q>
0

> <r_epik_Metal_State_Penalty>
0.149391

> <b_epik_Metal_Only>
0

> <s_lp_Force_Field>
OPLS_2005

> <r_lp_Energy>
12.0987

> <b_lp_Chiralities_Consistent>
1

> <s_lp_Variant>
AV-unprocessed.smi:470-2

> <Gold.Version>
5.8.1

> <Gold.Id.Protein>
6NUR|6NUR_protein|mol2

> <Gold.PLP.Fitness>
46.0551

> <Gold.PLP.PLP>
-38.8610

> <Gold.PLP.part.hbond>
-3.8810

> <Gold.PLP.part.metal>
0.0000

> <Gold.PLP.part.buried>
-4.3035

> <Gold.PLP.part.nonpolar>
-33.0490

> <Gold.PLP.part.repulsive>
1.0536

> <Gold.PLP.ligand.clash>
0.0000

> <Gold.PLP.ligand.torsion>
0.8948

> <Gold.PLP.Chemscore.Hbond>
1.9920

> <Gold.PLP.Chemscore.CHOScore>
0.9960

> <Gold.PLP.Chemscore.Metal>
0.0000

> <Gold.Chemscore.Hbonds>
donor molecule, donor type, donor heavy atom, donor atom, acceptor molecule, acceptor atom, score
      L1  H     1    19       P1 10171  1.00
      P1  H  7954  7966       L1     3  0.93
      L1  C     6    23       P1 10175  1.00

> <Gold.PLP.Chemscore.Internal.Correction>
0.0196

> <Gold.Rescore>
     Score         DG    S(hbond)    S(metal)    S(lipo)     H(rot)  DE(clash)    DE(int)     intcor
     16.66     -17.72       1.92        0.00      91.22       1.90       0.21       0.85       ----

> <Gold.Chemscore.Fitness>
16.6621

> <Gold.Chemscore.DG>
-17.7225

> <Gold.Chemscore.ZeroCoef>
-5.4800

> <Gold.Chemscore.Hbond>
1.9240

> <Gold.Chemscore.Metal>
0.0000

> <Gold.Chemscore.Lipo>
91.2152

> <Gold.Chemscore.Internal_Hbond>
0.0000

> <Gold.Chemscore.DEClash>
0.2113

> <Gold.Chemscore.DEInternal>
0.8490

> <Gold.Chemscore.Rot>
1.8968

> <Gold.Chemscore.Internal.Correction>
   9.000000E+99

> <Gold.Chemscore.Hbonds>
donor molecule, donor type, donor heavy atom, donor atom, acceptor molecule, acceptor atom, score
      L1  H     1    19       P1 10171  0.97
      P1  H  7954  7966       L1     3  0.85

> <Gold.Chemscore.Hbond.Weighted>
-6.4261

> <Gold.Chemscore.Metal.Weighted>
-0.0000

> <Gold.Chemscore.Lipo.Weighted>
-10.6722

> <Gold.Chemscore.Internal_Hbond.Weighted>
0.0000

> <Gold.Chemscore.DEClash.Weighted>
0.2113

> <Gold.Chemscore.DEInternal.Weighted>
0.8490

> <Gold.Chemscore.Rot.Weighted>
4.8558

> <Gold.Chemscore.Internal.Correction.Weighted>
   9.000000E+99

> <Gold.Protein.RotatedTorsions>
[ 6907 6896 6895 6894 ] final -127.59 input  -60.11 | X-H torsion
[ 7974 7965 7964 7962 ] final   47.77 input  175.53 | X-H torsion
[ 8008 7997 7996 7995 ] final  160.36 input   59.86 | X-H torsion
[ 10167 10162 10161 10158 ] final -172.00 input  -65.29 | X-H torsion
[ 10718 10713 10712 10709 ] final -135.35 input   66.30 | X-H torsion
[ 10763 10752 10751 10750 ] final   12.30 input  -60.55 | X-H torsion
[ 11005 11000 10999 10996 ] final  -71.61 input  -57.11 | X-H torsion

> <Gold.Protein.ActiveResidues>
 VAL166  LYS551  ARG553  GLY616  TRP617  ASP618  TYR619  PRO620  LYS621  CYS622 
 ASP623  PHE694  ASN695  SER759  ASP760  ASP761  ALA762  ILE779  LEU786  VAL792 
 PHE793  MET794  SER795  GLU796  ALA797  LYS798  CYS799  TRP800  GLU811  SER814 

> <Gold.Protein.RotatedAtoms>
  150.9089  133.7023  159.2859 H   0  0  0  0  0  0  0  0  0  0  0  0  # atno 6907 bound_to 6896
  151.4516  135.1029  159.9709 H   0  0  0  0  0  0  0  0  0  0  0  0  # atno 6908 bound_to 6896
  152.4919  133.8473  159.7239 H   0  0  0  0  0  0  0  0  0  0  0  0  # atno 6909 bound_to 6896
  146.0267  139.4715  142.9863 H   0  0  0  0  0  0  0  0  0  0  0  0  # atno 7974 bound_to 7965
  156.2177  140.1806  156.7550 H   0  0  0  0  0  0  0  0  0  0  0  0  # atno 8008 bound_to 7997
  154.5817  140.0665  156.9142 H   0  0  0  0  0  0  0  0  0  0  0  0  # atno 8009 bound_to 7997
  155.2491  140.3327  155.4286 H   0  0  0  0  0  0  0  0  0  0  0  0  # atno 8010 bound_to 7997
  139.5770  144.1511  152.1463 H   0  0  0  0  0  0  0  0  0  0  0  0  # atno 10167 bound_to 10162
  156.2652  130.7233  151.1181 H   0  0  0  0  0  0  0  0  0  0  0  0  # atno 10718 bound_to 10713
  153.1837  135.6831  153.8444 H   0  0  0  0  0  0  0  0  0  0  0  0  # atno 10763 bound_to 10752
  153.7767  135.3188  155.3361 H   0  0  0  0  0  0  0  0  0  0  0  0  # atno 10764 bound_to 10752
  154.8075  135.4739  154.0526 H   0  0  0  0  0  0  0  0  0  0  0  0  # atno 10765 bound_to 10752
  141.1595  133.6822  156.6932 H   0  0  0  0  0  0  0  0  0  0  0  0  # atno 11005 bound_to 11000
  145.7107  141.0107  143.1455 LP  0  0  0  0  0  0  0  0  0  0  0  0  # atno 17320 bound_to 7965
  144.7012  139.8753  143.7443 LP  0  0  0  0  0  0  0  0  0  0  0  0  # atno 17321 bound_to 7965
  140.1055  144.5502  150.6960 LP  0  0  0  0  0  0  0  0  0  0  0  0  # atno 17342 bound_to 10162
  140.7051  143.2462  151.4749 LP  0  0  0  0  0  0  0  0  0  0  0  0  # atno 17343 bound_to 10162
  157.7265  131.0646  150.5908 LP  0  0  0  0  0  0  0  0  0  0  0  0  # atno 17370 bound_to 10713
  156.5999  130.4351  149.5901 LP  0  0  0  0  0  0  0  0  0  0  0  0  # atno 17371 bound_to 10713
  140.3014  134.8160  157.4101 LP  0  0  0  0  0  0  0  0  0  0  0  0  # atno 17394 bound_to 11000
  140.1258  134.5160  155.8146 LP  0  0  0  0  0  0  0  0  0  0  0  0  # atno 17395 bound_to 11000

$$$$
