AV-unprocessed.smi:3329|AV-procd|sdf|12798|dock4
  -GOLD-   2272019153D 1   1.00000     0.00000
 Structure written by MMmdl.
 41 42  0  0  0  0  0  0  0  0  1 V2000
  151.5352  139.3470  155.7717 C   0  0  0  0  0  0  0  0  0  0  0  0
  150.3039  140.1968  155.6429 C   0  0  0  0  0  0  0  0  0  0  0  0
  149.8709  141.2467  156.5024 C   0  0  0  0  0  0  0  0  0  0  0  0
  148.7373  141.8019  156.1061 N   0  0  0  0  0  0  0  0  0  0  0  0
  148.4065  141.1281  154.9843 N   0  0  0  0  0  0  0  0  0  0  0  0
  147.1984  141.4796  154.2594 C   0  0  0  0  0  0  0  0  0  0  0  0
  147.0287  140.6647  152.9656 C   0  0  0  0  0  0  0  0  0  0  0  0
  146.8004  139.2620  153.2819 N   0  0  0  0  0  0  0  0  0  0  0  0
  146.5322  138.4903  152.0646 C   0  0  0  0  0  0  0  0  0  0  0  0
  145.6017  137.3107  152.3416 C   0  0  0  0  0  0  0  0  0  0  0  0
  144.4168  137.5151  152.6002 O   0  0  0  0  0  0  0  0  0  0  0  0
  146.1572  136.0875  152.2859 N   0  0  0  0  0  0  0  0  0  0  0  0
  145.5062  134.7884  152.4732 C   0  0  2  0  0  0  0  0  0  0  0  0
  144.9405  134.6909  153.9041 C   0  0  0  0  0  0  0  0  0  0  0  0
  146.5491  133.7544  152.3377 C   0  0  0  0  0  0  0  0  0  0  0  0
  147.3691  132.9441  152.2334 N   0  0  0  0  0  0  0  0  0  0  0  0
  144.3894  134.5215  151.4579 C   0  0  0  0  0  0  0  0  0  0  0  0
  143.8744  133.1302  151.1622 C   0  0  0  0  0  0  0  0  0  0  0  0
  144.6482  133.8915  150.1079 C   0  0  0  0  0  0  0  0  0  0  0  0
  149.3326  140.1518  154.6834 C   0  0  0  0  0  0  0  0  0  0  0  0
  152.2746  139.8022  156.4309 H   0  0  0  0  0  0  0  0  0  0  0  0
  152.0192  139.1900  154.8075 H   0  0  0  0  0  0  0  0  0  0  0  0
  151.3026  138.3632  156.1797 H   0  0  0  0  0  0  0  0  0  0  0  0
  150.3454  141.6202  157.3979 H   0  0  0  0  0  0  0  0  0  0  0  0
  146.3392  141.3382  154.9169 H   0  0  0  0  0  0  0  0  0  0  0  0
  147.2376  142.5441  154.0244 H   0  0  0  0  0  0  0  0  0  0  0  0
  146.1811  141.0537  152.3999 H   0  0  0  0  0  0  0  0  0  0  0  0
  147.9132  140.7687  152.3351 H   0  0  0  0  0  0  0  0  0  0  0  0
  147.6109  138.9049  153.7679 H   0  0  0  0  0  0  0  0  0  0  0  0
  146.0722  139.1308  151.3106 H   0  0  0  0  0  0  0  0  0  0  0  0
  147.4706  138.1203  151.6483 H   0  0  0  0  0  0  0  0  0  0  0  0
  147.1422  136.0519  152.0657 H   0  0  0  0  0  0  0  0  0  0  0  0
  144.5389  133.6953  154.0965 H   0  0  0  0  0  0  0  0  0  0  0  0
  144.1320  135.4013  154.0766 H   0  0  0  0  0  0  0  0  0  0  0  0
  145.7138  134.8803  154.6498 H   0  0  0  0  0  0  0  0  0  0  0  0
  143.6139  135.2847  151.4670 H   0  0  0  0  0  0  0  0  0  0  0  0
  144.3672  132.2834  151.6349 H   0  0  0  0  0  0  0  0  0  0  0  0
  142.8025  133.0162  151.0132 H   0  0  0  0  0  0  0  0  0  0  0  0
  144.0907  134.2835  149.2597 H   0  0  0  0  0  0  0  0  0  0  0  0
  145.6567  133.5526  149.8808 H   0  0  0  0  0  0  0  0  0  0  0  0
  149.2264  139.5156  153.8169 H   0  0  0  0  0  0  0  0  0  0  0  0
  1  2  1  0  0  0  0
  1 21  1  0  0  0  0
  1 22  1  0  0  0  0
  1 23  1  0  0  0  0
  2 20  2  0  0  0  0
  2  3  1  0  0  0  0
  3  4  2  0  0  0  0
  3 24  1  0  0  0  0
  4  5  1  0  0  0  0
  5  6  1  0  0  0  0
  5 20  1  0  0  0  0
  6  7  1  0  0  0  0
  6 25  1  0  0  0  0
  6 26  1  0  0  0  0
  7  8  1  0  0  0  0
  7 27  1  0  0  0  0
  7 28  1  0  0  0  0
  8  9  1  0  0  0  0
  8 29  1  0  0  0  0
  9 10  1  0  0  0  0
  9 30  1  0  0  0  0
  9 31  1  0  0  0  0
 10 11  2  0  0  0  0
 10 12  1  0  0  0  0
 12 13  1  0  0  0  0
 12 32  1  0  0  0  0
 13 14  1  0  0  0  0
 13 15  1  0  0  0  0
 13 17  1  0  0  0  0
 14 33  1  0  0  0  0
 14 34  1  0  0  0  0
 14 35  1  0  0  0  0
 15 16  3  0  0  0  0
 17 19  1  0  0  0  0
 17 18  1  0  0  0  0
 17 36  1  0  0  0  0
 18 19  1  0  0  0  0
 18 37  1  0  0  0  0
 18 38  1  0  0  0  0
 19 39  1  0  0  0  0
 19 40  1  0  0  0  0
 20 41  1  0  0  0  0
M  END
> <s_m_source_file>
AV-unprocessed.smi

> <i_m_source_file_index>
3329

> <i_lp_mmshare_version>
43012

> <i_f3d_flags>
0

> <s_epik_input>
W0NIM11jMVtjSF1ubihbY0hdMSlbQ0gyXVtDSDJdW05IXVtDSDJdQyg9TylbTkhdW0NAQF0oW0NIM10pKEMjTilbQ0hdMltDSDJdW0NIMl0y

> <s_epik_cmdline>
J2VwaWtfcHl0aG9uJywgJy1waCcsICc3LjAnLCAnLXRuJywgJzgnLCAnLW1hJywgJzIwMCcsICctbWV0YWxfYmluZGluZycsICctaW1hZScsICc8aW5maWxlLm1hZT4nLCAnLW9tYWUnLCAnPG91dGZpbGUubWFlPic=

> <r_lp_tautomer_probability>
1

> <r_epik_Ionization_Penalty>
0.481866

> <r_epik_Ionization_Penalty_Charging>
0

> <r_epik_Ionization_Penalty_Neutral>
0.481866

> <r_epik_State_Penalty>
0.48398

> <r_epik_Charging_Adjusted_Penalty>
0.48398

> <i_epik_Tot_Q>
0

> <i_epik_Tot_abs_Q>
0

> <r_epik_Metal_State_Penalty>
0.5042

> <b_epik_Metal_Only>
0

> <s_lp_Force_Field>
OPLS_2005

> <r_lp_Energy>
14.7625

> <b_lp_Chiralities_Consistent>
1

> <s_lp_Variant>
AV-unprocessed.smi:3329-4

> <Gold.Version>
5.8.1

> <Gold.Id.Protein>
6NUR|6NUR_protein|mol2

> <Gold.PLP.Fitness>
41.6512

> <Gold.PLP.PLP>
-36.2949

> <Gold.PLP.part.hbond>
-1.0000

> <Gold.PLP.part.metal>
0.0000

> <Gold.PLP.part.buried>
-3.5363

> <Gold.PLP.part.nonpolar>
-32.5464

> <Gold.PLP.part.repulsive>
1.4550

> <Gold.PLP.ligand.clash>
0.0000

> <Gold.PLP.ligand.torsion>
1.0971

> <Gold.PLP.Chemscore.Hbond>
1.0000

> <Gold.PLP.Chemscore.CHOScore>
0.9771

> <Gold.PLP.Chemscore.Metal>
0.0000

> <Gold.Chemscore.Hbonds>
donor molecule, donor type, donor heavy atom, donor atom, acceptor molecule, acceptor atom, score
      L1  H    12    32       P1  7948  1.00
      L1  C    20    41       P1  7957  0.49

> <Gold.PLP.Chemscore.Internal.Correction>
1.6191

> <Gold.Rescore>
     Score         DG    S(hbond)    S(metal)    S(lipo)     H(rot)  DE(clash)    DE(int)     intcor
     10.33     -11.54       0.99        0.00      74.15       2.31       0.09       1.11       ----

> <Gold.Chemscore.Fitness>
10.3314

> <Gold.Chemscore.DG>
-11.5355

> <Gold.Chemscore.ZeroCoef>
-5.4800

> <Gold.Chemscore.Hbond>
0.9884

> <Gold.Chemscore.Metal>
0.0000

> <Gold.Chemscore.Lipo>
74.1477

> <Gold.Chemscore.Internal_Hbond>
0.0000

> <Gold.Chemscore.DEClash>
0.0896

> <Gold.Chemscore.DEInternal>
1.1145

> <Gold.Chemscore.Rot>
2.3129

> <Gold.Chemscore.Internal.Correction>
   9.000000E+99

> <Gold.Chemscore.Hbonds>
donor molecule, donor type, donor heavy atom, donor atom, acceptor molecule, acceptor atom, score
      L1  H    12    32       P1  7948  1.00

> <Gold.Chemscore.Hbond.Weighted>
-3.3013

> <Gold.Chemscore.Metal.Weighted>
-0.0000

> <Gold.Chemscore.Lipo.Weighted>
-8.6753

> <Gold.Chemscore.Internal_Hbond.Weighted>
0.0000

> <Gold.Chemscore.DEClash.Weighted>
0.0896

> <Gold.Chemscore.DEInternal.Weighted>
1.1145

> <Gold.Chemscore.Rot.Weighted>
5.9211

> <Gold.Chemscore.Internal.Correction.Weighted>
   9.000000E+99

> <Gold.Protein.RotatedTorsions>
[ 6907 6896 6895 6894 ] final  177.98 input  -60.11 | X-H torsion
[ 7974 7965 7964 7962 ] final  109.12 input  175.53 | X-H torsion
[ 8008 7997 7996 7995 ] final  115.15 input   59.86 | X-H torsion
[ 10167 10162 10161 10158 ] final  162.81 input  -65.29 | X-H torsion
[ 10718 10713 10712 10709 ] final  -75.96 input   66.30 | X-H torsion
[ 10763 10752 10751 10750 ] final -150.07 input  -60.55 | X-H torsion
[ 11005 11000 10999 10996 ] final  -91.76 input  -57.11 | X-H torsion

> <Gold.Protein.ActiveResidues>
 VAL166  LYS551  ARG553  GLY616  TRP617  ASP618  TYR619  PRO620  LYS621  CYS622 
 ASP623  PHE694  ASN695  SER759  ASP760  ASP761  ALA762  ILE779  LEU786  VAL792 
 PHE793  MET794  SER795  GLU796  ALA797  LYS798  CYS799  TRP800  GLU811  SER814 

> <Gold.Protein.RotatedAtoms>
  151.6952  133.3311  159.3252 H   0  0  0  0  0  0  0  0  0  0  0  0  # atno 6907 bound_to 6896
  150.7761  134.6664  159.6377 H   0  0  0  0  0  0  0  0  0  0  0  0  # atno 6908 bound_to 6896
  152.3803  134.6603  160.0197 H   0  0  0  0  0  0  0  0  0  0  0  0  # atno 6909 bound_to 6896
  145.2719  139.2663  143.3962 H   0  0  0  0  0  0  0  0  0  0  0  0  # atno 7974 bound_to 7965
  156.2364  140.2944  156.0324 H   0  0  0  0  0  0  0  0  0  0  0  0  # atno 8008 bound_to 7997
  155.2079  140.0411  157.2945 H   0  0  0  0  0  0  0  0  0  0  0  0  # atno 8009 bound_to 7997
  154.6087  140.2446  155.7705 H   0  0  0  0  0  0  0  0  0  0  0  0  # atno 8010 bound_to 7997
  139.4865  144.4401  151.8963 H   0  0  0  0  0  0  0  0  0  0  0  0  # atno 10167 bound_to 10162
  156.0190  130.4454  150.3122 H   0  0  0  0  0  0  0  0  0  0  0  0  # atno 10718 bound_to 10713
  154.8141  135.3293  154.7226 H   0  0  0  0  0  0  0  0  0  0  0  0  # atno 10763 bound_to 10752
  153.7870  135.6914  153.4882 H   0  0  0  0  0  0  0  0  0  0  0  0  # atno 10764 bound_to 10752
  153.1942  135.4540  155.0134 H   0  0  0  0  0  0  0  0  0  0  0  0  # atno 10765 bound_to 10752
  141.1537  133.7776  156.9924 H   0  0  0  0  0  0  0  0  0  0  0  0  # atno 11005 bound_to 11000
  146.3244  140.3164  142.8630 LP  0  0  0  0  0  0  0  0  0  0  0  0  # atno 17320 bound_to 7965
  144.9328  140.7993  143.5679 LP  0  0  0  0  0  0  0  0  0  0  0  0  # atno 17321 bound_to 7965
  140.3852  144.2686  150.5904 LP  0  0  0  0  0  0  0  0  0  0  0  0  # atno 17342 bound_to 10162
  140.5197  143.2269  151.8408 LP  0  0  0  0  0  0  0  0  0  0  0  0  # atno 17343 bound_to 10162
  157.1224  131.0250  151.3004 LP  0  0  0  0  0  0  0  0  0  0  0  0  # atno 17370 bound_to 10713
  157.4617  130.7657  149.7242 LP  0  0  0  0  0  0  0  0  0  0  0  0  # atno 17371 bound_to 10713
  140.0994  134.9544  157.1899 LP  0  0  0  0  0  0  0  0  0  0  0  0  # atno 17394 bound_to 11000
  140.3339  134.2779  155.7223 LP  0  0  0  0  0  0  0  0  0  0  0  0  # atno 17395 bound_to 11000

$$$$
