AV-unprocessed.smi:2083|AV-procd|sdf|8495|dock7
  -GOLD-   2272011203D 1   1.00000     0.00000
 Structure written by MMmdl.
 45 46  0  0  0  0  0  0  0  0  2 V2000
  151.6408  141.1006  158.2026 C   0  0  0  0  0  0  0  0  0  0  0  0
  151.3814  140.2730  156.9910 C   0  0  0  0  0  0  0  0  0  0  0  0
  150.8420  139.0302  156.8107 C   0  0  0  0  0  0  0  0  0  0  0  0
  150.8968  138.8594  155.4018 C   0  0  0  0  0  0  0  0  0  0  0  0
  150.4246  137.6681  154.7935 N   0  0  0  0  0  0  0  0  0  0  0  0
  149.7873  136.6446  155.3870 C   0  0  0  0  0  0  0  0  0  0  0  0
  149.5260  136.5721  156.5881 O   0  0  0  0  0  0  0  0  0  0  0  0
  149.4670  135.6881  154.5024 N   0  0  0  0  0  0  0  0  0  0  0  0
  148.7400  134.4597  154.8131 C   0  0  0  0  0  0  0  0  0  0  0  0
  148.6102  133.5171  153.5886 C   0  0  1  0  0  0  0  0  0  0  0  0
  148.4394  132.0339  153.9711 C   0  0  0  0  0  0  0  0  0  0  0  0
  147.5347  133.9352  152.6417 N   0  3  1  0  0  0  0  0  0  0  0  0
  147.1917  132.9434  151.5861 C   0  0  0  0  0  0  0  0  0  0  0  0
  146.2749  133.5730  150.5261 C   0  0  0  0  0  0  0  0  0  0  0  0
  145.0070  134.1522  151.1712 C   0  0  0  0  0  0  0  0  0  0  0  0
  145.3528  135.1270  152.3128 C   0  0  2  0  0  0  0  0  0  0  0  0
  145.8805  136.4786  151.8007 C   0  0  0  0  0  0  0  0  0  0  0  0
  146.3194  134.4654  153.3177 C   0  0  0  0  0  0  0  0  0  0  0  0
  151.4204  139.9038  154.7782 N   0  0  0  0  0  0  0  0  0  0  0  0
  151.7341  140.8148  155.7938 O   0  0  0  0  0  0  0  0  0  0  0  0
  151.3013  140.5898  159.1038 H   0  0  0  0  0  0  0  0  0  0  0  0
  151.1187  142.0551  158.1374 H   0  0  0  0  0  0  0  0  0  0  0  0
  152.7063  141.3037  158.3105 H   0  0  0  0  0  0  0  0  0  0  0  0
  150.4704  138.3550  157.5670 H   0  0  0  0  0  0  0  0  0  0  0  0
  150.5805  137.5939  153.7991 H   0  0  0  0  0  0  0  0  0  0  0  0
  149.7222  135.8325  153.5362 H   0  0  0  0  0  0  0  0  0  0  0  0
  149.2182  133.9500  155.6505 H   0  0  0  0  0  0  0  0  0  0  0  0
  147.7528  134.7570  155.1657 H   0  0  0  0  0  0  0  0  0  0  0  0
  149.5495  133.5683  153.0357 H   0  0  0  0  0  0  0  0  0  0  0  0
  149.3293  131.6473  154.4677 H   0  0  0  0  0  0  0  0  0  0  0  0
  148.2750  131.4159  153.0879 H   0  0  0  0  0  0  0  0  0  0  0  0
  147.5986  131.8813  154.6477 H   0  0  0  0  0  0  0  0  0  0  0  0
  148.0941  132.5737  151.1001 H   0  0  0  0  0  0  0  0  0  0  0  0
  146.6915  132.0815  152.0292 H   0  0  0  0  0  0  0  0  0  0  0  0
  146.8131  134.3550  149.9895 H   0  0  0  0  0  0  0  0  0  0  0  0
  146.0016  132.8250  149.7811 H   0  0  0  0  0  0  0  0  0  0  0  0
  144.3899  134.6452  150.4193 H   0  0  0  0  0  0  0  0  0  0  0  0
  144.4057  133.3336  151.5685 H   0  0  0  0  0  0  0  0  0  0  0  0
  144.4260  135.3431  152.8458 H   0  0  0  0  0  0  0  0  0  0  0  0
  146.8276  136.3732  151.2714 H   0  0  0  0  0  0  0  0  0  0  0  0
  146.0408  137.1733  152.6255 H   0  0  0  0  0  0  0  0  0  0  0  0
  145.1687  136.9427  151.1174 H   0  0  0  0  0  0  0  0  0  0  0  0
  145.8070  133.6518  153.8324 H   0  0  0  0  0  0  0  0  0  0  0  0
  146.5986  135.1903  154.0832 H   0  0  0  0  0  0  0  0  0  0  0  0
  147.9226  134.7280  152.1505 H   0  0  0  0  0  0  0  0  0  0  0  0
  1  2  1  0  0  0  0
  1 21  1  0  0  0  0
  1 22  1  0  0  0  0
  1 23  1  0  0  0  0
  2 20  1  0  0  0  0
  2  3  2  0  0  0  0
  3  4  1  0  0  0  0
  3 24  1  0  0  0  0
  4  5  1  0  0  0  0
  4 19  2  0  0  0  0
  5  6  1  0  0  0  0
  5 25  1  0  0  0  0
  6  7  2  0  0  0  0
  6  8  1  0  0  0  0
  8  9  1  0  0  0  0
  8 26  1  0  0  0  0
  9 10  1  0  0  0  0
  9 27  1  0  0  0  0
  9 28  1  0  0  0  0
 10 11  1  0  0  0  0
 10 12  1  0  0  0  0
 10 29  1  0  0  0  0
 11 30  1  0  0  0  0
 11 31  1  0  0  0  0
 11 32  1  0  0  0  0
 12 18  1  0  0  0  0
 12 13  1  0  0  0  0
 12 45  1  0  0  0  0
 13 14  1  0  0  0  0
 13 33  1  0  0  0  0
 13 34  1  0  0  0  0
 14 15  1  0  0  0  0
 14 35  1  0  0  0  0
 14 36  1  0  0  0  0
 15 16  1  0  0  0  0
 15 37  1  0  0  0  0
 15 38  1  0  0  0  0
 16 17  1  0  0  0  0
 16 18  1  0  0  0  0
 16 39  1  0  0  0  0
 17 40  1  0  0  0  0
 17 41  1  0  0  0  0
 17 42  1  0  0  0  0
 18 43  1  0  0  0  0
 18 44  1  0  0  0  0
 19 20  1  0  0  0  0
M  CHG  1  12   1
M  END
> <s_m_source_file>
AV-unprocessed.smi

> <i_m_source_file_index>
2083

> <i_lp_mmshare_version>
43012

> <i_f3d_flags>
0

> <s_epik_input>
W0NIM11jMVtjSF1jKG5vMSlbTkhdQyg9TylbTkhdW0NIMl1bQ0BIXShbQ0gzXSlOMltDSDJdW0NIMl1bQ0gyXVtDQEBIXShbQ0gzXSlbQ0gyXTI=

> <s_epik_cmdline>
J2VwaWtfcHl0aG9uJywgJy1waCcsICc3LjAnLCAnLXRuJywgJzgnLCAnLW1hJywgJzIwMCcsICctbWV0YWxfYmluZGluZycsICctaW1hZScsICc8aW5maWxlLm1hZT4nLCAnLW9tYWUnLCAnPG91dGZpbGUubWFlPic=

> <r_epik_Ionization_Penalty>
0.00216453

> <r_epik_Ionization_Penalty_Charging>
0.00212879

> <r_epik_Ionization_Penalty_Neutral>
3.57418e-05

> <r_epik_State_Penalty>
0.00146033

> <r_epik_Charging_Adjusted_Penalty>
0.00358912

> <i_epik_Tot_Q>
1

> <i_epik_Tot_abs_Q>
1

> <r_epik_Metal_State_Penalty>
0.0215827

> <b_epik_Metal_Only>
0

> <s_lp_Force_Field>
OPLS_2005

> <r_lp_Energy>
20.2755

> <b_lp_Chiralities_Consistent>
1

> <s_lp_Variant>
AV-unprocessed.smi:2083-6

> <Gold.Version>
5.8.1

> <Gold.Id.Protein>
6NUR|6NUR_protein|mol2

> <Gold.PLP.Fitness>
38.8408

> <Gold.PLP.PLP>
-28.0282

> <Gold.PLP.part.hbond>
-4.0000

> <Gold.PLP.part.metal>
0.0000

> <Gold.PLP.part.buried>
-0.5324

> <Gold.PLP.part.nonpolar>
-22.2373

> <Gold.PLP.part.repulsive>
0.1962

> <Gold.PLP.ligand.clash>
0.0000

> <Gold.PLP.ligand.torsion>
0.6543

> <Gold.PLP.Chemscore.Hbond>
4.0000

> <Gold.PLP.Chemscore.CHOScore>
0.0000

> <Gold.PLP.Chemscore.Metal>
0.0000

> <Gold.Chemscore.Hbonds>
donor molecule, donor type, donor heavy atom, donor atom, acceptor molecule, acceptor atom, score
      L1  H     8    26       P1  7948  0.69
      L1  H    12    45       P1  7948  2.00
      P1  H  7989  7998       L1    19  0.95

> <Gold.PLP.Chemscore.Internal.Correction>
0.1212

> <Gold.Rescore>
     Score         DG    S(hbond)    S(metal)    S(lipo)     H(rot)  DE(clash)    DE(int)     intcor
     14.18     -16.30       2.50        0.00      54.83       1.55       0.03       2.09       ----

> <Gold.Chemscore.Fitness>
14.1817

> <Gold.Chemscore.DG>
-16.2961

> <Gold.Chemscore.ZeroCoef>
-5.4800

> <Gold.Chemscore.Hbond>
2.5038

> <Gold.Chemscore.Metal>
0.0000

> <Gold.Chemscore.Lipo>
54.8265

> <Gold.Chemscore.Internal_Hbond>
0.0000

> <Gold.Chemscore.DEClash>
0.0270

> <Gold.Chemscore.DEInternal>
2.0874

> <Gold.Chemscore.Rot>
1.5474

> <Gold.Chemscore.Internal.Correction>
   9.000000E+99

> <Gold.Chemscore.Hbonds>
donor molecule, donor type, donor heavy atom, donor atom, acceptor molecule, acceptor atom, score
      L1  H     8    26       P1  7948  0.10
      L1  H    12    45       P1  7948  0.45
      P1  H  7989  7998       L1    19  0.21

> <Gold.Chemscore.Hbond.Weighted>
-8.3626

> <Gold.Chemscore.Metal.Weighted>
-0.0000

> <Gold.Chemscore.Lipo.Weighted>
-6.4147

> <Gold.Chemscore.Internal_Hbond.Weighted>
0.0000

> <Gold.Chemscore.DEClash.Weighted>
0.0270

> <Gold.Chemscore.DEInternal.Weighted>
2.0874

> <Gold.Chemscore.Rot.Weighted>
3.9612

> <Gold.Chemscore.Internal.Correction.Weighted>
   9.000000E+99

> <Gold.Protein.RotatedTorsions>
[ 6907 6896 6895 6894 ] final    9.34 input  -60.11 | X-H torsion
[ 7974 7965 7964 7962 ] final  -55.47 input  175.53 | X-H torsion
[ 8008 7997 7996 7995 ] final  145.90 input   59.86 | X-H torsion
[ 10167 10162 10161 10158 ] final  -67.37 input  -65.29 | X-H torsion
[ 10718 10713 10712 10709 ] final  -70.04 input   66.30 | X-H torsion
[ 10763 10752 10751 10750 ] final -160.41 input  -60.55 | X-H torsion
[ 11005 11000 10999 10996 ] final  -11.01 input  -57.11 | X-H torsion

> <Gold.Protein.ActiveResidues>
 VAL166  LYS551  ARG553  GLY616  TRP617  ASP618  TYR619  PRO620  LYS621  CYS622 
 ASP623  PHE694  ASN695  SER759  ASP760  ASP761  ALA762  ILE779  LEU786  VAL792 
 PHE793  MET794  SER795  GLU796  ALA797  LYS798  CYS799  TRP800  GLU811  SER814 

> <Gold.Protein.RotatedAtoms>
  151.7206  135.0895  160.0283 H   0  0  0  0  0  0  0  0  0  0  0  0  # atno 6907 bound_to 6896
  152.3604  133.6286  159.6019 H   0  0  0  0  0  0  0  0  0  0  0  0  # atno 6908 bound_to 6896
  150.7600  133.9348  159.3479 H   0  0  0  0  0  0  0  0  0  0  0  0  # atno 6909 bound_to 6896
  145.8738  140.8196  142.9874 H   0  0  0  0  0  0  0  0  0  0  0  0  # atno 7974 bound_to 7965
  156.2870  140.2197  156.5290 H   0  0  0  0  0  0  0  0  0  0  0  0  # atno 8008 bound_to 7997
  154.7465  140.0483  157.0878 H   0  0  0  0  0  0  0  0  0  0  0  0  # atno 8009 bound_to 7997
  155.0164  140.3119  155.4813 H   0  0  0  0  0  0  0  0  0  0  0  0  # atno 8010 bound_to 7997
  140.5588  143.2312  151.6769 H   0  0  0  0  0  0  0  0  0  0  0  0  # atno 10167 bound_to 10162
  156.0426  130.4324  150.2237 H   0  0  0  0  0  0  0  0  0  0  0  0  # atno 10718 bound_to 10713
  154.7393  135.3065  154.8757 H   0  0  0  0  0  0  0  0  0  0  0  0  # atno 10763 bound_to 10752
  153.9576  135.6756  153.4749 H   0  0  0  0  0  0  0  0  0  0  0  0  # atno 10764 bound_to 10752
  153.0993  135.4920  154.8761 H   0  0  0  0  0  0  0  0  0  0  0  0  # atno 10765 bound_to 10752
  140.7507  133.8594  155.9043 H   0  0  0  0  0  0  0  0  0  0  0  0  # atno 11005 bound_to 11000
  144.6726  140.1279  143.7445 LP  0  0  0  0  0  0  0  0  0  0  0  0  # atno 17320 bound_to 7965
  145.9105  139.2484  143.1440 LP  0  0  0  0  0  0  0  0  0  0  0  0  # atno 17321 bound_to 7965
  139.5060  144.3697  152.0482 LP  0  0  0  0  0  0  0  0  0  0  0  0  # atno 17342 bound_to 10162
  140.2821  144.3848  150.6115 LP  0  0  0  0  0  0  0  0  0  0  0  0  # atno 17343 bound_to 10162
  157.0331  131.0013  151.3306 LP  0  0  0  0  0  0  0  0  0  0  0  0  # atno 17370 bound_to 10713
  157.5263  130.8030  149.7866 LP  0  0  0  0  0  0  0  0  0  0  0  0  # atno 17371 bound_to 10713
  140.9753  134.1477  157.4541 LP  0  0  0  0  0  0  0  0  0  0  0  0  # atno 17394 bound_to 11000
  139.8788  134.9992  156.5944 LP  0  0  0  0  0  0  0  0  0  0  0  0  # atno 17395 bound_to 11000

$$$$
