AV-unprocessed.smi:3301|AV-procd|sdf|12652|dock2
  -GOLD-   2272018583D 1   1.00000     0.00000
 Structure written by MMmdl.
 37 38  0  0  0  0  0  0  0  0  2 V2000
  151.2019  140.1764  155.7450 C   0  0  0  0  0  0  0  0  0  0  0  0
  150.0376  141.1758  155.7341 C   0  0  2  0  0  0  0  0  0  0  0  0
  149.4769  141.3655  154.3072 C   0  0  0  0  0  0  0  0  0  0  0  0
  148.0110  141.4054  154.2622 N   0  0  0  0  0  0  0  0  0  0  0  0
  147.1751  142.1516  155.0526 C   0  0  0  0  0  0  0  0  0  0  0  0
  145.8959  141.8513  154.6620 C   0  0  0  0  0  0  0  0  0  0  0  0
  146.0051  140.9420  153.6443 N   0  3  0  0  0  0  0  0  0  0  0  0
  147.2922  140.6772  153.3979 C   0  0  0  0  0  0  0  0  0  0  0  0
  150.4982  142.4477  156.2907 N   0  0  0  0  0  0  0  0  0  0  0  0
  151.2754  142.5911  157.3760 C   0  0  0  0  0  0  0  0  0  0  0  0
  151.7156  141.6397  158.0230 O   0  0  0  0  0  0  0  0  0  0  0  0
  151.6070  144.0308  157.7864 C   0  0  0  0  0  0  0  0  0  0  0  0
  151.5904  144.2213  159.2376 N   0  0  0  0  0  0  0  0  0  0  0  0
  150.7721  145.2613  159.8391 C   0  0  0  0  0  0  0  0  0  0  0  0
  150.9213  145.0685  161.3558 C   0  0  0  0  0  0  0  0  0  0  0  0
  152.0387  144.0368  161.5459 C   0  0  0  0  0  0  0  0  0  0  0  0
  152.3025  143.5321  160.1381 C   0  0  0  0  0  0  0  0  0  0  0  0
  153.0818  142.6116  159.8948 O   0  0  0  0  0  0  0  0  0  0  0  0
  150.8870  139.2038  155.3659 H   0  0  0  0  0  0  0  0  0  0  0  0
  151.5823  140.0265  156.7560 H   0  0  0  0  0  0  0  0  0  0  0  0
  152.0302  140.5221  155.1254 H   0  0  0  0  0  0  0  0  0  0  0  0
  149.2536  140.7593  156.3690 H   0  0  0  0  0  0  0  0  0  0  0  0
  149.8545  142.2881  153.8635 H   0  0  0  0  0  0  0  0  0  0  0  0
  149.7994  140.5489  153.6597 H   0  0  0  0  0  0  0  0  0  0  0  0
  147.5411  142.8150  155.8231 H   0  0  0  0  0  0  0  0  0  0  0  0
  144.9421  142.2061  155.0242 H   0  0  0  0  0  0  0  0  0  0  0  0
  147.6749  139.9977  152.6572 H   0  0  0  0  0  0  0  0  0  0  0  0
  150.1924  143.2861  155.8179 H   0  0  0  0  0  0  0  0  0  0  0  0
  152.5925  144.2833  157.3936 H   0  0  0  0  0  0  0  0  0  0  0  0
  150.9016  144.7241  157.3247 H   0  0  0  0  0  0  0  0  0  0  0  0
  151.1413  146.2396  159.5283 H   0  0  0  0  0  0  0  0  0  0  0  0
  149.7313  145.1734  159.5247 H   0  0  0  0  0  0  0  0  0  0  0  0
  151.1532  146.0100  161.8553 H   0  0  0  0  0  0  0  0  0  0  0  0
  149.9897  144.6939  161.7819 H   0  0  0  0  0  0  0  0  0  0  0  0
  152.9432  144.4959  161.9458 H   0  0  0  0  0  0  0  0  0  0  0  0
  151.7372  143.2227  162.2059 H   0  0  0  0  0  0  0  0  0  0  0  0
  145.2259  140.5266  153.1493 H   0  0  0  0  0  0  0  0  0  0  0  0
  1  2  1  0  0  0  0
  1 19  1  0  0  0  0
  1 20  1  0  0  0  0
  1 21  1  0  0  0  0
  2  3  1  0  0  0  0
  2  9  1  0  0  0  0
  2 22  1  0  0  0  0
  3  4  1  0  0  0  0
  3 23  1  0  0  0  0
  3 24  1  0  0  0  0
  4  8  1  0  0  0  0
  4  5  1  0  0  0  0
  5  6  2  0  0  0  0
  5 25  1  0  0  0  0
  6  7  1  0  0  0  0
  6 26  1  0  0  0  0
  7  8  2  0  0  0  0
  7 37  1  0  0  0  0
  8 27  1  0  0  0  0
  9 10  1  0  0  0  0
  9 28  1  0  0  0  0
 10 11  2  0  0  0  0
 10 12  1  0  0  0  0
 12 13  1  0  0  0  0
 12 29  1  0  0  0  0
 12 30  1  0  0  0  0
 13 17  1  0  0  0  0
 13 14  1  0  0  0  0
 14 15  1  0  0  0  0
 14 31  1  0  0  0  0
 14 32  1  0  0  0  0
 15 16  1  0  0  0  0
 15 33  1  0  0  0  0
 15 34  1  0  0  0  0
 16 17  1  0  0  0  0
 16 35  1  0  0  0  0
 16 36  1  0  0  0  0
 17 18  2  0  0  0  0
M  CHG  1   7   1
M  END
> <s_m_source_file>
AV-unprocessed.smi

> <i_m_source_file_index>
3301

> <i_lp_mmshare_version>
43012

> <i_f3d_flags>
0

> <s_epik_input>
W2NIXTFuW2NIXVtjSF1uMVtDSDJdW0NAQEhdKFtDSDNdKVtOSF1DKD1PKVtDSDJdTjJbQ0gyXVtDSDJdW0NIMl1DMj1P

> <s_epik_cmdline>
J2VwaWtfcHl0aG9uJywgJy1waCcsICc3LjAnLCAnLXRuJywgJzgnLCAnLW1hJywgJzIwMCcsICctbWV0YWxfYmluZGluZycsICctaW1hZScsICc8aW5maWxlLm1hZT4nLCAnLW9tYWUnLCAnPG91dGZpbGUubWFlPic=

> <r_lp_tautomer_probability>
1

> <r_epik_Ionization_Penalty>
0.254232

> <r_epik_Ionization_Penalty_Charging>
0

> <r_epik_Ionization_Penalty_Neutral>
0.254232

> <r_epik_State_Penalty>
0.245698

> <r_epik_Charging_Adjusted_Penalty>
0.245698

> <i_epik_Tot_Q>
1

> <i_epik_Tot_abs_Q>
1

> <r_epik_Metal_State_Penalty>
0.5358

> <b_epik_Metal_Only>
0

> <s_lp_Force_Field>
OPLS_2005

> <r_lp_Energy>
13.6599

> <b_lp_Chiralities_Consistent>
1

> <s_lp_Variant>
AV-unprocessed.smi:3301-1

> <Gold.Version>
5.8.1

> <Gold.Id.Protein>
6NUR|6NUR_protein|mol2

> <Gold.PLP.Fitness>
52.9037

> <Gold.PLP.PLP>
-40.3610

> <Gold.PLP.part.hbond>
-2.0000

> <Gold.PLP.part.metal>
0.0000

> <Gold.PLP.part.buried>
1.1883

> <Gold.PLP.part.nonpolar>
-39.5261

> <Gold.PLP.part.repulsive>
0.1029

> <Gold.PLP.ligand.clash>
0.0000

> <Gold.PLP.ligand.torsion>
1.2276

> <Gold.PLP.Chemscore.Hbond>
3.0000

> <Gold.PLP.Chemscore.CHOScore>
1.9859

> <Gold.PLP.Chemscore.Metal>
0.0000

> <Gold.Chemscore.Hbonds>
donor molecule, donor type, donor heavy atom, donor atom, acceptor molecule, acceptor atom, score
      L1  H     7    37       P1 10175  2.00
      L1  H     9    28       P1  8028  0.99
      L1  C     5    25       P1  8028  1.00
      L1  C     8    27       P1  7957  1.00

> <Gold.PLP.Chemscore.Internal.Correction>
0.0400

> <Gold.Rescore>
     Score         DG    S(hbond)    S(metal)    S(lipo)     H(rot)  DE(clash)    DE(int)     intcor
      8.50     -14.80       1.92        0.00      76.28       2.35       1.34       4.96       ----

> <Gold.Chemscore.Fitness>
8.4957

> <Gold.Chemscore.DG>
-14.8040

> <Gold.Chemscore.ZeroCoef>
-5.4800

> <Gold.Chemscore.Hbond>
1.9185

> <Gold.Chemscore.Metal>
0.0000

> <Gold.Chemscore.Lipo>
76.2788

> <Gold.Chemscore.Internal_Hbond>
0.0000

> <Gold.Chemscore.DEClash>
1.3443

> <Gold.Chemscore.DEInternal>
4.9639

> <Gold.Chemscore.Rot>
2.3470

> <Gold.Chemscore.Internal.Correction>
   9.000000E+99

> <Gold.Chemscore.Hbonds>
donor molecule, donor type, donor heavy atom, donor atom, acceptor molecule, acceptor atom, score
      L1  H     7    37       P1 10175  0.91
      L1  H     9    28       P1  8028  0.93

> <Gold.Chemscore.Hbond.Weighted>
-6.4077

> <Gold.Chemscore.Metal.Weighted>
-0.0000

> <Gold.Chemscore.Lipo.Weighted>
-8.9246

> <Gold.Chemscore.Internal_Hbond.Weighted>
0.0000

> <Gold.Chemscore.DEClash.Weighted>
1.3443

> <Gold.Chemscore.DEInternal.Weighted>
4.9639

> <Gold.Chemscore.Rot.Weighted>
6.0083

> <Gold.Chemscore.Internal.Correction.Weighted>
   9.000000E+99

> <Gold.Protein.RotatedTorsions>
[ 6907 6896 6895 6894 ] final  175.11 input  -60.11 | X-H torsion
[ 7974 7965 7964 7962 ] final  109.82 input  175.53 | X-H torsion
[ 8008 7997 7996 7995 ] final   97.67 input   59.86 | X-H torsion
[ 10167 10162 10161 10158 ] final  176.40 input  -65.29 | X-H torsion
[ 10718 10713 10712 10709 ] final   72.76 input   66.30 | X-H torsion
[ 10763 10752 10751 10750 ] final   32.34 input  -60.55 | X-H torsion
[ 11005 11000 10999 10996 ] final   49.86 input  -57.11 | X-H torsion

> <Gold.Protein.ActiveResidues>
 VAL166  LYS551  ARG553  GLY616  TRP617  ASP618  TYR619  PRO620  LYS621  CYS622 
 ASP623  PHE694  ASN695  SER759  ASP760  ASP761  ALA762  ILE779  LEU786  VAL792 
 PHE793  MET794  SER795  GLU796  ALA797  LYS798  CYS799  TRP800  GLU811  SER814 

> <Gold.Protein.RotatedAtoms>
  151.7416  133.3322  159.3366 H   0  0  0  0  0  0  0  0  0  0  0  0  # atno 6907 bound_to 6896
  150.7571  134.6273  159.6177 H   0  0  0  0  0  0  0  0  0  0  0  0  # atno 6908 bound_to 6896
  152.3527  134.6985  160.0283 H   0  0  0  0  0  0  0  0  0  0  0  0  # atno 6909 bound_to 6896
  145.2629  139.2695  143.4007 H   0  0  0  0  0  0  0  0  0  0  0  0  # atno 7974 bound_to 7965
  156.0926  140.3255  155.7835 H   0  0  0  0  0  0  0  0  0  0  0  0  # atno 8008 bound_to 7997
  155.4971  140.0566  157.2962 H   0  0  0  0  0  0  0  0  0  0  0  0  # atno 8009 bound_to 7997
  154.4647  140.1983  156.0167 H   0  0  0  0  0  0  0  0  0  0  0  0  # atno 8010 bound_to 7997
  139.5213  144.2919  152.0456 H   0  0  0  0  0  0  0  0  0  0  0  0  # atno 10167 bound_to 10162
  157.6516  130.9595  150.0974 H   0  0  0  0  0  0  0  0  0  0  0  0  # atno 10718 bound_to 10713
  153.0267  135.6415  154.1340 H   0  0  0  0  0  0  0  0  0  0  0  0  # atno 10763 bound_to 10752
  154.1068  135.2855  155.3241 H   0  0  0  0  0  0  0  0  0  0  0  0  # atno 10764 bound_to 10752
  154.6360  135.5476  153.7797 H   0  0  0  0  0  0  0  0  0  0  0  0  # atno 10765 bound_to 10752
  140.1067  134.5009  155.8714 H   0  0  0  0  0  0  0  0  0  0  0  0  # atno 11005 bound_to 11000
  146.3270  140.3051  142.8623 LP  0  0  0  0  0  0  0  0  0  0  0  0  # atno 17320 bound_to 7965
  144.9402  140.8070  143.5635 LP  0  0  0  0  0  0  0  0  0  0  0  0  # atno 17321 bound_to 7965
  140.2370  144.4309  150.6276 LP  0  0  0  0  0  0  0  0  0  0  0  0  # atno 17342 bound_to 10162
  140.6316  143.2188  151.6482 LP  0  0  0  0  0  0  0  0  0  0  0  0  # atno 17343 bound_to 10162
  156.1906  130.3654  149.8915 LP  0  0  0  0  0  0  0  0  0  0  0  0  # atno 17370 bound_to 10713
  156.6844  130.8871  151.3580 LP  0  0  0  0  0  0  0  0  0  0  0  0  # atno 17371 bound_to 10713
  141.2120  133.6713  156.6624 LP  0  0  0  0  0  0  0  0  0  0  0  0  # atno 17394 bound_to 11000
  140.3147  134.8057  157.4204 LP  0  0  0  0  0  0  0  0  0  0  0  0  # atno 17395 bound_to 11000

$$$$
