AV-unprocessed.smi:2924|AV-procd|sdf|11221|dock5
  -GOLD-   2272016113D 1   1.00000     0.00000
 Structure written by MMmdl.
 29 31  0  0  0  0  0  0  0  0  1 V2000
  153.1253  138.6394  155.7862 N   0  0  0  0  0  0  0  0  0  0  0  0
  152.1554  139.2656  155.7102 C   0  0  0  0  0  0  0  0  0  0  0  0
  150.9335  140.0550  155.6148 C   0  0  0  0  0  0  0  0  0  0  0  0
  149.9601  139.6934  154.6597 C   0  0  0  0  0  0  0  0  0  0  0  0
  148.7781  140.4498  154.5645 C   0  0  0  0  0  0  0  0  0  0  0  0
  148.6164  141.5445  155.4328 C   0  0  0  0  0  0  0  0  0  0  0  0
  149.5389  141.9013  156.3502 N   0  0  0  0  0  0  0  0  0  0  0  0
  150.6801  141.1762  156.4502 C   0  0  0  0  0  0  0  0  0  0  0  0
  151.6235  141.5742  157.4154 N   0  0  0  0  0  0  0  0  0  0  0  0
  151.2923  142.5472  158.4514 C   0  0  1  0  0  0  0  0  0  0  0  0
  152.2850  142.5422  159.6214 C   0  0  0  0  0  0  0  0  0  0  0  0
  152.7460  144.0046  159.6527 C   0  0  2  0  0  0  0  0  0  0  0  0
  151.6319  144.9564  160.1091 C   0  0  0  0  0  0  0  0  0  0  0  0
  150.7166  144.9751  158.8853 C   0  0  0  0  0  0  0  0  0  0  0  0
  151.4269  143.9928  157.9439 C   0  0  1  0  0  0  0  0  0  0  0  0
  152.7781  144.2828  158.2642 O   0  0  0  0  0  0  0  0  0  0  0  0
  150.1124  138.8467  154.0056 H   0  0  0  0  0  0  0  0  0  0  0  0
  148.0143  140.1972  153.8439 H   0  0  0  0  0  0  0  0  0  0  0  0
  147.7234  142.1501  155.3901 H   0  0  0  0  0  0  0  0  0  0  0  0
  152.4710  141.0356  157.5248 H   0  0  0  0  0  0  0  0  0  0  0  0
  150.2711  142.3732  158.7930 H   0  0  0  0  0  0  0  0  0  0  0  0
  151.8260  142.2296  160.5596 H   0  0  0  0  0  0  0  0  0  0  0  0
  153.1344  141.8856  159.4268 H   0  0  0  0  0  0  0  0  0  0  0  0
  153.6967  144.1570  160.1637 H   0  0  0  0  0  0  0  0  0  0  0  0
  151.1295  144.6017  161.0095 H   0  0  0  0  0  0  0  0  0  0  0  0
  152.0264  145.9538  160.3066 H   0  0  0  0  0  0  0  0  0  0  0  0
  149.6949  144.6710  159.1145 H   0  0  0  0  0  0  0  0  0  0  0  0
  150.6853  145.9735  158.4478 H   0  0  0  0  0  0  0  0  0  0  0  0
  151.1672  144.1317  156.8937 H   0  0  0  0  0  0  0  0  0  0  0  0
  1  2  3  0  0  0  0
  2  3  1  0  0  0  0
  3  8  1  0  0  0  0
  3  4  2  0  0  0  0
  4  5  1  0  0  0  0
  4 17  1  0  0  0  0
  5  6  2  0  0  0  0
  5 18  1  0  0  0  0
  6  7  1  0  0  0  0
  6 19  1  0  0  0  0
  7  8  2  0  0  0  0
  8  9  1  0  0  0  0
  9 10  1  0  0  0  0
  9 20  1  0  0  0  0
 10 15  1  0  0  0  0
 10 11  1  0  0  0  0
 10 21  1  0  0  0  0
 11 12  1  0  0  0  0
 11 22  1  0  0  0  0
 11 23  1  0  0  0  0
 12 16  1  0  0  0  0
 12 13  1  0  0  0  0
 12 24  1  0  0  0  0
 13 14  1  0  0  0  0
 13 25  1  0  0  0  0
 13 26  1  0  0  0  0
 14 15  1  0  0  0  0
 14 27  1  0  0  0  0
 14 28  1  0  0  0  0
 15 16  1  0  0  0  0
 15 29  1  0  0  0  0
M  END
> <s_m_source_file>
AV-unprocessed.smi

> <i_m_source_file_index>
2924

> <i_lp_mmshare_version>
43012

> <i_f3d_flags>
0

> <s_epik_input>
TiNDYzFbY0hdW2NIXVtjSF1uYzFbTkhdW0NASF0oW0NIMl1bQ0BASF0yMylbQ0BASF0oTzMpW0NIMl1bQ0gyXTI=

> <s_epik_cmdline>
J2VwaWtfcHl0aG9uJywgJy1waCcsICc3LjAnLCAnLXRuJywgJzgnLCAnLW1hJywgJzIwMCcsICctbWV0YWxfYmluZGluZycsICctaW1hZScsICc8aW5maWxlLm1hZT4nLCAnLW9tYWUnLCAnPG91dGZpbGUubWFlPic=

> <r_lp_tautomer_probability>
1

> <r_epik_Ionization_Penalty>
2.11559e-05

> <r_epik_Ionization_Penalty_Charging>
0

> <r_epik_Ionization_Penalty_Neutral>
2.11559e-05

> <r_epik_State_Penalty>
-0

> <r_epik_Charging_Adjusted_Penalty>
0

> <i_epik_Tot_Q>
0

> <i_epik_Tot_abs_Q>
0

> <r_epik_Metal_State_Penalty>
-0

> <b_epik_Metal_Only>
0

> <s_lp_Force_Field>
OPLS_2005

> <r_lp_Energy>
42.1946

> <b_lp_Chiralities_Consistent>
1

> <s_lp_Variant>
AV-unprocessed.smi:2924-4

> <Gold.Version>
5.8.1

> <Gold.Id.Protein>
6NUR|6NUR_protein|mol2

> <Gold.PLP.Fitness>
39.3784

> <Gold.PLP.PLP>
-36.2799

> <Gold.PLP.part.hbond>
-1.0000

> <Gold.PLP.part.metal>
0.0000

> <Gold.PLP.part.buried>
-1.7906

> <Gold.PLP.part.nonpolar>
-34.4940

> <Gold.PLP.part.repulsive>
1.8586

> <Gold.PLP.ligand.clash>
0.0000

> <Gold.PLP.ligand.torsion>
0.3063

> <Gold.PLP.Chemscore.Hbond>
0.9500

> <Gold.PLP.Chemscore.CHOScore>
0.2805

> <Gold.PLP.Chemscore.Metal>
0.0000

> <Gold.Chemscore.Hbonds>
donor molecule, donor type, donor heavy atom, donor atom, acceptor molecule, acceptor atom, score
      P1  H  7997  8010       L1     1  0.89
      L1  C     6    19       P1  8028  0.12

> <Gold.PLP.Chemscore.Internal.Correction>
0.0197

> <Gold.Rescore>
     Score         DG    S(hbond)    S(metal)    S(lipo)     H(rot)  DE(clash)    DE(int)     intcor
     15.83     -16.42       0.82        0.00      91.99       1.00       0.23       0.36       ----

> <Gold.Chemscore.Fitness>
15.8297

> <Gold.Chemscore.DG>
-16.4224

> <Gold.Chemscore.ZeroCoef>
-5.4800

> <Gold.Chemscore.Hbond>
0.8203

> <Gold.Chemscore.Metal>
0.0000

> <Gold.Chemscore.Lipo>
91.9883

> <Gold.Chemscore.Internal_Hbond>
0.0000

> <Gold.Chemscore.DEClash>
0.2319

> <Gold.Chemscore.DEInternal>
0.3608

> <Gold.Chemscore.Rot>
1.0000

> <Gold.Chemscore.Internal.Correction>
   9.000000E+99

> <Gold.Chemscore.Hbonds>
donor molecule, donor type, donor heavy atom, donor atom, acceptor molecule, acceptor atom, score
      P1  H  7997  8010       L1     1  0.16

> <Gold.Chemscore.Hbond.Weighted>
-2.7397

> <Gold.Chemscore.Metal.Weighted>
-0.0000

> <Gold.Chemscore.Lipo.Weighted>
-10.7626

> <Gold.Chemscore.Internal_Hbond.Weighted>
0.0000

> <Gold.Chemscore.DEClash.Weighted>
0.2319

> <Gold.Chemscore.DEInternal.Weighted>
0.3608

> <Gold.Chemscore.Rot.Weighted>
2.5600

> <Gold.Chemscore.Internal.Correction.Weighted>
   9.000000E+99

> <Gold.Protein.RotatedTorsions>
[ 6907 6896 6895 6894 ] final  -24.56 input  -60.11 | X-H torsion
[ 7974 7965 7964 7962 ] final   77.48 input  175.53 | X-H torsion
[ 8008 7997 7996 7995 ] final   94.60 input   59.86 | X-H torsion
[ 10167 10162 10161 10158 ] final -133.57 input  -65.29 | X-H torsion
[ 10718 10713 10712 10709 ] final -121.17 input   66.30 | X-H torsion
[ 10763 10752 10751 10750 ] final   62.53 input  -60.55 | X-H torsion
[ 11005 11000 10999 10996 ] final -140.05 input  -57.11 | X-H torsion

> <Gold.Protein.ActiveResidues>
 VAL166  LYS551  ARG553  GLY616  TRP617  ASP618  TYR619  PRO620  LYS621  CYS622 
 ASP623  PHE694  ASN695  SER759  ASP760  ASP761  ALA762  ILE779  LEU786  VAL792 
 PHE793  MET794  SER795  GLU796  ALA797  LYS798  CYS799  TRP800  GLU811  SER814 

> <Gold.Protein.RotatedAtoms>
  151.1877  135.0389  159.8819 H   0  0  0  0  0  0  0  0  0  0  0  0  # atno 6907 bound_to 6896
  152.5441  134.0991  159.8320 H   0  0  0  0  0  0  0  0  0  0  0  0  # atno 6908 bound_to 6896
  151.1116  133.5122  159.2637 H   0  0  0  0  0  0  0  0  0  0  0  0  # atno 6909 bound_to 6896
  145.6895  139.2548  143.1768 H   0  0  0  0  0  0  0  0  0  0  0  0  # atno 7974 bound_to 7965
  156.0597  140.3298  155.7447 H   0  0  0  0  0  0  0  0  0  0  0  0  # atno 8008 bound_to 7997
  155.5474  140.0607  157.2874 H   0  0  0  0  0  0  0  0  0  0  0  0  # atno 8009 bound_to 7997
  154.4475  140.1900  156.0640 H   0  0  0  0  0  0  0  0  0  0  0  0  # atno 8010 bound_to 7997
  139.8969  143.6655  152.2602 H   0  0  0  0  0  0  0  0  0  0  0  0  # atno 10167 bound_to 10162
  156.1316  130.6399  150.9630 H   0  0  0  0  0  0  0  0  0  0  0  0  # atno 10718 bound_to 10713
  152.9986  135.5461  154.6208 H   0  0  0  0  0  0  0  0  0  0  0  0  # atno 10763 bound_to 10752
  154.5508  135.2826  155.1012 H   0  0  0  0  0  0  0  0  0  0  0  0  # atno 10764 bound_to 10752
  154.2253  135.6443  153.5210 H   0  0  0  0  0  0  0  0  0  0  0  0  # atno 10765 bound_to 10752
  140.8460  134.2344  157.4785 H   0  0  0  0  0  0  0  0  0  0  0  0  # atno 11005 bound_to 11000
  146.0894  140.7673  142.9602 LP  0  0  0  0  0  0  0  0  0  0  0  0  # atno 17320 bound_to 7965
  144.7001  140.3614  143.7163 LP  0  0  0  0  0  0  0  0  0  0  0  0  # atno 17321 bound_to 7965
  139.7060  144.7628  151.1192 LP  0  0  0  0  0  0  0  0  0  0  0  0  # atno 17342 bound_to 10162
  140.7715  143.5394  150.9330 LP  0  0  0  0  0  0  0  0  0  0  0  0  # atno 17343 bound_to 10162
  157.6493  131.0899  150.8085 LP  0  0  0  0  0  0  0  0  0  0  0  0  # atno 17370 bound_to 10713
  156.8169  130.4971  149.5348 LP  0  0  0  0  0  0  0  0  0  0  0  0  # atno 17371 bound_to 10713
  139.8703  134.9659  156.4546 LP  0  0  0  0  0  0  0  0  0  0  0  0  # atno 17394 bound_to 11000
  140.8843  133.7895  155.9500 LP  0  0  0  0  0  0  0  0  0  0  0  0  # atno 17395 bound_to 11000

$$$$
