AV-unprocessed.smi:886|AV-procd|sdf|4051|dock2
  -GOLD-   22720 1533D 1   1.00000     0.00000
 Structure written by MMmdl.
 35 37  0  0  0  0  0  0  0  0  1 V2000
  154.8315  140.1363  161.7989 C   0  0  0  0  0  0  0  0  0  0  0  0
  153.9669  141.0440  161.0611 N   0  0  0  0  0  0  0  0  0  0  0  0
  153.5399  140.8282  159.8073 C   0  0  0  0  0  0  0  0  0  0  0  0
  153.8567  139.8374  159.1477 O   0  0  0  0  0  0  0  0  0  0  0  0
  152.6611  141.9101  159.2326 C   0  0  0  0  0  0  0  0  0  0  0  0
  152.5924  143.1673  159.8783 C   0  0  0  0  0  0  0  0  0  0  0  0
  151.7538  144.1703  159.3609 C   0  0  0  0  0  0  0  0  0  0  0  0
  151.0014  143.8791  158.2106 C   0  0  0  0  0  0  0  0  0  0  0  0
  151.0466  142.6865  157.5841 N   0  0  0  0  0  0  0  0  0  0  0  0
  151.8510  141.7128  158.0765 C   0  0  0  0  0  0  0  0  0  0  0  0
  151.8780  140.4939  157.3758 N   0  0  0  0  0  0  0  0  0  0  0  0
  151.6798  140.4656  155.9296 C   0  0  1  0  0  0  0  0  0  0  0  0
  151.9223  139.0807  155.3243 C   0  0  0  0  0  0  0  0  0  0  0  0
  150.6088  138.8300  154.5709 C   0  0  1  0  0  0  0  0  0  0  0  0
  149.4617  138.4979  155.5344 C   0  0  0  0  0  0  0  0  0  0  0  0
  149.1802  139.8613  156.1622 C   0  0  0  0  0  0  0  0  0  0  0  0
  150.2324  140.7506  155.4777 C   0  0  2  0  0  0  0  0  0  0  0  0
  150.2589  140.1512  154.1933 O   0  0  0  0  0  0  0  0  0  0  0  0
  155.0193  140.5307  162.7974 H   0  0  0  0  0  0  0  0  0  0  0  0
  155.7907  140.0173  161.2935 H   0  0  0  0  0  0  0  0  0  0  0  0
  154.3671  139.1546  161.9016 H   0  0  0  0  0  0  0  0  0  0  0  0
  153.6760  141.8898  161.5300 H   0  0  0  0  0  0  0  0  0  0  0  0
  153.1704  143.3682  160.7689 H   0  0  0  0  0  0  0  0  0  0  0  0
  151.6867  145.1375  159.8363 H   0  0  0  0  0  0  0  0  0  0  0  0
  150.3458  144.6226  157.7821 H   0  0  0  0  0  0  0  0  0  0  0  0
  151.5995  139.6680  157.8865 H   0  0  0  0  0  0  0  0  0  0  0  0
  152.3594  141.1741  155.4536 H   0  0  0  0  0  0  0  0  0  0  0  0
  152.7657  139.1135  154.6340 H   0  0  0  0  0  0  0  0  0  0  0  0
  152.1227  138.3046  156.0644 H   0  0  0  0  0  0  0  0  0  0  0  0
  150.7019  138.1327  153.7382 H   0  0  0  0  0  0  0  0  0  0  0  0
  148.5867  138.1381  154.9919 H   0  0  0  0  0  0  0  0  0  0  0  0
  149.7428  137.7434  156.2700 H   0  0  0  0  0  0  0  0  0  0  0  0
  148.1743  140.1948  155.9048 H   0  0  0  0  0  0  0  0  0  0  0  0
  149.2617  139.8568  157.2491 H   0  0  0  0  0  0  0  0  0  0  0  0
  149.9723  141.8095  155.4672 H   0  0  0  0  0  0  0  0  0  0  0  0
  1  2  1  0  0  0  0
  1 19  1  0  0  0  0
  1 20  1  0  0  0  0
  1 21  1  0  0  0  0
  2  3  1  0  0  0  0
  2 22  1  0  0  0  0
  3  4  2  0  0  0  0
  3  5  1  0  0  0  0
  5 10  1  0  0  0  0
  5  6  2  0  0  0  0
  6  7  1  0  0  0  0
  6 23  1  0  0  0  0
  7  8  2  0  0  0  0
  7 24  1  0  0  0  0
  8  9  1  0  0  0  0
  8 25  1  0  0  0  0
  9 10  2  0  0  0  0
 10 11  1  0  0  0  0
 11 12  1  0  0  0  0
 11 26  1  0  0  0  0
 12 17  1  0  0  0  0
 12 13  1  0  0  0  0
 12 27  1  0  0  0  0
 13 14  1  0  0  0  0
 13 28  1  0  0  0  0
 13 29  1  0  0  0  0
 14 18  1  0  0  0  0
 14 15  1  0  0  0  0
 14 30  1  0  0  0  0
 15 16  1  0  0  0  0
 15 31  1  0  0  0  0
 15 32  1  0  0  0  0
 16 17  1  0  0  0  0
 16 33  1  0  0  0  0
 16 34  1  0  0  0  0
 17 18  1  0  0  0  0
 17 35  1  0  0  0  0
M  END
> <s_m_source_file>
AV-unprocessed.smi

> <i_m_source_file_index>
886

> <i_lp_mmshare_version>
43012

> <i_f3d_flags>
0

> <s_epik_input>
W0NIM11bTkhdQyg9TyljMVtjSF1bY0hdW2NIXW5jMVtOSF1bQ0BIXShbQ0gyXVtDQEhdMjMpW0NASF0oTzMpW0NIMl1bQ0gyXTI=

> <s_epik_cmdline>
J2VwaWtfcHl0aG9uJywgJy1waCcsICc3LjAnLCAnLXRuJywgJzgnLCAnLW1hJywgJzIwMCcsICctbWV0YWxfYmluZGluZycsICctaW1hZScsICc8aW5maWxlLm1hZT4nLCAnLW9tYWUnLCAnPG91dGZpbGUubWFlPic=

> <r_lp_tautomer_probability>
1

> <r_epik_Ionization_Penalty>
0.0065447

> <r_epik_Ionization_Penalty_Charging>
0

> <r_epik_Ionization_Penalty_Neutral>
0.0065447

> <r_epik_State_Penalty>
0.00484214

> <r_epik_Charging_Adjusted_Penalty>
0.00484214

> <i_epik_Tot_Q>
0

> <i_epik_Tot_abs_Q>
0

> <r_epik_Metal_State_Penalty>
-0

> <b_epik_Metal_Only>
0

> <s_lp_Force_Field>
OPLS_2005

> <r_lp_Energy>
46.6605

> <b_lp_Chiralities_Consistent>
1

> <s_lp_Variant>
AV-unprocessed.smi:886-4

> <Gold.Version>
5.8.1

> <Gold.Id.Protein>
6NUR|6NUR_protein|mol2

> <Gold.PLP.Fitness>
44.0807

> <Gold.PLP.PLP>
-35.7635

> <Gold.PLP.part.hbond>
-2.0000

> <Gold.PLP.part.metal>
0.0000

> <Gold.PLP.part.buried>
-5.4327

> <Gold.PLP.part.nonpolar>
-29.3482

> <Gold.PLP.part.repulsive>
0.6564

> <Gold.PLP.ligand.clash>
0.0000

> <Gold.PLP.ligand.torsion>
0.4164

> <Gold.PLP.Chemscore.Hbond>
2.0000

> <Gold.PLP.Chemscore.CHOScore>
1.0426

> <Gold.PLP.Chemscore.Metal>
0.0000

> <Gold.Chemscore.Hbonds>
donor molecule, donor type, donor heavy atom, donor atom, acceptor molecule, acceptor atom, score
      P1  H  7989  7998       L1    18  1.00
      P1  H  7997  8010       L1     4  0.63
      L1  C     8    25       P1  8028  0.93
      L1  C     8    25       P1  8029  0.10

> <Gold.PLP.Chemscore.Internal.Correction>
0.0223

> <Gold.Rescore>
     Score         DG    S(hbond)    S(metal)    S(lipo)     H(rot)  DE(clash)    DE(int)     intcor
     17.18     -17.75       1.34        0.00      88.48       1.00       0.01       0.56       ----

> <Gold.Chemscore.Fitness>
17.1752

> <Gold.Chemscore.DG>
-17.7528

> <Gold.Chemscore.ZeroCoef>
-5.4800

> <Gold.Chemscore.Hbond>
1.3413

> <Gold.Chemscore.Metal>
0.0000

> <Gold.Chemscore.Lipo>
88.4846

> <Gold.Chemscore.Internal_Hbond>
0.0000

> <Gold.Chemscore.DEClash>
0.0145

> <Gold.Chemscore.DEInternal>
0.5631

> <Gold.Chemscore.Rot>
1.0000

> <Gold.Chemscore.Internal.Correction>
   9.000000E+99

> <Gold.Chemscore.Hbonds>
donor molecule, donor type, donor heavy atom, donor atom, acceptor molecule, acceptor atom, score
      P1  H  7989  7998       L1    18  0.25
      P1  H  7997  8010       L1     4  0.60

> <Gold.Chemscore.Hbond.Weighted>
-4.4801

> <Gold.Chemscore.Metal.Weighted>
-0.0000

> <Gold.Chemscore.Lipo.Weighted>
-10.3527

> <Gold.Chemscore.Internal_Hbond.Weighted>
0.0000

> <Gold.Chemscore.DEClash.Weighted>
0.0145

> <Gold.Chemscore.DEInternal.Weighted>
0.5631

> <Gold.Chemscore.Rot.Weighted>
2.5600

> <Gold.Chemscore.Internal.Correction.Weighted>
   9.000000E+99

> <Gold.Protein.RotatedTorsions>
[ 6907 6896 6895 6894 ] final   97.27 input  -60.11 | X-H torsion
[ 7974 7965 7964 7962 ] final  -69.10 input  175.53 | X-H torsion
[ 8008 7997 7996 7995 ] final   24.23 input   59.86 | X-H torsion
[ 10167 10162 10161 10158 ] final  -91.97 input  -65.29 | X-H torsion
[ 10718 10713 10712 10709 ] final  -70.07 input   66.30 | X-H torsion
[ 10763 10752 10751 10750 ] final    0.82 input  -60.55 | X-H torsion
[ 11005 11000 10999 10996 ] final  -83.10 input  -57.11 | X-H torsion

> <Gold.Protein.ActiveResidues>
 VAL166  LYS551  ARG553  GLY616  TRP617  ASP618  TYR619  PRO620  LYS621  CYS622 
 ASP623  PHE694  ASN695  SER759  ASP760  ASP761  ALA762  ILE779  LEU786  VAL792 
 PHE793  MET794  SER795  GLU796  ALA797  LYS798  CYS799  TRP800  GLU811  SER814 

> <Gold.Protein.RotatedAtoms>
  152.5425  134.0758  159.8213 H   0  0  0  0  0  0  0  0  0  0  0  0  # atno 6907 bound_to 6896
  151.0867  133.5340  159.2624 H   0  0  0  0  0  0  0  0  0  0  0  0  # atno 6908 bound_to 6896
  151.2147  135.0504  159.8980 H   0  0  0  0  0  0  0  0  0  0  0  0  # atno 6909 bound_to 6896
  145.7081  140.9089  143.0695 H   0  0  0  0  0  0  0  0  0  0  0  0  # atno 7974 bound_to 7965
  154.9931  140.3116  155.4898 H   0  0  0  0  0  0  0  0  0  0  0  0  # atno 8008 bound_to 7997
  156.2937  140.2245  156.4977 H   0  0  0  0  0  0  0  0  0  0  0  0  # atno 8009 bound_to 7997
  154.7685  140.0454  157.1020 H   0  0  0  0  0  0  0  0  0  0  0  0  # atno 8010 bound_to 7997
  140.3395  143.2950  151.9851 H   0  0  0  0  0  0  0  0  0  0  0  0  # atno 10167 bound_to 10162
  156.0425  130.4324  150.2241 H   0  0  0  0  0  0  0  0  0  0  0  0  # atno 10718 bound_to 10713
  153.3158  135.6966  153.7074 H   0  0  0  0  0  0  0  0  0  0  0  0  # atno 10763 bound_to 10752
  153.5934  135.3475  155.2920 H   0  0  0  0  0  0  0  0  0  0  0  0  # atno 10764 bound_to 10752
  154.8586  135.4323  154.2309 H   0  0  0  0  0  0  0  0  0  0  0  0  # atno 10765 bound_to 10752
  141.1660  133.7277  156.8670 H   0  0  0  0  0  0  0  0  0  0  0  0  # atno 11005 bound_to 11000
  144.6949  139.9038  143.7460 LP  0  0  0  0  0  0  0  0  0  0  0  0  # atno 17320 bound_to 7965
  146.0737  139.3725  143.0507 LP  0  0  0  0  0  0  0  0  0  0  0  0  # atno 17321 bound_to 7965
  139.4843  144.6168  151.7330 LP  0  0  0  0  0  0  0  0  0  0  0  0  # atno 17342 bound_to 10162
  140.5322  144.0712  150.6058 LP  0  0  0  0  0  0  0  0  0  0  0  0  # atno 17343 bound_to 10162
  157.0334  131.0014  151.3305 LP  0  0  0  0  0  0  0  0  0  0  0  0  # atno 17370 bound_to 10713
  157.5261  130.8028  149.7863 LP  0  0  0  0  0  0  0  0  0  0  0  0  # atno 17371 bound_to 10713
  140.1808  134.9034  157.2946 LP  0  0  0  0  0  0  0  0  0  0  0  0  # atno 17394 bound_to 11000
  140.2397  134.3810  155.7486 LP  0  0  0  0  0  0  0  0  0  0  0  0  # atno 17395 bound_to 11000

$$$$
