AV-unprocessed.smi:218|AV-procd|sdf|1672|dock2
  -GOLD-   2262020 93D 1   1.00000     0.00000
 Structure written by MMmdl.
 54 57  0  0  0  0  0  0  0  0  1 V2000
  151.6526  143.5099  157.7446 C   0  0  0  0  0  0  0  0  0  0  0  0
  150.7642  142.3261  157.3439 C   0  0  0  0  0  0  0  0  0  0  0  0
  151.2433  141.0218  158.0041 C   0  0  0  0  0  0  0  0  0  0  0  0
  150.8374  142.2157  155.9212 O   0  0  0  0  0  0  0  0  0  0  0  0
  150.2402  141.1501  155.2757 C   0  0  0  0  0  0  0  0  0  0  0  0
  148.9109  141.2994  154.8306 C   0  0  0  0  0  0  0  0  0  0  0  0
  148.2876  140.2203  154.1722 C   0  0  0  0  0  0  0  0  0  0  0  0
  146.8680  140.3476  153.6630 C   0  0  0  0  0  0  0  0  0  0  0  0
  145.9309  139.5195  154.4083 N   0  0  0  0  0  0  0  0  0  0  0  0
  146.1271  138.1873  154.4978 C   0  0  0  0  0  0  0  0  0  0  0  0
  146.7042  137.6364  155.5980 N   0  0  0  0  0  0  0  0  0  0  0  0
  146.8896  136.3142  155.6634 C   0  0  0  0  0  0  0  0  0  0  0  0
  146.5800  135.3821  154.7591 N   0  0  0  0  0  0  0  0  0  0  0  0
  146.0016  135.9331  153.6526 C   0  0  0  0  0  0  0  0  0  0  0  0
  145.7400  137.3155  153.4478 C   0  0  0  0  0  0  0  0  0  0  0  0
  145.1406  137.5011  152.2092 N   0  0  0  0  0  0  0  0  0  0  0  0
  145.0572  136.2950  151.7144 C   0  0  0  0  0  0  0  0  0  0  0  0
  145.5522  135.2895  152.5198 N   0  0  0  0  0  0  0  0  0  0  0  0
  145.6230  133.8095  152.2725 C   0  0  2  0  0  0  0  0  0  0  0  0
  146.3526  133.6057  151.1036 O   0  0  0  0  0  0  0  0  0  0  0  0
  145.5003  133.3560  149.9819 C   0  0  1  0  0  0  0  0  0  0  0  0
  145.9185  131.9807  149.4209 C   0  0  0  0  0  0  0  0  0  0  0  0
  146.2786  131.1215  150.4818 O   0  0  0  0  0  0  0  0  0  0  0  0
  144.0598  133.4428  150.5372 C   0  0  1  0  0  0  0  0  0  0  0  0
  143.1696  132.4990  149.9716 O   0  0  0  0  0  0  0  0  0  0  0  0
  144.2345  133.2043  152.0281 C   0  0  2  0  0  0  0  0  0  0  0  0
  143.2002  133.8189  152.7744 O   0  0  0  0  0  0  0  0  0  0  0  0
  149.0175  139.0299  153.9846 C   0  0  0  0  0  0  0  0  0  0  0  0
  150.3397  138.9738  154.4663 C   0  0  0  0  0  0  0  0  0  0  0  0
  150.9428  140.0037  155.0974 N   0  0  0  0  0  0  0  0  0  0  0  0
  146.1408  133.4055  153.1429 H   0  0  0  0  0  0  0  0  0  0  0  0
  145.6408  134.1227  149.2187 H   0  0  0  0  0  0  0  0  0  0  0  0
  143.6702  134.4470  150.3614 H   0  0  0  0  0  0  0  0  0  0  0  0
  144.2879  132.1378  152.2514 H   0  0  0  0  0  0  0  0  0  0  0  0
  151.6405  143.6627  158.8242 H   0  0  0  0  0  0  0  0  0  0  0  0
  151.3070  144.4315  157.2760 H   0  0  0  0  0  0  0  0  0  0  0  0
  152.6874  143.3496  157.4406 H   0  0  0  0  0  0  0  0  0  0  0  0
  149.7499  142.5597  157.6711 H   0  0  0  0  0  0  0  0  0  0  0  0
  151.2332  141.1074  159.0909 H   0  0  0  0  0  0  0  0  0  0  0  0
  152.2615  140.7788  157.6990 H   0  0  0  0  0  0  0  0  0  0  0  0
  150.6087  140.1768  157.7383 H   0  0  0  0  0  0  0  0  0  0  0  0
  148.3817  142.2276  154.9898 H   0  0  0  0  0  0  0  0  0  0  0  0
  146.5559  141.3914  153.7179 H   0  0  0  0  0  0  0  0  0  0  0  0
  146.8501  140.0611  152.6106 H   0  0  0  0  0  0  0  0  0  0  0  0
  145.1342  139.9948  154.8078 H   0  0  0  0  0  0  0  0  0  0  0  0
  147.3528  135.9516  156.5693 H   0  0  0  0  0  0  0  0  0  0  0  0
  144.6307  136.1131  150.7393 H   0  0  0  0  0  0  0  0  0  0  0  0
  145.1237  131.5341  148.8226 H   0  0  0  0  0  0  0  0  0  0  0  0
  146.7993  132.0645  148.7847 H   0  0  0  0  0  0  0  0  0  0  0  0
  147.1882  130.8853  150.3828 H   0  0  0  0  0  0  0  0  0  0  0  0
  142.3442  132.9265  149.8019 H   0  0  0  0  0  0  0  0  0  0  0  0
  143.1065  133.3581  153.5941 H   0  0  0  0  0  0  0  0  0  0  0  0
  148.5793  138.1804  153.4815 H   0  0  0  0  0  0  0  0  0  0  0  0
  150.9297  138.0783  154.3397 H   0  0  0  0  0  0  0  0  0  0  0  0
  1  2  1  0  0  0  0
  1 35  1  0  0  0  0
  1 36  1  0  0  0  0
  1 37  1  0  0  0  0
  2  3  1  0  0  0  0
  2  4  1  0  0  0  0
  2 38  1  0  0  0  0
  3 39  1  0  0  0  0
  3 40  1  0  0  0  0
  3 41  1  0  0  0  0
  4  5  1  0  0  0  0
  5 30  1  0  0  0  0
  5  6  2  0  0  0  0
  6  7  1  0  0  0  0
  6 42  1  0  0  0  0
  7  8  1  0  0  0  0
  7 28  2  0  0  0  0
  8  9  1  0  0  0  0
  8 43  1  0  0  0  0
  8 44  1  0  0  0  0
  9 10  1  0  0  0  0
  9 45  1  0  0  0  0
 10 15  1  0  0  0  0
 10 11  2  0  0  0  0
 11 12  1  0  0  0  0
 12 13  2  0  0  0  0
 12 46  1  0  0  0  0
 13 14  1  0  0  0  0
 14 18  1  0  0  0  0
 14 15  2  0  0  0  0
 15 16  1  0  0  0  0
 16 17  2  0  0  0  0
 17 18  1  0  0  0  0
 17 47  1  0  0  0  0
 18 19  1  0  0  0  0
 19 31  1  0  0  0  0
 19 26  1  0  0  0  0
 19 20  1  0  0  0  0
 20 21  1  0  0  0  0
 21 32  1  0  0  0  0
 21 22  1  0  0  0  0
 21 24  1  0  0  0  0
 22 23  1  0  0  0  0
 22 48  1  0  0  0  0
 22 49  1  0  0  0  0
 23 50  1  0  0  0  0
 24 33  1  0  0  0  0
 24 25  1  0  0  0  0
 24 26  1  0  0  0  0
 25 51  1  0  0  0  0
 26 34  1  0  0  0  0
 26 27  1  0  0  0  0
 27 52  1  0  0  0  0
 28 29  1  0  0  0  0
 28 53  1  0  0  0  0
 29 30  2  0  0  0  0
 29 54  1  0  0  0  0
M  END
> <s_m_source_file>
AV-unprocessed.smi

> <i_m_source_file_index>
218

> <i_lp_mmshare_version>
43012

> <i_f3d_flags>
0

> <s_epik_input>
W0NIM11bQ0hdKFtDSDNdKU9jMVtjSF1jKFtjSF1bY0hdbjEpW0NIMl1bTkhdYyhuW2NIXW4yKWMoYzIzKW5bY0hdbjNbQ0BASF00T1tDQEhdKFtDSDJdW09IXSlbQ0BASF0oW09IXSlbQ0BIXTRbT0hd

> <s_epik_cmdline>
J2VwaWtfcHl0aG9uJywgJy1waCcsICc3LjAnLCAnLXRuJywgJzgnLCAnLW1hJywgJzIwMCcsICctbWV0YWxfYmluZGluZycsICctaW1hZScsICc8aW5maWxlLm1hZT4nLCAnLW9tYWUnLCAnPG91dGZpbGUubWFlPic=

> <r_lp_tautomer_probability>
1

> <r_epik_Ionization_Penalty>
0.00457014

> <r_epik_Ionization_Penalty_Charging>
0

> <r_epik_Ionization_Penalty_Neutral>
0.00457014

> <r_epik_State_Penalty>
-0

> <r_epik_Charging_Adjusted_Penalty>
0

> <i_epik_Tot_Q>
0

> <i_epik_Tot_abs_Q>
0

> <r_epik_Metal_State_Penalty>
-0

> <b_epik_Metal_Only>
0

> <s_epik_Chemistry_Notes>
This compound contains an acetal/aminal-like group ( X-CH(R)-Y where X, Y are N, S, or O) that may be acid/base labile, releasing an aldehyde.

> <s_lp_Force_Field>
OPLS_2005

> <r_lp_Energy>
43.2146

> <b_lp_Chiralities_Consistent>
1

> <s_lp_Variant>
AV-unprocessed.smi:218-11

> <Gold.Version>
5.8.1

> <Gold.Id.Protein>
6NUR|6NUR_protein|mol2

> <Gold.PLP.Fitness>
49.2950

> <Gold.PLP.PLP>
-41.2789

> <Gold.PLP.part.hbond>
-5.2132

> <Gold.PLP.part.metal>
0.0000

> <Gold.PLP.part.buried>
-3.9197

> <Gold.PLP.part.nonpolar>
-34.0818

> <Gold.PLP.part.repulsive>
2.1674

> <Gold.PLP.ligand.clash>
0.0000

> <Gold.PLP.ligand.torsion>
1.4452

> <Gold.PLP.Chemscore.Hbond>
3.3200

> <Gold.PLP.Chemscore.CHOScore>
0.2554

> <Gold.PLP.Chemscore.Metal>
0.0000

> <Gold.Chemscore.Hbonds>
donor molecule, donor type, donor heavy atom, donor atom, acceptor molecule, acceptor atom, score
      L1  H    23    50       P1 10747  1.00
      L1  H    25    51       P1 10186  1.00
      L1  H    27    52       P1 10957  0.99
      P1  H  7989  7998       L1    30  0.21
      L1  C    17    47       P1 10171  0.25

> <Gold.PLP.Chemscore.Internal.Correction>
0.1803

> <Gold.Rescore>
     Score         DG    S(hbond)    S(metal)    S(lipo)     H(rot)  DE(clash)    DE(int)     intcor
     10.45     -13.47       2.93        0.00      91.84       4.90       0.88       2.14       ----

> <Gold.Chemscore.Fitness>
10.4466

> <Gold.Chemscore.DG>
-13.4684

> <Gold.Chemscore.ZeroCoef>
-5.4800

> <Gold.Chemscore.Hbond>
2.9327

> <Gold.Chemscore.Metal>
0.0000

> <Gold.Chemscore.Lipo>
91.8362

> <Gold.Chemscore.Internal_Hbond>
0.0000

> <Gold.Chemscore.DEClash>
0.8817

> <Gold.Chemscore.DEInternal>
2.1401

> <Gold.Chemscore.Rot>
4.9029

> <Gold.Chemscore.Internal.Correction>
   9.000000E+99

> <Gold.Chemscore.Hbonds>
donor molecule, donor type, donor heavy atom, donor atom, acceptor molecule, acceptor atom, score
      L1  H    23    50       P1 10747  1.00
      L1  H    25    51       P1 10186  0.94
      L1  H    27    52       P1 10957  0.90

> <Gold.Chemscore.Hbond.Weighted>
-9.7951

> <Gold.Chemscore.Metal.Weighted>
-0.0000

> <Gold.Chemscore.Lipo.Weighted>
-10.7448

> <Gold.Chemscore.Internal_Hbond.Weighted>
0.0000

> <Gold.Chemscore.DEClash.Weighted>
0.8817

> <Gold.Chemscore.DEInternal.Weighted>
2.1401

> <Gold.Chemscore.Rot.Weighted>
12.5515

> <Gold.Chemscore.Internal.Correction.Weighted>
   9.000000E+99

> <Gold.Protein.RotatedTorsions>
[ 6907 6896 6895 6894 ] final  -11.16 input  -60.11 | X-H torsion
[ 7974 7965 7964 7962 ] final -168.27 input  175.53 | X-H torsion
[ 8008 7997 7996 7995 ] final  -77.61 input   59.86 | X-H torsion
[ 10167 10162 10161 10158 ] final -104.65 input  -65.29 | X-H torsion
[ 10718 10713 10712 10709 ] final  -39.21 input   66.30 | X-H torsion
[ 10763 10752 10751 10750 ] final   53.98 input  -60.55 | X-H torsion
[ 11005 11000 10999 10996 ] final  111.83 input  -57.11 | X-H torsion

> <Gold.Protein.ActiveResidues>
 VAL166  LYS551  ARG553  GLY616  TRP617  ASP618  TYR619  PRO620  LYS621  CYS622 
 ASP623  PHE694  ASN695  SER759  ASP760  ASP761  ALA762  ILE779  LEU786  VAL792 
 PHE793  MET794  SER795  GLU796  ALA797  LYS798  CYS799  TRP800  GLU811  SER814 

> <Gold.Protein.RotatedAtoms>
  151.3906  135.0955  159.9524 H   0  0  0  0  0  0  0  0  0  0  0  0  # atno 6907 bound_to 6896
  152.5081  133.8983  159.7439 H   0  0  0  0  0  0  0  0  0  0  0  0  # atno 6908 bound_to 6896
  150.9436  133.6572  159.2814 H   0  0  0  0  0  0  0  0  0  0  0  0  # atno 6909 bound_to 6896
  144.7206  140.2395  143.6293 H   0  0  0  0  0  0  0  0  0  0  0  0  # atno 7974 bound_to 7965
  154.5612  140.0707  156.8822 H   0  0  0  0  0  0  0  0  0  0  0  0  # atno 8008 bound_to 7997
  155.2807  140.3371  155.4240 H   0  0  0  0  0  0  0  0  0  0  0  0  # atno 8009 bound_to 7997
  156.2044  140.1734  156.7817 H   0  0  0  0  0  0  0  0  0  0  0  0  # atno 8010 bound_to 7997
  140.2070  143.3775  152.1082 H   0  0  0  0  0  0  0  0  0  0  0  0  # atno 10167 bound_to 10162
  156.2950  130.4233  149.8200 H   0  0  0  0  0  0  0  0  0  0  0  0  # atno 10718 bound_to 10713
  152.9800  135.5760  154.4829 H   0  0  0  0  0  0  0  0  0  0  0  0  # atno 10763 bound_to 10752
  154.4375  135.2775  155.1872 H   0  0  0  0  0  0  0  0  0  0  0  0  # atno 10764 bound_to 10752
  154.3554  135.6200  153.5717 H   0  0  0  0  0  0  0  0  0  0  0  0  # atno 10765 bound_to 10752
  139.8913  134.9516  156.6492 H   0  0  0  0  0  0  0  0  0  0  0  0  # atno 11005 bound_to 11000
  145.8333  139.2096  143.1870 LP  0  0  0  0  0  0  0  0  0  0  0  0  # atno 17320 bound_to 7965
  146.0411  140.8164  142.9828 LP  0  0  0  0  0  0  0  0  0  0  0  0  # atno 17321 bound_to 7965
  139.5195  144.7020  151.5466 LP  0  0  0  0  0  0  0  0  0  0  0  0  # atno 17342 bound_to 10162
  140.6350  143.9001  150.6639 LP  0  0  0  0  0  0  0  0  0  0  0  0  # atno 17343 bound_to 10162
  156.5599  130.8379  151.3325 LP  0  0  0  0  0  0  0  0  0  0  0  0  # atno 17370 bound_to 10713
  157.7353  130.9759  150.2073 LP  0  0  0  0  0  0  0  0  0  0  0  0  # atno 17371 bound_to 10713
  140.7534  133.8878  155.8364 LP  0  0  0  0  0  0  0  0  0  0  0  0  # atno 17394 bound_to 11000
  140.9982  134.1186  157.4343 LP  0  0  0  0  0  0  0  0  0  0  0  0  # atno 17395 bound_to 11000

$$$$
