AV-unprocessed.smi:1915|AV-procd|sdf|7763|dock5
  -GOLD-   22720 9503D 1   1.00000     0.00000
 Structure written by MMmdl.
 45 46  0  0  0  0  0  0  0  0  2 V2000
  152.8167  142.4177  159.7957 C   0  0  0  0  0  0  0  0  0  0  0  0
  152.1779  143.1684  158.6145 C   0  0  0  0  0  0  0  0  0  0  0  0
  152.1185  144.6751  158.9080 C   0  0  0  0  0  0  0  0  0  0  0  0
  150.7773  142.6370  158.2352 C   0  0  0  0  0  0  0  0  0  0  0  0
  150.8153  141.6040  157.1998 N   0  0  0  0  0  0  0  0  0  0  0  0
  150.3185  141.8831  155.8618 C   0  0  0  0  0  0  0  0  0  0  0  0
  150.2579  140.5176  155.1431 C   0  0  2  0  0  0  0  0  0  0  0  0
  148.8176  140.0423  154.8978 C   0  0  0  0  0  0  0  0  0  0  0  0
  148.0299  139.9403  155.8392 O   0  0  0  0  0  0  0  0  0  0  0  0
  148.4939  139.7363  153.6313 N   0  0  0  0  0  0  0  0  0  0  0  0
  147.1879  139.2591  153.1814 C   0  0  0  0  0  0  0  0  0  0  0  0
  146.7801  137.9167  153.8226 C   0  0  0  0  0  0  0  0  0  0  0  0
  145.9118  137.0445  152.9319 C   0  0  0  0  0  0  0  0  0  0  0  0
  144.5370  136.8526  153.1879 C   0  0  0  0  0  0  0  0  0  0  0  0
  143.7916  135.9997  152.3475 C   0  0  0  0  0  0  0  0  0  0  0  0
  144.4352  135.3581  151.2691 C   0  0  0  0  0  0  0  0  0  0  0  0
  145.8099  135.5862  151.0580 C   0  0  0  0  0  0  0  0  0  0  0  0
  146.4899  136.4093  151.8859 N   0  3  0  0  0  0  0  0  0  0  0  0
  151.0142  139.5448  156.0684 C   0  0  0  0  0  0  0  0  0  0  0  0
  151.2062  140.3334  157.3523 C   0  0  0  0  0  0  0  0  0  0  0  0
  151.6508  139.8271  158.3813 O   0  0  0  0  0  0  0  0  0  0  0  0
  152.1794  142.4554  160.6797 H   0  0  0  0  0  0  0  0  0  0  0  0
  153.7798  142.8533  160.0624 H   0  0  0  0  0  0  0  0  0  0  0  0
  152.9970  141.3702  159.5562 H   0  0  0  0  0  0  0  0  0  0  0  0
  152.8307  143.0357  157.7507 H   0  0  0  0  0  0  0  0  0  0  0  0
  151.4822  144.8869  159.7681 H   0  0  0  0  0  0  0  0  0  0  0  0
  151.7206  145.2271  158.0559 H   0  0  0  0  0  0  0  0  0  0  0  0
  153.1104  145.0745  159.1213 H   0  0  0  0  0  0  0  0  0  0  0  0
  150.2717  142.2528  159.1229 H   0  0  0  0  0  0  0  0  0  0  0  0
  150.1580  143.4602  157.8768 H   0  0  0  0  0  0  0  0  0  0  0  0
  149.3507  142.3862  155.9043 H   0  0  0  0  0  0  0  0  0  0  0  0
  151.0127  142.5547  155.3549 H   0  0  0  0  0  0  0  0  0  0  0  0
  150.7753  140.5913  154.1851 H   0  0  0  0  0  0  0  0  0  0  0  0
  149.2030  139.8542  152.9218 H   0  0  0  0  0  0  0  0  0  0  0  0
  146.4210  140.0126  153.3689 H   0  0  0  0  0  0  0  0  0  0  0  0
  147.2335  139.1409  152.0986 H   0  0  0  0  0  0  0  0  0  0  0  0
  147.6764  137.3552  154.0885 H   0  0  0  0  0  0  0  0  0  0  0  0
  146.2538  138.1025  154.7600 H   0  0  0  0  0  0  0  0  0  0  0  0
  144.0609  137.3430  154.0245 H   0  0  0  0  0  0  0  0  0  0  0  0
  142.7397  135.8366  152.5309 H   0  0  0  0  0  0  0  0  0  0  0  0
  143.8827  134.6986  150.6157 H   0  0  0  0  0  0  0  0  0  0  0  0
  146.3833  135.1344  150.2616 H   0  0  0  0  0  0  0  0  0  0  0  0
  150.4747  138.6179  156.2683 H   0  0  0  0  0  0  0  0  0  0  0  0
  151.9887  139.2848  155.6537 H   0  0  0  0  0  0  0  0  0  0  0  0
  147.4860  136.5528  151.7194 H   0  0  0  0  0  0  0  0  0  0  0  0
  1  2  1  0  0  0  0
  1 22  1  0  0  0  0
  1 23  1  0  0  0  0
  1 24  1  0  0  0  0
  2  3  1  0  0  0  0
  2  4  1  0  0  0  0
  2 25  1  0  0  0  0
  3 26  1  0  0  0  0
  3 27  1  0  0  0  0
  3 28  1  0  0  0  0
  4  5  1  0  0  0  0
  4 29  1  0  0  0  0
  4 30  1  0  0  0  0
  5 20  1  0  0  0  0
  5  6  1  0  0  0  0
  6  7  1  0  0  0  0
  6 31  1  0  0  0  0
  6 32  1  0  0  0  0
  7  8  1  0  0  0  0
  7 19  1  0  0  0  0
  7 33  1  0  0  0  0
  8  9  2  0  0  0  0
  8 10  1  0  0  0  0
 10 11  1  0  0  0  0
 10 34  1  0  0  0  0
 11 12  1  0  0  0  0
 11 35  1  0  0  0  0
 11 36  1  0  0  0  0
 12 13  1  0  0  0  0
 12 37  1  0  0  0  0
 12 38  1  0  0  0  0
 13 18  1  0  0  0  0
 13 14  2  0  0  0  0
 14 15  1  0  0  0  0
 14 39  1  0  0  0  0
 15 16  2  0  0  0  0
 15 40  1  0  0  0  0
 16 17  1  0  0  0  0
 16 41  1  0  0  0  0
 17 18  2  0  0  0  0
 17 42  1  0  0  0  0
 18 45  1  0  0  0  0
 19 20  1  0  0  0  0
 19 43  1  0  0  0  0
 19 44  1  0  0  0  0
 20 21  2  0  0  0  0
M  CHG  1  18   1
M  END
> <s_m_source_file>
AV-unprocessed.smi

> <i_m_source_file_index>
1915

> <i_lp_mmshare_version>
43012

> <i_f3d_flags>
0

> <s_epik_input>
W0NIM11bQ0hdKFtDSDNdKVtDSDJdTjFbQ0gyXVtDQEhdKFtDSDJdQzE9TylDKD1PKVtOSF1bQ0gyXVtDSDJdYzJbY0hdW2NIXVtjSF1bY0hdbjI=

> <s_epik_cmdline>
J2VwaWtfcHl0aG9uJywgJy1waCcsICc3LjAnLCAnLXRuJywgJzgnLCAnLW1hJywgJzIwMCcsICctbWV0YWxfYmluZGluZycsICctaW1hZScsICc8aW5maWxlLm1hZT4nLCAnLW9tYWUnLCAnPG91dGZpbGUubWFlPic=

> <r_epik_Ionization_Penalty>
1.88249

> <r_epik_Ionization_Penalty_Charging>
1.88249

> <r_epik_Ionization_Penalty_Neutral>
3.64574e-08

> <r_epik_State_Penalty>
2.00238

> <r_epik_Charging_Adjusted_Penalty>
3.88487

> <i_epik_Tot_Q>
1

> <i_epik_Tot_abs_Q>
1

> <r_epik_Metal_State_Penalty>
2.02676

> <b_epik_Metal_Only>
0

> <s_lp_Force_Field>
OPLS_2005

> <r_lp_Energy>
20.6112

> <b_lp_Chiralities_Consistent>
1

> <s_lp_Variant>
AV-unprocessed.smi:1915-4

> <Gold.Version>
5.8.1

> <Gold.Id.Protein>
6NUR|6NUR_protein|mol2

> <Gold.PLP.Fitness>
48.5821

> <Gold.PLP.PLP>
-41.4359

> <Gold.PLP.part.hbond>
-2.0000

> <Gold.PLP.part.metal>
0.0000

> <Gold.PLP.part.buried>
-2.3205

> <Gold.PLP.part.nonpolar>
-37.1463

> <Gold.PLP.part.repulsive>
0.1929

> <Gold.PLP.ligand.clash>
0.0000

> <Gold.PLP.ligand.torsion>
0.9729

> <Gold.PLP.Chemscore.Hbond>
3.0000

> <Gold.PLP.Chemscore.CHOScore>
0.0000

> <Gold.PLP.Chemscore.Metal>
0.0000

> <Gold.Chemscore.Hbonds>
donor molecule, donor type, donor heavy atom, donor atom, acceptor molecule, acceptor atom, score
      L1  H    10    34       P1  7957  0.96
      L1  H    18    45       P1  7948  1.76

> <Gold.PLP.Chemscore.Internal.Correction>
0.0920

> <Gold.Rescore>
     Score         DG    S(hbond)    S(metal)    S(lipo)     H(rot)  DE(clash)    DE(int)     intcor
     16.75     -18.52       1.95        0.00      96.61       1.86       0.16       1.60       ----

> <Gold.Chemscore.Fitness>
16.7536

> <Gold.Chemscore.DG>
-18.5212

> <Gold.Chemscore.ZeroCoef>
-5.4800

> <Gold.Chemscore.Hbond>
1.9490

> <Gold.Chemscore.Metal>
0.0000

> <Gold.Chemscore.Lipo>
96.6054

> <Gold.Chemscore.Internal_Hbond>
0.0000

> <Gold.Chemscore.DEClash>
0.1628

> <Gold.Chemscore.DEInternal>
1.6048

> <Gold.Chemscore.Rot>
1.8638

> <Gold.Chemscore.Internal.Correction>
   9.000000E+99

> <Gold.Chemscore.Hbonds>
donor molecule, donor type, donor heavy atom, donor atom, acceptor molecule, acceptor atom, score
      L1  H    10    34       P1  7957  0.92
      L1  H    18    45       P1  7948  0.84

> <Gold.Chemscore.Hbond.Weighted>
-6.5097

> <Gold.Chemscore.Metal.Weighted>
-0.0000

> <Gold.Chemscore.Lipo.Weighted>
-11.3028

> <Gold.Chemscore.Internal_Hbond.Weighted>
0.0000

> <Gold.Chemscore.DEClash.Weighted>
0.1628

> <Gold.Chemscore.DEInternal.Weighted>
1.6048

> <Gold.Chemscore.Rot.Weighted>
4.7713

> <Gold.Chemscore.Internal.Correction.Weighted>
   9.000000E+99

> <Gold.Protein.RotatedTorsions>
[ 6907 6896 6895 6894 ] final -134.23 input  -60.11 | X-H torsion
[ 7974 7965 7964 7962 ] final    8.91 input  175.53 | X-H torsion
[ 8008 7997 7996 7995 ] final -146.68 input   59.86 | X-H torsion
[ 10167 10162 10161 10158 ] final -126.35 input  -65.29 | X-H torsion
[ 10718 10713 10712 10709 ] final -102.81 input   66.30 | X-H torsion
[ 10763 10752 10751 10750 ] final   52.92 input  -60.55 | X-H torsion
[ 11005 11000 10999 10996 ] final  -65.88 input  -57.11 | X-H torsion

> <Gold.Protein.ActiveResidues>
 VAL166  LYS551  ARG553  GLY616  TRP617  ASP618  TYR619  PRO620  LYS621  CYS622 
 ASP623  PHE694  ASN695  SER759  ASP760  ASP761  ALA762  ILE779  LEU786  VAL792 
 PHE793  MET794  SER795  GLU796  ALA797  LYS798  CYS799  TRP800  GLU811  SER814 

> <Gold.Protein.RotatedAtoms>
  150.9833  133.6223  159.2719 H   0  0  0  0  0  0  0  0  0  0  0  0  # atno 6907 bound_to 6896
  151.3470  135.0875  159.9400 H   0  0  0  0  0  0  0  0  0  0  0  0  # atno 6908 bound_to 6896
  152.5223  133.9434  159.7691 H   0  0  0  0  0  0  0  0  0  0  0  0  # atno 6909 bound_to 6896
  146.2410  139.9862  142.8430 H   0  0  0  0  0  0  0  0  0  0  0  0  # atno 7974 bound_to 7965
  155.5634  140.0627  157.2823 H   0  0  0  0  0  0  0  0  0  0  0  0  # atno 8008 bound_to 7997
  154.4383  140.1882  156.0851 H   0  0  0  0  0  0  0  0  0  0  0  0  # atno 8009 bound_to 7997
  156.0430  140.3293  155.7269 H   0  0  0  0  0  0  0  0  0  0  0  0  # atno 8010 bound_to 7997
  139.9724  143.5831  152.2408 H   0  0  0  0  0  0  0  0  0  0  0  0  # atno 10167 bound_to 10162
  156.0242  130.5437  150.7162 H   0  0  0  0  0  0  0  0  0  0  0  0  # atno 10718 bound_to 10713
  152.9791  135.5796  154.4657 H   0  0  0  0  0  0  0  0  0  0  0  0  # atno 10763 bound_to 10752
  154.4226  135.2772  155.1967 H   0  0  0  0  0  0  0  0  0  0  0  0  # atno 10764 bound_to 10752
  154.3709  135.6168  153.5793 H   0  0  0  0  0  0  0  0  0  0  0  0  # atno 10765 bound_to 10752
  141.1467  133.6689  156.6054 H   0  0  0  0  0  0  0  0  0  0  0  0  # atno 11005 bound_to 11000
  145.1546  140.9641  143.4413 LP  0  0  0  0  0  0  0  0  0  0  0  0  # atno 17320 bound_to 7965
  145.0173  139.3455  143.6090 LP  0  0  0  0  0  0  0  0  0  0  0  0  # atno 17321 bound_to 7965
  139.6471  144.7659  151.2222 LP  0  0  0  0  0  0  0  0  0  0  0  0  # atno 17342 bound_to 10162
  140.7517  143.6221  150.8503 LP  0  0  0  0  0  0  0  0  0  0  0  0  # atno 17343 bound_to 10162
  157.4788  131.0900  151.0559 LP  0  0  0  0  0  0  0  0  0  0  0  0  # atno 17370 bound_to 10713
  157.0998  130.5977  149.5458 LP  0  0  0  0  0  0  0  0  0  0  0  0  # atno 17371 bound_to 10713
  140.3656  134.7650  157.4564 LP  0  0  0  0  0  0  0  0  0  0  0  0  # atno 17394 bound_to 11000
  140.0751  134.5809  155.8600 LP  0  0  0  0  0  0  0  0  0  0  0  0  # atno 17395 bound_to 11000

$$$$
