AV-unprocessed.smi:153|AV-procd|sdf|1251|dock6
  -GOLD-   2262018483D 1   1.00000     0.00000
 Structure written by MMmdl.
 60 63  0  0  0  0  0  0  0  0  2 V2000
  153.9135  138.5608  159.8276 C   0  0  0  0  0  0  0  0  0  0  0  0
  152.8276  139.6451  159.9169 C   0  0  1  0  0  0  0  0  0  0  0  0
  153.3674  140.8068  160.5361 O   0  0  0  0  0  0  0  0  0  0  0  0
  152.5993  141.9199  160.1178 C   0  0  0  0  0  0  0  0  0  0  0  0
  152.4171  141.6458  158.6328 C   0  0  0  0  0  0  0  0  0  0  0  0
  152.2055  140.1296  158.5778 C   0  0  1  0  0  0  0  0  0  0  0  0
  152.9021  139.6267  157.4503 O   0  0  0  0  0  0  0  0  0  0  0  0
  150.7163  139.7060  158.4714 C   0  0  0  0  0  0  0  0  0  0  0  0
  150.5084  138.2963  158.1704 N   0  0  0  0  0  0  0  0  0  0  0  0
  150.1002  137.3186  159.0476 C   0  0  0  0  0  0  0  0  0  0  0  0
  149.9882  136.1249  158.5346 N   0  0  0  0  0  0  0  0  0  0  0  0
  150.3738  136.2773  157.2064 C   0  0  0  0  0  0  0  0  0  0  0  0
  150.4842  135.3994  156.0843 C   0  0  0  0  0  0  0  0  0  0  0  0
  150.2019  134.0672  156.1039 N   0  0  0  0  0  0  0  0  0  0  0  0
  151.2693  133.1041  156.3427 C   0  0  0  0  0  0  0  0  0  0  0  0
  148.8144  133.6150  156.2312 C   0  0  0  0  0  0  0  0  0  0  0  0
  148.1188  133.4278  154.8675 C   0  0  2  0  0  0  0  0  0  0  0  0
  149.1209  133.5183  153.8746 O   0  0  0  0  0  0  0  0  0  0  0  0
  147.0477  134.5044  154.5813 C   0  0  0  0  0  0  0  0  0  0  0  0
  146.5860  134.5052  153.1702 N   0  3  0  0  0  0  0  0  0  0  0  0
  146.3744  133.1445  152.6149 C   0  0  0  0  0  0  0  0  0  0  0  0
  145.9210  133.2254  151.1473 C   0  0  0  0  0  0  0  0  0  0  0  0
  144.7396  134.0111  151.0547 O   0  0  0  0  0  0  0  0  0  0  0  0
  144.9531  135.3451  151.4981 C   0  0  0  0  0  0  0  0  0  0  0  0
  145.3727  135.3351  152.9778 C   0  0  0  0  0  0  0  0  0  0  0  0
  150.8843  135.9513  154.9083 N   0  0  0  0  0  0  0  0  0  0  0  0
  151.1715  137.2526  154.8255 C   0  0  0  0  0  0  0  0  0  0  0  0
  151.1170  138.1786  155.7822 N   0  0  0  0  0  0  0  0  0  0  0  0
  150.7037  137.6433  156.9654 C   0  0  0  0  0  0  0  0  0  0  0  0
  153.5302  137.6584  159.3502 H   0  0  0  0  0  0  0  0  0  0  0  0
  154.2657  138.2843  160.8214 H   0  0  0  0  0  0  0  0  0  0  0  0
  154.7768  138.9057  159.2579 H   0  0  0  0  0  0  0  0  0  0  0  0
  152.0364  139.2826  160.5756 H   0  0  0  0  0  0  0  0  0  0  0  0
  151.6405  141.9294  160.6386 H   0  0  0  0  0  0  0  0  0  0  0  0
  153.1129  142.8612  160.3149 H   0  0  0  0  0  0  0  0  0  0  0  0
  151.6133  142.2348  158.1945 H   0  0  0  0  0  0  0  0  0  0  0  0
  153.3380  141.9245  158.1174 H   0  0  0  0  0  0  0  0  0  0  0  0
  152.9936  138.6913  157.5473 H   0  0  0  0  0  0  0  0  0  0  0  0
  150.1975  139.9325  159.4041 H   0  0  0  0  0  0  0  0  0  0  0  0
  150.2156  140.2905  157.6981 H   0  0  0  0  0  0  0  0  0  0  0  0
  149.8787  137.5210  160.0855 H   0  0  0  0  0  0  0  0  0  0  0  0
  152.1602  133.3566  155.7665 H   0  0  0  0  0  0  0  0  0  0  0  0
  150.9574  132.1035  156.0418 H   0  0  0  0  0  0  0  0  0  0  0  0
  151.5298  133.0705  157.4007 H   0  0  0  0  0  0  0  0  0  0  0  0
  148.7296  132.7058  156.8268 H   0  0  0  0  0  0  0  0  0  0  0  0
  148.2811  134.3770  156.8011 H   0  0  0  0  0  0  0  0  0  0  0  0
  147.6952  132.4254  154.8227 H   0  0  0  0  0  0  0  0  0  0  0  0
  149.0585  134.3600  153.4506 H   0  0  0  0  0  0  0  0  0  0  0  0
  146.1748  134.3704  155.2194 H   0  0  0  0  0  0  0  0  0  0  0  0
  147.4602  135.4814  154.8384 H   0  0  0  0  0  0  0  0  0  0  0  0
  147.2905  132.5580  152.6749 H   0  0  0  0  0  0  0  0  0  0  0  0
  145.6216  132.6194  153.2057 H   0  0  0  0  0  0  0  0  0  0  0  0
  146.7057  133.6501  150.5190 H   0  0  0  0  0  0  0  0  0  0  0  0
  145.7117  132.2268  150.7635 H   0  0  0  0  0  0  0  0  0  0  0  0
  145.7108  135.8305  150.8806 H   0  0  0  0  0  0  0  0  0  0  0  0
  144.0303  135.9117  151.3735 H   0  0  0  0  0  0  0  0  0  0  0  0
  144.5607  134.9454  153.5940 H   0  0  0  0  0  0  0  0  0  0  0  0
  145.5658  136.3560  153.3092 H   0  0  0  0  0  0  0  0  0  0  0  0
  151.4888  137.6016  153.8538 H   0  0  0  0  0  0  0  0  0  0  0  0
  147.3158  134.9419  152.6254 H   0  0  0  0  0  0  0  0  0  0  0  0
  1  2  1  0  0  0  0
  1 30  1  0  0  0  0
  1 31  1  0  0  0  0
  1 32  1  0  0  0  0
  2  6  1  0  0  0  0
  2  3  1  0  0  0  0
  2 33  1  0  0  0  0
  3  4  1  0  0  0  0
  4  5  1  0  0  0  0
  4 34  1  0  0  0  0
  4 35  1  0  0  0  0
  5  6  1  0  0  0  0
  5 36  1  0  0  0  0
  5 37  1  0  0  0  0
  6  7  1  0  0  0  0
  6  8  1  0  0  0  0
  7 38  1  0  0  0  0
  8  9  1  0  0  0  0
  8 39  1  0  0  0  0
  8 40  1  0  0  0  0
  9 29  1  0  0  0  0
  9 10  1  0  0  0  0
 10 11  2  0  0  0  0
 10 41  1  0  0  0  0
 11 12  1  0  0  0  0
 12 29  2  0  0  0  0
 12 13  1  0  0  0  0
 13 14  1  0  0  0  0
 13 26  2  0  0  0  0
 14 15  1  0  0  0  0
 14 16  1  0  0  0  0
 15 42  1  0  0  0  0
 15 43  1  0  0  0  0
 15 44  1  0  0  0  0
 16 17  1  0  0  0  0
 16 45  1  0  0  0  0
 16 46  1  0  0  0  0
 17 18  1  0  0  0  0
 17 19  1  0  0  0  0
 17 47  1  0  0  0  0
 18 48  1  0  0  0  0
 19 20  1  0  0  0  0
 19 49  1  0  0  0  0
 19 50  1  0  0  0  0
 20 25  1  0  0  0  0
 20 21  1  0  0  0  0
 20 60  1  0  0  0  0
 21 22  1  0  0  0  0
 21 51  1  0  0  0  0
 21 52  1  0  0  0  0
 22 23  1  0  0  0  0
 22 53  1  0  0  0  0
 22 54  1  0  0  0  0
 23 24  1  0  0  0  0
 24 25  1  0  0  0  0
 24 55  1  0  0  0  0
 24 56  1  0  0  0  0
 25 57  1  0  0  0  0
 25 58  1  0  0  0  0
 26 27  1  0  0  0  0
 27 28  2  0  0  0  0
 27 59  1  0  0  0  0
 28 29  1  0  0  0  0
M  CHG  1  20   1
M  END
> <s_m_source_file>
AV-unprocessed.smi

> <i_m_source_file_index>
153

> <i_lp_mmshare_version>
43012

> <i_f3d_flags>
0

> <s_epik_input>
W0NIMl0xW0NIMl1PW0NAQEhdKFtDSDNdKVtDQEBdMShbT0hdKVtDSDJdbihbY0hdbjIpYyhjMjMpbltjSF1uYzNOKFtDSDNdKVtDSDJdW0NASF0oW09IXSlbQ0gyXU40W0NIMl1bQ0gyXU9bQ0gyXVtDSDJdNA==

> <s_epik_cmdline>
J2VwaWtfcHl0aG9uJywgJy1waCcsICc3LjAnLCAnLXRuJywgJzgnLCAnLW1hJywgJzIwMCcsICctbWV0YWxfYmluZGluZycsICctaW1hZScsICc8aW5maWxlLm1hZT4nLCAnLW9tYWUnLCAnPG91dGZpbGUubWFlPic=

> <r_lp_tautomer_probability>
1

> <r_epik_Ionization_Penalty>
0.403509

> <r_epik_Ionization_Penalty_Charging>
0.40072

> <r_epik_Ionization_Penalty_Neutral>
0.00278876

> <r_epik_State_Penalty>
0.400058

> <r_epik_Charging_Adjusted_Penalty>
0.800778

> <i_epik_Tot_Q>
1

> <i_epik_Tot_abs_Q>
1

> <r_epik_Metal_State_Penalty>
0.400321

> <b_epik_Metal_Only>
0

> <s_lp_Force_Field>
OPLS_2005

> <r_lp_Energy>
45.7554

> <b_lp_Chiralities_Consistent>
1

> <s_lp_Variant>
AV-unprocessed.smi:153-2

> <Gold.Version>
5.8.1

> <Gold.Id.Protein>
6NUR|6NUR_protein|mol2

> <Gold.PLP.Fitness>
48.4326

> <Gold.PLP.PLP>
-37.6924

> <Gold.PLP.part.hbond>
-4.8914

> <Gold.PLP.part.metal>
0.0000

> <Gold.PLP.part.buried>
-6.2319

> <Gold.PLP.part.nonpolar>
-27.0203

> <Gold.PLP.part.repulsive>
0.3598

> <Gold.PLP.ligand.clash>
0.0000

> <Gold.PLP.ligand.torsion>
2.8616

> <Gold.PLP.Chemscore.Hbond>
5.3000

> <Gold.PLP.Chemscore.CHOScore>
0.0000

> <Gold.PLP.Chemscore.Metal>
0.0000

> <Gold.Chemscore.Hbonds>
donor molecule, donor type, donor heavy atom, donor atom, acceptor molecule, acceptor atom, score
      L1  H    18    48       P1  7948  0.03
      L1  H    20    60       P1  7948  1.20
      P1  H  6896  6908       L1    11  1.00
      P1  H  7997  8008       L1     7  1.00
      P1  H 10752 10763       L1    26  0.23
      L1  C    27    59       P1  7949  0.11

> <Gold.PLP.Chemscore.Internal.Correction>
0.5633

> <Gold.Rescore>
     Score         DG    S(hbond)    S(metal)    S(lipo)     H(rot)  DE(clash)    DE(int)     intcor
      9.67     -15.07       2.83        0.00      80.44       3.62       0.13       5.27       ----

> <Gold.Chemscore.Fitness>
9.6733

> <Gold.Chemscore.DG>
-15.0657

> <Gold.Chemscore.ZeroCoef>
-5.4800

> <Gold.Chemscore.Hbond>
2.8253

> <Gold.Chemscore.Metal>
0.0000

> <Gold.Chemscore.Lipo>
80.4415

> <Gold.Chemscore.Internal_Hbond>
0.0000

> <Gold.Chemscore.DEClash>
0.1263

> <Gold.Chemscore.DEInternal>
5.2661

> <Gold.Chemscore.Rot>
3.6182

> <Gold.Chemscore.Internal.Correction>
   9.000000E+99

> <Gold.Chemscore.Hbonds>
donor molecule, donor type, donor heavy atom, donor atom, acceptor molecule, acceptor atom, score
      L1  H    18    48       P1  7948  0.01
      L1  H    20    60       P1  7948  0.60
      P1  H  6896  6908       L1    11  0.76
      P1  H  7997  8008       L1     7  0.35

> <Gold.Chemscore.Hbond.Weighted>
-9.4365

> <Gold.Chemscore.Metal.Weighted>
-0.0000

> <Gold.Chemscore.Lipo.Weighted>
-9.4117

> <Gold.Chemscore.Internal_Hbond.Weighted>
0.0000

> <Gold.Chemscore.DEClash.Weighted>
0.1263

> <Gold.Chemscore.DEInternal.Weighted>
5.2661

> <Gold.Chemscore.Rot.Weighted>
9.2625

> <Gold.Chemscore.Internal.Correction.Weighted>
   9.000000E+99

> <Gold.Protein.RotatedTorsions>
[ 6907 6896 6895 6894 ] final -173.19 input  -60.11 | X-H torsion
[ 7974 7965 7964 7962 ] final -107.34 input  175.53 | X-H torsion
[ 8008 7997 7996 7995 ] final  -65.80 input   59.86 | X-H torsion
[ 10167 10162 10161 10158 ] final  162.29 input  -65.29 | X-H torsion
[ 10718 10713 10712 10709 ] final  131.30 input   66.30 | X-H torsion
[ 10763 10752 10751 10750 ] final   47.38 input  -60.55 | X-H torsion
[ 11005 11000 10999 10996 ] final   -0.83 input  -57.11 | X-H torsion

> <Gold.Protein.ActiveResidues>
 VAL166  LYS551  ARG553  GLY616  TRP617  ASP618  TYR619  PRO620  LYS621  CYS622 
 ASP623  PHE694  ASN695  SER759  ASP760  ASP761  ALA762  ILE779  LEU786  VAL792 
 PHE793  MET794  SER795  GLU796  ALA797  LYS798  CYS799  TRP800  GLU811  SER814 

> <Gold.Protein.RotatedAtoms>
  151.5521  133.3416  159.2954 H   0  0  0  0  0  0  0  0  0  0  0  0  # atno 6907 bound_to 6896
  150.8472  134.7788  159.6991 H   0  0  0  0  0  0  0  0  0  0  0  0  # atno 6908 bound_to 6896
  152.4527  134.5367  159.9878 H   0  0  0  0  0  0  0  0  0  0  0  0  # atno 6909 bound_to 6896
  145.2066  140.9078  143.3339 H   0  0  0  0  0  0  0  0  0  0  0  0  # atno 7974 bound_to 7965
  154.4694  140.0925  156.7106 H   0  0  0  0  0  0  0  0  0  0  0  0  # atno 8008 bound_to 7997
  155.4765  140.3466  155.4315 H   0  0  0  0  0  0  0  0  0  0  0  0  # atno 8009 bound_to 7997
  156.1014  140.1423  156.9451 H   0  0  0  0  0  0  0  0  0  0  0  0  # atno 8010 bound_to 7997
  139.4859  144.4452  151.8901 H   0  0  0  0  0  0  0  0  0  0  0  0  # atno 10167 bound_to 10162
  157.4981  131.1093  150.9465 H   0  0  0  0  0  0  0  0  0  0  0  0  # atno 10718 bound_to 10713
  152.9800  135.5978  154.3754 H   0  0  0  0  0  0  0  0  0  0  0  0  # atno 10763 bound_to 10752
  154.3423  135.2767  155.2418 H   0  0  0  0  0  0  0  0  0  0  0  0  # atno 10764 bound_to 10752
  154.4494  135.5993  153.6236 H   0  0  0  0  0  0  0  0  0  0  0  0  # atno 10765 bound_to 10752
  140.6407  133.9492  155.8324 H   0  0  0  0  0  0  0  0  0  0  0  0  # atno 11005 bound_to 11000
  144.9896  139.3702  143.6221 LP  0  0  0  0  0  0  0  0  0  0  0  0  # atno 17320 bound_to 7965
  146.3406  139.9073  142.8785 LP  0  0  0  0  0  0  0  0  0  0  0  0  # atno 17321 bound_to 7965
  140.3906  144.2620  150.5900 LP  0  0  0  0  0  0  0  0  0  0  0  0  # atno 17342 bound_to 10162
  140.5149  143.2280  151.8478 LP  0  0  0  0  0  0  0  0  0  0  0  0  # atno 17343 bound_to 10162
  157.0145  130.5650  149.5324 LP  0  0  0  0  0  0  0  0  0  0  0  0  # atno 17370 bound_to 10713
  156.0212  130.5307  150.8281 LP  0  0  0  0  0  0  0  0  0  0  0  0  # atno 17371 bound_to 10713
  141.0609  134.0347  157.3660 LP  0  0  0  0  0  0  0  0  0  0  0  0  # atno 17394 bound_to 11000
  139.9081  135.0184  156.7576 LP  0  0  0  0  0  0  0  0  0  0  0  0  # atno 17395 bound_to 11000

$$$$
