AV-unprocessed.smi:2124|AV-procd|sdf|8664|dock10
  -GOLD-   2272011413D 1   1.00000     0.00000
 Structure written by MMmdl.
 47 49  0  0  0  0  0  0  0  0  1 V2000
  146.5254  138.3230  151.9105 C   0  0  0  0  0  0  0  0  0  0  0  0
  147.4536  139.0596  152.8515 C   0  0  0  0  0  0  0  0  0  0  0  0
  148.5694  138.3271  153.2206 N   0  0  0  0  0  0  0  0  0  0  0  0
  149.4872  138.9262  154.0648 C   0  0  0  0  0  0  0  0  0  0  0  0
  150.6969  138.0674  154.3894 C   0  0  0  0  0  0  0  0  0  0  0  0
  149.2942  140.1859  154.5326 C   0  0  0  0  0  0  0  0  0  0  0  0
  150.3049  140.8972  155.4334 C   0  0  0  0  0  0  0  0  0  0  0  0
  149.8199  141.1348  156.8638 C   0  0  0  0  0  0  0  0  0  0  0  0
  149.6033  140.1826  157.6124 O   0  0  0  0  0  0  0  0  0  0  0  0
  149.7019  142.4178  157.2361 N   0  0  0  0  0  0  0  0  0  0  0  0
  149.5336  142.8981  158.6027 C   0  0  2  0  0  0  0  0  0  0  0  0
  148.0433  143.1401  158.8890 C   0  0  0  0  0  0  0  0  0  0  0  0
  150.3865  144.1741  158.7984 C   0  0  1  0  0  0  0  0  0  0  0  0
  150.5476  144.6265  160.2669 C   0  0  0  0  0  0  0  0  0  0  0  0
  152.0697  144.8237  160.4028 C   0  0  1  0  0  0  0  0  0  0  0  0
  152.7564  143.4458  160.4463 C   0  0  0  0  0  0  0  0  0  0  0  0
  152.6325  142.9598  158.9909 C   0  0  0  0  0  0  0  0  0  0  0  0
  151.8587  144.1091  158.3134 C   0  0  2  0  0  0  0  0  0  0  0  0
  152.4562  145.3233  159.0156 C   0  0  0  0  0  0  0  0  0  0  0  0
  148.0719  140.9136  154.1153 C   0  0  0  0  0  0  0  0  0  0  0  0
  147.8403  142.0582  154.5016 O   0  0  0  0  0  0  0  0  0  0  0  0
  147.1798  140.2659  153.2457 N   0  0  0  0  0  0  0  0  0  0  0  0
  148.7541  137.3897  152.8934 H   0  0  0  0  0  0  0  0  0  0  0  0
  145.8196  139.0109  151.4434 H   0  0  0  0  0  0  0  0  0  0  0  0
  145.9586  137.5672  152.4546 H   0  0  0  0  0  0  0  0  0  0  0  0
  147.0915  137.8299  151.1193 H   0  0  0  0  0  0  0  0  0  0  0  0
  151.6117  138.5511  154.0472 H   0  0  0  0  0  0  0  0  0  0  0  0
  150.6368  137.0904  153.9085 H   0  0  0  0  0  0  0  0  0  0  0  0
  150.7726  137.9057  155.4648 H   0  0  0  0  0  0  0  0  0  0  0  0
  150.5515  141.8606  154.9863 H   0  0  0  0  0  0  0  0  0  0  0  0
  151.2507  140.3558  155.4707 H   0  0  0  0  0  0  0  0  0  0  0  0
  149.8768  143.1223  156.5340 H   0  0  0  0  0  0  0  0  0  0  0  0
  149.8877  142.1357  159.2986 H   0  0  0  0  0  0  0  0  0  0  0  0
  147.8883  143.4818  159.9124 H   0  0  0  0  0  0  0  0  0  0  0  0
  147.4655  142.2242  158.7593 H   0  0  0  0  0  0  0  0  0  0  0  0
  147.6266  143.8938  158.2201 H   0  0  0  0  0  0  0  0  0  0  0  0
  149.9048  144.9827  158.2451 H   0  0  0  0  0  0  0  0  0  0  0  0
  150.0142  145.5625  160.4378 H   0  0  0  0  0  0  0  0  0  0  0  0
  150.1701  143.8963  160.9839 H   0  0  0  0  0  0  0  0  0  0  0  0
  152.3536  145.4792  161.2264 H   0  0  0  0  0  0  0  0  0  0  0  0
  153.8052  143.5406  160.7303 H   0  0  0  0  0  0  0  0  0  0  0  0
  152.2786  142.7668  161.1534 H   0  0  0  0  0  0  0  0  0  0  0  0
  153.6204  142.8515  158.5411 H   0  0  0  0  0  0  0  0  0  0  0  0
  152.1341  141.9945  158.9095 H   0  0  0  0  0  0  0  0  0  0  0  0
  151.9645  144.1225  157.2281 H   0  0  0  0  0  0  0  0  0  0  0  0
  151.9744  146.2643  158.7439 H   0  0  0  0  0  0  0  0  0  0  0  0
  153.5342  145.4198  158.8737 H   0  0  0  0  0  0  0  0  0  0  0  0
  1 24  1  0  0  0  0
  1 25  1  0  0  0  0
  1 26  1  0  0  0  0
  1  2  1  0  0  0  0
  2  3  1  0  0  0  0
  2 22  2  0  0  0  0
  3  4  1  0  0  0  0
  3 23  1  0  0  0  0
  4  6  2  0  0  0  0
  4  5  1  0  0  0  0
  5 27  1  0  0  0  0
  5 28  1  0  0  0  0
  5 29  1  0  0  0  0
  6 20  1  0  0  0  0
  6  7  1  0  0  0  0
  7  8  1  0  0  0  0
  7 30  1  0  0  0  0
  7 31  1  0  0  0  0
  8  9  2  0  0  0  0
  8 10  1  0  0  0  0
 10 11  1  0  0  0  0
 10 32  1  0  0  0  0
 11 12  1  0  0  0  0
 11 13  1  0  0  0  0
 11 33  1  0  0  0  0
 12 34  1  0  0  0  0
 12 35  1  0  0  0  0
 12 36  1  0  0  0  0
 13 18  1  0  0  0  0
 13 14  1  0  0  0  0
 13 37  1  0  0  0  0
 14 15  1  0  0  0  0
 14 38  1  0  0  0  0
 14 39  1  0  0  0  0
 15 19  1  0  0  0  0
 15 16  1  0  0  0  0
 15 40  1  0  0  0  0
 16 17  1  0  0  0  0
 16 41  1  0  0  0  0
 16 42  1  0  0  0  0
 17 18  1  0  0  0  0
 17 43  1  0  0  0  0
 17 44  1  0  0  0  0
 18 19  1  0  0  0  0
 18 45  1  0  0  0  0
 19 46  1  0  0  0  0
 19 47  1  0  0  0  0
 20 21  2  0  0  0  0
 20 22  1  0  0  0  0
M  END
> <s_m_source_file>
AV-unprocessed.smi

> <i_m_source_file_index>
2124

> <i_lp_mmshare_version>
43012

> <i_f3d_flags>
0

> <s_epik_input>
W0NIM11jMW5jKFtDSDNdKWMoYyg9TylbbkhdMSlbQ0gyXUMoPU8pW05IXVtDQEhdKFtDSDNdKVtDQEhdKFtDSDJdW0NASF0yMylbQ0BIXShbQ0gyXTMpW0NIMl1bQ0gyXTI=

> <s_epik_cmdline>
J2VwaWtfcHl0aG9uJywgJy1waCcsICc3LjAnLCAnLXRuJywgJzgnLCAnLW1hJywgJzIwMCcsICctbWV0YWxfYmluZGluZycsICctaW1hZScsICc8aW5maWxlLm1hZT4nLCAnLW9tYWUnLCAnPG91dGZpbGUubWFlPic=

> <r_lp_tautomer_probability>
0.156392

> <r_epik_Ionization_Penalty>
0.0139374

> <r_epik_Ionization_Penalty_Charging>
0.0138122

> <r_epik_Ionization_Penalty_Neutral>
0.000125146

> <r_epik_State_Penalty>
1.15342

> <r_epik_Charging_Adjusted_Penalty>
1.16723

> <i_epik_Tot_Q>
0

> <i_epik_Tot_abs_Q>
0

> <r_epik_Metal_State_Penalty>
1.3173

> <b_epik_Metal_Only>
0

> <s_lp_Force_Field>
OPLS_2005

> <r_lp_Energy>
54.2082

> <b_lp_Chiralities_Consistent>
1

> <s_lp_Variant>
AV-unprocessed.smi:2124-15

> <Gold.Version>
5.8.1

> <Gold.Id.Protein>
6NUR|6NUR_protein|mol2

> <Gold.PLP.Fitness>
52.3775

> <Gold.PLP.PLP>
-48.0405

> <Gold.PLP.part.hbond>
-3.0000

> <Gold.PLP.part.metal>
0.0000

> <Gold.PLP.part.buried>
-3.1259

> <Gold.PLP.part.nonpolar>
-42.3401

> <Gold.PLP.part.repulsive>
1.1341

> <Gold.PLP.ligand.clash>
0.0000

> <Gold.PLP.ligand.torsion>
0.5215

> <Gold.PLP.Chemscore.Hbond>
1.7840

> <Gold.PLP.Chemscore.CHOScore>
0.0000

> <Gold.PLP.Chemscore.Metal>
0.0000

> <Gold.Chemscore.Hbonds>
donor molecule, donor type, donor heavy atom, donor atom, acceptor molecule, acceptor atom, score
      L1  H     3    23       P1  7948  1.00
      L1  H    10    32       P1  8028  0.69

> <Gold.PLP.Chemscore.Internal.Correction>
0.0279

> <Gold.Rescore>
     Score         DG    S(hbond)    S(metal)    S(lipo)     H(rot)  DE(clash)    DE(int)     intcor
     20.94     -22.32       1.82        0.00     128.14       1.65       0.84       0.54       ----

> <Gold.Chemscore.Fitness>
20.9441

> <Gold.Chemscore.DG>
-22.3241

> <Gold.Chemscore.ZeroCoef>
-5.4800

> <Gold.Chemscore.Hbond>
1.8218

> <Gold.Chemscore.Metal>
0.0000

> <Gold.Chemscore.Lipo>
128.1371

> <Gold.Chemscore.Internal_Hbond>
0.0000

> <Gold.Chemscore.DEClash>
0.8387

> <Gold.Chemscore.DEInternal>
0.5413

> <Gold.Chemscore.Rot>
1.6534

> <Gold.Chemscore.Internal.Correction>
   9.000000E+99

> <Gold.Chemscore.Hbonds>
donor molecule, donor type, donor heavy atom, donor atom, acceptor molecule, acceptor atom, score
      L1  H     3    23       P1  7948  0.93
      L1  H    10    32       P1  8028  0.66

> <Gold.Chemscore.Hbond.Weighted>
-6.0847

> <Gold.Chemscore.Metal.Weighted>
-0.0000

> <Gold.Chemscore.Lipo.Weighted>
-14.9920

> <Gold.Chemscore.Internal_Hbond.Weighted>
0.0000

> <Gold.Chemscore.DEClash.Weighted>
0.8387

> <Gold.Chemscore.DEInternal.Weighted>
0.5413

> <Gold.Chemscore.Rot.Weighted>
4.2326

> <Gold.Chemscore.Internal.Correction.Weighted>
   9.000000E+99

> <Gold.Protein.RotatedTorsions>
[ 6907 6896 6895 6894 ] final  115.63 input  -60.11 | X-H torsion
[ 7974 7965 7964 7962 ] final   57.92 input  175.53 | X-H torsion
[ 8008 7997 7996 7995 ] final   44.99 input   59.86 | X-H torsion
[ 10167 10162 10161 10158 ] final -140.95 input  -65.29 | X-H torsion
[ 10718 10713 10712 10709 ] final -113.38 input   66.30 | X-H torsion
[ 10763 10752 10751 10750 ] final  139.71 input  -60.55 | X-H torsion
[ 11005 11000 10999 10996 ] final   80.77 input  -57.11 | X-H torsion

> <Gold.Protein.ActiveResidues>
 VAL166  LYS551  ARG553  GLY616  TRP617  ASP618  TYR619  PRO620  LYS621  CYS622 
 ASP623  PHE694  ASN695  SER759  ASP760  ASP761  ALA762  ILE779  LEU786  VAL792 
 PHE793  MET794  SER795  GLU796  ALA797  LYS798  CYS799  TRP800  GLU811  SER814 

> <Gold.Protein.RotatedAtoms>
  152.4730  133.8072  159.6984 H   0  0  0  0  0  0  0  0  0  0  0  0  # atno 6907 bound_to 6896
  150.8729  133.7470  159.2962 H   0  0  0  0  0  0  0  0  0  0  0  0  # atno 6908 bound_to 6896
  151.4999  135.1064  159.9878 H   0  0  0  0  0  0  0  0  0  0  0  0  # atno 6909 bound_to 6896
  145.9238  139.3751  143.0462 H   0  0  0  0  0  0  0  0  0  0  0  0  # atno 7974 bound_to 7965
  155.3285  140.3401  155.4240 H   0  0  0  0  0  0  0  0  0  0  0  0  # atno 8008 bound_to 7997
  156.1873  140.1685  156.8196 H   0  0  0  0  0  0  0  0  0  0  0  0  # atno 8009 bound_to 7997
  154.5401  140.0726  156.8479 H   0  0  0  0  0  0  0  0  0  0  0  0  # atno 8010 bound_to 7997
  139.8232  143.7546  152.2666 H   0  0  0  0  0  0  0  0  0  0  0  0  # atno 10167 bound_to 10162
  156.0763  130.5970  150.8634 H   0  0  0  0  0  0  0  0  0  0  0  0  # atno 10718 bound_to 10713
  153.9106  135.3011  155.3448 H   0  0  0  0  0  0  0  0  0  0  0  0  # atno 10763 bound_to 10752
  154.7625  135.4927  153.9494 H   0  0  0  0  0  0  0  0  0  0  0  0  # atno 10764 bound_to 10752
  153.1195  135.6779  153.9462 H   0  0  0  0  0  0  0  0  0  0  0  0  # atno 10765 bound_to 10752
  139.9122  134.7946  156.1953 H   0  0  0  0  0  0  0  0  0  0  0  0  # atno 11005 bound_to 11000
  145.8515  140.9526  143.0747 LP  0  0  0  0  0  0  0  0  0  0  0  0  # atno 17320 bound_to 7965
  144.6756  140.0413  143.7481 LP  0  0  0  0  0  0  0  0  0  0  0  0  # atno 17321 bound_to 7965
  139.7731  144.7470  151.0196 LP  0  0  0  0  0  0  0  0  0  0  0  0  # atno 17342 bound_to 10162
  140.7812  143.4623  151.0260 LP  0  0  0  0  0  0  0  0  0  0  0  0  # atno 17343 bound_to 10162
  157.5860  131.0945  150.9196 LP  0  0  0  0  0  0  0  0  0  0  0  0  # atno 17370 bound_to 10713
  156.9382  130.5374  149.5280 LP  0  0  0  0  0  0  0  0  0  0  0  0  # atno 17371 bound_to 10713
  141.0558  133.6866  156.1858 LP  0  0  0  0  0  0  0  0  0  0  0  0  # atno 17394 bound_to 11000
  140.6738  134.4839  157.5588 LP  0  0  0  0  0  0  0  0  0  0  0  0  # atno 17395 bound_to 11000

$$$$
