AV-unprocessed.smi:1196|AV-procd|sdf|4996|dock10
  -GOLD-   22720 4 03D 1   1.00000     0.00000
 Structure written by MMmdl.
 37 38  0  0  0  0  0  0  0  0  1 V2000
  146.7011  134.2638  153.3285 C   0  0  0  0  0  0  0  0  0  0  0  0
  146.0090  135.0643  152.2142 C   0  0  2  0  0  0  0  0  0  0  0  0
  146.1601  134.3711  150.8459 C   0  0  0  0  0  0  0  0  0  0  0  0
  145.2431  133.2568  150.6824 N   0  0  0  0  0  0  0  0  0  0  0  0
  145.5358  131.9122  150.5897 C   0  0  0  0  0  0  0  0  0  0  0  0
  144.3522  131.2482  150.4396 C   0  0  0  0  0  0  0  0  0  0  0  0
  143.3783  132.2857  150.4561 C   0  0  0  0  0  0  0  0  0  0  0  0
  143.9144  133.4865  150.6038 N   0  0  0  0  0  0  0  0  0  0  0  0
  146.5621  136.4165  152.1557 N   0  0  0  0  0  0  0  0  0  0  0  0
  145.8893  137.5456  152.4263 C   0  0  0  0  0  0  0  0  0  0  0  0
  144.7090  137.5611  152.7763 O   0  0  0  0  0  0  0  0  0  0  0  0
  146.6736  138.8521  152.2696 C   0  0  0  0  0  0  0  0  0  0  0  0
  146.7460  139.6741  153.5715 C   0  0  0  0  0  0  0  0  0  0  0  0
  147.8249  140.7742  153.5319 C   0  0  2  0  0  0  0  0  0  0  0  0
  149.1754  140.2422  153.5992 N   0  0  0  0  0  0  0  0  0  0  0  0
  149.8550  140.7011  154.6591 C   0  0  0  0  0  0  0  0  0  0  0  0
  151.0141  140.4168  154.9509 O   0  0  0  0  0  0  0  0  0  0  0  0
  149.0493  141.5209  155.3424 N   0  0  0  0  0  0  0  0  0  0  0  0
  147.8436  141.6291  154.7869 C   0  0  0  0  0  0  0  0  0  0  0  0
  146.8963  142.2961  155.1982 O   0  0  0  0  0  0  0  0  0  0  0  0
  146.2908  133.2560  153.3983 H   0  0  0  0  0  0  0  0  0  0  0  0
  146.5654  134.7397  154.3002 H   0  0  0  0  0  0  0  0  0  0  0  0
  147.7728  134.1752  153.1473 H   0  0  0  0  0  0  0  0  0  0  0  0
  144.9445  135.1189  152.4501 H   0  0  0  0  0  0  0  0  0  0  0  0
  145.9957  135.0819  150.0348 H   0  0  0  0  0  0  0  0  0  0  0  0
  147.1763  133.9929  150.7257 H   0  0  0  0  0  0  0  0  0  0  0  0
  146.5503  131.5446  150.6347 H   0  0  0  0  0  0  0  0  0  0  0  0
  144.2043  130.1837  150.3343 H   0  0  0  0  0  0  0  0  0  0  0  0
  142.3052  132.2023  150.3664 H   0  0  0  0  0  0  0  0  0  0  0  0
  147.5283  136.4993  151.8755 H   0  0  0  0  0  0  0  0  0  0  0  0
  147.6813  138.6212  151.9211 H   0  0  0  0  0  0  0  0  0  0  0  0
  146.1990  139.4425  151.4852 H   0  0  0  0  0  0  0  0  0  0  0  0
  145.7775  140.1416  153.7573 H   0  0  0  0  0  0  0  0  0  0  0  0
  146.9283  139.0060  154.4156 H   0  0  0  0  0  0  0  0  0  0  0  0
  147.7152  141.4082  152.6512 H   0  0  0  0  0  0  0  0  0  0  0  0
  149.5497  139.6031  152.9133 H   0  0  0  0  0  0  0  0  0  0  0  0
  149.3217  141.9968  156.1901 H   0  0  0  0  0  0  0  0  0  0  0  0
  1  2  1  0  0  0  0
  1 21  1  0  0  0  0
  1 22  1  0  0  0  0
  1 23  1  0  0  0  0
  2  3  1  0  0  0  0
  2  9  1  0  0  0  0
  2 24  1  0  0  0  0
  3  4  1  0  0  0  0
  3 25  1  0  0  0  0
  3 26  1  0  0  0  0
  4  8  1  0  0  0  0
  4  5  1  0  0  0  0
  5  6  2  0  0  0  0
  5 27  1  0  0  0  0
  6  7  1  0  0  0  0
  6 28  1  0  0  0  0
  7  8  2  0  0  0  0
  7 29  1  0  0  0  0
  9 10  1  0  0  0  0
  9 30  1  0  0  0  0
 10 11  2  0  0  0  0
 10 12  1  0  0  0  0
 12 13  1  0  0  0  0
 12 31  1  0  0  0  0
 12 32  1  0  0  0  0
 13 14  1  0  0  0  0
 13 33  1  0  0  0  0
 13 34  1  0  0  0  0
 14 19  1  0  0  0  0
 14 15  1  0  0  0  0
 14 35  1  0  0  0  0
 15 16  1  0  0  0  0
 15 36  1  0  0  0  0
 16 17  2  0  0  0  0
 16 18  1  0  0  0  0
 18 19  1  0  0  0  0
 18 37  1  0  0  0  0
 19 20  2  0  0  0  0
M  END
> <s_m_source_file>
AV-unprocessed.smi

> <i_m_source_file_index>
1196

> <i_lp_mmshare_version>
43012

> <i_f3d_flags>
0

> <s_epik_input>
bjFbY0hdW2NIXVtjSF1uMVtDSDJdW0NAQEhdKFtDSDNdKVtOSF1DKD1PKVtDSDJdW0NIMl1bQ0BASF0yW05IXUMoPU8pW05IXUMyPU8=

> <s_epik_cmdline>
J2VwaWtfcHl0aG9uJywgJy1waCcsICc3LjAnLCAnLXRuJywgJzgnLCAnLW1hJywgJzIwMCcsICctbWV0YWxfYmluZGluZycsICctaW1hZScsICc8aW5maWxlLm1hZT4nLCAnLW9tYWUnLCAnPG91dGZpbGUubWFlPic=

> <r_lp_tautomer_probability>
1

> <r_epik_Ionization_Penalty>
0.00815973

> <r_epik_Ionization_Penalty_Charging>
0

> <r_epik_Ionization_Penalty_Neutral>
0.00815973

> <r_epik_State_Penalty>
0.00583796

> <r_epik_Charging_Adjusted_Penalty>
0.00583796

> <i_epik_Tot_Q>
0

> <i_epik_Tot_abs_Q>
0

> <r_epik_Metal_State_Penalty>
0.409204

> <b_epik_Metal_Only>
0

> <s_lp_Force_Field>
OPLS_2005

> <r_lp_Energy>
19.6523

> <b_lp_Chiralities_Consistent>
1

> <s_lp_Variant>
AV-unprocessed.smi:1196-1

> <Gold.Version>
5.8.1

> <Gold.Id.Protein>
6NUR|6NUR_protein|mol2

> <Gold.PLP.Fitness>
45.4727

> <Gold.PLP.PLP>
-31.4971

> <Gold.PLP.part.hbond>
-3.7801

> <Gold.PLP.part.metal>
0.0000

> <Gold.PLP.part.buried>
-1.6822

> <Gold.PLP.part.nonpolar>
-28.3623

> <Gold.PLP.part.repulsive>
1.9574

> <Gold.PLP.ligand.clash>
0.0000

> <Gold.PLP.ligand.torsion>
0.3391

> <Gold.PLP.Chemscore.Hbond>
2.4143

> <Gold.PLP.Chemscore.CHOScore>
2.4368

> <Gold.PLP.Chemscore.Metal>
0.0000

> <Gold.Chemscore.Hbonds>
donor molecule, donor type, donor heavy atom, donor atom, acceptor molecule, acceptor atom, score
      L1  H     9    30       P1  7948  0.75
      L1  H    15    36       P1  7957  0.43
      P1  H  7989  7998       L1    17  0.75
      L1  C     5    27       P1 10747  0.97
      L1  C     7    29       P1 10186  0.45
      L1  C     7    29       P1 10952  1.00

> <Gold.PLP.Chemscore.Internal.Correction>
0.1006

> <Gold.Rescore>
     Score         DG    S(hbond)    S(metal)    S(lipo)     H(rot)  DE(clash)    DE(int)     intcor
     13.75     -14.55       2.71        0.00      64.71       2.96       0.53       0.27       ----

> <Gold.Chemscore.Fitness>
13.7468

> <Gold.Chemscore.DG>
-14.5468

> <Gold.Chemscore.ZeroCoef>
-5.4800

> <Gold.Chemscore.Hbond>
2.7147

> <Gold.Chemscore.Metal>
0.0000

> <Gold.Chemscore.Lipo>
64.7109

> <Gold.Chemscore.Internal_Hbond>
0.0000

> <Gold.Chemscore.DEClash>
0.5325

> <Gold.Chemscore.DEInternal>
0.2675

> <Gold.Chemscore.Rot>
2.9575

> <Gold.Chemscore.Internal.Correction>
   9.000000E+99

> <Gold.Chemscore.Hbonds>
donor molecule, donor type, donor heavy atom, donor atom, acceptor molecule, acceptor atom, score
      L1  H     9    30       P1  7948  0.72
      L1  H    15    36       P1  7957  0.44
      P1  H  7989  7998       L1    17  0.09

> <Gold.Chemscore.Hbond.Weighted>
-9.0669

> <Gold.Chemscore.Metal.Weighted>
-0.0000

> <Gold.Chemscore.Lipo.Weighted>
-7.5712

> <Gold.Chemscore.Internal_Hbond.Weighted>
0.0000

> <Gold.Chemscore.DEClash.Weighted>
0.5325

> <Gold.Chemscore.DEInternal.Weighted>
0.2675

> <Gold.Chemscore.Rot.Weighted>
7.5713

> <Gold.Chemscore.Internal.Correction.Weighted>
   9.000000E+99

> <Gold.Protein.RotatedTorsions>
[ 6907 6896 6895 6894 ] final  -37.56 input  -60.11 | X-H torsion
[ 7974 7965 7964 7962 ] final  173.55 input  175.53 | X-H torsion
[ 8008 7997 7996 7995 ] final   77.26 input   59.86 | X-H torsion
[ 10167 10162 10161 10158 ] final   32.46 input  -65.29 | X-H torsion
[ 10718 10713 10712 10709 ] final  147.94 input   66.30 | X-H torsion
[ 10763 10752 10751 10750 ] final -116.51 input  -60.55 | X-H torsion
[ 11005 11000 10999 10996 ] final -116.24 input  -57.11 | X-H torsion

> <Gold.Protein.ActiveResidues>
 VAL166  LYS551  ARG553  GLY616  TRP617  ASP618  TYR619  PRO620  LYS621  CYS622 
 ASP623  PHE694  ASN695  SER759  ASP760  ASP761  ALA762  ILE779  LEU786  VAL792 
 PHE793  MET794  SER795  GLU796  ALA797  LYS798  CYS799  TRP800  GLU811  SER814 

> <Gold.Protein.RotatedAtoms>
  151.0132  134.9413  159.8018 H   0  0  0  0  0  0  0  0  0  0  0  0  # atno 6907 bound_to 6896
  152.5307  134.3001  159.9085 H   0  0  0  0  0  0  0  0  0  0  0  0  # atno 6908 bound_to 6896
  151.3007  133.4082  159.2674 H   0  0  0  0  0  0  0  0  0  0  0  0  # atno 6909 bound_to 6896
  144.7241  139.9665  143.6436 H   0  0  0  0  0  0  0  0  0  0  0  0  # atno 7974 bound_to 7965
  155.8391  140.3463  155.5621 H   0  0  0  0  0  0  0  0  0  0  0  0  # atno 8008 bound_to 7997
  155.8160  140.0906  157.1896 H   0  0  0  0  0  0  0  0  0  0  0  0  # atno 8009 bound_to 7997
  154.4005  140.1439  156.3430 H   0  0  0  0  0  0  0  0  0  0  0  0  # atno 8010 bound_to 7997
  140.4496  144.1067  150.6189 H   0  0  0  0  0  0  0  0  0  0  0  0  # atno 10167 bound_to 10162
  157.3148  131.0894  151.1288 H   0  0  0  0  0  0  0  0  0  0  0  0  # atno 10718 bound_to 10713
  154.8522  135.4343  154.1832 H   0  0  0  0  0  0  0  0  0  0  0  0  # atno 10763 bound_to 10752
  153.2918  135.6962  153.7292 H   0  0  0  0  0  0  0  0  0  0  0  0  # atno 10764 bound_to 10752
  153.6456  135.3460  155.3059 H   0  0  0  0  0  0  0  0  0  0  0  0  # atno 10765 bound_to 10752
  141.0435  133.9799  157.2956 H   0  0  0  0  0  0  0  0  0  0  0  0  # atno 11005 bound_to 11000
  146.0596  139.3591  143.0589 LP  0  0  0  0  0  0  0  0  0  0  0  0  # atno 17320 bound_to 7965
  145.8109  140.9726  143.0949 LP  0  0  0  0  0  0  0  0  0  0  0  0  # atno 17321 bound_to 7965
  140.4222  143.2606  151.9701 LP  0  0  0  0  0  0  0  0  0  0  0  0  # atno 17342 bound_to 10162
  139.4795  144.5820  151.7916 LP  0  0  0  0  0  0  0  0  0  0  0  0  # atno 17343 bound_to 10162
  157.2596  130.6652  149.5968 LP  0  0  0  0  0  0  0  0  0  0  0  0  # atno 17370 bound_to 10713
  155.9680  130.4513  150.5729 LP  0  0  0  0  0  0  0  0  0  0  0  0  # atno 17371 bound_to 10713
  139.9294  135.0200  156.8347 LP  0  0  0  0  0  0  0  0  0  0  0  0  # atno 17394 bound_to 11000
  140.6190  134.0011  155.7610 LP  0  0  0  0  0  0  0  0  0  0  0  0  # atno 17395 bound_to 11000

$$$$
