AV-unprocessed.smi:1645|AV-procd|sdf|6623|dock9
  -GOLD-   22720 7323D 1   1.00000     0.00000
 Structure written by MMmdl.
 55 58  0  0  0  0  0  0  0  0  4 V2000
  151.3630  135.8507  155.5374 O   0  0  0  0  0  0  0  0  0  0  0  0
  150.1746  136.0557  155.2643 C   0  0  0  0  0  0  0  0  0  0  0  0
  149.6088  137.2426  155.5465 N   0  0  0  0  0  0  0  0  0  0  0  0
  150.1652  138.3550  156.2323 C   0  0  0  0  0  0  0  0  0  0  0  0
  151.2345  138.2570  157.1542 C   0  0  0  0  0  0  0  0  0  0  0  0
  151.6984  139.4169  157.8075 C   0  0  0  0  0  0  0  0  0  0  0  0
  151.0888  140.6702  157.5463 C   0  0  0  0  0  0  0  0  0  0  0  0
  151.4811  141.8815  158.1607 N   0  0  0  0  0  0  0  0  0  0  0  0
  151.3418  143.0962  157.3506 C   0  0  0  0  0  0  0  0  0  0  0  0
  151.3810  144.3633  158.2221 C   0  0  0  0  0  0  0  0  0  0  0  0
  152.6287  144.3827  159.1156 C   0  0  0  0  0  0  0  0  0  0  0  0
  152.6845  143.1012  159.9578 C   0  0  0  0  0  0  0  0  0  0  0  0
  152.6299  141.8475  159.0682 C   0  0  0  0  0  0  0  0  0  0  0  0
  150.0578  140.7045  156.6669 N   0  3  0  0  0  0  0  0  0  0  0  0
  149.5810  139.6189  156.0206 C   0  0  0  0  0  0  0  0  0  0  0  0
  149.3038  135.2021  154.6620 N   0  5  0  0  0  0  0  0  0  0  0  0
  149.6569  133.8780  154.1451 C   0  0  1  0  0  0  0  0  0  0  0  0
  150.3230  132.9985  155.2216 C   0  0  0  0  0  0  0  0  0  0  0  0
  149.8192  131.5667  154.9562 C   0  0  0  0  0  0  0  0  0  0  0  0
  148.9029  131.6766  153.8046 N   0  3  1  0  0  0  0  0  0  0  0  0
  147.8178  130.6759  153.7046 C   0  0  0  0  0  0  0  0  0  0  0  0
  147.0482  130.8901  152.3855 C   0  0  0  0  0  0  0  0  0  0  0  0
  146.5627  132.3468  152.2332 C   0  0  0  0  0  0  0  0  0  0  0  0
  147.7207  133.3453  152.4314 C   0  0  0  0  0  0  0  0  0  0  0  0
  148.4094  133.0632  153.7828 C   0  0  2  0  0  0  0  0  0  0  0  0
  148.6754  137.3746  155.1852 H   0  0  0  0  0  0  0  0  0  0  0  0
  151.6983  137.3098  157.3832 H   0  0  0  0  0  0  0  0  0  0  0  0
  152.5220  139.3171  158.4977 H   0  0  0  0  0  0  0  0  0  0  0  0
  152.1528  143.1220  156.6219 H   0  0  0  0  0  0  0  0  0  0  0  0
  150.4113  143.0987  156.7836 H   0  0  0  0  0  0  0  0  0  0  0  0
  151.3602  145.2508  157.5891 H   0  0  0  0  0  0  0  0  0  0  0  0
  150.4859  144.4066  158.8444 H   0  0  0  0  0  0  0  0  0  0  0  0
  153.5254  144.4603  158.4996 H   0  0  0  0  0  0  0  0  0  0  0  0
  152.6153  145.2601  159.7630 H   0  0  0  0  0  0  0  0  0  0  0  0
  153.5917  143.0897  160.5623 H   0  0  0  0  0  0  0  0  0  0  0  0
  151.8467  143.0888  160.6565 H   0  0  0  0  0  0  0  0  0  0  0  0
  152.5749  140.9725  159.7164 H   0  0  0  0  0  0  0  0  0  0  0  0
  153.5454  141.7633  158.4811 H   0  0  0  0  0  0  0  0  0  0  0  0
  148.7513  139.7962  155.3517 H   0  0  0  0  0  0  0  0  0  0  0  0
  150.3084  133.9238  153.2706 H   0  0  0  0  0  0  0  0  0  0  0  0
  151.4102  133.0654  155.1705 H   0  0  0  0  0  0  0  0  0  0  0  0
  150.0253  133.3036  156.2264 H   0  0  0  0  0  0  0  0  0  0  0  0
  150.6323  130.8762  154.7287 H   0  0  0  0  0  0  0  0  0  0  0  0
  149.2890  131.1863  155.8314 H   0  0  0  0  0  0  0  0  0  0  0  0
  148.2414  129.6715  153.7347 H   0  0  0  0  0  0  0  0  0  0  0  0
  147.1466  130.7703  154.5597 H   0  0  0  0  0  0  0  0  0  0  0  0
  147.6981  130.6399  151.5458 H   0  0  0  0  0  0  0  0  0  0  0  0
  146.2010  130.2059  152.3321 H   0  0  0  0  0  0  0  0  0  0  0  0
  146.1066  132.4905  151.2534 H   0  0  0  0  0  0  0  0  0  0  0  0
  145.7829  132.5469  152.9690 H   0  0  0  0  0  0  0  0  0  0  0  0
  148.4271  133.2490  151.6045 H   0  0  0  0  0  0  0  0  0  0  0  0
  147.3347  134.3657  152.3976 H   0  0  0  0  0  0  0  0  0  0  0  0
  147.6738  133.1708  154.5842 H   0  0  0  0  0  0  0  0  0  0  0  0
  149.4787  131.5784  152.9806 H   0  0  0  0  0  0  0  0  0  0  0  0
  149.6110  141.6029  156.4844 H   0  0  0  0  0  0  0  0  0  0  0  0
  1  2  2  0  0  0  0
  2  3  1  0  0  0  0
  2 16  1  0  0  0  0
  3  4  1  0  0  0  0
  3 26  1  0  0  0  0
  4 15  1  0  0  0  0
  4  5  2  0  0  0  0
  5  6  1  0  0  0  0
  5 27  1  0  0  0  0
  6  7  2  0  0  0  0
  6 28  1  0  0  0  0
  7  8  1  0  0  0  0
  7 14  1  0  0  0  0
  8 13  1  0  0  0  0
  8  9  1  0  0  0  0
  9 10  1  0  0  0  0
  9 29  1  0  0  0  0
  9 30  1  0  0  0  0
 10 11  1  0  0  0  0
 10 31  1  0  0  0  0
 10 32  1  0  0  0  0
 11 12  1  0  0  0  0
 11 33  1  0  0  0  0
 11 34  1  0  0  0  0
 12 13  1  0  0  0  0
 12 35  1  0  0  0  0
 12 36  1  0  0  0  0
 13 37  1  0  0  0  0
 13 38  1  0  0  0  0
 14 15  2  0  0  0  0
 14 55  1  0  0  0  0
 15 39  1  0  0  0  0
 16 17  1  0  0  0  0
 17 25  1  0  0  0  0
 17 18  1  0  0  0  0
 17 40  1  0  0  0  0
 18 19  1  0  0  0  0
 18 41  1  0  0  0  0
 18 42  1  0  0  0  0
 19 20  1  0  0  0  0
 19 43  1  0  0  0  0
 19 44  1  0  0  0  0
 20 25  1  0  0  0  0
 20 21  1  0  0  0  0
 20 54  1  0  0  0  0
 21 22  1  0  0  0  0
 21 45  1  0  0  0  0
 21 46  1  0  0  0  0
 22 23  1  0  0  0  0
 22 47  1  0  0  0  0
 22 48  1  0  0  0  0
 23 24  1  0  0  0  0
 23 49  1  0  0  0  0
 23 50  1  0  0  0  0
 24 25  1  0  0  0  0
 24 51  1  0  0  0  0
 24 52  1  0  0  0  0
 25 53  1  0  0  0  0
M  CHG  1  14   1
M  CHG  1  16  -1
M  CHG  1  20   1
M  END
> <s_m_source_file>
AV-unprocessed.smi

> <i_m_source_file_index>
1645

> <i_lp_mmshare_version>
43012

> <i_f3d_flags>
0

> <s_epik_input>
W0NIMl0xW0NIMl1bQ0gyXVtDSDJdW0NASF0oTjEyKVtDQEBIXShbQ0gyXVtDSDJdMilbTkhdQyg9TylbTkhdYzNbY0hdW2NIXWMobltjSF0zKU40W0NIMl1bQ0gyXVtDSDJdW0NIMl1bQ0gyXTQ=

> <s_epik_cmdline>
J2VwaWtfcHl0aG9uJywgJy1waCcsICc3LjAnLCAnLXRuJywgJzgnLCAnLW1hJywgJzIwMCcsICctbWV0YWxfYmluZGluZycsICctaW1hZScsICc8aW5maWxlLm1hZT4nLCAnLW9tYWUnLCAnPG91dGZpbGUubWFlPic=

> <r_lp_tautomer_probability>
0.999994

> <r_epik_Ionization_Penalty>
8.55589

> <r_epik_Ionization_Penalty_Charging>
8.55589

> <r_epik_Ionization_Penalty_Neutral>
3.8092e-06

> <r_epik_State_Penalty>
8.15703

> <r_epik_Charging_Adjusted_Penalty>
16.7129

> <i_epik_Tot_Q>
1

> <i_epik_Tot_abs_Q>
3

> <r_epik_Metal_State_Penalty>
4.13781

> <b_epik_Metal_Only>
1

> <s_lp_Force_Field>
OPLS_2005

> <r_lp_Energy>
51.9528

> <b_lp_Chiralities_Consistent>
1

> <s_lp_Variant>
AV-unprocessed.smi:1645-24

> <Gold.Version>
5.8.1

> <Gold.Id.Protein>
6NUR|6NUR_protein|mol2

> <Gold.PLP.Fitness>
45.0750

> <Gold.PLP.PLP>
-42.5950

> <Gold.PLP.part.hbond>
-1.0000

> <Gold.PLP.part.metal>
0.0000

> <Gold.PLP.part.buried>
-5.1260

> <Gold.PLP.part.nonpolar>
-36.9226

> <Gold.PLP.part.repulsive>
0.5702

> <Gold.PLP.ligand.clash>
0.0000

> <Gold.PLP.ligand.torsion>
0.4131

> <Gold.PLP.Chemscore.Hbond>
1.0000

> <Gold.PLP.Chemscore.CHOScore>
0.0000

> <Gold.PLP.Chemscore.Metal>
0.0000

> <Gold.Chemscore.Hbonds>
donor molecule, donor type, donor heavy atom, donor atom, acceptor molecule, acceptor atom, score
      P1  H 10752 10763       L1     1  1.00

> <Gold.PLP.Chemscore.Internal.Correction>
0.3062

> <Gold.Rescore>
     Score         DG    S(hbond)    S(metal)    S(lipo)     H(rot)  DE(clash)    DE(int)     intcor
     18.30     -20.05       0.99        0.00     118.04       1.00       0.09       1.66       ----

> <Gold.Chemscore.Fitness>
18.3028

> <Gold.Chemscore.DG>
-20.0492

> <Gold.Chemscore.ZeroCoef>
-5.4800

> <Gold.Chemscore.Hbond>
0.9937

> <Gold.Chemscore.Metal>
0.0000

> <Gold.Chemscore.Lipo>
118.0358

> <Gold.Chemscore.Internal_Hbond>
0.0000

> <Gold.Chemscore.DEClash>
0.0886

> <Gold.Chemscore.DEInternal>
1.6577

> <Gold.Chemscore.Rot>
1.0000

> <Gold.Chemscore.Internal.Correction>
   9.000000E+99

> <Gold.Chemscore.Hbonds>
donor molecule, donor type, donor heavy atom, donor atom, acceptor molecule, acceptor atom, score
      P1  H 10752 10763       L1     1  0.98

> <Gold.Chemscore.Hbond.Weighted>
-3.3190

> <Gold.Chemscore.Metal.Weighted>
-0.0000

> <Gold.Chemscore.Lipo.Weighted>
-13.8102

> <Gold.Chemscore.Internal_Hbond.Weighted>
0.0000

> <Gold.Chemscore.DEClash.Weighted>
0.0886

> <Gold.Chemscore.DEInternal.Weighted>
1.6577

> <Gold.Chemscore.Rot.Weighted>
2.5600

> <Gold.Chemscore.Internal.Correction.Weighted>
   9.000000E+99

> <Gold.Protein.RotatedTorsions>
[ 6907 6896 6895 6894 ] final  165.22 input  -60.11 | X-H torsion
[ 7974 7965 7964 7962 ] final -148.40 input  175.53 | X-H torsion
[ 8008 7997 7996 7995 ] final  126.89 input   59.86 | X-H torsion
[ 10167 10162 10161 10158 ] final   75.41 input  -65.29 | X-H torsion
[ 10718 10713 10712 10709 ] final -115.90 input   66.30 | X-H torsion
[ 10763 10752 10751 10750 ] final   56.90 input  -60.55 | X-H torsion
[ 11005 11000 10999 10996 ] final -126.55 input  -57.11 | X-H torsion

> <Gold.Protein.ActiveResidues>
 VAL166  LYS551  ARG553  GLY616  TRP617  ASP618  TYR619  PRO620  LYS621  CYS622 
 ASP623  PHE694  ASN695  SER759  ASP760  ASP761  ALA762  ILE779  LEU786  VAL792 
 PHE793  MET794  SER795  GLU796  ALA797  LYS798  CYS799  TRP800  GLU811  SER814 

> <Gold.Protein.RotatedAtoms>
  151.8977  133.3530  159.3819 H   0  0  0  0  0  0  0  0  0  0  0  0  # atno 6907 bound_to 6896
  150.7087  134.4860  159.5502 H   0  0  0  0  0  0  0  0  0  0  0  0  # atno 6908 bound_to 6896
  152.2442  134.8198  160.0506 H   0  0  0  0  0  0  0  0  0  0  0  0  # atno 6909 bound_to 6896
  144.8031  140.5201  143.5693 H   0  0  0  0  0  0  0  0  0  0  0  0  # atno 7974 bound_to 7965
  156.2876  140.2682  156.2184 H   0  0  0  0  0  0  0  0  0  0  0  0  # atno 8008 bound_to 7997
  155.0193  140.0386  157.2449 H   0  0  0  0  0  0  0  0  0  0  0  0  # atno 8009 bound_to 7997
  154.7449  140.2732  155.6346 H   0  0  0  0  0  0  0  0  0  0  0  0  # atno 8010 bound_to 7997
  140.0033  144.5670  150.7719 H   0  0  0  0  0  0  0  0  0  0  0  0  # atno 10167 bound_to 10162
  156.0927  130.6106  150.8966 H   0  0  0  0  0  0  0  0  0  0  0  0  # atno 10718 bound_to 10713
  152.9840  135.5660  154.5303 H   0  0  0  0  0  0  0  0  0  0  0  0  # atno 10763 bound_to 10752
  154.4776  135.2787  155.1597 H   0  0  0  0  0  0  0  0  0  0  0  0  # atno 10764 bound_to 10752
  154.3119  135.6286  153.5523 H   0  0  0  0  0  0  0  0  0  0  0  0  # atno 10765 bound_to 10752
  140.9672  134.0856  157.3908 H   0  0  0  0  0  0  0  0  0  0  0  0  # atno 11005 bound_to 11000
  145.5503  139.1476  143.3398 LP  0  0  0  0  0  0  0  0  0  0  0  0  # atno 17320 bound_to 7965
  146.2317  140.5641  142.8972 LP  0  0  0  0  0  0  0  0  0  0  0  0  # atno 17321 bound_to 7965
  140.7410  143.2812  151.3592 LP  0  0  0  0  0  0  0  0  0  0  0  0  # atno 17342 bound_to 10162
  139.6256  144.0820  152.2431 LP  0  0  0  0  0  0  0  0  0  0  0  0  # atno 17343 bound_to 10162
  157.6080  131.0938  150.8845 LP  0  0  0  0  0  0  0  0  0  0  0  0  # atno 17370 bound_to 10713
  156.8990  130.5240  149.5283 LP  0  0  0  0  0  0  0  0  0  0  0  0  # atno 17371 bound_to 10713
  139.8899  135.0108  156.6704 LP  0  0  0  0  0  0  0  0  0  0  0  0  # atno 17394 bound_to 11000
  140.7382  133.9000  155.8259 LP  0  0  0  0  0  0  0  0  0  0  0  0  # atno 17395 bound_to 11000

$$$$
