AV-unprocessed.smi:2935|AV-procd|sdf|11256|dock7
  -GOLD-   2272016153D 1   1.00000     0.00000
 Structure written by MMmdl.
 36 37  0  0  0  0  0  0  0  0  1 V2000
  151.8114  143.9032  156.5612 C   0  0  0  0  0  0  0  0  0  0  0  0
  151.1705  142.8916  157.5352 C   0  0  0  0  0  0  0  0  0  0  0  0
  150.4158  141.8231  156.7117 C   0  0  0  0  0  0  0  0  0  0  0  0
  150.6847  140.6324  156.8801 O   0  0  0  0  0  0  0  0  0  0  0  0
  149.4701  142.2623  155.8583 N   0  0  0  0  0  0  0  0  0  0  0  0
  148.6509  141.4921  154.9943 C   0  0  0  0  0  0  0  0  0  0  0  0
  147.4960  142.0622  154.3919 C   0  0  0  0  0  0  0  0  0  0  0  0
  146.9871  141.0331  153.6515 C   0  0  0  0  0  0  0  0  0  0  0  0
  147.8162  139.9431  153.8301 N   0  0  0  0  0  0  0  0  0  0  0  0
  147.6939  138.6143  153.2579 C   0  0  0  0  0  0  0  0  0  0  0  0
  146.5000  138.5283  152.3054 C   0  0  0  0  0  0  0  0  0  0  0  0
  146.5741  139.2276  151.1698 N   0  0  0  0  0  0  0  0  0  0  0  0
  145.5221  137.8420  152.5930 O   0  0  0  0  0  0  0  0  0  0  0  0
  148.8458  140.2245  154.6585 N   0  0  0  0  0  0  0  0  0  0  0  0
  152.2226  142.2942  158.4958 C   0  0  0  0  0  0  0  0  0  0  0  0
  152.3938  143.3194  159.6186 C   0  0  0  0  0  0  0  0  0  0  0  0
  151.0615  144.0701  159.7106 C   0  0  0  0  0  0  0  0  0  0  0  0
  150.2171  143.6148  158.5120 C   0  0  0  0  0  0  0  0  0  0  0  0
  152.3190  144.7085  157.0925 H   0  0  0  0  0  0  0  0  0  0  0  0
  151.0639  144.3652  155.9149 H   0  0  0  0  0  0  0  0  0  0  0  0
  152.5494  143.4220  155.9180 H   0  0  0  0  0  0  0  0  0  0  0  0
  149.3259  143.2608  155.8237 H   0  0  0  0  0  0  0  0  0  0  0  0
  147.1017  143.0630  154.4874 H   0  0  0  0  0  0  0  0  0  0  0  0
  146.1120  140.9837  153.0201 H   0  0  0  0  0  0  0  0  0  0  0  0
  148.6152  138.3780  152.7240 H   0  0  0  0  0  0  0  0  0  0  0  0
  147.5888  137.8787  154.0572 H   0  0  0  0  0  0  0  0  0  0  0  0
  145.8046  139.2069  150.5161 H   0  0  0  0  0  0  0  0  0  0  0  0
  147.3952  139.7813  150.9735 H   0  0  0  0  0  0  0  0  0  0  0  0
  151.8615  141.3624  158.9351 H   0  0  0  0  0  0  0  0  0  0  0  0
  153.1704  142.0751  158.0024 H   0  0  0  0  0  0  0  0  0  0  0  0
  152.6679  142.8475  160.5626 H   0  0  0  0  0  0  0  0  0  0  0  0
  153.1903  144.0187  159.3619 H   0  0  0  0  0  0  0  0  0  0  0  0
  150.5474  143.8545  160.6478 H   0  0  0  0  0  0  0  0  0  0  0  0
  151.2344  145.1463  159.6757 H   0  0  0  0  0  0  0  0  0  0  0  0
  149.7003  144.4543  158.0448 H   0  0  0  0  0  0  0  0  0  0  0  0
  149.4451  142.9324  158.8728 H   0  0  0  0  0  0  0  0  0  0  0  0
  1  2  1  0  0  0  0
  1 19  1  0  0  0  0
  1 20  1  0  0  0  0
  1 21  1  0  0  0  0
  2 18  1  0  0  0  0
  2  3  1  0  0  0  0
  2 15  1  0  0  0  0
  3  4  2  0  0  0  0
  3  5  1  0  0  0  0
  5  6  1  0  0  0  0
  5 22  1  0  0  0  0
  6 14  2  0  0  0  0
  6  7  1  0  0  0  0
  7  8  2  0  0  0  0
  7 23  1  0  0  0  0
  8  9  1  0  0  0  0
  8 24  1  0  0  0  0
  9 10  1  0  0  0  0
  9 14  1  0  0  0  0
 10 11  1  0  0  0  0
 10 25  1  0  0  0  0
 10 26  1  0  0  0  0
 11 12  1  0  0  0  0
 11 13  2  0  0  0  0
 12 27  1  0  0  0  0
 12 28  1  0  0  0  0
 15 16  1  0  0  0  0
 15 29  1  0  0  0  0
 15 30  1  0  0  0  0
 16 17  1  0  0  0  0
 16 31  1  0  0  0  0
 16 32  1  0  0  0  0
 17 18  1  0  0  0  0
 17 33  1  0  0  0  0
 17 34  1  0  0  0  0
 18 35  1  0  0  0  0
 18 36  1  0  0  0  0
M  END
> <s_m_source_file>
AV-unprocessed.smi

> <i_m_source_file_index>
2935

> <i_lp_mmshare_version>
43012

> <i_f3d_flags>
0

> <s_epik_input>
W0NIMl0xW0NIMl1bQ0gyXVtDSDJdQzEoW0NIM10pQyg9TylbTkhdYzJbY0hdW2NIXW4objIpW0NIMl1DKD1PKVtOSDJd

> <s_epik_cmdline>
J2VwaWtfcHl0aG9uJywgJy1waCcsICc3LjAnLCAnLXRuJywgJzgnLCAnLW1hJywgJzIwMCcsICctbWV0YWxfYmluZGluZycsICctaW1hZScsICc8aW5maWxlLm1hZT4nLCAnLW9tYWUnLCAnPG91dGZpbGUubWFlPic=

> <r_lp_tautomer_probability>
1

> <r_epik_Ionization_Penalty>
1.6611e-05

> <r_epik_Ionization_Penalty_Charging>
0

> <r_epik_Ionization_Penalty_Neutral>
1.6611e-05

> <r_epik_State_Penalty>
-0

> <r_epik_Charging_Adjusted_Penalty>
0

> <i_epik_Tot_Q>
0

> <i_epik_Tot_abs_Q>
0

> <r_epik_Metal_State_Penalty>
-0

> <b_epik_Metal_Only>
0

> <s_lp_Force_Field>
OPLS_2005

> <r_lp_Energy>
27.108

> <b_lp_Chiralities_Consistent>
1

> <s_lp_Variant>
AV-unprocessed.smi:2935-1

> <Gold.Version>
5.8.1

> <Gold.Id.Protein>
6NUR|6NUR_protein|mol2

> <Gold.PLP.Fitness>
41.3434

> <Gold.PLP.PLP>
-31.4077

> <Gold.PLP.part.hbond>
-2.7086

> <Gold.PLP.part.metal>
0.0000

> <Gold.PLP.part.buried>
-2.3955

> <Gold.PLP.part.nonpolar>
-28.6512

> <Gold.PLP.part.repulsive>
0.5940

> <Gold.PLP.ligand.clash>
0.0000

> <Gold.PLP.ligand.torsion>
0.1698

> <Gold.PLP.Chemscore.Hbond>
2.4463

> <Gold.PLP.Chemscore.CHOScore>
0.9624

> <Gold.PLP.Chemscore.Metal>
0.0000

> <Gold.Chemscore.Hbonds>
donor molecule, donor type, donor heavy atom, donor atom, acceptor molecule, acceptor atom, score
      L1  H     5    22       P1  8028  1.00
      L1  H    12    27       P1 10171  0.78
      L1  H    12    28       P1  7957  0.63
      L1  C     8    24       P1 10175  1.00

> <Gold.PLP.Chemscore.Internal.Correction>
0.0491

> <Gold.Rescore>
     Score         DG    S(hbond)    S(metal)    S(lipo)     H(rot)  DE(clash)    DE(int)     intcor
     14.98     -18.00       2.27        0.00      83.94       1.91       1.56       1.46       ----

> <Gold.Chemscore.Fitness>
14.9760

> <Gold.Chemscore.DG>
-17.9988

> <Gold.Chemscore.ZeroCoef>
-5.4800

> <Gold.Chemscore.Hbond>
2.2723

> <Gold.Chemscore.Metal>
0.0000

> <Gold.Chemscore.Lipo>
83.9408

> <Gold.Chemscore.Internal_Hbond>
0.0000

> <Gold.Chemscore.DEClash>
1.5613

> <Gold.Chemscore.DEInternal>
1.4615

> <Gold.Chemscore.Rot>
1.9108

> <Gold.Chemscore.Internal.Correction>
   9.000000E+99

> <Gold.Chemscore.Hbonds>
donor molecule, donor type, donor heavy atom, donor atom, acceptor molecule, acceptor atom, score
      L1  H     5    22       P1  8028  0.93
      L1  H    12    27       P1 10171  0.76
      L1  H    12    28       P1  7957  0.52

> <Gold.Chemscore.Hbond.Weighted>
-7.5893

> <Gold.Chemscore.Metal.Weighted>
-0.0000

> <Gold.Chemscore.Lipo.Weighted>
-9.8211

> <Gold.Chemscore.Internal_Hbond.Weighted>
0.0000

> <Gold.Chemscore.DEClash.Weighted>
1.5613

> <Gold.Chemscore.DEInternal.Weighted>
1.4615

> <Gold.Chemscore.Rot.Weighted>
4.8916

> <Gold.Chemscore.Internal.Correction.Weighted>
   9.000000E+99

> <Gold.Protein.RotatedTorsions>
[ 6907 6896 6895 6894 ] final  142.03 input  -60.11 | X-H torsion
[ 7974 7965 7964 7962 ] final  124.88 input  175.53 | X-H torsion
[ 8008 7997 7996 7995 ] final -143.55 input   59.86 | X-H torsion
[ 10167 10162 10161 10158 ] final   27.87 input  -65.29 | X-H torsion
[ 10718 10713 10712 10709 ] final -110.42 input   66.30 | X-H torsion
[ 10763 10752 10751 10750 ] final  -75.95 input  -60.55 | X-H torsion
[ 11005 11000 10999 10996 ] final -170.13 input  -57.11 | X-H torsion

> <Gold.Protein.ActiveResidues>
 VAL166  LYS551  ARG553  GLY616  TRP617  ASP618  TYR619  PRO620  LYS621  CYS622 
 ASP623  PHE694  ASN695  SER759  ASP760  ASP761  ALA762  ILE779  LEU786  VAL792 
 PHE793  MET794  SER795  GLU796  ALA797  LYS798  CYS799  TRP800  GLU811  SER814 

> <Gold.Protein.RotatedAtoms>
  152.2237  133.5003  159.5176 H   0  0  0  0  0  0  0  0  0  0  0  0  # atno 6907 bound_to 6896
  150.7019  134.1308  159.4078 H   0  0  0  0  0  0  0  0  0  0  0  0  # atno 6908 bound_to 6896
  151.9229  135.0290  160.0574 H   0  0  0  0  0  0  0  0  0  0  0  0  # atno 6909 bound_to 6896
  145.0793  139.3669  143.4917 H   0  0  0  0  0  0  0  0  0  0  0  0  # atno 7974 bound_to 7965
  155.5124  140.0584  157.2921 H   0  0  0  0  0  0  0  0  0  0  0  0  # atno 8008 bound_to 7997
  154.4547  140.1967  156.0362 H   0  0  0  0  0  0  0  0  0  0  0  0  # atno 8009 bound_to 7997
  156.0775  140.3251  155.7656 H   0  0  0  0  0  0  0  0  0  0  0  0  # atno 8010 bound_to 7997
  140.4901  144.0480  150.6294 H   0  0  0  0  0  0  0  0  0  0  0  0  # atno 10167 bound_to 10162
  156.0590  130.5814  150.8234 H   0  0  0  0  0  0  0  0  0  0  0  0  # atno 10718 bound_to 10713
  154.4934  135.5814  153.6476 H   0  0  0  0  0  0  0  0  0  0  0  0  # atno 10763 bound_to 10752
  152.9866  135.6118  154.3095 H   0  0  0  0  0  0  0  0  0  0  0  0  # atno 10764 bound_to 10752
  154.2997  135.2847  155.2596 H   0  0  0  0  0  0  0  0  0  0  0  0  # atno 10765 bound_to 10752
  140.5229  134.5692  157.5053 H   0  0  0  0  0  0  0  0  0  0  0  0  # atno 11005 bound_to 11000
  146.3530  140.0576  142.8631 LP  0  0  0  0  0  0  0  0  0  0  0  0  # atno 17320 bound_to 7965
  145.1197  140.9455  143.4607 LP  0  0  0  0  0  0  0  0  0  0  0  0  # atno 17321 bound_to 7965
  140.3747  143.2835  152.0239 LP  0  0  0  0  0  0  0  0  0  0  0  0  # atno 17342 bound_to 10162
  139.4849  144.6202  151.7269 LP  0  0  0  0  0  0  0  0  0  0  0  0  # atno 17343 bound_to 10162
  157.5583  131.0945  150.9596 LP  0  0  0  0  0  0  0  0  0  0  0  0  # atno 17370 bound_to 10713
  156.9840  130.5538  149.5298 LP  0  0  0  0  0  0  0  0  0  0  0  0  # atno 17371 bound_to 10713
  139.9596  134.7475  156.0266 LP  0  0  0  0  0  0  0  0  0  0  0  0  # atno 17394 bound_to 11000
  141.1324  133.6583  156.3501 LP  0  0  0  0  0  0  0  0  0  0  0  0  # atno 17395 bound_to 11000

$$$$
