AV-unprocessed.smi:1240|AV-procd|sdf|5197|dock1
  -GOLD-   22720 4283D 1   1.00000     0.00000
 Structure written by MMmdl.
 47 49  0  0  0  0  0  0  0  0  1 V2000
  145.4594  134.8695  154.1067 O   0  0  0  0  0  0  0  0  0  0  0  0
  146.3751  135.2547  153.3800 C   0  0  0  0  0  0  0  0  0  0  0  0
  147.2929  136.1529  153.7650 N   0  0  0  0  0  0  0  0  0  0  0  0
  147.3319  136.8036  155.0722 C   0  0  0  0  0  0  0  0  0  0  0  0
  148.6004  137.6873  155.2920 C   0  0  2  0  0  0  0  0  0  0  0  0
  149.2314  137.3369  156.6835 C   0  0  1  0  0  0  0  0  0  0  0  0
  148.4700  137.6436  157.9619 C   0  0  0  0  0  0  0  0  0  0  0  0
  149.2891  136.8753  158.9916 C   0  0  0  0  0  0  0  0  0  0  0  0
  149.7059  135.6919  158.3192 O   0  0  0  0  0  0  0  0  0  0  0  0
  149.5596  135.8558  156.9102 C   0  0  0  0  0  0  0  0  0  0  0  0
  148.3993  139.1432  155.0780 N   0  0  0  0  0  0  0  0  0  0  0  0
  149.6613  139.8880  155.1836 C   0  0  0  0  0  0  0  0  0  0  0  0
  149.4524  141.4068  155.0700 C   0  0  0  0  0  0  0  0  0  0  0  0
  148.8368  141.7036  153.8226 O   0  0  0  0  0  0  0  0  0  0  0  0
  147.5954  141.0296  153.6553 C   0  0  0  0  0  0  0  0  0  0  0  0
  147.8016  139.5099  153.7900 C   0  0  0  0  0  0  0  0  0  0  0  0
  146.5818  134.8648  152.1103 N   0  0  0  0  0  0  0  0  0  0  0  0
  145.8241  133.9537  151.3253 C   0  0  0  0  0  0  0  0  0  0  0  0
  146.5314  133.0459  150.5101 C   0  0  0  0  0  0  0  0  0  0  0  0
  145.8047  132.1229  149.7320 C   0  0  0  0  0  0  0  0  0  0  0  0
  144.4571  132.0531  149.7308 N   0  0  0  0  0  0  0  0  0  0  0  0
  143.7819  132.9129  150.5225 C   0  0  0  0  0  0  0  0  0  0  0  0
  144.4106  133.8745  151.3385 C   0  0  0  0  0  0  0  0  0  0  0  0
  148.0100  136.4157  153.1049 H   0  0  0  0  0  0  0  0  0  0  0  0
  146.4195  137.3949  155.1594 H   0  0  0  0  0  0  0  0  0  0  0  0
  147.2667  136.0282  155.8356 H   0  0  0  0  0  0  0  0  0  0  0  0
  149.3139  137.3529  154.5375 H   0  0  0  0  0  0  0  0  0  0  0  0
  150.1689  137.8892  156.7644 H   0  0  0  0  0  0  0  0  0  0  0  0
  148.3984  138.7088  158.1832 H   0  0  0  0  0  0  0  0  0  0  0  0
  147.4693  137.2123  157.9436 H   0  0  0  0  0  0  0  0  0  0  0  0
  150.1722  137.4457  159.2815 H   0  0  0  0  0  0  0  0  0  0  0  0
  148.7213  136.6447  159.8933 H   0  0  0  0  0  0  0  0  0  0  0  0
  148.7404  135.2206  156.5706 H   0  0  0  0  0  0  0  0  0  0  0  0
  150.4663  135.5433  156.3918 H   0  0  0  0  0  0  0  0  0  0  0  0
  150.1881  139.6765  156.1083 H   0  0  0  0  0  0  0  0  0  0  0  0
  150.3377  139.5691  154.3887 H   0  0  0  0  0  0  0  0  0  0  0  0
  148.8358  141.7761  155.8909 H   0  0  0  0  0  0  0  0  0  0  0  0
  150.4088  141.9268  155.1262 H   0  0  0  0  0  0  0  0  0  0  0  0
  146.8786  141.3873  154.3961 H   0  0  0  0  0  0  0  0  0  0  0  0
  147.1885  141.2718  152.6736 H   0  0  0  0  0  0  0  0  0  0  0  0
  148.4285  139.1541  152.9708 H   0  0  0  0  0  0  0  0  0  0  0  0
  146.8255  139.0391  153.6765 H   0  0  0  0  0  0  0  0  0  0  0  0
  147.3362  135.3268  151.6245 H   0  0  0  0  0  0  0  0  0  0  0  0
  147.6109  133.0568  150.4733 H   0  0  0  0  0  0  0  0  0  0  0  0
  146.3210  131.4204  149.0943 H   0  0  0  0  0  0  0  0  0  0  0  0
  142.7053  132.8279  150.5112 H   0  0  0  0  0  0  0  0  0  0  0  0
  143.8017  134.5143  151.9583 H   0  0  0  0  0  0  0  0  0  0  0  0
  1  2  2  0  0  0  0
  2  3  1  0  0  0  0
  2 17  1  0  0  0  0
  3  4  1  0  0  0  0
  3 24  1  0  0  0  0
  4  5  1  0  0  0  0
  4 25  1  0  0  0  0
  4 26  1  0  0  0  0
  5  6  1  0  0  0  0
  5 11  1  0  0  0  0
  5 27  1  0  0  0  0
  6 10  1  0  0  0  0
  6  7  1  0  0  0  0
  6 28  1  0  0  0  0
  7  8  1  0  0  0  0
  7 29  1  0  0  0  0
  7 30  1  0  0  0  0
  8  9  1  0  0  0  0
  8 31  1  0  0  0  0
  8 32  1  0  0  0  0
  9 10  1  0  0  0  0
 10 33  1  0  0  0  0
 10 34  1  0  0  0  0
 11 16  1  0  0  0  0
 11 12  1  0  0  0  0
 12 13  1  0  0  0  0
 12 35  1  0  0  0  0
 12 36  1  0  0  0  0
 13 14  1  0  0  0  0
 13 37  1  0  0  0  0
 13 38  1  0  0  0  0
 14 15  1  0  0  0  0
 15 16  1  0  0  0  0
 15 39  1  0  0  0  0
 15 40  1  0  0  0  0
 16 41  1  0  0  0  0
 16 42  1  0  0  0  0
 17 18  1  0  0  0  0
 17 43  1  0  0  0  0
 18 23  1  0  0  0  0
 18 19  2  0  0  0  0
 19 20  1  0  0  0  0
 19 44  1  0  0  0  0
 20 21  2  0  0  0  0
 20 45  1  0  0  0  0
 21 22  1  0  0  0  0
 22 23  2  0  0  0  0
 22 46  1  0  0  0  0
 23 47  1  0  0  0  0
M  END
> <s_m_source_file>
AV-unprocessed.smi

> <i_m_source_file_index>
1240

> <i_lp_mmshare_version>
43012

> <i_f3d_flags>
0

> <s_epik_input>
W2NIXTFbY0hdbltjSF1bY0hdYzFbTkhdQyg9TylbTkhdW0NIMl1bQ0BIXShbQ0BASF0yW0NIMl1bQ0gyXU9bQ0gyXTIpTjNbQ0gyXVtDSDJdT1tDSDJdW0NIMl0z

> <s_epik_cmdline>
J2VwaWtfcHl0aG9uJywgJy1waCcsICc3LjAnLCAnLXRuJywgJzgnLCAnLW1hJywgJzIwMCcsICctbWV0YWxfYmluZGluZycsICctaW1hZScsICc8aW5maWxlLm1hZT4nLCAnLW9tYWUnLCAnPG91dGZpbGUubWFlPic=

> <r_epik_Ionization_Penalty>
0.238664

> <r_epik_Ionization_Penalty_Charging>
0

> <r_epik_Ionization_Penalty_Neutral>
0.238664

> <r_epik_State_Penalty>
0.217087

> <r_epik_Charging_Adjusted_Penalty>
0.217087

> <i_epik_Tot_Q>
0

> <i_epik_Tot_abs_Q>
0

> <r_epik_Metal_State_Penalty>
0.199194

> <b_epik_Metal_Only>
0

> <s_lp_Force_Field>
OPLS_2005

> <r_lp_Energy>
60.4564

> <b_lp_Chiralities_Consistent>
1

> <s_lp_Variant>
AV-unprocessed.smi:1240-3

> <Gold.Version>
5.8.1

> <Gold.Id.Protein>
6NUR|6NUR_protein|mol2

> <Gold.PLP.Fitness>
45.4751

> <Gold.PLP.PLP>
-33.0696

> <Gold.PLP.part.hbond>
-4.6881

> <Gold.PLP.part.metal>
0.0000

> <Gold.PLP.part.buried>
-4.9552

> <Gold.PLP.part.nonpolar>
-24.5740

> <Gold.PLP.part.repulsive>
0.5260

> <Gold.PLP.ligand.clash>
0.0000

> <Gold.PLP.ligand.torsion>
0.9955

> <Gold.PLP.Chemscore.Hbond>
3.6160

> <Gold.PLP.Chemscore.CHOScore>
1.0983

> <Gold.PLP.Chemscore.Metal>
0.0000

> <Gold.Chemscore.Hbonds>
donor molecule, donor type, donor heavy atom, donor atom, acceptor molecule, acceptor atom, score
      L1  H     3    24       P1  7948  1.00
      L1  H    17    43       P1  7948  0.91
      P1  H  6896  6909       L1     9  1.00
      P1  H  8011  8017       L1    14  0.61
      L1  C    22    46       P1 10186  0.99

> <Gold.PLP.Chemscore.Internal.Correction>
0.2538

> <Gold.Rescore>
     Score         DG    S(hbond)    S(metal)    S(lipo)     H(rot)  DE(clash)    DE(int)     intcor
     21.40     -22.41       3.65        0.00      76.68       1.65       0.03       0.98       ----

> <Gold.Chemscore.Fitness>
21.4015

> <Gold.Chemscore.DG>
-22.4078

> <Gold.Chemscore.ZeroCoef>
-5.4800

> <Gold.Chemscore.Hbond>
3.6476

> <Gold.Chemscore.Metal>
0.0000

> <Gold.Chemscore.Lipo>
76.6764

> <Gold.Chemscore.Internal_Hbond>
0.0000

> <Gold.Chemscore.DEClash>
0.0270

> <Gold.Chemscore.DEInternal>
0.9793

> <Gold.Chemscore.Rot>
1.6508

> <Gold.Chemscore.Internal.Correction>
   9.000000E+99

> <Gold.Chemscore.Hbonds>
donor molecule, donor type, donor heavy atom, donor atom, acceptor molecule, acceptor atom, score
      L1  H     3    24       P1  7948  0.95
      L1  H    17    43       P1  7948  0.83
      P1  H  6896  6909       L1     9  0.64
      P1  H  8011  8017       L1    14  0.61
      P1  H 10785 10796       L1    21  0.01

> <Gold.Chemscore.Hbond.Weighted>
-12.1829

> <Gold.Chemscore.Metal.Weighted>
-0.0000

> <Gold.Chemscore.Lipo.Weighted>
-8.9711

> <Gold.Chemscore.Internal_Hbond.Weighted>
0.0000

> <Gold.Chemscore.DEClash.Weighted>
0.0270

> <Gold.Chemscore.DEInternal.Weighted>
0.9793

> <Gold.Chemscore.Rot.Weighted>
4.2262

> <Gold.Chemscore.Internal.Correction.Weighted>
   9.000000E+99

> <Gold.Protein.RotatedTorsions>
[ 6907 6896 6895 6894 ] final   53.71 input  -60.11 | X-H torsion
[ 7974 7965 7964 7962 ] final  -83.20 input  175.53 | X-H torsion
[ 8008 7997 7996 7995 ] final   -3.94 input   59.86 | X-H torsion
[ 10167 10162 10161 10158 ] final    8.67 input  -65.29 | X-H torsion
[ 10718 10713 10712 10709 ] final  -48.12 input   66.30 | X-H torsion
[ 10763 10752 10751 10750 ] final   54.28 input  -60.55 | X-H torsion
[ 11005 11000 10999 10996 ] final    4.53 input  -57.11 | X-H torsion

> <Gold.Protein.ActiveResidues>
 VAL166  LYS551  ARG553  GLY616  TRP617  ASP618  TYR619  PRO620  LYS621  CYS622 
 ASP623  PHE694  ASN695  SER759  ASP760  ASP761  ALA762  ILE779  LEU786  VAL792 
 PHE793  MET794  SER795  GLU796  ALA797  LYS798  CYS799  TRP800  GLU811  SER814 

> <Gold.Protein.RotatedAtoms>
  152.3365  134.7191  160.0275 H   0  0  0  0  0  0  0  0  0  0  0  0  # atno 6907 bound_to 6896
  151.7590  133.3327  159.3420 H   0  0  0  0  0  0  0  0  0  0  0  0  # atno 6908 bound_to 6896
  150.7454  134.6055  159.6103 H   0  0  0  0  0  0  0  0  0  0  0  0  # atno 6909 bound_to 6896
  145.5232  140.9529  143.1644 H   0  0  0  0  0  0  0  0  0  0  0  0  # atno 7974 bound_to 7965
  154.6195  140.2496  155.7567 H   0  0  0  0  0  0  0  0  0  0  0  0  # atno 8008 bound_to 7997
  156.2418  140.2929  156.0416 H   0  0  0  0  0  0  0  0  0  0  0  0  # atno 8009 bound_to 7997
  155.1920  140.0392  157.2892 H   0  0  0  0  0  0  0  0  0  0  0  0  # atno 8010 bound_to 7997
  140.6300  143.8014  150.7283 H   0  0  0  0  0  0  0  0  0  0  0  0  # atno 10167 bound_to 10162
  156.2018  130.4156  149.9231 H   0  0  0  0  0  0  0  0  0  0  0  0  # atno 10718 bound_to 10713
  152.9803  135.5750  154.4878 H   0  0  0  0  0  0  0  0  0  0  0  0  # atno 10763 bound_to 10752
  154.4417  135.2776  155.1845 H   0  0  0  0  0  0  0  0  0  0  0  0  # atno 10764 bound_to 10752
  154.3510  135.6209  153.5696 H   0  0  0  0  0  0  0  0  0  0  0  0  # atno 10765 bound_to 10752
  140.5809  134.0013  155.8047 H   0  0  0  0  0  0  0  0  0  0  0  0  # atno 11005 bound_to 11000
  144.7665  139.6833  143.7213 LP  0  0  0  0  0  0  0  0  0  0  0  0  # atno 17320 bound_to 7965
  146.2092  139.5437  142.9692 LP  0  0  0  0  0  0  0  0  0  0  0  0  # atno 17321 bound_to 7965
  140.1623  143.4265  152.2058 LP  0  0  0  0  0  0  0  0  0  0  0  0  # atno 17342 bound_to 10162
  139.5516  144.7341  151.4419 LP  0  0  0  0  0  0  0  0  0  0  0  0  # atno 17343 bound_to 10162
  156.6938  130.8906  151.3591 LP  0  0  0  0  0  0  0  0  0  0  0  0  # atno 17370 bound_to 10713
  157.6990  130.9312  150.0729 LP  0  0  0  0  0  0  0  0  0  0  0  0  # atno 17371 bound_to 10713
  141.0996  133.9788  157.3101 LP  0  0  0  0  0  0  0  0  0  0  0  0  # atno 17394 bound_to 11000
  139.9317  135.0199  156.8424 LP  0  0  0  0  0  0  0  0  0  0  0  0  # atno 17395 bound_to 11000

$$$$
