AV-unprocessed.smi:689|AV-procd|sdf|3359|dock3
  -GOLD-   22720 0333D 1   1.00000     0.00000
 Structure written by MMmdl.
 34 35  0  0  0  0  0  0  0  0  1 V2000
  145.9731  143.6463  153.8026 C   0  0  0  0  0  0  0  0  0  0  0  0
  146.1799  142.6730  154.9275 C   0  0  0  0  0  0  0  0  0  0  0  0
  145.3159  142.6360  155.9278 N   0  0  0  0  0  0  0  0  0  0  0  0
  145.7729  141.6365  156.7919 O   0  0  0  0  0  0  0  0  0  0  0  0
  146.9069  141.1034  156.2712 C   0  0  0  0  0  0  0  0  0  0  0  0
  147.5411  140.0032  157.0531 C   0  0  0  0  0  0  0  0  0  0  0  0
  147.2234  141.7171  155.0896 C   0  0  0  0  0  0  0  0  0  0  0  0
  148.3810  141.4477  154.1630 C   0  0  0  0  0  0  0  0  0  0  0  0
  149.6410  141.2225  154.9953 C   0  0  0  0  0  0  0  0  0  0  0  0
  150.4524  140.3440  154.7074 O   0  0  0  0  0  0  0  0  0  0  0  0
  149.7667  142.0439  156.1192 N   0  0  0  0  0  0  0  0  0  0  0  0
  150.8278  141.7614  157.4540 S   0  0  0  0  0  0  0  0  0  0  0  0
  150.0082  141.4839  158.6441 O   0  0  0  0  0  0  0  0  0  0  0  0
  151.8193  140.7771  156.9948 O   0  0  0  0  0  0  0  0  0  0  0  0
  151.6919  143.3875  157.6412 C   0  0  0  0  0  0  0  0  0  0  0  0
  152.7030  143.4026  158.7727 C   0  0  0  0  0  0  0  0  0  0  0  0
  152.5354  142.4989  159.9732 C   0  0  0  0  0  0  0  0  0  0  0  0
  152.3543  143.9879  160.1230 C   0  0  0  0  0  0  0  0  0  0  0  0
  145.6882  143.1268  152.8874 H   0  0  0  0  0  0  0  0  0  0  0  0
  146.8864  144.2040  153.5966 H   0  0  0  0  0  0  0  0  0  0  0  0
  145.1906  144.3705  154.0324 H   0  0  0  0  0  0  0  0  0  0  0  0
  148.4093  139.5990  156.5331 H   0  0  0  0  0  0  0  0  0  0  0  0
  146.8353  139.1878  157.2123 H   0  0  0  0  0  0  0  0  0  0  0  0
  147.8693  140.3628  158.0281 H   0  0  0  0  0  0  0  0  0  0  0  0
  148.2063  140.5637  153.5490 H   0  0  0  0  0  0  0  0  0  0  0  0
  148.5365  142.2734  153.4674 H   0  0  0  0  0  0  0  0  0  0  0  0
  149.0711  142.7613  156.3206 H   0  0  0  0  0  0  0  0  0  0  0  0
  152.2086  143.5853  156.7018 H   0  0  0  0  0  0  0  0  0  0  0  0
  150.9516  144.1749  157.7808 H   0  0  0  0  0  0  0  0  0  0  0  0
  153.7270  143.5610  158.4413 H   0  0  0  0  0  0  0  0  0  0  0  0
  151.6430  141.8783  160.0248 H   0  0  0  0  0  0  0  0  0  0  0  0
  153.4347  142.0571  160.3975 H   0  0  0  0  0  0  0  0  0  0  0  0
  153.1328  144.5427  160.6429 H   0  0  0  0  0  0  0  0  0  0  0  0
  151.3409  144.3561  160.2717 H   0  0  0  0  0  0  0  0  0  0  0  0
  1  2  1  0  0  0  0
  1 19  1  0  0  0  0
  1 20  1  0  0  0  0
  1 21  1  0  0  0  0
  2  7  1  0  0  0  0
  2  3  2  0  0  0  0
  3  4  1  0  0  0  0
  4  5  1  0  0  0  0
  5  6  1  0  0  0  0
  5  7  2  0  0  0  0
  6 22  1  0  0  0  0
  6 23  1  0  0  0  0
  6 24  1  0  0  0  0
  7  8  1  0  0  0  0
  8  9  1  0  0  0  0
  8 25  1  0  0  0  0
  8 26  1  0  0  0  0
  9 10  2  0  0  0  0
  9 11  1  0  0  0  0
 11 12  1  0  0  0  0
 11 27  1  0  0  0  0
 12 13  2  0  0  0  0
 12 14  2  0  0  0  0
 12 15  1  0  0  0  0
 15 16  1  0  0  0  0
 15 28  1  0  0  0  0
 15 29  1  0  0  0  0
 16 18  1  0  0  0  0
 16 17  1  0  0  0  0
 16 30  1  0  0  0  0
 17 18  1  0  0  0  0
 17 31  1  0  0  0  0
 17 32  1  0  0  0  0
 18 33  1  0  0  0  0
 18 34  1  0  0  0  0
M  END
> <s_m_source_file>
AV-unprocessed.smi

> <i_m_source_file_index>
689

> <i_lp_mmshare_version>
43012

> <i_f3d_flags>
0

> <s_epik_input>
W0NIM11jMW5vYyhbQ0gzXSljMVtDSDJdQyg9TylbTkhdUyg9TykoPU8pW0NIMl1bQ0hdMltDSDJdW0NIMl0y

> <s_epik_cmdline>
J2VwaWtfcHl0aG9uJywgJy1waCcsICc3LjAnLCAnLXRuJywgJzgnLCAnLW1hJywgJzIwMCcsICctbWV0YWxfYmluZGluZycsICctaW1hZScsICc8aW5maWxlLm1hZT4nLCAnLW9tYWUnLCAnPG91dGZpbGUubWFlPic=

> <r_epik_Ionization_Penalty>
2.32728

> <r_epik_Ionization_Penalty_Charging>
0

> <r_epik_Ionization_Penalty_Neutral>
2.32728

> <r_epik_State_Penalty>
2.47991

> <r_epik_Charging_Adjusted_Penalty>
2.47991

> <i_epik_Tot_Q>
0

> <i_epik_Tot_abs_Q>
0

> <r_epik_Metal_State_Penalty>
2.4915

> <b_epik_Metal_Only>
0

> <s_lp_Force_Field>
OPLS_2005

> <r_lp_Energy>
-0.069028

> <b_lp_Chiralities_Consistent>
1

> <s_lp_Variant>
AV-unprocessed.smi:689-2

> <Gold.Version>
5.8.1

> <Gold.Id.Protein>
6NUR|6NUR_protein|mol2

> <Gold.PLP.Fitness>
41.7613

> <Gold.PLP.PLP>
-38.3234

> <Gold.PLP.part.hbond>
-2.2356

> <Gold.PLP.part.metal>
0.0000

> <Gold.PLP.part.buried>
-3.9677

> <Gold.PLP.part.nonpolar>
-30.9465

> <Gold.PLP.part.repulsive>
0.4631

> <Gold.PLP.ligand.clash>
0.0000

> <Gold.PLP.ligand.torsion>
1.6345

> <Gold.PLP.Chemscore.Hbond>
1.6880

> <Gold.PLP.Chemscore.CHOScore>
0.0000

> <Gold.PLP.Chemscore.Metal>
0.0000

> <Gold.Chemscore.Hbonds>
donor molecule, donor type, donor heavy atom, donor atom, acceptor molecule, acceptor atom, score
      L1  H    11    27       P1  8028  0.57
      P1  H  7989  7998       L1    10  1.00

> <Gold.PLP.Chemscore.Internal.Correction>
1.6429

> <Gold.Rescore>
     Score         DG    S(hbond)    S(metal)    S(lipo)     H(rot)  DE(clash)    DE(int)     intcor
     12.13     -15.01       1.37        0.00      78.54       1.65       0.14       2.74       ----

> <Gold.Chemscore.Fitness>
12.1331

> <Gold.Chemscore.DG>
-15.0128

> <Gold.Chemscore.ZeroCoef>
-5.4800

> <Gold.Chemscore.Hbond>
1.3690

> <Gold.Chemscore.Metal>
0.0000

> <Gold.Chemscore.Lipo>
78.5418

> <Gold.Chemscore.Internal_Hbond>
0.0000

> <Gold.Chemscore.DEClash>
0.1352

> <Gold.Chemscore.DEInternal>
2.7446

> <Gold.Chemscore.Rot>
1.6519

> <Gold.Chemscore.Internal.Correction>
   9.000000E+99

> <Gold.Chemscore.Hbonds>
donor molecule, donor type, donor heavy atom, donor atom, acceptor molecule, acceptor atom, score
      L1  H    11    27       P1  8028  0.55
      P1  H  7989  7998       L1    10  0.81

> <Gold.Chemscore.Hbond.Weighted>
-4.5724

> <Gold.Chemscore.Metal.Weighted>
-0.0000

> <Gold.Chemscore.Lipo.Weighted>
-9.1894

> <Gold.Chemscore.Internal_Hbond.Weighted>
0.0000

> <Gold.Chemscore.DEClash.Weighted>
0.1352

> <Gold.Chemscore.DEInternal.Weighted>
2.7446

> <Gold.Chemscore.Rot.Weighted>
4.2290

> <Gold.Chemscore.Internal.Correction.Weighted>
   9.000000E+99

> <Gold.Protein.RotatedTorsions>
[ 6907 6896 6895 6894 ] final  -23.56 input  -60.11 | X-H torsion
[ 7974 7965 7964 7962 ] final   80.56 input  175.53 | X-H torsion
[ 8008 7997 7996 7995 ] final  -62.54 input   59.86 | X-H torsion
[ 10167 10162 10161 10158 ] final  116.19 input  -65.29 | X-H torsion
[ 10718 10713 10712 10709 ] final  -62.99 input   66.30 | X-H torsion
[ 10763 10752 10751 10750 ] final  114.83 input  -60.55 | X-H torsion
[ 11005 11000 10999 10996 ] final   96.97 input  -57.11 | X-H torsion

> <Gold.Protein.ActiveResidues>
 VAL166  LYS551  ARG553  GLY616  TRP617  ASP618  TYR619  PRO620  LYS621  CYS622 
 ASP623  PHE694  ASN695  SER759  ASP760  ASP761  ALA762  ILE779  LEU786  VAL792 
 PHE793  MET794  SER795  GLU796  ALA797  LYS798  CYS799  TRP800  GLU811  SER814 

> <Gold.Protein.RotatedAtoms>
  151.2022  135.0447  159.8876 H   0  0  0  0  0  0  0  0  0  0  0  0  # atno 6907 bound_to 6896
  152.5432  134.0837  159.8257 H   0  0  0  0  0  0  0  0  0  0  0  0  # atno 6908 bound_to 6896
  151.0980  133.5218  159.2643 H   0  0  0  0  0  0  0  0  0  0  0  0  # atno 6909 bound_to 6896
  145.6496  139.2444  143.1984 H   0  0  0  0  0  0  0  0  0  0  0  0  # atno 7974 bound_to 7965
  154.4505  140.0994  156.6603 H   0  0  0  0  0  0  0  0  0  0  0  0  # atno 8008 bound_to 7997
  155.5301  140.3481  155.4406 H   0  0  0  0  0  0  0  0  0  0  0  0  # atno 8009 bound_to 7997
  156.0670  140.1340  156.9863 H   0  0  0  0  0  0  0  0  0  0  0  0  # atno 8010 bound_to 7997
  139.6264  144.7109  151.2524 H   0  0  0  0  0  0  0  0  0  0  0  0  # atno 10167 bound_to 10162
  156.0819  130.4215  150.1214 H   0  0  0  0  0  0  0  0  0  0  0  0  # atno 10718 bound_to 10713
  153.5132  135.3613  155.2596 H   0  0  0  0  0  0  0  0  0  0  0  0  # atno 10763 bound_to 10752
  154.8740  135.4027  154.3345 H   0  0  0  0  0  0  0  0  0  0  0  0  # atno 10764 bound_to 10752
  153.4002  135.7074  153.6498 H   0  0  0  0  0  0  0  0  0  0  0  0  # atno 10765 bound_to 10752
  139.8778  134.8977  156.4237 H   0  0  0  0  0  0  0  0  0  0  0  0  # atno 11005 bound_to 11000
  146.1214  140.7303  142.9455 LP  0  0  0  0  0  0  0  0  0  0  0  0  # atno 17320 bound_to 7965
  144.7127  140.4099  143.7068 LP  0  0  0  0  0  0  0  0  0  0  0  0  # atno 17321 bound_to 7965
  140.7413  143.6560  150.8206 LP  0  0  0  0  0  0  0  0  0  0  0  0  # atno 17342 bound_to 10162
  140.0179  143.5574  152.2813 LP  0  0  0  0  0  0  0  0  0  0  0  0  # atno 17343 bound_to 10162
  156.9243  130.9693  151.3543 LP  0  0  0  0  0  0  0  0  0  0  0  0  # atno 17370 bound_to 10713
  157.5939  130.8464  149.8700 LP  0  0  0  0  0  0  0  0  0  0  0  0  # atno 17371 bound_to 10713
  140.9116  133.7708  155.9798 LP  0  0  0  0  0  0  0  0  0  0  0  0  # atno 17394 bound_to 11000
  140.8540  134.2920  157.5263 LP  0  0  0  0  0  0  0  0  0  0  0  0  # atno 17395 bound_to 11000

$$$$
