AV-unprocessed.smi:287|AV-procd|sdf|2182|dock10
  -GOLD-   2262021553D 1   1.00000     0.00000
 Structure written by MMmdl.
 55 58  0  0  0  0  0  0  0  0  1 V2000
  152.0945  145.7728  160.1215 C   0  0  0  0  0  0  0  0  0  0  0  0
  151.7303  144.4599  159.5178 C   0  0  0  0  0  0  0  0  0  0  0  0
  150.7924  144.0651  158.6088 C   0  0  0  0  0  0  0  0  0  0  0  0
  150.9429  142.6582  158.4242 C   0  0  0  0  0  0  0  0  0  0  0  0
  150.1096  141.7833  157.4969 C   0  0  2  0  0  0  0  0  0  0  0  0
  150.6989  140.3637  157.4509 C   0  0  0  0  0  0  0  0  0  0  0  0
  150.1207  142.2367  156.1570 O   0  0  0  0  0  0  0  0  0  0  0  0
  148.6221  141.7263  157.9139 C   0  0  0  0  0  0  0  0  0  0  0  0
  147.8755  142.9169  157.5280 N   0  0  0  0  0  0  0  0  0  0  0  0
  146.5964  143.0919  157.9218 C   0  0  0  0  0  0  0  0  0  0  0  0
  145.6874  143.1896  156.9224 N   0  0  0  0  0  0  0  0  0  0  0  0
  144.3942  143.3703  157.2049 C   0  0  0  0  0  0  0  0  0  0  0  0
  143.8078  143.4760  158.3987 N   0  0  0  0  0  0  0  0  0  0  0  0
  144.7166  143.3735  159.4112 C   0  0  0  0  0  0  0  0  0  0  0  0
  146.1203  143.1831  159.2641 C   0  0  0  0  0  0  0  0  0  0  0  0
  146.7065  143.1320  160.5246 N   0  0  0  0  0  0  0  0  0  0  0  0
  145.7115  143.2882  161.3551 C   0  0  0  0  0  0  0  0  0  0  0  0
  144.4734  143.4286  160.7662 N   0  0  0  0  0  0  0  0  0  0  0  0
  143.1325  143.6378  161.4013 C   0  0  2  0  0  0  0  0  0  0  0  0
  142.3136  142.5607  161.0575 O   0  0  0  0  0  0  0  0  0  0  0  0
  141.5236  142.9080  159.9249 C   0  0  1  0  0  0  0  0  0  0  0  0
  140.3335  141.9477  159.7548 C   0  0  0  0  0  0  0  0  0  0  0  0
  139.5697  141.9099  160.9415 O   0  0  0  0  0  0  0  0  0  0  0  0
  141.1645  144.3664  160.2326 C   0  0  1  0  0  0  0  0  0  0  0  0
  140.0805  144.4288  161.1458 O   0  0  0  0  0  0  0  0  0  0  0  0
  142.4672  144.9035  160.8258 C   0  0  1  0  0  0  0  0  0  0  0  0
  142.2537  145.9148  161.7929 O   0  0  0  0  0  0  0  0  0  0  0  0
  151.9706  142.3029  159.2649 C   0  0  0  0  0  0  0  0  0  0  0  0
  152.6434  141.0114  159.5944 C   0  0  0  0  0  0  0  0  0  0  0  0
  152.4558  143.3897  159.9274 O   0  0  0  0  0  0  0  0  0  0  0  0
  143.3305  143.6650  162.4738 H   0  0  0  0  0  0  0  0  0  0  0  0
  142.1475  142.8914  159.0289 H   0  0  0  0  0  0  0  0  0  0  0  0
  140.8805  144.9113  159.3318 H   0  0  0  0  0  0  0  0  0  0  0  0
  143.0872  145.3083  160.0241 H   0  0  0  0  0  0  0  0  0  0  0  0
  151.5885  146.5911  159.6091 H   0  0  0  0  0  0  0  0  0  0  0  0
  153.1689  145.9458  160.0540 H   0  0  0  0  0  0  0  0  0  0  0  0
  151.8112  145.8057  161.1735 H   0  0  0  0  0  0  0  0  0  0  0  0
  150.0790  144.7144  158.1234 H   0  0  0  0  0  0  0  0  0  0  0  0
  150.7005  139.9042  158.4400 H   0  0  0  0  0  0  0  0  0  0  0  0
  151.7290  140.3734  157.0924 H   0  0  0  0  0  0  0  0  0  0  0  0
  150.1247  139.7130  156.7901 H   0  0  0  0  0  0  0  0  0  0  0  0
  149.8056  143.1274  156.1392 H   0  0  0  0  0  0  0  0  0  0  0  0
  148.1443  140.8306  157.5149 H   0  0  0  0  0  0  0  0  0  0  0  0
  148.5705  141.6555  159.0014 H   0  0  0  0  0  0  0  0  0  0  0  0
  148.4009  143.6172  157.0243 H   0  0  0  0  0  0  0  0  0  0  0  0
  143.7354  143.4406  156.3521 H   0  0  0  0  0  0  0  0  0  0  0  0
  145.8625  143.3045  162.4248 H   0  0  0  0  0  0  0  0  0  0  0  0
  139.7056  142.2350  158.9109 H   0  0  0  0  0  0  0  0  0  0  0  0
  140.6921  140.9356  159.5651 H   0  0  0  0  0  0  0  0  0  0  0  0
  140.1449  142.0726  161.6735 H   0  0  0  0  0  0  0  0  0  0  0  0
  140.2481  143.8165  161.8464 H   0  0  0  0  0  0  0  0  0  0  0  0
  142.4649  145.5616  162.6441 H   0  0  0  0  0  0  0  0  0  0  0  0
  151.9118  140.2575  159.8850 H   0  0  0  0  0  0  0  0  0  0  0  0
  153.3455  141.1308  160.4203 H   0  0  0  0  0  0  0  0  0  0  0  0
  153.1973  140.6346  158.7346 H   0  0  0  0  0  0  0  0  0  0  0  0
  1  2  1  0  0  0  0
  1 35  1  0  0  0  0
  1 36  1  0  0  0  0
  1 37  1  0  0  0  0
  2 30  1  0  0  0  0
  2  3  2  0  0  0  0
  3  4  1  0  0  0  0
  3 38  1  0  0  0  0
  4  5  1  0  0  0  0
  4 28  2  0  0  0  0
  5  6  1  0  0  0  0
  5  7  1  0  0  0  0
  5  8  1  0  0  0  0
  6 39  1  0  0  0  0
  6 40  1  0  0  0  0
  6 41  1  0  0  0  0
  7 42  1  0  0  0  0
  8  9  1  0  0  0  0
  8 43  1  0  0  0  0
  8 44  1  0  0  0  0
  9 10  1  0  0  0  0
  9 45  1  0  0  0  0
 10 15  1  0  0  0  0
 10 11  2  0  0  0  0
 11 12  1  0  0  0  0
 12 13  2  0  0  0  0
 12 46  1  0  0  0  0
 13 14  1  0  0  0  0
 14 18  1  0  0  0  0
 14 15  2  0  0  0  0
 15 16  1  0  0  0  0
 16 17  2  0  0  0  0
 17 18  1  0  0  0  0
 17 47  1  0  0  0  0
 18 19  1  0  0  0  0
 19 31  1  0  0  0  0
 19 26  1  0  0  0  0
 19 20  1  0  0  0  0
 20 21  1  0  0  0  0
 21 32  1  0  0  0  0
 21 22  1  0  0  0  0
 21 24  1  0  0  0  0
 22 23  1  0  0  0  0
 22 48  1  0  0  0  0
 22 49  1  0  0  0  0
 23 50  1  0  0  0  0
 24 33  1  0  0  0  0
 24 25  1  0  0  0  0
 24 26  1  0  0  0  0
 25 51  1  0  0  0  0
 26 34  1  0  0  0  0
 26 27  1  0  0  0  0
 27 52  1  0  0  0  0
 28 29  1  0  0  0  0
 28 30  1  0  0  0  0
 29 53  1  0  0  0  0
 29 54  1  0  0  0  0
 29 55  1  0  0  0  0
M  END
> <s_m_source_file>
AV-unprocessed.smi

> <i_m_source_file_index>
287

> <i_lp_mmshare_version>
43012

> <i_f3d_flags>
0

> <s_epik_input>
W0NIM11jMVtjSF1jKGMobzEpW0NIM10pW0NAQF0oW0NIM10pKFtPSF0pW0NIMl1bTkhdYyhuW2NIXW4yKWMoYzIzKW5bY0hdbjNbQ0BASF00T1tDQEhdKFtDSDJdW09IXSlbQ0BASF0oW09IXSlbQ0BIXTRbT0hd

> <s_epik_cmdline>
J2VwaWtfcHl0aG9uJywgJy1waCcsICc3LjAnLCAnLXRuJywgJzgnLCAnLW1hJywgJzIwMCcsICctbWV0YWxfYmluZGluZycsICctaW1hZScsICc8aW5maWxlLm1hZT4nLCAnLW9tYWUnLCAnPG91dGZpbGUubWFlPic=

> <r_lp_tautomer_probability>
1

> <r_epik_Ionization_Penalty>
0.000992612

> <r_epik_Ionization_Penalty_Charging>
0

> <r_epik_Ionization_Penalty_Neutral>
0.000992612

> <r_epik_State_Penalty>
-0

> <r_epik_Charging_Adjusted_Penalty>
0

> <i_epik_Tot_Q>
0

> <i_epik_Tot_abs_Q>
0

> <r_epik_Metal_State_Penalty>
-0

> <b_epik_Metal_Only>
0

> <s_epik_Chemistry_Notes>
This compound contains an acetal/aminal-like group ( X-CH(R)-Y where X, Y are N, S, or O) that may be acid/base labile, releasing an aldehyde.

> <s_lp_Force_Field>
OPLS_2005

> <r_lp_Energy>
45.3255

> <b_lp_Chiralities_Consistent>
1

> <s_lp_Variant>
AV-unprocessed.smi:287-6

> <Gold.Version>
5.8.1

> <Gold.Id.Protein>
6NUR|6NUR_protein|mol2

> <Gold.PLP.Fitness>
50.2012

> <Gold.PLP.PLP>
-43.4946

> <Gold.PLP.part.hbond>
-7.3637

> <Gold.PLP.part.metal>
0.0000

> <Gold.PLP.part.buried>
-8.9559

> <Gold.PLP.part.nonpolar>
-28.1712

> <Gold.PLP.part.repulsive>
0.1973

> <Gold.PLP.ligand.clash>
1.1372

> <Gold.PLP.ligand.torsion>
0.9644

> <Gold.PLP.Chemscore.Hbond>
3.2387

> <Gold.PLP.Chemscore.CHOScore>
0.0000

> <Gold.PLP.Chemscore.Metal>
0.0000

> <Gold.Chemscore.Hbonds>
donor molecule, donor type, donor heavy atom, donor atom, acceptor molecule, acceptor atom, score
      L1  H     7    42       P1  8028  1.00
      L1  H     9    45       P1  8028  0.65
      P1  H  6933  6944       L1    16  0.70
      P1  H  6934  6946       L1    16  0.30

> <Gold.PLP.Chemscore.Internal.Correction>
0.0564

> <Gold.Rescore>
     Score         DG    S(hbond)    S(metal)    S(lipo)     H(rot)  DE(clash)    DE(int)     intcor
      3.19      -7.08       1.62        0.00      82.71       5.27       0.12       3.78       ----

> <Gold.Chemscore.Fitness>
3.1875

> <Gold.Chemscore.DG>
-7.0842

> <Gold.Chemscore.ZeroCoef>
-5.4800

> <Gold.Chemscore.Hbond>
1.6202

> <Gold.Chemscore.Metal>
0.0000

> <Gold.Chemscore.Lipo>
82.7082

> <Gold.Chemscore.Internal_Hbond>
0.0000

> <Gold.Chemscore.DEClash>
0.1211

> <Gold.Chemscore.DEInternal>
3.7756

> <Gold.Chemscore.Rot>
5.2672

> <Gold.Chemscore.Internal.Correction>
   9.000000E+99

> <Gold.Chemscore.Hbonds>
donor molecule, donor type, donor heavy atom, donor atom, acceptor molecule, acceptor atom, score
      L1  H     7    42       P1  8028  1.00
      L1  H     9    45       P1  8028  0.06
      P1  H  6933  6944       L1    16  0.58
      P1  H  6934  6946       L1    16  0.01

> <Gold.Chemscore.Hbond.Weighted>
-5.4113

> <Gold.Chemscore.Metal.Weighted>
-0.0000

> <Gold.Chemscore.Lipo.Weighted>
-9.6769

> <Gold.Chemscore.Internal_Hbond.Weighted>
0.0000

> <Gold.Chemscore.DEClash.Weighted>
0.1211

> <Gold.Chemscore.DEInternal.Weighted>
3.7756

> <Gold.Chemscore.Rot.Weighted>
13.4839

> <Gold.Chemscore.Internal.Correction.Weighted>
   9.000000E+99

> <Gold.Protein.RotatedTorsions>
[ 6907 6896 6895 6894 ] final -126.45 input  -60.11 | X-H torsion
[ 7974 7965 7964 7962 ] final  115.74 input  175.53 | X-H torsion
[ 8008 7997 7996 7995 ] final  174.69 input   59.86 | X-H torsion
[ 10167 10162 10161 10158 ] final  124.78 input  -65.29 | X-H torsion
[ 10718 10713 10712 10709 ] final   54.33 input   66.30 | X-H torsion
[ 10763 10752 10751 10750 ] final   24.88 input  -60.55 | X-H torsion
[ 11005 11000 10999 10996 ] final -175.61 input  -57.11 | X-H torsion

> <Gold.Protein.ActiveResidues>
 VAL166  LYS551  ARG553  GLY616  TRP617  ASP618  TYR619  PRO620  LYS621  CYS622 
 ASP623  PHE694  ASN695  SER759  ASP760  ASP761  ALA762  ILE779  LEU786  VAL792 
 PHE793  MET794  SER795  GLU796  ALA797  LYS798  CYS799  TRP800  GLU811  SER814 

> <Gold.Protein.RotatedAtoms>
  150.8970  133.7168  159.2888 H   0  0  0  0  0  0  0  0  0  0  0  0  # atno 6907 bound_to 6896
  151.4699  135.1043  159.9758 H   0  0  0  0  0  0  0  0  0  0  0  0  # atno 6908 bound_to 6896
  152.4854  133.8313  159.7160 H   0  0  0  0  0  0  0  0  0  0  0  0  # atno 6909 bound_to 6896
  145.1882  139.3014  143.4382 H   0  0  0  0  0  0  0  0  0  0  0  0  # atno 7974 bound_to 7965
  156.0948  140.1428  156.9545 H   0  0  0  0  0  0  0  0  0  0  0  0  # atno 8008 bound_to 7997
  154.4664  140.0925  156.7078 H   0  0  0  0  0  0  0  0  0  0  0  0  # atno 8009 bound_to 7997
  155.4859  140.3446  155.4349 H   0  0  0  0  0  0  0  0  0  0  0  0  # atno 8010 bound_to 7997
  139.5722  144.6945  151.3748 H   0  0  0  0  0  0  0  0  0  0  0  0  # atno 10167 bound_to 10162
  157.5247  130.8589  149.8606 H   0  0  0  0  0  0  0  0  0  0  0  0  # atno 10718 bound_to 10713
  153.0732  135.6595  154.0203 H   0  0  0  0  0  0  0  0  0  0  0  0  # atno 10763 bound_to 10752
  153.9843  135.2952  155.3419 H   0  0  0  0  0  0  0  0  0  0  0  0  # atno 10764 bound_to 10752
  154.7112  135.5204  153.8740 H   0  0  0  0  0  0  0  0  0  0  0  0  # atno 10765 bound_to 10752
  140.4613  134.6251  157.4844 H   0  0  0  0  0  0  0  0  0  0  0  0  # atno 11005 bound_to 11000
  146.3441  140.2086  142.8590 LP  0  0  0  0  0  0  0  0  0  0  0  0  # atno 17320 bound_to 7965
  145.0067  140.8679  143.5249 LP  0  0  0  0  0  0  0  0  0  0  0  0  # atno 17321 bound_to 7965
  140.7006  143.7641  150.7397 LP  0  0  0  0  0  0  0  0  0  0  0  0  # atno 17342 bound_to 10162
  140.1150  143.4664  152.2347 LP  0  0  0  0  0  0  0  0  0  0  0  0  # atno 17343 bound_to 10162
  156.0378  130.3746  150.1513 LP  0  0  0  0  0  0  0  0  0  0  0  0  # atno 17370 bound_to 10713
  156.9700  130.9831  151.3461 LP  0  0  0  0  0  0  0  0  0  0  0  0  # atno 17371 bound_to 10713
  139.9943  134.6936  155.9636 LP  0  0  0  0  0  0  0  0  0  0  0  0  # atno 17394 bound_to 11000
  141.1620  133.6538  156.4350 LP  0  0  0  0  0  0  0  0  0  0  0  0  # atno 17395 bound_to 11000

$$$$
