AV-unprocessed.smi:2488|AV-procd|sdf|9793|dock1
  -GOLD-   2272013433D 1   1.00000     0.00000
 Structure written by MMmdl.
 33 34  0  0  0  0  0  0  0  0  1 V2000
  147.0536  135.6517  161.3686 C   0  0  0  0  0  0  0  0  0  0  0  0
  148.3555  136.1677  160.7455 C   0  0  0  0  0  0  0  0  0  0  0  0
  148.1658  136.6214  159.3100 C   0  0  0  0  0  0  0  0  0  0  0  0
  146.9617  136.3729  158.7486 N   0  0  0  0  0  0  0  0  0  0  0  0
  146.7966  136.7633  157.4829 C   0  0  0  0  0  0  0  0  0  0  0  0
  147.6989  137.3731  156.7108 N   0  0  0  0  0  0  0  0  0  0  0  0
  148.9174  137.6202  157.2528 C   0  0  0  0  0  0  0  0  0  0  0  0
  149.8964  138.2729  156.4763 N   0  0  0  0  0  0  0  0  0  0  0  0
  149.6460  139.7110  156.4208 C   0  0  0  0  0  0  0  0  0  0  0  0
  150.8127  140.4389  155.7379 C   0  0  0  0  0  0  0  0  0  0  0  0
  151.0199  139.8790  154.4482 O   0  0  0  0  0  0  0  0  0  0  0  0
  151.3886  138.5073  154.5276 C   0  0  0  0  0  0  0  0  0  0  0  0
  150.2580  137.6771  155.1802 C   0  0  1  0  0  0  0  0  0  0  0  0
  150.7175  136.2091  155.2521 C   0  0  0  0  0  0  0  0  0  0  0  0
  150.1395  135.3508  154.4080 N   0  0  0  0  0  0  0  0  0  0  0  0
  151.5879  135.8572  156.0468 O   0  0  0  0  0  0  0  0  0  0  0  0
  149.2002  137.2572  158.5898 C   0  0  0  0  0  0  0  0  0  0  0  0
  150.4110  137.4972  159.1503 F   0  0  0  0  0  0  0  0  0  0  0  0
  147.2157  135.3314  162.3978 H   0  0  0  0  0  0  0  0  0  0  0  0
  146.6636  134.7993  160.8116 H   0  0  0  0  0  0  0  0  0  0  0  0
  146.2862  136.4262  161.3777 H   0  0  0  0  0  0  0  0  0  0  0  0
  148.7402  137.0016  161.3337 H   0  0  0  0  0  0  0  0  0  0  0  0
  149.1184  135.3898  160.7858 H   0  0  0  0  0  0  0  0  0  0  0  0
  145.8325  136.5677  157.0376 H   0  0  0  0  0  0  0  0  0  0  0  0
  148.7217  139.8953  155.8708 H   0  0  0  0  0  0  0  0  0  0  0  0
  149.5063  140.1184  157.4231 H   0  0  0  0  0  0  0  0  0  0  0  0
  150.5844  141.4995  155.6319 H   0  0  0  0  0  0  0  0  0  0  0  0
  151.7238  140.3661  156.3343 H   0  0  0  0  0  0  0  0  0  0  0  0
  151.5881  138.1504  153.5164 H   0  0  0  0  0  0  0  0  0  0  0  0
  152.3232  138.4120  155.0844 H   0  0  0  0  0  0  0  0  0  0  0  0
  149.3831  137.7352  154.5295 H   0  0  0  0  0  0  0  0  0  0  0  0
  150.4097  134.3781  154.4139 H   0  0  0  0  0  0  0  0  0  0  0  0
  149.4358  135.6801  153.7633 H   0  0  0  0  0  0  0  0  0  0  0  0
  1  2  1  0  0  0  0
  1 19  1  0  0  0  0
  1 20  1  0  0  0  0
  1 21  1  0  0  0  0
  2  3  1  0  0  0  0
  2 22  1  0  0  0  0
  2 23  1  0  0  0  0
  3 17  1  0  0  0  0
  3  4  2  0  0  0  0
  4  5  1  0  0  0  0
  5  6  2  0  0  0  0
  5 24  1  0  0  0  0
  6  7  1  0  0  0  0
  7  8  1  0  0  0  0
  7 17  2  0  0  0  0
  8 13  1  0  0  0  0
  8  9  1  0  0  0  0
  9 10  1  0  0  0  0
  9 25  1  0  0  0  0
  9 26  1  0  0  0  0
 10 11  1  0  0  0  0
 10 27  1  0  0  0  0
 10 28  1  0  0  0  0
 11 12  1  0  0  0  0
 12 13  1  0  0  0  0
 12 29  1  0  0  0  0
 12 30  1  0  0  0  0
 13 14  1  0  0  0  0
 13 31  1  0  0  0  0
 14 15  1  0  0  0  0
 14 16  2  0  0  0  0
 15 32  1  0  0  0  0
 15 33  1  0  0  0  0
 17 18  1  0  0  0  0
M  END
> <s_m_source_file>
AV-unprocessed.smi

> <i_m_source_file_index>
2488

> <i_lp_mmshare_version>
43012

> <i_f3d_flags>
0

> <s_epik_input>
W0NIM11bQ0gyXWMxbltjSF1uYyhjMUYpTjJbQ0gyXVtDSDJdT1tDSDJdW0NASF0yQyg9TylbTkgyXQ==

> <s_epik_cmdline>
J2VwaWtfcHl0aG9uJywgJy1waCcsICc3LjAnLCAnLXRuJywgJzgnLCAnLW1hJywgJzIwMCcsICctbWV0YWxfYmluZGluZycsICctaW1hZScsICc8aW5maWxlLm1hZT4nLCAnLW9tYWUnLCAnPG91dGZpbGUubWFlPic=

> <r_lp_tautomer_probability>
1

> <r_epik_Ionization_Penalty>
2.73136e-05

> <r_epik_Ionization_Penalty_Charging>
0

> <r_epik_Ionization_Penalty_Neutral>
2.73136e-05

> <r_epik_State_Penalty>
-0

> <r_epik_Charging_Adjusted_Penalty>
0

> <i_epik_Tot_Q>
0

> <i_epik_Tot_abs_Q>
0

> <r_epik_Metal_State_Penalty>
-0

> <b_epik_Metal_Only>
0

> <s_lp_Force_Field>
OPLS_2005

> <r_lp_Energy>
12.1778

> <b_lp_Chiralities_Consistent>
1

> <s_lp_Variant>
AV-unprocessed.smi:2488-1

> <Gold.Version>
5.8.1

> <Gold.Id.Protein>
6NUR|6NUR_protein|mol2

> <Gold.PLP.Fitness>
30.7118

> <Gold.PLP.PLP>
-22.8544

> <Gold.PLP.part.hbond>
-3.5464

> <Gold.PLP.part.metal>
0.0000

> <Gold.PLP.part.buried>
-4.0562

> <Gold.PLP.part.nonpolar>
-16.1567

> <Gold.PLP.part.repulsive>
0.1884

> <Gold.PLP.ligand.clash>
0.0000

> <Gold.PLP.ligand.torsion>
0.5570

> <Gold.PLP.Chemscore.Hbond>
2.9193

> <Gold.PLP.Chemscore.CHOScore>
0.0000

> <Gold.PLP.Chemscore.Metal>
0.0000

> <Gold.Chemscore.Hbonds>
donor molecule, donor type, donor heavy atom, donor atom, acceptor molecule, acceptor atom, score
      L1  H    15    33       P1  7948  0.93
      P1  H  7989  7998       L1    11  0.93
      P1  H 10752 10764       L1    16  1.00

> <Gold.PLP.Chemscore.Internal.Correction>
0.2137

> <Gold.Rescore>
     Score         DG    S(hbond)    S(metal)    S(lipo)     H(rot)  DE(clash)    DE(int)     intcor
     13.54     -13.84       2.45        0.00      42.17       1.86       0.02       0.29       ----

> <Gold.Chemscore.Fitness>
13.5357

> <Gold.Chemscore.DG>
-13.8430

> <Gold.Chemscore.ZeroCoef>
-5.4800

> <Gold.Chemscore.Hbond>
2.4508

> <Gold.Chemscore.Metal>
0.0000

> <Gold.Chemscore.Lipo>
42.1740

> <Gold.Chemscore.Internal_Hbond>
0.0000

> <Gold.Chemscore.DEClash>
0.0179

> <Gold.Chemscore.DEInternal>
0.2894

> <Gold.Chemscore.Rot>
1.8582

> <Gold.Chemscore.Internal.Correction>
   9.000000E+99

> <Gold.Chemscore.Hbonds>
donor molecule, donor type, donor heavy atom, donor atom, acceptor molecule, acceptor atom, score
      L1  H    15    33       P1  7948  0.35
      P1  H  7989  7998       L1    11  0.72
      P1  H 10752 10764       L1    16  0.40

> <Gold.Chemscore.Hbond.Weighted>
-8.1856

> <Gold.Chemscore.Metal.Weighted>
-0.0000

> <Gold.Chemscore.Lipo.Weighted>
-4.9344

> <Gold.Chemscore.Internal_Hbond.Weighted>
0.0000

> <Gold.Chemscore.DEClash.Weighted>
0.0179

> <Gold.Chemscore.DEInternal.Weighted>
0.2894

> <Gold.Chemscore.Rot.Weighted>
4.7570

> <Gold.Chemscore.Internal.Correction.Weighted>
   9.000000E+99

> <Gold.Protein.RotatedTorsions>
[ 6907 6896 6895 6894 ] final   19.90 input  -60.11 | X-H torsion
[ 7974 7965 7964 7962 ] final   95.70 input  175.53 | X-H torsion
[ 8008 7997 7996 7995 ] final  113.41 input   59.86 | X-H torsion
[ 10167 10162 10161 10158 ] final  -17.71 input  -65.29 | X-H torsion
[ 10718 10713 10712 10709 ] final -156.27 input   66.30 | X-H torsion
[ 10763 10752 10751 10750 ] final  -38.19 input  -60.55 | X-H torsion
[ 11005 11000 10999 10996 ] final -144.61 input  -57.11 | X-H torsion

> <Gold.Protein.ActiveResidues>
 VAL166  LYS551  ARG553  GLY616  TRP617  ASP618  TYR619  PRO620  LYS621  CYS622 
 ASP623  PHE694  ASN695  SER759  ASP760  ASP761  ALA762  ILE779  LEU786  VAL792 
 PHE793  MET794  SER795  GLU796  ALA797  LYS798  CYS799  TRP800  GLU811  SER814 

> <Gold.Protein.RotatedAtoms>
  151.8880  135.0428  160.0494 H   0  0  0  0  0  0  0  0  0  0  0  0  # atno 6907 bound_to 6896
  152.2459  133.5170  159.5305 H   0  0  0  0  0  0  0  0  0  0  0  0  # atno 6908 bound_to 6896
  150.7068  134.0942  159.3985 H   0  0  0  0  0  0  0  0  0  0  0  0  # atno 6909 bound_to 6896
  145.4487  139.2295  143.3052 H   0  0  0  0  0  0  0  0  0  0  0  0  # atno 7974 bound_to 7965
  156.2256  140.2980  156.0059 H   0  0  0  0  0  0  0  0  0  0  0  0  # atno 8008 bound_to 7997
  155.2365  140.0421  157.2986 H   0  0  0  0  0  0  0  0  0  0  0  0  # atno 8009 bound_to 7997
  154.5910  140.2401  155.7929 H   0  0  0  0  0  0  0  0  0  0  0  0  # atno 8010 bound_to 7997
  140.7250  143.4989  150.9895 H   0  0  0  0  0  0  0  0  0  0  0  0  # atno 10167 bound_to 10162
  156.5242  130.8491  151.2693 H   0  0  0  0  0  0  0  0  0  0  0  0  # atno 10718 bound_to 10713
  153.9087  135.6794  153.4752 H   0  0  0  0  0  0  0  0  0  0  0  0  # atno 10763 bound_to 10752
  153.1090  135.4792  154.8999 H   0  0  0  0  0  0  0  0  0  0  0  0  # atno 10764 bound_to 10752
  154.7538  135.3192  154.8463 H   0  0  0  0  0  0  0  0  0  0  0  0  # atno 10765 bound_to 10752
  140.8007  134.2860  157.4979 H   0  0  0  0  0  0  0  0  0  0  0  0  # atno 11005 bound_to 11000
  146.2516  140.5243  142.8891 LP  0  0  0  0  0  0  0  0  0  0  0  0  # atno 17320 bound_to 7965
  144.8075  140.6326  143.6437 LP  0  0  0  0  0  0  0  0  0  0  0  0  # atno 17321 bound_to 7965
  139.8697  143.7208  152.3167 LP  0  0  0  0  0  0  0  0  0  0  0  0  # atno 17342 bound_to 10162
  139.7453  144.7549  151.0590 LP  0  0  0  0  0  0  0  0  0  0  0  0  # atno 17343 bound_to 10162
  157.7432  130.9907  150.2574 LP  0  0  0  0  0  0  0  0  0  0  0  0  # atno 17370 bound_to 10713
  156.3121  130.3773  149.7652 LP  0  0  0  0  0  0  0  0  0  0  0  0  # atno 17371 bound_to 10713
  139.8722  134.9428  156.3834 LP  0  0  0  0  0  0  0  0  0  0  0  0  # atno 17394 bound_to 11000
  140.9297  133.7587  156.0010 LP  0  0  0  0  0  0  0  0  0  0  0  0  # atno 17395 bound_to 11000

$$$$
