AV-unprocessed.smi:2310|AV-procd|sdf|9258|dock7
  -GOLD-   2272012483D 1   1.00000     0.00000
 Structure written by MMmdl.
 46 47  0  0  0  0  0  0  0  0  2 V2000
  149.1215  131.9830  153.2305 C   0  0  0  0  0  0  0  0  0  0  0  0
  149.1300  133.5138  153.3539 C   0  0  0  0  0  0  0  0  0  0  0  0
  149.7036  134.0254  154.6883 C   0  0  1  0  0  0  0  0  0  0  0  0
  150.9869  133.2721  155.0717 C   0  0  0  0  0  0  0  0  0  0  0  0
  151.0688  132.9568  156.5070 C   0  0  0  0  0  0  0  0  0  0  0  0
  151.1313  132.7094  157.6354 N   0  0  0  0  0  0  0  0  0  0  0  0
  149.9825  135.4592  154.5994 N   0  0  0  0  0  0  0  0  0  0  0  0
  150.4815  136.2236  155.5817 C   0  0  0  0  0  0  0  0  0  0  0  0
  150.7681  135.7980  156.7003 O   0  0  0  0  0  0  0  0  0  0  0  0
  150.6044  137.5021  155.1860 N   0  0  0  0  0  0  0  0  0  0  0  0
  151.0433  138.6195  155.9491 C   0  0  0  0  0  0  0  0  0  0  0  0
  151.9762  138.5115  157.0098 C   0  0  0  0  0  0  0  0  0  0  0  0
  152.3691  139.6664  157.7153 C   0  0  0  0  0  0  0  0  0  0  0  0
  151.8353  140.9251  157.3548 C   0  0  0  0  0  0  0  0  0  0  0  0
  152.1804  142.1201  158.0155 N   0  0  0  0  0  0  0  0  0  0  0  0
  152.7335  142.1063  159.3600 C   0  0  0  0  0  0  0  0  0  0  0  0
  152.7631  143.5739  159.7845 C   0  0  0  0  0  0  0  0  0  0  0  0
  151.5544  144.1675  159.0618 C   0  0  0  0  0  0  0  0  0  0  0  0
  151.4713  143.3673  157.7569 C   0  0  0  0  0  0  0  0  0  0  0  0
  150.9668  140.9835  156.3177 N   0  3  0  0  0  0  0  0  0  0  0  0
  150.5602  139.9055  155.6104 C   0  0  0  0  0  0  0  0  0  0  0  0
  149.5793  140.1431  154.4767 C   0  0  0  0  0  0  0  0  0  0  0  0
  148.7557  131.6765  152.2505 H   0  0  0  0  0  0  0  0  0  0  0  0
  148.4776  131.5223  153.9799 H   0  0  0  0  0  0  0  0  0  0  0  0
  150.1246  131.5735  153.3532 H   0  0  0  0  0  0  0  0  0  0  0  0
  149.7186  133.9246  152.5328 H   0  0  0  0  0  0  0  0  0  0  0  0
  148.1164  133.8929  153.2178 H   0  0  0  0  0  0  0  0  0  0  0  0
  148.9612  133.8276  155.4637 H   0  0  0  0  0  0  0  0  0  0  0  0
  151.0460  132.3272  154.5311 H   0  0  0  0  0  0  0  0  0  0  0  0
  151.8703  133.8514  154.8014 H   0  0  0  0  0  0  0  0  0  0  0  0
  149.7735  135.9030  153.7169 H   0  0  0  0  0  0  0  0  0  0  0  0
  150.2538  137.7169  154.2639 H   0  0  0  0  0  0  0  0  0  0  0  0
  152.4092  137.5633  157.2892 H   0  0  0  0  0  0  0  0  0  0  0  0
  153.0798  139.5689  158.5225 H   0  0  0  0  0  0  0  0  0  0  0  0
  152.0797  141.5300  160.0165 H   0  0  0  0  0  0  0  0  0  0  0  0
  153.7291  141.6623  159.3831 H   0  0  0  0  0  0  0  0  0  0  0  0
  152.7217  143.7037  160.8664 H   0  0  0  0  0  0  0  0  0  0  0  0
  153.6773  144.0470  159.4228 H   0  0  0  0  0  0  0  0  0  0  0  0
  150.6559  143.9938  159.6556 H   0  0  0  0  0  0  0  0  0  0  0  0
  151.6421  145.2417  158.8959 H   0  0  0  0  0  0  0  0  0  0  0  0
  151.9760  143.8953  156.9473 H   0  0  0  0  0  0  0  0  0  0  0  0
  150.4329  143.2070  157.4649 H   0  0  0  0  0  0  0  0  0  0  0  0
  148.6530  139.5969  154.6568 H   0  0  0  0  0  0  0  0  0  0  0  0
  150.0015  139.8031  153.5308 H   0  0  0  0  0  0  0  0  0  0  0  0
  149.3345  141.2010  154.3760 H   0  0  0  0  0  0  0  0  0  0  0  0
  150.5949  141.8959  156.0542 H   0  0  0  0  0  0  0  0  0  0  0  0
  1  2  1  0  0  0  0
  1 23  1  0  0  0  0
  1 24  1  0  0  0  0
  1 25  1  0  0  0  0
  2  3  1  0  0  0  0
  2 26  1  0  0  0  0
  2 27  1  0  0  0  0
  3  4  1  0  0  0  0
  3  7  1  0  0  0  0
  3 28  1  0  0  0  0
  4  5  1  0  0  0  0
  4 29  1  0  0  0  0
  4 30  1  0  0  0  0
  5  6  3  0  0  0  0
  7  8  1  0  0  0  0
  7 31  1  0  0  0  0
  8  9  2  0  0  0  0
  8 10  1  0  0  0  0
 10 11  1  0  0  0  0
 10 32  1  0  0  0  0
 11 21  1  0  0  0  0
 11 12  2  0  0  0  0
 12 13  1  0  0  0  0
 12 33  1  0  0  0  0
 13 14  2  0  0  0  0
 13 34  1  0  0  0  0
 14 15  1  0  0  0  0
 14 20  1  0  0  0  0
 15 19  1  0  0  0  0
 15 16  1  0  0  0  0
 16 17  1  0  0  0  0
 16 35  1  0  0  0  0
 16 36  1  0  0  0  0
 17 18  1  0  0  0  0
 17 37  1  0  0  0  0
 17 38  1  0  0  0  0
 18 19  1  0  0  0  0
 18 39  1  0  0  0  0
 18 40  1  0  0  0  0
 19 41  1  0  0  0  0
 19 42  1  0  0  0  0
 20 21  2  0  0  0  0
 20 46  1  0  0  0  0
 21 22  1  0  0  0  0
 22 43  1  0  0  0  0
 22 44  1  0  0  0  0
 22 45  1  0  0  0  0
M  CHG  1  20   1
M  END
> <s_m_source_file>
AV-unprocessed.smi

> <i_m_source_file_index>
2310

> <i_lp_mmshare_version>
43012

> <i_f3d_flags>
0

> <s_epik_input>
TiNDW0NIMl1bQ0BASF0oW0NIMl1bQ0gzXSlbTkhdQyg9TylbTkhdYzFbY0hdW2NIXWMobmMxW0NIM10pTjJbQ0gyXVtDSDJdW0NIMl1bQ0gyXTI=

> <s_epik_cmdline>
J2VwaWtfcHl0aG9uJywgJy1waCcsICc3LjAnLCAnLXRuJywgJzgnLCAnLW1hJywgJzIwMCcsICctbWV0YWxfYmluZGluZycsICctaW1hZScsICc8aW5maWxlLm1hZT4nLCAnLW9tYWUnLCAnPG91dGZpbGUubWFlPic=

> <r_lp_tautomer_probability>
0.999994

> <r_epik_Ionization_Penalty>
0.577302

> <r_epik_Ionization_Penalty_Charging>
0.577278

> <r_epik_Ionization_Penalty_Neutral>
2.39253e-05

> <r_epik_State_Penalty>
0.589738

> <r_epik_Charging_Adjusted_Penalty>
1.16702

> <i_epik_Tot_Q>
1

> <i_epik_Tot_abs_Q>
1

> <r_epik_Metal_State_Penalty>
0.784556

> <b_epik_Metal_Only>
0

> <s_lp_Force_Field>
OPLS_2005

> <r_lp_Energy>
35.6243

> <b_lp_Chiralities_Consistent>
1

> <s_lp_Variant>
AV-unprocessed.smi:2310-4

> <Gold.Version>
5.8.1

> <Gold.Id.Protein>
6NUR|6NUR_protein|mol2

> <Gold.PLP.Fitness>
42.3685

> <Gold.PLP.PLP>
-38.0371

> <Gold.PLP.part.hbond>
-2.0000

> <Gold.PLP.part.metal>
0.0000

> <Gold.PLP.part.buried>
-3.3651

> <Gold.PLP.part.nonpolar>
-32.1682

> <Gold.PLP.part.repulsive>
0.1811

> <Gold.PLP.ligand.clash>
0.0000

> <Gold.PLP.ligand.torsion>
0.9573

> <Gold.PLP.Chemscore.Hbond>
2.0000

> <Gold.PLP.Chemscore.CHOScore>
0.0000

> <Gold.PLP.Chemscore.Metal>
0.0000

> <Gold.Chemscore.Hbonds>
donor molecule, donor type, donor heavy atom, donor atom, acceptor molecule, acceptor atom, score
      L1  H     7    31       P1  7948  0.90
      P1  H  6896  6909       L1     6  0.86

> <Gold.PLP.Chemscore.Internal.Correction>
0.2459

> <Gold.Rescore>
     Score         DG    S(hbond)    S(metal)    S(lipo)     H(rot)  DE(clash)    DE(int)     intcor
     15.68     -18.98       1.97        0.00      91.26       1.47       0.03       3.28       ----

> <Gold.Chemscore.Fitness>
15.6766

> <Gold.Chemscore.DG>
-18.9841

> <Gold.Chemscore.ZeroCoef>
-5.4800

> <Gold.Chemscore.Hbond>
1.9721

> <Gold.Chemscore.Metal>
0.0000

> <Gold.Chemscore.Lipo>
91.2635

> <Gold.Chemscore.Internal_Hbond>
0.0000

> <Gold.Chemscore.DEClash>
0.0282

> <Gold.Chemscore.DEInternal>
3.2792

> <Gold.Chemscore.Rot>
1.4690

> <Gold.Chemscore.Internal.Correction>
   9.000000E+99

> <Gold.Chemscore.Hbonds>
donor molecule, donor type, donor heavy atom, donor atom, acceptor molecule, acceptor atom, score
      L1  H     7    31       P1  7948  0.17
      P1  H  6896  6909       L1     6  0.85

> <Gold.Chemscore.Hbond.Weighted>
-6.5868

> <Gold.Chemscore.Metal.Weighted>
-0.0000

> <Gold.Chemscore.Lipo.Weighted>
-10.6778

> <Gold.Chemscore.Internal_Hbond.Weighted>
0.0000

> <Gold.Chemscore.DEClash.Weighted>
0.0282

> <Gold.Chemscore.DEInternal.Weighted>
3.2792

> <Gold.Chemscore.Rot.Weighted>
3.7606

> <Gold.Chemscore.Internal.Correction.Weighted>
   9.000000E+99

> <Gold.Protein.RotatedTorsions>
[ 6907 6896 6895 6894 ] final  -16.15 input  -60.11 | X-H torsion
[ 7974 7965 7964 7962 ] final -167.66 input  175.53 | X-H torsion
[ 8008 7997 7996 7995 ] final  171.95 input   59.86 | X-H torsion
[ 10167 10162 10161 10158 ] final -122.38 input  -65.29 | X-H torsion
[ 10718 10713 10712 10709 ] final -124.22 input   66.30 | X-H torsion
[ 10763 10752 10751 10750 ] final   51.26 input  -60.55 | X-H torsion
[ 11005 11000 10999 10996 ] final  -89.25 input  -57.11 | X-H torsion

> <Gold.Protein.ActiveResidues>
 VAL166  LYS551  ARG553  GLY616  TRP617  ASP618  TYR619  PRO620  LYS621  CYS622 
 ASP623  PHE694  ASN695  SER759  ASP760  ASP761  ALA762  ILE779  LEU786  VAL792 
 PHE793  MET794  SER795  GLU796  ALA797  LYS798  CYS799  TRP800  GLU811  SER814 

> <Gold.Protein.RotatedAtoms>
  151.3129  135.0799  159.9278 H   0  0  0  0  0  0  0  0  0  0  0  0  # atno 6907 bound_to 6896
  152.5273  133.9717  159.7775 H   0  0  0  0  0  0  0  0  0  0  0  0  # atno 6908 bound_to 6896
  151.0024  133.5992  159.2723 H   0  0  0  0  0  0  0  0  0  0  0  0  # atno 6909 bound_to 6896
  144.7218  140.2485  143.6282 H   0  0  0  0  0  0  0  0  0  0  0  0  # atno 7974 bound_to 7965
  156.1221  140.1498  156.9189 H   0  0  0  0  0  0  0  0  0  0  0  0  # atno 8008 bound_to 7997
  154.4844  140.0869  156.7493 H   0  0  0  0  0  0  0  0  0  0  0  0  # atno 8009 bound_to 7997
  155.4409  140.3431  155.4292 H   0  0  0  0  0  0  0  0  0  0  0  0  # atno 8010 bound_to 7997
  140.0148  143.5404  152.2247 H   0  0  0  0  0  0  0  0  0  0  0  0  # atno 10167 bound_to 10162
  156.1568  130.6574  150.9994 H   0  0  0  0  0  0  0  0  0  0  0  0  # atno 10718 bound_to 10713
  152.9785  135.5852  154.4386 H   0  0  0  0  0  0  0  0  0  0  0  0  # atno 10763 bound_to 10752
  154.3990  135.2768  155.2110 H   0  0  0  0  0  0  0  0  0  0  0  0  # atno 10764 bound_to 10752
  154.3949  135.6117  153.5918 H   0  0  0  0  0  0  0  0  0  0  0  0  # atno 10765 bound_to 10752
  141.1588  133.7618  156.9567 H   0  0  0  0  0  0  0  0  0  0  0  0  # atno 11005 bound_to 11000
  145.8251  139.2061  143.1915 LP  0  0  0  0  0  0  0  0  0  0  0  0  # atno 17320 bound_to 7965
  146.0480  140.8098  142.9795 LP  0  0  0  0  0  0  0  0  0  0  0  0  # atno 17321 bound_to 7965
  139.6180  144.7623  151.2804 LP  0  0  0  0  0  0  0  0  0  0  0  0  # atno 17342 bound_to 10162
  140.7366  143.6701  150.8089 LP  0  0  0  0  0  0  0  0  0  0  0  0  # atno 17343 bound_to 10162
  157.6701  131.0863  150.7632 LP  0  0  0  0  0  0  0  0  0  0  0  0  # atno 17370 bound_to 10713
  156.7697  130.4825  149.5421 LP  0  0  0  0  0  0  0  0  0  0  0  0  # atno 17371 bound_to 10713
  140.1220  134.9411  157.2217 LP  0  0  0  0  0  0  0  0  0  0  0  0  # atno 17394 bound_to 11000
  140.3060  134.3078  155.7278 LP  0  0  0  0  0  0  0  0  0  0  0  0  # atno 17395 bound_to 11000

$$$$
