AV-unprocessed.smi:123|AV-procd|sdf|1143|dock8
  -GOLD-   2262018273D 1   1.00000     0.00000
 Structure written by MMmdl.
 43 45  0  0  0  0  0  0  0  0  1 V2000
  149.7570  139.6225  154.4495 C   0  0  0  0  0  0  0  0  0  0  0  0
  150.8776  139.2978  155.4542 C   0  0  2  0  0  0  0  0  0  0  0  0
  150.6122  138.0399  156.1542 N   0  0  0  0  0  0  0  0  0  0  0  0
  151.1590  136.8410  155.8905 C   0  0  0  0  0  0  0  0  0  0  0  0
  151.9693  136.6500  154.9825 O   0  0  0  0  0  0  0  0  0  0  0  0
  150.7038  135.6873  156.7970 C   0  0  0  0  0  0  0  0  0  0  0  0
  150.3849  134.4484  156.0536 N   0  0  0  0  0  0  0  0  0  0  0  0
  151.0683  133.2568  156.4038 C   0  0  0  0  0  0  0  0  0  0  0  0
  151.9023  133.2423  157.3105 O   0  0  0  0  0  0  0  0  0  0  0  0
  150.7183  132.0763  155.6222 C   0  0  0  0  0  0  0  0  0  0  0  0
  151.3059  130.8987  155.8944 F   0  0  0  0  0  0  0  0  0  0  0  0
  149.8102  132.1475  154.6280 C   0  0  0  0  0  0  0  0  0  0  0  0
  149.1647  133.3202  154.2854 N   0  0  0  0  0  0  0  0  0  0  0  0
  148.1620  133.3371  153.1562 C   0  0  2  0  0  0  0  0  0  0  0  0
  146.8475  133.9830  153.6138 C   0  0  0  0  0  0  0  0  0  0  0  0
  145.9395  132.7832  153.7913 C   0  0  0  0  0  0  0  0  0  0  0  0
  146.4826  131.8234  152.7405 C   0  0  0  0  0  0  0  0  0  0  0  0
  147.8907  132.0170  152.7850 O   0  0  0  0  0  0  0  0  0  0  0  0
  149.4372  134.5056  155.0031 C   0  0  0  0  0  0  0  0  0  0  0  0
  148.8635  135.5607  154.7252 O   0  0  0  0  0  0  0  0  0  0  0  0
  151.1930  140.4247  156.3945 C   0  0  0  0  0  0  0  0  0  0  0  0
  152.0206  140.5561  157.4768 C   0  0  0  0  0  0  0  0  0  0  0  0
  151.8655  141.8899  157.9449 C   0  0  0  0  0  0  0  0  0  0  0  0
  150.9485  142.4739  157.1188 C   0  0  0  0  0  0  0  0  0  0  0  0
  150.5265  141.5940  156.1708 O   0  0  0  0  0  0  0  0  0  0  0  0
  150.0236  140.4803  153.8315 H   0  0  0  0  0  0  0  0  0  0  0  0
  148.8179  139.8585  154.9511 H   0  0  0  0  0  0  0  0  0  0  0  0
  149.5742  138.7813  153.7800 H   0  0  0  0  0  0  0  0  0  0  0  0
  151.7777  139.1105  154.8679 H   0  0  0  0  0  0  0  0  0  0  0  0
  149.9527  138.0884  156.9170 H   0  0  0  0  0  0  0  0  0  0  0  0
  151.4779  135.4975  157.5426 H   0  0  0  0  0  0  0  0  0  0  0  0
  149.8517  136.0318  157.3847 H   0  0  0  0  0  0  0  0  0  0  0  0
  149.5846  131.2450  154.0799 H   0  0  0  0  0  0  0  0  0  0  0  0
  148.6245  133.8524  152.3138 H   0  0  0  0  0  0  0  0  0  0  0  0
  146.9709  134.5812  154.5178 H   0  0  0  0  0  0  0  0  0  0  0  0
  146.4806  134.6257  152.8128 H   0  0  0  0  0  0  0  0  0  0  0  0
  146.0612  132.3601  154.7891 H   0  0  0  0  0  0  0  0  0  0  0  0
  144.8851  133.0200  153.6476 H   0  0  0  0  0  0  0  0  0  0  0  0
  146.2138  130.7851  152.9361 H   0  0  0  0  0  0  0  0  0  0  0  0
  146.1153  132.0926  151.7491 H   0  0  0  0  0  0  0  0  0  0  0  0
  152.6637  139.7880  157.8798 H   0  0  0  0  0  0  0  0  0  0  0  0
  152.3611  142.3622  158.7801 H   0  0  0  0  0  0  0  0  0  0  0  0
  150.5048  143.4570  157.0665 H   0  0  0  0  0  0  0  0  0  0  0  0
  1  2  1  0  0  0  0
  1 26  1  0  0  0  0
  1 27  1  0  0  0  0
  1 28  1  0  0  0  0
  2  3  1  0  0  0  0
  2 21  1  0  0  0  0
  2 29  1  0  0  0  0
  3  4  1  0  0  0  0
  3 30  1  0  0  0  0
  4  5  2  0  0  0  0
  4  6  1  0  0  0  0
  6  7  1  0  0  0  0
  6 31  1  0  0  0  0
  6 32  1  0  0  0  0
  7 19  1  0  0  0  0
  7  8  1  0  0  0  0
  8  9  2  0  0  0  0
  8 10  1  0  0  0  0
 10 11  1  0  0  0  0
 10 12  2  0  0  0  0
 12 13  1  0  0  0  0
 12 33  1  0  0  0  0
 13 14  1  0  0  0  0
 13 19  1  0  0  0  0
 14 18  1  0  0  0  0
 14 15  1  0  0  0  0
 14 34  1  0  0  0  0
 15 16  1  0  0  0  0
 15 35  1  0  0  0  0
 15 36  1  0  0  0  0
 16 17  1  0  0  0  0
 16 37  1  0  0  0  0
 16 38  1  0  0  0  0
 17 18  1  0  0  0  0
 17 39  1  0  0  0  0
 17 40  1  0  0  0  0
 19 20  2  0  0  0  0
 21 25  1  0  0  0  0
 21 22  2  0  0  0  0
 22 23  1  0  0  0  0
 22 41  1  0  0  0  0
 23 24  2  0  0  0  0
 23 42  1  0  0  0  0
 24 25  1  0  0  0  0
 24 43  1  0  0  0  0
M  END
> <s_m_source_file>
AV-unprocessed.smi

> <i_m_source_file_index>
123

> <i_lp_mmshare_version>
43012

> <i_f3d_flags>
0

> <s_epik_input>
bzFbY0hdW2NIXVtjSF1jMVtDQEhdKFtDSDNdKVtOSF1DKD1PKVtDSDJdbjJjKD1PKWMoRilbY0hdbihjMj1PKVtDQEBIXTNbQ0gyXVtDSDJdW0NIMl1PMw==

> <s_epik_cmdline>
J2VwaWtfcHl0aG9uJywgJy1waCcsICc3LjAnLCAnLXRuJywgJzgnLCAnLW1hJywgJzIwMCcsICctbWV0YWxfYmluZGluZycsICctaW1hZScsICc8aW5maWxlLm1hZT4nLCAnLW9tYWUnLCAnPG91dGZpbGUubWFlPic=

> <r_lp_tautomer_probability>
1

> <r_epik_Ionization_Penalty>
2.31906e-08

> <r_epik_Ionization_Penalty_Charging>
3.85846e-09

> <r_epik_Ionization_Penalty_Neutral>
1.93321e-08

> <r_epik_State_Penalty>
-0

> <r_epik_Charging_Adjusted_Penalty>
3.85846e-09

> <i_epik_Tot_Q>
0

> <i_epik_Tot_abs_Q>
0

> <r_epik_Metal_State_Penalty>
-0

> <b_epik_Metal_Only>
0

> <s_epik_Chemistry_Notes>
This compound contains an acetal/aminal-like group ( X-CH(R)-Y where X, Y are N, S, or O) that may be acid/base labile, releasing an aldehyde.

> <s_lp_Force_Field>
OPLS_2005

> <r_lp_Energy>
21.3093

> <b_lp_Chiralities_Consistent>
1

> <s_lp_Variant>
AV-unprocessed.smi:123-1

> <Gold.Version>
5.8.1

> <Gold.Id.Protein>
6NUR|6NUR_protein|mol2

> <Gold.PLP.Fitness>
42.3375

> <Gold.PLP.PLP>
-37.4011

> <Gold.PLP.part.hbond>
-1.8307

> <Gold.PLP.part.metal>
0.0000

> <Gold.PLP.part.buried>
-6.2683

> <Gold.PLP.part.nonpolar>
-32.1614

> <Gold.PLP.part.repulsive>
3.0538

> <Gold.PLP.ligand.clash>
0.0000

> <Gold.PLP.ligand.torsion>
0.7434

> <Gold.PLP.Chemscore.Hbond>
1.1048

> <Gold.PLP.Chemscore.CHOScore>
1.0000

> <Gold.PLP.Chemscore.Metal>
0.0000

> <Gold.Chemscore.Hbonds>
donor molecule, donor type, donor heavy atom, donor atom, acceptor molecule, acceptor atom, score
      P1  H  6896  6907       L1     9  0.11
      P1  H 10752 10763       L1     5  0.93
      L1  C    24    43       P1  8028  1.00

> <Gold.PLP.Chemscore.Internal.Correction>
0.1090

> <Gold.Rescore>
     Score         DG    S(hbond)    S(metal)    S(lipo)     H(rot)  DE(clash)    DE(int)     intcor
      8.57     -11.96       1.31        0.00      67.04       2.23       0.02       3.38       ----

> <Gold.Chemscore.Fitness>
8.5734

> <Gold.Chemscore.DG>
-11.9649

> <Gold.Chemscore.ZeroCoef>
-5.4800

> <Gold.Chemscore.Hbond>
1.3059

> <Gold.Chemscore.Metal>
0.0000

> <Gold.Chemscore.Lipo>
67.0429

> <Gold.Chemscore.Internal_Hbond>
0.0000

> <Gold.Chemscore.DEClash>
0.0160

> <Gold.Chemscore.DEInternal>
3.3755

> <Gold.Chemscore.Rot>
2.2347

> <Gold.Chemscore.Internal.Correction>
   9.000000E+99

> <Gold.Chemscore.Hbonds>
donor molecule, donor type, donor heavy atom, donor atom, acceptor molecule, acceptor atom, score
      P1  H  6896  6907       L1     9  0.12
      P1  H 10752 10763       L1     5  0.86

> <Gold.Chemscore.Hbond.Weighted>
-4.3616

> <Gold.Chemscore.Metal.Weighted>
-0.0000

> <Gold.Chemscore.Lipo.Weighted>
-7.8440

> <Gold.Chemscore.Internal_Hbond.Weighted>
0.0000

> <Gold.Chemscore.DEClash.Weighted>
0.0160

> <Gold.Chemscore.DEInternal.Weighted>
3.3755

> <Gold.Chemscore.Rot.Weighted>
5.7208

> <Gold.Chemscore.Internal.Correction.Weighted>
   9.000000E+99

> <Gold.Protein.RotatedTorsions>
[ 6907 6896 6895 6894 ] final  136.97 input  -60.11 | X-H torsion
[ 7974 7965 7964 7962 ] final -165.41 input  175.53 | X-H torsion
[ 8008 7997 7996 7995 ] final  159.68 input   59.86 | X-H torsion
[ 10167 10162 10161 10158 ] final   95.91 input  -65.29 | X-H torsion
[ 10718 10713 10712 10709 ] final  -91.64 input   66.30 | X-H torsion
[ 10763 10752 10751 10750 ] final   49.38 input  -60.55 | X-H torsion
[ 11005 11000 10999 10996 ] final -105.82 input  -57.11 | X-H torsion

> <Gold.Protein.ActiveResidues>
 VAL166  LYS551  ARG553  GLY616  TRP617  ASP618  TYR619  PRO620  LYS621  CYS622 
 ASP623  PHE694  ASN695  SER759  ASP760  ASP761  ALA762  ILE779  LEU786  VAL792 
 PHE793  MET794  SER795  GLU796  ALA797  LYS798  CYS799  TRP800  GLU811  SER814 

> <Gold.Protein.RotatedAtoms>
  152.2834  133.5492  159.5511 H   0  0  0  0  0  0  0  0  0  0  0  0  # atno 6907 bound_to 6896
  150.7205  134.0531  159.3814 H   0  0  0  0  0  0  0  0  0  0  0  0  # atno 6908 bound_to 6896
  151.8441  135.0580  160.0502 H   0  0  0  0  0  0  0  0  0  0  0  0  # atno 6909 bound_to 6896
  144.7271  140.2819  143.6234 H   0  0  0  0  0  0  0  0  0  0  0  0  # atno 7974 bound_to 7965
  156.2223  140.1825  156.7447 H   0  0  0  0  0  0  0  0  0  0  0  0  # atno 8008 bound_to 7997
  154.5885  140.0654  156.9233 H   0  0  0  0  0  0  0  0  0  0  0  0  # atno 8009 bound_to 7997
  155.2378  140.3319  155.4298 H   0  0  0  0  0  0  0  0  0  0  0  0  # atno 8010 bound_to 7997
  139.7944  144.6839  150.9849 H   0  0  0  0  0  0  0  0  0  0  0  0  # atno 10167 bound_to 10162
  155.9995  130.4956  150.5505 H   0  0  0  0  0  0  0  0  0  0  0  0  # atno 10718 bound_to 10713
  152.9787  135.5913  154.4080 H   0  0  0  0  0  0  0  0  0  0  0  0  # atno 10763 bound_to 10752
  154.3718  135.2767  155.2264 H   0  0  0  0  0  0  0  0  0  0  0  0  # atno 10764 bound_to 10752
  154.4216  135.6058  153.6068 H   0  0  0  0  0  0  0  0  0  0  0  0  # atno 10765 bound_to 10752
  141.1035  133.8840  157.1780 H   0  0  0  0  0  0  0  0  0  0  0  0  # atno 11005 bound_to 11000
  145.7941  139.1938  143.2086 LP  0  0  0  0  0  0  0  0  0  0  0  0  # atno 17320 bound_to 7965
  146.0731  140.7847  142.9678 LP  0  0  0  0  0  0  0  0  0  0  0  0  # atno 17321 bound_to 7965
  140.7820  143.4347  151.0641 LP  0  0  0  0  0  0  0  0  0  0  0  0  # atno 17342 bound_to 10162
  139.8022  143.8067  152.3164 LP  0  0  0  0  0  0  0  0  0  0  0  0  # atno 17343 bound_to 10162
  157.3428  131.0720  151.1774 LP  0  0  0  0  0  0  0  0  0  0  0  0  # atno 17370 bound_to 10713
  157.2617  130.6662  149.5977 LP  0  0  0  0  0  0  0  0  0  0  0  0  # atno 17371 bound_to 10713
  139.9895  135.0069  156.9943 LP  0  0  0  0  0  0  0  0  0  0  0  0  # atno 17394 bound_to 11000
  140.4962  134.1143  155.7242 LP  0  0  0  0  0  0  0  0  0  0  0  0  # atno 17395 bound_to 11000

$$$$
