AV-unprocessed.smi:1714|AV-procd|sdf|6907|dock1
  -GOLD-   22720 8113D 1   1.00000     0.00000
 Structure written by MMmdl.
 45 46  0  0  0  0  0  0  0  0  1 V2000
  144.4300  134.6217  152.8464 C   0  0  0  0  0  0  0  0  0  0  0  0
  144.7985  133.7557  151.6524 C   0  0  0  0  0  0  0  0  0  0  0  0
  143.7724  133.1697  150.8810 C   0  0  0  0  0  0  0  0  0  0  0  0
  144.1158  132.3690  149.7783 C   0  0  0  0  0  0  0  0  0  0  0  0
  145.4799  132.1864  149.4927 C   0  0  0  0  0  0  0  0  0  0  0  0
  146.4669  132.7418  150.2251 N   0  0  0  0  0  0  0  0  0  0  0  0
  146.1520  133.5176  151.2924 C   0  0  0  0  0  0  0  0  0  0  0  0
  147.1384  134.1390  152.1082 N   0  0  0  0  0  0  0  0  0  0  0  0
  147.4097  133.9236  153.4071 C   0  0  0  0  0  0  0  0  0  0  0  0
  146.8193  133.1308  154.1412 O   0  0  0  0  0  0  0  0  0  0  0  0
  148.4200  134.6982  153.8204 N   0  0  0  0  0  0  0  0  0  0  0  0
  148.9422  134.7264  155.1826 C   0  0  0  0  0  0  0  0  0  0  0  0
  148.7404  136.1133  155.8567 C   0  0  0  0  0  0  0  0  0  0  0  0
  147.2150  136.3489  155.9703 C   0  0  0  0  0  0  0  0  0  0  0  0
  149.2941  135.9789  157.2984 C   0  0  0  0  0  0  0  0  0  0  0  0
  149.4456  137.1941  155.1112 N   0  0  0  0  0  0  0  0  0  0  0  0
  149.1377  138.5561  155.5635 C   0  0  0  0  0  0  0  0  0  0  0  0
  149.8008  139.6251  154.6786 C   0  0  0  0  0  0  0  0  0  0  0  0
  151.2068  139.4151  154.6452 O   0  0  0  0  0  0  0  0  0  0  0  0
  151.5507  138.1259  154.1532 C   0  0  0  0  0  0  0  0  0  0  0  0
  150.9033  137.0440  155.0342 C   0  0  0  0  0  0  0  0  0  0  0  0
  143.3487  134.6931  152.9673 H   0  0  0  0  0  0  0  0  0  0  0  0
  144.8205  135.6321  152.7212 H   0  0  0  0  0  0  0  0  0  0  0  0
  144.8430  134.2013  153.7638 H   0  0  0  0  0  0  0  0  0  0  0  0
  142.7334  133.3302  151.1292 H   0  0  0  0  0  0  0  0  0  0  0  0
  143.3541  131.9068  149.1680 H   0  0  0  0  0  0  0  0  0  0  0  0
  145.7880  131.5792  148.6543 H   0  0  0  0  0  0  0  0  0  0  0  0
  147.7060  134.8323  151.6442 H   0  0  0  0  0  0  0  0  0  0  0  0
  148.8496  135.3265  153.1569 H   0  0  0  0  0  0  0  0  0  0  0  0
  148.4708  133.9320  155.7622 H   0  0  0  0  0  0  0  0  0  0  0  0
  150.0032  134.4712  155.1561 H   0  0  0  0  0  0  0  0  0  0  0  0
  146.7375  135.5461  156.5335 H   0  0  0  0  0  0  0  0  0  0  0  0
  146.7299  136.3775  154.9947 H   0  0  0  0  0  0  0  0  0  0  0  0
  146.9772  137.2787  156.4867 H   0  0  0  0  0  0  0  0  0  0  0  0
  148.9065  135.0885  157.7948 H   0  0  0  0  0  0  0  0  0  0  0  0
  149.0128  136.8222  157.9288 H   0  0  0  0  0  0  0  0  0  0  0  0
  150.3824  135.9079  157.3077 H   0  0  0  0  0  0  0  0  0  0  0  0
  148.0646  138.7372  155.5524 H   0  0  0  0  0  0  0  0  0  0  0  0
  149.4723  138.6961  156.5915 H   0  0  0  0  0  0  0  0  0  0  0  0
  149.3959  139.5935  153.6657 H   0  0  0  0  0  0  0  0  0  0  0  0
  149.5992  140.6209  155.0734 H   0  0  0  0  0  0  0  0  0  0  0  0
  151.2252  138.0247  153.1165 H   0  0  0  0  0  0  0  0  0  0  0  0
  152.6355  138.0201  154.1597 H   0  0  0  0  0  0  0  0  0  0  0  0
  151.3414  137.0942  156.0310 H   0  0  0  0  0  0  0  0  0  0  0  0
  151.1732  136.0755  154.6171 H   0  0  0  0  0  0  0  0  0  0  0  0
  1  2  1  0  0  0  0
  1 22  1  0  0  0  0
  1 23  1  0  0  0  0
  1 24  1  0  0  0  0
  2  7  1  0  0  0  0
  2  3  2  0  0  0  0
  3  4  1  0  0  0  0
  3 25  1  0  0  0  0
  4  5  2  0  0  0  0
  4 26  1  0  0  0  0
  5  6  1  0  0  0  0
  5 27  1  0  0  0  0
  6  7  2  0  0  0  0
  7  8  1  0  0  0  0
  8  9  1  0  0  0  0
  8 28  1  0  0  0  0
  9 10  2  0  0  0  0
  9 11  1  0  0  0  0
 11 12  1  0  0  0  0
 11 29  1  0  0  0  0
 12 13  1  0  0  0  0
 12 30  1  0  0  0  0
 12 31  1  0  0  0  0
 13 14  1  0  0  0  0
 13 15  1  0  0  0  0
 13 16  1  0  0  0  0
 14 32  1  0  0  0  0
 14 33  1  0  0  0  0
 14 34  1  0  0  0  0
 15 35  1  0  0  0  0
 15 36  1  0  0  0  0
 15 37  1  0  0  0  0
 16 21  1  0  0  0  0
 16 17  1  0  0  0  0
 17 18  1  0  0  0  0
 17 38  1  0  0  0  0
 17 39  1  0  0  0  0
 18 19  1  0  0  0  0
 18 40  1  0  0  0  0
 18 41  1  0  0  0  0
 19 20  1  0  0  0  0
 20 21  1  0  0  0  0
 20 42  1  0  0  0  0
 20 43  1  0  0  0  0
 21 44  1  0  0  0  0
 21 45  1  0  0  0  0
M  END
> <s_m_source_file>
AV-unprocessed.smi

> <i_m_source_file_index>
1714

> <i_lp_mmshare_version>
43012

> <i_f3d_flags>
0

> <s_epik_input>
W0NIM11jMVtjSF1bY0hdW2NIXW5jMVtOSF1DKD1PKVtOSF1bQ0gyXUMoW0NIM10pKFtDSDNdKU4yW0NIMl1bQ0gyXU9bQ0gyXVtDSDJdMg==

> <s_epik_cmdline>
J2VwaWtfcHl0aG9uJywgJy1waCcsICc3LjAnLCAnLXRuJywgJzgnLCAnLW1hJywgJzIwMCcsICctbWV0YWxfYmluZGluZycsICctaW1hZScsICc8aW5maWxlLm1hZT4nLCAnLW9tYWUnLCAnPG91dGZpbGUubWFlPic=

> <r_epik_Ionization_Penalty>
0.26605

> <r_epik_Ionization_Penalty_Charging>
0

> <r_epik_Ionization_Penalty_Neutral>
0.26605

> <r_epik_State_Penalty>
0.257924

> <r_epik_Charging_Adjusted_Penalty>
0.257924

> <i_epik_Tot_Q>
0

> <i_epik_Tot_abs_Q>
0

> <r_epik_Metal_State_Penalty>
0.257922

> <b_epik_Metal_Only>
0

> <s_lp_Force_Field>
OPLS_2005

> <r_lp_Energy>
43.6145

> <b_lp_Chiralities_Consistent>
1

> <s_lp_Variant>
AV-unprocessed.smi:1714-1

> <Gold.Version>
5.8.1

> <Gold.Id.Protein>
6NUR|6NUR_protein|mol2

> <Gold.PLP.Fitness>
38.0880

> <Gold.PLP.PLP>
-30.4775

> <Gold.PLP.part.hbond>
-3.0000

> <Gold.PLP.part.metal>
0.0000

> <Gold.PLP.part.buried>
-5.9182

> <Gold.PLP.part.nonpolar>
-22.2035

> <Gold.PLP.part.repulsive>
0.8241

> <Gold.PLP.ligand.clash>
0.0000

> <Gold.PLP.ligand.torsion>
0.7019

> <Gold.PLP.Chemscore.Hbond>
2.9600

> <Gold.PLP.Chemscore.CHOScore>
0.0000

> <Gold.PLP.Chemscore.Metal>
0.0000

> <Gold.Chemscore.Hbonds>
donor molecule, donor type, donor heavy atom, donor atom, acceptor molecule, acceptor atom, score
      L1  H     8    28       P1  7948  0.94
      L1  H    11    29       P1  7948  1.00
      P1  H  7989  7998       L1    19  0.90

> <Gold.PLP.Chemscore.Internal.Correction>
0.1342

> <Gold.Rescore>
     Score         DG    S(hbond)    S(metal)    S(lipo)     H(rot)  DE(clash)    DE(int)     intcor
     15.39     -16.10       1.90        0.00      68.28       1.45       0.00       0.72       ----

> <Gold.Chemscore.Fitness>
15.3897

> <Gold.Chemscore.DG>
-16.1047

> <Gold.Chemscore.ZeroCoef>
-5.4800

> <Gold.Chemscore.Hbond>
1.9005

> <Gold.Chemscore.Metal>
0.0000

> <Gold.Chemscore.Lipo>
68.2782

> <Gold.Chemscore.Internal_Hbond>
0.0000

> <Gold.Chemscore.DEClash>
0.0000

> <Gold.Chemscore.DEInternal>
0.7150

> <Gold.Chemscore.Rot>
1.4498

> <Gold.Chemscore.Internal.Correction>
   9.000000E+99

> <Gold.Chemscore.Hbonds>
donor molecule, donor type, donor heavy atom, donor atom, acceptor molecule, acceptor atom, score
      L1  H     8    28       P1  7948  0.32
      L1  H    11    29       P1  7948  0.62
      P1  H  7989  7998       L1    19  0.16

> <Gold.Chemscore.Hbond.Weighted>
-6.3477

> <Gold.Chemscore.Metal.Weighted>
-0.0000

> <Gold.Chemscore.Lipo.Weighted>
-7.9886

> <Gold.Chemscore.Internal_Hbond.Weighted>
0.0000

> <Gold.Chemscore.DEClash.Weighted>
0.0000

> <Gold.Chemscore.DEInternal.Weighted>
0.7150

> <Gold.Chemscore.Rot.Weighted>
3.7116

> <Gold.Chemscore.Internal.Correction.Weighted>
   9.000000E+99

> <Gold.Protein.RotatedTorsions>
[ 6907 6896 6895 6894 ] final  150.49 input  -60.11 | X-H torsion
[ 7974 7965 7964 7962 ] final -159.89 input  175.53 | X-H torsion
[ 8008 7997 7996 7995 ] final -173.15 input   59.86 | X-H torsion
[ 10167 10162 10161 10158 ] final -103.67 input  -65.29 | X-H torsion
[ 10718 10713 10712 10709 ] final  -16.45 input   66.30 | X-H torsion
[ 10763 10752 10751 10750 ] final  -41.02 input  -60.55 | X-H torsion
[ 11005 11000 10999 10996 ] final   96.08 input  -57.11 | X-H torsion

> <Gold.Protein.ActiveResidues>
 VAL166  LYS551  ARG553  GLY616  TRP617  ASP618  TYR619  PRO620  LYS621  CYS622 
 ASP623  PHE694  ASN695  SER759  ASP760  ASP761  ALA762  ILE779  LEU786  VAL792 
 PHE793  MET794  SER795  GLU796  ALA797  LYS798  CYS799  TRP800  GLU811  SER814 

> <Gold.Protein.RotatedAtoms>
  152.1137  133.4314  159.4642 H   0  0  0  0  0  0  0  0  0  0  0  0  # atno 6907 bound_to 6896
  150.6868  134.2618  159.4561 H   0  0  0  0  0  0  0  0  0  0  0  0  # atno 6908 bound_to 6896
  152.0489  134.9665  160.0625 H   0  0  0  0  0  0  0  0  0  0  0  0  # atno 6909 bound_to 6896
  144.7448  140.3620  143.6094 H   0  0  0  0  0  0  0  0  0  0  0  0  # atno 7974 bound_to 7965
  155.9537  140.1131  157.0955 H   0  0  0  0  0  0  0  0  0  0  0  0  # atno 8008 bound_to 7997
  154.4115  140.1195  156.5153 H   0  0  0  0  0  0  0  0  0  0  0  0  # atno 8009 bound_to 7997
  155.6809  140.3473  155.4857 H   0  0  0  0  0  0  0  0  0  0  0  0  # atno 8010 bound_to 7997
  140.2174  143.3701  152.0998 H   0  0  0  0  0  0  0  0  0  0  0  0  # atno 10167 bound_to 10162
  156.5874  130.4790  149.6294 H   0  0  0  0  0  0  0  0  0  0  0  0  # atno 10718 bound_to 10713
  153.9556  135.6745  153.4744 H   0  0  0  0  0  0  0  0  0  0  0  0  # atno 10763 bound_to 10752
  153.0863  135.4897  154.8600 H   0  0  0  0  0  0  0  0  0  0  0  0  # atno 10764 bound_to 10752
  154.7301  135.3136  154.8865 H   0  0  0  0  0  0  0  0  0  0  0  0  # atno 10765 bound_to 10752
  139.8784  134.8932  156.4105 H   0  0  0  0  0  0  0  0  0  0  0  0  # atno 11005 bound_to 11000
  145.7167  139.1699  143.2508 LP  0  0  0  0  0  0  0  0  0  0  0  0  # atno 17320 bound_to 7965
  146.1307  140.7189  142.9413 LP  0  0  0  0  0  0  0  0  0  0  0  0  # atno 17321 bound_to 7965
  139.5157  144.6966  151.5612 LP  0  0  0  0  0  0  0  0  0  0  0  0  # atno 17342 bound_to 10162
  140.6279  143.9132  150.6580 LP  0  0  0  0  0  0  0  0  0  0  0  0  # atno 17343 bound_to 10162
  156.2579  130.6945  151.1704 LP  0  0  0  0  0  0  0  0  0  0  0  0  # atno 17370 bound_to 10713
  157.7312  131.0610  150.5690 LP  0  0  0  0  0  0  0  0  0  0  0  0  # atno 17371 bound_to 10713
  140.9204  133.7649  155.9899 LP  0  0  0  0  0  0  0  0  0  0  0  0  # atno 17394 bound_to 11000
  140.8446  134.3026  157.5300 LP  0  0  0  0  0  0  0  0  0  0  0  0  # atno 17395 bound_to 11000

$$$$
