AV-unprocessed.smi:2306|AV-procd|sdf|9248|dock7
  -GOLD-   2272012463D 1   1.00000     0.00000
 Structure written by MMmdl.
 41 42  0  0  0  0  0  0  0  0  1 V2000
  145.8334  140.9345  156.6690 C   0  0  0  0  0  0  0  0  0  0  0  0
  147.2108  140.5545  156.1552 C   0  0  0  0  0  0  0  0  0  0  0  0
  147.8688  139.5529  156.8752 N   0  0  0  0  0  0  0  0  0  0  0  0
  149.0520  139.1733  156.5181 C   0  0  0  0  0  0  0  0  0  0  0  0
  149.7068  139.7430  155.4146 N   0  0  0  0  0  0  0  0  0  0  0  0
  151.0503  139.2235  155.1144 C   0  0  0  0  0  0  0  0  0  0  0  0
  152.1521  139.9911  155.8815 C   0  0  2  0  0  0  0  0  0  0  0  0
  153.3977  139.3697  155.6365 O   0  0  0  0  0  0  0  0  0  0  0  0
  151.9226  139.9745  157.4001 C   0  0  0  0  0  0  0  0  0  0  0  0
  152.9483  140.7353  158.0154 O   0  0  0  0  0  0  0  0  0  0  0  0
  152.8056  140.8343  159.4224 C   0  0  0  0  0  0  0  0  0  0  0  0
  152.3860  142.2260  159.8598 C   0  0  0  0  0  0  0  0  0  0  0  0
  152.1066  143.2287  158.9053 C   0  0  0  0  0  0  0  0  0  0  0  0
  151.7328  144.5207  159.3237 C   0  0  0  0  0  0  0  0  0  0  0  0
  151.6430  144.8190  160.6970 C   0  0  0  0  0  0  0  0  0  0  0  0
  151.9298  143.8250  161.6523 C   0  0  0  0  0  0  0  0  0  0  0  0
  152.3032  142.5325  161.2346 C   0  0  0  0  0  0  0  0  0  0  0  0
  149.1291  140.7106  154.6448 C   0  0  0  0  0  0  0  0  0  0  0  0
  149.7029  141.1844  153.6619 O   0  0  0  0  0  0  0  0  0  0  0  0
  147.7861  141.1386  155.0687 C   0  0  0  0  0  0  0  0  0  0  0  0
  147.1193  142.2363  154.2490 C   0  0  0  0  0  0  0  0  0  0  0  0
  145.0765  140.7459  155.9073 H   0  0  0  0  0  0  0  0  0  0  0  0
  145.8038  141.9908  156.9372 H   0  0  0  0  0  0  0  0  0  0  0  0
  145.5662  140.3574  157.5553 H   0  0  0  0  0  0  0  0  0  0  0  0
  149.6070  138.3941  157.0434 H   0  0  0  0  0  0  0  0  0  0  0  0
  151.0736  138.1680  155.3918 H   0  0  0  0  0  0  0  0  0  0  0  0
  151.2593  139.2115  154.0423 H   0  0  0  0  0  0  0  0  0  0  0  0
  152.2154  141.0288  155.5508 H   0  0  0  0  0  0  0  0  0  0  0  0
  153.3406  138.8908  154.8238 H   0  0  0  0  0  0  0  0  0  0  0  0
  150.9402  140.3804  157.6473 H   0  0  0  0  0  0  0  0  0  0  0  0
  151.9609  138.9503  157.7755 H   0  0  0  0  0  0  0  0  0  0  0  0
  152.0617  140.1131  159.7652 H   0  0  0  0  0  0  0  0  0  0  0  0
  153.7495  140.5888  159.9111 H   0  0  0  0  0  0  0  0  0  0  0  0
  152.1766  143.0143  157.8488 H   0  0  0  0  0  0  0  0  0  0  0  0
  151.5169  145.2835  158.5900 H   0  0  0  0  0  0  0  0  0  0  0  0
  151.3572  145.8102  161.0170 H   0  0  0  0  0  0  0  0  0  0  0  0
  151.8648  144.0544  162.7057 H   0  0  0  0  0  0  0  0  0  0  0  0
  152.5251  141.7764  161.9734 H   0  0  0  0  0  0  0  0  0  0  0  0
  147.7102  143.1514  154.2984 H   0  0  0  0  0  0  0  0  0  0  0  0
  146.1134  142.4760  154.5893 H   0  0  0  0  0  0  0  0  0  0  0  0
  147.0473  141.9357  153.2032 H   0  0  0  0  0  0  0  0  0  0  0  0
  1  2  1  0  0  0  0
  1 22  1  0  0  0  0
  1 23  1  0  0  0  0
  1 24  1  0  0  0  0
  2 20  2  0  0  0  0
  2  3  1  0  0  0  0
  3  4  2  0  0  0  0
  4  5  1  0  0  0  0
  4 25  1  0  0  0  0
  5  6  1  0  0  0  0
  5 18  1  0  0  0  0
  6  7  1  0  0  0  0
  6 26  1  0  0  0  0
  6 27  1  0  0  0  0
  7  8  1  0  0  0  0
  7  9  1  0  0  0  0
  7 28  1  0  0  0  0
  8 29  1  0  0  0  0
  9 10  1  0  0  0  0
  9 30  1  0  0  0  0
  9 31  1  0  0  0  0
 10 11  1  0  0  0  0
 11 12  1  0  0  0  0
 11 32  1  0  0  0  0
 11 33  1  0  0  0  0
 12 17  1  0  0  0  0
 12 13  2  0  0  0  0
 13 14  1  0  0  0  0
 13 34  1  0  0  0  0
 14 15  2  0  0  0  0
 14 35  1  0  0  0  0
 15 16  1  0  0  0  0
 15 36  1  0  0  0  0
 16 17  2  0  0  0  0
 16 37  1  0  0  0  0
 17 38  1  0  0  0  0
 18 19  2  0  0  0  0
 18 20  1  0  0  0  0
 20 21  1  0  0  0  0
 21 39  1  0  0  0  0
 21 40  1  0  0  0  0
 21 41  1  0  0  0  0
M  END
> <s_m_source_file>
AV-unprocessed.smi

> <i_m_source_file_index>
2306

> <i_lp_mmshare_version>
43012

> <i_f3d_flags>
0

> <s_epik_input>
W0NIM11jMW5bY0hdbihjKD1PKWMxW0NIM10pW0NIMl1bQ0BIXShbT0hdKVtDSDJdT1tDSDJdYzJbY0hdW2NIXVtjSF1bY0hdW2NIXTI=

> <s_epik_cmdline>
J2VwaWtfcHl0aG9uJywgJy1waCcsICc3LjAnLCAnLXRuJywgJzgnLCAnLW1hJywgJzIwMCcsICctbWV0YWxfYmluZGluZycsICctaW1hZScsICc8aW5maWxlLm1hZT4nLCAnLW9tYWUnLCAnPG91dGZpbGUubWFlPic=

> <r_lp_tautomer_probability>
1

> <r_epik_Ionization_Penalty>
5.35985e-05

> <r_epik_Ionization_Penalty_Charging>
1.17753e-07

> <r_epik_Ionization_Penalty_Neutral>
5.34808e-05

> <r_epik_State_Penalty>
-0

> <r_epik_Charging_Adjusted_Penalty>
1.17753e-07

> <i_epik_Tot_Q>
0

> <i_epik_Tot_abs_Q>
0

> <r_epik_Metal_State_Penalty>
-0

> <b_epik_Metal_Only>
0

> <s_lp_Force_Field>
OPLS_2005

> <r_lp_Energy>
22.2439

> <b_lp_Chiralities_Consistent>
1

> <s_lp_Variant>
AV-unprocessed.smi:2306-1

> <Gold.Version>
5.8.1

> <Gold.Id.Protein>
6NUR|6NUR_protein|mol2

> <Gold.PLP.Fitness>
49.2555

> <Gold.PLP.PLP>
-43.9413

> <Gold.PLP.part.hbond>
-4.0000

> <Gold.PLP.part.metal>
0.0000

> <Gold.PLP.part.buried>
-3.4589

> <Gold.PLP.part.nonpolar>
-38.2292

> <Gold.PLP.part.repulsive>
2.5808

> <Gold.PLP.ligand.clash>
0.0000

> <Gold.PLP.ligand.torsion>
0.7447

> <Gold.PLP.Chemscore.Hbond>
2.2218

> <Gold.PLP.Chemscore.CHOScore>
0.0000

> <Gold.PLP.Chemscore.Metal>
0.0000

> <Gold.Chemscore.Hbonds>
donor molecule, donor type, donor heavy atom, donor atom, acceptor molecule, acceptor atom, score
      P1  H  7989  7998       L1    19  0.24
      P1  H  7997  8010       L1     8  0.55
      P1  H  8011  8017       L1    19  0.91

> <Gold.PLP.Chemscore.Internal.Correction>
0.1382

> <Gold.Rescore>
     Score         DG    S(hbond)    S(metal)    S(lipo)     H(rot)  DE(clash)    DE(int)     intcor
     14.09     -16.86       1.39        0.00     112.56       2.52       2.10       0.67       ----

> <Gold.Chemscore.Fitness>
14.0899

> <Gold.Chemscore.DG>
-16.8556

> <Gold.Chemscore.ZeroCoef>
-5.4800

> <Gold.Chemscore.Hbond>
1.3914

> <Gold.Chemscore.Metal>
0.0000

> <Gold.Chemscore.Lipo>
112.5603

> <Gold.Chemscore.Internal_Hbond>
0.0000

> <Gold.Chemscore.DEClash>
2.0980

> <Gold.Chemscore.DEInternal>
0.6678

> <Gold.Chemscore.Rot>
2.5162

> <Gold.Chemscore.Internal.Correction>
   9.000000E+99

> <Gold.Chemscore.Hbonds>
donor molecule, donor type, donor heavy atom, donor atom, acceptor molecule, acceptor atom, score
      P1  H  7989  7998       L1    19  0.23
      P1  H  7997  8010       L1     8  0.45
      P1  H  8011  8017       L1    19  0.90

> <Gold.Chemscore.Hbond.Weighted>
-4.6474

> <Gold.Chemscore.Metal.Weighted>
-0.0000

> <Gold.Chemscore.Lipo.Weighted>
-13.1696

> <Gold.Chemscore.Internal_Hbond.Weighted>
0.0000

> <Gold.Chemscore.DEClash.Weighted>
2.0980

> <Gold.Chemscore.DEInternal.Weighted>
0.6678

> <Gold.Chemscore.Rot.Weighted>
6.4414

> <Gold.Chemscore.Internal.Correction.Weighted>
   9.000000E+99

> <Gold.Protein.RotatedTorsions>
[ 6907 6896 6895 6894 ] final  -71.52 input  -60.11 | X-H torsion
[ 7974 7965 7964 7962 ] final -136.99 input  175.53 | X-H torsion
[ 8008 7997 7996 7995 ] final  103.02 input   59.86 | X-H torsion
[ 10167 10162 10161 10158 ] final  -18.00 input  -65.29 | X-H torsion
[ 10718 10713 10712 10709 ] final  -19.29 input   66.30 | X-H torsion
[ 10763 10752 10751 10750 ] final -130.13 input  -60.55 | X-H torsion
[ 11005 11000 10999 10996 ] final    6.89 input  -57.11 | X-H torsion

> <Gold.Protein.ActiveResidues>
 VAL166  LYS551  ARG553  GLY616  TRP617  ASP618  TYR619  PRO620  LYS621  CYS622 
 ASP623  PHE694  ASN695  SER759  ASP760  ASP761  ALA762  ILE779  LEU786  VAL792 
 PHE793  MET794  SER795  GLU796  ALA797  LYS798  CYS799  TRP800  GLU811  SER814 

> <Gold.Protein.RotatedAtoms>
  150.7209  134.5296  159.5693 H   0  0  0  0  0  0  0  0  0  0  0  0  # atno 6907 bound_to 6896
  152.2832  134.7802  160.0401 H   0  0  0  0  0  0  0  0  0  0  0  0  # atno 6908 bound_to 6896
  151.8441  133.3393  159.3689 H   0  0  0  0  0  0  0  0  0  0  0  0  # atno 6909 bound_to 6896
  144.8880  140.6601  143.5164 H   0  0  0  0  0  0  0  0  0  0  0  0  # atno 7974 bound_to 7965
  156.1446  140.3171  155.8550 H   0  0  0  0  0  0  0  0  0  0  0  0  # atno 8008 bound_to 7997
  155.4088  140.0504  157.3050 H   0  0  0  0  0  0  0  0  0  0  0  0  # atno 8009 bound_to 7997
  154.5005  140.2127  155.9368 H   0  0  0  0  0  0  0  0  0  0  0  0  # atno 8010 bound_to 7997
  140.7254  143.4960  150.9930 H   0  0  0  0  0  0  0  0  0  0  0  0  # atno 10167 bound_to 10162
  156.5477  130.4694  149.6467 H   0  0  0  0  0  0  0  0  0  0  0  0  # atno 10718 bound_to 10713
  154.8756  135.3872  154.4033 H   0  0  0  0  0  0  0  0  0  0  0  0  # atno 10763 bound_to 10752
  153.4755  135.7030  153.5973 H   0  0  0  0  0  0  0  0  0  0  0  0  # atno 10764 bound_to 10752
  153.4412  135.3856  155.2196 H   0  0  0  0  0  0  0  0  0  0  0  0  # atno 10765 bound_to 10752
  140.5544  134.0252  155.7948 H   0  0  0  0  0  0  0  0  0  0  0  0  # atno 11005 bound_to 11000
  145.3835  139.1632  143.4268 LP  0  0  0  0  0  0  0  0  0  0  0  0  # atno 17320 bound_to 7965
  146.3036  140.3918  142.8695 LP  0  0  0  0  0  0  0  0  0  0  0  0  # atno 17321 bound_to 7965
  139.8667  143.7245  152.3169 LP  0  0  0  0  0  0  0  0  0  0  0  0  # atno 17342 bound_to 10162
  139.7479  144.7542  151.0551 LP  0  0  0  0  0  0  0  0  0  0  0  0  # atno 17343 bound_to 10162
  156.2913  130.7126  151.1975 LP  0  0  0  0  0  0  0  0  0  0  0  0  # atno 17370 bound_to 10713
  157.7393  131.0530  150.5238 LP  0  0  0  0  0  0  0  0  0  0  0  0  # atno 17371 bound_to 10713
  141.1152  133.9551  157.2835 LP  0  0  0  0  0  0  0  0  0  0  0  0  # atno 17394 bound_to 11000
  139.9439  135.0187  156.8793 LP  0  0  0  0  0  0  0  0  0  0  0  0  # atno 17395 bound_to 11000

$$$$
