AV-unprocessed.smi:776|AV-procd|sdf|3699|dock3
  -GOLD-   22720 1123D 1   1.00000     0.00000
 Structure written by MMmdl.
 44 45  0  0  0  0  0  0  0  0  1 V2000
  153.7434  130.2182  155.6527 C   0  0  0  0  0  0  0  0  0  0  0  0
  153.0413  130.9091  156.8315 C   0  0  0  0  0  0  0  0  0  0  0  0
  152.9792  130.0330  158.0920 C   0  0  0  0  0  0  0  0  0  0  0  0
  151.6912  131.4349  156.4494 C   0  0  0  0  0  0  0  0  0  0  0  0
  150.9604  132.1572  157.2925 N   0  0  0  0  0  0  0  0  0  0  0  0
  149.7990  132.4378  156.5588 O   0  0  0  0  0  0  0  0  0  0  0  0
  149.9818  131.8644  155.3453 C   0  0  0  0  0  0  0  0  0  0  0  0
  148.8865  131.9491  154.3361 C   0  0  0  0  0  0  0  0  0  0  0  0
  149.3522  132.5888  153.0183 C   0  0  0  0  0  0  0  0  0  0  0  0
  148.2603  132.6993  152.0579 N   0  0  0  0  0  0  0  0  0  0  0  0
  147.1486  133.4354  152.2271 C   0  0  0  0  0  0  0  0  0  0  0  0
  146.9754  134.1420  153.2200 O   0  0  0  0  0  0  0  0  0  0  0  0
  146.3144  133.4114  151.1564 N   0  0  0  0  0  0  0  0  0  0  0  0
  146.0437  132.1546  150.4336 C   0  0  0  0  0  0  0  0  0  0  0  0
  144.7863  131.4919  151.0301 C   0  0  0  0  0  0  0  0  0  0  0  0
  143.5796  132.4481  150.9854 C   0  0  0  0  0  0  0  0  0  0  0  0
  143.9261  133.8366  151.5561 C   0  0  0  0  0  0  0  0  0  0  0  0
  145.2218  134.3814  150.9196 C   0  0  1  0  0  0  0  0  0  0  0  0
  145.5222  135.8347  151.3436 C   0  0  0  0  0  0  0  0  0  0  0  0
  151.1351  131.2120  155.2264 N   0  0  0  0  0  0  0  0  0  0  0  0
  153.8336  130.8921  154.8000 H   0  0  0  0  0  0  0  0  0  0  0  0
  153.1938  129.3359  155.3235 H   0  0  0  0  0  0  0  0  0  0  0  0
  154.7485  129.8982  155.9284 H   0  0  0  0  0  0  0  0  0  0  0  0
  153.6566  131.7726  157.0890 H   0  0  0  0  0  0  0  0  0  0  0  0
  152.5508  130.5829  158.9305 H   0  0  0  0  0  0  0  0  0  0  0  0
  153.9748  129.7022  158.3888 H   0  0  0  0  0  0  0  0  0  0  0  0
  152.3691  129.1439  157.9294 H   0  0  0  0  0  0  0  0  0  0  0  0
  148.5054  130.9441  154.1519 H   0  0  0  0  0  0  0  0  0  0  0  0
  148.0639  132.5207  154.7678 H   0  0  0  0  0  0  0  0  0  0  0  0
  149.7894  133.5715  153.2030 H   0  0  0  0  0  0  0  0  0  0  0  0
  150.1360  131.9795  152.5675 H   0  0  0  0  0  0  0  0  0  0  0  0
  148.3567  132.1829  151.1958 H   0  0  0  0  0  0  0  0  0  0  0  0
  145.8895  132.3663  149.3746 H   0  0  0  0  0  0  0  0  0  0  0  0
  146.8744  131.4491  150.4668 H   0  0  0  0  0  0  0  0  0  0  0  0
  144.5537  130.5735  150.4905 H   0  0  0  0  0  0  0  0  0  0  0  0
  144.9830  131.2012  152.0631 H   0  0  0  0  0  0  0  0  0  0  0  0
  143.2563  132.5616  149.9500 H   0  0  0  0  0  0  0  0  0  0  0  0
  142.7358  132.0176  151.5252 H   0  0  0  0  0  0  0  0  0  0  0  0
  143.0977  134.5225  151.3763 H   0  0  0  0  0  0  0  0  0  0  0  0
  144.0445  133.7711  152.6384 H   0  0  0  0  0  0  0  0  0  0  0  0
  145.0680  134.4268  149.8401 H   0  0  0  0  0  0  0  0  0  0  0  0
  144.7676  136.5112  150.9416 H   0  0  0  0  0  0  0  0  0  0  0  0
  146.4898  136.1663  150.9655 H   0  0  0  0  0  0  0  0  0  0  0  0
  145.5140  135.9661  152.4253 H   0  0  0  0  0  0  0  0  0  0  0  0
  1  2  1  0  0  0  0
  1 21  1  0  0  0  0
  1 22  1  0  0  0  0
  1 23  1  0  0  0  0
  2  3  1  0  0  0  0
  2  4  1  0  0  0  0
  2 24  1  0  0  0  0
  3 25  1  0  0  0  0
  3 26  1  0  0  0  0
  3 27  1  0  0  0  0
  4 20  1  0  0  0  0
  4  5  2  0  0  0  0
  5  6  1  0  0  0  0
  6  7  1  0  0  0  0
  7  8  1  0  0  0  0
  7 20  2  0  0  0  0
  8  9  1  0  0  0  0
  8 28  1  0  0  0  0
  8 29  1  0  0  0  0
  9 10  1  0  0  0  0
  9 30  1  0  0  0  0
  9 31  1  0  0  0  0
 10 11  1  0  0  0  0
 10 32  1  0  0  0  0
 11 12  2  0  0  0  0
 11 13  1  0  0  0  0
 13 18  1  0  0  0  0
 13 14  1  0  0  0  0
 14 15  1  0  0  0  0
 14 33  1  0  0  0  0
 14 34  1  0  0  0  0
 15 16  1  0  0  0  0
 15 35  1  0  0  0  0
 15 36  1  0  0  0  0
 16 17  1  0  0  0  0
 16 37  1  0  0  0  0
 16 38  1  0  0  0  0
 17 18  1  0  0  0  0
 17 39  1  0  0  0  0
 17 40  1  0  0  0  0
 18 19  1  0  0  0  0
 18 41  1  0  0  0  0
 19 42  1  0  0  0  0
 19 43  1  0  0  0  0
 19 44  1  0  0  0  0
M  END
> <s_m_source_file>
AV-unprocessed.smi

> <i_m_source_file_index>
776

> <i_lp_mmshare_version>
43012

> <i_f3d_flags>
0

> <s_epik_input>
W0NIM11bQ0hdKFtDSDNdKWMxbm9jKG4xKVtDSDJdW0NIMl1bTkhdQyg9TylOMltDSDJdW0NIMl1bQ0gyXVtDSDJdW0NASF0yW0NIM10=

> <s_epik_cmdline>
J2VwaWtfcHl0aG9uJywgJy1waCcsICc3LjAnLCAnLXRuJywgJzgnLCAnLW1hJywgJzIwMCcsICctbWV0YWxfYmluZGluZycsICctaW1hZScsICc8aW5maWxlLm1hZT4nLCAnLW9tYWUnLCAnPG91dGZpbGUubWFlPic=

> <r_lp_tautomer_probability>
1

> <r_epik_Ionization_Penalty>
6.23032e-05

> <r_epik_Ionization_Penalty_Charging>
0

> <r_epik_Ionization_Penalty_Neutral>
6.23032e-05

> <r_epik_State_Penalty>
-0

> <r_epik_Charging_Adjusted_Penalty>
0

> <i_epik_Tot_Q>
0

> <i_epik_Tot_abs_Q>
0

> <r_epik_Metal_State_Penalty>
-0

> <b_epik_Metal_Only>
0

> <s_lp_Force_Field>
OPLS_2005

> <r_lp_Energy>
26.0958

> <b_lp_Chiralities_Consistent>
1

> <s_lp_Variant>
AV-unprocessed.smi:776-1

> <Gold.Version>
5.8.1

> <Gold.Id.Protein>
6NUR|6NUR_protein|mol2

> <Gold.PLP.Fitness>
41.2926

> <Gold.PLP.PLP>
-35.5645

> <Gold.PLP.part.hbond>
-2.0000

> <Gold.PLP.part.metal>
0.0000

> <Gold.PLP.part.buried>
-5.4951

> <Gold.PLP.part.nonpolar>
-28.5608

> <Gold.PLP.part.repulsive>
0.1219

> <Gold.PLP.ligand.clash>
0.0000

> <Gold.PLP.ligand.torsion>
0.3940

> <Gold.PLP.Chemscore.Hbond>
2.0000

> <Gold.PLP.Chemscore.CHOScore>
0.0000

> <Gold.PLP.Chemscore.Metal>
0.0000

> <Gold.Chemscore.Hbonds>
donor molecule, donor type, donor heavy atom, donor atom, acceptor molecule, acceptor atom, score
      L1  H    10    32       P1 10747  1.00
      P1  H  6896  6908       L1     5  0.24

> <Gold.PLP.Chemscore.Internal.Correction>
0.5160

> <Gold.Rescore>
     Score         DG    S(hbond)    S(metal)    S(lipo)     H(rot)  DE(clash)    DE(int)     intcor
     14.05     -15.98       1.99        0.00      69.01       1.65       0.31       1.62       ----

> <Gold.Chemscore.Fitness>
14.0519

> <Gold.Chemscore.DG>
-15.9832

> <Gold.Chemscore.ZeroCoef>
-5.4800

> <Gold.Chemscore.Hbond>
1.9897

> <Gold.Chemscore.Metal>
0.0000

> <Gold.Chemscore.Lipo>
69.0095

> <Gold.Chemscore.Internal_Hbond>
0.0000

> <Gold.Chemscore.DEClash>
0.3086

> <Gold.Chemscore.DEInternal>
1.6227

> <Gold.Chemscore.Rot>
1.6470

> <Gold.Chemscore.Internal.Correction>
   9.000000E+99

> <Gold.Chemscore.Hbonds>
donor molecule, donor type, donor heavy atom, donor atom, acceptor molecule, acceptor atom, score
      L1  H    10    32       P1 10747  0.96
      P1  H  6896  6908       L1     5  0.19

> <Gold.Chemscore.Hbond.Weighted>
-6.6455

> <Gold.Chemscore.Metal.Weighted>
-0.0000

> <Gold.Chemscore.Lipo.Weighted>
-8.0741

> <Gold.Chemscore.Internal_Hbond.Weighted>
0.0000

> <Gold.Chemscore.DEClash.Weighted>
0.3086

> <Gold.Chemscore.DEInternal.Weighted>
1.6227

> <Gold.Chemscore.Rot.Weighted>
4.2164

> <Gold.Chemscore.Internal.Correction.Weighted>
   9.000000E+99

> <Gold.Protein.RotatedTorsions>
[ 6907 6896 6895 6894 ] final   97.03 input  -60.11 | X-H torsion
[ 7974 7965 7964 7962 ] final  -39.79 input  175.53 | X-H torsion
[ 8008 7997 7996 7995 ] final   86.16 input   59.86 | X-H torsion
[ 10167 10162 10161 10158 ] final  -98.65 input  -65.29 | X-H torsion
[ 10718 10713 10712 10709 ] final  -33.21 input   66.30 | X-H torsion
[ 10763 10752 10751 10750 ] final   51.24 input  -60.55 | X-H torsion
[ 11005 11000 10999 10996 ] final -157.77 input  -57.11 | X-H torsion

> <Gold.Protein.ActiveResidues>
 VAL166  LYS551  ARG553  GLY616  TRP617  ASP618  TYR619  PRO620  LYS621  CYS622 
 ASP623  PHE694  ASN695  SER759  ASP760  ASP761  ALA762  ILE779  LEU786  VAL792 
 PHE793  MET794  SER795  GLU796  ALA797  LYS798  CYS799  TRP800  GLU811  SER814 

> <Gold.Protein.RotatedAtoms>
  152.5428  134.0796  159.8229 H   0  0  0  0  0  0  0  0  0  0  0  0  # atno 6907 bound_to 6896
  151.0899  133.5316  159.2623 H   0  0  0  0  0  0  0  0  0  0  0  0  # atno 6908 bound_to 6896
  151.2111  135.0490  159.8966 H   0  0  0  0  0  0  0  0  0  0  0  0  # atno 6909 bound_to 6896
  146.0364  140.6665  142.9108 H   0  0  0  0  0  0  0  0  0  0  0  0  # atno 7974 bound_to 7965
  155.9592  140.3395  155.6476 H   0  0  0  0  0  0  0  0  0  0  0  0  # atno 8008 bound_to 7997
  155.6820  140.0739  157.2499 H   0  0  0  0  0  0  0  0  0  0  0  0  # atno 8009 bound_to 7997
  154.4139  140.1673  156.1980 H   0  0  0  0  0  0  0  0  0  0  0  0  # atno 8010 bound_to 7997
  140.2708  143.3345  152.0537 H   0  0  0  0  0  0  0  0  0  0  0  0  # atno 10167 bound_to 10162
  156.3654  130.4331  149.7589 H   0  0  0  0  0  0  0  0  0  0  0  0  # atno 10718 bound_to 10713
  152.9785  135.5852  154.4383 H   0  0  0  0  0  0  0  0  0  0  0  0  # atno 10763 bound_to 10752
  154.3987  135.2768  155.2112 H   0  0  0  0  0  0  0  0  0  0  0  0  # atno 10764 bound_to 10752
  154.3952  135.6116  153.5920 H   0  0  0  0  0  0  0  0  0  0  0  0  # atno 10765 bound_to 10752
  140.6609  134.4350  157.5234 H   0  0  0  0  0  0  0  0  0  0  0  0  # atno 11005 bound_to 11000
  144.7054  140.3829  143.7122 LP  0  0  0  0  0  0  0  0  0  0  0  0  # atno 17320 bound_to 7965
  145.6956  139.1649  143.2622 LP  0  0  0  0  0  0  0  0  0  0  0  0  # atno 17321 bound_to 7965
  139.4989  144.6658  151.6360 LP  0  0  0  0  0  0  0  0  0  0  0  0  # atno 17342 bound_to 10162
  140.5891  143.9811  150.6314 LP  0  0  0  0  0  0  0  0  0  0  0  0  # atno 17343 bound_to 10162
  156.4736  130.8008  151.3025 LP  0  0  0  0  0  0  0  0  0  0  0  0  # atno 17370 bound_to 10713
  157.7478  131.0028  150.3014 LP  0  0  0  0  0  0  0  0  0  0  0  0  # atno 17371 bound_to 10713
  139.9013  134.8549  156.1884 LP  0  0  0  0  0  0  0  0  0  0  0  0  # atno 17394 bound_to 11000
  141.0466  133.6910  156.1694 LP  0  0  0  0  0  0  0  0  0  0  0  0  # atno 17395 bound_to 11000

$$$$
