AV-unprocessed.smi:3285|AV-procd|sdf|12582|dock5
  -GOLD-   2272018503D 1   1.00000     0.00000
 Structure written by MMmdl.
 45 46  0  0  0  0  0  0  0  0  2 V2000
  148.8233  127.0813  151.3526 C   0  0  0  0  0  0  0  0  0  0  0  0
  148.0114  126.7932  152.5829 C   0  0  0  0  0  0  0  0  0  0  0  0
  147.7947  125.5402  152.9447 N   0  0  0  0  0  0  0  0  0  0  0  0
  147.0241  125.6055  154.1094 O   0  0  0  0  0  0  0  0  0  0  0  0
  146.8071  126.9115  154.4087 C   0  0  0  0  0  0  0  0  0  0  0  0
  145.9989  127.1939  155.6299 C   0  0  0  0  0  0  0  0  0  0  0  0
  147.4067  127.7186  153.4814 C   0  0  0  0  0  0  0  0  0  0  0  0
  147.4322  129.2217  153.4162 C   0  0  0  0  0  0  0  0  0  0  0  0
  146.0978  129.7838  152.9096 C   0  0  0  0  0  0  0  0  0  0  0  0
  146.3172  130.9326  152.0066 N   0  3  0  0  0  0  0  0  0  0  0  0
  145.3052  131.1086  150.9383 C   0  0  2  0  0  0  0  0  0  0  0  0
  145.8741  131.9680  149.7970 C   0  0  0  0  0  0  0  0  0  0  0  0
  146.0397  133.4390  150.2110 C   0  0  0  0  0  0  0  0  0  0  0  0
  144.7226  134.0519  150.7288 C   0  0  2  0  0  0  0  0  0  0  0  0
  144.9495  135.5238  151.1174 C   0  0  0  0  0  0  0  0  0  0  0  0
  144.1422  133.2017  151.8899 C   0  0  1  0  0  0  0  0  0  0  0  0
  142.7933  133.7340  152.4060 C   0  0  0  0  0  0  0  0  0  0  0  0
  143.9909  131.7259  151.4610 C   0  0  0  0  0  0  0  0  0  0  0  0
  149.8030  127.4791  151.6169 H   0  0  0  0  0  0  0  0  0  0  0  0
  148.3259  127.8161  150.7194 H   0  0  0  0  0  0  0  0  0  0  0  0
  148.9811  126.1840  150.7527 H   0  0  0  0  0  0  0  0  0  0  0  0
  146.4988  127.9265  156.2637 H   0  0  0  0  0  0  0  0  0  0  0  0
  145.8461  126.2889  156.2185 H   0  0  0  0  0  0  0  0  0  0  0  0
  145.0198  127.5902  155.3607 H   0  0  0  0  0  0  0  0  0  0  0  0
  147.6510  129.6405  154.3990 H   0  0  0  0  0  0  0  0  0  0  0  0
  148.2374  129.5633  152.7648 H   0  0  0  0  0  0  0  0  0  0  0  0
  145.5462  129.0064  152.3794 H   0  0  0  0  0  0  0  0  0  0  0  0
  145.4877  130.0932  153.7577 H   0  0  0  0  0  0  0  0  0  0  0  0
  146.3632  131.7804  152.5538 H   0  0  0  0  0  0  0  0  0  0  0  0
  145.0897  130.1197  150.5309 H   0  0  0  0  0  0  0  0  0  0  0  0
  146.8290  131.5643  149.4577 H   0  0  0  0  0  0  0  0  0  0  0  0
  145.2021  131.9151  148.9392 H   0  0  0  0  0  0  0  0  0  0  0  0
  146.8100  133.5193  150.9794 H   0  0  0  0  0  0  0  0  0  0  0  0
  146.4037  134.0115  149.3569 H   0  0  0  0  0  0  0  0  0  0  0  0
  144.0058  134.0374  149.9061 H   0  0  0  0  0  0  0  0  0  0  0  0
  145.6012  135.6096  151.9874 H   0  0  0  0  0  0  0  0  0  0  0  0
  144.0131  136.0311  151.3475 H   0  0  0  0  0  0  0  0  0  0  0  0
  145.4141  136.0766  150.3005 H   0  0  0  0  0  0  0  0  0  0  0  0
  144.8444  133.2388  152.7240 H   0  0  0  0  0  0  0  0  0  0  0  0
  142.0567  133.7943  151.6041 H   0  0  0  0  0  0  0  0  0  0  0  0
  142.8902  134.7250  152.8485 H   0  0  0  0  0  0  0  0  0  0  0  0
  142.3864  133.0827  153.1800 H   0  0  0  0  0  0  0  0  0  0  0  0
  143.2428  131.6666  150.6692 H   0  0  0  0  0  0  0  0  0  0  0  0
  143.5866  131.1338  152.2817 H   0  0  0  0  0  0  0  0  0  0  0  0
  147.2114  130.7945  151.5578 H   0  0  0  0  0  0  0  0  0  0  0  0
  1  2  1  0  0  0  0
  1 19  1  0  0  0  0
  1 20  1  0  0  0  0
  1 21  1  0  0  0  0
  2  7  1  0  0  0  0
  2  3  2  0  0  0  0
  3  4  1  0  0  0  0
  4  5  1  0  0  0  0
  5  6  1  0  0  0  0
  5  7  2  0  0  0  0
  6 22  1  0  0  0  0
  6 23  1  0  0  0  0
  6 24  1  0  0  0  0
  7  8  1  0  0  0  0
  8  9  1  0  0  0  0
  8 25  1  0  0  0  0
  8 26  1  0  0  0  0
  9 10  1  0  0  0  0
  9 27  1  0  0  0  0
  9 28  1  0  0  0  0
 10 11  1  0  0  0  0
 10 29  1  0  0  0  0
 10 45  1  0  0  0  0
 11 18  1  0  0  0  0
 11 12  1  0  0  0  0
 11 30  1  0  0  0  0
 12 13  1  0  0  0  0
 12 31  1  0  0  0  0
 12 32  1  0  0  0  0
 13 14  1  0  0  0  0
 13 33  1  0  0  0  0
 13 34  1  0  0  0  0
 14 15  1  0  0  0  0
 14 16  1  0  0  0  0
 14 35  1  0  0  0  0
 15 36  1  0  0  0  0
 15 37  1  0  0  0  0
 15 38  1  0  0  0  0
 16 17  1  0  0  0  0
 16 18  1  0  0  0  0
 16 39  1  0  0  0  0
 17 40  1  0  0  0  0
 17 41  1  0  0  0  0
 17 42  1  0  0  0  0
 18 43  1  0  0  0  0
 18 44  1  0  0  0  0
M  CHG  1  10   1
M  END
> <s_m_source_file>
AV-unprocessed.smi

> <i_m_source_file_index>
3285

> <i_lp_mmshare_version>
43012

> <i_f3d_flags>
0

> <s_epik_input>
W0NIM11jMW5vYyhbQ0gzXSljMVtDSDJdW0NIMl1bTkhdW0NAQEhdMltDSDJdW0NIMl1bQ0BASF0oW0NIM10pW0NAQEhdKFtDSDNdKVtDSDJdMg==

> <s_epik_cmdline>
J2VwaWtfcHl0aG9uJywgJy1waCcsICc3LjAnLCAnLXRuJywgJzgnLCAnLW1hJywgJzIwMCcsICctbWV0YWxfYmluZGluZycsICctaW1hZScsICc8aW5maWxlLm1hZT4nLCAnLW9tYWUnLCAnPG91dGZpbGUubWFlPic=

> <r_lp_tautomer_probability>
1

> <r_epik_Ionization_Penalty>
0.000204615

> <r_epik_Ionization_Penalty_Charging>
0.000204615

> <r_epik_Ionization_Penalty_Neutral>
9.28663e-11

> <r_epik_State_Penalty>
-0

> <r_epik_Charging_Adjusted_Penalty>
0.000204615

> <i_epik_Tot_Q>
1

> <i_epik_Tot_abs_Q>
1

> <r_epik_Metal_State_Penalty>
-0

> <b_epik_Metal_Only>
0

> <s_lp_Force_Field>
OPLS_2005

> <r_lp_Energy>
13.9042

> <b_lp_Chiralities_Consistent>
1

> <s_lp_Variant>
AV-unprocessed.smi:3285-3

> <Gold.Version>
5.8.1

> <Gold.Id.Protein>
6NUR|6NUR_protein|mol2

> <Gold.PLP.Fitness>
32.7672

> <Gold.PLP.PLP>
-31.4598

> <Gold.PLP.part.hbond>
-3.0000

> <Gold.PLP.part.metal>
0.0000

> <Gold.PLP.part.buried>
-1.3061

> <Gold.PLP.part.nonpolar>
-26.9641

> <Gold.PLP.part.repulsive>
0.0115

> <Gold.PLP.ligand.clash>
0.0000

> <Gold.PLP.ligand.torsion>
0.8491

> <Gold.PLP.Chemscore.Hbond>
1.0000

> <Gold.PLP.Chemscore.CHOScore>
0.0000

> <Gold.PLP.Chemscore.Metal>
0.0000

> <Gold.Chemscore.Hbonds>
donor molecule, donor type, donor heavy atom, donor atom, acceptor molecule, acceptor atom, score
      L1  H    10    45       P1 10747  0.63

> <Gold.PLP.Chemscore.Internal.Correction>
0.0055

> <Gold.Rescore>
     Score         DG    S(hbond)    S(metal)    S(lipo)     H(rot)  DE(clash)    DE(int)     intcor
     14.76     -17.34       1.00        0.00     102.34       1.35       2.06       0.52       ----

> <Gold.Chemscore.Fitness>
14.7622

> <Gold.Chemscore.DG>
-17.3446

> <Gold.Chemscore.ZeroCoef>
-5.4800

> <Gold.Chemscore.Hbond>
0.9994

> <Gold.Chemscore.Metal>
0.0000

> <Gold.Chemscore.Lipo>
102.3381

> <Gold.Chemscore.Internal_Hbond>
0.0000

> <Gold.Chemscore.DEClash>
2.0620

> <Gold.Chemscore.DEInternal>
0.5204

> <Gold.Chemscore.Rot>
1.3465

> <Gold.Chemscore.Internal.Correction>
   9.000000E+99

> <Gold.Chemscore.Hbonds>
donor molecule, donor type, donor heavy atom, donor atom, acceptor molecule, acceptor atom, score
      L1  H    10    45       P1 10747  0.63

> <Gold.Chemscore.Hbond.Weighted>
-3.3380

> <Gold.Chemscore.Metal.Weighted>
-0.0000

> <Gold.Chemscore.Lipo.Weighted>
-11.9736

> <Gold.Chemscore.Internal_Hbond.Weighted>
0.0000

> <Gold.Chemscore.DEClash.Weighted>
2.0620

> <Gold.Chemscore.DEInternal.Weighted>
0.5204

> <Gold.Chemscore.Rot.Weighted>
3.4470

> <Gold.Chemscore.Internal.Correction.Weighted>
   9.000000E+99

> <Gold.Protein.RotatedTorsions>
[ 6907 6896 6895 6894 ] final  121.63 input  -60.11 | X-H torsion
[ 7974 7965 7964 7962 ] final    0.35 input  175.53 | X-H torsion
[ 8008 7997 7996 7995 ] final  153.56 input   59.86 | X-H torsion
[ 10167 10162 10161 10158 ] final   83.26 input  -65.29 | X-H torsion
[ 10718 10713 10712 10709 ] final  100.05 input   66.30 | X-H torsion
[ 10763 10752 10751 10750 ] final  -88.77 input  -60.55 | X-H torsion
[ 11005 11000 10999 10996 ] final  135.88 input  -57.11 | X-H torsion

> <Gold.Protein.ActiveResidues>
 VAL166  LYS551  ARG553  GLY616  TRP617  ASP618  TYR619  PRO620  LYS621  CYS622 
 ASP623  PHE694  ASN695  SER759  ASP760  ASP761  ALA762  ILE779  LEU786  VAL792 
 PHE793  MET794  SER795  GLU796  ALA797  LYS798  CYS799  TRP800  GLU811  SER814 

> <Gold.Protein.RotatedAtoms>
  152.4307  133.7272  159.6566 H   0  0  0  0  0  0  0  0  0  0  0  0  # atno 6907 bound_to 6896
  150.8186  133.8282  159.3155 H   0  0  0  0  0  0  0  0  0  0  0  0  # atno 6908 bound_to 6896
  151.5971  135.1052  160.0103 H   0  0  0  0  0  0  0  0  0  0  0  0  # atno 6909 bound_to 6896
  146.2433  140.1151  142.8342 H   0  0  0  0  0  0  0  0  0  0  0  0  # atno 7974 bound_to 7965
  156.2575  140.1990  156.6510 H   0  0  0  0  0  0  0  0  0  0  0  0  # atno 8008 bound_to 7997
  154.6537  140.0569  157.0009 H   0  0  0  0  0  0  0  0  0  0  0  0  # atno 8009 bound_to 7997
  155.1380  140.3240  155.4461 H   0  0  0  0  0  0  0  0  0  0  0  0  # atno 8010 bound_to 7997
  139.9203  144.6217  150.8447 H   0  0  0  0  0  0  0  0  0  0  0  0  # atno 10167 bound_to 10162
  157.6863  131.0687  150.5041 H   0  0  0  0  0  0  0  0  0  0  0  0  # atno 10718 bound_to 10713
  154.6481  135.5365  153.7869 H   0  0  0  0  0  0  0  0  0  0  0  0  # atno 10763 bound_to 10752
  153.0370  135.6475  154.1058 H   0  0  0  0  0  0  0  0  0  0  0  0  # atno 10764 bound_to 10752
  154.0978  135.2935  155.3238 H   0  0  0  0  0  0  0  0  0  0  0  0  # atno 10765 bound_to 10752
  140.0009  134.9479  157.0070 H   0  0  0  0  0  0  0  0  0  0  0  0  # atno 11005 bound_to 11000
  145.0454  140.8977  143.5027 LP  0  0  0  0  0  0  0  0  0  0  0  0  # atno 17320 bound_to 7965
  145.1239  139.2675  143.5574 LP  0  0  0  0  0  0  0  0  0  0  0  0  # atno 17321 bound_to 7965
  140.7664  143.3302  151.2427 LP  0  0  0  0  0  0  0  0  0  0  0  0  # atno 17342 bound_to 10162
  139.6867  143.9761  152.2838 LP  0  0  0  0  0  0  0  0  0  0  0  0  # atno 17343 bound_to 10162
  156.5361  130.4196  149.6177 LP  0  0  0  0  0  0  0  0  0  0  0  0  # atno 17370 bound_to 10713
  156.3026  130.7185  151.2060 LP  0  0  0  0  0  0  0  0  0  0  0  0  # atno 17371 bound_to 10713
  140.4730  134.1367  155.7205 LP  0  0  0  0  0  0  0  0  0  0  0  0  # atno 17394 bound_to 11000
  141.1641  133.8737  157.1765 LP  0  0  0  0  0  0  0  0  0  0  0  0  # atno 17395 bound_to 11000

$$$$
