AV-unprocessed.smi:1266|AV-procd|sdf|5321|dock4
  -GOLD-   22720 4443D 1   1.00000     0.00000
 Structure written by MMmdl.
 40 41  0  0  0  0  0  0  0  0  3 V2000
  152.7722  139.7907  156.9376 O   0  0  0  0  0  0  0  0  0  0  0  0
  151.6872  140.2769  156.6154 C   0  0  0  0  0  0  0  0  0  0  0  0
  150.7443  139.5377  155.6552 C   0  0  0  0  0  0  0  0  0  0  0  0
  150.3768  138.1877  156.1150 N   0  0  0  0  0  0  0  0  0  0  0  0
  149.5480  138.1024  157.2512 C   0  0  0  0  0  0  0  0  0  0  0  0
  149.1484  136.9200  157.7593 C   0  0  0  0  0  0  0  0  0  0  0  0
  148.3012  136.8514  158.9298 N   0  3  0  0  0  0  0  0  0  0  0  0
  147.9297  135.7505  159.3235 O   0  0  0  0  0  0  0  0  0  0  0  0
  147.9784  137.8930  159.4934 O   0  5  0  0  0  0  0  0  0  0  0  0
  149.5998  135.7135  157.0936 C   0  0  0  0  0  0  0  0  0  0  0  0
  150.3975  135.7881  156.0101 C   0  0  0  0  0  0  0  0  0  0  0  0
  150.8363  137.0760  155.4628 C   0  0  0  0  0  0  0  0  0  0  0  0
  151.5710  137.1507  154.4778 O   0  0  0  0  0  0  0  0  0  0  0  0
  151.2439  141.4578  157.0741 N   0  0  0  0  0  0  0  0  0  0  0  0
  151.9607  142.3378  157.9942 C   0  0  0  0  0  0  0  0  0  0  0  0
  151.6316  141.9151  159.4416 C   0  0  0  0  0  0  0  0  0  0  0  0
  152.5781  142.5324  160.4853 C   0  0  0  0  0  0  0  0  0  0  0  0
  152.1749  143.9214  161.0108 C   0  0  0  0  0  0  0  0  0  0  0  0
  151.6045  144.9085  159.9776 C   0  0  0  0  0  0  0  0  0  0  0  0
  152.2557  144.8541  158.5865 C   0  0  0  0  0  0  0  0  0  0  0  0
  151.6092  143.8039  157.6672 C   0  0  0  0  0  0  0  0  0  0  0  0
  149.8516  140.1494  155.5173 H   0  0  0  0  0  0  0  0  0  0  0  0
  151.2077  139.4855  154.6681 H   0  0  0  0  0  0  0  0  0  0  0  0
  149.2721  139.0566  157.6769 H   0  0  0  0  0  0  0  0  0  0  0  0
  149.3018  134.7416  157.4587 H   0  0  0  0  0  0  0  0  0  0  0  0
  150.7227  134.8768  155.5302 H   0  0  0  0  0  0  0  0  0  0  0  0
  150.3396  141.7764  156.7573 H   0  0  0  0  0  0  0  0  0  0  0  0
  153.0321  142.1955  157.8405 H   0  0  0  0  0  0  0  0  0  0  0  0
  150.5904  142.1269  159.6884 H   0  0  0  0  0  0  0  0  0  0  0  0
  151.7374  140.8313  159.5093 H   0  0  0  0  0  0  0  0  0  0  0  0
  152.6442  141.8602  161.3417 H   0  0  0  0  0  0  0  0  0  0  0  0
  153.5893  142.5736  160.0788 H   0  0  0  0  0  0  0  0  0  0  0  0
  151.4406  143.8031  161.8083 H   0  0  0  0  0  0  0  0  0  0  0  0
  153.0494  144.3688  161.4851 H   0  0  0  0  0  0  0  0  0  0  0  0
  150.5293  144.7538  159.8799 H   0  0  0  0  0  0  0  0  0  0  0  0
  151.7121  145.9159  160.3812 H   0  0  0  0  0  0  0  0  0  0  0  0
  152.1215  145.8286  158.1159 H   0  0  0  0  0  0  0  0  0  0  0  0
  153.3337  144.7059  158.6601 H   0  0  0  0  0  0  0  0  0  0  0  0
  151.9249  144.0142  156.6445 H   0  0  0  0  0  0  0  0  0  0  0  0
  150.5262  143.9364  157.6698 H   0  0  0  0  0  0  0  0  0  0  0  0
  1  2  2  0  0  0  0
  2  3  1  0  0  0  0
  2 14  1  0  0  0  0
  3  4  1  0  0  0  0
  3 22  1  0  0  0  0
  3 23  1  0  0  0  0
  4 12  1  0  0  0  0
  4  5  1  0  0  0  0
  5  6  2  0  0  0  0
  5 24  1  0  0  0  0
  6  7  1  0  0  0  0
  6 10  1  0  0  0  0
  7  8  2  0  0  0  0
  7  9  1  0  0  0  0
 10 11  2  0  0  0  0
 10 25  1  0  0  0  0
 11 12  1  0  0  0  0
 11 26  1  0  0  0  0
 12 13  2  0  0  0  0
 14 15  1  0  0  0  0
 14 27  1  0  0  0  0
 15 21  1  0  0  0  0
 15 16  1  0  0  0  0
 15 28  1  0  0  0  0
 16 17  1  0  0  0  0
 16 29  1  0  0  0  0
 16 30  1  0  0  0  0
 17 18  1  0  0  0  0
 17 31  1  0  0  0  0
 17 32  1  0  0  0  0
 18 19  1  0  0  0  0
 18 33  1  0  0  0  0
 18 34  1  0  0  0  0
 19 20  1  0  0  0  0
 19 35  1  0  0  0  0
 19 36  1  0  0  0  0
 20 21  1  0  0  0  0
 20 37  1  0  0  0  0
 20 38  1  0  0  0  0
 21 39  1  0  0  0  0
 21 40  1  0  0  0  0
M  CHG  1   7   1
M  CHG  1   9  -1
M  END
> <s_m_source_file>
AV-unprocessed.smi

> <i_m_source_file_index>
1266

> <i_lp_mmshare_version>
43012

> <i_f3d_flags>
0

> <s_epik_input>
W0NIMl0xW0NIMl1bQ0gyXVtDSDJdW0NIMl1bQ0gyXVtDSF0xW05IXUMoPU8pW0NIMl1uMltjSF1jKFtOK10oPU8pW08tXSlbY0hdW2NIXWMyPU8=

> <s_epik_cmdline>
J2VwaWtfcHl0aG9uJywgJy1waCcsICc3LjAnLCAnLXRuJywgJzgnLCAnLW1hJywgJzIwMCcsICctbWV0YWxfYmluZGluZycsICctaW1hZScsICc8aW5maWxlLm1hZT4nLCAnLW9tYWUnLCAnPG91dGZpbGUubWFlPic=

> <r_lp_tautomer_probability>
1

> <r_epik_Ionization_Penalty>
2.02954e-08

> <r_epik_Ionization_Penalty_Charging>
8.05481e-11

> <r_epik_Ionization_Penalty_Neutral>
2.02148e-08

> <r_epik_State_Penalty>
-0

> <r_epik_Charging_Adjusted_Penalty>
8.05481e-11

> <i_epik_Tot_Q>
0

> <i_epik_Tot_abs_Q>
2

> <r_epik_Metal_State_Penalty>
-0

> <b_epik_Metal_Only>
0

> <s_lp_Force_Field>
OPLS_2005

> <r_lp_Energy>
25.8216

> <b_lp_Chiralities_Consistent>
1

> <s_lp_Variant>
AV-unprocessed.smi:1266-1

> <Gold.Version>
5.8.1

> <Gold.Id.Protein>
6NUR|6NUR_protein|mol2

> <Gold.PLP.Fitness>
44.1073

> <Gold.PLP.PLP>
-37.8076

> <Gold.PLP.part.hbond>
-3.6461

> <Gold.PLP.part.metal>
0.0000

> <Gold.PLP.part.buried>
-5.3058

> <Gold.PLP.part.nonpolar>
-29.2954

> <Gold.PLP.part.repulsive>
0.2517

> <Gold.PLP.ligand.clash>
0.0000

> <Gold.PLP.ligand.torsion>
0.4559

> <Gold.PLP.Chemscore.Hbond>
2.3914

> <Gold.PLP.Chemscore.CHOScore>
0.0000

> <Gold.PLP.Chemscore.Metal>
0.0000

> <Gold.Chemscore.Hbonds>
donor molecule, donor type, donor heavy atom, donor atom, acceptor molecule, acceptor atom, score
      P1  H  6934  6947       L1     9  0.43
      P1  H  7997  8010       L1     1  1.00
      P1  H 10752 10765       L1    13  0.99

> <Gold.PLP.Chemscore.Internal.Correction>
0.0372

> <Gold.Rescore>
     Score         DG    S(hbond)    S(metal)    S(lipo)     H(rot)  DE(clash)    DE(int)     intcor
     20.80     -21.69       2.77        0.00      93.28       1.55       0.16       0.73       ----

> <Gold.Chemscore.Fitness>
20.8001

> <Gold.Chemscore.DG>
-21.6884

> <Gold.Chemscore.ZeroCoef>
-5.4800

> <Gold.Chemscore.Hbond>
2.7737

> <Gold.Chemscore.Metal>
0.0000

> <Gold.Chemscore.Lipo>
93.2761

> <Gold.Chemscore.Internal_Hbond>
0.0000

> <Gold.Chemscore.DEClash>
0.1596

> <Gold.Chemscore.DEInternal>
0.7287

> <Gold.Chemscore.Rot>
1.5505

> <Gold.Chemscore.Internal.Correction>
   9.000000E+99

> <Gold.Chemscore.Hbonds>
donor molecule, donor type, donor heavy atom, donor atom, acceptor molecule, acceptor atom, score
      P1  H  6934  6947       L1     9  0.41
      P1  H  7997  8010       L1     1  0.98
      P1  H 10752 10765       L1    13  0.86

> <Gold.Chemscore.Hbond.Weighted>
-9.2643

> <Gold.Chemscore.Metal.Weighted>
-0.0000

> <Gold.Chemscore.Lipo.Weighted>
-10.9133

> <Gold.Chemscore.Internal_Hbond.Weighted>
0.0000

> <Gold.Chemscore.DEClash.Weighted>
0.1596

> <Gold.Chemscore.DEInternal.Weighted>
0.7287

> <Gold.Chemscore.Rot.Weighted>
3.9692

> <Gold.Chemscore.Internal.Correction.Weighted>
   9.000000E+99

> <Gold.Protein.RotatedTorsions>
[ 6907 6896 6895 6894 ] final -160.46 input  -60.11 | X-H torsion
[ 7974 7965 7964 7962 ] final   84.72 input  175.53 | X-H torsion
[ 8008 7997 7996 7995 ] final   49.39 input   59.86 | X-H torsion
[ 10167 10162 10161 10158 ] final  147.09 input  -65.29 | X-H torsion
[ 10718 10713 10712 10709 ] final  -75.20 input   66.30 | X-H torsion
[ 10763 10752 10751 10750 ] final  158.07 input  -60.55 | X-H torsion
[ 11005 11000 10999 10996 ] final   78.07 input  -57.11 | X-H torsion

> <Gold.Protein.ActiveResidues>
 VAL166  LYS551  ARG553  GLY616  TRP617  ASP618  TYR619  PRO620  LYS621  CYS622 
 ASP623  PHE694  ASN695  SER759  ASP760  ASP761  ALA762  ILE779  LEU786  VAL792 
 PHE793  MET794  SER795  GLU796  ALA797  LYS798  CYS799  TRP800  GLU811  SER814 

> <Gold.Protein.RotatedAtoms>
  151.3494  133.3931  159.2678 H   0  0  0  0  0  0  0  0  0  0  0  0  # atno 6907 bound_to 6896
  150.9813  134.9169  159.7856 H   0  0  0  0  0  0  0  0  0  0  0  0  # atno 6908 bound_to 6896
  152.5218  134.3458  159.9285 H   0  0  0  0  0  0  0  0  0  0  0  0  # atno 6909 bound_to 6896
  145.5950  139.2343  143.2278 H   0  0  0  0  0  0  0  0  0  0  0  0  # atno 7974 bound_to 7965
  155.4015  140.3438  155.4257 H   0  0  0  0  0  0  0  0  0  0  0  0  # atno 8008 bound_to 7997
  156.1501  140.1568  156.8816 H   0  0  0  0  0  0  0  0  0  0  0  0  # atno 8009 bound_to 7997
  154.5045  140.0806  156.7847 H   0  0  0  0  0  0  0  0  0  0  0  0  # atno 8010 bound_to 7997
  139.4896  144.5781  151.6925 H   0  0  0  0  0  0  0  0  0  0  0  0  # atno 10167 bound_to 10162
  156.0216  130.4435  150.3006 H   0  0  0  0  0  0  0  0  0  0  0  0  # atno 10718 bound_to 10713
  154.2103  135.2786  155.2960 H   0  0  0  0  0  0  0  0  0  0  0  0  # atno 10763 bound_to 10752
  154.5784  135.5597  153.7165 H   0  0  0  0  0  0  0  0  0  0  0  0  # atno 10764 bound_to 10752
  153.0066  135.6338  154.2242 H   0  0  0  0  0  0  0  0  0  0  0  0  # atno 10765 bound_to 10752
  139.9228  134.7734  156.1602 H   0  0  0  0  0  0  0  0  0  0  0  0  # atno 11005 bound_to 11000
  146.1619  140.6776  142.9273 LP  0  0  0  0  0  0  0  0  0  0  0  0  # atno 17320 bound_to 7965
  144.7335  140.4740  143.6921 LP  0  0  0  0  0  0  0  0  0  0  0  0  # atno 17321 bound_to 7965
  140.5382  144.0622  150.6078 LP  0  0  0  0  0  0  0  0  0  0  0  0  # atno 17342 bound_to 10162
  140.3635  143.2894  152.0357 LP  0  0  0  0  0  0  0  0  0  0  0  0  # atno 17343 bound_to 10162
  157.1109  131.0221  151.3048 LP  0  0  0  0  0  0  0  0  0  0  0  0  # atno 17370 bound_to 10713
  157.4705  130.7706  149.7319 LP  0  0  0  0  0  0  0  0  0  0  0  0  # atno 17371 bound_to 10713
  141.0762  133.6774  156.2242 LP  0  0  0  0  0  0  0  0  0  0  0  0  # atno 17394 bound_to 11000
  140.6424  134.5152  157.5570 LP  0  0  0  0  0  0  0  0  0  0  0  0  # atno 17395 bound_to 11000

$$$$
