AV-unprocessed.smi:3220|AV-procd|sdf|12298|dock3
  -GOLD-   2272018143D 1   1.00000     0.00000
 Structure written by MMmdl.
 33 34  0  0  0  0  0  0  0  0  1 V2000
  152.3602  140.3052  158.6300 C   0  0  0  0  0  0  0  0  0  0  0  0
  151.1023  140.7054  157.8474 C   0  0  1  0  0  0  0  0  0  0  0  0
  151.2694  142.0930  157.1905 C   0  0  0  0  0  0  0  0  0  0  0  0
  151.5287  143.1468  158.1555 N   0  0  0  0  0  0  0  0  0  0  0  0
  150.8428  144.3292  158.3400 C   0  0  0  0  0  0  0  0  0  0  0  0
  151.4443  144.9909  159.3718 C   0  0  0  0  0  0  0  0  0  0  0  0
  152.5057  144.1242  159.7556 C   0  0  0  0  0  0  0  0  0  0  0  0
  152.5564  143.0235  159.0230 N   0  0  0  0  0  0  0  0  0  0  0  0
  150.8273  139.6815  156.8398 N   0  0  0  0  0  0  0  0  0  0  0  0
  151.6889  139.2439  155.9078 C   0  0  0  0  0  0  0  0  0  0  0  0
  152.8310  139.6872  155.7805 O   0  0  0  0  0  0  0  0  0  0  0  0
  151.1772  138.1286  154.9837 C   0  0  2  0  0  0  0  0  0  0  0  0
  149.7386  137.6776  155.3061 C   0  0  0  0  0  0  0  0  0  0  0  0
  149.8702  136.1974  155.6212 C   0  0  0  0  0  0  0  0  0  0  0  0
  151.3284  136.0657  156.0361 C   0  0  0  0  0  0  0  0  0  0  0  0
  151.9890  136.9684  155.1613 O   0  0  0  0  0  0  0  0  0  0  0  0
  152.5853  141.0340  159.4091 H   0  0  0  0  0  0  0  0  0  0  0  0
  153.2313  140.2374  157.9770 H   0  0  0  0  0  0  0  0  0  0  0  0
  152.2299  139.3371  159.1148 H   0  0  0  0  0  0  0  0  0  0  0  0
  150.2800  140.7504  158.5642 H   0  0  0  0  0  0  0  0  0  0  0  0
  152.0996  142.0751  156.4827 H   0  0  0  0  0  0  0  0  0  0  0  0
  150.3794  142.3549  156.6163 H   0  0  0  0  0  0  0  0  0  0  0  0
  149.9890  144.5942  157.7336 H   0  0  0  0  0  0  0  0  0  0  0  0
  151.1677  145.9473  159.7899 H   0  0  0  0  0  0  0  0  0  0  0  0
  153.2366  144.2618  160.5387 H   0  0  0  0  0  0  0  0  0  0  0  0
  149.9087  139.2628  156.8602 H   0  0  0  0  0  0  0  0  0  0  0  0
  151.2536  138.4434  153.9417 H   0  0  0  0  0  0  0  0  0  0  0  0
  149.3226  138.2093  156.1637 H   0  0  0  0  0  0  0  0  0  0  0  0
  149.0631  137.8451  154.4667 H   0  0  0  0  0  0  0  0  0  0  0  0
  149.1764  135.8604  156.3918 H   0  0  0  0  0  0  0  0  0  0  0  0
  149.6902  135.6093  154.7203 H   0  0  0  0  0  0  0  0  0  0  0  0
  151.4707  136.3772  157.0720 H   0  0  0  0  0  0  0  0  0  0  0  0
  151.7079  135.0494  155.9277 H   0  0  0  0  0  0  0  0  0  0  0  0
  1  2  1  0  0  0  0
  1 17  1  0  0  0  0
  1 18  1  0  0  0  0
  1 19  1  0  0  0  0
  2  3  1  0  0  0  0
  2  9  1  0  0  0  0
  2 20  1  0  0  0  0
  3  4  1  0  0  0  0
  3 21  1  0  0  0  0
  3 22  1  0  0  0  0
  4  8  1  0  0  0  0
  4  5  1  0  0  0  0
  5  6  2  0  0  0  0
  5 23  1  0  0  0  0
  6  7  1  0  0  0  0
  6 24  1  0  0  0  0
  7  8  2  0  0  0  0
  7 25  1  0  0  0  0
  9 10  1  0  0  0  0
  9 26  1  0  0  0  0
 10 11  2  0  0  0  0
 10 12  1  0  0  0  0
 12 16  1  0  0  0  0
 12 13  1  0  0  0  0
 12 27  1  0  0  0  0
 13 14  1  0  0  0  0
 13 28  1  0  0  0  0
 13 29  1  0  0  0  0
 14 15  1  0  0  0  0
 14 30  1  0  0  0  0
 14 31  1  0  0  0  0
 15 16  1  0  0  0  0
 15 32  1  0  0  0  0
 15 33  1  0  0  0  0
M  END
> <s_m_source_file>
AV-unprocessed.smi

> <i_m_source_file_index>
3220

> <i_lp_mmshare_version>
43012

> <i_f3d_flags>
0

> <s_epik_input>
bjFbY0hdW2NIXVtjSF1uMVtDSDJdW0NAQEhdKFtDSDNdKVtOSF1DKD1PKVtDQEBIXTJbQ0gyXVtDSDJdW0NIMl1PMg==

> <s_epik_cmdline>
J2VwaWtfcHl0aG9uJywgJy1waCcsICc3LjAnLCAnLXRuJywgJzgnLCAnLW1hJywgJzIwMCcsICctbWV0YWxfYmluZGluZycsICctaW1hZScsICc8aW5maWxlLm1hZT4nLCAnLW9tYWUnLCAnPG91dGZpbGUubWFlPic=

> <r_lp_tautomer_probability>
1

> <r_epik_Ionization_Penalty>
0.00033363

> <r_epik_Ionization_Penalty_Charging>
0

> <r_epik_Ionization_Penalty_Neutral>
0.00033363

> <r_epik_State_Penalty>
-0

> <r_epik_Charging_Adjusted_Penalty>
0

> <i_epik_Tot_Q>
0

> <i_epik_Tot_abs_Q>
0

> <r_epik_Metal_State_Penalty>
-0

> <b_epik_Metal_Only>
0

> <s_lp_Force_Field>
OPLS_2005

> <r_lp_Energy>
18.0853

> <b_lp_Chiralities_Consistent>
1

> <s_lp_Variant>
AV-unprocessed.smi:3220-2

> <Gold.Version>
5.8.1

> <Gold.Id.Protein>
6NUR|6NUR_protein|mol2

> <Gold.PLP.Fitness>
40.9671

> <Gold.PLP.PLP>
-32.1440

> <Gold.PLP.part.hbond>
-2.0000

> <Gold.PLP.part.metal>
0.0000

> <Gold.PLP.part.buried>
-5.5989

> <Gold.PLP.part.nonpolar>
-25.1701

> <Gold.PLP.part.repulsive>
0.1776

> <Gold.PLP.ligand.clash>
0.0617

> <Gold.PLP.ligand.torsion>
0.0837

> <Gold.PLP.Chemscore.Hbond>
2.0000

> <Gold.PLP.Chemscore.CHOScore>
1.0101

> <Gold.PLP.Chemscore.Metal>
0.0000

> <Gold.Chemscore.Hbonds>
donor molecule, donor type, donor heavy atom, donor atom, acceptor molecule, acceptor atom, score
      P1  H  7997  8010       L1    11  1.00
      P1  H 10752 10764       L1    16  0.58
      L1  C     5    23       P1  8028  0.75
      L1  C     5    23       P1  8029  0.29

> <Gold.PLP.Chemscore.Internal.Correction>
0.0220

> <Gold.Rescore>
     Score         DG    S(hbond)    S(metal)    S(lipo)     H(rot)  DE(clash)    DE(int)     intcor
     13.20     -16.47       1.89        0.00      75.51       1.62       0.56       2.72       ----

> <Gold.Chemscore.Fitness>
13.2002

> <Gold.Chemscore.DG>
-16.4730

> <Gold.Chemscore.ZeroCoef>
-5.4800

> <Gold.Chemscore.Hbond>
1.8892

> <Gold.Chemscore.Metal>
0.0000

> <Gold.Chemscore.Lipo>
75.5140

> <Gold.Chemscore.Internal_Hbond>
0.0000

> <Gold.Chemscore.DEClash>
0.5552

> <Gold.Chemscore.DEInternal>
2.7176

> <Gold.Chemscore.Rot>
1.6219

> <Gold.Chemscore.Internal.Correction>
   9.000000E+99

> <Gold.Chemscore.Hbonds>
donor molecule, donor type, donor heavy atom, donor atom, acceptor molecule, acceptor atom, score
      P1  H  7997  8010       L1    11  1.00
      P1  H 10752 10764       L1    16  0.06

> <Gold.Chemscore.Hbond.Weighted>
-6.3098

> <Gold.Chemscore.Metal.Weighted>
-0.0000

> <Gold.Chemscore.Lipo.Weighted>
-8.8351

> <Gold.Chemscore.Internal_Hbond.Weighted>
0.0000

> <Gold.Chemscore.DEClash.Weighted>
0.5552

> <Gold.Chemscore.DEInternal.Weighted>
2.7176

> <Gold.Chemscore.Rot.Weighted>
4.1520

> <Gold.Chemscore.Internal.Correction.Weighted>
   9.000000E+99

> <Gold.Protein.RotatedTorsions>
[ 6907 6896 6895 6894 ] final  127.92 input  -60.11 | X-H torsion
[ 7974 7965 7964 7962 ] final   53.82 input  175.53 | X-H torsion
[ 8008 7997 7996 7995 ] final   90.42 input   59.86 | X-H torsion
[ 10167 10162 10161 10158 ] final  101.37 input  -65.29 | X-H torsion
[ 10718 10713 10712 10709 ] final   48.26 input   66.30 | X-H torsion
[ 10763 10752 10751 10750 ] final  -75.32 input  -60.55 | X-H torsion
[ 11005 11000 10999 10996 ] final  -39.39 input  -57.11 | X-H torsion

> <Gold.Protein.ActiveResidues>
 VAL166  LYS551  ARG553  GLY616  TRP617  ASP618  TYR619  PRO620  LYS621  CYS622 
 ASP623  PHE694  ASN695  SER759  ASP760  ASP761  ALA762  ILE779  LEU786  VAL792 
 PHE793  MET794  SER795  GLU796  ALA797  LYS798  CYS799  TRP800  GLU811  SER814 

> <Gold.Protein.RotatedAtoms>
  152.3768  133.6492  159.6129 H   0  0  0  0  0  0  0  0  0  0  0  0  # atno 6907 bound_to 6896
  150.7710  133.9180  159.3398 H   0  0  0  0  0  0  0  0  0  0  0  0  # atno 6908 bound_to 6896
  151.6993  135.0934  160.0299 H   0  0  0  0  0  0  0  0  0  0  0  0  # atno 6909 bound_to 6896
  145.9672  139.4114  143.0212 H   0  0  0  0  0  0  0  0  0  0  0  0  # atno 7974 bound_to 7965
  156.0117  140.3349  155.6948 H   0  0  0  0  0  0  0  0  0  0  0  0  # atno 8008 bound_to 7997
  155.6148  140.0669  157.2713 H   0  0  0  0  0  0  0  0  0  0  0  0  # atno 8009 bound_to 7997
  154.4284  140.1787  156.1298 H   0  0  0  0  0  0  0  0  0  0  0  0  # atno 8010 bound_to 7997
  139.7444  144.7002  151.0526 H   0  0  0  0  0  0  0  0  0  0  0  0  # atno 10167 bound_to 10162
  157.4668  130.8231  149.7945 H   0  0  0  0  0  0  0  0  0  0  0  0  # atno 10718 bound_to 10713
  154.4850  135.5835  153.6417 H   0  0  0  0  0  0  0  0  0  0  0  0  # atno 10763 bound_to 10752
  152.9853  135.6099  154.3198 H   0  0  0  0  0  0  0  0  0  0  0  0  # atno 10764 bound_to 10752
  154.3093  135.2845  155.2553 H   0  0  0  0  0  0  0  0  0  0  0  0  # atno 10765 bound_to 10752
  141.0099  133.6913  156.2181 H   0  0  0  0  0  0  0  0  0  0  0  0  # atno 11005 bound_to 11000
  145.7957  140.9794  143.1025 LP  0  0  0  0  0  0  0  0  0  0  0  0  # atno 17320 bound_to 7965
  144.6828  139.9739  143.7482 LP  0  0  0  0  0  0  0  0  0  0  0  0  # atno 17321 bound_to 7965
  140.7790  143.4884  150.9925 LP  0  0  0  0  0  0  0  0  0  0  0  0  # atno 17342 bound_to 10162
  139.8573  143.7361  152.3175 LP  0  0  0  0  0  0  0  0  0  0  0  0  # atno 17343 bound_to 10162
  156.0054  130.3858  150.2450 LP  0  0  0  0  0  0  0  0  0  0  0  0  # atno 17370 bound_to 10713
  157.0630  131.0095  151.3216 LP  0  0  0  0  0  0  0  0  0  0  0  0  # atno 17371 bound_to 10713
  140.6751  134.4826  157.5588 LP  0  0  0  0  0  0  0  0  0  0  0  0  # atno 17394 bound_to 11000
  139.9084  134.8399  156.1620 LP  0  0  0  0  0  0  0  0  0  0  0  0  # atno 17395 bound_to 11000

$$$$
