AV-unprocessed.smi:285|AV-procd|sdf|2171|dock2
  -GOLD-   2262021533D 1   1.00000     0.00000
 Structure written by MMmdl.
 31 33  0  0  0  0  0  0  0  0  1 V2000
  141.7652  139.0855  153.7863 N   0  0  0  0  0  0  0  0  0  0  0  0
  141.6792  137.7482  153.7505 C   0  0  0  0  0  0  0  0  0  0  0  0
  140.6626  137.1513  154.4155 N   0  0  0  0  0  0  0  0  0  0  0  0
  140.5528  135.8190  154.3943 C   0  0  0  0  0  0  0  0  0  0  0  0
  141.3351  134.9253  153.7829 N   0  0  0  0  0  0  0  0  0  0  0  0
  142.3618  135.5273  153.1131 C   0  0  0  0  0  0  0  0  0  0  0  0
  142.6016  136.9316  153.0486 C   0  0  0  0  0  0  0  0  0  0  0  0
  143.7294  137.1915  152.2802 N   0  0  0  0  0  0  0  0  0  0  0  0
  144.1139  135.9982  151.9223 C   0  0  0  0  0  0  0  0  0  0  0  0
  145.6459  135.7729  150.8133 Br  0  0  0  0  0  0  0  0  0  0  0  0
  143.3629  134.9344  152.3693 N   0  0  0  0  0  0  0  0  0  0  0  0
  143.5603  133.4735  152.1229 C   0  0  2  0  0  0  0  0  0  0  0  0
  145.0374  133.1154  152.0657 C   0  0  0  0  0  0  0  0  0  0  0  0
  144.9567  131.8305  151.2714 C   0  0  2  0  0  0  0  0  0  0  0  0
  146.2040  131.4998  150.6938 O   0  0  0  0  0  0  0  0  0  0  0  0
  143.8208  132.1231  150.2662 C   0  0  2  0  0  0  0  0  0  0  0  0
  144.2604  132.6555  148.8877 C   0  0  0  0  0  0  0  0  0  0  0  0
  143.1375  132.9840  148.0955 O   0  0  0  0  0  0  0  0  0  0  0  0
  143.0296  133.1461  150.8780 O   0  0  0  0  0  0  0  0  0  0  0  0
  142.5142  139.5548  153.2976 H   0  0  0  0  0  0  0  0  0  0  0  0
  141.0815  139.6212  154.3012 H   0  0  0  0  0  0  0  0  0  0  0  0
  139.7191  135.4100  154.9457 H   0  0  0  0  0  0  0  0  0  0  0  0
  143.0175  132.9503  152.9098 H   0  0  0  0  0  0  0  0  0  0  0  0
  145.5882  133.8844  151.5215 H   0  0  0  0  0  0  0  0  0  0  0  0
  145.4601  132.9994  153.0640 H   0  0  0  0  0  0  0  0  0  0  0  0
  144.6507  131.0194  151.9337 H   0  0  0  0  0  0  0  0  0  0  0  0
  146.0460  131.0306  149.8883 H   0  0  0  0  0  0  0  0  0  0  0  0
  143.1957  131.2387  150.1349 H   0  0  0  0  0  0  0  0  0  0  0  0
  144.8486  133.5649  149.0126 H   0  0  0  0  0  0  0  0  0  0  0  0
  144.8930  131.9369  148.3656 H   0  0  0  0  0  0  0  0  0  0  0  0
  142.4995  133.4139  148.6442 H   0  0  0  0  0  0  0  0  0  0  0  0
  1  2  1  0  0  0  0
  1 20  1  0  0  0  0
  1 21  1  0  0  0  0
  2  7  1  0  0  0  0
  2  3  2  0  0  0  0
  3  4  1  0  0  0  0
  4  5  2  0  0  0  0
  4 22  1  0  0  0  0
  5  6  1  0  0  0  0
  6 11  1  0  0  0  0
  6  7  2  0  0  0  0
  7  8  1  0  0  0  0
  8  9  2  0  0  0  0
  9 10  1  0  0  0  0
  9 11  1  0  0  0  0
 11 12  1  0  0  0  0
 12 19  1  0  0  0  0
 12 13  1  0  0  0  0
 12 23  1  0  0  0  0
 13 14  1  0  0  0  0
 13 24  1  0  0  0  0
 13 25  1  0  0  0  0
 14 15  1  0  0  0  0
 14 16  1  0  0  0  0
 14 26  1  0  0  0  0
 15 27  1  0  0  0  0
 16 17  1  0  0  0  0
 16 19  1  0  0  0  0
 16 28  1  0  0  0  0
 17 18  1  0  0  0  0
 17 29  1  0  0  0  0
 17 30  1  0  0  0  0
 18 31  1  0  0  0  0
M  END
> <s_m_source_file>
AV-unprocessed.smi

> <i_m_source_file_index>
285

> <i_lp_mmshare_version>
43012

> <i_f3d_flags>
0

> <s_epik_input>
bjFbY0hdbmMoW05IMl0pYyhjMTIpbmMoQnIpbjJbQ0BASF0zW0NIMl1bQ0BASF0oW09IXSlbQ0BIXShPMylbQ0gyXVtPSF0=

> <s_epik_cmdline>
J2VwaWtfcHl0aG9uJywgJy1waCcsICc3LjAnLCAnLXRuJywgJzgnLCAnLW1hJywgJzIwMCcsICctbWV0YWxfYmluZGluZycsICctaW1hZScsICc8aW5maWxlLm1hZT4nLCAnLW9tYWUnLCAnPG91dGZpbGUubWFlPic=

> <r_lp_tautomer_probability>
1

> <r_epik_Ionization_Penalty>
0.000103242

> <r_epik_Ionization_Penalty_Charging>
0

> <r_epik_Ionization_Penalty_Neutral>
0.000103242

> <r_epik_State_Penalty>
-0

> <r_epik_Charging_Adjusted_Penalty>
0

> <i_epik_Tot_Q>
0

> <i_epik_Tot_abs_Q>
0

> <r_epik_Metal_State_Penalty>
-0

> <b_epik_Metal_Only>
0

> <s_epik_Chemistry_Notes>
This compound contains an acetal/aminal-like group ( X-CH(R)-Y where X, Y are N, S, or O) that may be acid/base labile, releasing an aldehyde.

> <s_lp_Force_Field>
OPLS_2005

> <r_lp_Energy>
36.2712

> <b_lp_Chiralities_Consistent>
1

> <s_lp_Variant>
AV-unprocessed.smi:285-7

> <Gold.Version>
5.8.1

> <Gold.Id.Protein>
6NUR|6NUR_protein|mol2

> <Gold.PLP.Fitness>
37.2117

> <Gold.PLP.PLP>
-30.4658

> <Gold.PLP.part.hbond>
-4.6205

> <Gold.PLP.part.metal>
0.0000

> <Gold.PLP.part.buried>
-6.3906

> <Gold.PLP.part.nonpolar>
-24.4263

> <Gold.PLP.part.repulsive>
5.1625

> <Gold.PLP.ligand.clash>
0.0000

> <Gold.PLP.ligand.torsion>
0.6592

> <Gold.PLP.Chemscore.Hbond>
2.0000

> <Gold.PLP.Chemscore.CHOScore>
0.6845

> <Gold.PLP.Chemscore.Metal>
0.0000

> <Gold.Chemscore.Hbonds>
donor molecule, donor type, donor heavy atom, donor atom, acceptor molecule, acceptor atom, score
      L1  H     1    20       P1 10175  1.00
      L1  H    18    31       P1 10186  1.00
      L1  C     4    22       P1 11000  0.69

> <Gold.PLP.Chemscore.Internal.Correction>
0.0110

> <Gold.Rescore>
     Score         DG    S(hbond)    S(metal)    S(lipo)     H(rot)  DE(clash)    DE(int)     intcor
      6.56      -9.88       2.00        0.00      47.65       3.06       1.33       2.00       ----

> <Gold.Chemscore.Fitness>
6.5609

> <Gold.Chemscore.DG>
-9.8844

> <Gold.Chemscore.ZeroCoef>
-5.4800

> <Gold.Chemscore.Hbond>
1.9953

> <Gold.Chemscore.Metal>
0.0000

> <Gold.Chemscore.Lipo>
47.6530

> <Gold.Chemscore.Internal_Hbond>
0.0000

> <Gold.Chemscore.DEClash>
1.3271

> <Gold.Chemscore.DEInternal>
1.9964

> <Gold.Chemscore.Rot>
3.0607

> <Gold.Chemscore.Internal.Correction>
   9.000000E+99

> <Gold.Chemscore.Hbonds>
donor molecule, donor type, donor heavy atom, donor atom, acceptor molecule, acceptor atom, score
      L1  H     1    20       P1 10175  0.99
      L1  H    18    31       P1 10186  0.96

> <Gold.Chemscore.Hbond.Weighted>
-6.6644

> <Gold.Chemscore.Metal.Weighted>
-0.0000

> <Gold.Chemscore.Lipo.Weighted>
-5.5754

> <Gold.Chemscore.Internal_Hbond.Weighted>
0.0000

> <Gold.Chemscore.DEClash.Weighted>
1.3271

> <Gold.Chemscore.DEInternal.Weighted>
1.9964

> <Gold.Chemscore.Rot.Weighted>
7.8354

> <Gold.Chemscore.Internal.Correction.Weighted>
   9.000000E+99

> <Gold.Protein.RotatedTorsions>
[ 6907 6896 6895 6894 ] final  -42.12 input  -60.11 | X-H torsion
[ 7974 7965 7964 7962 ] final   51.24 input  175.53 | X-H torsion
[ 8008 7997 7996 7995 ] final -108.25 input   59.86 | X-H torsion
[ 10167 10162 10161 10158 ] final -120.71 input  -65.29 | X-H torsion
[ 10718 10713 10712 10709 ] final  154.61 input   66.30 | X-H torsion
[ 10763 10752 10751 10750 ] final -179.63 input  -60.55 | X-H torsion
[ 11005 11000 10999 10996 ] final -108.30 input  -57.11 | X-H torsion

> <Gold.Protein.ActiveResidues>
 VAL166  LYS551  ARG553  GLY616  TRP617  ASP618  TYR619  PRO620  LYS621  CYS622 
 ASP623  PHE694  ASN695  SER759  ASP760  ASP761  ALA762  ILE779  LEU786  VAL792 
 PHE793  MET794  SER795  GLU796  ALA797  LYS798  CYS799  TRP800  GLU811  SER814 

> <Gold.Protein.RotatedAtoms>
  150.9588  134.8979  159.7717 H   0  0  0  0  0  0  0  0  0  0  0  0  # atno 6907 bound_to 6896
  152.5148  134.3702  159.9325 H   0  0  0  0  0  0  0  0  0  0  0  0  # atno 6908 bound_to 6896
  151.3715  133.3813  159.2735 H   0  0  0  0  0  0  0  0  0  0  0  0  # atno 6909 bound_to 6896
  145.9933  139.4362  143.0060 H   0  0  0  0  0  0  0  0  0  0  0  0  # atno 7974 bound_to 7965
  154.9415  140.0402  157.2099 H   0  0  0  0  0  0  0  0  0  0  0  0  # atno 8008 bound_to 7997
  154.8064  140.2860  155.5862 H   0  0  0  0  0  0  0  0  0  0  0  0  # atno 8009 bound_to 7997
  156.2967  140.2545  156.2944 H   0  0  0  0  0  0  0  0  0  0  0  0  # atno 8010 bound_to 7997
  140.0329  143.5230  152.2168 H   0  0  0  0  0  0  0  0  0  0  0  0  # atno 10167 bound_to 10162
  157.2293  131.0735  151.1863 H   0  0  0  0  0  0  0  0  0  0  0  0  # atno 10718 bound_to 10713
  154.5327  135.2801  155.1166 H   0  0  0  0  0  0  0  0  0  0  0  0  # atno 10763 bound_to 10752
  154.2680  135.6309  153.5303 H   0  0  0  0  0  0  0  0  0  0  0  0  # atno 10764 bound_to 10752
  152.9960  135.5621  154.5845 H   0  0  0  0  0  0  0  0  0  0  0  0  # atno 10765 bound_to 10752
  141.0909  133.9057  157.2078 H   0  0  0  0  0  0  0  0  0  0  0  0  # atno 11005 bound_to 11000
  145.7597  140.9940  143.1206 LP  0  0  0  0  0  0  0  0  0  0  0  0  # atno 17320 bound_to 7965
  144.6896  139.9315  143.7472 LP  0  0  0  0  0  0  0  0  0  0  0  0  # atno 17321 bound_to 7965
  139.6064  144.7597  151.3052 LP  0  0  0  0  0  0  0  0  0  0  0  0  # atno 17342 bound_to 10162
  140.7294  143.6908  150.7923 LP  0  0  0  0  0  0  0  0  0  0  0  0  # atno 17343 bound_to 10162
  157.3495  130.7074  149.6431 LP  0  0  0  0  0  0  0  0  0  0  0  0  # atno 17370 bound_to 10713
  155.9676  130.4257  150.4664 LP  0  0  0  0  0  0  0  0  0  0  0  0  # atno 17371 bound_to 10713
  139.9734  135.0121  156.9570 LP  0  0  0  0  0  0  0  0  0  0  0  0  # atno 17394 bound_to 11000
  140.5255  134.0865  155.7302 LP  0  0  0  0  0  0  0  0  0  0  0  0  # atno 17395 bound_to 11000

$$$$
