AV-unprocessed.smi:1565|AV-procd|sdf|6300|dock7
  -GOLD-   22720 6503D 1   1.00000     0.00000
 Structure written by MMmdl.
 39 40  0  0  0  0  0  0  0  0  2 V2000
  149.5000  141.3039  154.7232 C   0  0  0  0  0  0  0  0  0  0  0  0
  150.4621  141.4949  155.9005 C   0  0  2  0  0  0  0  0  0  0  0  0
  150.8949  140.1499  156.5106 C   0  0  0  0  0  0  0  0  0  0  0  0
  151.7064  140.3722  157.7026 N   0  0  0  0  0  0  0  0  0  0  0  0
  152.4319  139.2525  158.1627 C   0  0  0  0  0  0  0  0  0  0  0  0
  152.1443  138.6934  159.4296 C   0  0  0  0  0  0  0  0  0  0  0  0
  152.8817  137.5786  159.8724 C   0  0  0  0  0  0  0  0  0  0  0  0
  153.8847  137.0380  159.0361 C   0  0  0  0  0  0  0  0  0  0  0  0
  154.7327  135.8674  159.4555 C   0  0  0  0  0  0  0  0  0  0  0  0
  155.6591  135.5273  158.7112 O   0  0  0  0  0  0  0  0  0  0  0  0
  154.3017  135.3028  160.6189 N   0  5  0  0  0  0  0  0  0  0  0  0
  155.0489  134.2910  161.3699 C   0  0  0  0  0  0  0  0  0  0  0  0
  155.4011  134.7924  162.7851 C   0  0  0  0  0  0  0  0  0  0  0  0
  156.1972  135.8567  162.6829 F   0  0  0  0  0  0  0  0  0  0  0  0
  154.2999  135.1528  163.4461 F   0  0  0  0  0  0  0  0  0  0  0  0
  156.0432  133.8538  163.4822 F   0  0  0  0  0  0  0  0  0  0  0  0
  154.1026  137.6697  157.7927 C   0  0  0  0  0  0  0  0  0  0  0  0
  153.3975  138.7380  157.3626 N   0  0  0  0  0  0  0  0  0  0  0  0
  151.0495  141.2196  158.6951 C   0  0  0  0  0  0  0  0  0  0  0  0
  150.5714  142.5420  158.0639 C   0  0  1  0  0  0  0  0  0  0  0  0
  151.7111  143.5413  157.7964 C   0  0  0  0  0  0  0  0  0  0  0  0
  149.7978  142.2786  156.8910 O   0  0  0  0  0  0  0  0  0  0  0  0
  149.9629  140.7177  153.9291 H   0  0  0  0  0  0  0  0  0  0  0  0
  149.2080  142.2650  154.2992 H   0  0  0  0  0  0  0  0  0  0  0  0
  148.5917  140.7877  155.0352 H   0  0  0  0  0  0  0  0  0  0  0  0
  151.3392  142.0293  155.5352 H   0  0  0  0  0  0  0  0  0  0  0  0
  150.0181  139.5646  156.7908 H   0  0  0  0  0  0  0  0  0  0  0  0
  151.4312  139.5729  155.7585 H   0  0  0  0  0  0  0  0  0  0  0  0
  151.3648  139.0963  160.0589 H   0  0  0  0  0  0  0  0  0  0  0  0
  152.6722  137.1538  160.8435 H   0  0  0  0  0  0  0  0  0  0  0  0
  154.5029  133.3494  161.4493 H   0  0  0  0  0  0  0  0  0  0  0  0
  155.9739  134.0372  160.8508 H   0  0  0  0  0  0  0  0  0  0  0  0
  154.8616  137.3091  157.1135 H   0  0  0  0  0  0  0  0  0  0  0  0
  150.1947  140.6795  159.1048 H   0  0  0  0  0  0  0  0  0  0  0  0
  151.7241  141.4323  159.5255 H   0  0  0  0  0  0  0  0  0  0  0  0
  149.8946  143.0208  158.7723 H   0  0  0  0  0  0  0  0  0  0  0  0
  152.1977  143.8288  158.7286 H   0  0  0  0  0  0  0  0  0  0  0  0
  151.3303  144.4498  157.3295 H   0  0  0  0  0  0  0  0  0  0  0  0
  152.4813  143.1271  157.1461 H   0  0  0  0  0  0  0  0  0  0  0  0
  1  2  1  0  0  0  0
  1 23  1  0  0  0  0
  1 24  1  0  0  0  0
  1 25  1  0  0  0  0
  2 22  1  0  0  0  0
  2  3  1  0  0  0  0
  2 26  1  0  0  0  0
  3  4  1  0  0  0  0
  3 27  1  0  0  0  0
  3 28  1  0  0  0  0
  4  5  1  0  0  0  0
  4 19  1  0  0  0  0
  5 18  1  0  0  0  0
  5  6  2  0  0  0  0
  6  7  1  0  0  0  0
  6 29  1  0  0  0  0
  7  8  2  0  0  0  0
  7 30  1  0  0  0  0
  8  9  1  0  0  0  0
  8 17  1  0  0  0  0
  9 10  2  0  0  0  0
  9 11  1  0  0  0  0
 11 12  1  0  0  0  0
 12 13  1  0  0  0  0
 12 31  1  0  0  0  0
 12 32  1  0  0  0  0
 13 14  1  0  0  0  0
 13 15  1  0  0  0  0
 13 16  1  0  0  0  0
 17 18  2  0  0  0  0
 17 33  1  0  0  0  0
 19 20  1  0  0  0  0
 19 34  1  0  0  0  0
 19 35  1  0  0  0  0
 20 21  1  0  0  0  0
 20 22  1  0  0  0  0
 20 36  1  0  0  0  0
 21 37  1  0  0  0  0
 21 38  1  0  0  0  0
 21 39  1  0  0  0  0
M  CHG  1  11  -1
M  END
> <s_m_source_file>
AV-unprocessed.smi

> <i_m_source_file_index>
1565

> <i_lp_mmshare_version>
43012

> <i_f3d_flags>
0

> <s_epik_input>
W0NIM11bQ0BASF0xW0NIMl1OKFtDSDJdW0NASF0oTzEpW0NIM10pYzJbY0hdW2NIXWMoW2NIXW4yKUMoPU8pW05IXVtDSDJdQyhGKShGKUY=

> <s_epik_cmdline>
J2VwaWtfcHl0aG9uJywgJy1waCcsICc3LjAnLCAnLXRuJywgJzgnLCAnLW1hJywgJzIwMCcsICctbWV0YWxfYmluZGluZycsICctaW1hZScsICc8aW5maWxlLm1hZT4nLCAnLW9tYWUnLCAnPG91dGZpbGUubWFlPic=

> <r_lp_tautomer_probability>
1

> <r_epik_Ionization_Penalty>
6.78525

> <r_epik_Ionization_Penalty_Charging>
6.78469

> <r_epik_Ionization_Penalty_Neutral>
0.000559052

> <r_epik_State_Penalty>
6.78469

> <r_epik_Charging_Adjusted_Penalty>
13.5694

> <i_epik_Tot_Q>
-1

> <i_epik_Tot_abs_Q>
1

> <r_epik_Metal_State_Penalty>
2.70441

> <b_epik_Metal_Only>
1

> <s_lp_Force_Field>
OPLS_2005

> <r_lp_Energy>
29.3636

> <b_lp_Chiralities_Consistent>
1

> <s_lp_Variant>
AV-unprocessed.smi:1565-4

> <Gold.Version>
5.8.1

> <Gold.Id.Protein>
6NUR|6NUR_protein|mol2

> <Gold.PLP.Fitness>
36.1279

> <Gold.PLP.PLP>
-27.5622

> <Gold.PLP.part.hbond>
-2.0000

> <Gold.PLP.part.metal>
0.0000

> <Gold.PLP.part.buried>
-4.1523

> <Gold.PLP.part.nonpolar>
-22.8007

> <Gold.PLP.part.repulsive>
1.6935

> <Gold.PLP.ligand.clash>
0.0000

> <Gold.PLP.ligand.torsion>
0.3858

> <Gold.PLP.Chemscore.Hbond>
3.0000

> <Gold.PLP.Chemscore.CHOScore>
0.0000

> <Gold.PLP.Chemscore.Metal>
0.0000

> <Gold.Chemscore.Hbonds>
donor molecule, donor type, donor heavy atom, donor atom, acceptor molecule, acceptor atom, score
      P1  H  6896  6909       L1    11  2.00
      P1  H  7997  8008       L1    18  1.00

> <Gold.PLP.Chemscore.Internal.Correction>
0.3374

> <Gold.Rescore>
     Score         DG    S(hbond)    S(metal)    S(lipo)     H(rot)  DE(clash)    DE(int)     intcor
     15.31     -15.97       1.74        0.00      68.23       1.29       0.01       0.65       ----

> <Gold.Chemscore.Fitness>
15.3101

> <Gold.Chemscore.DG>
-15.9663

> <Gold.Chemscore.ZeroCoef>
-5.4800

> <Gold.Chemscore.Hbond>
1.7397

> <Gold.Chemscore.Metal>
0.0000

> <Gold.Chemscore.Lipo>
68.2350

> <Gold.Chemscore.Internal_Hbond>
0.0000

> <Gold.Chemscore.DEClash>
0.0060

> <Gold.Chemscore.DEInternal>
0.6502

> <Gold.Chemscore.Rot>
1.2921

> <Gold.Chemscore.Internal.Correction>
   9.000000E+99

> <Gold.Chemscore.Hbonds>
donor molecule, donor type, donor heavy atom, donor atom, acceptor molecule, acceptor atom, score
      P1  H  6896  6909       L1    11  0.19
      P1  H  7997  8008       L1    18  0.34

> <Gold.Chemscore.Hbond.Weighted>
-5.8106

> <Gold.Chemscore.Metal.Weighted>
-0.0000

> <Gold.Chemscore.Lipo.Weighted>
-7.9835

> <Gold.Chemscore.Internal_Hbond.Weighted>
0.0000

> <Gold.Chemscore.DEClash.Weighted>
0.0060

> <Gold.Chemscore.DEInternal.Weighted>
0.6502

> <Gold.Chemscore.Rot.Weighted>
3.3078

> <Gold.Chemscore.Internal.Correction.Weighted>
   9.000000E+99

> <Gold.Protein.RotatedTorsions>
[ 6907 6896 6895 6894 ] final -175.92 input  -60.11 | X-H torsion
[ 7974 7965 7964 7962 ] final   22.65 input  175.53 | X-H torsion
[ 8008 7997 7996 7995 ] final  -88.50 input   59.86 | X-H torsion
[ 10167 10162 10161 10158 ] final   69.03 input  -65.29 | X-H torsion
[ 10718 10713 10712 10709 ] final   32.74 input   66.30 | X-H torsion
[ 10763 10752 10751 10750 ] final  161.29 input  -60.55 | X-H torsion
[ 11005 11000 10999 10996 ] final  -78.23 input  -57.11 | X-H torsion

> <Gold.Protein.ActiveResidues>
 VAL166  LYS551  ARG553  GLY616  TRP617  ASP618  TYR619  PRO620  LYS621  CYS622 
 ASP623  PHE694  ASN695  SER759  ASP760  ASP761  ALA762  ILE779  LEU786  VAL792 
 PHE793  MET794  SER795  GLU796  ALA797  LYS798  CYS799  TRP800  GLU811  SER814 

> <Gold.Protein.RotatedAtoms>
  151.5964  133.3361  159.3037 H   0  0  0  0  0  0  0  0  0  0  0  0  # atno 6907 bound_to 6896
  150.8232  134.7453  159.6801 H   0  0  0  0  0  0  0  0  0  0  0  0  # atno 6908 bound_to 6896
  152.4324  134.5758  159.9985 H   0  0  0  0  0  0  0  0  0  0  0  0  # atno 6909 bound_to 6896
  146.2019  139.7855  142.8755 H   0  0  0  0  0  0  0  0  0  0  0  0  # atno 7974 bound_to 7965
  154.6756  140.0553  157.0212 H   0  0  0  0  0  0  0  0  0  0  0  0  # atno 8008 bound_to 7997
  155.1026  140.3230  155.4524 H   0  0  0  0  0  0  0  0  0  0  0  0  # atno 8009 bound_to 7997
  156.2674  140.2028  156.6151 H   0  0  0  0  0  0  0  0  0  0  0  0  # atno 8010 bound_to 7997
  140.0722  144.5143  150.7219 H   0  0  0  0  0  0  0  0  0  0  0  0  # atno 10167 bound_to 10162
  157.2891  130.7293  149.6600 H   0  0  0  0  0  0  0  0  0  0  0  0  # atno 10718 bound_to 10713
  154.2607  135.2768  155.2779 H   0  0  0  0  0  0  0  0  0  0  0  0  # atno 10763 bound_to 10752
  154.5386  135.5709  153.6823 H   0  0  0  0  0  0  0  0  0  0  0  0  # atno 10764 bound_to 10752
  152.9963  135.6245  154.2758 H   0  0  0  0  0  0  0  0  0  0  0  0  # atno 10765 bound_to 10752
  141.1664  133.7055  156.7941 H   0  0  0  0  0  0  0  0  0  0  0  0  # atno 11005 bound_to 11000
  145.3453  141.0296  143.3369 LP  0  0  0  0  0  0  0  0  0  0  0  0  # atno 17320 bound_to 7965
  144.8703  139.5047  143.6770 LP  0  0  0  0  0  0  0  0  0  0  0  0  # atno 17321 bound_to 7965
  140.7120  143.2513  151.4552 LP  0  0  0  0  0  0  0  0  0  0  0  0  # atno 17342 bound_to 10162
  139.5829  144.1669  152.1992 LP  0  0  0  0  0  0  0  0  0  0  0  0  # atno 17343 bound_to 10162
  155.9666  130.4314  150.4920 LP  0  0  0  0  0  0  0  0  0  0  0  0  # atno 17370 bound_to 10713
  157.2879  131.0620  151.2154 LP  0  0  0  0  0  0  0  0  0  0  0  0  # atno 17371 bound_to 10713
  140.2304  134.8690  157.3471 LP  0  0  0  0  0  0  0  0  0  0  0  0  # atno 17394 bound_to 11000
  140.1897  134.4387  155.7723 LP  0  0  0  0  0  0  0  0  0  0  0  0  # atno 17395 bound_to 11000

$$$$
