AV-unprocessed.smi:955|AV-procd|sdf|4262|dock5
  -GOLD-   22720 2173D 1   1.00000     0.00000
 Structure written by MMmdl.
 29 29  0  0  0  0  0  0  0  0  1 V2000
  148.6220  141.3753  154.3726 C   0  0  0  0  0  0  0  0  0  0  0  0
  149.9554  140.6688  154.6674 C   0  0  1  0  0  0  0  0  0  0  0  0
  150.3271  140.9671  156.0493 N   0  0  0  0  0  0  0  0  0  0  0  0
  151.4485  140.5490  156.6593 C   0  0  0  0  0  0  0  0  0  0  0  0
  152.3015  139.8612  156.0967 O   0  0  0  0  0  0  0  0  0  0  0  0
  151.6239  140.9753  158.1253 C   0  0  1  0  0  0  0  0  0  0  0  0
  152.7546  140.2041  158.8369 C   0  0  0  0  0  0  0  0  0  0  0  0
  151.7988  142.4209  158.2142 N   0  0  0  0  0  0  0  0  0  0  0  0
  152.7903  143.1157  158.8774 C   0  0  0  0  0  0  0  0  0  0  0  0
  152.5344  144.4478  158.7215 C   0  0  0  0  0  0  0  0  0  0  0  0
  151.3408  144.4738  157.9482 C   0  0  0  0  0  0  0  0  0  0  0  0
  150.8981  143.2624  157.6545 N   0  0  0  0  0  0  0  0  0  0  0  0
  149.7450  139.1575  154.4766 C   0  0  0  0  0  0  0  0  0  0  0  0
  149.3135  138.7564  153.2783 N   0  0  0  0  0  0  0  0  0  0  0  0
  149.9510  138.3657  155.3957 O   0  0  0  0  0  0  0  0  0  0  0  0
  148.2922  141.1894  153.3496 H   0  0  0  0  0  0  0  0  0  0  0  0
  148.7214  142.4551  154.4885 H   0  0  0  0  0  0  0  0  0  0  0  0
  147.8280  141.0439  155.0439 H   0  0  0  0  0  0  0  0  0  0  0  0
  150.7241  141.0347  153.9835 H   0  0  0  0  0  0  0  0  0  0  0  0
  149.6743  141.5201  156.5850 H   0  0  0  0  0  0  0  0  0  0  0  0
  150.6962  140.7332  158.6469 H   0  0  0  0  0  0  0  0  0  0  0  0
  152.5666  139.1300  158.8203 H   0  0  0  0  0  0  0  0  0  0  0  0
  152.8322  140.5051  159.8819 H   0  0  0  0  0  0  0  0  0  0  0  0
  153.7262  140.3757  158.3718 H   0  0  0  0  0  0  0  0  0  0  0  0
  153.5884  142.6092  159.3999 H   0  0  0  0  0  0  0  0  0  0  0  0
  153.1094  145.2774  159.1056 H   0  0  0  0  0  0  0  0  0  0  0  0
  150.7841  145.3304  157.5978 H   0  0  0  0  0  0  0  0  0  0  0  0
  149.1514  137.7754  153.1030 H   0  0  0  0  0  0  0  0  0  0  0  0
  149.1430  139.4383  152.5534 H   0  0  0  0  0  0  0  0  0  0  0  0
  1  2  1  0  0  0  0
  1 16  1  0  0  0  0
  1 17  1  0  0  0  0
  1 18  1  0  0  0  0
  2  3  1  0  0  0  0
  2 13  1  0  0  0  0
  2 19  1  0  0  0  0
  3  4  1  0  0  0  0
  3 20  1  0  0  0  0
  4  5  2  0  0  0  0
  4  6  1  0  0  0  0
  6  7  1  0  0  0  0
  6  8  1  0  0  0  0
  6 21  1  0  0  0  0
  7 22  1  0  0  0  0
  7 23  1  0  0  0  0
  7 24  1  0  0  0  0
  8 12  1  0  0  0  0
  8  9  1  0  0  0  0
  9 10  2  0  0  0  0
  9 25  1  0  0  0  0
 10 11  1  0  0  0  0
 10 26  1  0  0  0  0
 11 12  2  0  0  0  0
 11 27  1  0  0  0  0
 13 14  1  0  0  0  0
 13 15  2  0  0  0  0
 14 28  1  0  0  0  0
 14 29  1  0  0  0  0
M  END
> <s_m_source_file>
AV-unprocessed.smi

> <i_m_source_file_index>
955

> <i_lp_mmshare_version>
43012

> <i_f3d_flags>
0

> <s_epik_input>
W05IMl1DKD1PKVtDQEhdKFtDSDNdKVtOSF1DKD1PKVtDQEhdKFtDSDNdKW4xW2NIXVtjSF1bY0hdbjE=

> <s_epik_cmdline>
J2VwaWtfcHl0aG9uJywgJy1waCcsICc3LjAnLCAnLXRuJywgJzgnLCAnLW1hJywgJzIwMCcsICctbWV0YWxfYmluZGluZycsICctaW1hZScsICc8aW5maWxlLm1hZT4nLCAnLW9tYWUnLCAnPG91dGZpbGUubWFlPic=

> <r_lp_tautomer_probability>
1

> <r_epik_Ionization_Penalty>
2.8146e-05

> <r_epik_Ionization_Penalty_Charging>
0

> <r_epik_Ionization_Penalty_Neutral>
2.8146e-05

> <r_epik_State_Penalty>
-0

> <r_epik_Charging_Adjusted_Penalty>
0

> <i_epik_Tot_Q>
0

> <i_epik_Tot_abs_Q>
0

> <r_epik_Metal_State_Penalty>
-0

> <b_epik_Metal_Only>
0

> <s_lp_Force_Field>
OPLS_2005

> <r_lp_Energy>
4.82195

> <b_lp_Chiralities_Consistent>
1

> <s_lp_Variant>
AV-unprocessed.smi:955-4

> <Gold.Version>
5.8.1

> <Gold.Id.Protein>
6NUR|6NUR_protein|mol2

> <Gold.PLP.Fitness>
41.6981

> <Gold.PLP.PLP>
-31.7227

> <Gold.PLP.part.hbond>
-2.8971

> <Gold.PLP.part.metal>
0.0000

> <Gold.PLP.part.buried>
-1.2747

> <Gold.PLP.part.nonpolar>
-27.0548

> <Gold.PLP.part.repulsive>
0.4146

> <Gold.PLP.ligand.clash>
0.0000

> <Gold.PLP.ligand.torsion>
0.2823

> <Gold.PLP.Chemscore.Hbond>
2.9920

> <Gold.PLP.Chemscore.CHOScore>
0.4820

> <Gold.PLP.Chemscore.Metal>
0.0000

> <Gold.Chemscore.Hbonds>
donor molecule, donor type, donor heavy atom, donor atom, acceptor molecule, acceptor atom, score
      L1  H    14    28       P1  7948  1.00
      L1  H    14    29       P1  7957  0.93
      P1  H  7997  8010       L1     5  0.89
      L1  C    11    27       P1  8028  0.27

> <Gold.PLP.Chemscore.Internal.Correction>
0.1182

> <Gold.Rescore>
     Score         DG    S(hbond)    S(metal)    S(lipo)     H(rot)  DE(clash)    DE(int)     intcor
     14.95     -16.59       2.82        0.00      64.61       2.30       0.02       1.61       ----

> <Gold.Chemscore.Fitness>
14.9515

> <Gold.Chemscore.DG>
-16.5861

> <Gold.Chemscore.ZeroCoef>
-5.4800

> <Gold.Chemscore.Hbond>
2.8227

> <Gold.Chemscore.Metal>
0.0000

> <Gold.Chemscore.Lipo>
64.6083

> <Gold.Chemscore.Internal_Hbond>
0.0000

> <Gold.Chemscore.DEClash>
0.0249

> <Gold.Chemscore.DEInternal>
1.6097

> <Gold.Chemscore.Rot>
2.2972

> <Gold.Chemscore.Internal.Correction>
   9.000000E+99

> <Gold.Chemscore.Hbonds>
donor molecule, donor type, donor heavy atom, donor atom, acceptor molecule, acceptor atom, score
      L1  H    14    28       P1  7948  0.92
      L1  H    14    29       P1  7957  0.88
      P1  H  7997  8010       L1     5  0.86

> <Gold.Chemscore.Hbond.Weighted>
-9.4279

> <Gold.Chemscore.Metal.Weighted>
-0.0000

> <Gold.Chemscore.Lipo.Weighted>
-7.5592

> <Gold.Chemscore.Internal_Hbond.Weighted>
0.0000

> <Gold.Chemscore.DEClash.Weighted>
0.0249

> <Gold.Chemscore.DEInternal.Weighted>
1.6097

> <Gold.Chemscore.Rot.Weighted>
5.8809

> <Gold.Chemscore.Internal.Correction.Weighted>
   9.000000E+99

> <Gold.Protein.RotatedTorsions>
[ 6907 6896 6895 6894 ] final -130.46 input  -60.11 | X-H torsion
[ 7974 7965 7964 7962 ] final  -16.13 input  175.53 | X-H torsion
[ 8008 7997 7996 7995 ] final   72.54 input   59.86 | X-H torsion
[ 10167 10162 10161 10158 ] final  -81.62 input  -65.29 | X-H torsion
[ 10718 10713 10712 10709 ] final   72.37 input   66.30 | X-H torsion
[ 10763 10752 10751 10750 ] final  -58.28 input  -60.55 | X-H torsion
[ 11005 11000 10999 10996 ] final   42.34 input  -57.11 | X-H torsion

> <Gold.Protein.ActiveResidues>
 VAL166  LYS551  ARG553  GLY616  TRP617  ASP618  TYR619  PRO620  LYS621  CYS622 
 ASP623  PHE694  ASN695  SER759  ASP760  ASP761  ALA762  ILE779  LEU786  VAL792 
 PHE793  MET794  SER795  GLU796  ALA797  LYS798  CYS799  TRP800  GLU811  SER814 

> <Gold.Protein.RotatedAtoms>
  150.9400  133.6667  159.2792 H   0  0  0  0  0  0  0  0  0  0  0  0  # atno 6907 bound_to 6896
  151.4059  135.0977  159.9580 H   0  0  0  0  0  0  0  0  0  0  0  0  # atno 6908 bound_to 6896
  152.5065  133.8884  159.7436 H   0  0  0  0  0  0  0  0  0  0  0  0  # atno 6909 bound_to 6896
  146.2001  140.3593  142.8426 H   0  0  0  0  0  0  0  0  0  0  0  0  # atno 7974 bound_to 7965
  155.7704  140.3484  155.5244 H   0  0  0  0  0  0  0  0  0  0  0  0  # atno 8008 bound_to 7997
  155.8827  140.1005  157.1494 H   0  0  0  0  0  0  0  0  0  0  0  0  # atno 8009 bound_to 7997
  154.4026  140.1319  156.4204 H   0  0  0  0  0  0  0  0  0  0  0  0  # atno 8010 bound_to 7997
  140.4395  143.2520  151.8646 H   0  0  0  0  0  0  0  0  0  0  0  0  # atno 10167 bound_to 10162
  157.6497  130.9575  150.0919 H   0  0  0  0  0  0  0  0  0  0  0  0  # atno 10718 bound_to 10713
  154.2356  135.6353  153.5190 H   0  0  0  0  0  0  0  0  0  0  0  0  # atno 10763 bound_to 10752
  152.9940  135.5530  154.5966 H   0  0  0  0  0  0  0  0  0  0  0  0  # atno 10764 bound_to 10752
  154.5459  135.2898  155.1027 H   0  0  0  0  0  0  0  0  0  0  0  0  # atno 10765 bound_to 10752
  140.1749  134.4176  155.8235 H   0  0  0  0  0  0  0  0  0  0  0  0  # atno 11005 bound_to 11000
  144.8665  140.7213  143.6074 LP  0  0  0  0  0  0  0  0  0  0  0  0  # atno 17320 bound_to 7965
  145.3512  139.1706  143.4433 LP  0  0  0  0  0  0  0  0  0  0  0  0  # atno 17321 bound_to 7965
  139.4789  144.5245  151.8754 LP  0  0  0  0  0  0  0  0  0  0  0  0  # atno 17342 bound_to 10162
  140.4335  144.2083  150.5888 LP  0  0  0  0  0  0  0  0  0  0  0  0  # atno 17343 bound_to 10162
  156.1865  130.3652  149.8965 LP  0  0  0  0  0  0  0  0  0  0  0  0  # atno 17370 bound_to 10713
  156.6904  130.8893  151.3587 LP  0  0  0  0  0  0  0  0  0  0  0  0  # atno 17371 bound_to 10713
  141.2220  133.6973  156.7828 LP  0  0  0  0  0  0  0  0  0  0  0  0  # atno 17394 bound_to 11000
  140.2334  134.8668  157.3500 LP  0  0  0  0  0  0  0  0  0  0  0  0  # atno 17395 bound_to 11000

$$$$
