AV-unprocessed.smi:1824|AV-procd|sdf|7398|dock3
  -GOLD-   22720 9 63D 1   1.00000     0.00000
 Structure written by MMmdl.
 44 46  0  0  0  0  0  0  0  0  1 V2000
  146.6765  143.2140  158.9391 C   0  0  0  0  0  0  0  0  0  0  0  0
  146.3076  142.1263  157.9252 C   0  0  1  0  0  0  0  0  0  0  0  0
  147.3243  142.0395  156.7729 C   0  0  0  0  0  0  0  0  0  0  0  0
  147.0155  140.9528  155.8521 N   0  0  0  0  0  0  0  0  0  0  0  0
  147.9679  140.9229  154.7408 C   0  0  0  0  0  0  0  0  0  0  0  0
  149.3993  140.4761  155.1012 C   0  0  1  0  0  0  0  0  0  0  0  0
  150.0968  140.1753  153.9075 O   0  0  0  0  0  0  0  0  0  0  0  0
  150.1587  141.5770  155.8657 C   0  0  0  0  0  0  0  0  0  0  0  0
  151.2064  141.0394  156.7155 N   0  0  0  0  0  0  0  0  0  0  0  0
  151.9481  139.9367  156.4963 C   0  0  0  0  0  0  0  0  0  0  0  0
  152.8590  139.6231  157.4133 N   0  0  0  0  0  0  0  0  0  0  0  0
  152.6893  140.6412  158.3358 C   0  0  0  0  0  0  0  0  0  0  0  0
  153.3549  140.8939  159.5567 C   0  0  0  0  0  0  0  0  0  0  0  0
  153.0072  142.0125  160.3422 C   0  0  0  0  0  0  0  0  0  0  0  0
  153.6549  142.2398  161.5095 F   0  0  0  0  0  0  0  0  0  0  0  0
  151.9905  142.8944  159.9194 C   0  0  0  0  0  0  0  0  0  0  0  0
  151.6632  143.9660  160.6797 F   0  0  0  0  0  0  0  0  0  0  0  0
  151.3133  142.6631  158.7067 C   0  0  0  0  0  0  0  0  0  0  0  0
  151.6635  141.5457  157.9269 C   0  0  0  0  0  0  0  0  0  0  0  0
  146.9769  139.6965  156.5992 C   0  0  0  0  0  0  0  0  0  0  0  0
  145.9972  139.7401  157.7893 C   0  0  2  0  0  0  0  0  0  0  0  0
  144.5206  139.6779  157.3635 C   0  0  0  0  0  0  0  0  0  0  0  0
  146.2645  140.8770  158.6118 O   0  0  0  0  0  0  0  0  0  0  0  0
  146.7098  144.1959  158.4666 H   0  0  0  0  0  0  0  0  0  0  0  0
  147.6531  143.0232  159.3850 H   0  0  0  0  0  0  0  0  0  0  0  0
  145.9446  143.2584  159.7460 H   0  0  0  0  0  0  0  0  0  0  0  0
  145.3198  142.3533  157.5233 H   0  0  0  0  0  0  0  0  0  0  0  0
  147.3330  142.9877  156.2339 H   0  0  0  0  0  0  0  0  0  0  0  0
  148.3279  141.9039  157.1801 H   0  0  0  0  0  0  0  0  0  0  0  0
  147.5934  140.2546  153.9636 H   0  0  0  0  0  0  0  0  0  0  0  0
  148.0065  141.9123  154.2823 H   0  0  0  0  0  0  0  0  0  0  0  0
  149.3812  139.5812  155.7216 H   0  0  0  0  0  0  0  0  0  0  0  0
  149.5283  140.3528  153.1741 H   0  0  0  0  0  0  0  0  0  0  0  0
  150.6020  142.2915  155.1704 H   0  0  0  0  0  0  0  0  0  0  0  0
  149.4697  142.1410  156.4954 H   0  0  0  0  0  0  0  0  0  0  0  0
  151.8092  139.3280  155.6147 H   0  0  0  0  0  0  0  0  0  0  0  0
  154.1346  140.2258  159.8905 H   0  0  0  0  0  0  0  0  0  0  0  0
  150.5338  143.3352  158.3806 H   0  0  0  0  0  0  0  0  0  0  0  0
  146.6974  138.8680  155.9499 H   0  0  0  0  0  0  0  0  0  0  0  0
  147.9757  139.4690  156.9748 H   0  0  0  0  0  0  0  0  0  0  0  0
  146.1856  138.8635  158.4098 H   0  0  0  0  0  0  0  0  0  0  0  0
  144.3082  138.7467  156.8377 H   0  0  0  0  0  0  0  0  0  0  0  0
  144.2511  140.4961  156.6960 H   0  0  0  0  0  0  0  0  0  0  0  0
  143.8632  139.7239  158.2319 H   0  0  0  0  0  0  0  0  0  0  0  0
  1  2  1  0  0  0  0
  1 24  1  0  0  0  0
  1 25  1  0  0  0  0
  1 26  1  0  0  0  0
  2 23  1  0  0  0  0
  2  3  1  0  0  0  0
  2 27  1  0  0  0  0
  3  4  1  0  0  0  0
  3 28  1  0  0  0  0
  3 29  1  0  0  0  0
  4  5  1  0  0  0  0
  4 20  1  0  0  0  0
  5  6  1  0  0  0  0
  5 30  1  0  0  0  0
  5 31  1  0  0  0  0
  6  7  1  0  0  0  0
  6  8  1  0  0  0  0
  6 32  1  0  0  0  0
  7 33  1  0  0  0  0
  8  9  1  0  0  0  0
  8 34  1  0  0  0  0
  8 35  1  0  0  0  0
  9 19  1  0  0  0  0
  9 10  1  0  0  0  0
 10 11  2  0  0  0  0
 10 36  1  0  0  0  0
 11 12  1  0  0  0  0
 12 19  2  0  0  0  0
 12 13  1  0  0  0  0
 13 14  2  0  0  0  0
 13 37  1  0  0  0  0
 14 15  1  0  0  0  0
 14 16  1  0  0  0  0
 16 17  1  0  0  0  0
 16 18  2  0  0  0  0
 18 19  1  0  0  0  0
 18 38  1  0  0  0  0
 20 21  1  0  0  0  0
 20 39  1  0  0  0  0
 20 40  1  0  0  0  0
 21 22  1  0  0  0  0
 21 23  1  0  0  0  0
 21 41  1  0  0  0  0
 22 42  1  0  0  0  0
 22 43  1  0  0  0  0
 22 44  1  0  0  0  0
M  END
> <s_m_source_file>
AV-unprocessed.smi

> <i_m_source_file_index>
1824

> <i_lp_mmshare_version>
43012

> <i_f3d_flags>
0

> <s_epik_input>
W0NIM11bQ0BASF0xW0NIMl1OKFtDSDJdW0NASF0oTzEpW0NIM10pW0NIMl1bQ0BIXShbT0hdKVtDSDJdbihbY0hdbjIpYyhjMjMpW2NIXWMoRiljKEYpW2NIXTM=

> <s_epik_cmdline>
J2VwaWtfcHl0aG9uJywgJy1waCcsICc3LjAnLCAnLXRuJywgJzgnLCAnLW1hJywgJzIwMCcsICctbWV0YWxfYmluZGluZycsICctaW1hZScsICc8aW5maWxlLm1hZT4nLCAnLW9tYWUnLCAnPG91dGZpbGUubWFlPic=

> <r_epik_Ionization_Penalty>
0.273778

> <r_epik_Ionization_Penalty_Charging>
0

> <r_epik_Ionization_Penalty_Neutral>
0.273778

> <r_epik_State_Penalty>
0.246794

> <r_epik_Charging_Adjusted_Penalty>
0.246794

> <i_epik_Tot_Q>
0

> <i_epik_Tot_abs_Q>
0

> <r_epik_Metal_State_Penalty>
0.238234

> <b_epik_Metal_Only>
0

> <s_lp_Force_Field>
OPLS_2005

> <r_lp_Energy>
30.0542

> <b_lp_Chiralities_Consistent>
1

> <s_lp_Variant>
AV-unprocessed.smi:1824-6

> <Gold.Version>
5.8.1

> <Gold.Id.Protein>
6NUR|6NUR_protein|mol2

> <Gold.PLP.Fitness>
47.3923

> <Gold.PLP.PLP>
-40.5629

> <Gold.PLP.part.hbond>
-4.0000

> <Gold.PLP.part.metal>
0.0000

> <Gold.PLP.part.buried>
-5.3850

> <Gold.PLP.part.nonpolar>
-31.2415

> <Gold.PLP.part.repulsive>
0.0551

> <Gold.PLP.ligand.clash>
0.0000

> <Gold.PLP.ligand.torsion>
0.8097

> <Gold.PLP.Chemscore.Hbond>
2.7951

> <Gold.PLP.Chemscore.CHOScore>
0.0000

> <Gold.PLP.Chemscore.Metal>
0.0000

> <Gold.Chemscore.Hbonds>
donor molecule, donor type, donor heavy atom, donor atom, acceptor molecule, acceptor atom, score
      L1  H     7    33       P1  7957  0.69
      P1  H  6934  6946       L1    23  0.27
      P1  H  7989  7998       L1     7  0.85
      P1  H  7997  8008       L1    11  1.00

> <Gold.PLP.Chemscore.Internal.Correction>
0.0634

> <Gold.Rescore>
     Score         DG    S(hbond)    S(metal)    S(lipo)     H(rot)  DE(clash)    DE(int)     intcor
     14.90     -15.83       2.17        0.00      75.91       2.26       0.12       0.81       ----

> <Gold.Chemscore.Fitness>
14.9007

> <Gold.Chemscore.DG>
-15.8334

> <Gold.Chemscore.ZeroCoef>
-5.4800

> <Gold.Chemscore.Hbond>
2.1744

> <Gold.Chemscore.Metal>
0.0000

> <Gold.Chemscore.Lipo>
75.9101

> <Gold.Chemscore.Internal_Hbond>
0.0000

> <Gold.Chemscore.DEClash>
0.1193

> <Gold.Chemscore.DEInternal>
0.8134

> <Gold.Chemscore.Rot>
2.2619

> <Gold.Chemscore.Internal.Correction>
   9.000000E+99

> <Gold.Chemscore.Hbonds>
donor molecule, donor type, donor heavy atom, donor atom, acceptor molecule, acceptor atom, score
      L1  H     7    33       P1  7957  0.65
      P1  H  6934  6946       L1    23  0.26
      P1  H  7989  7998       L1     7  0.41
      P1  H  7997  8008       L1    11  0.10

> <Gold.Chemscore.Hbond.Weighted>
-7.2624

> <Gold.Chemscore.Metal.Weighted>
-0.0000

> <Gold.Chemscore.Lipo.Weighted>
-8.8815

> <Gold.Chemscore.Internal_Hbond.Weighted>
0.0000

> <Gold.Chemscore.DEClash.Weighted>
0.1193

> <Gold.Chemscore.DEInternal.Weighted>
0.8134

> <Gold.Chemscore.Rot.Weighted>
5.7904

> <Gold.Chemscore.Internal.Correction.Weighted>
   9.000000E+99

> <Gold.Protein.RotatedTorsions>
[ 6907 6896 6895 6894 ] final  107.36 input  -60.11 | X-H torsion
[ 7974 7965 7964 7962 ] final  -63.12 input  175.53 | X-H torsion
[ 8008 7997 7996 7995 ] final  -53.74 input   59.86 | X-H torsion
[ 10167 10162 10161 10158 ] final -160.25 input  -65.29 | X-H torsion
[ 10718 10713 10712 10709 ] final  -38.61 input   66.30 | X-H torsion
[ 10763 10752 10751 10750 ] final -160.57 input  -60.55 | X-H torsion
[ 11005 11000 10999 10996 ] final   -4.79 input  -57.11 | X-H torsion

> <Gold.Protein.ActiveResidues>
 VAL166  LYS551  ARG553  GLY616  TRP617  ASP618  TYR619  PRO620  LYS621  CYS622 
 ASP623  PHE694  ASN695  SER759  ASP760  ASP761  ALA762  ILE779  LEU786  VAL792 
 PHE793  MET794  SER795  GLU796  ALA797  LYS798  CYS799  TRP800  GLU811  SER814 

> <Gold.Protein.RotatedAtoms>
  152.5157  133.9246  159.7550 H   0  0  0  0  0  0  0  0  0  0  0  0  # atno 6907 bound_to 6896
  150.9610  133.6437  159.2761 H   0  0  0  0  0  0  0  0  0  0  0  0  # atno 6908 bound_to 6896
  151.3682  135.0923  159.9509 H   0  0  0  0  0  0  0  0  0  0  0  0  # atno 6909 bound_to 6896
  145.7829  140.8752  143.0321 H   0  0  0  0  0  0  0  0  0  0  0  0  # atno 7974 bound_to 7965
  154.4142  140.1193  156.5202 H   0  0  0  0  0  0  0  0  0  0  0  0  # atno 8008 bound_to 7997
  155.6710  140.3496  155.4799 H   0  0  0  0  0  0  0  0  0  0  0  0  # atno 8009 bound_to 7997
  155.9633  140.1127  157.0866 H   0  0  0  0  0  0  0  0  0  0  0  0  # atno 8010 bound_to 7997
  139.6553  144.0010  152.2190 H   0  0  0  0  0  0  0  0  0  0  0  0  # atno 10167 bound_to 10162
  156.3018  130.4241  149.8136 H   0  0  0  0  0  0  0  0  0  0  0  0  # atno 10718 bound_to 10713
  154.7379  135.3061  154.8779 H   0  0  0  0  0  0  0  0  0  0  0  0  # atno 10763 bound_to 10752
  153.9603  135.6754  153.4749 H   0  0  0  0  0  0  0  0  0  0  0  0  # atno 10764 bound_to 10752
  153.0980  135.4926  154.8738 H   0  0  0  0  0  0  0  0  0  0  0  0  # atno 10765 bound_to 10752
  140.6841  133.9128  155.8574 H   0  0  0  0  0  0  0  0  0  0  0  0  # atno 11005 bound_to 11000
  144.6793  140.0014  143.7484 LP  0  0  0  0  0  0  0  0  0  0  0  0  # atno 17320 bound_to 7965
  146.0056  139.3126  143.0901 LP  0  0  0  0  0  0  0  0  0  0  0  0  # atno 17321 bound_to 7965
  139.9734  144.6478  150.7967 LP  0  0  0  0  0  0  0  0  0  0  0  0  # atno 17342 bound_to 10162
  140.7556  143.3050  151.2985 LP  0  0  0  0  0  0  0  0  0  0  0  0  # atno 17343 bound_to 10162
  156.5511  130.8342  151.3300 LP  0  0  0  0  0  0  0  0  0  0  0  0  # atno 17370 bound_to 10713
  157.7370  130.9788  150.2166 LP  0  0  0  0  0  0  0  0  0  0  0  0  # atno 17371 bound_to 10713
  141.0294  134.0777  157.4031 LP  0  0  0  0  0  0  0  0  0  0  0  0  # atno 17394 bound_to 11000
  139.8943  135.0135  156.6943 LP  0  0  0  0  0  0  0  0  0  0  0  0  # atno 17395 bound_to 11000

$$$$
