AV-unprocessed.smi:2547|AV-procd|sdf|10005|dock3
  -GOLD-   2272014 53D 1   1.00000     0.00000
 Structure written by MMmdl.
 44 45  0  0  0  0  0  0  0  0  2 V2000
  146.0608  142.6489  154.3636 C   0  0  0  0  0  0  0  0  0  0  0  0
  147.2450  142.1769  155.1128 N   0  3  2  0  0  0  0  0  0  0  0  0
  148.3344  141.7170  154.2160 C   0  0  0  0  0  0  0  0  0  0  0  0
  149.5952  141.3549  155.0188 C   0  0  0  0  0  0  0  0  0  0  0  0
  149.2862  140.2991  156.0935 C   0  0  1  0  0  0  0  0  0  0  0  0
  150.4723  140.0624  156.9130 N   0  0  0  0  0  0  0  0  0  0  0  0
  151.7344  139.9435  156.4726 C   0  0  0  0  0  0  0  0  0  0  0  0
  152.0110  140.0292  155.2726 O   0  0  0  0  0  0  0  0  0  0  0  0
  152.5860  139.7240  157.5497 N   0  0  0  0  0  0  0  0  0  0  0  0
  152.7358  140.5817  158.5178 C   0  0  0  0  0  0  0  0  0  0  0  0
  153.6443  140.2843  159.6120 C   0  0  0  0  0  0  0  0  0  0  0  0
  153.8189  141.1543  160.6277 C   0  0  0  0  0  0  0  0  0  0  0  0
  153.1068  142.4149  160.6625 C   0  0  0  0  0  0  0  0  0  0  0  0
  152.2562  142.7251  159.6656 C   0  0  0  0  0  0  0  0  0  0  0  0
  151.5785  143.9287  159.7020 N   0  0  0  0  0  0  0  0  0  0  0  0
  150.6522  144.3010  158.6463 C   0  0  0  0  0  0  0  0  0  0  0  0
  151.4833  144.6998  160.9301 C   0  0  0  0  0  0  0  0  0  0  0  0
  152.0792  141.8229  158.6181 N   0  0  0  0  0  0  0  0  0  0  0  0
  148.1261  140.7820  156.9800 C   0  0  0  0  0  0  0  0  0  0  0  0
  146.8980  141.1569  156.1337 C   0  0  0  0  0  0  0  0  0  0  0  0
  145.6114  141.8371  153.7899 H   0  0  0  0  0  0  0  0  0  0  0  0
  146.3352  143.4460  153.6720 H   0  0  0  0  0  0  0  0  0  0  0  0
  145.3068  143.0451  155.0447 H   0  0  0  0  0  0  0  0  0  0  0  0
  147.9953  140.8545  153.6400 H   0  0  0  0  0  0  0  0  0  0  0  0
  148.5740  142.5031  153.4987 H   0  0  0  0  0  0  0  0  0  0  0  0
  150.3690  140.9865  154.3440 H   0  0  0  0  0  0  0  0  0  0  0  0
  149.9964  142.2553  155.4870 H   0  0  0  0  0  0  0  0  0  0  0  0
  148.9730  139.3821  155.5910 H   0  0  0  0  0  0  0  0  0  0  0  0
  150.3232  139.9808  157.9086 H   0  0  0  0  0  0  0  0  0  0  0  0
  154.2036  139.3603  159.6420 H   0  0  0  0  0  0  0  0  0  0  0  0
  154.5005  140.9075  161.4282 H   0  0  0  0  0  0  0  0  0  0  0  0
  153.2618  143.0971  161.4861 H   0  0  0  0  0  0  0  0  0  0  0  0
  150.9694  143.8821  157.6907 H   0  0  0  0  0  0  0  0  0  0  0  0
  150.5985  145.3847  158.5386 H   0  0  0  0  0  0  0  0  0  0  0  0
  149.6536  143.9256  158.8702 H   0  0  0  0  0  0  0  0  0  0  0  0
  152.3720  144.5549  161.5454 H   0  0  0  0  0  0  0  0  0  0  0  0
  150.6127  144.3860  161.5065 H   0  0  0  0  0  0  0  0  0  0  0  0
  151.3911  145.7649  160.7158 H   0  0  0  0  0  0  0  0  0  0  0  0
  147.8563  140.0067  157.6983 H   0  0  0  0  0  0  0  0  0  0  0  0
  148.4404  141.6485  157.5640 H   0  0  0  0  0  0  0  0  0  0  0  0
  146.1125  141.5433  156.7845 H   0  0  0  0  0  0  0  0  0  0  0  0
  146.4950  140.2695  155.6426 H   0  0  0  0  0  0  0  0  0  0  0  0
  147.6034  142.9767  155.6150 H   0  0  0  0  0  0  0  0  0  0  0  0
  151.4287  142.1136  157.9023 H   0  0  0  0  0  0  0  0  0  0  0  0
  1  2  1  0  0  0  0
  1 21  1  0  0  0  0
  1 22  1  0  0  0  0
  1 23  1  0  0  0  0
  2 20  1  0  0  0  0
  2  3  1  0  0  0  0
  2 43  1  0  0  0  0
  3  4  1  0  0  0  0
  3 24  1  0  0  0  0
  3 25  1  0  0  0  0
  4  5  1  0  0  0  0
  4 26  1  0  0  0  0
  4 27  1  0  0  0  0
  5  6  1  0  0  0  0
  5 19  1  0  0  0  0
  5 28  1  0  0  0  0
  6  7  1  0  0  0  0
  6 29  1  0  0  0  0
  7  8  2  0  0  0  0
  7  9  1  0  0  0  0
  9 10  2  0  0  0  0
 10 18  1  0  0  0  0
 10 11  1  0  0  0  0
 11 12  2  0  0  0  0
 11 30  1  0  0  0  0
 12 13  1  0  0  0  0
 12 31  1  0  0  0  0
 13 14  2  0  0  0  0
 13 32  1  0  0  0  0
 14 15  1  0  0  0  0
 14 18  1  0  0  0  0
 15 16  1  0  0  0  0
 15 17  1  0  0  0  0
 16 33  1  0  0  0  0
 16 34  1  0  0  0  0
 16 35  1  0  0  0  0
 17 36  1  0  0  0  0
 17 37  1  0  0  0  0
 17 38  1  0  0  0  0
 18 44  1  0  0  0  0
 19 20  1  0  0  0  0
 19 39  1  0  0  0  0
 19 40  1  0  0  0  0
 20 41  1  0  0  0  0
 20 42  1  0  0  0  0
M  CHG  1   2   1
M  END
> <s_m_source_file>
AV-unprocessed.smi

> <i_m_source_file_index>
2547

> <i_lp_mmshare_version>
43012

> <i_f3d_flags>
0

> <s_epik_input>
W0NIM11OMVtDSDJdW0NIMl1bQ0hdKFtDSDJdW0NIMl0xKVtOSF1DKD1PKVtOSF1jMltjSF1bY0hdW2NIXWMobjIpTihbQ0gzXSlbQ0gzXQ==

> <s_epik_cmdline>
J2VwaWtfcHl0aG9uJywgJy1waCcsICc3LjAnLCAnLXRuJywgJzgnLCAnLW1hJywgJzIwMCcsICctbWV0YWxfYmluZGluZycsICctaW1hZScsICc8aW5maWxlLm1hZT4nLCAnLW9tYWUnLCAnPG91dGZpbGUubWFlPic=

> <r_lp_tautomer_probability>
0.999994

> <r_epik_Ionization_Penalty>
1.33208

> <r_epik_Ionization_Penalty_Charging>
1.33208

> <r_epik_Ionization_Penalty_Neutral>
6.0327e-08

> <r_epik_State_Penalty>
3.49719

> <r_epik_Charging_Adjusted_Penalty>
4.82927

> <i_epik_Tot_Q>
1

> <i_epik_Tot_abs_Q>
1

> <r_epik_Metal_State_Penalty>
3.51567

> <b_epik_Metal_Only>
1

> <s_lp_Force_Field>
OPLS_2005

> <r_lp_Energy>
40.9112

> <b_lp_Chiralities_Consistent>
1

> <s_lp_Variant>
AV-unprocessed.smi:2547-5

> <Gold.Version>
5.8.1

> <Gold.Id.Protein>
6NUR|6NUR_protein|mol2

> <Gold.PLP.Fitness>
51.0210

> <Gold.PLP.PLP>
-42.7645

> <Gold.PLP.part.hbond>
-3.0000

> <Gold.PLP.part.metal>
0.0000

> <Gold.PLP.part.buried>
-3.2883

> <Gold.PLP.part.nonpolar>
-36.5317

> <Gold.PLP.part.repulsive>
0.2278

> <Gold.PLP.ligand.clash>
0.0000

> <Gold.PLP.ligand.torsion>
0.8728

> <Gold.PLP.Chemscore.Hbond>
3.2941

> <Gold.PLP.Chemscore.CHOScore>
0.0000

> <Gold.PLP.Chemscore.Metal>
0.0000

> <Gold.Chemscore.Hbonds>
donor molecule, donor type, donor heavy atom, donor atom, acceptor molecule, acceptor atom, score
      L1  H     2    43       P1  8028  1.46
      P1  H  7989  7998       L1     8  0.82
      P1  H  7997  8009       L1     9  0.60

> <Gold.PLP.Chemscore.Internal.Correction>
0.1200

> <Gold.Rescore>
     Score         DG    S(hbond)    S(metal)    S(lipo)     H(rot)  DE(clash)    DE(int)     intcor
     13.57     -17.60       1.60        0.00      79.63       1.00       0.34       3.69       ----

> <Gold.Chemscore.Fitness>
13.5737

> <Gold.Chemscore.DG>
-17.5973

> <Gold.Chemscore.ZeroCoef>
-5.4800

> <Gold.Chemscore.Hbond>
1.6050

> <Gold.Chemscore.Metal>
0.0000

> <Gold.Chemscore.Lipo>
79.6299

> <Gold.Chemscore.Internal_Hbond>
0.0000

> <Gold.Chemscore.DEClash>
0.3374

> <Gold.Chemscore.DEInternal>
3.6862

> <Gold.Chemscore.Rot>
1.0000

> <Gold.Chemscore.Internal.Correction>
   9.000000E+99

> <Gold.Chemscore.Hbonds>
donor molecule, donor type, donor heavy atom, donor atom, acceptor molecule, acceptor atom, score
      L1  H     2    43       P1  8028  0.24
      P1  H  7989  7998       L1     8  0.79
      P1  H  7997  8009       L1     9  0.02

> <Gold.Chemscore.Hbond.Weighted>
-5.3606

> <Gold.Chemscore.Metal.Weighted>
-0.0000

> <Gold.Chemscore.Lipo.Weighted>
-9.3167

> <Gold.Chemscore.Internal_Hbond.Weighted>
0.0000

> <Gold.Chemscore.DEClash.Weighted>
0.3374

> <Gold.Chemscore.DEInternal.Weighted>
3.6862

> <Gold.Chemscore.Rot.Weighted>
2.5600

> <Gold.Chemscore.Internal.Correction.Weighted>
   9.000000E+99

> <Gold.Protein.RotatedTorsions>
[ 6907 6896 6895 6894 ] final  -80.31 input  -60.11 | X-H torsion
[ 7974 7965 7964 7962 ] final   19.89 input  175.53 | X-H torsion
[ 8008 7997 7996 7995 ] final  167.49 input   59.86 | X-H torsion
[ 10167 10162 10161 10158 ] final   94.69 input  -65.29 | X-H torsion
[ 10718 10713 10712 10709 ] final   19.41 input   66.30 | X-H torsion
[ 10763 10752 10751 10750 ] final -103.62 input  -60.55 | X-H torsion
[ 11005 11000 10999 10996 ] final  150.50 input  -57.11 | X-H torsion

> <Gold.Protein.ActiveResidues>
 VAL166  LYS551  ARG553  GLY616  TRP617  ASP618  TYR619  PRO620  LYS621  CYS622 
 ASP623  PHE694  ASN695  SER759  ASP760  ASP761  ALA762  ILE779  LEU786  VAL792 
 PHE793  MET794  SER795  GLU796  ALA797  LYS798  CYS799  TRP800  GLU811  SER814 

> <Gold.Protein.RotatedAtoms>
  150.6932  134.3988  159.5109 H   0  0  0  0  0  0  0  0  0  0  0  0  # atno 6907 bound_to 6896
  152.1765  134.8787  160.0539 H   0  0  0  0  0  0  0  0  0  0  0  0  # atno 6908 bound_to 6896
  151.9794  133.3718  159.4138 H   0  0  0  0  0  0  0  0  0  0  0  0  # atno 6909 bound_to 6896
  146.2132  139.8248  142.8672 H   0  0  0  0  0  0  0  0  0  0  0  0  # atno 7974 bound_to 7965
  156.1629  140.1615  156.8580 H   0  0  0  0  0  0  0  0  0  0  0  0  # atno 8008 bound_to 7997
  154.5179  140.0785  156.8151 H   0  0  0  0  0  0  0  0  0  0  0  0  # atno 8009 bound_to 7997
  155.3670  140.3398  155.4244 H   0  0  0  0  0  0  0  0  0  0  0  0  # atno 8010 bound_to 7997
  139.8059  144.6794  150.9703 H   0  0  0  0  0  0  0  0  0  0  0  0  # atno 10167 bound_to 10162
  157.1101  130.6505  149.5895 H   0  0  0  0  0  0  0  0  0  0  0  0  # atno 10718 bound_to 10713
  154.7820  135.4817  153.9865 H   0  0  0  0  0  0  0  0  0  0  0  0  # atno 10763 bound_to 10752
  153.1507  135.6790  153.8894 H   0  0  0  0  0  0  0  0  0  0  0  0  # atno 10764 bound_to 10752
  153.8539  135.3164  155.3412 H   0  0  0  0  0  0  0  0  0  0  0  0  # atno 10765 bound_to 10752
  140.1137  134.8908  157.1972 H   0  0  0  0  0  0  0  0  0  0  0  0  # atno 11005 bound_to 11000
  145.3058  141.0207  143.3582 LP  0  0  0  0  0  0  0  0  0  0  0  0  # atno 17320 bound_to 7965
  144.8972  139.4697  143.6650 LP  0  0  0  0  0  0  0  0  0  0  0  0  # atno 17321 bound_to 7965
  140.7819  143.4234  151.0806 LP  0  0  0  0  0  0  0  0  0  0  0  0  # atno 17342 bound_to 10162
  139.7903  143.8228  152.3151 LP  0  0  0  0  0  0  0  0  0  0  0  0  # atno 17343 bound_to 10162
  155.9852  130.4881  150.7023 LP  0  0  0  0  0  0  0  0  0  0  0  0  # atno 17370 bound_to 10713
  157.4567  131.0878  151.0789 LP  0  0  0  0  0  0  0  0  0  0  0  0  # atno 17371 bound_to 10713
  140.3057  134.3080  155.7278 LP  0  0  0  0  0  0  0  0  0  0  0  0  # atno 17394 bound_to 11000
  141.2136  133.7619  156.9705 LP  0  0  0  0  0  0  0  0  0  0  0  0  # atno 17395 bound_to 11000

$$$$
