AV-unprocessed.smi:863|AV-procd|sdf|3984|dock6
  -GOLD-   22720 1463D 1   1.00000     0.00000
 Structure written by MMmdl.
 42 44  0  0  0  0  0  0  0  0  1 V2000
  152.0826  139.6435  154.6401 O   0  0  0  0  0  0  0  0  0  0  0  0
  151.0256  139.2284  155.1154 C   0  0  0  0  0  0  0  0  0  0  0  0
  150.1637  138.2461  154.3214 C   0  0  0  0  0  0  0  0  0  0  0  0
  148.8471  138.8813  153.9640 C   0  0  0  0  0  0  0  0  0  0  0  0
  148.6117  140.0365  153.1673 C   0  0  0  0  0  0  0  0  0  0  0  0
  147.2524  140.1596  153.1765 C   0  0  0  0  0  0  0  0  0  0  0  0
  146.6909  139.1713  153.9174 O   0  0  0  0  0  0  0  0  0  0  0  0
  147.7167  138.3615  154.4187 N   0  0  0  0  0  0  0  0  0  0  0  0
  150.5623  139.5930  156.3216 N   0  0  0  0  0  0  0  0  0  0  0  0
  151.2321  140.5098  157.2389 C   0  0  2  0  0  0  0  0  0  0  0  0
  151.4940  139.8072  158.5755 C   0  0  0  0  0  0  0  0  0  0  0  0
  152.0922  140.7891  159.5920 C   0  0  0  0  0  0  0  0  0  0  0  0
  151.2429  141.9244  159.7487 O   0  0  0  0  0  0  0  0  0  0  0  0
  150.9762  142.6941  158.5688 C   0  0  0  0  0  0  0  0  0  0  0  0
  149.9225  143.7491  158.9803 C   0  0  0  0  0  0  0  0  0  0  0  0
  150.4653  144.7671  159.9986 C   0  0  0  0  0  0  0  0  0  0  0  0
  151.7303  145.4605  159.4752 C   0  0  0  0  0  0  0  0  0  0  0  0
  152.7978  144.4297  159.0838 C   0  0  0  0  0  0  0  0  0  0  0  0
  152.2492  143.4232  158.0592 C   0  0  0  0  0  0  0  0  0  0  0  0
  150.3720  141.7614  157.4906 C   0  0  0  0  0  0  0  0  0  0  0  0
  150.6988  137.9242  153.4267 H   0  0  0  0  0  0  0  0  0  0  0  0
  150.0004  137.3500  154.9212 H   0  0  0  0  0  0  0  0  0  0  0  0
  149.3276  140.6718  152.6675 H   0  0  0  0  0  0  0  0  0  0  0  0
  146.5683  140.8641  152.7269 H   0  0  0  0  0  0  0  0  0  0  0  0
  149.6857  139.1987  156.6312 H   0  0  0  0  0  0  0  0  0  0  0  0
  152.1907  140.8005  156.8064 H   0  0  0  0  0  0  0  0  0  0  0  0
  150.5613  139.4046  158.9734 H   0  0  0  0  0  0  0  0  0  0  0  0
  152.1661  138.9599  158.4344 H   0  0  0  0  0  0  0  0  0  0  0  0
  152.1917  140.2997  160.5608 H   0  0  0  0  0  0  0  0  0  0  0  0
  153.0975  141.0911  159.2994 H   0  0  0  0  0  0  0  0  0  0  0  0
  149.5790  144.2854  158.0943 H   0  0  0  0  0  0  0  0  0  0  0  0
  149.0425  143.2573  159.3968 H   0  0  0  0  0  0  0  0  0  0  0  0
  149.7004  145.5117  160.2209 H   0  0  0  0  0  0  0  0  0  0  0  0
  150.6869  144.2639  160.9406 H   0  0  0  0  0  0  0  0  0  0  0  0
  151.4799  146.0754  158.6097 H   0  0  0  0  0  0  0  0  0  0  0  0
  152.1253  146.1378  160.2329 H   0  0  0  0  0  0  0  0  0  0  0  0
  153.6698  144.9386  158.6724 H   0  0  0  0  0  0  0  0  0  0  0  0
  153.1415  143.8997  159.9730 H   0  0  0  0  0  0  0  0  0  0  0  0
  153.0358  142.7211  157.7873 H   0  0  0  0  0  0  0  0  0  0  0  0
  152.0095  143.9577  157.1390 H   0  0  0  0  0  0  0  0  0  0  0  0
  150.2232  142.3128  156.5612 H   0  0  0  0  0  0  0  0  0  0  0  0
  149.3797  141.4416  157.8129 H   0  0  0  0  0  0  0  0  0  0  0  0
  1  2  2  0  0  0  0
  2  3  1  0  0  0  0
  2  9  1  0  0  0  0
  3  4  1  0  0  0  0
  3 21  1  0  0  0  0
  3 22  1  0  0  0  0
  4  8  2  0  0  0  0
  4  5  1  0  0  0  0
  5  6  2  0  0  0  0
  5 23  1  0  0  0  0
  6  7  1  0  0  0  0
  6 24  1  0  0  0  0
  7  8  1  0  0  0  0
  9 10  1  0  0  0  0
  9 25  1  0  0  0  0
 10 20  1  0  0  0  0
 10 11  1  0  0  0  0
 10 26  1  0  0  0  0
 11 12  1  0  0  0  0
 11 27  1  0  0  0  0
 11 28  1  0  0  0  0
 12 13  1  0  0  0  0
 12 29  1  0  0  0  0
 12 30  1  0  0  0  0
 13 14  1  0  0  0  0
 14 19  1  0  0  0  0
 14 15  1  0  0  0  0
 14 20  1  0  0  0  0
 15 16  1  0  0  0  0
 15 31  1  0  0  0  0
 15 32  1  0  0  0  0
 16 17  1  0  0  0  0
 16 33  1  0  0  0  0
 16 34  1  0  0  0  0
 17 18  1  0  0  0  0
 17 35  1  0  0  0  0
 17 36  1  0  0  0  0
 18 19  1  0  0  0  0
 18 37  1  0  0  0  0
 18 38  1  0  0  0  0
 19 39  1  0  0  0  0
 19 40  1  0  0  0  0
 20 41  1  0  0  0  0
 20 42  1  0  0  0  0
M  END
> <s_m_source_file>
AV-unprocessed.smi

> <i_m_source_file_index>
863

> <i_lp_mmshare_version>
43012

> <i_f3d_flags>
0

> <s_epik_input>
bjFvW2NIXVtjSF1jMVtDSDJdQyg9TylbTkhdW0NAQEhdKFtDSDJdMilbQ0gyXVtDSDJdT0MyM1tDSDJdW0NIMl1bQ0gyXVtDSDJdW0NIMl0z

> <s_epik_cmdline>
J2VwaWtfcHl0aG9uJywgJy1waCcsICc3LjAnLCAnLXRuJywgJzgnLCAnLW1hJywgJzIwMCcsICctbWV0YWxfYmluZGluZycsICctaW1hZScsICc8aW5maWxlLm1hZT4nLCAnLW9tYWUnLCAnPG91dGZpbGUubWFlPic=

> <r_lp_tautomer_probability>
1

> <r_epik_Ionization_Penalty>
1.10177e-07

> <r_epik_Ionization_Penalty_Charging>
0

> <r_epik_Ionization_Penalty_Neutral>
1.10177e-07

> <r_epik_State_Penalty>
-0

> <r_epik_Charging_Adjusted_Penalty>
0

> <i_epik_Tot_Q>
0

> <i_epik_Tot_abs_Q>
0

> <r_epik_Metal_State_Penalty>
-0

> <b_epik_Metal_Only>
0

> <s_lp_Force_Field>
OPLS_2005

> <r_lp_Energy>
15.5763

> <b_lp_Chiralities_Consistent>
1

> <s_lp_Variant>
AV-unprocessed.smi:863-1

> <Gold.Version>
5.8.1

> <Gold.Id.Protein>
6NUR|6NUR_protein|mol2

> <Gold.PLP.Fitness>
40.6238

> <Gold.PLP.PLP>
-34.6934

> <Gold.PLP.part.hbond>
-1.8684

> <Gold.PLP.part.metal>
0.0000

> <Gold.PLP.part.buried>
-3.0580

> <Gold.PLP.part.nonpolar>
-29.9371

> <Gold.PLP.part.repulsive>
0.2548

> <Gold.PLP.ligand.clash>
0.0000

> <Gold.PLP.ligand.torsion>
0.0303

> <Gold.PLP.Chemscore.Hbond>
1.0000

> <Gold.PLP.Chemscore.CHOScore>
0.9966

> <Gold.PLP.Chemscore.Metal>
0.0000

> <Gold.Chemscore.Hbonds>
donor molecule, donor type, donor heavy atom, donor atom, acceptor molecule, acceptor atom, score
      P1  H  7989  7998       L1     1  0.85
      L1  C     6    24       P1 10175  0.05

> <Gold.PLP.Chemscore.Internal.Correction>
0.0011

> <Gold.Rescore>
     Score         DG    S(hbond)    S(metal)    S(lipo)     H(rot)  DE(clash)    DE(int)     intcor
     17.10     -17.79       0.97        0.00     108.58       1.42       0.57       0.12       ----

> <Gold.Chemscore.Fitness>
17.0952

> <Gold.Chemscore.DG>
-17.7909

> <Gold.Chemscore.ZeroCoef>
-5.4800

> <Gold.Chemscore.Hbond>
0.9680

> <Gold.Chemscore.Metal>
0.0000

> <Gold.Chemscore.Lipo>
108.5777

> <Gold.Chemscore.Internal_Hbond>
0.0000

> <Gold.Chemscore.DEClash>
0.5749

> <Gold.Chemscore.DEInternal>
0.1208

> <Gold.Chemscore.Rot>
1.4164

> <Gold.Chemscore.Internal.Correction>
   9.000000E+99

> <Gold.Chemscore.Hbonds>
donor molecule, donor type, donor heavy atom, donor atom, acceptor molecule, acceptor atom, score
      P1  H  7989  7998       L1     1  0.50

> <Gold.Chemscore.Hbond.Weighted>
-3.2332

> <Gold.Chemscore.Metal.Weighted>
-0.0000

> <Gold.Chemscore.Lipo.Weighted>
-12.7036

> <Gold.Chemscore.Internal_Hbond.Weighted>
0.0000

> <Gold.Chemscore.DEClash.Weighted>
0.5749

> <Gold.Chemscore.DEInternal.Weighted>
0.1208

> <Gold.Chemscore.Rot.Weighted>
3.6259

> <Gold.Chemscore.Internal.Correction.Weighted>
   9.000000E+99

> <Gold.Protein.RotatedTorsions>
[ 6907 6896 6895 6894 ] final  175.19 input  -60.11 | X-H torsion
[ 7974 7965 7964 7962 ] final -101.65 input  175.53 | X-H torsion
[ 8008 7997 7996 7995 ] final  107.85 input   59.86 | X-H torsion
[ 10167 10162 10161 10158 ] final   61.65 input  -65.29 | X-H torsion
[ 10718 10713 10712 10709 ] final   88.95 input   66.30 | X-H torsion
[ 10763 10752 10751 10750 ] final  -20.58 input  -60.55 | X-H torsion
[ 11005 11000 10999 10996 ] final  -69.59 input  -57.11 | X-H torsion

> <Gold.Protein.ActiveResidues>
 VAL166  LYS551  ARG553  GLY616  TRP617  ASP618  TYR619  PRO620  LYS621  CYS622 
 ASP623  PHE694  ASN695  SER759  ASP760  ASP761  ALA762  ILE779  LEU786  VAL792 
 PHE793  MET794  SER795  GLU796  ALA797  LYS798  CYS799  TRP800  GLU811  SER814 

> <Gold.Protein.RotatedAtoms>
  151.7403  133.3321  159.3363 H   0  0  0  0  0  0  0  0  0  0  0  0  # atno 6907 bound_to 6896
  150.7576  134.6284  159.6183 H   0  0  0  0  0  0  0  0  0  0  0  0  # atno 6908 bound_to 6896
  152.3535  134.6975  160.0281 H   0  0  0  0  0  0  0  0  0  0  0  0  # atno 6909 bound_to 6896
  145.2788  140.9320  143.2944 H   0  0  0  0  0  0  0  0  0  0  0  0  # atno 7974 bound_to 7965
  156.1857  140.3087  155.9233 H   0  0  0  0  0  0  0  0  0  0  0  0  # atno 8008 bound_to 7997
  155.3287  140.0459  157.3059 H   0  0  0  0  0  0  0  0  0  0  0  0  # atno 8009 bound_to 7997
  154.5393  140.2256  155.8679 H   0  0  0  0  0  0  0  0  0  0  0  0  # atno 8010 bound_to 7997
  140.1524  144.4449  150.6752 H   0  0  0  0  0  0  0  0  0  0  0  0  # atno 10167 bound_to 10162
  157.6952  131.0314  150.3352 H   0  0  0  0  0  0  0  0  0  0  0  0  # atno 10718 bound_to 10713
  153.6227  135.6992  153.5305 H   0  0  0  0  0  0  0  0  0  0  0  0  # atno 10763 bound_to 10752
  153.2924  135.4153  155.1179 H   0  0  0  0  0  0  0  0  0  0  0  0  # atno 10764 bound_to 10752
  154.8540  135.3629  154.5768 H   0  0  0  0  0  0  0  0  0  0  0  0  # atno 10765 bound_to 10752
  141.1557  133.6768  156.6622 H   0  0  0  0  0  0  0  0  0  0  0  0  # atno 11005 bound_to 11000
  144.9271  139.4342  143.6513 LP  0  0  0  0  0  0  0  0  0  0  0  0  # atno 17320 bound_to 7965
  146.3223  139.8162  142.8936 LP  0  0  0  0  0  0  0  0  0  0  0  0  # atno 17321 bound_to 7965
  140.6694  143.2280  151.5663 LP  0  0  0  0  0  0  0  0  0  0  0  0  # atno 17342 bound_to 10162
  139.5419  144.2624  152.1368 LP  0  0  0  0  0  0  0  0  0  0  0  0  # atno 17343 bound_to 10162
  156.3820  130.3882  149.7094 LP  0  0  0  0  0  0  0  0  0  0  0  0  # atno 17370 bound_to 10713
  156.4473  130.7890  151.2911 LP  0  0  0  0  0  0  0  0  0  0  0  0  # atno 17371 bound_to 10713
  140.3239  134.7985  157.4273 LP  0  0  0  0  0  0  0  0  0  0  0  0  # atno 17394 bound_to 11000
  140.1074  134.5391  155.8297 LP  0  0  0  0  0  0  0  0  0  0  0  0  # atno 17395 bound_to 11000

$$$$
