AV-unprocessed.smi:124|AV-procd|sdf|1148|dock10
  -GOLD-   2262018283D 1   1.00000     0.00000
 Structure written by MMmdl.
 52 56  0  0  0  0  0  0  0  0  1 V2000
  152.0297  139.2487  158.7156 O   0  0  0  0  0  0  0  0  0  0  0  0
  152.5393  140.3545  158.9042 C   0  0  0  0  0  0  0  0  0  0  0  0
  153.9227  140.4456  159.5742 C   0  0  0  0  0  0  0  0  0  0  0  0
  154.4362  139.1418  159.9782 N   0  0  0  0  0  0  0  0  0  0  0  0
  154.5308  138.1385  158.9811 C   0  0  0  0  0  0  0  0  0  0  0  0
  154.2027  138.3465  157.8113 O   0  0  0  0  0  0  0  0  0  0  0  0
  155.0516  136.8605  159.4538 C   0  0  0  0  0  0  0  0  0  0  0  0
  155.1598  135.8299  158.5981 F   0  0  0  0  0  0  0  0  0  0  0  0
  155.4253  136.6925  160.7406 C   0  0  0  0  0  0  0  0  0  0  0  0
  155.3487  137.7002  161.6877 N   0  0  0  0  0  0  0  0  0  0  0  0
  155.7898  137.4727  163.1167 C   0  0  1  0  0  0  0  0  0  0  0  0
  154.5804  137.5093  164.0576 C   0  0  0  0  0  0  0  0  0  0  0  0
  154.2230  136.0423  164.1618 C   0  0  0  0  0  0  0  0  0  0  0  0
  155.5974  135.3859  164.1004 C   0  0  0  0  0  0  0  0  0  0  0  0
  156.3672  136.2026  163.2215 O   0  0  0  0  0  0  0  0  0  0  0  0
  154.8354  138.9649  161.3256 C   0  0  0  0  0  0  0  0  0  0  0  0
  154.7472  139.8716  162.1569 O   0  0  0  0  0  0  0  0  0  0  0  0
  151.9128  141.6295  158.5535 C   0  0  0  0  0  0  0  0  0  0  0  0
  151.1737  141.8346  157.4052 C   0  0  0  0  0  0  0  0  0  0  0  0
  150.7563  140.9332  156.3341 C   0  0  0  0  0  0  0  0  0  0  0  0
  151.5436  139.8096  155.9986 C   0  0  0  0  0  0  0  0  0  0  0  0
  151.1492  138.9419  154.9615 C   0  0  0  0  0  0  0  0  0  0  0  0
  149.9636  139.1928  154.2457 C   0  0  0  0  0  0  0  0  0  0  0  0
  149.1751  140.3135  154.5671 C   0  0  0  0  0  0  0  0  0  0  0  0
  149.5723  141.1799  155.6040 C   0  0  0  0  0  0  0  0  0  0  0  0
  150.7691  143.1569  157.3587 N   0  0  0  0  0  0  0  0  0  0  0  0
  151.2229  143.8504  158.4581 C   0  0  0  0  0  0  0  0  0  0  0  0
  151.0695  145.1933  158.8485 C   0  0  0  0  0  0  0  0  0  0  0  0
  151.6656  145.6401  160.0404 C   0  0  0  0  0  0  0  0  0  0  0  0
  152.4108  144.7413  160.8252 C   0  0  0  0  0  0  0  0  0  0  0  0
  152.5573  143.3979  160.4246 C   0  0  0  0  0  0  0  0  0  0  0  0
  151.9618  142.9075  159.2339 C   0  0  0  0  0  0  0  0  0  0  0  0
  150.2066  143.5329  156.6089 H   0  0  0  0  0  0  0  0  0  0  0  0
  154.6463  140.9083  158.9031 H   0  0  0  0  0  0  0  0  0  0  0  0
  153.8998  141.0753  160.4651 H   0  0  0  0  0  0  0  0  0  0  0  0
  155.7972  135.7210  161.0301 H   0  0  0  0  0  0  0  0  0  0  0  0
  156.5410  138.2347  163.3298 H   0  0  0  0  0  0  0  0  0  0  0  0
  154.9046  137.8944  165.0253 H   0  0  0  0  0  0  0  0  0  0  0  0
  153.7744  138.1387  163.6783 H   0  0  0  0  0  0  0  0  0  0  0  0
  153.6741  135.7981  165.0715 H   0  0  0  0  0  0  0  0  0  0  0  0
  153.6191  135.7395  163.3056 H   0  0  0  0  0  0  0  0  0  0  0  0
  156.0663  135.3945  165.0853 H   0  0  0  0  0  0  0  0  0  0  0  0
  155.5550  134.3535  163.7529 H   0  0  0  0  0  0  0  0  0  0  0  0
  152.4541  139.6059  156.5431 H   0  0  0  0  0  0  0  0  0  0  0  0
  151.7567  138.0832  154.7161 H   0  0  0  0  0  0  0  0  0  0  0  0
  149.6603  138.5275  153.4506 H   0  0  0  0  0  0  0  0  0  0  0  0
  148.2659  140.5099  154.0183 H   0  0  0  0  0  0  0  0  0  0  0  0
  148.9609  142.0389  155.8400 H   0  0  0  0  0  0  0  0  0  0  0  0
  150.5006  145.8772  158.2360 H   0  0  0  0  0  0  0  0  0  0  0  0
  151.5555  146.6691  160.3499 H   0  0  0  0  0  0  0  0  0  0  0  0
  152.8739  145.0825  161.7394 H   0  0  0  0  0  0  0  0  0  0  0  0
  153.1395  142.7391  161.0489 H   0  0  0  0  0  0  0  0  0  0  0  0
  1  2  2  0  0  0  0
  2  3  1  0  0  0  0
  2 18  1  0  0  0  0
  3  4  1  0  0  0  0
  3 34  1  0  0  0  0
  3 35  1  0  0  0  0
  4 16  1  0  0  0  0
  4  5  1  0  0  0  0
  5  6  2  0  0  0  0
  5  7  1  0  0  0  0
  7  8  1  0  0  0  0
  7  9  2  0  0  0  0
  9 10  1  0  0  0  0
  9 36  1  0  0  0  0
 10 11  1  0  0  0  0
 10 16  1  0  0  0  0
 11 15  1  0  0  0  0
 11 12  1  0  0  0  0
 11 37  1  0  0  0  0
 12 13  1  0  0  0  0
 12 38  1  0  0  0  0
 12 39  1  0  0  0  0
 13 14  1  0  0  0  0
 13 40  1  0  0  0  0
 13 41  1  0  0  0  0
 14 15  1  0  0  0  0
 14 42  1  0  0  0  0
 14 43  1  0  0  0  0
 16 17  2  0  0  0  0
 18 32  1  0  0  0  0
 18 19  2  0  0  0  0
 19 20  1  0  0  0  0
 19 26  1  0  0  0  0
 20 25  1  0  0  0  0
 20 21  2  0  0  0  0
 21 22  1  0  0  0  0
 21 44  1  0  0  0  0
 22 23  2  0  0  0  0
 22 45  1  0  0  0  0
 23 24  1  0  0  0  0
 23 46  1  0  0  0  0
 24 25  2  0  0  0  0
 24 47  1  0  0  0  0
 25 48  1  0  0  0  0
 26 33  1  0  0  0  0
 26 27  1  0  0  0  0
 27 32  1  0  0  0  0
 27 28  2  0  0  0  0
 28 29  1  0  0  0  0
 28 49  1  0  0  0  0
 29 30  2  0  0  0  0
 29 50  1  0  0  0  0
 30 31  1  0  0  0  0
 30 51  1  0  0  0  0
 31 32  2  0  0  0  0
 31 52  1  0  0  0  0
M  END
> <s_m_source_file>
AV-unprocessed.smi

> <i_m_source_file_index>
124

> <i_lp_mmshare_version>
43012

> <i_f3d_flags>
0

> <s_epik_input>
W2NIXTFbY0hdW2NIXVtjSF1bY0hdYzEtYyhbbkhdMiljKGMoYzIzKVtjSF1bY0hdW2NIXVtjSF0zKUMoPU8pW0NIMl1uNGMoPU8pYyhGKVtjSF1uKGM0PU8pW0NAQEhdNVtDSDJdW0NIMl1bQ0gyXU81

> <s_epik_cmdline>
J2VwaWtfcHl0aG9uJywgJy1waCcsICc3LjAnLCAnLXRuJywgJzgnLCAnLW1hJywgJzIwMCcsICctbWV0YWxfYmluZGluZycsICctaW1hZScsICc8aW5maWxlLm1hZT4nLCAnLW9tYWUnLCAnPG91dGZpbGUubWFlPic=

> <r_lp_tautomer_probability>
1

> <r_epik_Ionization_Penalty>
1.43207e-08

> <r_epik_Ionization_Penalty_Charging>
5.01743e-09

> <r_epik_Ionization_Penalty_Neutral>
9.30329e-09

> <r_epik_State_Penalty>
-0

> <r_epik_Charging_Adjusted_Penalty>
5.01743e-09

> <i_epik_Tot_Q>
0

> <i_epik_Tot_abs_Q>
0

> <r_epik_Metal_State_Penalty>
-0

> <b_epik_Metal_Only>
0

> <s_epik_Chemistry_Notes>
This compound contains an acetal/aminal-like group ( X-CH(R)-Y where X, Y are N, S, or O) that may be acid/base labile, releasing an aldehyde.

> <s_lp_Force_Field>
OPLS_2005

> <r_lp_Energy>
48.1056

> <b_lp_Chiralities_Consistent>
1

> <s_lp_Variant>
AV-unprocessed.smi:124-2

> <Gold.Version>
5.8.1

> <Gold.Id.Protein>
6NUR|6NUR_protein|mol2

> <Gold.PLP.Fitness>
67.2098

> <Gold.PLP.PLP>
-61.9924

> <Gold.PLP.part.hbond>
-2.0000

> <Gold.PLP.part.metal>
0.0000

> <Gold.PLP.part.buried>
-6.0434

> <Gold.PLP.part.nonpolar>
-53.0187

> <Gold.PLP.part.repulsive>
0.0136

> <Gold.PLP.ligand.clash>
0.0279

> <Gold.PLP.ligand.torsion>
0.9923

> <Gold.PLP.Chemscore.Hbond>
1.9440

> <Gold.PLP.Chemscore.CHOScore>
0.0000

> <Gold.PLP.Chemscore.Metal>
0.0000

> <Gold.Chemscore.Hbonds>
donor molecule, donor type, donor heavy atom, donor atom, acceptor molecule, acceptor atom, score
      L1  H    26    33       P1  8028  1.00
      P1  H  7997  8008       L1     6  0.93

> <Gold.PLP.Chemscore.Internal.Correction>
1.3978

> <Gold.Rescore>
     Score         DG    S(hbond)    S(metal)    S(lipo)     H(rot)  DE(clash)    DE(int)     intcor
     20.20     -26.96       1.90        0.00     163.48       1.55       0.10       6.66       ----

> <Gold.Chemscore.Fitness>
20.2025

> <Gold.Chemscore.DG>
-26.9647

> <Gold.Chemscore.ZeroCoef>
-5.4800

> <Gold.Chemscore.Hbond>
1.8967

> <Gold.Chemscore.Metal>
0.0000

> <Gold.Chemscore.Lipo>
163.4801

> <Gold.Chemscore.Internal_Hbond>
0.0000

> <Gold.Chemscore.DEClash>
0.1025

> <Gold.Chemscore.DEInternal>
6.6597

> <Gold.Chemscore.Rot>
1.5537

> <Gold.Chemscore.Internal.Correction>
   9.000000E+99

> <Gold.Chemscore.Hbonds>
donor molecule, donor type, donor heavy atom, donor atom, acceptor molecule, acceptor atom, score
      L1  H    26    33       P1  8028  0.95
      P1  H  7997  8008       L1     6  0.79

> <Gold.Chemscore.Hbond.Weighted>
-6.3349

> <Gold.Chemscore.Metal.Weighted>
-0.0000

> <Gold.Chemscore.Lipo.Weighted>
-19.1272

> <Gold.Chemscore.Internal_Hbond.Weighted>
0.0000

> <Gold.Chemscore.DEClash.Weighted>
0.1025

> <Gold.Chemscore.DEInternal.Weighted>
6.6597

> <Gold.Chemscore.Rot.Weighted>
3.9774

> <Gold.Chemscore.Internal.Correction.Weighted>
   9.000000E+99

> <Gold.Protein.RotatedTorsions>
[ 6907 6896 6895 6894 ] final -126.72 input  -60.11 | X-H torsion
[ 7974 7965 7964 7962 ] final   59.51 input  175.53 | X-H torsion
[ 8008 7997 7996 7995 ] final  -98.31 input   59.86 | X-H torsion
[ 10167 10162 10161 10158 ] final  -75.08 input  -65.29 | X-H torsion
[ 10718 10713 10712 10709 ] final  148.15 input   66.30 | X-H torsion
[ 10763 10752 10751 10750 ] final  -52.32 input  -60.55 | X-H torsion
[ 11005 11000 10999 10996 ] final   37.24 input  -57.11 | X-H torsion

> <Gold.Protein.ActiveResidues>
 VAL166  LYS551  ARG553  GLY616  TRP617  ASP618  TYR619  PRO620  LYS621  CYS622 
 ASP623  PHE694  ASN695  SER759  ASP760  ASP761  ALA762  ILE779  LEU786  VAL792 
 PHE793  MET794  SER795  GLU796  ALA797  LYS798  CYS799  TRP800  GLU811  SER814 

> <Gold.Protein.RotatedAtoms>
  150.8999  133.7132  159.2881 H   0  0  0  0  0  0  0  0  0  0  0  0  # atno 6907 bound_to 6896
  151.4655  135.1040  159.9746 H   0  0  0  0  0  0  0  0  0  0  0  0  # atno 6908 bound_to 6896
  152.4870  133.8351  159.7179 H   0  0  0  0  0  0  0  0  0  0  0  0  # atno 6909 bound_to 6896
  145.9063  139.3620  143.0562 H   0  0  0  0  0  0  0  0  0  0  0  0  # atno 7974 bound_to 7965
  154.7995  140.0456  157.1262 H   0  0  0  0  0  0  0  0  0  0  0  0  # atno 8008 bound_to 7997
  154.9496  140.3063  155.5062 H   0  0  0  0  0  0  0  0  0  0  0  0  # atno 8009 bound_to 7997
  156.2960  140.2290  156.4572 H   0  0  0  0  0  0  0  0  0  0  0  0  # atno 8010 bound_to 7997
  140.4973  143.2368  151.7810 H   0  0  0  0  0  0  0  0  0  0  0  0  # atno 10167 bound_to 10162
  157.3121  131.0889  151.1308 H   0  0  0  0  0  0  0  0  0  0  0  0  # atno 10718 bound_to 10713
  154.1409  135.6505  153.4942 H   0  0  0  0  0  0  0  0  0  0  0  0  # atno 10763 bound_to 10752
  153.0166  135.5315  154.6906 H   0  0  0  0  0  0  0  0  0  0  0  0  # atno 10764 bound_to 10752
  154.6167  135.2960  155.0343 H   0  0  0  0  0  0  0  0  0  0  0  0  # atno 10765 bound_to 10752
  140.2245  134.3601  155.7990 H   0  0  0  0  0  0  0  0  0  0  0  0  # atno 11005 bound_to 11000
  145.8728  140.9410  143.0642 LP  0  0  0  0  0  0  0  0  0  0  0  0  # atno 17320 bound_to 7965
  144.6739  140.0677  143.7474 LP  0  0  0  0  0  0  0  0  0  0  0  0  # atno 17321 bound_to 7965
  139.4864  144.4570  151.9586 LP  0  0  0  0  0  0  0  0  0  0  0  0  # atno 17342 bound_to 10162
  140.3658  144.2917  150.5927 LP  0  0  0  0  0  0  0  0  0  0  0  0  # atno 17343 bound_to 10162
  157.2625  130.6666  149.5981 LP  0  0  0  0  0  0  0  0  0  0  0  0  # atno 17370 bound_to 10713
  155.9678  130.4504  150.5695 LP  0  0  0  0  0  0  0  0  0  0  0  0  # atno 17371 bound_to 10713
  141.2221  133.7211  156.8630 LP  0  0  0  0  0  0  0  0  0  0  0  0  # atno 17394 bound_to 11000
  140.1815  134.9030  157.2954 LP  0  0  0  0  0  0  0  0  0  0  0  0  # atno 17395 bound_to 11000

$$$$
