AV-unprocessed.smi:2205|AV-procd|sdf|8941|dock4
  -GOLD-   2272012163D 1   1.00000     0.00000
 Structure written by MMmdl.
 36 37  0  0  0  0  0  0  0  0  1 V2000
  150.8719  135.1793  154.9257 C   0  0  0  0  0  0  0  0  0  0  0  0
  151.5650  136.3841  154.6534 O   0  0  0  0  0  0  0  0  0  0  0  0
  151.8042  137.1509  155.8222 C   0  0  0  0  0  0  0  0  0  0  0  0
  152.3383  138.5366  155.4249 C   0  0  0  0  0  0  0  0  0  0  0  0
  151.2561  139.5254  155.3114 N   0  0  0  0  0  0  0  0  0  0  0  0
  151.3916  140.7100  156.0620 C   0  0  0  0  0  0  0  0  0  0  0  0
  150.4676  141.6955  156.0353 C   0  0  0  0  0  0  0  0  0  0  0  0
  150.5382  142.9033  156.7469 N   0  0  0  0  0  0  0  0  0  0  0  0
  151.2504  143.2139  157.8484 C   0  0  0  0  0  0  0  0  0  0  0  0
  151.9935  142.4436  158.4565 O   0  0  0  0  0  0  0  0  0  0  0  0
  151.0796  144.6573  158.3467 C   0  0  0  0  0  0  0  0  0  0  0  0
  152.3979  145.3841  158.6607 C   0  0  0  0  0  0  0  0  0  0  0  0
  152.0978  145.2779  160.1591 C   0  0  0  0  0  0  0  0  0  0  0  0
  150.6867  144.7816  159.8285 C   0  0  0  0  0  0  0  0  0  0  0  0
  149.3132  141.4841  155.1885 C   0  0  0  0  0  0  0  0  0  0  0  0
  149.1773  140.3590  154.4606 C   0  0  0  0  0  0  0  0  0  0  0  0
  150.1867  139.2984  154.4923 C   0  0  0  0  0  0  0  0  0  0  0  0
  150.0771  138.2716  153.8216 O   0  0  0  0  0  0  0  0  0  0  0  0
  150.7284  134.6227  153.9999 H   0  0  0  0  0  0  0  0  0  0  0  0
  149.8887  135.3793  155.3536 H   0  0  0  0  0  0  0  0  0  0  0  0
  151.4328  134.5474  155.6155 H   0  0  0  0  0  0  0  0  0  0  0  0
  150.8916  137.2458  156.4128 H   0  0  0  0  0  0  0  0  0  0  0  0
  152.5404  136.6410  156.4451 H   0  0  0  0  0  0  0  0  0  0  0  0
  153.0738  138.8686  156.1595 H   0  0  0  0  0  0  0  0  0  0  0  0
  152.8936  138.4625  154.4888 H   0  0  0  0  0  0  0  0  0  0  0  0
  152.3026  140.7433  156.6375 H   0  0  0  0  0  0  0  0  0  0  0  0
  149.9657  143.6450  156.3713 H   0  0  0  0  0  0  0  0  0  0  0  0
  150.4286  145.2469  157.6993 H   0  0  0  0  0  0  0  0  0  0  0  0
  153.3038  144.8559  158.3597 H   0  0  0  0  0  0  0  0  0  0  0  0
  152.4051  146.4132  158.2994 H   0  0  0  0  0  0  0  0  0  0  0  0
  152.7054  144.5219  160.6579 H   0  0  0  0  0  0  0  0  0  0  0  0
  152.1237  146.2308  160.6884 H   0  0  0  0  0  0  0  0  0  0  0  0
  149.9193  145.5381  159.9957 H   0  0  0  0  0  0  0  0  0  0  0  0
  150.4273  143.8437  160.3221 H   0  0  0  0  0  0  0  0  0  0  0  0
  148.5435  142.2404  155.1341 H   0  0  0  0  0  0  0  0  0  0  0  0
  148.3036  140.2340  153.8379 H   0  0  0  0  0  0  0  0  0  0  0  0
  1  2  1  0  0  0  0
  1 19  1  0  0  0  0
  1 20  1  0  0  0  0
  1 21  1  0  0  0  0
  2  3  1  0  0  0  0
  3  4  1  0  0  0  0
  3 22  1  0  0  0  0
  3 23  1  0  0  0  0
  4  5  1  0  0  0  0
  4 24  1  0  0  0  0
  4 25  1  0  0  0  0
  5 17  1  0  0  0  0
  5  6  1  0  0  0  0
  6  7  2  0  0  0  0
  6 26  1  0  0  0  0
  7  8  1  0  0  0  0
  7 15  1  0  0  0  0
  8  9  1  0  0  0  0
  8 27  1  0  0  0  0
  9 10  2  0  0  0  0
  9 11  1  0  0  0  0
 11 14  1  0  0  0  0
 11 12  1  0  0  0  0
 11 28  1  0  0  0  0
 12 13  1  0  0  0  0
 12 29  1  0  0  0  0
 12 30  1  0  0  0  0
 13 14  1  0  0  0  0
 13 31  1  0  0  0  0
 13 32  1  0  0  0  0
 14 33  1  0  0  0  0
 14 34  1  0  0  0  0
 15 16  2  0  0  0  0
 15 35  1  0  0  0  0
 16 17  1  0  0  0  0
 16 36  1  0  0  0  0
 17 18  2  0  0  0  0
M  END
> <s_m_source_file>
AV-unprocessed.smi

> <i_m_source_file_index>
2205

> <i_lp_mmshare_version>
43012

> <i_f3d_flags>
0

> <s_epik_input>
W0NIM11PW0NIMl1bQ0gyXW4xW2NIXWMoW2NIXVtjSF1jMT1PKVtOSF1DKD1PKVtDSF0yW0NIMl1bQ0gyXVtDSDJdMg==

> <s_epik_cmdline>
J2VwaWtfcHl0aG9uJywgJy1waCcsICc3LjAnLCAnLXRuJywgJzgnLCAnLW1hJywgJzIwMCcsICctbWV0YWxfYmluZGluZycsICctaW1hZScsICc8aW5maWxlLm1hZT4nLCAnLW9tYWUnLCAnPG91dGZpbGUubWFlPic=

> <r_lp_tautomer_probability>
1

> <r_epik_Ionization_Penalty>
2.40107e-06

> <r_epik_Ionization_Penalty_Charging>
2.27812e-06

> <r_epik_Ionization_Penalty_Neutral>
1.2295e-07

> <r_epik_State_Penalty>
-0

> <r_epik_Charging_Adjusted_Penalty>
2.27812e-06

> <i_epik_Tot_Q>
0

> <i_epik_Tot_abs_Q>
0

> <r_epik_Metal_State_Penalty>
-0

> <b_epik_Metal_Only>
0

> <s_lp_Force_Field>
OPLS_2005

> <r_lp_Energy>
28.3384

> <b_lp_Chiralities_Consistent>
1

> <s_lp_Variant>
AV-unprocessed.smi:2205-1

> <Gold.Version>
5.8.1

> <Gold.Id.Protein>
6NUR|6NUR_protein|mol2

> <Gold.PLP.Fitness>
46.5958

> <Gold.PLP.PLP>
-41.3001

> <Gold.PLP.part.hbond>
-2.0000

> <Gold.PLP.part.metal>
0.0000

> <Gold.PLP.part.buried>
-5.6294

> <Gold.PLP.part.nonpolar>
-34.8619

> <Gold.PLP.part.repulsive>
1.1635

> <Gold.PLP.ligand.clash>
0.0000

> <Gold.PLP.ligand.torsion>
0.5497

> <Gold.PLP.Chemscore.Hbond>
2.0000

> <Gold.PLP.Chemscore.CHOScore>
0.0000

> <Gold.PLP.Chemscore.Metal>
0.0000

> <Gold.Chemscore.Hbonds>
donor molecule, donor type, donor heavy atom, donor atom, acceptor molecule, acceptor atom, score
      L1  H     8    27       P1  8028  1.00
      P1  H 10752 10764       L1     2  0.31

> <Gold.PLP.Chemscore.Internal.Correction>
0.3950

> <Gold.Rescore>
     Score         DG    S(hbond)    S(metal)    S(lipo)     H(rot)  DE(clash)    DE(int)     intcor
     16.59     -18.81       1.96        0.00      92.27       1.56       0.20       2.02       ----

> <Gold.Chemscore.Fitness>
16.5923

> <Gold.Chemscore.DG>
-18.8140

> <Gold.Chemscore.ZeroCoef>
-5.4800

> <Gold.Chemscore.Hbond>
1.9553

> <Gold.Chemscore.Metal>
0.0000

> <Gold.Chemscore.Lipo>
92.2670

> <Gold.Chemscore.Internal_Hbond>
0.0000

> <Gold.Chemscore.DEClash>
0.2014

> <Gold.Chemscore.DEInternal>
2.0203

> <Gold.Chemscore.Rot>
1.5594

> <Gold.Chemscore.Internal.Correction>
   9.000000E+99

> <Gold.Chemscore.Hbonds>
donor molecule, donor type, donor heavy atom, donor atom, acceptor molecule, acceptor atom, score
      L1  H     8    27       P1  8028  1.00

> <Gold.Chemscore.Hbond.Weighted>
-6.5308

> <Gold.Chemscore.Metal.Weighted>
-0.0000

> <Gold.Chemscore.Lipo.Weighted>
-10.7952

> <Gold.Chemscore.Internal_Hbond.Weighted>
0.0000

> <Gold.Chemscore.DEClash.Weighted>
0.2014

> <Gold.Chemscore.DEInternal.Weighted>
2.0203

> <Gold.Chemscore.Rot.Weighted>
3.9920

> <Gold.Chemscore.Internal.Correction.Weighted>
   9.000000E+99

> <Gold.Protein.RotatedTorsions>
[ 6907 6896 6895 6894 ] final  -15.03 input  -60.11 | X-H torsion
[ 7974 7965 7964 7962 ] final  -93.51 input  175.53 | X-H torsion
[ 8008 7997 7996 7995 ] final -166.80 input   59.86 | X-H torsion
[ 10167 10162 10161 10158 ] final  137.26 input  -65.29 | X-H torsion
[ 10718 10713 10712 10709 ] final  -60.37 input   66.30 | X-H torsion
[ 10763 10752 10751 10750 ] final  -46.47 input  -60.55 | X-H torsion
[ 11005 11000 10999 10996 ] final -174.30 input  -57.11 | X-H torsion

> <Gold.Protein.ActiveResidues>
 VAL166  LYS551  ARG553  GLY616  TRP617  ASP618  TYR619  PRO620  LYS621  CYS622 
 ASP623  PHE694  ASN695  SER759  ASP760  ASP761  ALA762  ILE779  LEU786  VAL792 
 PHE793  MET794  SER795  GLU796  ALA797  LYS798  CYS799  TRP800  GLU811  SER814 

> <Gold.Protein.RotatedAtoms>
  151.3303  135.0840  159.9335 H   0  0  0  0  0  0  0  0  0  0  0  0  # atno 6907 bound_to 6896
  152.5236  133.9550  159.7700 H   0  0  0  0  0  0  0  0  0  0  0  0  # atno 6908 bound_to 6896
  150.9887  133.6118  159.2741 H   0  0  0  0  0  0  0  0  0  0  0  0  # atno 6909 bound_to 6896
  145.3855  140.9522  143.2369 H   0  0  0  0  0  0  0  0  0  0  0  0  # atno 7974 bound_to 7965
  155.8689  140.0990  157.1564 H   0  0  0  0  0  0  0  0  0  0  0  0  # atno 8008 bound_to 7997
  154.3995  140.1351  156.4116 H   0  0  0  0  0  0  0  0  0  0  0  0  # atno 8009 bound_to 7997
  155.7773  140.3459  155.5281 H   0  0  0  0  0  0  0  0  0  0  0  0  # atno 8010 bound_to 7997
  139.5150  144.6420  151.5544 H   0  0  0  0  0  0  0  0  0  0  0  0  # atno 10167 bound_to 10162
  156.0995  130.4188  150.0844 H   0  0  0  0  0  0  0  0  0  0  0  0  # atno 10718 bound_to 10713
  154.0456  135.6638  153.4794 H   0  0  0  0  0  0  0  0  0  0  0  0  # atno 10763 bound_to 10752
  153.0484  135.5100  154.7800 H   0  0  0  0  0  0  0  0  0  0  0  0  # atno 10764 bound_to 10752
  154.6790  135.3042  154.9605 H   0  0  0  0  0  0  0  0  0  0  0  0  # atno 10765 bound_to 10752
  140.4760  134.6120  157.4901 H   0  0  0  0  0  0  0  0  0  0  0  0  # atno 11005 bound_to 11000
  144.8477  139.5371  143.6871 LP  0  0  0  0  0  0  0  0  0  0  0  0  # atno 17320 bound_to 7965
  146.2822  139.6907  142.9221 LP  0  0  0  0  0  0  0  0  0  0  0  0  # atno 17321 bound_to 7965
  140.6190  143.9295  150.6511 LP  0  0  0  0  0  0  0  0  0  0  0  0  # atno 17342 bound_to 10162
  140.2562  143.3557  152.1363 LP  0  0  0  0  0  0  0  0  0  0  0  0  # atno 17343 bound_to 10162
  156.8835  130.9564  151.3597 LP  0  0  0  0  0  0  0  0  0  0  0  0  # atno 17370 bound_to 10713
  157.6163  130.8621  149.9034 LP  0  0  0  0  0  0  0  0  0  0  0  0  # atno 17371 bound_to 10713
  139.9855  134.7068  155.9781 LP  0  0  0  0  0  0  0  0  0  0  0  0  # atno 17394 bound_to 11000
  141.1554  133.6543  156.4144 LP  0  0  0  0  0  0  0  0  0  0  0  0  # atno 17395 bound_to 11000

$$$$
