AV-unprocessed.smi:148|AV-procd|sdf|1222|dock3
  -GOLD-   2262018413D 1   1.00000     0.00000
 Structure written by MMmdl.
 63 67  0  0  0  0  0  0  0  0  1 V2000
  151.1053  140.8624  155.5431 O   0  0  0  0  0  0  0  0  0  0  0  0
  151.7122  140.7557  156.8141 C   0  0  0  0  0  0  0  0  0  0  0  0
  150.9163  141.5450  157.8823 C   0  0  2  0  0  0  0  0  0  0  0  0
  149.3796  141.4117  157.6980 C   0  0  0  0  0  0  0  0  0  0  0  0
  148.9304  140.0316  157.6713 N   0  0  0  0  0  0  0  0  0  0  0  0
  147.7839  139.5483  157.0804 C   0  0  0  0  0  0  0  0  0  0  0  0
  147.6129  138.2575  157.1704 N   0  0  0  0  0  0  0  0  0  0  0  0
  148.7203  137.8241  157.8870 C   0  0  0  0  0  0  0  0  0  0  0  0
  149.1834  136.5518  158.3102 C   0  0  0  0  0  0  0  0  0  0  0  0
  148.5096  135.4184  158.0204 N   0  0  0  0  0  0  0  0  0  0  0  0
  148.1861  135.3746  156.5929 C   0  0  0  0  0  0  0  0  0  0  0  0
  147.7184  133.9788  156.1701 C   0  0  0  0  0  0  0  0  0  0  0  0
  146.5337  133.5451  157.0345 C   0  0  0  0  0  0  0  0  0  0  0  0
  146.9165  133.6151  158.5186 C   0  0  0  0  0  0  0  0  0  0  0  0
  147.4252  135.0208  158.9432 C   0  0  1  0  0  0  0  0  0  0  0  0
  147.8378  135.0197  160.4582 C   0  0  1  0  0  0  0  0  0  0  0  0
  147.8949  136.3894  161.1726 C   0  0  0  0  0  0  0  0  0  0  0  0
  147.7222  136.1221  162.6749 C   0  0  0  0  0  0  0  0  0  0  0  0
  147.3545  134.6416  162.8054 C   0  0  0  0  0  0  0  0  0  0  0  0
  146.9250  134.2088  161.4031 C   0  0  1  0  0  0  0  0  0  0  0  0
  145.5614  134.5522  161.2272 O   0  0  0  0  0  0  0  0  0  0  0  0
  150.3443  136.4938  159.0151 N   0  0  0  0  0  0  0  0  0  0  0  0
  151.0183  137.6182  159.2770 C   0  0  0  0  0  0  0  0  0  0  0  0
  150.7186  138.8724  158.9293 N   0  0  0  0  0  0  0  0  0  0  0  0
  149.5508  138.9269  158.2260 C   0  0  0  0  0  0  0  0  0  0  0  0
  151.3919  143.0211  157.9945 C   0  0  1  0  0  0  0  0  0  0  0  0
  150.4098  143.9732  158.6847 C   0  0  0  0  0  0  0  0  0  0  0  0
  151.2631  144.7042  159.7184 C   0  0  0  0  0  0  0  0  0  0  0  0
  152.2843  143.7696  160.0221 O   0  0  0  0  0  0  0  0  0  0  0  0
  152.6953  143.2068  158.7866 C   0  0  0  0  0  0  0  0  0  0  0  0
  150.1809  141.0198  155.6622 H   0  0  0  0  0  0  0  0  0  0  0  0
  151.7992  139.7037  157.0860 H   0  0  0  0  0  0  0  0  0  0  0  0
  152.7265  141.1410  156.7117 H   0  0  0  0  0  0  0  0  0  0  0  0
  151.1495  141.0787  158.8409 H   0  0  0  0  0  0  0  0  0  0  0  0
  148.8444  141.9133  158.5039 H   0  0  0  0  0  0  0  0  0  0  0  0
  149.0525  141.8867  156.7739 H   0  0  0  0  0  0  0  0  0  0  0  0
  147.0811  140.1857  156.5636 H   0  0  0  0  0  0  0  0  0  0  0  0
  147.4046  136.1038  156.3737 H   0  0  0  0  0  0  0  0  0  0  0  0
  149.0594  135.6571  156.0023 H   0  0  0  0  0  0  0  0  0  0  0  0
  147.4374  133.9792  155.1167 H   0  0  0  0  0  0  0  0  0  0  0  0
  148.5371  133.2661  156.2773 H   0  0  0  0  0  0  0  0  0  0  0  0
  145.6770  134.1924  156.8428 H   0  0  0  0  0  0  0  0  0  0  0  0
  146.2275  132.5322  156.7718 H   0  0  0  0  0  0  0  0  0  0  0  0
  146.0434  133.3184  159.0975 H   0  0  0  0  0  0  0  0  0  0  0  0
  147.6882  132.8718  158.7247 H   0  0  0  0  0  0  0  0  0  0  0  0
  146.6045  135.7271  158.8098 H   0  0  0  0  0  0  0  0  0  0  0  0
  148.8309  134.5719  160.5289 H   0  0  0  0  0  0  0  0  0  0  0  0
  148.8273  136.9222  160.9987 H   0  0  0  0  0  0  0  0  0  0  0  0
  147.0829  137.0278  160.8222 H   0  0  0  0  0  0  0  0  0  0  0  0
  148.6357  136.3434  163.2281 H   0  0  0  0  0  0  0  0  0  0  0  0
  146.9328  136.7556  163.0808 H   0  0  0  0  0  0  0  0  0  0  0  0
  148.2418  134.0784  163.0976 H   0  0  0  0  0  0  0  0  0  0  0  0
  146.5922  134.4598  163.5642 H   0  0  0  0  0  0  0  0  0  0  0  0
  147.0436  133.1328  161.2728 H   0  0  0  0  0  0  0  0  0  0  0  0
  145.2479  134.1414  160.4360 H   0  0  0  0  0  0  0  0  0  0  0  0
  151.9324  137.4944  159.8385 H   0  0  0  0  0  0  0  0  0  0  0  0
  151.5831  143.3921  156.9869 H   0  0  0  0  0  0  0  0  0  0  0  0
  149.9429  144.6658  157.9839 H   0  0  0  0  0  0  0  0  0  0  0  0
  149.6061  143.4362  159.1858 H   0  0  0  0  0  0  0  0  0  0  0  0
  151.7072  145.6047  159.2912 H   0  0  0  0  0  0  0  0  0  0  0  0
  150.6980  144.9873  160.6067 H   0  0  0  0  0  0  0  0  0  0  0  0
  153.2600  142.2851  158.9285 H   0  0  0  0  0  0  0  0  0  0  0  0
  153.3508  143.9164  158.2791 H   0  0  0  0  0  0  0  0  0  0  0  0
  1  2  1  0  0  0  0
  1 31  1  0  0  0  0
  2  3  1  0  0  0  0
  2 32  1  0  0  0  0
  2 33  1  0  0  0  0
  3  4  1  0  0  0  0
  3 26  1  0  0  0  0
  3 34  1  0  0  0  0
  4  5  1  0  0  0  0
  4 35  1  0  0  0  0
  4 36  1  0  0  0  0
  5 25  1  0  0  0  0
  5  6  1  0  0  0  0
  6  7  2  0  0  0  0
  6 37  1  0  0  0  0
  7  8  1  0  0  0  0
  8 25  2  0  0  0  0
  8  9  1  0  0  0  0
  9 10  1  0  0  0  0
  9 22  2  0  0  0  0
 10 15  1  0  0  0  0
 10 11  1  0  0  0  0
 11 12  1  0  0  0  0
 11 38  1  0  0  0  0
 11 39  1  0  0  0  0
 12 13  1  0  0  0  0
 12 40  1  0  0  0  0
 12 41  1  0  0  0  0
 13 14  1  0  0  0  0
 13 42  1  0  0  0  0
 13 43  1  0  0  0  0
 14 15  1  0  0  0  0
 14 44  1  0  0  0  0
 14 45  1  0  0  0  0
 15 16  1  0  0  0  0
 15 46  1  0  0  0  0
 16 20  1  0  0  0  0
 16 17  1  0  0  0  0
 16 47  1  0  0  0  0
 17 18  1  0  0  0  0
 17 48  1  0  0  0  0
 17 49  1  0  0  0  0
 18 19  1  0  0  0  0
 18 50  1  0  0  0  0
 18 51  1  0  0  0  0
 19 20  1  0  0  0  0
 19 52  1  0  0  0  0
 19 53  1  0  0  0  0
 20 21  1  0  0  0  0
 20 54  1  0  0  0  0
 21 55  1  0  0  0  0
 22 23  1  0  0  0  0
 23 24  2  0  0  0  0
 23 56  1  0  0  0  0
 24 25  1  0  0  0  0
 26 30  1  0  0  0  0
 26 27  1  0  0  0  0
 26 57  1  0  0  0  0
 27 28  1  0  0  0  0
 27 58  1  0  0  0  0
 27 59  1  0  0  0  0
 28 29  1  0  0  0  0
 28 60  1  0  0  0  0
 28 61  1  0  0  0  0
 29 30  1  0  0  0  0
 30 62  1  0  0  0  0
 30 63  1  0  0  0  0
M  END
> <s_m_source_file>
AV-unprocessed.smi

> <i_m_source_file_index>
148

> <i_lp_mmshare_version>
43012

> <i_f3d_flags>
0

> <s_epik_input>
W0NIMl0xT1tDSDJdW0NIMl1bQ0BIXTFbQ0BIXShbQ0gyXVtPSF0pW0NIMl1uKFtjSF1uMiljKGMyMyluW2NIXW5jM040W0NIMl1bQ0gyXVtDSDJdW0NIMl1bQ0BIXTRbQ0BASF01W0NIMl1bQ0gyXVtDSDJdW0NASF01W09IXQ==

> <s_epik_cmdline>
J2VwaWtfcHl0aG9uJywgJy1waCcsICc3LjAnLCAnLXRuJywgJzgnLCAnLW1hJywgJzIwMCcsICctbWV0YWxfYmluZGluZycsICctaW1hZScsICc8aW5maWxlLm1hZT4nLCAnLW9tYWUnLCAnPG91dGZpbGUubWFlPic=

> <r_lp_tautomer_probability>
1

> <r_epik_Ionization_Penalty>
0.00556303

> <r_epik_Ionization_Penalty_Charging>
0

> <r_epik_Ionization_Penalty_Neutral>
0.00556303

> <r_epik_State_Penalty>
0.00401767

> <r_epik_Charging_Adjusted_Penalty>
0.00401767

> <i_epik_Tot_Q>
0

> <i_epik_Tot_abs_Q>
0

> <r_epik_Metal_State_Penalty>
-0

> <b_epik_Metal_Only>
0

> <s_lp_Force_Field>
OPLS_2005

> <r_lp_Energy>
71.6968

> <b_lp_Chiralities_Consistent>
1

> <s_lp_Variant>
AV-unprocessed.smi:148-21

> <Gold.Version>
5.8.1

> <Gold.Id.Protein>
6NUR|6NUR_protein|mol2

> <Gold.PLP.Fitness>
45.6168

> <Gold.PLP.PLP>
-43.5939

> <Gold.PLP.part.hbond>
-2.0551

> <Gold.PLP.part.metal>
0.0000

> <Gold.PLP.part.buried>
-7.2183

> <Gold.PLP.part.nonpolar>
-33.3964

> <Gold.PLP.part.repulsive>
0.0146

> <Gold.PLP.ligand.clash>
0.0000

> <Gold.PLP.ligand.torsion>
1.9111

> <Gold.PLP.Chemscore.Hbond>
1.7210

> <Gold.PLP.Chemscore.CHOScore>
0.0000

> <Gold.PLP.Chemscore.Metal>
0.0000

> <Gold.Chemscore.Hbonds>
donor molecule, donor type, donor heavy atom, donor atom, acceptor molecule, acceptor atom, score
      P1  H  6896  6907       L1    22  1.00
      P1  H  7989  7998       L1     1  0.61

> <Gold.PLP.Chemscore.Internal.Correction>
0.6821

> <Gold.Rescore>
     Score         DG    S(hbond)    S(metal)    S(lipo)     H(rot)  DE(clash)    DE(int)     intcor
     12.11     -15.56       1.88        0.00     105.27       3.32       0.12       3.33       ----

> <Gold.Chemscore.Fitness>
12.1119

> <Gold.Chemscore.DG>
-15.5610

> <Gold.Chemscore.ZeroCoef>
-5.4800

> <Gold.Chemscore.Hbond>
1.8754

> <Gold.Chemscore.Metal>
0.0000

> <Gold.Chemscore.Lipo>
105.2734

> <Gold.Chemscore.Internal_Hbond>
0.0000

> <Gold.Chemscore.DEClash>
0.1201

> <Gold.Chemscore.DEInternal>
3.3290

> <Gold.Chemscore.Rot>
3.3203

> <Gold.Chemscore.Internal.Correction>
   9.000000E+99

> <Gold.Chemscore.Hbonds>
donor molecule, donor type, donor heavy atom, donor atom, acceptor molecule, acceptor atom, score
      P1  H  6896  6907       L1    22  0.88
      P1  H  7989  7998       L1     1  0.49

> <Gold.Chemscore.Hbond.Weighted>
-6.2640

> <Gold.Chemscore.Metal.Weighted>
-0.0000

> <Gold.Chemscore.Lipo.Weighted>
-12.3170

> <Gold.Chemscore.Internal_Hbond.Weighted>
0.0000

> <Gold.Chemscore.DEClash.Weighted>
0.1201

> <Gold.Chemscore.DEInternal.Weighted>
3.3290

> <Gold.Chemscore.Rot.Weighted>
8.5000

> <Gold.Chemscore.Internal.Correction.Weighted>
   9.000000E+99

> <Gold.Protein.RotatedTorsions>
[ 6907 6896 6895 6894 ] final  -53.54 input  -60.11 | X-H torsion
[ 7974 7965 7964 7962 ] final   92.18 input  175.53 | X-H torsion
[ 8008 7997 7996 7995 ] final  -61.22 input   59.86 | X-H torsion
[ 10167 10162 10161 10158 ] final  -34.41 input  -65.29 | X-H torsion
[ 10718 10713 10712 10709 ] final  -81.27 input   66.30 | X-H torsion
[ 10763 10752 10751 10750 ] final   33.77 input  -60.55 | X-H torsion
[ 11005 11000 10999 10996 ] final   46.74 input  -57.11 | X-H torsion

> <Gold.Protein.ActiveResidues>
 VAL166  LYS551  ARG553  GLY616  TRP617  ASP618  TYR619  PRO620  LYS621  CYS622 
 ASP623  PHE694  ASN695  SER759  ASP760  ASP761  ALA762  ILE779  LEU786  VAL792 
 PHE793  MET794  SER795  GLU796  ALA797  LYS798  CYS799  TRP800  GLU811  SER814 

> <Gold.Protein.RotatedAtoms>
  150.8417  134.7712  159.6937 H   0  0  0  0  0  0  0  0  0  0  0  0  # atno 6907 bound_to 6896
  152.4503  134.5404  159.9847 H   0  0  0  0  0  0  0  0  0  0  0  0  # atno 6908 bound_to 6896
  151.5543  133.3375  159.2994 H   0  0  0  0  0  0  0  0  0  0  0  0  # atno 6909 bound_to 6896
  145.4957  139.2276  143.2805 H   0  0  0  0  0  0  0  0  0  0  0  0  # atno 7974 bound_to 7965
  154.4437  140.1022  156.6397 H   0  0  0  0  0  0  0  0  0  0  0  0  # atno 8008 bound_to 7997
  155.5515  140.3485  155.4451 H   0  0  0  0  0  0  0  0  0  0  0  0  # atno 8009 bound_to 7997
  156.0525  140.1307  157.0022 H   0  0  0  0  0  0  0  0  0  0  0  0  # atno 8010 bound_to 7997
  140.7186  143.3550  151.2078 H   0  0  0  0  0  0  0  0  0  0  0  0  # atno 10167 bound_to 10162
  156.0053  130.4599  150.3927 H   0  0  0  0  0  0  0  0  0  0  0  0  # atno 10718 bound_to 10713
  153.0196  135.6378  154.1563 H   0  0  0  0  0  0  0  0  0  0  0  0  # atno 10763 bound_to 10752
  154.1299  135.2841  155.3189 H   0  0  0  0  0  0  0  0  0  0  0  0  # atno 10764 bound_to 10752
  154.6202  135.5527  153.7629 H   0  0  0  0  0  0  0  0  0  0  0  0  # atno 10765 bound_to 10752
  140.1341  134.4667  155.8498 H   0  0  0  0  0  0  0  0  0  0  0  0  # atno 11005 bound_to 11000
  146.2257  140.5754  142.8997 LP  0  0  0  0  0  0  0  0  0  0  0  0  # atno 17320 bound_to 7965
  144.7808  140.5837  143.6607 LP  0  0  0  0  0  0  0  0  0  0  0  0  # atno 17321 bound_to 7965
  139.7089  143.9409  152.2939 LP  0  0  0  0  0  0  0  0  0  0  0  0  # atno 17342 bound_to 10162
  139.9127  144.6847  150.8545 LP  0  0  0  0  0  0  0  0  0  0  0  0  # atno 17343 bound_to 10162
  157.2001  131.0436  151.2655 LP  0  0  0  0  0  0  0  0  0  0  0  0  # atno 17370 bound_to 10713
  157.3984  130.7320  149.6748 LP  0  0  0  0  0  0  0  0  0  0  0  0  # atno 17371 bound_to 10713
  141.2175  133.6807  156.7125 LP  0  0  0  0  0  0  0  0  0  0  0  0  # atno 17394 bound_to 11000
  140.2804  134.8321  157.3928 LP  0  0  0  0  0  0  0  0  0  0  0  0  # atno 17395 bound_to 11000

$$$$
