AV-unprocessed.smi:1458|AV-procd|sdf|5923|dock3
  -GOLD-   22720 6 03D 1   1.00000     0.00000
 Structure written by MMmdl.
 46 47  0  0  0  0  0  0  0  0  1 V2000
  145.1939  135.3264  151.1510 C   0  0  0  0  0  0  0  0  0  0  0  0
  145.6100  136.5602  151.7098 O   0  0  0  0  0  0  0  0  0  0  0  0
  146.2405  137.4023  150.7586 C   0  0  0  0  0  0  0  0  0  0  0  0
  146.4723  138.7869  151.3744 C   0  0  0  0  0  0  0  0  0  0  0  0
  147.5949  138.7613  152.3027 N   0  0  0  0  0  0  0  0  0  0  0  0
  147.8887  139.7478  153.1594 C   0  0  0  0  0  0  0  0  0  0  0  0
  147.2342  140.7867  153.2457 O   0  0  0  0  0  0  0  0  0  0  0  0
  148.9862  139.4585  153.8793 N   0  0  0  0  0  0  0  0  0  0  0  0
  149.5929  140.2299  154.9073 C   0  0  0  0  0  0  0  0  0  0  0  0
  150.9014  139.8956  155.3059 C   0  0  0  0  0  0  0  0  0  0  0  0
  151.5173  140.6323  156.3354 C   0  0  0  0  0  0  0  0  0  0  0  0
  150.8026  141.6861  156.9519 C   0  0  0  0  0  0  0  0  0  0  0  0
  151.4019  142.4385  157.9845 N   0  0  0  0  0  0  0  0  0  0  0  0
  152.2785  141.6909  158.8796 C   0  0  0  0  0  0  0  0  0  0  0  0
  152.5716  142.5096  160.1500 C   0  0  1  0  0  0  0  0  0  0  0  0
  153.5976  141.8159  161.0522 C   0  0  0  0  0  0  0  0  0  0  0  0
  153.0952  143.7870  159.7883 O   0  0  0  0  0  0  0  0  0  0  0  0
  152.2491  144.5614  158.9352 C   0  0  2  0  0  0  0  0  0  0  0  0
  151.0060  145.0904  159.6732 C   0  0  0  0  0  0  0  0  0  0  0  0
  151.9131  143.7678  157.6575 C   0  0  0  0  0  0  0  0  0  0  0  0
  149.5351  141.9935  156.5829 N   0  0  0  0  0  0  0  0  0  0  0  0
  148.9493  141.2875  155.5926 C   0  0  0  0  0  0  0  0  0  0  0  0
  144.7145  134.7194  151.9187 H   0  0  0  0  0  0  0  0  0  0  0  0
  146.0426  134.7644  150.7592 H   0  0  0  0  0  0  0  0  0  0  0  0
  144.4744  135.4803  150.3457 H   0  0  0  0  0  0  0  0  0  0  0  0
  147.1983  136.9699  150.4659 H   0  0  0  0  0  0  0  0  0  0  0  0
  145.6312  137.4847  149.8570 H   0  0  0  0  0  0  0  0  0  0  0  0
  146.6573  139.5242  150.5918 H   0  0  0  0  0  0  0  0  0  0  0  0
  145.5730  139.1017  151.9063 H   0  0  0  0  0  0  0  0  0  0  0  0
  148.1869  137.9438  152.2835 H   0  0  0  0  0  0  0  0  0  0  0  0
  149.4703  138.6082  153.6311 H   0  0  0  0  0  0  0  0  0  0  0  0
  151.4320  139.0841  154.8293 H   0  0  0  0  0  0  0  0  0  0  0  0
  152.5178  140.3740  156.6491 H   0  0  0  0  0  0  0  0  0  0  0  0
  151.8424  140.7340  159.1632 H   0  0  0  0  0  0  0  0  0  0  0  0
  153.2074  141.4700  158.3520 H   0  0  0  0  0  0  0  0  0  0  0  0
  151.6526  142.6374  160.7226 H   0  0  0  0  0  0  0  0  0  0  0  0
  153.2390  140.8384  161.3755 H   0  0  0  0  0  0  0  0  0  0  0  0
  153.7951  142.4091  161.9452 H   0  0  0  0  0  0  0  0  0  0  0  0
  154.5450  141.6704  160.5327 H   0  0  0  0  0  0  0  0  0  0  0  0
  152.8328  145.4333  158.6390 H   0  0  0  0  0  0  0  0  0  0  0  0
  150.4485  145.7828  159.0420 H   0  0  0  0  0  0  0  0  0  0  0  0
  151.2904  145.6264  160.5788 H   0  0  0  0  0  0  0  0  0  0  0  0
  150.3214  144.2916  159.9574 H   0  0  0  0  0  0  0  0  0  0  0  0
  152.8118  143.6572  157.0489 H   0  0  0  0  0  0  0  0  0  0  0  0
  151.1873  144.3223  157.0613 H   0  0  0  0  0  0  0  0  0  0  0  0
  147.9329  141.5757  155.3746 H   0  0  0  0  0  0  0  0  0  0  0  0
  1  2  1  0  0  0  0
  1 23  1  0  0  0  0
  1 24  1  0  0  0  0
  1 25  1  0  0  0  0
  2  3  1  0  0  0  0
  3  4  1  0  0  0  0
  3 26  1  0  0  0  0
  3 27  1  0  0  0  0
  4  5  1  0  0  0  0
  4 28  1  0  0  0  0
  4 29  1  0  0  0  0
  5  6  1  0  0  0  0
  5 30  1  0  0  0  0
  6  7  2  0  0  0  0
  6  8  1  0  0  0  0
  8  9  1  0  0  0  0
  8 31  1  0  0  0  0
  9 22  1  0  0  0  0
  9 10  2  0  0  0  0
 10 11  1  0  0  0  0
 10 32  1  0  0  0  0
 11 12  2  0  0  0  0
 11 33  1  0  0  0  0
 12 13  1  0  0  0  0
 12 21  1  0  0  0  0
 13 20  1  0  0  0  0
 13 14  1  0  0  0  0
 14 15  1  0  0  0  0
 14 34  1  0  0  0  0
 14 35  1  0  0  0  0
 15 16  1  0  0  0  0
 15 17  1  0  0  0  0
 15 36  1  0  0  0  0
 16 37  1  0  0  0  0
 16 38  1  0  0  0  0
 16 39  1  0  0  0  0
 17 18  1  0  0  0  0
 18 19  1  0  0  0  0
 18 20  1  0  0  0  0
 18 40  1  0  0  0  0
 19 41  1  0  0  0  0
 19 42  1  0  0  0  0
 19 43  1  0  0  0  0
 20 44  1  0  0  0  0
 20 45  1  0  0  0  0
 21 22  2  0  0  0  0
 22 46  1  0  0  0  0
M  END
> <s_m_source_file>
AV-unprocessed.smi

> <i_m_source_file_index>
1458

> <i_lp_mmshare_version>
43012

> <i_f3d_flags>
0

> <s_epik_input>
W0NIM11PW0NIMl1bQ0gyXVtOSF1DKD1PKVtOSF1jMVtjSF1bY0hdYyhuW2NIXTEpTjJbQ0gyXVtDQEBIXShbQ0gzXSlPW0NAQEhdKFtDSDNdKVtDSDJdMg==

> <s_epik_cmdline>
J2VwaWtfcHl0aG9uJywgJy1waCcsICc3LjAnLCAnLXRuJywgJzgnLCAnLW1hJywgJzIwMCcsICctbWV0YWxfYmluZGluZycsICctaW1hZScsICc8aW5maWxlLm1hZT4nLCAnLW9tYWUnLCAnPG91dGZpbGUubWFlPic=

> <r_lp_tautomer_probability>
1

> <r_epik_Ionization_Penalty>
0.00266072

> <r_epik_Ionization_Penalty_Charging>
0

> <r_epik_Ionization_Penalty_Neutral>
0.00266072

> <r_epik_State_Penalty>
0.00182795

> <r_epik_Charging_Adjusted_Penalty>
0.00182795

> <i_epik_Tot_Q>
0

> <i_epik_Tot_abs_Q>
0

> <r_epik_Metal_State_Penalty>
-0

> <b_epik_Metal_Only>
0

> <s_lp_Force_Field>
OPLS_2005

> <r_lp_Energy>
23.589

> <b_lp_Chiralities_Consistent>
1

> <s_lp_Variant>
AV-unprocessed.smi:1458-3

> <Gold.Version>
5.8.1

> <Gold.Id.Protein>
6NUR|6NUR_protein|mol2

> <Gold.PLP.Fitness>
46.8130

> <Gold.PLP.PLP>
-45.0249

> <Gold.PLP.part.hbond>
-3.0000

> <Gold.PLP.part.metal>
0.0000

> <Gold.PLP.part.buried>
3.2803

> <Gold.PLP.part.nonpolar>
-46.4536

> <Gold.PLP.part.repulsive>
1.7067

> <Gold.PLP.ligand.clash>
0.0000

> <Gold.PLP.ligand.torsion>
0.7803

> <Gold.PLP.Chemscore.Hbond>
1.0000

> <Gold.PLP.Chemscore.CHOScore>
0.0000

> <Gold.PLP.Chemscore.Metal>
0.0000

> <Gold.Chemscore.Hbonds>
donor molecule, donor type, donor heavy atom, donor atom, acceptor molecule, acceptor atom, score
      L1  H     5    30       P1  7948  1.00

> <Gold.PLP.Chemscore.Internal.Correction>
0.3487

> <Gold.Rescore>
     Score         DG    S(hbond)    S(metal)    S(lipo)     H(rot)  DE(clash)    DE(int)     intcor
     14.70     -17.43       0.99        0.00     109.49       1.62       0.84       1.90       ----

> <Gold.Chemscore.Fitness>
14.6969

> <Gold.Chemscore.DG>
-17.4322

> <Gold.Chemscore.ZeroCoef>
-5.4800

> <Gold.Chemscore.Hbond>
0.9850

> <Gold.Chemscore.Metal>
0.0000

> <Gold.Chemscore.Lipo>
109.4935

> <Gold.Chemscore.Internal_Hbond>
0.0000

> <Gold.Chemscore.DEClash>
0.8365

> <Gold.Chemscore.DEInternal>
1.8988

> <Gold.Chemscore.Rot>
1.6206

> <Gold.Chemscore.Internal.Correction>
   9.000000E+99

> <Gold.Chemscore.Hbonds>
donor molecule, donor type, donor heavy atom, donor atom, acceptor molecule, acceptor atom, score
      L1  H     5    30       P1  7948  1.00

> <Gold.Chemscore.Hbond.Weighted>
-3.2901

> <Gold.Chemscore.Metal.Weighted>
-0.0000

> <Gold.Chemscore.Lipo.Weighted>
-12.8107

> <Gold.Chemscore.Internal_Hbond.Weighted>
0.0000

> <Gold.Chemscore.DEClash.Weighted>
0.8365

> <Gold.Chemscore.DEInternal.Weighted>
1.8988

> <Gold.Chemscore.Rot.Weighted>
4.1486

> <Gold.Chemscore.Internal.Correction.Weighted>
   9.000000E+99

> <Gold.Protein.RotatedTorsions>
[ 6907 6896 6895 6894 ] final  138.47 input  -60.11 | X-H torsion
[ 7974 7965 7964 7962 ] final   84.89 input  175.53 | X-H torsion
[ 8008 7997 7996 7995 ] final -129.06 input   59.86 | X-H torsion
[ 10167 10162 10161 10158 ] final   67.94 input  -65.29 | X-H torsion
[ 10718 10713 10712 10709 ] final  163.69 input   66.30 | X-H torsion
[ 10763 10752 10751 10750 ] final   65.28 input  -60.55 | X-H torsion
[ 11005 11000 10999 10996 ] final  133.94 input  -57.11 | X-H torsion

> <Gold.Protein.ActiveResidues>
 VAL166  LYS551  ARG553  GLY616  TRP617  ASP618  TYR619  PRO620  LYS621  CYS622 
 ASP623  PHE694  ASN695  SER759  ASP760  ASP761  ALA762  ILE779  LEU786  VAL792 
 PHE793  MET794  SER795  GLU796  ALA797  LYS798  CYS799  TRP800  GLU811  SER814 

> <Gold.Protein.RotatedAtoms>
  152.2662  133.5341  159.5411 H   0  0  0  0  0  0  0  0  0  0  0  0  # atno 6907 bound_to 6896
  150.7143  134.0761  159.3890 H   0  0  0  0  0  0  0  0  0  0  0  0  # atno 6908 bound_to 6896
  151.8677  135.0501  160.0527 H   0  0  0  0  0  0  0  0  0  0  0  0  # atno 6909 bound_to 6896
  145.5928  139.2340  143.2290 H   0  0  0  0  0  0  0  0  0  0  0  0  # atno 7974 bound_to 7965
  155.2729  140.0441  157.3008 H   0  0  0  0  0  0  0  0  0  0  0  0  # atno 8008 bound_to 7997
  154.5642  140.2355  155.8257 H   0  0  0  0  0  0  0  0  0  0  0  0  # atno 8009 bound_to 7997
  156.2072  140.3009  155.9660 H   0  0  0  0  0  0  0  0  0  0  0  0  # atno 8010 bound_to 7997
  140.0841  144.5045  150.7142 H   0  0  0  0  0  0  0  0  0  0  0  0  # atno 10167 bound_to 10162
  157.1050  131.0453  151.2482 H   0  0  0  0  0  0  0  0  0  0  0  0  # atno 10718 bound_to 10713
  153.0090  135.5362  154.6642 H   0  0  0  0  0  0  0  0  0  0  0  0  # atno 10763 bound_to 10752
  154.5843  135.2853  155.0703 H   0  0  0  0  0  0  0  0  0  0  0  0  # atno 10764 bound_to 10752
  154.1820  135.6514  153.5089 H   0  0  0  0  0  0  0  0  0  0  0  0  # atno 10765 bound_to 10752
  139.9883  134.9524  156.9797 H   0  0  0  0  0  0  0  0  0  0  0  0  # atno 11005 bound_to 11000
  146.1634  140.6754  142.9267 LP  0  0  0  0  0  0  0  0  0  0  0  0  # atno 17320 bound_to 7965
  144.7344  140.4765  143.6914 LP  0  0  0  0  0  0  0  0  0  0  0  0  # atno 17321 bound_to 7965
  140.7062  143.2470  151.4718 LP  0  0  0  0  0  0  0  0  0  0  0  0  # atno 17342 bound_to 10162
  139.5762  144.1813  152.1906 LP  0  0  0  0  0  0  0  0  0  0  0  0  # atno 17343 bound_to 10162
  157.4608  130.7652  149.7234 LP  0  0  0  0  0  0  0  0  0  0  0  0  # atno 17370 bound_to 10713
  155.9864  130.3975  150.3213 LP  0  0  0  0  0  0  0  0  0  0  0  0  # atno 17371 bound_to 10713
  140.4958  134.1147  155.7241 LP  0  0  0  0  0  0  0  0  0  0  0  0  # atno 17394 bound_to 11000
  141.1544  133.8909  157.2015 LP  0  0  0  0  0  0  0  0  0  0  0  0  # atno 17395 bound_to 11000

$$$$
