AV-unprocessed.smi:3332|AV-procd|sdf|12829|dock2
  -GOLD-   2272019203D 1   1.00000     0.00000
 Structure written by MMmdl.
 41 42  0  0  0  0  0  0  0  0  1 V2000
  145.6342  137.9784  155.2063 C   0  0  0  0  0  0  0  0  0  0  0  0
  146.1334  138.8111  154.0206 C   0  0  0  0  0  0  0  0  0  0  0  0
  147.4413  139.4861  154.3121 C   0  0  0  0  0  0  0  0  0  0  0  0
  148.5631  138.7070  154.6116 N   0  0  0  0  0  0  0  0  0  0  0  0
  149.6519  139.4411  154.8487 C   0  0  0  0  0  0  0  0  0  0  0  0
  150.9891  138.8577  155.1590 C   0  0  0  0  0  0  0  0  0  0  0  0
  152.0188  139.9300  155.5474 C   0  0  0  0  0  0  0  0  0  0  0  0
  151.5636  140.7226  156.6834 N   0  0  0  0  0  0  0  0  0  0  0  0
  152.2155  140.8396  157.8503 C   0  0  0  0  0  0  0  0  0  0  0  0
  153.2873  140.2807  158.0838 O   0  0  0  0  0  0  0  0  0  0  0  0
  151.5606  141.7289  158.9135 C   0  0  0  0  0  0  0  0  0  0  0  0
  152.3833  142.9884  159.2639 C   0  0  2  0  0  0  0  0  0  0  0  0
  152.0451  143.5769  160.6125 C   0  0  0  0  0  0  0  0  0  0  0  0
  151.7373  144.8702  160.5467 C   0  0  0  0  0  0  0  0  0  0  0  0
  151.8062  145.4080  159.1447 C   0  0  0  0  0  0  0  0  0  0  0  0
  152.1402  144.1673  158.2866 C   0  0  0  0  0  0  0  0  0  0  0  0
  149.3700  141.1683  154.6856 S   0  0  0  0  0  0  0  0  0  0  0  0
  147.6995  140.8373  154.3053 C   0  0  0  0  0  0  0  0  0  0  0  0
  146.7470  141.9499  154.0171 C   0  0  0  0  0  0  0  0  0  0  0  0
  144.6850  137.4966  154.9711 H   0  0  0  0  0  0  0  0  0  0  0  0
  145.4824  138.6006  156.0888 H   0  0  0  0  0  0  0  0  0  0  0  0
  146.3496  137.1974  155.4656 H   0  0  0  0  0  0  0  0  0  0  0  0
  146.2249  138.1690  153.1442 H   0  0  0  0  0  0  0  0  0  0  0  0
  145.3790  139.5556  153.7635 H   0  0  0  0  0  0  0  0  0  0  0  0
  150.8683  138.1363  155.9679 H   0  0  0  0  0  0  0  0  0  0  0  0
  151.3381  138.2975  154.2905 H   0  0  0  0  0  0  0  0  0  0  0  0
  152.9627  139.4570  155.8205 H   0  0  0  0  0  0  0  0  0  0  0  0
  152.2325  140.5806  154.6973 H   0  0  0  0  0  0  0  0  0  0  0  0
  150.6899  141.2172  156.5749 H   0  0  0  0  0  0  0  0  0  0  0  0
  150.5789  142.0256  158.5423 H   0  0  0  0  0  0  0  0  0  0  0  0
  151.3826  141.1445  159.8179 H   0  0  0  0  0  0  0  0  0  0  0  0
  153.4468  142.7441  159.2716 H   0  0  0  0  0  0  0  0  0  0  0  0
  152.0728  142.9939  161.5214 H   0  0  0  0  0  0  0  0  0  0  0  0
  151.4758  145.4920  161.3902 H   0  0  0  0  0  0  0  0  0  0  0  0
  150.8543  145.8555  158.8575 H   0  0  0  0  0  0  0  0  0  0  0  0
  152.5848  146.1681  159.0764 H   0  0  0  0  0  0  0  0  0  0  0  0
  153.0145  144.3454  157.6595 H   0  0  0  0  0  0  0  0  0  0  0  0
  151.3080  143.9525  157.6151 H   0  0  0  0  0  0  0  0  0  0  0  0
  146.2249  141.7782  153.0757 H   0  0  0  0  0  0  0  0  0  0  0  0
  147.2658  142.9058  153.9423 H   0  0  0  0  0  0  0  0  0  0  0  0
  146.0012  142.0328  154.8075 H   0  0  0  0  0  0  0  0  0  0  0  0
  1  2  1  0  0  0  0
  1 20  1  0  0  0  0
  1 21  1  0  0  0  0
  1 22  1  0  0  0  0
  2  3  1  0  0  0  0
  2 23  1  0  0  0  0
  2 24  1  0  0  0  0
  3 18  2  0  0  0  0
  3  4  1  0  0  0  0
  4  5  2  0  0  0  0
  5  6  1  0  0  0  0
  5 17  1  0  0  0  0
  6  7  1  0  0  0  0
  6 25  1  0  0  0  0
  6 26  1  0  0  0  0
  7  8  1  0  0  0  0
  7 27  1  0  0  0  0
  7 28  1  0  0  0  0
  8  9  1  0  0  0  0
  8 29  1  0  0  0  0
  9 10  2  0  0  0  0
  9 11  1  0  0  0  0
 11 12  1  0  0  0  0
 11 30  1  0  0  0  0
 11 31  1  0  0  0  0
 12 16  1  0  0  0  0
 12 13  1  0  0  0  0
 12 32  1  0  0  0  0
 13 14  2  0  0  0  0
 13 33  1  0  0  0  0
 14 15  1  0  0  0  0
 14 34  1  0  0  0  0
 15 16  1  0  0  0  0
 15 35  1  0  0  0  0
 15 36  1  0  0  0  0
 16 37  1  0  0  0  0
 16 38  1  0  0  0  0
 17 18  1  0  0  0  0
 18 19  1  0  0  0  0
 19 39  1  0  0  0  0
 19 40  1  0  0  0  0
 19 41  1  0  0  0  0
M  END
> <s_m_source_file>
AV-unprocessed.smi

> <i_m_source_file_index>
3332

> <i_lp_mmshare_version>
43012

> <i_f3d_flags>
0

> <s_epik_input>
W0NIM11bQ0gyXWMxbmMoc2MxW0NIM10pW0NIMl1bQ0gyXVtOSF1DKD1PKVtDSDJdW0NAQEhdMltDSF09W0NIXVtDSDJdW0NIMl0y

> <s_epik_cmdline>
J2VwaWtfcHl0aG9uJywgJy1waCcsICc3LjAnLCAnLXRuJywgJzgnLCAnLW1hJywgJzIwMCcsICctbWV0YWxfYmluZGluZycsICctaW1hZScsICc8aW5maWxlLm1hZT4nLCAnLW9tYWUnLCAnPG91dGZpbGUubWFlPic=

> <r_epik_Ionization_Penalty>
0.00221844

> <r_epik_Ionization_Penalty_Charging>
0

> <r_epik_Ionization_Penalty_Neutral>
0.00221844

> <r_epik_State_Penalty>
0.00152607

> <r_epik_Charging_Adjusted_Penalty>
0.00152607

> <i_epik_Tot_Q>
0

> <i_epik_Tot_abs_Q>
0

> <r_epik_Metal_State_Penalty>
-0

> <b_epik_Metal_Only>
0

> <s_lp_Force_Field>
OPLS_2005

> <r_lp_Energy>
6.78745

> <b_lp_Chiralities_Consistent>
1

> <s_lp_Variant>
AV-unprocessed.smi:3332-1

> <Gold.Version>
5.8.1

> <Gold.Id.Protein>
6NUR|6NUR_protein|mol2

> <Gold.PLP.Fitness>
44.8403

> <Gold.PLP.PLP>
-42.4334

> <Gold.PLP.part.hbond>
-1.0000

> <Gold.PLP.part.metal>
0.0000

> <Gold.PLP.part.buried>
-2.5415

> <Gold.PLP.part.nonpolar>
-39.0047

> <Gold.PLP.part.repulsive>
0.2616

> <Gold.PLP.ligand.clash>
0.0000

> <Gold.PLP.ligand.torsion>
0.3269

> <Gold.PLP.Chemscore.Hbond>
1.0000

> <Gold.PLP.Chemscore.CHOScore>
0.0000

> <Gold.PLP.Chemscore.Metal>
0.0000

> <Gold.Chemscore.Hbonds>
donor molecule, donor type, donor heavy atom, donor atom, acceptor molecule, acceptor atom, score
      P1  H  7997  8010       L1    10  0.90

> <Gold.PLP.Chemscore.Internal.Correction>
0.0607

> <Gold.Rescore>
     Score         DG    S(hbond)    S(metal)    S(lipo)     H(rot)  DE(clash)    DE(int)     intcor
     17.45     -19.03       0.98        0.00     120.88       1.51       0.05       1.53       ----

> <Gold.Chemscore.Fitness>
17.4528

> <Gold.Chemscore.DG>
-19.0291

> <Gold.Chemscore.ZeroCoef>
-5.4800

> <Gold.Chemscore.Hbond>
0.9797

> <Gold.Chemscore.Metal>
0.0000

> <Gold.Chemscore.Lipo>
120.8817

> <Gold.Chemscore.Internal_Hbond>
0.0000

> <Gold.Chemscore.DEClash>
0.0463

> <Gold.Chemscore.DEInternal>
1.5299

> <Gold.Chemscore.Rot>
1.5103

> <Gold.Chemscore.Internal.Correction>
   9.000000E+99

> <Gold.Chemscore.Hbonds>
donor molecule, donor type, donor heavy atom, donor atom, acceptor molecule, acceptor atom, score
      P1  H  7997  8010       L1    10  0.88

> <Gold.Chemscore.Hbond.Weighted>
-3.2723

> <Gold.Chemscore.Metal.Weighted>
-0.0000

> <Gold.Chemscore.Lipo.Weighted>
-14.1432

> <Gold.Chemscore.Internal_Hbond.Weighted>
0.0000

> <Gold.Chemscore.DEClash.Weighted>
0.0463

> <Gold.Chemscore.DEInternal.Weighted>
1.5299

> <Gold.Chemscore.Rot.Weighted>
3.8664

> <Gold.Chemscore.Internal.Correction.Weighted>
   9.000000E+99

> <Gold.Protein.RotatedTorsions>
[ 6907 6896 6895 6894 ] final   88.30 input  -60.11 | X-H torsion
[ 7974 7965 7964 7962 ] final  -60.51 input  175.53 | X-H torsion
[ 8008 7997 7996 7995 ] final   37.81 input   59.86 | X-H torsion
[ 10167 10162 10161 10158 ] final  -27.98 input  -65.29 | X-H torsion
[ 10718 10713 10712 10709 ] final -134.40 input   66.30 | X-H torsion
[ 10763 10752 10751 10750 ] final -176.90 input  -60.55 | X-H torsion
[ 11005 11000 10999 10996 ] final   21.83 input  -57.11 | X-H torsion

> <Gold.Protein.ActiveResidues>
 VAL166  LYS551  ARG553  GLY616  TRP617  ASP618  TYR619  PRO620  LYS621  CYS622 
 ASP623  PHE694  ASN695  SER759  ASP760  ASP761  ALA762  ILE779  LEU786  VAL792 
 PHE793  MET794  SER795  GLU796  ALA797  LYS798  CYS799  TRP800  GLU811  SER814 

> <Gold.Protein.RotatedAtoms>
  152.5423  134.2143  159.8761 H   0  0  0  0  0  0  0  0  0  0  0  0  # atno 6907 bound_to 6896
  151.2123  133.4542  159.2606 H   0  0  0  0  0  0  0  0  0  0  0  0  # atno 6908 bound_to 6896
  151.0884  134.9914  159.8446 H   0  0  0  0  0  0  0  0  0  0  0  0  # atno 6909 bound_to 6896
  145.8146  140.8578  143.0164 H   0  0  0  0  0  0  0  0  0  0  0  0  # atno 7974 bound_to 7965
  155.2099  140.3322  155.4330 H   0  0  0  0  0  0  0  0  0  0  0  0  # atno 8008 bound_to 7997
  156.2374  140.1879  156.7130 H   0  0  0  0  0  0  0  0  0  0  0  0  # atno 8009 bound_to 7997
  154.6085  140.0612  156.9448 H   0  0  0  0  0  0  0  0  0  0  0  0  # atno 8010 bound_to 7997
  140.7273  143.4048  151.1204 H   0  0  0  0  0  0  0  0  0  0  0  0  # atno 10167 bound_to 10162
  156.2551  130.7176  151.1089 H   0  0  0  0  0  0  0  0  0  0  0  0  # atno 10718 bound_to 10713
  154.5667  135.2824  155.0867 H   0  0  0  0  0  0  0  0  0  0  0  0  # atno 10763 bound_to 10752
  154.2255  135.6383  153.5162 H   0  0  0  0  0  0  0  0  0  0  0  0  # atno 10764 bound_to 10752
  153.0045  135.5524  154.6278 H   0  0  0  0  0  0  0  0  0  0  0  0  # atno 10765 bound_to 10752
  140.3873  134.1857  155.7663 H   0  0  0  0  0  0  0  0  0  0  0  0  # atno 11005 bound_to 11000
  144.6754  140.0445  143.7480 LP  0  0  0  0  0  0  0  0  0  0  0  0  # atno 17320 bound_to 7965
  145.9741  139.2891  143.1081 LP  0  0  0  0  0  0  0  0  0  0  0  0  # atno 17321 bound_to 7965
  139.7673  143.8546  152.3113 LP  0  0  0  0  0  0  0  0  0  0  0  0  # atno 17342 bound_to 10162
  139.8452  144.7191  150.9281 LP  0  0  0  0  0  0  0  0  0  0  0  0  # atno 17343 bound_to 10162
  157.7229  131.0669  150.6058 LP  0  0  0  0  0  0  0  0  0  0  0  0  # atno 17370 bound_to 10713
  156.6141  130.4388  149.5847 LP  0  0  0  0  0  0  0  0  0  0  0  0  # atno 17371 bound_to 10713
  141.1903  133.8220  157.0923 LP  0  0  0  0  0  0  0  0  0  0  0  0  # atno 17394 bound_to 11000
  140.0433  134.9843  157.1002 LP  0  0  0  0  0  0  0  0  0  0  0  0  # atno 17395 bound_to 11000

$$$$
