AV-unprocessed.smi:2893|AV-procd|sdf|11125|dock8
  -GOLD-   2272016 03D 1   1.00000     0.00000
 Structure written by MMmdl.
 37 39  0  0  0  0  0  0  0  0  1 V2000
  154.0345  135.6598  164.5411 C   0  0  0  0  0  0  0  0  0  0  0  0
  154.6745  135.6902  163.1469 C   0  0  0  0  0  0  0  0  0  0  0  0
  154.1986  136.8234  162.3626 N   0  0  0  0  0  0  0  0  0  0  0  0
  153.7399  136.7563  161.1009 C   0  0  0  0  0  0  0  0  0  0  0  0
  153.6634  135.7033  160.4662 O   0  0  0  0  0  0  0  0  0  0  0  0
  153.2738  138.0560  160.5006 C   0  0  0  0  0  0  0  0  0  0  0  0
  153.6909  139.2842  161.0581 C   0  0  0  0  0  0  0  0  0  0  0  0
  153.2167  140.4682  160.4680 C   0  0  0  0  0  0  0  0  0  0  0  0
  152.3532  140.3483  159.3628 C   0  0  0  0  0  0  0  0  0  0  0  0
  151.8638  141.5133  158.7556 N   0  0  0  0  0  0  0  0  0  0  0  0
  151.9822  142.8116  159.4105 C   0  0  1  0  0  0  0  0  0  0  0  0
  153.1434  143.6557  158.8691 C   0  0  0  0  0  0  0  0  0  0  0  0
  152.4280  144.9436  158.4439 C   0  0  2  0  0  0  0  0  0  0  0  0
  151.9067  145.7439  159.6453 C   0  0  0  0  0  0  0  0  0  0  0  0
  150.7167  144.8957  160.0930 C   0  0  0  0  0  0  0  0  0  0  0  0
  150.7783  143.7200  159.1086 C   0  0  1  0  0  0  0  0  0  0  0  0
  151.2192  144.4000  157.9442 O   0  0  0  0  0  0  0  0  0  0  0  0
  151.9857  139.1395  158.8716 N   0  0  0  0  0  0  0  0  0  0  0  0
  152.4358  138.0130  159.4336 N   0  0  0  0  0  0  0  0  0  0  0  0
  154.3765  134.7916  165.1047 H   0  0  0  0  0  0  0  0  0  0  0  0
  152.9474  135.6055  164.4748 H   0  0  0  0  0  0  0  0  0  0  0  0
  154.2923  136.5494  165.1166 H   0  0  0  0  0  0  0  0  0  0  0  0
  155.7624  135.7154  163.2281 H   0  0  0  0  0  0  0  0  0  0  0  0
  154.4250  134.7759  162.6083 H   0  0  0  0  0  0  0  0  0  0  0  0
  154.2164  137.7300  162.8079 H   0  0  0  0  0  0  0  0  0  0  0  0
  154.3538  139.3256  161.9102 H   0  0  0  0  0  0  0  0  0  0  0  0
  153.5063  141.4343  160.8546 H   0  0  0  0  0  0  0  0  0  0  0  0
  151.5998  141.4903  157.7812 H   0  0  0  0  0  0  0  0  0  0  0  0
  152.0666  142.6609  160.4876 H   0  0  0  0  0  0  0  0  0  0  0  0
  153.9162  143.8347  159.6171 H   0  0  0  0  0  0  0  0  0  0  0  0
  153.6141  143.1858  158.0040 H   0  0  0  0  0  0  0  0  0  0  0  0
  152.9845  145.5404  157.7209 H   0  0  0  0  0  0  0  0  0  0  0  0
  152.6617  145.8599  160.4237 H   0  0  0  0  0  0  0  0  0  0  0  0
  151.5749  146.7363  159.3388 H   0  0  0  0  0  0  0  0  0  0  0  0
  150.7899  144.5756  161.1329 H   0  0  0  0  0  0  0  0  0  0  0  0
  149.7862  145.4516  159.9720 H   0  0  0  0  0  0  0  0  0  0  0  0
  149.8288  143.1948  158.9977 H   0  0  0  0  0  0  0  0  0  0  0  0
  1  2  1  0  0  0  0
  1 20  1  0  0  0  0
  1 21  1  0  0  0  0
  1 22  1  0  0  0  0
  2  3  1  0  0  0  0
  2 23  1  0  0  0  0
  2 24  1  0  0  0  0
  3  4  1  0  0  0  0
  3 25  1  0  0  0  0
  4  5  2  0  0  0  0
  4  6  1  0  0  0  0
  6 19  1  0  0  0  0
  6  7  2  0  0  0  0
  7  8  1  0  0  0  0
  7 26  1  0  0  0  0
  8  9  2  0  0  0  0
  8 27  1  0  0  0  0
  9 10  1  0  0  0  0
  9 18  1  0  0  0  0
 10 11  1  0  0  0  0
 10 28  1  0  0  0  0
 11 16  1  0  0  0  0
 11 12  1  0  0  0  0
 11 29  1  0  0  0  0
 12 13  1  0  0  0  0
 12 30  1  0  0  0  0
 12 31  1  0  0  0  0
 13 17  1  0  0  0  0
 13 14  1  0  0  0  0
 13 32  1  0  0  0  0
 14 15  1  0  0  0  0
 14 33  1  0  0  0  0
 14 34  1  0  0  0  0
 15 16  1  0  0  0  0
 15 35  1  0  0  0  0
 15 36  1  0  0  0  0
 16 17  1  0  0  0  0
 16 37  1  0  0  0  0
 18 19  2  0  0  0  0
M  END
> <s_m_source_file>
AV-unprocessed.smi

> <i_m_source_file_index>
2893

> <i_lp_mmshare_version>
43012

> <i_f3d_flags>
0

> <s_epik_input>
W0NIM11bQ0gyXVtOSF1DKD1PKWMxW2NIXVtjSF1jKG5uMSlbTkhdW0NASF0oW0NIMl1bQ0BASF0yMylbQ0BASF0oTzMpW0NIMl1bQ0gyXTI=

> <s_epik_cmdline>
J2VwaWtfcHl0aG9uJywgJy1waCcsICc3LjAnLCAnLXRuJywgJzgnLCAnLW1hJywgJzIwMCcsICctbWV0YWxfYmluZGluZycsICctaW1hZScsICc8aW5maWxlLm1hZT4nLCAnLW9tYWUnLCAnPG91dGZpbGUubWFlPic=

> <r_lp_tautomer_probability>
1

> <r_epik_Ionization_Penalty>
0.00432031

> <r_epik_Ionization_Penalty_Charging>
0

> <r_epik_Ionization_Penalty_Neutral>
0.00432031

> <r_epik_State_Penalty>
-0

> <r_epik_Charging_Adjusted_Penalty>
0

> <i_epik_Tot_Q>
0

> <i_epik_Tot_abs_Q>
0

> <r_epik_Metal_State_Penalty>
-0

> <b_epik_Metal_Only>
0

> <s_lp_Force_Field>
OPLS_2005

> <r_lp_Energy>
49.39

> <b_lp_Chiralities_Consistent>
1

> <s_lp_Variant>
AV-unprocessed.smi:2893-4

> <Gold.Version>
5.8.1

> <Gold.Id.Protein>
6NUR|6NUR_protein|mol2

> <Gold.PLP.Fitness>
39.9085

> <Gold.PLP.PLP>
-38.0284

> <Gold.PLP.part.hbond>
-1.0000

> <Gold.PLP.part.metal>
0.0000

> <Gold.PLP.part.buried>
-6.3963

> <Gold.PLP.part.nonpolar>
-31.0518

> <Gold.PLP.part.repulsive>
0.2755

> <Gold.PLP.ligand.clash>
0.0000

> <Gold.PLP.ligand.torsion>
0.5712

> <Gold.PLP.Chemscore.Hbond>
1.0000

> <Gold.PLP.Chemscore.CHOScore>
0.0000

> <Gold.PLP.Chemscore.Metal>
0.0000

> <Gold.Chemscore.Hbonds>
donor molecule, donor type, donor heavy atom, donor atom, acceptor molecule, acceptor atom, score
      P1  H  6896  6907       L1     5  1.00

> <Gold.PLP.Chemscore.Internal.Correction>
0.0224

> <Gold.Rescore>
     Score         DG    S(hbond)    S(metal)    S(lipo)     H(rot)  DE(clash)    DE(int)     intcor
     18.37     -18.65       1.00        0.00     110.47       1.21       0.04       0.24       ----

> <Gold.Chemscore.Fitness>
18.3692

> <Gold.Chemscore.DG>
-18.6453

> <Gold.Chemscore.ZeroCoef>
-5.4800

> <Gold.Chemscore.Hbond>
0.9964

> <Gold.Chemscore.Metal>
0.0000

> <Gold.Chemscore.Lipo>
110.4690

> <Gold.Chemscore.Internal_Hbond>
0.0000

> <Gold.Chemscore.DEClash>
0.0381

> <Gold.Chemscore.DEInternal>
0.2380

> <Gold.Chemscore.Rot>
1.2061

> <Gold.Chemscore.Internal.Correction>
   9.000000E+99

> <Gold.Chemscore.Hbonds>
donor molecule, donor type, donor heavy atom, donor atom, acceptor molecule, acceptor atom, score
      P1  H  6896  6907       L1     5  1.00

> <Gold.Chemscore.Hbond.Weighted>
-3.3280

> <Gold.Chemscore.Metal.Weighted>
-0.0000

> <Gold.Chemscore.Lipo.Weighted>
-12.9249

> <Gold.Chemscore.Internal_Hbond.Weighted>
0.0000

> <Gold.Chemscore.DEClash.Weighted>
0.0381

> <Gold.Chemscore.DEInternal.Weighted>
0.2380

> <Gold.Chemscore.Rot.Weighted>
3.0876

> <Gold.Chemscore.Internal.Correction.Weighted>
   9.000000E+99

> <Gold.Protein.RotatedTorsions>
[ 6907 6896 6895 6894 ] final   50.12 input  -60.11 | X-H torsion
[ 7974 7965 7964 7962 ] final   62.86 input  175.53 | X-H torsion
[ 8008 7997 7996 7995 ] final  -43.06 input   59.86 | X-H torsion
[ 10167 10162 10161 10158 ] final   13.54 input  -65.29 | X-H torsion
[ 10718 10713 10712 10709 ] final -146.83 input   66.30 | X-H torsion
[ 10763 10752 10751 10750 ] final -132.08 input  -60.55 | X-H torsion
[ 11005 11000 10999 10996 ] final  116.07 input  -57.11 | X-H torsion

> <Gold.Protein.ActiveResidues>
 VAL166  LYS551  ARG553  GLY616  TRP617  ASP618  TYR619  PRO620  LYS621  CYS622 
 ASP623  PHE694  ASN695  SER759  ASP760  ASP761  ALA762  ILE779  LEU786  VAL792 
 PHE793  MET794  SER795  GLU796  ALA797  LYS798  CYS799  TRP800  GLU811  SER814 

> <Gold.Protein.RotatedAtoms>
  152.2983  134.7641  160.0362 H   0  0  0  0  0  0  0  0  0  0  0  0  # atno 6907 bound_to 6896
  151.8163  133.3383  159.3578 H   0  0  0  0  0  0  0  0  0  0  0  0  # atno 6908 bound_to 6896
  150.7262  134.5546  159.5856 H   0  0  0  0  0  0  0  0  0  0  0  0  # atno 6909 bound_to 6896
  145.8685  139.3362  143.0776 H   0  0  0  0  0  0  0  0  0  0  0  0  # atno 7974 bound_to 7965
  154.3997  140.1457  156.3458 H   0  0  0  0  0  0  0  0  0  0  0  0  # atno 8008 bound_to 7997
  155.8315  140.3465  155.5554 H   0  0  0  0  0  0  0  0  0  0  0  0  # atno 8009 bound_to 7997
  155.8183  140.0894  157.1854 H   0  0  0  0  0  0  0  0  0  0  0  0  # atno 8010 bound_to 7997
  140.5996  143.8632  150.6952 H   0  0  0  0  0  0  0  0  0  0  0  0  # atno 10167 bound_to 10162
  156.3999  130.7928  151.2138 H   0  0  0  0  0  0  0  0  0  0  0  0  # atno 10718 bound_to 10713
  154.8746  135.3809  154.4351 H   0  0  0  0  0  0  0  0  0  0  0  0  # atno 10763 bound_to 10752
  153.5041  135.7030  153.5821 H   0  0  0  0  0  0  0  0  0  0  0  0  # atno 10764 bound_to 10752
  153.4140  135.3918  155.2035 H   0  0  0  0  0  0  0  0  0  0  0  0  # atno 10765 bound_to 10752
  139.9030  134.9593  156.7142 H   0  0  0  0  0  0  0  0  0  0  0  0  # atno 11005 bound_to 11000
  145.9164  140.9145  143.0427 LP  0  0  0  0  0  0  0  0  0  0  0  0  # atno 17320 bound_to 7965
  144.6726  140.1230  143.7448 LP  0  0  0  0  0  0  0  0  0  0  0  0  # atno 17321 bound_to 7965
  140.2175  143.3835  152.1669 LP  0  0  0  0  0  0  0  0  0  0  0  0  # atno 17342 bound_to 10162
  139.5281  144.7127  151.5153 LP  0  0  0  0  0  0  0  0  0  0  0  0  # atno 17343 bound_to 10162
  157.7503  131.0290  150.4073 LP  0  0  0  0  0  0  0  0  0  0  0  0  # atno 17370 bound_to 10713
  156.4351  130.3980  149.6734 LP  0  0  0  0  0  0  0  0  0  0  0  0  # atno 17371 bound_to 10713
  140.7051  133.9272  155.8049 LP  0  0  0  0  0  0  0  0  0  0  0  0  # atno 17394 bound_to 11000
  141.0342  134.0713  157.3978 LP  0  0  0  0  0  0  0  0  0  0  0  0  # atno 17395 bound_to 11000

$$$$
