AV-unprocessed.smi:2306|AV-procd|sdf|9249|dock9
  -GOLD-   2272012473D 1   1.00000     0.00000
 Structure written by MMmdl.
 41 42  0  0  0  0  0  0  0  0  1 V2000
  147.8901  136.4802  161.0899 C   0  0  0  0  0  0  0  0  0  0  0  0
  148.5129  137.0626  159.8334 C   0  0  0  0  0  0  0  0  0  0  0  0
  149.9091  137.0266  159.7786 N   0  0  0  0  0  0  0  0  0  0  0  0
  150.5263  137.5060  158.7488 C   0  0  0  0  0  0  0  0  0  0  0  0
  149.8297  138.0716  157.6673 N   0  0  0  0  0  0  0  0  0  0  0  0
  150.6488  138.5855  156.5562 C   0  0  0  0  0  0  0  0  0  0  0  0
  152.0748  138.9703  157.0116 C   0  0  1  0  0  0  0  0  0  0  0  0
  152.8301  139.4638  155.9237 O   0  0  0  0  0  0  0  0  0  0  0  0
  152.0851  140.0503  158.1074 C   0  0  0  0  0  0  0  0  0  0  0  0
  153.4163  140.2962  158.5340 O   0  0  0  0  0  0  0  0  0  0  0  0
  153.4862  140.9082  159.8111 C   0  0  0  0  0  0  0  0  0  0  0  0
  153.0227  142.3518  159.7697 C   0  0  0  0  0  0  0  0  0  0  0  0
  152.7824  143.0545  160.9694 C   0  0  0  0  0  0  0  0  0  0  0  0
  152.3378  144.3907  160.9305 C   0  0  0  0  0  0  0  0  0  0  0  0
  152.1251  145.0273  159.6924 C   0  0  0  0  0  0  0  0  0  0  0  0
  152.3549  144.3265  158.4928 C   0  0  0  0  0  0  0  0  0  0  0  0
  152.8002  142.9907  158.5310 C   0  0  0  0  0  0  0  0  0  0  0  0
  148.4673  138.1306  157.6327 C   0  0  0  0  0  0  0  0  0  0  0  0
  147.8640  138.6064  156.6692 O   0  0  0  0  0  0  0  0  0  0  0  0
  147.7787  137.5890  158.8154 C   0  0  0  0  0  0  0  0  0  0  0  0
  146.2565  137.6561  158.8201 C   0  0  0  0  0  0  0  0  0  0  0  0
  147.2182  135.6593  160.8388 H   0  0  0  0  0  0  0  0  0  0  0  0
  147.3246  137.2437  161.6247 H   0  0  0  0  0  0  0  0  0  0  0  0
  148.6513  136.0923  161.7678 H   0  0  0  0  0  0  0  0  0  0  0  0
  151.6135  137.4970  158.6544 H   0  0  0  0  0  0  0  0  0  0  0  0
  150.6874  137.8785  155.7251 H   0  0  0  0  0  0  0  0  0  0  0  0
  150.1594  139.4649  156.1319 H   0  0  0  0  0  0  0  0  0  0  0  0
  152.5952  138.0939  157.4000 H   0  0  0  0  0  0  0  0  0  0  0  0
  152.2355  139.7138  155.2327 H   0  0  0  0  0  0  0  0  0  0  0  0
  151.6712  140.9744  157.7011 H   0  0  0  0  0  0  0  0  0  0  0  0
  151.4520  139.7584  158.9475 H   0  0  0  0  0  0  0  0  0  0  0  0
  152.8581  140.3670  160.5201 H   0  0  0  0  0  0  0  0  0  0  0  0
  154.5114  140.8631  160.1824 H   0  0  0  0  0  0  0  0  0  0  0  0
  152.9401  142.5727  161.9232 H   0  0  0  0  0  0  0  0  0  0  0  0
  152.1587  144.9269  161.8508 H   0  0  0  0  0  0  0  0  0  0  0  0
  151.7838  146.0516  159.6625 H   0  0  0  0  0  0  0  0  0  0  0  0
  152.1884  144.8131  157.5429 H   0  0  0  0  0  0  0  0  0  0  0  0
  152.9713  142.4585  157.6067 H   0  0  0  0  0  0  0  0  0  0  0  0
  145.9252  138.6902  158.7188 H   0  0  0  0  0  0  0  0  0  0  0  0
  145.8115  137.2586  159.7308 H   0  0  0  0  0  0  0  0  0  0  0  0
  145.8526  137.0878  157.9816 H   0  0  0  0  0  0  0  0  0  0  0  0
  1  2  1  0  0  0  0
  1 22  1  0  0  0  0
  1 23  1  0  0  0  0
  1 24  1  0  0  0  0
  2 20  2  0  0  0  0
  2  3  1  0  0  0  0
  3  4  2  0  0  0  0
  4  5  1  0  0  0  0
  4 25  1  0  0  0  0
  5  6  1  0  0  0  0
  5 18  1  0  0  0  0
  6  7  1  0  0  0  0
  6 26  1  0  0  0  0
  6 27  1  0  0  0  0
  7  8  1  0  0  0  0
  7  9  1  0  0  0  0
  7 28  1  0  0  0  0
  8 29  1  0  0  0  0
  9 10  1  0  0  0  0
  9 30  1  0  0  0  0
  9 31  1  0  0  0  0
 10 11  1  0  0  0  0
 11 12  1  0  0  0  0
 11 32  1  0  0  0  0
 11 33  1  0  0  0  0
 12 17  1  0  0  0  0
 12 13  2  0  0  0  0
 13 14  1  0  0  0  0
 13 34  1  0  0  0  0
 14 15  2  0  0  0  0
 14 35  1  0  0  0  0
 15 16  1  0  0  0  0
 15 36  1  0  0  0  0
 16 17  2  0  0  0  0
 16 37  1  0  0  0  0
 17 38  1  0  0  0  0
 18 19  2  0  0  0  0
 18 20  1  0  0  0  0
 20 21  1  0  0  0  0
 21 39  1  0  0  0  0
 21 40  1  0  0  0  0
 21 41  1  0  0  0  0
M  END
> <s_m_source_file>
AV-unprocessed.smi

> <i_m_source_file_index>
2306

> <i_lp_mmshare_version>
43012

> <i_f3d_flags>
0

> <s_epik_input>
W0NIM11jMW5bY0hdbihjKD1PKWMxW0NIM10pW0NIMl1bQ0BIXShbT0hdKVtDSDJdT1tDSDJdYzJbY0hdW2NIXVtjSF1bY0hdW2NIXTI=

> <s_epik_cmdline>
J2VwaWtfcHl0aG9uJywgJy1waCcsICc3LjAnLCAnLXRuJywgJzgnLCAnLW1hJywgJzIwMCcsICctbWV0YWxfYmluZGluZycsICctaW1hZScsICc8aW5maWxlLm1hZT4nLCAnLW9tYWUnLCAnPG91dGZpbGUubWFlPic=

> <r_lp_tautomer_probability>
1

> <r_epik_Ionization_Penalty>
5.35985e-05

> <r_epik_Ionization_Penalty_Charging>
1.17753e-07

> <r_epik_Ionization_Penalty_Neutral>
5.34808e-05

> <r_epik_State_Penalty>
-0

> <r_epik_Charging_Adjusted_Penalty>
1.17753e-07

> <i_epik_Tot_Q>
0

> <i_epik_Tot_abs_Q>
0

> <r_epik_Metal_State_Penalty>
-0

> <b_epik_Metal_Only>
0

> <s_lp_Force_Field>
OPLS_2005

> <r_lp_Energy>
24.4772

> <b_lp_Chiralities_Consistent>
1

> <s_lp_Variant>
AV-unprocessed.smi:2306-2

> <Gold.Version>
5.8.1

> <Gold.Id.Protein>
6NUR|6NUR_protein|mol2

> <Gold.PLP.Fitness>
48.0044

> <Gold.PLP.PLP>
-43.1408

> <Gold.PLP.part.hbond>
-2.9908

> <Gold.PLP.part.metal>
0.0000

> <Gold.PLP.part.buried>
-5.4391

> <Gold.PLP.part.nonpolar>
-34.9057

> <Gold.PLP.part.repulsive>
0.0000

> <Gold.PLP.ligand.clash>
0.0176

> <Gold.PLP.ligand.torsion>
0.5895

> <Gold.PLP.Chemscore.Hbond>
1.9913

> <Gold.PLP.Chemscore.CHOScore>
0.0000

> <Gold.PLP.Chemscore.Metal>
0.0000

> <Gold.Chemscore.Hbonds>
donor molecule, donor type, donor heavy atom, donor atom, acceptor molecule, acceptor atom, score
      P1  H  6896  6907       L1     3  0.29
      P1  H  7997  8009       L1     8  1.00

> <Gold.PLP.Chemscore.Internal.Correction>
0.0863

> <Gold.Rescore>
     Score         DG    S(hbond)    S(metal)    S(lipo)     H(rot)  DE(clash)    DE(int)     intcor
     16.62     -17.93       1.76        0.00     111.15       2.52       0.00       1.30       ----

> <Gold.Chemscore.Fitness>
16.6235

> <Gold.Chemscore.DG>
-17.9282

> <Gold.Chemscore.ZeroCoef>
-5.4800

> <Gold.Chemscore.Hbond>
1.7620

> <Gold.Chemscore.Metal>
0.0000

> <Gold.Chemscore.Lipo>
111.1490

> <Gold.Chemscore.Internal_Hbond>
0.0000

> <Gold.Chemscore.DEClash>
0.0021

> <Gold.Chemscore.DEInternal>
1.3026

> <Gold.Chemscore.Rot>
2.5162

> <Gold.Chemscore.Internal.Correction>
   9.000000E+99

> <Gold.Chemscore.Hbonds>
donor molecule, donor type, donor heavy atom, donor atom, acceptor molecule, acceptor atom, score
      P1  H  6896  6907       L1     3  0.04
      P1  H  7997  8009       L1     8  0.78

> <Gold.Chemscore.Hbond.Weighted>
-5.8851

> <Gold.Chemscore.Metal.Weighted>
-0.0000

> <Gold.Chemscore.Lipo.Weighted>
-13.0044

> <Gold.Chemscore.Internal_Hbond.Weighted>
0.0000

> <Gold.Chemscore.DEClash.Weighted>
0.0021

> <Gold.Chemscore.DEInternal.Weighted>
1.3026

> <Gold.Chemscore.Rot.Weighted>
6.4414

> <Gold.Chemscore.Internal.Correction.Weighted>
   9.000000E+99

> <Gold.Protein.RotatedTorsions>
[ 6907 6896 6895 6894 ] final  -35.78 input  -60.11 | X-H torsion
[ 7974 7965 7964 7962 ] final  -86.70 input  175.53 | X-H torsion
[ 8008 7997 7996 7995 ] final -170.29 input   59.86 | X-H torsion
[ 10167 10162 10161 10158 ] final -135.81 input  -65.29 | X-H torsion
[ 10718 10713 10712 10709 ] final  -83.98 input   66.30 | X-H torsion
[ 10763 10752 10751 10750 ] final  103.10 input  -60.55 | X-H torsion
[ 11005 11000 10999 10996 ] final  -82.92 input  -57.11 | X-H torsion

> <Gold.Protein.ActiveResidues>
 VAL166  LYS551  ARG553  GLY616  TRP617  ASP618  TYR619  PRO620  LYS621  CYS622 
 ASP623  PHE694  ASN695  SER759  ASP760  ASP761  ALA762  ILE779  LEU786  VAL792 
 PHE793  MET794  SER795  GLU796  ALA797  LYS798  CYS799  TRP800  GLU811  SER814 

> <Gold.Protein.RotatedAtoms>
  151.0354  134.9569  159.8133 H   0  0  0  0  0  0  0  0  0  0  0  0  # atno 6907 bound_to 6896
  152.5354  134.2726  159.8987 H   0  0  0  0  0  0  0  0  0  0  0  0  # atno 6908 bound_to 6896
  151.2736  133.4200  159.2656 H   0  0  0  0  0  0  0  0  0  0  0  0  # atno 6909 bound_to 6896
  145.4764  140.9558  143.1888 H   0  0  0  0  0  0  0  0  0  0  0  0  # atno 7974 bound_to 7965
  155.9163  140.1066  157.1241 H   0  0  0  0  0  0  0  0  0  0  0  0  # atno 8008 bound_to 7997
  154.4047  140.1264  156.4687 H   0  0  0  0  0  0  0  0  0  0  0  0  # atno 8009 bound_to 7997
  155.7250  140.3469  155.5035 H   0  0  0  0  0  0  0  0  0  0  0  0  # atno 8010 bound_to 7997
  139.8741  143.6920  152.2636 H   0  0  0  0  0  0  0  0  0  0  0  0  # atno 10167 bound_to 10162
  156.0011  130.4683  150.4340 H   0  0  0  0  0  0  0  0  0  0  0  0  # atno 10718 bound_to 10713
  153.3483  135.3988  155.1626 H   0  0  0  0  0  0  0  0  0  0  0  0  # atno 10763 bound_to 10752
  154.8657  135.3650  154.5256 H   0  0  0  0  0  0  0  0  0  0  0  0  # atno 10764 bound_to 10752
  153.5705  135.7079  153.5566 H   0  0  0  0  0  0  0  0  0  0  0  0  # atno 10765 bound_to 10752
  141.1660  133.7268  156.8644 H   0  0  0  0  0  0  0  0  0  0  0  0  # atno 11005 bound_to 11000
  144.7915  139.6320  143.7111 LP  0  0  0  0  0  0  0  0  0  0  0  0  # atno 17320 bound_to 7965
  146.2367  139.5918  142.9519 LP  0  0  0  0  0  0  0  0  0  0  0  0  # atno 17321 bound_to 7965
  139.7256  144.7593  151.0884 LP  0  0  0  0  0  0  0  0  0  0  0  0  # atno 17342 bound_to 10162
  140.7756  143.5152  150.9603 LP  0  0  0  0  0  0  0  0  0  0  0  0  # atno 17343 bound_to 10162
  157.2387  131.0520  151.2449 LP  0  0  0  0  0  0  0  0  0  0  0  0  # atno 17370 bound_to 10713
  157.3641  130.7147  149.6521 LP  0  0  0  0  0  0  0  0  0  0  0  0  # atno 17371 bound_to 10713
  140.1826  134.9023  157.2966 LP  0  0  0  0  0  0  0  0  0  0  0  0  # atno 17394 bound_to 11000
  140.2378  134.3831  155.7493 LP  0  0  0  0  0  0  0  0  0  0  0  0  # atno 17395 bound_to 11000

$$$$
