AV-unprocessed.smi:1504|AV-procd|sdf|6074|dock4
  -GOLD-   22720 6193D 1   1.00000     0.00000
 Structure written by MMmdl.
 40 41  0  0  0  0  0  0  0  0  2 V2000
  150.4274  137.6667  159.6868 O   0  0  0  0  0  0  0  0  0  0  0  0
  149.6077  138.0235  158.8404 C   0  0  0  0  0  0  0  0  0  0  0  0
  149.7044  139.1609  158.1377 N   0  0  0  0  0  0  0  0  0  0  0  0
  150.7810  140.1348  158.2756 C   0  0  0  0  0  0  0  0  0  0  0  0
  150.4820  141.4238  157.4914 C   0  0  0  0  0  0  0  0  0  0  0  0
  151.1287  142.6423  158.1205 C   0  0  0  0  0  0  0  0  0  0  0  0
  152.0268  142.5387  159.2050 C   0  0  0  0  0  0  0  0  0  0  0  0
  152.5988  143.7116  159.7406 C   0  0  0  0  0  0  0  0  0  0  0  0
  152.2625  144.9615  159.1802 C   0  0  0  0  0  0  0  0  0  0  0  0
  151.3619  145.0067  158.0963 C   0  0  0  0  0  0  0  0  0  0  0  0
  150.8346  143.8609  157.6116 N   0  3  0  0  0  0  0  0  0  0  0  0
  148.5098  137.3292  158.5142 N   0  0  0  0  0  0  0  0  0  0  0  0
  148.1093  136.0624  159.1168 C   0  0  0  0  0  0  0  0  0  0  0  0
  147.5319  136.2816  160.5256 C   0  0  1  0  0  0  0  0  0  0  0  0
  146.4224  137.3508  160.5470 C   0  0  0  0  0  0  0  0  0  0  0  0
  145.7260  137.3036  161.9103 C   0  0  0  0  0  0  0  0  0  0  0  0
  145.7320  135.5404  162.4041 S   0  0  0  0  0  0  0  0  0  0  0  0
  146.3118  135.4212  163.7504 O   0  0  0  0  0  0  0  0  0  0  0  0
  144.4297  134.9370  162.0840 O   0  0  0  0  0  0  0  0  0  0  0  0
  146.9605  134.9985  161.1555 C   0  0  0  0  0  0  0  0  0  0  0  0
  148.9833  139.3673  157.4615 H   0  0  0  0  0  0  0  0  0  0  0  0
  150.9460  140.3592  159.3310 H   0  0  0  0  0  0  0  0  0  0  0  0
  151.6999  139.6775  157.9079 H   0  0  0  0  0  0  0  0  0  0  0  0
  150.8338  141.3267  156.4633 H   0  0  0  0  0  0  0  0  0  0  0  0
  149.4055  141.5901  157.4320 H   0  0  0  0  0  0  0  0  0  0  0  0
  152.2767  141.5736  159.6215 H   0  0  0  0  0  0  0  0  0  0  0  0
  153.2879  143.6527  160.5705 H   0  0  0  0  0  0  0  0  0  0  0  0
  152.6898  145.8715  159.5758 H   0  0  0  0  0  0  0  0  0  0  0  0
  151.0499  145.9173  157.6061 H   0  0  0  0  0  0  0  0  0  0  0  0
  147.9000  137.7074  157.8039 H   0  0  0  0  0  0  0  0  0  0  0  0
  147.3626  135.5951  158.4739 H   0  0  0  0  0  0  0  0  0  0  0  0
  148.9543  135.3735  159.1711 H   0  0  0  0  0  0  0  0  0  0  0  0
  148.3321  136.6380  161.1765 H   0  0  0  0  0  0  0  0  0  0  0  0
  146.8150  138.3457  160.3352 H   0  0  0  0  0  0  0  0  0  0  0  0
  145.6902  137.1254  159.7702 H   0  0  0  0  0  0  0  0  0  0  0  0
  146.2933  137.8638  162.6537 H   0  0  0  0  0  0  0  0  0  0  0  0
  144.7061  137.6874  161.8853 H   0  0  0  0  0  0  0  0  0  0  0  0
  146.4346  134.3973  160.4130 H   0  0  0  0  0  0  0  0  0  0  0  0
  147.7234  134.3778  161.6254 H   0  0  0  0  0  0  0  0  0  0  0  0
  150.1852  143.9174  156.8268 H   0  0  0  0  0  0  0  0  0  0  0  0
  1  2  2  0  0  0  0
  2  3  1  0  0  0  0
  2 12  1  0  0  0  0
  3  4  1  0  0  0  0
  3 21  1  0  0  0  0
  4  5  1  0  0  0  0
  4 22  1  0  0  0  0
  4 23  1  0  0  0  0
  5  6  1  0  0  0  0
  5 24  1  0  0  0  0
  5 25  1  0  0  0  0
  6 11  1  0  0  0  0
  6  7  2  0  0  0  0
  7  8  1  0  0  0  0
  7 26  1  0  0  0  0
  8  9  2  0  0  0  0
  8 27  1  0  0  0  0
  9 10  1  0  0  0  0
  9 28  1  0  0  0  0
 10 11  2  0  0  0  0
 10 29  1  0  0  0  0
 11 40  1  0  0  0  0
 12 13  1  0  0  0  0
 12 30  1  0  0  0  0
 13 14  1  0  0  0  0
 13 31  1  0  0  0  0
 13 32  1  0  0  0  0
 14 20  1  0  0  0  0
 14 15  1  0  0  0  0
 14 33  1  0  0  0  0
 15 16  1  0  0  0  0
 15 34  1  0  0  0  0
 15 35  1  0  0  0  0
 16 17  1  0  0  0  0
 16 36  1  0  0  0  0
 16 37  1  0  0  0  0
 17 18  2  0  0  0  0
 17 19  2  0  0  0  0
 17 20  1  0  0  0  0
 20 38  1  0  0  0  0
 20 39  1  0  0  0  0
M  CHG  1  11   1
M  END
> <s_m_source_file>
AV-unprocessed.smi

> <i_m_source_file_index>
1504

> <i_lp_mmshare_version>
43012

> <i_f3d_flags>
0

> <s_epik_input>
Tz1TMSg9TylbQ0gyXVtDSDJdW0NASF0oW0NIMl0xKVtDSDJdW05IXUMoPU8pW05IXVtDSDJdW0NIMl1jMltjSF1bY0hdW2NIXVtjSF1uMg==

> <s_epik_cmdline>
J2VwaWtfcHl0aG9uJywgJy1waCcsICc3LjAnLCAnLXRuJywgJzgnLCAnLW1hJywgJzIwMCcsICctbWV0YWxfYmluZGluZycsICctaW1hZScsICc8aW5maWxlLm1hZT4nLCAnLW9tYWUnLCAnPG91dGZpbGUubWFlPic=

> <r_epik_Ionization_Penalty>
1.57393

> <r_epik_Ionization_Penalty_Charging>
1.57388

> <r_epik_Ionization_Penalty_Neutral>
4.82054e-05

> <r_epik_State_Penalty>
1.66991

> <r_epik_Charging_Adjusted_Penalty>
3.24379

> <i_epik_Tot_Q>
1

> <i_epik_Tot_abs_Q>
1

> <r_epik_Metal_State_Penalty>
1.71052

> <b_epik_Metal_Only>
0

> <s_lp_Force_Field>
OPLS_2005

> <r_lp_Energy>
6.78157

> <b_lp_Chiralities_Consistent>
1

> <s_lp_Variant>
AV-unprocessed.smi:1504-4

> <Gold.Version>
5.8.1

> <Gold.Id.Protein>
6NUR|6NUR_protein|mol2

> <Gold.PLP.Fitness>
43.3193

> <Gold.PLP.PLP>
-38.0271

> <Gold.PLP.part.hbond>
-3.0000

> <Gold.PLP.part.metal>
0.0000

> <Gold.PLP.part.buried>
-5.0527

> <Gold.PLP.part.nonpolar>
-29.8576

> <Gold.PLP.part.repulsive>
0.3739

> <Gold.PLP.ligand.clash>
0.0000

> <Gold.PLP.ligand.torsion>
0.3867

> <Gold.PLP.Chemscore.Hbond>
2.0187

> <Gold.PLP.Chemscore.CHOScore>
0.0000

> <Gold.PLP.Chemscore.Metal>
0.0000

> <Gold.Chemscore.Hbonds>
donor molecule, donor type, donor heavy atom, donor atom, acceptor molecule, acceptor atom, score
      L1  H    11    40       P1  8028  2.00

> <Gold.PLP.Chemscore.Internal.Correction>
0.0095

> <Gold.Rescore>
     Score         DG    S(hbond)    S(metal)    S(lipo)     H(rot)  DE(clash)    DE(int)     intcor
     13.48     -14.49       0.97        0.00      93.29       2.01       0.72       0.29       ----

> <Gold.Chemscore.Fitness>
13.4778

> <Gold.Chemscore.DG>
-14.4877

> <Gold.Chemscore.ZeroCoef>
-5.4800

> <Gold.Chemscore.Hbond>
0.9729

> <Gold.Chemscore.Metal>
0.0000

> <Gold.Chemscore.Lipo>
93.2944

> <Gold.Chemscore.Internal_Hbond>
0.0000

> <Gold.Chemscore.DEClash>
0.7235

> <Gold.Chemscore.DEInternal>
0.2863

> <Gold.Chemscore.Rot>
2.0146

> <Gold.Chemscore.Internal.Correction>
   9.000000E+99

> <Gold.Chemscore.Hbonds>
donor molecule, donor type, donor heavy atom, donor atom, acceptor molecule, acceptor atom, score
      L1  H    11    40       P1  8028  0.98

> <Gold.Chemscore.Hbond.Weighted>
-3.2495

> <Gold.Chemscore.Metal.Weighted>
-0.0000

> <Gold.Chemscore.Lipo.Weighted>
-10.9154

> <Gold.Chemscore.Internal_Hbond.Weighted>
0.0000

> <Gold.Chemscore.DEClash.Weighted>
0.7235

> <Gold.Chemscore.DEInternal.Weighted>
0.2863

> <Gold.Chemscore.Rot.Weighted>
5.1573

> <Gold.Chemscore.Internal.Correction.Weighted>
   9.000000E+99

> <Gold.Protein.RotatedTorsions>
[ 6907 6896 6895 6894 ] final  170.96 input  -60.11 | X-H torsion
[ 7974 7965 7964 7962 ] final -155.26 input  175.53 | X-H torsion
[ 8008 7997 7996 7995 ] final  174.79 input   59.86 | X-H torsion
[ 10167 10162 10161 10158 ] final -112.77 input  -65.29 | X-H torsion
[ 10718 10713 10712 10709 ] final -149.38 input   66.30 | X-H torsion
[ 10763 10752 10751 10750 ] final   24.46 input  -60.55 | X-H torsion
[ 11005 11000 10999 10996 ] final  136.91 input  -57.11 | X-H torsion

> <Gold.Protein.ActiveResidues>
 VAL166  LYS551  ARG553  GLY616  TRP617  ASP618  TYR619  PRO620  LYS621  CYS622 
 ASP623  PHE694  ASN695  SER759  ASP760  ASP761  ALA762  ILE779  LEU786  VAL792 
 PHE793  MET794  SER795  GLU796  ALA797  LYS798  CYS799  TRP800  GLU811  SER814 

> <Gold.Protein.RotatedAtoms>
  151.8079  133.3378  159.3546 H   0  0  0  0  0  0  0  0  0  0  0  0  # atno 6907 bound_to 6896
  150.7336  134.5692  159.5891 H   0  0  0  0  0  0  0  0  0  0  0  0  # atno 6908 bound_to 6896
  152.3096  134.7514  160.0390 H   0  0  0  0  0  0  0  0  0  0  0  0  # atno 6909 bound_to 6896
  144.7649  140.4274  143.5949 H   0  0  0  0  0  0  0  0  0  0  0  0  # atno 7974 bound_to 7965
  156.0938  140.1425  156.9557 H   0  0  0  0  0  0  0  0  0  0  0  0  # atno 8008 bound_to 7997
  154.4658  140.0927  156.7063 H   0  0  0  0  0  0  0  0  0  0  0  0  # atno 8009 bound_to 7997
  155.4875  140.3447  155.4352 H   0  0  0  0  0  0  0  0  0  0  0  0  # atno 8010 bound_to 7997
  140.1191  143.4459  152.1703 H   0  0  0  0  0  0  0  0  0  0  0  0  # atno 10167 bound_to 10162
  156.4324  130.8082  151.2309 H   0  0  0  0  0  0  0  0  0  0  0  0  # atno 10718 bound_to 10713
  153.0762  135.6605  154.0140 H   0  0  0  0  0  0  0  0  0  0  0  0  # atno 10763 bound_to 10752
  153.9773  135.2958  155.3424 H   0  0  0  0  0  0  0  0  0  0  0  0  # atno 10764 bound_to 10752
  154.7151  135.5189  153.8796 H   0  0  0  0  0  0  0  0  0  0  0  0  # atno 10765 bound_to 10752
  140.0078  134.9452  157.0212 H   0  0  0  0  0  0  0  0  0  0  0  0  # atno 11005 bound_to 11000
  145.6503  139.1564  143.2866 LP  0  0  0  0  0  0  0  0  0  0  0  0  # atno 17320 bound_to 7965
  146.1747  140.6592  142.9217 LP  0  0  0  0  0  0  0  0  0  0  0  0  # atno 17321 bound_to 7965
  139.5578  144.7385  151.4243 LP  0  0  0  0  0  0  0  0  0  0  0  0  # atno 17342 bound_to 10162
  140.6882  143.7923  150.7217 LP  0  0  0  0  0  0  0  0  0  0  0  0  # atno 17343 bound_to 10162
  157.7508  131.0194  150.3665 LP  0  0  0  0  0  0  0  0  0  0  0  0  # atno 17370 bound_to 10713
  156.4006  130.3915  149.6963 LP  0  0  0  0  0  0  0  0  0  0  0  0  # atno 17371 bound_to 10713
  140.4609  134.1485  155.7191 LP  0  0  0  0  0  0  0  0  0  0  0  0  # atno 17394 bound_to 11000
  141.1689  133.8648  157.1630 LP  0  0  0  0  0  0  0  0  0  0  0  0  # atno 17395 bound_to 11000

$$$$
