AV-unprocessed.smi:1824|AV-procd|sdf|7400|dock10
  -GOLD-   22720 9 73D 1   1.00000     0.00000
 Structure written by MMmdl.
 45 47  0  0  0  0  0  0  0  0  2 V2000
  144.7486  132.8321  150.3201 C   0  0  0  0  0  0  0  0  0  0  0  0
  144.5357  134.0207  151.2639 C   0  0  1  0  0  0  0  0  0  0  0  0
  144.7269  135.3718  150.5459 C   0  0  0  0  0  0  0  0  0  0  0  0
  144.4353  136.5091  151.4519 N   0  3  2  0  0  0  0  0  0  0  0  0
  145.5318  136.8053  152.4134 C   0  0  0  0  0  0  0  0  0  0  0  0
  146.3154  138.0793  152.0405 C   0  0  2  0  0  0  0  0  0  0  0  0
  146.5824  138.0566  150.6511 O   0  0  0  0  0  0  0  0  0  0  0  0
  147.6450  138.1783  152.8133 C   0  0  0  0  0  0  0  0  0  0  0  0
  147.7766  139.4342  153.5311 N   0  0  0  0  0  0  0  0  0  0  0  0
  146.8666  140.4250  153.5990 C   0  0  0  0  0  0  0  0  0  0  0  0
  147.1890  141.5007  154.3106 N   0  0  0  0  0  0  0  0  0  0  0  0
  148.4548  141.1688  154.7624 C   0  0  0  0  0  0  0  0  0  0  0  0
  149.3558  141.8904  155.5774 C   0  0  0  0  0  0  0  0  0  0  0  0
  150.6122  141.3440  155.9122 C   0  0  0  0  0  0  0  0  0  0  0  0
  151.4632  142.0489  156.6950 F   0  0  0  0  0  0  0  0  0  0  0  0
  150.9865  140.0697  155.4361 C   0  0  0  0  0  0  0  0  0  0  0  0
  152.1953  139.5530  155.7604 F   0  0  0  0  0  0  0  0  0  0  0  0
  150.1052  139.3317  154.6224 C   0  0  0  0  0  0  0  0  0  0  0  0
  148.8521  139.8805  154.2924 C   0  0  0  0  0  0  0  0  0  0  0  0
  143.0913  136.3523  152.0645 C   0  0  0  0  0  0  0  0  0  0  0  0
  142.9220  134.9662  152.7244 C   0  0  1  0  0  0  0  0  0  0  0  0
  141.4960  134.7456  153.2401 C   0  0  0  0  0  0  0  0  0  0  0  0
  143.2058  133.9518  151.7669 O   0  0  0  0  0  0  0  0  0  0  0  0
  145.7577  132.8342  149.9070 H   0  0  0  0  0  0  0  0  0  0  0  0
  144.0459  132.8579  149.4867 H   0  0  0  0  0  0  0  0  0  0  0  0
  144.6071  131.8871  150.8450 H   0  0  0  0  0  0  0  0  0  0  0  0
  145.2406  133.9331  152.0925 H   0  0  0  0  0  0  0  0  0  0  0  0
  145.7336  135.4585  150.1351 H   0  0  0  0  0  0  0  0  0  0  0  0
  144.0456  135.4317  149.6961 H   0  0  0  0  0  0  0  0  0  0  0  0
  145.1305  136.8907  153.4232 H   0  0  0  0  0  0  0  0  0  0  0  0
  146.2318  135.9687  152.4405 H   0  0  0  0  0  0  0  0  0  0  0  0
  145.7227  138.9673  152.2582 H   0  0  0  0  0  0  0  0  0  0  0  0
  145.7610  138.1113  150.1854 H   0  0  0  0  0  0  0  0  0  0  0  0
  147.7202  137.3650  153.5367 H   0  0  0  0  0  0  0  0  0  0  0  0
  148.4936  138.0702  152.1363 H   0  0  0  0  0  0  0  0  0  0  0  0
  145.9140  140.3533  153.0945 H   0  0  0  0  0  0  0  0  0  0  0  0
  149.0804  142.8673  155.9464 H   0  0  0  0  0  0  0  0  0  0  0  0
  150.3912  138.3567  154.2570 H   0  0  0  0  0  0  0  0  0  0  0  0
  142.8919  137.1467  152.7825 H   0  0  0  0  0  0  0  0  0  0  0  0
  142.3488  136.4671  151.2735 H   0  0  0  0  0  0  0  0  0  0  0  0
  143.6059  134.8616  153.5675 H   0  0  0  0  0  0  0  0  0  0  0  0
  141.2275  135.4938  153.9862 H   0  0  0  0  0  0  0  0  0  0  0  0
  141.3976  133.7641  153.7046 H   0  0  0  0  0  0  0  0  0  0  0  0
  140.7689  134.8044  152.4294 H   0  0  0  0  0  0  0  0  0  0  0  0
  144.3898  137.3256  150.8582 H   0  0  0  0  0  0  0  0  0  0  0  0
  1  2  1  0  0  0  0
  1 24  1  0  0  0  0
  1 25  1  0  0  0  0
  1 26  1  0  0  0  0
  2 23  1  0  0  0  0
  2  3  1  0  0  0  0
  2 27  1  0  0  0  0
  3  4  1  0  0  0  0
  3 28  1  0  0  0  0
  3 29  1  0  0  0  0
  4  5  1  0  0  0  0
  4 20  1  0  0  0  0
  4 45  1  0  0  0  0
  5  6  1  0  0  0  0
  5 30  1  0  0  0  0
  5 31  1  0  0  0  0
  6  7  1  0  0  0  0
  6  8  1  0  0  0  0
  6 32  1  0  0  0  0
  7 33  1  0  0  0  0
  8  9  1  0  0  0  0
  8 34  1  0  0  0  0
  8 35  1  0  0  0  0
  9 19  1  0  0  0  0
  9 10  1  0  0  0  0
 10 11  2  0  0  0  0
 10 36  1  0  0  0  0
 11 12  1  0  0  0  0
 12 19  2  0  0  0  0
 12 13  1  0  0  0  0
 13 14  2  0  0  0  0
 13 37  1  0  0  0  0
 14 15  1  0  0  0  0
 14 16  1  0  0  0  0
 16 17  1  0  0  0  0
 16 18  2  0  0  0  0
 18 19  1  0  0  0  0
 18 38  1  0  0  0  0
 20 21  1  0  0  0  0
 20 39  1  0  0  0  0
 20 40  1  0  0  0  0
 21 22  1  0  0  0  0
 21 23  1  0  0  0  0
 21 41  1  0  0  0  0
 22 42  1  0  0  0  0
 22 43  1  0  0  0  0
 22 44  1  0  0  0  0
M  CHG  1   4   1
M  END
> <s_m_source_file>
AV-unprocessed.smi

> <i_m_source_file_index>
1824

> <i_lp_mmshare_version>
43012

> <i_f3d_flags>
0

> <s_epik_input>
W0NIM11bQ0BASF0xW0NIMl1OKFtDSDJdW0NASF0oTzEpW0NIM10pW0NIMl1bQ0BIXShbT0hdKVtDSDJdbihbY0hdbjIpYyhjMjMpW2NIXWMoRiljKEYpW2NIXTM=

> <s_epik_cmdline>
J2VwaWtfcHl0aG9uJywgJy1waCcsICc3LjAnLCAnLXRuJywgJzgnLCAnLW1hJywgJzIwMCcsICctbWV0YWxfYmluZGluZycsICctaW1hZScsICc8aW5maWxlLm1hZT4nLCAnLW9tYWUnLCAnPG91dGZpbGUubWFlPic=

> <r_epik_Ionization_Penalty>
0.61967

> <r_epik_Ionization_Penalty_Charging>
0.608065

> <r_epik_Ionization_Penalty_Neutral>
0.0116057

> <r_epik_State_Penalty>
0.664205

> <r_epik_Charging_Adjusted_Penalty>
1.27227

> <i_epik_Tot_Q>
1

> <i_epik_Tot_abs_Q>
1

> <r_epik_Metal_State_Penalty>
0.654947

> <b_epik_Metal_Only>
0

> <s_lp_Force_Field>
OPLS_2005

> <r_lp_Energy>
21.7037

> <b_lp_Chiralities_Consistent>
1

> <s_lp_Variant>
AV-unprocessed.smi:1824-8

> <Gold.Version>
5.8.1

> <Gold.Id.Protein>
6NUR|6NUR_protein|mol2

> <Gold.PLP.Fitness>
50.0004

> <Gold.PLP.PLP>
-41.0451

> <Gold.PLP.part.hbond>
-3.3188

> <Gold.PLP.part.metal>
0.0000

> <Gold.PLP.part.buried>
1.5611

> <Gold.PLP.part.nonpolar>
-39.8699

> <Gold.PLP.part.repulsive>
0.3815

> <Gold.PLP.ligand.clash>
0.0000

> <Gold.PLP.ligand.torsion>
1.5402

> <Gold.PLP.Chemscore.Hbond>
3.0000

> <Gold.PLP.Chemscore.CHOScore>
1.0000

> <Gold.PLP.Chemscore.Metal>
0.0000

> <Gold.Chemscore.Hbonds>
donor molecule, donor type, donor heavy atom, donor atom, acceptor molecule, acceptor atom, score
      L1  H     4    45       P1 10171  1.00
      L1  H     7    33       P1 10171  1.00
      P1  H  7954  7966       L1     7  1.00
      L1  C    10    36       P1 10175  1.00

> <Gold.PLP.Chemscore.Internal.Correction>
0.0357

> <Gold.Rescore>
     Score         DG    S(hbond)    S(metal)    S(lipo)     H(rot)  DE(clash)    DE(int)     intcor
     17.01     -20.72       2.91        0.00      98.02       2.33       2.11       1.60       ----

> <Gold.Chemscore.Fitness>
17.0129

> <Gold.Chemscore.DG>
-20.7212

> <Gold.Chemscore.ZeroCoef>
-5.4800

> <Gold.Chemscore.Hbond>
2.9117

> <Gold.Chemscore.Metal>
0.0000

> <Gold.Chemscore.Lipo>
98.0220

> <Gold.Chemscore.Internal_Hbond>
0.0000

> <Gold.Chemscore.DEClash>
2.1111

> <Gold.Chemscore.DEInternal>
1.5971

> <Gold.Chemscore.Rot>
2.3251

> <Gold.Chemscore.Internal.Correction>
   9.000000E+99

> <Gold.Chemscore.Hbonds>
donor molecule, donor type, donor heavy atom, donor atom, acceptor molecule, acceptor atom, score
      L1  H     4    45       P1 10171  1.00
      L1  H     7    33       P1 10171  0.98
      P1  H  7954  7966       L1     7  0.95

> <Gold.Chemscore.Hbond.Weighted>
-9.7250

> <Gold.Chemscore.Metal.Weighted>
-0.0000

> <Gold.Chemscore.Lipo.Weighted>
-11.4686

> <Gold.Chemscore.Internal_Hbond.Weighted>
0.0000

> <Gold.Chemscore.DEClash.Weighted>
2.1111

> <Gold.Chemscore.DEInternal.Weighted>
1.5971

> <Gold.Chemscore.Rot.Weighted>
5.9523

> <Gold.Chemscore.Internal.Correction.Weighted>
   9.000000E+99

> <Gold.Protein.RotatedTorsions>
[ 6907 6896 6895 6894 ] final  -81.24 input  -60.11 | X-H torsion
[ 7974 7965 7964 7962 ] final   72.44 input  175.53 | X-H torsion
[ 8008 7997 7996 7995 ] final   65.23 input   59.86 | X-H torsion
[ 10167 10162 10161 10158 ] final   -5.79 input  -65.29 | X-H torsion
[ 10718 10713 10712 10709 ] final  -66.70 input   66.30 | X-H torsion
[ 10763 10752 10751 10750 ] final  113.30 input  -60.55 | X-H torsion
[ 11005 11000 10999 10996 ] final  150.20 input  -57.11 | X-H torsion

> <Gold.Protein.ActiveResidues>
 VAL166  LYS551  ARG553  GLY616  TRP617  ASP618  TYR619  PRO620  LYS621  CYS622 
 ASP623  PHE694  ASN695  SER759  ASP760  ASP761  ALA762  ILE779  LEU786  VAL792 
 PHE793  MET794  SER795  GLU796  ALA797  LYS798  CYS799  TRP800  GLU811  SER814 

> <Gold.Protein.RotatedAtoms>
  150.6915  134.3847  159.5049 H   0  0  0  0  0  0  0  0  0  0  0  0  # atno 6907 bound_to 6896
  152.1644  134.8883  160.0548 H   0  0  0  0  0  0  0  0  0  0  0  0  # atno 6908 bound_to 6896
  151.9933  133.3764  159.4190 H   0  0  0  0  0  0  0  0  0  0  0  0  # atno 6909 bound_to 6896
  145.7533  139.2769  143.1418 H   0  0  0  0  0  0  0  0  0  0  0  0  # atno 7974 bound_to 7965
  155.6585  140.3497  155.4774 H   0  0  0  0  0  0  0  0  0  0  0  0  # atno 8008 bound_to 7997
  155.9788  140.1170  157.0768 H   0  0  0  0  0  0  0  0  0  0  0  0  # atno 8009 bound_to 7997
  154.4186  140.1142  156.5394 H   0  0  0  0  0  0  0  0  0  0  0  0  # atno 8010 bound_to 7997
  140.6975  143.6267  150.8561 H   0  0  0  0  0  0  0  0  0  0  0  0  # atno 10167 bound_to 10162
  156.0598  130.4266  150.1746 H   0  0  0  0  0  0  0  0  0  0  0  0  # atno 10718 bound_to 10713
  153.4905  135.3660  155.2489 H   0  0  0  0  0  0  0  0  0  0  0  0  # atno 10763 bound_to 10752
  154.8752  135.3976  154.3594 H   0  0  0  0  0  0  0  0  0  0  0  0  # atno 10764 bound_to 10752
  153.4213  135.7080  153.6358 H   0  0  0  0  0  0  0  0  0  0  0  0  # atno 10765 bound_to 10752
  140.1111  134.8923  157.1937 H   0  0  0  0  0  0  0  0  0  0  0  0  # atno 11005 bound_to 11000
  146.0335  140.8235  142.9864 LP  0  0  0  0  0  0  0  0  0  0  0  0  # atno 17320 bound_to 7965
  144.6845  140.2804  143.7293 LP  0  0  0  0  0  0  0  0  0  0  0  0  # atno 17321 bound_to 7965
  139.9987  143.5768  152.2883 LP  0  0  0  0  0  0  0  0  0  0  0  0  # atno 17342 bound_to 10162
  139.6449  144.7657  151.2263 LP  0  0  0  0  0  0  0  0  0  0  0  0  # atno 17343 bound_to 10162
  156.9816  130.9866  151.3436 LP  0  0  0  0  0  0  0  0  0  0  0  0  # atno 17370 bound_to 10713
  157.5598  130.8238  149.8251 LP  0  0  0  0  0  0  0  0  0  0  0  0  # atno 17371 bound_to 10713
  140.3090  134.3045  155.7271 LP  0  0  0  0  0  0  0  0  0  0  0  0  # atno 17394 bound_to 11000
  141.2130  133.7638  156.9749 LP  0  0  0  0  0  0  0  0  0  0  0  0  # atno 17395 bound_to 11000

$$$$
