AV-unprocessed.smi:832|AV-procd|sdf|3879|dock7
  -GOLD-   22720 1333D 1   1.00000     0.00000
 Structure written by MMmdl.
 42 43  0  0  0  0  0  0  0  0  2 V2000
  144.7145  133.3020  149.9945 C   0  0  0  0  0  0  0  0  0  0  0  0
  144.8919  134.2856  151.1000 C   0  0  0  0  0  0  0  0  0  0  0  0
  145.3946  135.5558  151.1435 C   0  0  0  0  0  0  0  0  0  0  0  0
  145.2639  135.9043  152.5142 C   0  0  0  0  0  0  0  0  0  0  0  0
  145.6845  137.1738  152.9868 N   0  0  0  0  0  0  0  0  0  0  0  0
  146.3468  138.1224  152.3029 C   0  0  0  0  0  0  0  0  0  0  0  0
  146.7089  138.0287  151.1297 O   0  0  0  0  0  0  0  0  0  0  0  0
  146.5675  139.2073  153.0601 N   0  0  0  0  0  0  0  0  0  0  0  0
  147.2814  140.4065  152.6312 C   0  0  0  0  0  0  0  0  0  0  0  0
  147.4475  141.4291  153.7725 C   0  0  1  0  0  0  0  0  0  0  0  0
  146.4448  141.2453  154.9096 C   0  0  0  0  0  0  0  0  0  0  0  0
  147.1209  141.8713  156.1367 C   0  0  0  0  0  0  0  0  0  0  0  0
  148.5515  142.0717  155.7939 N   0  3  1  0  0  0  0  0  0  0  0  0
  149.5170  141.7571  156.8846 C   0  0  0  0  0  0  0  0  0  0  0  0
  149.1577  142.5129  158.1780 C   0  0  0  0  0  0  0  0  0  0  0  0
  150.9659  142.0905  156.4790 C   0  0  0  0  0  0  0  0  0  0  0  0
  148.7832  141.3672  154.5147 C   0  0  0  0  0  0  0  0  0  0  0  0
  144.7306  134.9347  153.2415 N   0  0  0  0  0  0  0  0  0  0  0  0
  144.4878  133.8930  152.3386 O   0  0  0  0  0  0  0  0  0  0  0  0
  145.3090  133.5822  149.1248 H   0  0  0  0  0  0  0  0  0  0  0  0
  143.6698  133.2504  149.6882 H   0  0  0  0  0  0  0  0  0  0  0  0
  145.0252  132.3052  150.3085 H   0  0  0  0  0  0  0  0  0  0  0  0
  145.7906  136.1380  150.3248 H   0  0  0  0  0  0  0  0  0  0  0  0
  145.4551  137.3808  153.9476 H   0  0  0  0  0  0  0  0  0  0  0  0
  146.2351  139.1952  154.0134 H   0  0  0  0  0  0  0  0  0  0  0  0
  148.2651  140.0936  152.2805 H   0  0  0  0  0  0  0  0  0  0  0  0
  146.7845  140.8625  151.7729 H   0  0  0  0  0  0  0  0  0  0  0  0
  147.3237  142.4363  153.3704 H   0  0  0  0  0  0  0  0  0  0  0  0
  145.4767  141.6964  154.6891 H   0  0  0  0  0  0  0  0  0  0  0  0
  146.2787  140.1825  155.0922 H   0  0  0  0  0  0  0  0  0  0  0  0
  146.6777  142.8368  156.3833 H   0  0  0  0  0  0  0  0  0  0  0  0
  146.9937  141.2169  157.0004 H   0  0  0  0  0  0  0  0  0  0  0  0
  149.4626  140.6862  157.0866 H   0  0  0  0  0  0  0  0  0  0  0  0
  149.8754  142.2943  158.9693 H   0  0  0  0  0  0  0  0  0  0  0  0
  148.1747  142.2352  158.5579 H   0  0  0  0  0  0  0  0  0  0  0  0
  149.1609  143.5920  158.0198 H   0  0  0  0  0  0  0  0  0  0  0  0
  151.6541  141.9077  157.3049 H   0  0  0  0  0  0  0  0  0  0  0  0
  151.0678  143.1375  156.1915 H   0  0  0  0  0  0  0  0  0  0  0  0
  151.3085  141.4782  155.6446 H   0  0  0  0  0  0  0  0  0  0  0  0
  149.0531  140.3285  154.7136 H   0  0  0  0  0  0  0  0  0  0  0  0
  149.5910  141.8278  153.9450 H   0  0  0  0  0  0  0  0  0  0  0  0
  148.6514  143.0551  155.5861 H   0  0  0  0  0  0  0  0  0  0  0  0
  1  2  1  0  0  0  0
  1 20  1  0  0  0  0
  1 21  1  0  0  0  0
  1 22  1  0  0  0  0
  2 19  1  0  0  0  0
  2  3  2  0  0  0  0
  3  4  1  0  0  0  0
  3 23  1  0  0  0  0
  4  5  1  0  0  0  0
  4 18  2  0  0  0  0
  5  6  1  0  0  0  0
  5 24  1  0  0  0  0
  6  7  2  0  0  0  0
  6  8  1  0  0  0  0
  8  9  1  0  0  0  0
  8 25  1  0  0  0  0
  9 10  1  0  0  0  0
  9 26  1  0  0  0  0
  9 27  1  0  0  0  0
 10 17  1  0  0  0  0
 10 11  1  0  0  0  0
 10 28  1  0  0  0  0
 11 12  1  0  0  0  0
 11 29  1  0  0  0  0
 11 30  1  0  0  0  0
 12 13  1  0  0  0  0
 12 31  1  0  0  0  0
 12 32  1  0  0  0  0
 13 14  1  0  0  0  0
 13 17  1  0  0  0  0
 13 42  1  0  0  0  0
 14 15  1  0  0  0  0
 14 16  1  0  0  0  0
 14 33  1  0  0  0  0
 15 34  1  0  0  0  0
 15 35  1  0  0  0  0
 15 36  1  0  0  0  0
 16 37  1  0  0  0  0
 16 38  1  0  0  0  0
 16 39  1  0  0  0  0
 17 40  1  0  0  0  0
 17 41  1  0  0  0  0
 18 19  1  0  0  0  0
M  CHG  1  13   1
M  END
> <s_m_source_file>
AV-unprocessed.smi

> <i_m_source_file_index>
832

> <i_lp_mmshare_version>
43012

> <i_f3d_flags>
0

> <s_epik_input>
W0NIM11jMVtjSF1jKG5vMSlbTkhdQyg9TylbTkhdW0NIMl1bQ0BASF0yW0NIMl1bQ0gyXU4oW0NIMl0yKVtDSF0oW0NIM10pW0NIM10=

> <s_epik_cmdline>
J2VwaWtfcHl0aG9uJywgJy1waCcsICc3LjAnLCAnLXRuJywgJzgnLCAnLW1hJywgJzIwMCcsICctbWV0YWxfYmluZGluZycsICctaW1hZScsICc8aW5maWxlLm1hZT4nLCAnLW9tYWUnLCAnPG91dGZpbGUubWFlPic=

> <r_lp_tautomer_probability>
1

> <r_epik_Ionization_Penalty>
0.000242791

> <r_epik_Ionization_Penalty_Charging>
0.000220876

> <r_epik_Ionization_Penalty_Neutral>
2.19143e-05

> <r_epik_State_Penalty>
-0

> <r_epik_Charging_Adjusted_Penalty>
0.000220876

> <i_epik_Tot_Q>
1

> <i_epik_Tot_abs_Q>
1

> <r_epik_Metal_State_Penalty>
-0

> <b_epik_Metal_Only>
0

> <s_lp_Force_Field>
OPLS_2005

> <r_lp_Energy>
26.1652

> <b_lp_Chiralities_Consistent>
1

> <s_lp_Variant>
AV-unprocessed.smi:832-4

> <Gold.Version>
5.8.1

> <Gold.Id.Protein>
6NUR|6NUR_protein|mol2

> <Gold.PLP.Fitness>
38.5359

> <Gold.PLP.PLP>
-30.6238

> <Gold.PLP.part.hbond>
-2.8985

> <Gold.PLP.part.metal>
0.0000

> <Gold.PLP.part.buried>
-4.3830

> <Gold.PLP.part.nonpolar>
-25.4678

> <Gold.PLP.part.repulsive>
1.5708

> <Gold.PLP.ligand.clash>
0.0000

> <Gold.PLP.ligand.torsion>
0.5549

> <Gold.PLP.Chemscore.Hbond>
3.0000

> <Gold.PLP.Chemscore.CHOScore>
0.0000

> <Gold.PLP.Chemscore.Metal>
0.0000

> <Gold.Chemscore.Hbonds>
donor molecule, donor type, donor heavy atom, donor atom, acceptor molecule, acceptor atom, score
      L1  H    13    42       P1  8028  2.00
      P1  H  7954  7966       L1     7  1.00

> <Gold.PLP.Chemscore.Internal.Correction>
0.0220

> <Gold.Rescore>
     Score         DG    S(hbond)    S(metal)    S(lipo)     H(rot)  DE(clash)    DE(int)     intcor
     12.51     -16.33       1.98        0.00      69.33       1.51       1.78       2.04       ----

> <Gold.Chemscore.Fitness>
12.5070

> <Gold.Chemscore.DG>
-16.3325

> <Gold.Chemscore.ZeroCoef>
-5.4800

> <Gold.Chemscore.Hbond>
1.9817

> <Gold.Chemscore.Metal>
0.0000

> <Gold.Chemscore.Lipo>
69.3266

> <Gold.Chemscore.Internal_Hbond>
0.0000

> <Gold.Chemscore.DEClash>
1.7838

> <Gold.Chemscore.DEInternal>
2.0417

> <Gold.Chemscore.Rot>
1.5146

> <Gold.Chemscore.Internal.Correction>
   9.000000E+99

> <Gold.Chemscore.Hbonds>
donor molecule, donor type, donor heavy atom, donor atom, acceptor molecule, acceptor atom, score
      L1  H    13    42       P1  8028  1.00
      P1  H  7954  7966       L1     7  1.00

> <Gold.Chemscore.Hbond.Weighted>
-6.6187

> <Gold.Chemscore.Metal.Weighted>
-0.0000

> <Gold.Chemscore.Lipo.Weighted>
-8.1112

> <Gold.Chemscore.Internal_Hbond.Weighted>
0.0000

> <Gold.Chemscore.DEClash.Weighted>
1.7838

> <Gold.Chemscore.DEInternal.Weighted>
2.0417

> <Gold.Chemscore.Rot.Weighted>
3.8774

> <Gold.Chemscore.Internal.Correction.Weighted>
   9.000000E+99

> <Gold.Protein.RotatedTorsions>
[ 6907 6896 6895 6894 ] final -177.12 input  -60.11 | X-H torsion
[ 7974 7965 7964 7962 ] final  138.90 input  175.53 | X-H torsion
[ 8008 7997 7996 7995 ] final  -94.83 input   59.86 | X-H torsion
[ 10167 10162 10161 10158 ] final  153.08 input  -65.29 | X-H torsion
[ 10718 10713 10712 10709 ] final  -73.30 input   66.30 | X-H torsion
[ 10763 10752 10751 10750 ] final   10.71 input  -60.55 | X-H torsion
[ 11005 11000 10999 10996 ] final  -86.48 input  -57.11 | X-H torsion

> <Gold.Protein.ActiveResidues>
 VAL166  LYS551  ARG553  GLY616  TRP617  ASP618  TYR619  PRO620  LYS621  CYS622 
 ASP623  PHE694  ASN695  SER759  ASP760  ASP761  ALA762  ILE779  LEU786  VAL792 
 PHE793  MET794  SER795  GLU796  ALA797  LYS798  CYS799  TRP800  GLU811  SER814 

> <Gold.Protein.RotatedAtoms>
  151.6158  133.3343  159.3077 H   0  0  0  0  0  0  0  0  0  0  0  0  # atno 6907 bound_to 6896
  150.8132  134.7302  159.6718 H   0  0  0  0  0  0  0  0  0  0  0  0  # atno 6908 bound_to 6896
  152.4228  134.5928  160.0030 H   0  0  0  0  0  0  0  0  0  0  0  0  # atno 6909 bound_to 6896
  144.9329  139.5025  143.5609 H   0  0  0  0  0  0  0  0  0  0  0  0  # atno 7974 bound_to 7965
  154.7535  140.0485  157.0913 H   0  0  0  0  0  0  0  0  0  0  0  0  # atno 8008 bound_to 7997
  155.0027  140.3126  155.4841 H   0  0  0  0  0  0  0  0  0  0  0  0  # atno 8009 bound_to 7997
  156.2890  140.2198  156.5138 H   0  0  0  0  0  0  0  0  0  0  0  0  # atno 8010 bound_to 7997
  139.4829  144.5303  151.7733 H   0  0  0  0  0  0  0  0  0  0  0  0  # atno 10167 bound_to 10162
  156.0285  130.4391  150.2722 H   0  0  0  0  0  0  0  0  0  0  0  0  # atno 10718 bound_to 10713
  153.2003  135.6855  153.8239 H   0  0  0  0  0  0  0  0  0  0  0  0  # atno 10763 bound_to 10752
  153.7508  135.3224  155.3322 H   0  0  0  0  0  0  0  0  0  0  0  0  # atno 10764 bound_to 10752
  154.8168  135.4680  154.0766 H   0  0  0  0  0  0  0  0  0  0  0  0  # atno 10765 bound_to 10752
  141.1629  133.7457  156.9168 H   0  0  0  0  0  0  0  0  0  0  0  0  # atno 11005 bound_to 11000
  146.3254  139.8292  142.8911 LP  0  0  0  0  0  0  0  0  0  0  0  0  # atno 17320 bound_to 7965
  145.3113  141.0220  143.3553 LP  0  0  0  0  0  0  0  0  0  0  0  0  # atno 17321 bound_to 7965
  140.4829  144.1423  150.5936 LP  0  0  0  0  0  0  0  0  0  0  0  0  # atno 17342 bound_to 10162
  140.4258  143.2591  151.9658 LP  0  0  0  0  0  0  0  0  0  0  0  0  # atno 17343 bound_to 10162
  157.0825  131.0147  151.3151 LP  0  0  0  0  0  0  0  0  0  0  0  0  # atno 17370 bound_to 10713
  157.4916  130.7825  149.7513 LP  0  0  0  0  0  0  0  0  0  0  0  0  # atno 17371 bound_to 10713
  140.1479  134.9250  157.2554 LP  0  0  0  0  0  0  0  0  0  0  0  0  # atno 17394 bound_to 11000
  140.2758  134.3407  155.7359 LP  0  0  0  0  0  0  0  0  0  0  0  0  # atno 17395 bound_to 11000

$$$$
