AV-unprocessed.smi:1056|AV-procd|sdf|4645|dock2
  -GOLD-   22720 3153D 1   1.00000     0.00000
 Structure written by MMmdl.
 44 46  0  0  0  0  0  0  0  0  3 V2000
  152.9311  143.0252  160.5935 C   0  0  0  0  0  0  0  0  0  0  0  0
  152.2273  142.6105  159.3129 C   0  0  0  0  0  0  0  0  0  0  0  0
  152.5835  141.3892  158.6981 C   0  0  0  0  0  0  0  0  0  0  0  0
  151.9506  140.9652  157.5093 C   0  0  0  0  0  0  0  0  0  0  0  0
  152.1410  139.8255  156.7471 N   0  0  0  0  0  0  0  0  0  0  0  0
  151.2566  140.0045  155.7708 C   0  0  0  0  0  0  0  0  0  0  0  0
  150.5171  141.1294  155.8071 N   0  0  0  0  0  0  0  0  0  0  0  0
  149.4992  141.5331  154.8543 C   0  0  0  0  0  0  0  0  0  0  0  0
  148.0697  141.2710  155.3669 C   0  0  1  0  0  0  0  0  0  0  0  0
  147.8397  142.1539  156.4470 O   0  0  0  0  0  0  0  0  0  0  0  0
  146.9848  141.4955  154.2893 C   0  0  0  0  0  0  0  0  0  0  0  0
  146.4610  140.2275  153.7208 N   0  3  1  0  0  0  0  0  0  0  0  0
  147.3941  139.6141  152.7413 C   0  0  0  0  0  0  0  0  0  0  0  0
  146.6848  138.4950  151.9553 C   0  0  0  0  0  0  0  0  0  0  0  0
  145.9621  137.6061  152.8726 N   0  5  0  0  0  0  0  0  0  0  0  0
  145.5320  137.9157  154.1352 C   0  0  0  0  0  0  0  0  0  0  0  0
  144.8142  137.2070  154.8371 O   0  0  0  0  0  0  0  0  0  0  0  0
  146.0275  139.2484  154.7590 C   0  0  0  0  0  0  0  0  0  0  0  0
  150.9418  141.8020  156.9484 C   0  0  0  0  0  0  0  0  0  0  0  0
  150.5803  143.0207  157.5494 C   0  0  0  0  0  0  0  0  0  0  0  0
  151.2245  143.4304  158.7357 C   0  0  0  0  0  0  0  0  0  0  0  0
  150.8274  144.7479  159.3772 C   0  0  0  0  0  0  0  0  0  0  0  0
  153.6315  142.2598  160.9290 H   0  0  0  0  0  0  0  0  0  0  0  0
  152.2083  143.1876  161.3931 H   0  0  0  0  0  0  0  0  0  0  0  0
  153.4915  143.9477  160.4401 H   0  0  0  0  0  0  0  0  0  0  0  0
  153.3477  140.7648  159.1371 H   0  0  0  0  0  0  0  0  0  0  0  0
  151.1402  139.2767  154.9809 H   0  0  0  0  0  0  0  0  0  0  0  0
  149.6354  142.5950  154.6439 H   0  0  0  0  0  0  0  0  0  0  0  0
  149.6720  141.0069  153.9145 H   0  0  0  0  0  0  0  0  0  0  0  0
  148.0279  140.2519  155.7496 H   0  0  0  0  0  0  0  0  0  0  0  0
  148.3644  142.9304  156.3261 H   0  0  0  0  0  0  0  0  0  0  0  0
  146.1697  142.0645  154.7390 H   0  0  0  0  0  0  0  0  0  0  0  0
  147.3641  142.1069  153.4701 H   0  0  0  0  0  0  0  0  0  0  0  0
  147.7564  140.3633  152.0365 H   0  0  0  0  0  0  0  0  0  0  0  0
  148.2676  139.2230  153.2659 H   0  0  0  0  0  0  0  0  0  0  0  0
  145.9980  138.9534  151.2434 H   0  0  0  0  0  0  0  0  0  0  0  0
  147.4173  137.9551  151.3557 H   0  0  0  0  0  0  0  0  0  0  0  0
  146.8566  139.0281  155.4330 H   0  0  0  0  0  0  0  0  0  0  0  0
  145.2225  139.6663  155.3623 H   0  0  0  0  0  0  0  0  0  0  0  0
  149.8140  143.6356  157.1013 H   0  0  0  0  0  0  0  0  0  0  0  0
  150.0836  145.2741  158.7782 H   0  0  0  0  0  0  0  0  0  0  0  0
  151.6944  145.4005  159.4814 H   0  0  0  0  0  0  0  0  0  0  0  0
  150.4016  144.5764  160.3659 H   0  0  0  0  0  0  0  0  0  0  0  0
  145.6381  140.4647  153.1862 H   0  0  0  0  0  0  0  0  0  0  0  0
  1  2  1  0  0  0  0
  1 23  1  0  0  0  0
  1 24  1  0  0  0  0
  1 25  1  0  0  0  0
  2 21  1  0  0  0  0
  2  3  2  0  0  0  0
  3  4  1  0  0  0  0
  3 26  1  0  0  0  0
  4 19  2  0  0  0  0
  4  5  1  0  0  0  0
  5  6  2  0  0  0  0
  6  7  1  0  0  0  0
  6 27  1  0  0  0  0
  7  8  1  0  0  0  0
  7 19  1  0  0  0  0
  8  9  1  0  0  0  0
  8 28  1  0  0  0  0
  8 29  1  0  0  0  0
  9 10  1  0  0  0  0
  9 11  1  0  0  0  0
  9 30  1  0  0  0  0
 10 31  1  0  0  0  0
 11 12  1  0  0  0  0
 11 32  1  0  0  0  0
 11 33  1  0  0  0  0
 12 18  1  0  0  0  0
 12 13  1  0  0  0  0
 12 44  1  0  0  0  0
 13 14  1  0  0  0  0
 13 34  1  0  0  0  0
 13 35  1  0  0  0  0
 14 15  1  0  0  0  0
 14 36  1  0  0  0  0
 14 37  1  0  0  0  0
 15 16  1  0  0  0  0
 16 17  2  0  0  0  0
 16 18  1  0  0  0  0
 18 38  1  0  0  0  0
 18 39  1  0  0  0  0
 19 20  1  0  0  0  0
 20 21  2  0  0  0  0
 20 40  1  0  0  0  0
 21 22  1  0  0  0  0
 22 41  1  0  0  0  0
 22 42  1  0  0  0  0
 22 43  1  0  0  0  0
M  CHG  1  12   1
M  CHG  1  15  -1
M  END
> <s_m_source_file>
AV-unprocessed.smi

> <i_m_source_file_index>
1056

> <i_lp_mmshare_version>
43012

> <i_f3d_flags>
0

> <s_epik_input>
W0NIM11jKFtjSF0xKWMoW0NIM10pW2NIXWMoYzEyKW4oW2NIXW4yKVtDSDJdW0NASF0oW09IXSlbQ0gyXU4zW0NIMl1bQ0gyXVtOSF1DKD1PKVtDSDJdMw==

> <s_epik_cmdline>
J2VwaWtfcHl0aG9uJywgJy1waCcsICc3LjAnLCAnLXRuJywgJzgnLCAnLW1hJywgJzIwMCcsICctbWV0YWxfYmluZGluZycsICctaW1hZScsICc8aW5maWxlLm1hZT4nLCAnLW9tYWUnLCAnPG91dGZpbGUubWFlPic=

> <r_epik_Ionization_Penalty>
5.13411

> <r_epik_Ionization_Penalty_Charging>
5.04792

> <r_epik_Ionization_Penalty_Neutral>
0.0861879

> <r_epik_State_Penalty>
5.18224

> <r_epik_Charging_Adjusted_Penalty>
10.2302

> <i_epik_Tot_Q>
0

> <i_epik_Tot_abs_Q>
2

> <r_epik_Metal_State_Penalty>
1.33873

> <b_epik_Metal_Only>
1

> <s_lp_Force_Field>
OPLS_2005

> <r_lp_Energy>
19.55

> <b_lp_Chiralities_Consistent>
1

> <s_lp_Variant>
AV-unprocessed.smi:1056-16

> <Gold.Version>
5.8.1

> <Gold.Id.Protein>
6NUR|6NUR_protein|mol2

> <Gold.PLP.Fitness>
49.0895

> <Gold.PLP.PLP>
-41.3619

> <Gold.PLP.part.hbond>
-2.2152

> <Gold.PLP.part.metal>
0.0000

> <Gold.PLP.part.buried>
-1.3177

> <Gold.PLP.part.nonpolar>
-38.5688

> <Gold.PLP.part.repulsive>
0.2905

> <Gold.PLP.ligand.clash>
0.0000

> <Gold.PLP.ligand.torsion>
0.9865

> <Gold.PLP.Chemscore.Hbond>
3.2145

> <Gold.PLP.Chemscore.CHOScore>
0.0000

> <Gold.PLP.Chemscore.Metal>
0.0000

> <Gold.Chemscore.Hbonds>
donor molecule, donor type, donor heavy atom, donor atom, acceptor molecule, acceptor atom, score
      L1  H    10    31       P1  8028  1.00
      L1  H    12    44       P1 10175  1.76
      P1  H  7997  8009       L1     5  0.39

> <Gold.PLP.Chemscore.Internal.Correction>
0.0570

> <Gold.Rescore>
     Score         DG    S(hbond)    S(metal)    S(lipo)     H(rot)  DE(clash)    DE(int)     intcor
     17.76     -19.22       1.93        0.00     112.92       2.31       0.29       1.17       ----

> <Gold.Chemscore.Fitness>
17.7587

> <Gold.Chemscore.DG>
-19.2156

> <Gold.Chemscore.ZeroCoef>
-5.4800

> <Gold.Chemscore.Hbond>
1.9312

> <Gold.Chemscore.Metal>
0.0000

> <Gold.Chemscore.Lipo>
112.9152

> <Gold.Chemscore.Internal_Hbond>
0.0000

> <Gold.Chemscore.DEClash>
0.2907

> <Gold.Chemscore.DEInternal>
1.1662

> <Gold.Chemscore.Rot>
2.3147

> <Gold.Chemscore.Internal.Correction>
   9.000000E+99

> <Gold.Chemscore.Hbonds>
donor molecule, donor type, donor heavy atom, donor atom, acceptor molecule, acceptor atom, score
      L1  H    10    31       P1  8028  0.80
      L1  H    12    44       P1 10175  0.79
      P1  H  7997  8009       L1     5  0.06

> <Gold.Chemscore.Hbond.Weighted>
-6.4501

> <Gold.Chemscore.Metal.Weighted>
-0.0000

> <Gold.Chemscore.Lipo.Weighted>
-13.2111

> <Gold.Chemscore.Internal_Hbond.Weighted>
0.0000

> <Gold.Chemscore.DEClash.Weighted>
0.2907

> <Gold.Chemscore.DEInternal.Weighted>
1.1662

> <Gold.Chemscore.Rot.Weighted>
5.9256

> <Gold.Chemscore.Internal.Correction.Weighted>
   9.000000E+99

> <Gold.Protein.RotatedTorsions>
[ 6907 6896 6895 6894 ] final  -84.48 input  -60.11 | X-H torsion
[ 7974 7965 7964 7962 ] final  -73.91 input  175.53 | X-H torsion
[ 8008 7997 7996 7995 ] final -165.67 input   59.86 | X-H torsion
[ 10167 10162 10161 10158 ] final   51.81 input  -65.29 | X-H torsion
[ 10718 10713 10712 10709 ] final -164.31 input   66.30 | X-H torsion
[ 10763 10752 10751 10750 ] final  -76.05 input  -60.55 | X-H torsion
[ 11005 11000 10999 10996 ] final  142.15 input  -57.11 | X-H torsion

> <Gold.Protein.ActiveResidues>
 VAL166  LYS551  ARG553  GLY616  TRP617  ASP618  TYR619  PRO620  LYS621  CYS622 
 ASP623  PHE694  ASN695  SER759  ASP760  ASP761  ALA762  ILE779  LEU786  VAL792 
 PHE793  MET794  SER795  GLU796  ALA797  LYS798  CYS799  TRP800  GLU811  SER814 

> <Gold.Protein.RotatedAtoms>
  150.6876  134.3353  159.4844 H   0  0  0  0  0  0  0  0  0  0  0  0  # atno 6907 bound_to 6896
  152.1212  134.9201  160.0572 H   0  0  0  0  0  0  0  0  0  0  0  0  # atno 6908 bound_to 6896
  152.0406  133.3941  159.4372 H   0  0  0  0  0  0  0  0  0  0  0  0  # atno 6909 bound_to 6896
  145.6460  140.9297  143.1010 H   0  0  0  0  0  0  0  0  0  0  0  0  # atno 7974 bound_to 7965
  155.8531  140.0966  157.1662 H   0  0  0  0  0  0  0  0  0  0  0  0  # atno 8008 bound_to 7997
  154.3986  140.1379  156.3931 H   0  0  0  0  0  0  0  0  0  0  0  0  # atno 8009 bound_to 7997
  155.7939  140.3455  155.5367 H   0  0  0  0  0  0  0  0  0  0  0  0  # atno 8010 bound_to 7997
  140.2580  144.3405  150.6327 H   0  0  0  0  0  0  0  0  0  0  0  0  # atno 10167 bound_to 10162
  156.6372  130.8954  151.2989 H   0  0  0  0  0  0  0  0  0  0  0  0  # atno 10718 bound_to 10713
  154.4946  135.5811  153.6485 H   0  0  0  0  0  0  0  0  0  0  0  0  # atno 10763 bound_to 10752
  152.9868  135.6121  154.3080 H   0  0  0  0  0  0  0  0  0  0  0  0  # atno 10764 bound_to 10752
  154.2983  135.2847  155.2602 H   0  0  0  0  0  0  0  0  0  0  0  0  # atno 10765 bound_to 10752
  140.0455  134.9283  157.0922 H   0  0  0  0  0  0  0  0  0  0  0  0  # atno 11005 bound_to 11000
  144.7140  139.8265  143.7405 LP  0  0  0  0  0  0  0  0  0  0  0  0  # atno 17320 bound_to 7965
  146.1242  139.4265  143.0209 LP  0  0  0  0  0  0  0  0  0  0  0  0  # atno 17321 bound_to 7965
  140.5989  143.2167  151.7111 LP  0  0  0  0  0  0  0  0  0  0  0  0  # atno 17342 bound_to 10162
  139.5025  144.3824  152.0362 LP  0  0  0  0  0  0  0  0  0  0  0  0  # atno 17343 bound_to 10162
  157.7182  130.9524  150.1336 LP  0  0  0  0  0  0  0  0  0  0  0  0  # atno 17370 bound_to 10713
  156.2188  130.3672  149.8581 LP  0  0  0  0  0  0  0  0  0  0  0  0  # atno 17371 bound_to 10713
  140.4000  134.2093  155.7164 LP  0  0  0  0  0  0  0  0  0  0  0  0  # atno 17394 bound_to 11000
  141.1905  133.8216  157.0917 LP  0  0  0  0  0  0  0  0  0  0  0  0  # atno 17395 bound_to 11000

$$$$
