AV-unprocessed.smi:1830|AV-procd|sdf|7450|dock2
  -GOLD-   22720 9143D 1   1.00000     0.00000
 Structure written by MMmdl.
 54 57  0  0  0  0  0  0  0  0  3 V2000
  150.0803  134.2190  155.7640 O   0  0  0  0  0  0  0  0  0  0  0  0
  149.7243  134.8160  154.7484 C   0  0  0  0  0  0  0  0  0  0  0  0
  149.9784  136.1130  154.5263 N   0  0  0  0  0  0  0  0  0  0  0  0
  150.6979  136.9905  155.4439 C   0  0  0  0  0  0  0  0  0  0  0  0
  151.3128  138.2081  154.7175 C   0  0  2  0  0  0  0  0  0  0  0  0
  152.1178  139.1320  155.6636 C   0  0  0  0  0  0  0  0  0  0  0  0
  151.1796  139.9215  156.4826 N   0  3  1  0  0  0  0  0  0  0  0  0
  151.7399  140.8710  157.4596 C   0  0  0  0  0  0  0  0  0  0  0  0
  150.6275  141.9157  157.6786 C   0  0  0  0  0  0  0  0  0  0  0  0
  149.5315  141.5811  156.6510 C   0  0  0  0  0  0  0  0  0  0  0  0
  150.2586  140.6935  155.6457 C   0  0  2  0  0  0  0  0  0  0  0  0
  149.4209  139.7281  154.7994 C   0  0  0  0  0  0  0  0  0  0  0  0
  150.3167  138.9525  153.9981 O   0  0  0  0  0  0  0  0  0  0  0  0
  149.0251  134.2735  153.7376 N   0  0  0  0  0  0  0  0  0  0  0  0
  148.5331  132.9414  153.6313 C   0  0  0  0  0  0  0  0  0  0  0  0
  149.1114  131.8827  154.3782 C   0  0  0  0  0  0  0  0  0  0  0  0
  148.5895  130.5801  154.2718 C   0  0  0  0  0  0  0  0  0  0  0  0
  147.4985  130.3529  153.4158 C   0  0  0  0  0  0  0  0  0  0  0  0
  146.9839  131.3756  152.7024 N   0  3  0  0  0  0  0  0  0  0  0  0
  147.4519  132.6481  152.7499 C   0  0  0  0  0  0  0  0  0  0  0  0
  146.8206  133.6141  151.9336 N   0  0  0  0  0  0  0  0  0  0  0  0
  146.1932  134.7881  152.5292 C   0  0  0  0  0  0  0  0  0  0  0  0
  145.3446  135.3903  151.4132 C   0  0  0  0  0  0  0  0  0  0  0  0
  144.8601  134.1518  150.6648 C   0  0  0  0  0  0  0  0  0  0  0  0
  146.0276  133.1670  150.7928 C   0  0  0  0  0  0  0  0  0  0  0  0
  149.6488  136.5249  153.6655 H   0  0  0  0  0  0  0  0  0  0  0  0
  150.0080  137.3063  156.2258 H   0  0  0  0  0  0  0  0  0  0  0  0
  151.4807  136.4229  155.9502 H   0  0  0  0  0  0  0  0  0  0  0  0
  152.0107  137.8279  153.9710 H   0  0  0  0  0  0  0  0  0  0  0  0
  152.7820  138.5518  156.3050 H   0  0  0  0  0  0  0  0  0  0  0  0
  152.7460  139.8075  155.0805 H   0  0  0  0  0  0  0  0  0  0  0  0
  152.0252  140.3617  158.3804 H   0  0  0  0  0  0  0  0  0  0  0  0
  152.6287  141.3507  157.0465 H   0  0  0  0  0  0  0  0  0  0  0  0
  150.2330  141.8778  158.6944 H   0  0  0  0  0  0  0  0  0  0  0  0
  151.0188  142.9206  157.5159 H   0  0  0  0  0  0  0  0  0  0  0  0
  148.7282  141.0235  157.1350 H   0  0  0  0  0  0  0  0  0  0  0  0
  149.0954  142.4688  156.1917 H   0  0  0  0  0  0  0  0  0  0  0  0
  150.8428  141.3342  154.9814 H   0  0  0  0  0  0  0  0  0  0  0  0
  148.7982  139.0852  155.4220 H   0  0  0  0  0  0  0  0  0  0  0  0
  148.7499  140.2824  154.1433 H   0  0  0  0  0  0  0  0  0  0  0  0
  148.7179  134.9104  153.0173 H   0  0  0  0  0  0  0  0  0  0  0  0
  149.9549  132.0496  155.0308 H   0  0  0  0  0  0  0  0  0  0  0  0
  149.0197  129.7687  154.8407 H   0  0  0  0  0  0  0  0  0  0  0  0
  147.0302  129.3896  153.2734 H   0  0  0  0  0  0  0  0  0  0  0  0
  145.5500  134.4975  153.3610 H   0  0  0  0  0  0  0  0  0  0  0  0
  146.9374  135.4947  152.8979 H   0  0  0  0  0  0  0  0  0  0  0  0
  144.5305  136.0129  151.7860 H   0  0  0  0  0  0  0  0  0  0  0  0
  145.9676  136.0011  150.7583 H   0  0  0  0  0  0  0  0  0  0  0  0
  143.9797  133.7447  151.1640 H   0  0  0  0  0  0  0  0  0  0  0  0
  144.5917  134.3583  149.6283 H   0  0  0  0  0  0  0  0  0  0  0  0
  146.6469  133.2074  149.8963 H   0  0  0  0  0  0  0  0  0  0  0  0
  145.6706  132.1434  150.9160 H   0  0  0  0  0  0  0  0  0  0  0  0
  150.6138  139.2713  157.0089 H   0  0  0  0  0  0  0  0  0  0  0  0
  146.1989  131.1763  152.0822 H   0  0  0  0  0  0  0  0  0  0  0  0
  1  2  2  0  0  0  0
  2  3  1  0  0  0  0
  2 14  1  0  0  0  0
  3  4  1  0  0  0  0
  3 26  1  0  0  0  0
  4  5  1  0  0  0  0
  4 27  1  0  0  0  0
  4 28  1  0  0  0  0
  5 13  1  0  0  0  0
  5  6  1  0  0  0  0
  5 29  1  0  0  0  0
  6  7  1  0  0  0  0
  6 30  1  0  0  0  0
  6 31  1  0  0  0  0
  7 11  1  0  0  0  0
  7  8  1  0  0  0  0
  7 53  1  0  0  0  0
  8  9  1  0  0  0  0
  8 32  1  0  0  0  0
  8 33  1  0  0  0  0
  9 10  1  0  0  0  0
  9 34  1  0  0  0  0
  9 35  1  0  0  0  0
 10 11  1  0  0  0  0
 10 36  1  0  0  0  0
 10 37  1  0  0  0  0
 11 12  1  0  0  0  0
 11 38  1  0  0  0  0
 12 13  1  0  0  0  0
 12 39  1  0  0  0  0
 12 40  1  0  0  0  0
 14 15  1  0  0  0  0
 14 41  1  0  0  0  0
 15 20  1  0  0  0  0
 15 16  2  0  0  0  0
 16 17  1  0  0  0  0
 16 42  1  0  0  0  0
 17 18  2  0  0  0  0
 17 43  1  0  0  0  0
 18 19  1  0  0  0  0
 18 44  1  0  0  0  0
 19 20  2  0  0  0  0
 19 54  1  0  0  0  0
 20 21  1  0  0  0  0
 21 25  1  0  0  0  0
 21 22  1  0  0  0  0
 22 23  1  0  0  0  0
 22 45  1  0  0  0  0
 22 46  1  0  0  0  0
 23 24  1  0  0  0  0
 23 47  1  0  0  0  0
 23 48  1  0  0  0  0
 24 25  1  0  0  0  0
 24 49  1  0  0  0  0
 24 50  1  0  0  0  0
 25 51  1  0  0  0  0
 25 52  1  0  0  0  0
M  CHG  1   7   1
M  CHG  1  19   1
M  END
> <s_m_source_file>
AV-unprocessed.smi

> <i_m_source_file_index>
1830

> <i_lp_mmshare_version>
43012

> <i_f3d_flags>
0

> <s_epik_input>
W0NIMl0xW0NIMl1bQ0gyXVtDQEhdKE4xMilbQ0gyXU9bQ0BASF0oW0NIMl0yKVtDSDJdW05IXUMoPU8pW05IXWMzW2NIXVtjSF1bY0hdbmMzTjRbQ0gyXVtDSDJdW0NIMl1bQ0gyXTQ=

> <s_epik_cmdline>
J2VwaWtfcHl0aG9uJywgJy1waCcsICc3LjAnLCAnLXRuJywgJzgnLCAnLW1hJywgJzIwMCcsICctbWV0YWxfYmluZGluZycsICctaW1hZScsICc8aW5maWxlLm1hZT4nLCAnLW9tYWUnLCAnPG91dGZpbGUubWFlPic=

> <r_lp_tautomer_probability>
0.999994

> <r_epik_Ionization_Penalty>
1.29113

> <r_epik_Ionization_Penalty_Charging>
1.29111

> <r_epik_Ionization_Penalty_Neutral>
1.88144e-05

> <r_epik_State_Penalty>
1.32676

> <r_epik_Charging_Adjusted_Penalty>
2.61787

> <i_epik_Tot_Q>
2

> <i_epik_Tot_abs_Q>
2

> <r_epik_Metal_State_Penalty>
1.40425

> <b_epik_Metal_Only>
0

> <s_lp_Force_Field>
OPLS_2005

> <r_lp_Energy>
76.6475

> <b_lp_Chiralities_Consistent>
1

> <s_lp_Variant>
AV-unprocessed.smi:1830-19

> <Gold.Version>
5.8.1

> <Gold.Id.Protein>
6NUR|6NUR_protein|mol2

> <Gold.PLP.Fitness>
47.9596

> <Gold.PLP.PLP>
-42.4119

> <Gold.PLP.part.hbond>
-3.3032

> <Gold.PLP.part.metal>
0.0000

> <Gold.PLP.part.buried>
-3.8278

> <Gold.PLP.part.nonpolar>
-36.4038

> <Gold.PLP.part.repulsive>
0.9734

> <Gold.PLP.ligand.clash>
0.0000

> <Gold.PLP.ligand.torsion>
0.5403

> <Gold.PLP.Chemscore.Hbond>
2.0770

> <Gold.PLP.Chemscore.CHOScore>
0.0000

> <Gold.PLP.Chemscore.Metal>
0.0000

> <Gold.Chemscore.Hbonds>
donor molecule, donor type, donor heavy atom, donor atom, acceptor molecule, acceptor atom, score
      L1  H     3    26       P1  7948  0.94
      L1  H    14    41       P1  7948  1.00
      P1  H  7989  7998       L1    13  0.09

> <Gold.PLP.Chemscore.Internal.Correction>
0.3974

> <Gold.Rescore>
     Score         DG    S(hbond)    S(metal)    S(lipo)     H(rot)  DE(clash)    DE(int)     intcor
     15.52     -17.40       1.44        0.00      92.04       1.43       0.09       1.79       ----

> <Gold.Chemscore.Fitness>
15.5239

> <Gold.Chemscore.DG>
-17.4013

> <Gold.Chemscore.ZeroCoef>
-5.4800

> <Gold.Chemscore.Hbond>
1.4394

> <Gold.Chemscore.Metal>
0.0000

> <Gold.Chemscore.Lipo>
92.0412

> <Gold.Chemscore.Internal_Hbond>
0.0000

> <Gold.Chemscore.DEClash>
0.0880

> <Gold.Chemscore.DEInternal>
1.7895

> <Gold.Chemscore.Rot>
1.4278

> <Gold.Chemscore.Internal.Correction>
   9.000000E+99

> <Gold.Chemscore.Hbonds>
donor molecule, donor type, donor heavy atom, donor atom, acceptor molecule, acceptor atom, score
      L1  H     3    26       P1  7948  0.55
      L1  H    14    41       P1  7948  0.34

> <Gold.Chemscore.Hbond.Weighted>
-4.8076

> <Gold.Chemscore.Metal.Weighted>
-0.0000

> <Gold.Chemscore.Lipo.Weighted>
-10.7688

> <Gold.Chemscore.Internal_Hbond.Weighted>
0.0000

> <Gold.Chemscore.DEClash.Weighted>
0.0880

> <Gold.Chemscore.DEInternal.Weighted>
1.7895

> <Gold.Chemscore.Rot.Weighted>
3.6551

> <Gold.Chemscore.Internal.Correction.Weighted>
   9.000000E+99

> <Gold.Protein.RotatedTorsions>
[ 6907 6896 6895 6894 ] final -101.20 input  -60.11 | X-H torsion
[ 7974 7965 7964 7962 ] final  155.94 input  175.53 | X-H torsion
[ 8008 7997 7996 7995 ] final  124.05 input   59.86 | X-H torsion
[ 10167 10162 10161 10158 ] final   55.00 input  -65.29 | X-H torsion
[ 10718 10713 10712 10709 ] final    5.65 input   66.30 | X-H torsion
[ 10763 10752 10751 10750 ] final  -43.84 input  -60.55 | X-H torsion
[ 11005 11000 10999 10996 ] final   36.70 input  -57.11 | X-H torsion

> <Gold.Protein.ActiveResidues>
 VAL166  LYS551  ARG553  GLY616  TRP617  ASP618  TYR619  PRO620  LYS621  CYS622 
 ASP623  PHE694  ASN695  SER759  ASP760  ASP761  ALA762  ILE779  LEU786  VAL792 
 PHE793  MET794  SER795  GLU796  ALA797  LYS798  CYS799  TRP800  GLU811  SER814 

> <Gold.Protein.RotatedAtoms>
  150.7145  134.0770  159.3884 H   0  0  0  0  0  0  0  0  0  0  0  0  # atno 6907 bound_to 6896
  151.8753  135.0472  160.0492 H   0  0  0  0  0  0  0  0  0  0  0  0  # atno 6908 bound_to 6896
  152.2611  133.5262  159.5419 H   0  0  0  0  0  0  0  0  0  0  0  0  # atno 6909 bound_to 6896
  144.7993  139.7136  143.6188 H   0  0  0  0  0  0  0  0  0  0  0  0  # atno 7974 bound_to 7965
  156.2788  140.2748  156.1726 H   0  0  0  0  0  0  0  0  0  0  0  0  # atno 8008 bound_to 7997
  155.0639  140.0387  157.2604 H   0  0  0  0  0  0  0  0  0  0  0  0  # atno 8009 bound_to 7997
  154.7095  140.2665  155.6648 H   0  0  0  0  0  0  0  0  0  0  0  0  # atno 8010 bound_to 7997
  140.2241  144.3757  150.6439 H   0  0  0  0  0  0  0  0  0  0  0  0  # atno 10167 bound_to 10162
  156.9105  130.5754  149.5647 H   0  0  0  0  0  0  0  0  0  0  0  0  # atno 10718 bound_to 10713
  154.0022  135.6692  153.4760 H   0  0  0  0  0  0  0  0  0  0  0  0  # atno 10763 bound_to 10752
  153.0657  135.5002  154.8191 H   0  0  0  0  0  0  0  0  0  0  0  0  # atno 10764 bound_to 10752
  154.7046  135.3085  154.9253 H   0  0  0  0  0  0  0  0  0  0  0  0  # atno 10765 bound_to 10752
  140.2299  134.3540  155.7968 H   0  0  0  0  0  0  0  0  0  0  0  0  # atno 11005 bound_to 11000
  146.2271  139.5743  142.9580 LP  0  0  0  0  0  0  0  0  0  0  0  0  # atno 17320 bound_to 7965
  145.5592  141.0406  143.2235 LP  0  0  0  0  0  0  0  0  0  0  0  0  # atno 17321 bound_to 7965
  140.6233  143.2178  151.6648 LP  0  0  0  0  0  0  0  0  0  0  0  0  # atno 17342 bound_to 10162
  139.5133  144.3446  152.0708 LP  0  0  0  0  0  0  0  0  0  0  0  0  # atno 17343 bound_to 10162
  156.0538  130.5603  150.9047 LP  0  0  0  0  0  0  0  0  0  0  0  0  # atno 17370 bound_to 10713
  157.5970  131.0942  150.9024 LP  0  0  0  0  0  0  0  0  0  0  0  0  # atno 17371 bound_to 10713
  141.2218  133.7240  156.8715 LP  0  0  0  0  0  0  0  0  0  0  0  0  # atno 17394 bound_to 11000
  140.1761  134.9066  157.2892 LP  0  0  0  0  0  0  0  0  0  0  0  0  # atno 17395 bound_to 11000

$$$$
