AV-unprocessed.smi:35|AV-procd|sdf|260|dock10
  -GOLD-   2262016 23D 1   1.00000     0.00000
 Structure written by MMmdl.
 29 30  0  0  0  0  0  0  0  0  1 V2000
  150.7301  143.3482  158.1127 O   0  0  0  0  0  0  0  0  0  0  0  0
  150.6988  142.3991  157.3326 C   0  0  0  0  0  0  0  0  0  0  0  0
  150.0034  142.5008  156.1240 N   0  0  0  0  0  0  0  0  0  0  0  0
  149.9000  141.4955  155.1604 C   0  0  0  0  0  0  0  0  0  0  0  0
  149.2409  141.6874  154.1393 O   0  0  0  0  0  0  0  0  0  0  0  0
  150.5679  140.2786  155.4232 N   0  0  0  0  0  0  0  0  0  0  0  0
  150.4781  139.1558  154.4156 C   0  0  1  0  0  0  0  0  0  0  0  0
  151.2117  138.0644  154.8897 O   0  0  0  0  0  0  0  0  0  0  0  0
  150.4155  136.8843  154.8592 C   0  0  1  0  0  0  0  0  0  0  0  0
  150.8966  135.9234  155.9579 C   0  0  0  0  0  0  0  0  0  0  0  0
  152.2846  136.0659  156.1706 O   0  0  0  0  0  0  0  0  0  0  0  0
  148.9898  137.4120  155.0375 C   0  0  2  0  0  0  0  0  0  0  0  0
  147.9901  136.5159  154.5903 O   0  0  0  0  0  0  0  0  0  0  0  0
  149.0159  138.7126  154.2434 C   0  0  2  0  0  0  0  0  0  0  0  0
  148.7018  138.5257  152.8745 O   0  0  0  0  0  0  0  0  0  0  0  0
  151.2529  140.1230  156.6214 C   0  0  0  0  0  0  0  0  0  0  0  0
  151.3392  141.1061  157.5479 C   0  0  0  0  0  0  0  0  0  0  0  0
  152.3610  140.6854  159.1921 Br  0  0  0  0  0  0  0  0  0  0  0  0
  149.5313  143.3732  155.9349 H   0  0  0  0  0  0  0  0  0  0  0  0
  150.9481  139.5185  153.4993 H   0  0  0  0  0  0  0  0  0  0  0  0
  150.5348  136.4338  153.8720 H   0  0  0  0  0  0  0  0  0  0  0  0
  150.3874  136.1460  156.8958 H   0  0  0  0  0  0  0  0  0  0  0  0
  150.6656  134.8884  155.7046 H   0  0  0  0  0  0  0  0  0  0  0  0
  152.4242  136.7652  156.7910 H   0  0  0  0  0  0  0  0  0  0  0  0
  148.8128  137.6398  156.0897 H   0  0  0  0  0  0  0  0  0  0  0  0
  148.1346  136.3439  153.6721 H   0  0  0  0  0  0  0  0  0  0  0  0
  148.3268  139.4516  154.6549 H   0  0  0  0  0  0  0  0  0  0  0  0
  149.0934  137.7153  152.5857 H   0  0  0  0  0  0  0  0  0  0  0  0
  151.7367  139.1827  156.8403 H   0  0  0  0  0  0  0  0  0  0  0  0
  1  2  2  0  0  0  0
  2 17  1  0  0  0  0
  2  3  1  0  0  0  0
  3 19  1  0  0  0  0
  3  4  1  0  0  0  0
  4  5  2  0  0  0  0
  4  6  1  0  0  0  0
  6  7  1  0  0  0  0
  6 16  1  0  0  0  0
  7 14  1  0  0  0  0
  7  8  1  0  0  0  0
  7 20  1  0  0  0  0
  8  9  1  0  0  0  0
  9 10  1  0  0  0  0
  9 12  1  0  0  0  0
  9 21  1  0  0  0  0
 10 11  1  0  0  0  0
 10 22  1  0  0  0  0
 10 23  1  0  0  0  0
 11 24  1  0  0  0  0
 12 13  1  0  0  0  0
 12 14  1  0  0  0  0
 12 25  1  0  0  0  0
 13 26  1  0  0  0  0
 14 15  1  0  0  0  0
 14 27  1  0  0  0  0
 15 28  1  0  0  0  0
 16 17  2  0  0  0  0
 16 29  1  0  0  0  0
 17 18  1  0  0  0  0
M  END
> <s_m_source_file>
AV-unprocessed.smi

> <i_m_source_file_index>
35

> <i_lp_mmshare_version>
43012

> <i_f3d_flags>
0

> <s_epik_input>
Tz1jMVtuSF1jKD1PKW4oW2NIXWMxQnIpW0NAQEhdMk9bQ0BASF0oW0NIMl1bT0hdKVtDQEBIXShbT0hdKVtDQEhdMltPSF0=

> <s_epik_cmdline>
J2VwaWtfcHl0aG9uJywgJy1waCcsICc3LjAnLCAnLXRuJywgJzgnLCAnLW1hJywgJzIwMCcsICctbWV0YWxfYmluZGluZycsICctaW1hZScsICc8aW5maWxlLm1hZT4nLCAnLW9tYWUnLCAnPG91dGZpbGUubWFlPic=

> <r_lp_tautomer_probability>
0.999537

> <r_epik_Ionization_Penalty>
0.10812

> <r_epik_Ionization_Penalty_Charging>
0.108119

> <r_epik_Ionization_Penalty_Neutral>
4.93006e-07

> <r_epik_State_Penalty>
0.0979238

> <r_epik_Charging_Adjusted_Penalty>
0.206043

> <i_epik_Tot_Q>
0

> <i_epik_Tot_abs_Q>
0

> <r_epik_Metal_State_Penalty>
3.07911

> <b_epik_Metal_Only>
0

> <s_epik_Chemistry_Notes>
This compound contains an acetal/aminal-like group ( X-CH(R)-Y where X, Y are N, S, or O) that may be acid/base labile, releasing an aldehyde.

> <s_lp_Force_Field>
OPLS_2005

> <r_lp_Energy>
30.2872

> <b_lp_Chiralities_Consistent>
1

> <s_lp_Variant>
AV-unprocessed.smi:35-14

> <Gold.Version>
5.8.1

> <Gold.Id.Protein>
6NUR|6NUR_protein|mol2

> <Gold.PLP.Fitness>
42.2684

> <Gold.PLP.PLP>
-29.3302

> <Gold.PLP.part.hbond>
-6.5241

> <Gold.PLP.part.metal>
0.0000

> <Gold.PLP.part.buried>
-3.9954

> <Gold.PLP.part.nonpolar>
-20.1027

> <Gold.PLP.part.repulsive>
0.5757

> <Gold.PLP.ligand.clash>
0.0000

> <Gold.PLP.ligand.torsion>
0.3936

> <Gold.PLP.Chemscore.Hbond>
4.5710

> <Gold.PLP.Chemscore.CHOScore>
0.0000

> <Gold.PLP.Chemscore.Metal>
0.0000

> <Gold.Chemscore.Hbonds>
donor molecule, donor type, donor heavy atom, donor atom, acceptor molecule, acceptor atom, score
      L1  H     3    19       P1  8028  0.98
      L1  H    13    26       P1  7948  1.00
      L1  H    15    28       P1  7948  1.00
      P1  H  8011  8017       L1     5  0.56
      P1  H 10752 10763       L1    11  0.99

> <Gold.PLP.Chemscore.Internal.Correction>
0.0125

> <Gold.Rescore>
     Score         DG    S(hbond)    S(metal)    S(lipo)     H(rot)  DE(clash)    DE(int)     intcor
     13.51     -15.15       4.46        0.00      35.59       3.67       0.05       1.59       ----

> <Gold.Chemscore.Fitness>
13.5092

> <Gold.Chemscore.DG>
-15.1465

> <Gold.Chemscore.ZeroCoef>
-5.4800

> <Gold.Chemscore.Hbond>
4.4605

> <Gold.Chemscore.Metal>
0.0000

> <Gold.Chemscore.Lipo>
35.5874

> <Gold.Chemscore.Internal_Hbond>
0.0000

> <Gold.Chemscore.DEClash>
0.0451

> <Gold.Chemscore.DEInternal>
1.5921

> <Gold.Chemscore.Rot>
3.6701

> <Gold.Chemscore.Internal.Correction>
   9.000000E+99

> <Gold.Chemscore.Hbonds>
donor molecule, donor type, donor heavy atom, donor atom, acceptor molecule, acceptor atom, score
      L1  H     3    19       P1  8028  0.91
      L1  H    13    26       P1  7948  0.97
      L1  H    15    28       P1  7948  0.93
      P1  H  8011  8017       L1     5  0.53
      P1  H 10752 10763       L1    11  0.89

> <Gold.Chemscore.Hbond.Weighted>
-14.8982

> <Gold.Chemscore.Metal.Weighted>
-0.0000

> <Gold.Chemscore.Lipo.Weighted>
-4.1637

> <Gold.Chemscore.Internal_Hbond.Weighted>
0.0000

> <Gold.Chemscore.DEClash.Weighted>
0.0451

> <Gold.Chemscore.DEInternal.Weighted>
1.5921

> <Gold.Chemscore.Rot.Weighted>
9.3955

> <Gold.Chemscore.Internal.Correction.Weighted>
   9.000000E+99

> <Gold.Protein.RotatedTorsions>
[ 6907 6896 6895 6894 ] final -112.67 input  -60.11 | X-H torsion
[ 7974 7965 7964 7962 ] final   26.95 input  175.53 | X-H torsion
[ 8008 7997 7996 7995 ] final -168.08 input   59.86 | X-H torsion
[ 10167 10162 10161 10158 ] final  125.86 input  -65.29 | X-H torsion
[ 10718 10713 10712 10709 ] final   19.54 input   66.30 | X-H torsion
[ 10763 10752 10751 10750 ] final   98.38 input  -60.55 | X-H torsion
[ 11005 11000 10999 10996 ] final  134.59 input  -57.11 | X-H torsion

> <Gold.Protein.ActiveResidues>
 VAL166  LYS551  ARG553  GLY616  TRP617  ASP618  TYR619  PRO620  LYS621  CYS622 
 ASP623  PHE694  ASN695  SER759  ASP760  ASP761  ALA762  ILE779  LEU786  VAL792 
 PHE793  MET794  SER795  GLU796  ALA797  LYS798  CYS799  TRP800  GLU811  SER814 

> <Gold.Protein.RotatedAtoms>
  150.7775  133.9056  159.3353 H   0  0  0  0  0  0  0  0  0  0  0  0  # atno 6907 bound_to 6896
  151.6927  135.0942  160.0246 H   0  0  0  0  0  0  0  0  0  0  0  0  # atno 6908 bound_to 6896
  152.3815  133.6515  159.6201 H   0  0  0  0  0  0  0  0  0  0  0  0  # atno 6909 bound_to 6896
  146.1810  139.7257  142.8900 H   0  0  0  0  0  0  0  0  0  0  0  0  # atno 7974 bound_to 7965
  155.8866  140.1018  157.1448 H   0  0  0  0  0  0  0  0  0  0  0  0  # atno 8008 bound_to 7997
  154.4010  140.1319  156.4326 H   0  0  0  0  0  0  0  0  0  0  0  0  # atno 8009 bound_to 7997
  155.7582  140.3463  155.5187 H   0  0  0  0  0  0  0  0  0  0  0  0  # atno 8010 bound_to 7997
  139.5662  144.6912  151.3904 H   0  0  0  0  0  0  0  0  0  0  0  0  # atno 10167 bound_to 10162
  157.1118  130.6512  149.5899 H   0  0  0  0  0  0  0  0  0  0  0  0  # atno 10718 bound_to 10713
  153.2883  135.4150  155.1143 H   0  0  0  0  0  0  0  0  0  0  0  0  # atno 10763 bound_to 10752
  154.8512  135.3512  154.6016 H   0  0  0  0  0  0  0  0  0  0  0  0  # atno 10764 bound_to 10752
  153.6438  135.7055  153.5290 H   0  0  0  0  0  0  0  0  0  0  0  0  # atno 10765 bound_to 10752
  139.9924  134.9510  156.9887 H   0  0  0  0  0  0  0  0  0  0  0  0  # atno 11005 bound_to 11000
  145.4076  141.0393  143.3035 LP  0  0  0  0  0  0  0  0  0  0  0  0  # atno 17320 bound_to 7965
  144.8315  139.5620  143.6941 LP  0  0  0  0  0  0  0  0  0  0  0  0  # atno 17321 bound_to 7965
  140.6946  143.7781  150.7306 LP  0  0  0  0  0  0  0  0  0  0  0  0  # atno 17342 bound_to 10162
  140.1273  143.4557  152.2276 LP  0  0  0  0  0  0  0  0  0  0  0  0  # atno 17343 bound_to 10162
  155.9848  130.4875  150.7003 LP  0  0  0  0  0  0  0  0  0  0  0  0  # atno 17370 bound_to 10713
  157.4552  131.0877  151.0804 LP  0  0  0  0  0  0  0  0  0  0  0  0  # atno 17371 bound_to 10713
  140.4882  134.1220  155.7228 LP  0  0  0  0  0  0  0  0  0  0  0  0  # atno 17394 bound_to 11000
  141.1577  133.8852  157.1933 LP  0  0  0  0  0  0  0  0  0  0  0  0  # atno 17395 bound_to 11000

$$$$
