AV-unprocessed.smi:3049|AV-procd|sdf|11630|dock3
  -GOLD-   2272017 13D 1   1.00000     0.00000
 Structure written by MMmdl.
 52 53  0  0  0  0  0  0  0  0  2 V2000
  151.2767  141.9546  158.7220 C   0  0  0  0  0  0  0  0  0  0  0  0
  150.6475  142.2291  157.3462 C   0  0  0  0  0  0  0  0  0  0  0  0
  150.4174  140.9580  156.4898 C   0  0  0  0  0  0  0  0  0  0  0  0
  151.7482  140.3572  155.9826 C   0  0  0  0  0  0  0  0  0  0  0  0
  151.5814  139.0431  155.2067 C   0  0  0  0  0  0  0  0  0  0  0  0
  149.4843  141.2286  155.2857 C   0  0  0  0  0  0  0  0  0  0  0  0
  149.8901  141.9759  154.3939 O   0  0  0  0  0  0  0  0  0  0  0  0
  148.2451  140.6770  155.2457 N   0  0  0  0  0  0  0  0  0  0  0  0
  147.2101  140.9327  154.2372 C   0  0  0  0  0  0  0  0  0  0  0  0
  147.1062  139.6973  153.3264 C   0  0  0  0  0  0  0  0  0  0  0  0
  146.7922  138.4293  154.1521 C   0  0  0  0  0  0  0  0  0  0  0  0
  146.8972  137.2497  153.2990 N   0  0  0  0  0  0  0  0  0  0  0  0
  145.8691  136.4849  152.9046 C   0  0  0  0  0  0  0  0  0  0  0  0
  144.7009  136.7119  153.2182 O   0  0  0  0  0  0  0  0  0  0  0  0
  146.3000  135.4538  152.1556 N   0  0  0  0  0  0  0  0  0  0  0  0
  145.5486  134.4539  151.5232 C   0  0  0  0  0  0  0  0  0  0  0  0
  144.1861  134.2174  151.6463 C   0  0  0  0  0  0  0  0  0  0  0  0
  143.4407  133.2737  151.0293 N   0  5  0  0  0  0  0  0  0  0  0  0
  144.0599  132.4224  150.1621 C   0  0  0  0  0  0  0  0  0  0  0  0
  143.4417  131.5405  149.5671 O   0  0  0  0  0  0  0  0  0  0  0  0
  145.5112  132.5696  149.9360 C   0  0  0  0  0  0  0  0  0  0  0  0
  146.2015  131.6209  148.9710 C   0  0  0  0  0  0  0  0  0  0  0  0
  146.1934  133.5402  150.5922 C   0  0  0  0  0  0  0  0  0  0  0  0
  147.7300  138.2961  155.3764 C   0  0  0  0  0  0  0  0  0  0  0  0
  147.8244  139.6145  156.1666 C   0  0  0  0  0  0  0  0  0  0  0  0
  151.4661  142.8883  159.2517 H   0  0  0  0  0  0  0  0  0  0  0  0
  152.2287  141.4327  158.6210 H   0  0  0  0  0  0  0  0  0  0  0  0
  150.6272  141.3476  159.3529 H   0  0  0  0  0  0  0  0  0  0  0  0
  149.7123  142.7754  157.4760 H   0  0  0  0  0  0  0  0  0  0  0  0
  151.3097  142.9102  156.8124 H   0  0  0  0  0  0  0  0  0  0  0  0
  149.9418  140.2445  157.1604 H   0  0  0  0  0  0  0  0  0  0  0  0
  152.2496  141.0681  155.3237 H   0  0  0  0  0  0  0  0  0  0  0  0
  152.4275  140.1995  156.8216 H   0  0  0  0  0  0  0  0  0  0  0  0
  152.5422  138.6991  154.8234 H   0  0  0  0  0  0  0  0  0  0  0  0
  150.9131  139.1708  154.3548 H   0  0  0  0  0  0  0  0  0  0  0  0
  151.1784  138.2492  155.8349 H   0  0  0  0  0  0  0  0  0  0  0  0
  146.2553  141.0980  154.7387 H   0  0  0  0  0  0  0  0  0  0  0  0
  147.3734  141.8388  153.6567 H   0  0  0  0  0  0  0  0  0  0  0  0
  146.3342  139.8533  152.5720 H   0  0  0  0  0  0  0  0  0  0  0  0
  148.0463  139.5697  152.7869 H   0  0  0  0  0  0  0  0  0  0  0  0
  145.7666  138.5210  154.5148 H   0  0  0  0  0  0  0  0  0  0  0  0
  147.8239  136.9874  152.9971 H   0  0  0  0  0  0  0  0  0  0  0  0
  147.2986  135.3741  152.0328 H   0  0  0  0  0  0  0  0  0  0  0  0
  143.5909  134.8841  152.3013 H   0  0  0  0  0  0  0  0  0  0  0  0
  147.2657  131.8432  148.8882 H   0  0  0  0  0  0  0  0  0  0  0  0
  145.7618  131.7015  147.9766 H   0  0  0  0  0  0  0  0  0  0  0  0
  146.0981  130.5902  149.3116 H   0  0  0  0  0  0  0  0  0  0  0  0
  147.2556  133.6399  150.4224 H   0  0  0  0  0  0  0  0  0  0  0  0
  147.3830  137.4960  156.0313 H   0  0  0  0  0  0  0  0  0  0  0  0
  148.7295  138.0100  155.0445 H   0  0  0  0  0  0  0  0  0  0  0  0
  148.5014  139.4896  157.0127 H   0  0  0  0  0  0  0  0  0  0  0  0
  146.8547  139.8646  156.5994 H   0  0  0  0  0  0  0  0  0  0  0  0
  1  2  1  0  0  0  0
  1 26  1  0  0  0  0
  1 27  1  0  0  0  0
  1 28  1  0  0  0  0
  2  3  1  0  0  0  0
  2 29  1  0  0  0  0
  2 30  1  0  0  0  0
  3  4  1  0  0  0  0
  3  6  1  0  0  0  0
  3 31  1  0  0  0  0
  4  5  1  0  0  0  0
  4 32  1  0  0  0  0
  4 33  1  0  0  0  0
  5 34  1  0  0  0  0
  5 35  1  0  0  0  0
  5 36  1  0  0  0  0
  6  7  2  0  0  0  0
  6  8  1  0  0  0  0
  8 25  1  0  0  0  0
  8  9  1  0  0  0  0
  9 10  1  0  0  0  0
  9 37  1  0  0  0  0
  9 38  1  0  0  0  0
 10 11  1  0  0  0  0
 10 39  1  0  0  0  0
 10 40  1  0  0  0  0
 11 12  1  0  0  0  0
 11 24  1  0  0  0  0
 11 41  1  0  0  0  0
 12 13  1  0  0  0  0
 12 42  1  0  0  0  0
 13 14  2  0  0  0  0
 13 15  1  0  0  0  0
 15 16  1  0  0  0  0
 15 43  1  0  0  0  0
 16 23  1  0  0  0  0
 16 17  2  0  0  0  0
 17 18  1  0  0  0  0
 17 44  1  0  0  0  0
 18 19  1  0  0  0  0
 19 20  2  0  0  0  0
 19 21  1  0  0  0  0
 21 22  1  0  0  0  0
 21 23  2  0  0  0  0
 22 45  1  0  0  0  0
 22 46  1  0  0  0  0
 22 47  1  0  0  0  0
 23 48  1  0  0  0  0
 24 25  1  0  0  0  0
 24 49  1  0  0  0  0
 24 50  1  0  0  0  0
 25 51  1  0  0  0  0
 25 52  1  0  0  0  0
M  CHG  1  18  -1
M  END
> <s_m_source_file>
AV-unprocessed.smi

> <i_m_source_file_index>
3049

> <i_lp_mmshare_version>
43012

> <i_f3d_flags>
0

> <s_epik_input>
W0NIM11bQ0gyXVtDSF0oW0NIMl1bQ0gzXSlDKD1PKU4xW0NIMl1bQ0gyXVtDSF0oW0NIMl1bQ0gyXTEpW05IXUMoPU8pW05IXWMyW2NIXVtuSF1jKD1PKWMoW0NIM10pW2NIXTI=

> <s_epik_cmdline>
J2VwaWtfcHl0aG9uJywgJy1waCcsICc3LjAnLCAnLXRuJywgJzgnLCAnLW1hJywgJzIwMCcsICctbWV0YWxfYmluZGluZycsICctaW1hZScsICc8aW5maWxlLm1hZT4nLCAnLW9tYWUnLCAnPG91dGZpbGUubWFlPic=

> <r_lp_tautomer_probability>
1

> <r_epik_Ionization_Penalty>
7.58311

> <r_epik_Ionization_Penalty_Charging>
1.51652

> <r_epik_Ionization_Penalty_Neutral>
6.06659

> <r_epik_State_Penalty>
6.06654

> <r_epik_Charging_Adjusted_Penalty>
7.58305

> <i_epik_Tot_Q>
-1

> <i_epik_Tot_abs_Q>
1

> <r_epik_Metal_State_Penalty>
2.01464

> <b_epik_Metal_Only>
1

> <s_lp_Force_Field>
OPLS_2005

> <r_lp_Energy>
39.554

> <b_lp_Chiralities_Consistent>
1

> <s_lp_Variant>
AV-unprocessed.smi:3049-2

> <Gold.Version>
5.8.1

> <Gold.Id.Protein>
6NUR|6NUR_protein|mol2

> <Gold.PLP.Fitness>
45.7544

> <Gold.PLP.PLP>
-36.0607

> <Gold.PLP.part.hbond>
-5.0000

> <Gold.PLP.part.metal>
0.0000

> <Gold.PLP.part.buried>
-0.1481

> <Gold.PLP.part.nonpolar>
-33.3204

> <Gold.PLP.part.repulsive>
2.4068

> <Gold.PLP.ligand.clash>
0.0000

> <Gold.PLP.ligand.torsion>
0.2523

> <Gold.PLP.Chemscore.Hbond>
3.3365

> <Gold.PLP.Chemscore.CHOScore>
0.0000

> <Gold.PLP.Chemscore.Metal>
0.0000

> <Gold.Chemscore.Hbonds>
donor molecule, donor type, donor heavy atom, donor atom, acceptor molecule, acceptor atom, score
      L1  H    12    42       P1  7948  1.00
      L1  H    15    43       P1  7948  0.99
      P1  H  7989  7998       L1     7  0.06
      P1  H  8011  8017       L1     7  0.26
      P1  H 10785 10796       L1    20  1.00

> <Gold.PLP.Chemscore.Internal.Correction>
0.1887

> <Gold.Rescore>
     Score         DG    S(hbond)    S(metal)    S(lipo)     H(rot)  DE(clash)    DE(int)     intcor
     18.82     -22.26       3.01        0.00      91.15       1.54       2.11       1.33       ----

> <Gold.Chemscore.Fitness>
18.8161

> <Gold.Chemscore.DG>
-22.2608

> <Gold.Chemscore.ZeroCoef>
-5.4800

> <Gold.Chemscore.Hbond>
3.0090

> <Gold.Chemscore.Metal>
0.0000

> <Gold.Chemscore.Lipo>
91.1529

> <Gold.Chemscore.Internal_Hbond>
0.0000

> <Gold.Chemscore.DEClash>
2.1112

> <Gold.Chemscore.DEInternal>
1.3336

> <Gold.Chemscore.Rot>
1.5367

> <Gold.Chemscore.Internal.Correction>
   9.000000E+99

> <Gold.Chemscore.Hbonds>
donor molecule, donor type, donor heavy atom, donor atom, acceptor molecule, acceptor atom, score
      L1  H    12    42       P1  7948  0.97
      L1  H    15    43       P1  7948  0.93
      P1  H  7989  7998       L1     7  0.04
      P1  H  8011  8017       L1     7  0.25
      P1  H 10785 10796       L1    20  0.95

> <Gold.Chemscore.Hbond.Weighted>
-10.0499

> <Gold.Chemscore.Metal.Weighted>
-0.0000

> <Gold.Chemscore.Lipo.Weighted>
-10.6649

> <Gold.Chemscore.Internal_Hbond.Weighted>
0.0000

> <Gold.Chemscore.DEClash.Weighted>
2.1112

> <Gold.Chemscore.DEInternal.Weighted>
1.3336

> <Gold.Chemscore.Rot.Weighted>
3.9340

> <Gold.Chemscore.Internal.Correction.Weighted>
   9.000000E+99

> <Gold.Protein.RotatedTorsions>
[ 6907 6896 6895 6894 ] final  127.35 input  -60.11 | X-H torsion
[ 7974 7965 7964 7962 ] final  -73.62 input  175.53 | X-H torsion
[ 8008 7997 7996 7995 ] final -141.59 input   59.86 | X-H torsion
[ 10167 10162 10161 10158 ] final -168.54 input  -65.29 | X-H torsion
[ 10718 10713 10712 10709 ] final  158.98 input   66.30 | X-H torsion
[ 10763 10752 10751 10750 ] final   55.90 input  -60.55 | X-H torsion
[ 11005 11000 10999 10996 ] final  131.53 input  -57.11 | X-H torsion

> <Gold.Protein.ActiveResidues>
 VAL166  LYS551  ARG553  GLY616  TRP617  ASP618  TYR619  PRO620  LYS621  CYS622 
 ASP623  PHE694  ASN695  SER759  ASP760  ASP761  ALA762  ILE779  LEU786  VAL792 
 PHE793  MET794  SER795  GLU796  ALA797  LYS798  CYS799  TRP800  GLU811  SER814 

> <Gold.Protein.RotatedAtoms>
  152.3820  133.6559  159.6168 H   0  0  0  0  0  0  0  0  0  0  0  0  # atno 6907 bound_to 6896
  150.7748  133.9098  159.3375 H   0  0  0  0  0  0  0  0  0  0  0  0  # atno 6908 bound_to 6896
  151.6901  135.0949  160.0283 H   0  0  0  0  0  0  0  0  0  0  0  0  # atno 6909 bound_to 6896
  145.6497  140.9286  143.0991 H   0  0  0  0  0  0  0  0  0  0  0  0  # atno 7974 bound_to 7965
  155.4802  140.0559  157.2968 H   0  0  0  0  0  0  0  0  0  0  0  0  # atno 8008 bound_to 7997
  154.4663  140.2020  156.0062 H   0  0  0  0  0  0  0  0  0  0  0  0  # atno 8009 bound_to 7997
  156.0980  140.3223  155.7908 H   0  0  0  0  0  0  0  0  0  0  0  0  # atno 8010 bound_to 7997
  139.5979  144.1073  152.1710 H   0  0  0  0  0  0  0  0  0  0  0  0  # atno 10167 bound_to 10162
  157.1705  131.0609  151.2185 H   0  0  0  0  0  0  0  0  0  0  0  0  # atno 10718 bound_to 10713
  152.9823  135.5695  154.5141 H   0  0  0  0  0  0  0  0  0  0  0  0  # atno 10763 bound_to 10752
  154.4640  135.2782  155.1694 H   0  0  0  0  0  0  0  0  0  0  0  0  # atno 10764 bound_to 10752
  154.3269  135.6257  153.5587 H   0  0  0  0  0  0  0  0  0  0  0  0  # atno 10765 bound_to 10752
  139.9736  134.9570  156.9452 H   0  0  0  0  0  0  0  0  0  0  0  0  # atno 11005 bound_to 11000
  144.7127  139.8311  143.7409 LP  0  0  0  0  0  0  0  0  0  0  0  0  # atno 17320 bound_to 7965
  146.1213  139.4232  143.0226 LP  0  0  0  0  0  0  0  0  0  0  0  0  # atno 17321 bound_to 7965
  140.0662  144.5816  150.7225 LP  0  0  0  0  0  0  0  0  0  0  0  0  # atno 17342 bound_to 10162
  140.7226  143.2604  151.4227 LP  0  0  0  0  0  0  0  0  0  0  0  0  # atno 17343 bound_to 10162
  157.4047  130.7352  149.6794 LP  0  0  0  0  0  0  0  0  0  0  0  0  # atno 17370 bound_to 10713
  155.9739  130.4111  150.3965 LP  0  0  0  0  0  0  0  0  0  0  0  0  # atno 17371 bound_to 10713
  140.5242  134.0877  155.7299 LP  0  0  0  0  0  0  0  0  0  0  0  0  # atno 17394 bound_to 11000
  141.1414  133.9131  157.2316 LP  0  0  0  0  0  0  0  0  0  0  0  0  # atno 17395 bound_to 11000

$$$$
