AV-unprocessed.smi:1697|AV-procd|sdf|6806|dock10
  -GOLD-   22720 7583D 1   1.00000     0.00000
 Structure written by MMmdl.
 54 56  0  0  0  0  0  0  0  0  2 V2000
  141.8304  138.6577  152.5705 C   0  0  0  0  0  0  0  0  0  0  0  0
  142.7851  137.5350  152.1592 C   0  0  0  0  0  0  0  0  0  0  0  0
  143.8321  137.4574  153.1154 O   0  0  0  0  0  0  0  0  0  0  0  0
  144.8644  136.5328  152.7923 C   0  0  2  0  0  0  0  0  0  0  0  0
  145.8680  136.3793  153.9505 C   0  0  0  0  0  0  0  0  0  0  0  0
  146.6270  137.6907  154.2136 C   0  0  0  0  0  0  0  0  0  0  0  0
  147.3234  138.1633  152.9871 N   0  3  2  0  0  0  0  0  0  0  0  0
  148.1767  139.3573  153.2196 C   0  0  0  0  0  0  0  0  0  0  0  0
  149.3246  139.0758  154.2091 C   0  0  1  0  0  0  0  0  0  0  0  0
  150.3246  138.3272  153.5440 O   0  0  0  0  0  0  0  0  0  0  0  0
  149.9401  140.3760  154.7611 C   0  0  0  0  0  0  0  0  0  0  0  0
  150.5911  140.1782  156.0440 N   0  0  0  0  0  0  0  0  0  0  0  0
  150.8827  139.0006  156.6290 C   0  0  0  0  0  0  0  0  0  0  0  0
  151.4904  139.0410  157.8106 N   0  0  0  0  0  0  0  0  0  0  0  0
  151.6050  140.4048  158.0187 C   0  0  0  0  0  0  0  0  0  0  0  0
  152.1654  141.1231  159.0974 C   0  0  0  0  0  0  0  0  0  0  0  0
  152.1753  142.5359  159.1000 C   0  0  0  0  0  0  0  0  0  0  0  0
  152.7890  143.2674  160.2808 C   0  0  0  0  0  0  0  0  0  0  0  0
  151.6182  143.2526  158.0107 C   0  0  0  0  0  0  0  0  0  0  0  0
  151.6175  144.7708  157.9929 C   0  0  0  0  0  0  0  0  0  0  0  0
  151.0553  142.5508  156.9239 C   0  0  0  0  0  0  0  0  0  0  0  0
  151.0509  141.1445  156.9330 C   0  0  0  0  0  0  0  0  0  0  0  0
  146.3744  138.3570  151.8605 C   0  0  0  0  0  0  0  0  0  0  0  0
  145.6001  137.0629  151.5523 C   0  0  0  0  0  0  0  0  0  0  0  0
  141.0139  138.7569  151.8550 H   0  0  0  0  0  0  0  0  0  0  0  0
  142.3501  139.6148  152.6191 H   0  0  0  0  0  0  0  0  0  0  0  0
  141.3949  138.4621  153.5507 H   0  0  0  0  0  0  0  0  0  0  0  0
  142.2389  136.5939  152.1004 H   0  0  0  0  0  0  0  0  0  0  0  0
  143.1938  137.7427  151.1693 H   0  0  0  0  0  0  0  0  0  0  0  0
  144.4254  135.5645  152.5463 H   0  0  0  0  0  0  0  0  0  0  0  0
  145.3699  136.0461  154.8604 H   0  0  0  0  0  0  0  0  0  0  0  0
  146.5850  135.5959  153.7010 H   0  0  0  0  0  0  0  0  0  0  0  0
  145.9359  138.4602  154.5621 H   0  0  0  0  0  0  0  0  0  0  0  0
  147.3423  137.5266  155.0182 H   0  0  0  0  0  0  0  0  0  0  0  0
  148.6098  139.6961  152.2770 H   0  0  0  0  0  0  0  0  0  0  0  0
  147.5536  140.1786  153.5771 H   0  0  0  0  0  0  0  0  0  0  0  0
  148.9630  138.4831  155.0487 H   0  0  0  0  0  0  0  0  0  0  0  0
  149.9248  137.5641  153.1546 H   0  0  0  0  0  0  0  0  0  0  0  0
  150.6657  140.7885  154.0587 H   0  0  0  0  0  0  0  0  0  0  0  0
  149.1659  141.1340  154.8877 H   0  0  0  0  0  0  0  0  0  0  0  0
  150.6377  138.0595  156.1585 H   0  0  0  0  0  0  0  0  0  0  0  0
  152.5904  140.5770  159.9267 H   0  0  0  0  0  0  0  0  0  0  0  0
  152.0471  143.9035  160.7639 H   0  0  0  0  0  0  0  0  0  0  0  0
  153.6205  143.8914  159.9528 H   0  0  0  0  0  0  0  0  0  0  0  0
  153.1688  142.5700  161.0280 H   0  0  0  0  0  0  0  0  0  0  0  0
  151.1456  145.1581  157.0894 H   0  0  0  0  0  0  0  0  0  0  0  0
  152.6374  145.1538  158.0284 H   0  0  0  0  0  0  0  0  0  0  0  0
  151.0696  145.1626  158.8500 H   0  0  0  0  0  0  0  0  0  0  0  0
  150.6298  143.0855  156.0880 H   0  0  0  0  0  0  0  0  0  0  0  0
  145.6824  139.1659  152.1007 H   0  0  0  0  0  0  0  0  0  0  0  0
  146.9207  138.6634  150.9676 H   0  0  0  0  0  0  0  0  0  0  0  0
  146.2962  136.3037  151.1928 H   0  0  0  0  0  0  0  0  0  0  0  0
  144.8905  137.2353  150.7423 H   0  0  0  0  0  0  0  0  0  0  0  0
  147.9503  137.4245  152.7003 H   0  0  0  0  0  0  0  0  0  0  0  0
  1  2  1  0  0  0  0
  1 25  1  0  0  0  0
  1 26  1  0  0  0  0
  1 27  1  0  0  0  0
  2  3  1  0  0  0  0
  2 28  1  0  0  0  0
  2 29  1  0  0  0  0
  3  4  1  0  0  0  0
  4 24  1  0  0  0  0
  4  5  1  0  0  0  0
  4 30  1  0  0  0  0
  5  6  1  0  0  0  0
  5 31  1  0  0  0  0
  5 32  1  0  0  0  0
  6  7  1  0  0  0  0
  6 33  1  0  0  0  0
  6 34  1  0  0  0  0
  7  8  1  0  0  0  0
  7 23  1  0  0  0  0
  7 54  1  0  0  0  0
  8  9  1  0  0  0  0
  8 35  1  0  0  0  0
  8 36  1  0  0  0  0
  9 10  1  0  0  0  0
  9 11  1  0  0  0  0
  9 37  1  0  0  0  0
 10 38  1  0  0  0  0
 11 12  1  0  0  0  0
 11 39  1  0  0  0  0
 11 40  1  0  0  0  0
 12 22  1  0  0  0  0
 12 13  1  0  0  0  0
 13 14  2  0  0  0  0
 13 41  1  0  0  0  0
 14 15  1  0  0  0  0
 15 22  2  0  0  0  0
 15 16  1  0  0  0  0
 16 17  2  0  0  0  0
 16 42  1  0  0  0  0
 17 18  1  0  0  0  0
 17 19  1  0  0  0  0
 18 43  1  0  0  0  0
 18 44  1  0  0  0  0
 18 45  1  0  0  0  0
 19 20  1  0  0  0  0
 19 21  2  0  0  0  0
 20 46  1  0  0  0  0
 20 47  1  0  0  0  0
 20 48  1  0  0  0  0
 21 22  1  0  0  0  0
 21 49  1  0  0  0  0
 23 24  1  0  0  0  0
 23 50  1  0  0  0  0
 23 51  1  0  0  0  0
 24 52  1  0  0  0  0
 24 53  1  0  0  0  0
M  CHG  1   7   1
M  END
> <s_m_source_file>
AV-unprocessed.smi

> <i_m_source_file_index>
1697

> <i_lp_mmshare_version>
43012

> <i_f3d_flags>
0

> <s_epik_input>
W0NIM11bQ0gyXU9bQ0hdMVtDSDJdW0NIMl1OKFtDSDJdW0NIMl0xKVtDSDJdW0NASF0oW09IXSlbQ0gyXW4oW2NIXW4yKWMoYzIzKVtjSF1jKFtDSDNdKWMoW2NIXTMpW0NIM10=

> <s_epik_cmdline>
J2VwaWtfcHl0aG9uJywgJy1waCcsICc3LjAnLCAnLXRuJywgJzgnLCAnLW1hJywgJzIwMCcsICctbWV0YWxfYmluZGluZycsICctaW1hZScsICc8aW5maWxlLm1hZT4nLCAnLW9tYWUnLCAnPG91dGZpbGUubWFlPic=

> <r_epik_Ionization_Penalty>
0.112476

> <r_epik_Ionization_Penalty_Charging>
0.0244612

> <r_epik_Ionization_Penalty_Neutral>
0.0880147

> <r_epik_State_Penalty>
0.0961447

> <r_epik_Charging_Adjusted_Penalty>
0.120606

> <i_epik_Tot_Q>
1

> <i_epik_Tot_abs_Q>
1

> <r_epik_Metal_State_Penalty>
0.0206204

> <b_epik_Metal_Only>
0

> <s_lp_Force_Field>
OPLS_2005

> <r_lp_Energy>
22.8638

> <b_lp_Chiralities_Consistent>
1

> <s_lp_Variant>
AV-unprocessed.smi:1697-4

> <Gold.Version>
5.8.1

> <Gold.Id.Protein>
6NUR|6NUR_protein|mol2

> <Gold.PLP.Fitness>
51.7740

> <Gold.PLP.PLP>
-43.7483

> <Gold.PLP.part.hbond>
-3.3676

> <Gold.PLP.part.metal>
0.0000

> <Gold.PLP.part.buried>
-2.2137

> <Gold.PLP.part.nonpolar>
-38.5716

> <Gold.PLP.part.repulsive>
0.1320

> <Gold.PLP.ligand.clash>
0.0000

> <Gold.PLP.ligand.torsion>
0.5698

> <Gold.PLP.Chemscore.Hbond>
2.9913

> <Gold.PLP.Chemscore.CHOScore>
0.0000

> <Gold.PLP.Chemscore.Metal>
0.0000

> <Gold.Chemscore.Hbonds>
donor molecule, donor type, donor heavy atom, donor atom, acceptor molecule, acceptor atom, score
      L1  H     7    54       P1  7948  2.00
      L1  H    10    38       P1  7948  0.96

> <Gold.PLP.Chemscore.Internal.Correction>
0.1914

> <Gold.Rescore>
     Score         DG    S(hbond)    S(metal)    S(lipo)     H(rot)  DE(clash)    DE(int)     intcor
     18.87     -19.61       1.74        0.00     120.83       2.27       0.16       0.58       ----

> <Gold.Chemscore.Fitness>
18.8669

> <Gold.Chemscore.DG>
-19.6109

> <Gold.Chemscore.ZeroCoef>
-5.4800

> <Gold.Chemscore.Hbond>
1.7387

> <Gold.Chemscore.Metal>
0.0000

> <Gold.Chemscore.Lipo>
120.8333

> <Gold.Chemscore.Internal_Hbond>
0.0000

> <Gold.Chemscore.DEClash>
0.1633

> <Gold.Chemscore.DEInternal>
0.5808

> <Gold.Chemscore.Rot>
2.2710

> <Gold.Chemscore.Internal.Correction>
   9.000000E+99

> <Gold.Chemscore.Hbonds>
donor molecule, donor type, donor heavy atom, donor atom, acceptor molecule, acceptor atom, score
      L1  H     7    54       P1  7948  1.00
      L1  H    10    38       P1  7948  0.36

> <Gold.Chemscore.Hbond.Weighted>
-5.8072

> <Gold.Chemscore.Metal.Weighted>
-0.0000

> <Gold.Chemscore.Lipo.Weighted>
-14.1375

> <Gold.Chemscore.Internal_Hbond.Weighted>
0.0000

> <Gold.Chemscore.DEClash.Weighted>
0.1633

> <Gold.Chemscore.DEInternal.Weighted>
0.5808

> <Gold.Chemscore.Rot.Weighted>
5.8137

> <Gold.Chemscore.Internal.Correction.Weighted>
   9.000000E+99

> <Gold.Protein.RotatedTorsions>
[ 6907 6896 6895 6894 ] final  -28.61 input  -60.11 | X-H torsion
[ 7974 7965 7964 7962 ] final  110.59 input  175.53 | X-H torsion
[ 8008 7997 7996 7995 ] final -140.54 input   59.86 | X-H torsion
[ 10167 10162 10161 10158 ] final  113.26 input  -65.29 | X-H torsion
[ 10718 10713 10712 10709 ] final   93.48 input   66.30 | X-H torsion
[ 10763 10752 10751 10750 ] final  -91.63 input  -60.55 | X-H torsion
[ 11005 11000 10999 10996 ] final   51.94 input  -57.11 | X-H torsion

> <Gold.Protein.ActiveResidues>
 VAL166  LYS551  ARG553  GLY616  TRP617  ASP618  TYR619  PRO620  LYS621  CYS622 
 ASP623  PHE694  ASN695  SER759  ASP760  ASP761  ALA762  ILE779  LEU786  VAL792 
 PHE793  MET794  SER795  GLU796  ALA797  LYS798  CYS799  TRP800  GLU811  SER814 

> <Gold.Protein.RotatedAtoms>
  151.1306  135.0128  159.8580 H   0  0  0  0  0  0  0  0  0  0  0  0  # atno 6907 bound_to 6896
  152.5451  134.1614  159.8569 H   0  0  0  0  0  0  0  0  0  0  0  0  # atno 6908 bound_to 6896
  151.1681  133.4757  159.2627 H   0  0  0  0  0  0  0  0  0  0  0  0  # atno 6909 bound_to 6896
  145.2530  139.2732  143.4057 H   0  0  0  0  0  0  0  0  0  0  0  0  # atno 7974 bound_to 7965
  155.4631  140.0547  157.2988 H   0  0  0  0  0  0  0  0  0  0  0  0  # atno 8008 bound_to 7997
  154.4729  140.2048  155.9904 H   0  0  0  0  0  0  0  0  0  0  0  0  # atno 8009 bound_to 7997
  156.1085  140.3208  155.8045 H   0  0  0  0  0  0  0  0  0  0  0  0  # atno 8010 bound_to 7997
  139.6474  144.7127  151.2115 H   0  0  0  0  0  0  0  0  0  0  0  0  # atno 10167 bound_to 10162
  157.6954  131.0480  150.4041 H   0  0  0  0  0  0  0  0  0  0  0  0  # atno 10718 bound_to 10713
  154.6780  135.5261  153.8225 H   0  0  0  0  0  0  0  0  0  0  0  0  # atno 10763 bound_to 10752
  153.0545  135.6545  154.0620 H   0  0  0  0  0  0  0  0  0  0  0  0  # atno 10764 bound_to 10752
  154.0511  135.2969  155.3320 H   0  0  0  0  0  0  0  0  0  0  0  0  # atno 10765 bound_to 10752
  140.0890  134.5234  155.8870 H   0  0  0  0  0  0  0  0  0  0  0  0  # atno 11005 bound_to 11000
  146.3297  140.2926  142.8616 LP  0  0  0  0  0  0  0  0  0  0  0  0  # atno 17320 bound_to 7965
  144.9486  140.8154  143.5586 LP  0  0  0  0  0  0  0  0  0  0  0  0  # atno 17321 bound_to 7965
  140.7521  143.6207  150.8516 LP  0  0  0  0  0  0  0  0  0  0  0  0  # atno 17342 bound_to 10162
  139.9852  143.5908  152.2929 LP  0  0  0  0  0  0  0  0  0  0  0  0  # atno 17343 bound_to 10162
  156.4432  130.3996  149.6684 LP  0  0  0  0  0  0  0  0  0  0  0  0  # atno 17370 bound_to 10713
  156.3860  130.7603  151.2600 LP  0  0  0  0  0  0  0  0  0  0  0  0  # atno 17371 bound_to 10713
  141.2072  133.6662  156.6290 LP  0  0  0  0  0  0  0  0  0  0  0  0  # atno 17394 bound_to 11000
  140.3378  134.7874  157.4375 LP  0  0  0  0  0  0  0  0  0  0  0  0  # atno 17395 bound_to 11000

$$$$
