AV-unprocessed.smi:1965|AV-procd|sdf|7935|dock10
  -GOLD-   2272010103D 1   1.00000     0.00000
 Structure written by MMmdl.
 37 39  0  0  0  0  0  0  0  0  2 V2000
  146.1534  138.2020  154.5905 O   0  0  0  0  0  0  0  0  0  0  0  0
  146.9456  137.6347  153.8404 C   0  0  0  0  0  0  0  0  0  0  0  0
  148.1787  138.1363  153.6183 N   0  0  0  0  0  0  0  0  0  0  0  0
  148.8215  139.3052  154.1201 C   0  0  0  0  0  0  0  0  0  0  0  0
  149.9953  139.3223  154.7655 N   0  0  0  0  0  0  0  0  0  0  0  0
  150.3617  140.6115  155.1602 C   0  0  0  0  0  0  0  0  0  0  0  0
  149.4451  141.5721  154.8135 C   0  0  0  0  0  0  0  0  0  0  0  0
  148.0775  140.8915  153.9738 S   0  0  0  0  0  0  0  0  0  0  0  0
  146.6479  136.4922  153.1990 N   0  0  0  0  0  0  0  0  0  0  0  0
  145.3970  135.7465  153.3154 C   0  0  1  0  0  0  0  0  0  0  0  0
  144.1870  136.5194  152.7551 C   0  0  0  0  0  0  0  0  0  0  0  0
  143.3765  135.4701  151.9876 C   0  0  0  0  0  0  0  0  0  0  0  0
  144.4125  134.5661  151.4754 N   0  3  2  0  0  0  0  0  0  0  0  0
  143.9961  133.2800  150.8801 C   0  0  0  0  0  0  0  0  0  0  0  0
  145.2378  132.6059  150.2574 C   0  0  0  0  0  0  0  0  0  0  0  0
  146.4086  132.4960  151.2605 C   0  0  0  0  0  0  0  0  0  0  0  0
  146.7080  133.8482  151.9428 C   0  0  0  0  0  0  0  0  0  0  0  0
  145.4063  134.4024  152.5499 C   0  0  1  0  0  0  0  0  0  0  0  0
  148.7175  137.6314  152.9294 H   0  0  0  0  0  0  0  0  0  0  0  0
  151.2937  140.7550  155.6870 H   0  0  0  0  0  0  0  0  0  0  0  0
  149.4899  142.6346  155.0026 H   0  0  0  0  0  0  0  0  0  0  0  0
  147.3588  136.0990  152.5982 H   0  0  0  0  0  0  0  0  0  0  0  0
  145.2016  135.5392  154.3694 H   0  0  0  0  0  0  0  0  0  0  0  0
  143.6025  137.0084  153.5350 H   0  0  0  0  0  0  0  0  0  0  0  0
  144.5198  137.2930  152.0610 H   0  0  0  0  0  0  0  0  0  0  0  0
  142.7134  134.9269  152.6628 H   0  0  0  0  0  0  0  0  0  0  0  0
  142.7780  135.9030  151.1854 H   0  0  0  0  0  0  0  0  0  0  0  0
  143.5468  132.6410  151.6415 H   0  0  0  0  0  0  0  0  0  0  0  0
  143.2391  133.4552  150.1150 H   0  0  0  0  0  0  0  0  0  0  0  0
  144.9758  131.6176  149.8780 H   0  0  0  0  0  0  0  0  0  0  0  0
  145.5642  133.1879  149.3942 H   0  0  0  0  0  0  0  0  0  0  0  0
  146.1586  131.7567  152.0227 H   0  0  0  0  0  0  0  0  0  0  0  0
  147.3013  132.1252  150.7558 H   0  0  0  0  0  0  0  0  0  0  0  0
  147.4642  133.7114  152.7164 H   0  0  0  0  0  0  0  0  0  0  0  0
  147.1183  134.5506  151.2158 H   0  0  0  0  0  0  0  0  0  0  0  0
  145.0169  133.6542  153.2441 H   0  0  0  0  0  0  0  0  0  0  0  0
  144.8788  135.0821  150.7430 H   0  0  0  0  0  0  0  0  0  0  0  0
  1  2  2  0  0  0  0
  2  3  1  0  0  0  0
  2  9  1  0  0  0  0
  3  4  1  0  0  0  0
  3 19  1  0  0  0  0
  4  8  1  0  0  0  0
  4  5  2  0  0  0  0
  5  6  1  0  0  0  0
  6  7  2  0  0  0  0
  6 20  1  0  0  0  0
  7  8  1  0  0  0  0
  7 21  1  0  0  0  0
  9 10  1  0  0  0  0
  9 22  1  0  0  0  0
 10 18  1  0  0  0  0
 10 11  1  0  0  0  0
 10 23  1  0  0  0  0
 11 12  1  0  0  0  0
 11 24  1  0  0  0  0
 11 25  1  0  0  0  0
 12 13  1  0  0  0  0
 12 26  1  0  0  0  0
 12 27  1  0  0  0  0
 13 18  1  0  0  0  0
 13 14  1  0  0  0  0
 13 37  1  0  0  0  0
 14 15  1  0  0  0  0
 14 28  1  0  0  0  0
 14 29  1  0  0  0  0
 15 16  1  0  0  0  0
 15 30  1  0  0  0  0
 15 31  1  0  0  0  0
 16 17  1  0  0  0  0
 16 32  1  0  0  0  0
 16 33  1  0  0  0  0
 17 18  1  0  0  0  0
 17 34  1  0  0  0  0
 17 35  1  0  0  0  0
 18 36  1  0  0  0  0
M  CHG  1  13   1
M  END
> <s_m_source_file>
AV-unprocessed.smi

> <i_m_source_file_index>
1965

> <i_lp_mmshare_version>
43012

> <i_f3d_flags>
0

> <s_epik_input>
czFbY0hdW2NIXW5jMVtOSF1DKD1PKVtOSF1bQ0BIXShbQ0gyXVtDSDJdMilbQ0BASF0oTjIzKVtDSDJdW0NIMl1bQ0gyXVtDSDJdMw==

> <s_epik_cmdline>
J2VwaWtfcHl0aG9uJywgJy1waCcsICc3LjAnLCAnLXRuJywgJzgnLCAnLW1hJywgJzIwMCcsICctbWV0YWxfYmluZGluZycsICctaW1hZScsICc8aW5maWxlLm1hZT4nLCAnLW9tYWUnLCAnPG91dGZpbGUubWFlPic=

> <r_lp_tautomer_probability>
1

> <r_epik_Ionization_Penalty>
0.00125962

> <r_epik_Ionization_Penalty_Charging>
0.00107044

> <r_epik_Ionization_Penalty_Neutral>
0.000189176

> <r_epik_State_Penalty>
-0

> <r_epik_Charging_Adjusted_Penalty>
0.00107044

> <i_epik_Tot_Q>
1

> <i_epik_Tot_abs_Q>
1

> <r_epik_Metal_State_Penalty>
0.0179285

> <b_epik_Metal_Only>
0

> <s_lp_Force_Field>
OPLS_2005

> <r_lp_Energy>
42.2865

> <b_lp_Chiralities_Consistent>
1

> <s_lp_Variant>
AV-unprocessed.smi:1965-4

> <Gold.Version>
5.8.1

> <Gold.Id.Protein>
6NUR|6NUR_protein|mol2

> <Gold.PLP.Fitness>
34.7991

> <Gold.PLP.PLP>
-26.8865

> <Gold.PLP.part.hbond>
-2.0000

> <Gold.PLP.part.metal>
0.0000

> <Gold.PLP.part.buried>
-2.2139

> <Gold.PLP.part.nonpolar>
-22.8721

> <Gold.PLP.part.repulsive>
0.1968

> <Gold.PLP.ligand.clash>
0.0000

> <Gold.PLP.ligand.torsion>
0.5321

> <Gold.PLP.Chemscore.Hbond>
1.9920

> <Gold.PLP.Chemscore.CHOScore>
1.0000

> <Gold.PLP.Chemscore.Metal>
0.0000

> <Gold.Chemscore.Hbonds>
donor molecule, donor type, donor heavy atom, donor atom, acceptor molecule, acceptor atom, score
      L1  H     3    19       P1  7948  1.00
      L1  H     9    22       P1  7948  0.99
      L1  C     7    21       P1  8028  1.00

> <Gold.PLP.Chemscore.Internal.Correction>
0.0007

> <Gold.Rescore>
     Score         DG    S(hbond)    S(metal)    S(lipo)     H(rot)  DE(clash)    DE(int)     intcor
     16.73     -17.30       1.90        0.00      68.81       1.00       0.03       0.54       ----

> <Gold.Chemscore.Fitness>
16.7344

> <Gold.Chemscore.DG>
-17.3023

> <Gold.Chemscore.ZeroCoef>
-5.4800

> <Gold.Chemscore.Hbond>
1.8958

> <Gold.Chemscore.Metal>
0.0000

> <Gold.Chemscore.Lipo>
68.8064

> <Gold.Chemscore.Internal_Hbond>
0.0000

> <Gold.Chemscore.DEClash>
0.0252

> <Gold.Chemscore.DEInternal>
0.5427

> <Gold.Chemscore.Rot>
1.0000

> <Gold.Chemscore.Internal.Correction>
   9.000000E+99

> <Gold.Chemscore.Hbonds>
donor molecule, donor type, donor heavy atom, donor atom, acceptor molecule, acceptor atom, score
      L1  H     3    19       P1  7948  0.97
      L1  H     9    22       P1  7948  0.94

> <Gold.Chemscore.Hbond.Weighted>
-6.3319

> <Gold.Chemscore.Metal.Weighted>
-0.0000

> <Gold.Chemscore.Lipo.Weighted>
-8.0503

> <Gold.Chemscore.Internal_Hbond.Weighted>
0.0000

> <Gold.Chemscore.DEClash.Weighted>
0.0252

> <Gold.Chemscore.DEInternal.Weighted>
0.5427

> <Gold.Chemscore.Rot.Weighted>
2.5600

> <Gold.Chemscore.Internal.Correction.Weighted>
   9.000000E+99

> <Gold.Protein.RotatedTorsions>
[ 6907 6896 6895 6894 ] final  101.40 input  -60.11 | X-H torsion
[ 7974 7965 7964 7962 ] final    1.13 input  175.53 | X-H torsion
[ 8008 7997 7996 7995 ] final   35.39 input   59.86 | X-H torsion
[ 10167 10162 10161 10158 ] final -129.93 input  -65.29 | X-H torsion
[ 10718 10713 10712 10709 ] final  110.03 input   66.30 | X-H torsion
[ 10763 10752 10751 10750 ] final   80.00 input  -60.55 | X-H torsion
[ 11005 11000 10999 10996 ] final   85.10 input  -57.11 | X-H torsion

> <Gold.Protein.ActiveResidues>
 VAL166  LYS551  ARG553  GLY616  TRP617  ASP618  TYR619  PRO620  LYS621  CYS622 
 ASP623  PHE694  ASN695  SER759  ASP760  ASP761  ALA762  ILE779  LEU786  VAL792 
 PHE793  MET794  SER795  GLU796  ALA797  LYS798  CYS799  TRP800  GLU811  SER814 

> <Gold.Protein.RotatedAtoms>
  152.5350  134.0132  159.7947 H   0  0  0  0  0  0  0  0  0  0  0  0  # atno 6907 bound_to 6896
  151.0331  133.5765  159.2666 H   0  0  0  0  0  0  0  0  0  0  0  0  # atno 6908 bound_to 6896
  151.2762  135.0707  159.9206 H   0  0  0  0  0  0  0  0  0  0  0  0  # atno 6909 bound_to 6896
  146.2438  140.1033  142.8347 H   0  0  0  0  0  0  0  0  0  0  0  0  # atno 7974 bound_to 7965
  155.1703  140.3291  155.4394 H   0  0  0  0  0  0  0  0  0  0  0  0  # atno 8008 bound_to 7997
  156.2512  140.1944  156.6757 H   0  0  0  0  0  0  0  0  0  0  0  0  # atno 8009 bound_to 7997
  154.6342  140.0578  156.9755 H   0  0  0  0  0  0  0  0  0  0  0  0  # atno 8010 bound_to 7997
  139.9346  143.6232  152.2520 H   0  0  0  0  0  0  0  0  0  0  0  0  # atno 10167 bound_to 10162
  157.6514  131.0925  150.6541 H   0  0  0  0  0  0  0  0  0  0  0  0  # atno 10718 bound_to 10713
  153.0998  135.4819  154.8845 H   0  0  0  0  0  0  0  0  0  0  0  0  # atno 10763 bound_to 10752
  154.7366  135.3072  154.8804 H   0  0  0  0  0  0  0  0  0  0  0  0  # atno 10764 bound_to 10752
  153.9424  135.6832  153.4797 H   0  0  0  0  0  0  0  0  0  0  0  0  # atno 10765 bound_to 10752
  139.8981  134.8263  156.2536 H   0  0  0  0  0  0  0  0  0  0  0  0  # atno 11005 bound_to 11000
  145.0549  140.9045  143.4973 LP  0  0  0  0  0  0  0  0  0  0  0  0  # atno 17320 bound_to 7965
  145.1138  139.2739  143.5624 LP  0  0  0  0  0  0  0  0  0  0  0  0  # atno 17321 bound_to 7965
  139.6754  144.7659  151.1706 LP  0  0  0  0  0  0  0  0  0  0  0  0  # atno 17342 bound_to 10162
  140.7628  143.5803  150.8902 LP  0  0  0  0  0  0  0  0  0  0  0  0  # atno 17343 bound_to 10162
  156.6852  130.4579  149.5616 LP  0  0  0  0  0  0  0  0  0  0  0  0  # atno 17370 bound_to 10713
  156.1901  130.6554  151.1051 LP  0  0  0  0  0  0  0  0  0  0  0  0  # atno 17371 bound_to 10713
  141.0208  133.7043  156.1264 LP  0  0  0  0  0  0  0  0  0  0  0  0  # atno 17394 bound_to 11000
  140.7237  134.4331  157.5572 LP  0  0  0  0  0  0  0  0  0  0  0  0  # atno 17395 bound_to 11000

$$$$
