AV-unprocessed.smi:2025|AV-procd|sdf|8197|dock9
  -GOLD-   2272010453D 1   1.00000     0.00000
 Structure written by MMmdl.
 39 40  0  0  0  0  0  0  0  0  1 V2000
  147.1957  141.7251  157.2189 C   0  0  0  0  0  0  0  0  0  0  0  0
  148.5189  141.2882  156.5716 C   0  0  2  0  0  0  0  0  0  0  0  0
  149.5744  142.1978  157.0120 N   0  0  0  0  0  0  0  0  0  0  0  0
  150.6542  141.8533  157.7306 C   0  0  0  0  0  0  0  0  0  0  0  0
  150.8813  140.7013  158.1030 O   0  0  0  0  0  0  0  0  0  0  0  0
  151.6375  142.9869  158.0510 C   0  0  0  0  0  0  0  0  0  0  0  0
  152.0857  142.9785  159.4497 N   0  0  0  0  0  0  0  0  0  0  0  0
  151.6839  143.9910  160.3022 C   0  0  0  0  0  0  0  0  0  0  0  0
  152.0629  144.0696  161.5962 C   0  0  0  0  0  0  0  0  0  0  0  0
  152.9379  143.0607  162.1799 C   0  0  0  0  0  0  0  0  0  0  0  0
  153.3192  143.0894  163.3510 O   0  0  0  0  0  0  0  0  0  0  0  0
  153.3279  142.0330  161.2910 N   0  0  0  0  0  0  0  0  0  0  0  0
  154.1987  141.0098  161.8311 C   0  0  0  0  0  0  0  0  0  0  0  0
  152.9374  141.9613  159.9332 C   0  0  0  0  0  0  0  0  0  0  0  0
  153.3163  141.0589  159.1828 O   0  0  0  0  0  0  0  0  0  0  0  0
  148.4440  141.2756  155.0301 C   0  0  2  0  0  0  0  0  0  0  0  0
  147.1574  140.6745  154.4615 C   0  0  0  0  0  0  0  0  0  0  0  0
  147.5988  140.2500  153.0800 C   0  0  0  0  0  0  0  0  0  0  0  0
  149.0115  139.7416  153.3473 C   0  0  0  0  0  0  0  0  0  0  0  0
  149.4841  140.4695  154.4776 O   0  0  0  0  0  0  0  0  0  0  0  0
  146.3846  141.0418  156.9671 H   0  0  0  0  0  0  0  0  0  0  0  0
  146.9037  142.7237  156.8924 H   0  0  0  0  0  0  0  0  0  0  0  0
  147.2786  141.7409  158.3061 H   0  0  0  0  0  0  0  0  0  0  0  0
  148.7368  140.2768  156.9198 H   0  0  0  0  0  0  0  0  0  0  0  0
  149.4776  143.1662  156.7437 H   0  0  0  0  0  0  0  0  0  0  0  0
  152.4962  142.8880  157.3855 H   0  0  0  0  0  0  0  0  0  0  0  0
  151.1862  143.9502  157.8065 H   0  0  0  0  0  0  0  0  0  0  0  0
  151.0374  144.7645  159.9136 H   0  0  0  0  0  0  0  0  0  0  0  0
  151.7158  144.8904  162.2067 H   0  0  0  0  0  0  0  0  0  0  0  0
  154.3346  140.1917  161.1246 H   0  0  0  0  0  0  0  0  0  0  0  0
  153.7300  140.6223  162.7374 H   0  0  0  0  0  0  0  0  0  0  0  0
  155.1551  141.4876  162.0495 H   0  0  0  0  0  0  0  0  0  0  0  0
  148.5679  142.2864  154.6377 H   0  0  0  0  0  0  0  0  0  0  0  0
  146.8518  139.8009  155.0394 H   0  0  0  0  0  0  0  0  0  0  0  0
  146.3278  141.3817  154.4438 H   0  0  0  0  0  0  0  0  0  0  0  0
  146.9511  139.4953  152.6333 H   0  0  0  0  0  0  0  0  0  0  0  0
  147.6287  141.1142  152.4151 H   0  0  0  0  0  0  0  0  0  0  0  0
  148.9947  138.6815  153.6027 H   0  0  0  0  0  0  0  0  0  0  0  0
  149.6682  139.8722  152.4870 H   0  0  0  0  0  0  0  0  0  0  0  0
  1  2  1  0  0  0  0
  1 21  1  0  0  0  0
  1 22  1  0  0  0  0
  1 23  1  0  0  0  0
  2  3  1  0  0  0  0
  2 16  1  0  0  0  0
  2 24  1  0  0  0  0
  3  4  1  0  0  0  0
  3 25  1  0  0  0  0
  4  5  2  0  0  0  0
  4  6  1  0  0  0  0
  6  7  1  0  0  0  0
  6 26  1  0  0  0  0
  6 27  1  0  0  0  0
  7 14  1  0  0  0  0
  7  8  1  0  0  0  0
  8  9  2  0  0  0  0
  8 28  1  0  0  0  0
  9 10  1  0  0  0  0
  9 29  1  0  0  0  0
 10 11  2  0  0  0  0
 10 12  1  0  0  0  0
 12 13  1  0  0  0  0
 12 14  1  0  0  0  0
 13 30  1  0  0  0  0
 13 31  1  0  0  0  0
 13 32  1  0  0  0  0
 14 15  2  0  0  0  0
 16 20  1  0  0  0  0
 16 17  1  0  0  0  0
 16 33  1  0  0  0  0
 17 18  1  0  0  0  0
 17 34  1  0  0  0  0
 17 35  1  0  0  0  0
 18 19  1  0  0  0  0
 18 36  1  0  0  0  0
 18 37  1  0  0  0  0
 19 20  1  0  0  0  0
 19 38  1  0  0  0  0
 19 39  1  0  0  0  0
M  END
> <s_m_source_file>
AV-unprocessed.smi

> <i_m_source_file_index>
2025

> <i_lp_mmshare_version>
43012

> <i_f3d_flags>
0

> <s_epik_input>
TzFbQ0gyXVtDSDJdW0NIMl1bQ0BIXTFbQ0BIXShbQ0gzXSlbTkhdQyg9TylbQ0gyXW4yW2NIXVtjSF1jKD1PKW4oW0NIM10pYzI9Tw==

> <s_epik_cmdline>
J2VwaWtfcHl0aG9uJywgJy1waCcsICc3LjAnLCAnLXRuJywgJzgnLCAnLW1hJywgJzIwMCcsICctbWV0YWxfYmluZGluZycsICctaW1hZScsICc8aW5maWxlLm1hZT4nLCAnLW9tYWUnLCAnPG91dGZpbGUubWFlPic=

> <r_lp_tautomer_probability>
1

> <r_epik_Ionization_Penalty>
3.54787e-08

> <r_epik_Ionization_Penalty_Charging>
1.24654e-08

> <r_epik_Ionization_Penalty_Neutral>
2.30132e-08

> <r_epik_State_Penalty>
-0

> <r_epik_Charging_Adjusted_Penalty>
1.24654e-08

> <i_epik_Tot_Q>
0

> <i_epik_Tot_abs_Q>
0

> <r_epik_Metal_State_Penalty>
-0

> <b_epik_Metal_Only>
0

> <s_lp_Force_Field>
OPLS_2005

> <r_lp_Energy>
25.7594

> <b_lp_Chiralities_Consistent>
1

> <s_lp_Variant>
AV-unprocessed.smi:2025-1

> <Gold.Version>
5.8.1

> <Gold.Id.Protein>
6NUR|6NUR_protein|mol2

> <Gold.PLP.Fitness>
43.3819

> <Gold.PLP.PLP>
-41.5448

> <Gold.PLP.part.hbond>
-1.0000

> <Gold.PLP.part.metal>
0.0000

> <Gold.PLP.part.buried>
-0.9324

> <Gold.PLP.part.nonpolar>
-38.2387

> <Gold.PLP.part.repulsive>
0.2423

> <Gold.PLP.ligand.clash>
0.0000

> <Gold.PLP.ligand.torsion>
0.5538

> <Gold.PLP.Chemscore.Hbond>
0.9760

> <Gold.PLP.Chemscore.CHOScore>
0.0000

> <Gold.PLP.Chemscore.Metal>
0.0000

> <Gold.Chemscore.Hbonds>
donor molecule, donor type, donor heavy atom, donor atom, acceptor molecule, acceptor atom, score
      L1  H     3    25       P1  8028  1.00
      P1  H  7989  7998       L1    20  0.06

> <Gold.PLP.Chemscore.Internal.Correction>
0.0166

> <Gold.Rescore>
     Score         DG    S(hbond)    S(metal)    S(lipo)     H(rot)  DE(clash)    DE(int)     intcor
     10.07     -12.46       1.00        0.00      71.04       1.82       0.22       2.17       ----

> <Gold.Chemscore.Fitness>
10.0746

> <Gold.Chemscore.DG>
-12.4607

> <Gold.Chemscore.ZeroCoef>
-5.4800

> <Gold.Chemscore.Hbond>
0.9986

> <Gold.Chemscore.Metal>
0.0000

> <Gold.Chemscore.Lipo>
71.0416

> <Gold.Chemscore.Internal_Hbond>
0.0000

> <Gold.Chemscore.DEClash>
0.2174

> <Gold.Chemscore.DEInternal>
2.1687

> <Gold.Chemscore.Rot>
1.8228

> <Gold.Chemscore.Internal.Correction>
   9.000000E+99

> <Gold.Chemscore.Hbonds>
donor molecule, donor type, donor heavy atom, donor atom, acceptor molecule, acceptor atom, score
      L1  H     3    25       P1  8028  0.96
      P1  H  7989  7998       L1    20  0.01

> <Gold.Chemscore.Hbond.Weighted>
-3.3353

> <Gold.Chemscore.Metal.Weighted>
-0.0000

> <Gold.Chemscore.Lipo.Weighted>
-8.3119

> <Gold.Chemscore.Internal_Hbond.Weighted>
0.0000

> <Gold.Chemscore.DEClash.Weighted>
0.2174

> <Gold.Chemscore.DEInternal.Weighted>
2.1687

> <Gold.Chemscore.Rot.Weighted>
4.6665

> <Gold.Chemscore.Internal.Correction.Weighted>
   9.000000E+99

> <Gold.Protein.RotatedTorsions>
[ 6907 6896 6895 6894 ] final   87.16 input  -60.11 | X-H torsion
[ 7974 7965 7964 7962 ] final -141.96 input  175.53 | X-H torsion
[ 8008 7997 7996 7995 ] final -102.62 input   59.86 | X-H torsion
[ 10167 10162 10161 10158 ] final  -62.85 input  -65.29 | X-H torsion
[ 10718 10713 10712 10709 ] final  -93.43 input   66.30 | X-H torsion
[ 10763 10752 10751 10750 ] final  125.31 input  -60.55 | X-H torsion
[ 11005 11000 10999 10996 ] final -172.91 input  -57.11 | X-H torsion

> <Gold.Protein.ActiveResidues>
 VAL166  LYS551  ARG553  GLY616  TRP617  ASP618  TYR619  PRO620  LYS621  CYS622 
 ASP623  PHE694  ASN695  SER759  ASP760  ASP761  ALA762  ILE779  LEU786  VAL792 
 PHE793  MET794  SER795  GLU796  ALA797  LYS798  CYS799  TRP800  GLU811  SER814 

> <Gold.Protein.RotatedAtoms>
  152.5406  134.2320  159.8828 H   0  0  0  0  0  0  0  0  0  0  0  0  # atno 6907 bound_to 6896
  151.2291  133.4453  159.2611 H   0  0  0  0  0  0  0  0  0  0  0  0  # atno 6908 bound_to 6896
  151.0732  134.9825  159.8375 H   0  0  0  0  0  0  0  0  0  0  0  0  # atno 6909 bound_to 6896
  144.8479  140.6016  143.5409 H   0  0  0  0  0  0  0  0  0  0  0  0  # atno 7974 bound_to 7965
  154.8592  140.0427  157.1654 H   0  0  0  0  0  0  0  0  0  0  0  0  # atno 8008 bound_to 7997
  154.8858  140.2979  155.5378 H   0  0  0  0  0  0  0  0  0  0  0  0  # atno 8009 bound_to 7997
  156.2998  140.2402  156.3867 H   0  0  0  0  0  0  0  0  0  0  0  0  # atno 8010 bound_to 7997
  140.5911  143.2342  151.6138 H   0  0  0  0  0  0  0  0  0  0  0  0  # atno 10167 bound_to 10162
  156.0013  130.5027  150.5775 H   0  0  0  0  0  0  0  0  0  0  0  0  # atno 10718 bound_to 10713
  153.6752  135.3323  155.3164 H   0  0  0  0  0  0  0  0  0  0  0  0  # atno 10763 bound_to 10752
  154.8480  135.4396  154.1663 H   0  0  0  0  0  0  0  0  0  0  0  0  # atno 10764 bound_to 10752
  153.2665  135.6996  153.7601 H   0  0  0  0  0  0  0  0  0  0  0  0  # atno 10765 bound_to 10752
  140.4916  134.5979  157.4957 H   0  0  0  0  0  0  0  0  0  0  0  0  # atno 11005 bound_to 11000
  145.4559  139.1518  143.3893 LP  0  0  0  0  0  0  0  0  0  0  0  0  # atno 17320 bound_to 7965
  146.2760  140.4687  142.8795 LP  0  0  0  0  0  0  0  0  0  0  0  0  # atno 17321 bound_to 7965
  139.5228  144.3152  152.0958 LP  0  0  0  0  0  0  0  0  0  0  0  0  # atno 17342 bound_to 10162
  140.2317  144.4362  150.6297 LP  0  0  0  0  0  0  0  0  0  0  0  0  # atno 17343 bound_to 10162
  157.3660  131.0758  151.1597 LP  0  0  0  0  0  0  0  0  0  0  0  0  # atno 17370 bound_to 10713
  157.2366  130.6550  149.5872 LP  0  0  0  0  0  0  0  0  0  0  0  0  # atno 17371 bound_to 10713
  139.9765  134.7206  155.9939 LP  0  0  0  0  0  0  0  0  0  0  0  0  # atno 17394 bound_to 11000
  141.1481  133.6552  156.3929 LP  0  0  0  0  0  0  0  0  0  0  0  0  # atno 17395 bound_to 11000

$$$$
