AV-unprocessed.smi:48|AV-procd|sdf|449|dock2
  -GOLD-   2262016313D 1   1.00000     0.00000
 Structure written by MMmdl.
 30 32  0  0  0  0  0  0  0  0  1 V2000
  144.4279  133.1763  148.4699 O   0  0  0  0  0  0  0  0  0  0  0  0
  144.5471  132.8450  149.8369 C   0  0  0  0  0  0  0  0  0  0  0  0
  144.1262  134.0409  150.7038 C   0  0  1  0  0  0  0  0  0  0  0  0
  144.1252  133.6647  152.0768 O   0  0  0  0  0  0  0  0  0  0  0  0
  144.2175  134.8044  152.8791 C   0  0  2  0  0  0  0  0  0  0  0  0
  142.8541  135.1114  153.4231 N   0  0  0  0  0  0  0  0  0  0  0  0
  141.6786  134.4862  153.1948 C   0  0  0  0  0  0  0  0  0  0  0  0
  140.6001  134.9636  153.8163 N   0  0  0  0  0  0  0  0  0  0  0  0
  141.1382  136.0197  154.5327 C   0  0  0  0  0  0  0  0  0  0  0  0
  140.5724  136.9730  155.4136 C   0  0  0  0  0  0  0  0  0  0  0  0
  138.8859  136.9560  155.7786 Cl  0  0  0  0  0  0  0  0  0  0  0  0
  141.3878  137.9035  155.9659 N   0  0  0  0  0  0  0  0  0  0  0  0
  142.6927  137.8945  155.6653 C   0  0  0  0  0  0  0  0  0  0  0  0
  143.3643  137.0653  154.8576 N   0  0  0  0  0  0  0  0  0  0  0  0
  142.5386  136.1286  154.3047 C   0  0  0  0  0  0  0  0  0  0  0  0
  144.7764  135.9418  151.9900 C   0  0  2  0  0  0  0  0  0  0  0  0
  143.8524  136.9933  151.7501 O   0  0  0  0  0  0  0  0  0  0  0  0
  145.1396  135.1850  150.7137 C   0  0  2  0  0  0  0  0  0  0  0  0
  145.0853  135.9826  149.5454 O   0  0  0  0  0  0  0  0  0  0  0  0
  143.1437  134.4175  150.4122 H   0  0  0  0  0  0  0  0  0  0  0  0
  144.8246  134.5958  153.7608 H   0  0  0  0  0  0  0  0  0  0  0  0
  145.6647  136.3658  152.4594 H   0  0  0  0  0  0  0  0  0  0  0  0
  146.1464  134.7769  150.8156 H   0  0  0  0  0  0  0  0  0  0  0  0
  145.2406  133.5643  148.1831 H   0  0  0  0  0  0  0  0  0  0  0  0
  143.9554  131.9587  150.0671 H   0  0  0  0  0  0  0  0  0  0  0  0
  145.5918  132.5952  150.0231 H   0  0  0  0  0  0  0  0  0  0  0  0
  141.6054  133.6316  152.5387 H   0  0  0  0  0  0  0  0  0  0  0  0
  143.2848  138.6630  156.1398 H   0  0  0  0  0  0  0  0  0  0  0  0
  144.0933  137.4260  150.9453 H   0  0  0  0  0  0  0  0  0  0  0  0
  144.5211  136.7217  149.7131 H   0  0  0  0  0  0  0  0  0  0  0  0
  1  2  1  0  0  0  0
  1 24  1  0  0  0  0
  2  3  1  0  0  0  0
  2 25  1  0  0  0  0
  2 26  1  0  0  0  0
  3 20  1  0  0  0  0
  3 18  1  0  0  0  0
  3  4  1  0  0  0  0
  4  5  1  0  0  0  0
  5 21  1  0  0  0  0
  5  6  1  0  0  0  0
  5 16  1  0  0  0  0
  6 15  1  0  0  0  0
  6  7  1  0  0  0  0
  7  8  2  0  0  0  0
  7 27  1  0  0  0  0
  8  9  1  0  0  0  0
  9 15  2  0  0  0  0
  9 10  1  0  0  0  0
 10 11  1  0  0  0  0
 10 12  2  0  0  0  0
 12 13  1  0  0  0  0
 13 14  2  0  0  0  0
 13 28  1  0  0  0  0
 14 15  1  0  0  0  0
 16 22  1  0  0  0  0
 16 17  1  0  0  0  0
 16 18  1  0  0  0  0
 17 29  1  0  0  0  0
 18 23  1  0  0  0  0
 18 19  1  0  0  0  0
 19 30  1  0  0  0  0
M  END
> <s_m_source_file>
AV-unprocessed.smi

> <i_m_source_file_index>
48

> <i_lp_mmshare_version>
43012

> <i_f3d_flags>
0

> <s_epik_input>
W09IXVtDSDJdW0NASF0xT1tDQEhdKFtDQEhdKFtPSF0pW0NAQEhdMVtPSF0pbihbY0hdbjIpYyhjMjMpbltjSF1uYzNDbA==

> <s_epik_cmdline>
J2VwaWtfcHl0aG9uJywgJy1waCcsICc3LjAnLCAnLXRuJywgJzgnLCAnLW1hJywgJzIwMCcsICctbWV0YWxfYmluZGluZycsICctaW1hZScsICc8aW5maWxlLm1hZT4nLCAnLW9tYWUnLCAnPG91dGZpbGUubWFlPic=

> <r_lp_tautomer_probability>
1

> <r_epik_Ionization_Penalty>
3.45505e-06

> <r_epik_Ionization_Penalty_Charging>
0

> <r_epik_Ionization_Penalty_Neutral>
3.45505e-06

> <r_epik_State_Penalty>
-0

> <r_epik_Charging_Adjusted_Penalty>
0

> <i_epik_Tot_Q>
0

> <i_epik_Tot_abs_Q>
0

> <r_epik_Metal_State_Penalty>
-0

> <b_epik_Metal_Only>
0

> <s_epik_Chemistry_Notes>
This compound contains an acetal/aminal-like group ( X-CH(R)-Y where X, Y are N, S, or O) that may be acid/base labile, releasing an aldehyde.

> <s_lp_Force_Field>
OPLS_2005

> <r_lp_Energy>
41.4935

> <b_lp_Chiralities_Consistent>
1

> <s_lp_Variant>
AV-unprocessed.smi:48-3

> <Gold.Version>
5.8.1

> <Gold.Id.Protein>
6NUR|6NUR_protein|mol2

> <Gold.PLP.Fitness>
39.0138

> <Gold.PLP.PLP>
-28.5045

> <Gold.PLP.part.hbond>
-5.0033

> <Gold.PLP.part.metal>
0.0000

> <Gold.PLP.part.buried>
-6.4878

> <Gold.PLP.part.nonpolar>
-18.0166

> <Gold.PLP.part.repulsive>
0.3726

> <Gold.PLP.ligand.clash>
0.0002

> <Gold.PLP.ligand.torsion>
0.0755

> <Gold.PLP.Chemscore.Hbond>
3.5283

> <Gold.PLP.Chemscore.CHOScore>
0.0000

> <Gold.PLP.Chemscore.Metal>
0.0000

> <Gold.Chemscore.Hbonds>
donor molecule, donor type, donor heavy atom, donor atom, acceptor molecule, acceptor atom, score
      L1  H     1    24       P1  7921  1.00
      L1  H    17    29       P1 10171  1.00
      L1  H    19    30       P1 10171  1.00

> <Gold.PLP.Chemscore.Internal.Correction>
0.0757

> <Gold.Rescore>
     Score         DG    S(hbond)    S(metal)    S(lipo)     H(rot)  DE(clash)    DE(int)     intcor
      9.37      -9.70       2.96        0.00      34.77       3.80       0.05       0.29       ----

> <Gold.Chemscore.Fitness>
9.3659

> <Gold.Chemscore.DG>
-9.7002

> <Gold.Chemscore.ZeroCoef>
-5.4800

> <Gold.Chemscore.Hbond>
2.9594

> <Gold.Chemscore.Metal>
0.0000

> <Gold.Chemscore.Lipo>
34.7719

> <Gold.Chemscore.Internal_Hbond>
0.0000

> <Gold.Chemscore.DEClash>
0.0456

> <Gold.Chemscore.DEInternal>
0.2888

> <Gold.Chemscore.Rot>
3.8017

> <Gold.Chemscore.Internal.Correction>
   9.000000E+99

> <Gold.Chemscore.Hbonds>
donor molecule, donor type, donor heavy atom, donor atom, acceptor molecule, acceptor atom, score
      L1  H     1    24       P1  7921  0.48
      L1  H    17    29       P1 10171  0.95
      L1  H    19    30       P1 10171  0.98

> <Gold.Chemscore.Hbond.Weighted>
-9.8843

> <Gold.Chemscore.Metal.Weighted>
-0.0000

> <Gold.Chemscore.Lipo.Weighted>
-4.0683

> <Gold.Chemscore.Internal_Hbond.Weighted>
0.0000

> <Gold.Chemscore.DEClash.Weighted>
0.0456

> <Gold.Chemscore.DEInternal.Weighted>
0.2888

> <Gold.Chemscore.Rot.Weighted>
9.7324

> <Gold.Chemscore.Internal.Correction.Weighted>
   9.000000E+99

> <Gold.Protein.RotatedTorsions>
[ 6907 6896 6895 6894 ] final  -19.35 input  -60.11 | X-H torsion
[ 7974 7965 7964 7962 ] final   27.76 input  175.53 | X-H torsion
[ 8008 7997 7996 7995 ] final  151.89 input   59.86 | X-H torsion
[ 10167 10162 10161 10158 ] final -168.05 input  -65.29 | X-H torsion
[ 10718 10713 10712 10709 ] final  104.23 input   66.30 | X-H torsion
[ 10763 10752 10751 10750 ] final  -51.09 input  -60.55 | X-H torsion
[ 11005 11000 10999 10996 ] final   43.98 input  -57.11 | X-H torsion

> <Gold.Protein.ActiveResidues>
 VAL166  LYS551  ARG553  GLY616  TRP617  ASP618  TYR619  PRO620  LYS621  CYS622 
 ASP623  PHE694  ASN695  SER759  ASP760  ASP761  ALA762  ILE779  LEU786  VAL792 
 PHE793  MET794  SER795  GLU796  ALA797  LYS798  CYS799  TRP800  GLU811  SER814 

> <Gold.Protein.RotatedAtoms>
  151.2645  135.0664  159.9110 H   0  0  0  0  0  0  0  0  0  0  0  0  # atno 6907 bound_to 6896
  152.5360  134.0196  159.7986 H   0  0  0  0  0  0  0  0  0  0  0  0  # atno 6908 bound_to 6896
  151.0424  133.5645  159.2681 H   0  0  0  0  0  0  0  0  0  0  0  0  # atno 6909 bound_to 6896
  146.1766  139.7147  142.8930 H   0  0  0  0  0  0  0  0  0  0  0  0  # atno 7974 bound_to 7965
  156.2654  140.2035  156.6246 H   0  0  0  0  0  0  0  0  0  0  0  0  # atno 8008 bound_to 7997
  154.6730  140.0548  157.0210 H   0  0  0  0  0  0  0  0  0  0  0  0  # atno 8009 bound_to 7997
  155.1110  140.3215  155.4524 H   0  0  0  0  0  0  0  0  0  0  0  0  # atno 8010 bound_to 7997
  139.6010  144.1011  152.1743 H   0  0  0  0  0  0  0  0  0  0  0  0  # atno 10167 bound_to 10162
  157.6747  131.0799  150.5675 H   0  0  0  0  0  0  0  0  0  0  0  0  # atno 10718 bound_to 10713
  154.1210  135.6534  153.4903 H   0  0  0  0  0  0  0  0  0  0  0  0  # atno 10763 bound_to 10752
  153.0225  135.5270  154.7097 H   0  0  0  0  0  0  0  0  0  0  0  0  # atno 10764 bound_to 10752
  154.6304  135.2975  155.0193 H   0  0  0  0  0  0  0  0  0  0  0  0  # atno 10765 bound_to 10752
  140.1594  134.4360  155.8328 H   0  0  0  0  0  0  0  0  0  0  0  0  # atno 11005 bound_to 11000
  145.4193  141.0405  143.2973 LP  0  0  0  0  0  0  0  0  0  0  0  0  # atno 17320 bound_to 7965
  144.8247  139.5731  143.6971 LP  0  0  0  0  0  0  0  0  0  0  0  0  # atno 17321 bound_to 7965
  140.0607  144.5859  150.7265 LP  0  0  0  0  0  0  0  0  0  0  0  0  # atno 17342 bound_to 10162
  140.7249  143.2626  151.4153 LP  0  0  0  0  0  0  0  0  0  0  0  0  # atno 17343 bound_to 10162
  156.5977  130.4346  149.5910 LP  0  0  0  0  0  0  0  0  0  0  0  0  # atno 17370 bound_to 10713
  156.2532  130.6919  151.1663 LP  0  0  0  0  0  0  0  0  0  0  0  0  # atno 17371 bound_to 10713
  141.2208  133.6907  156.7566 LP  0  0  0  0  0  0  0  0  0  0  0  0  # atno 17394 bound_to 11000
  140.2508  134.8542  157.3665 LP  0  0  0  0  0  0  0  0  0  0  0  0  # atno 17395 bound_to 11000

$$$$
