AV-unprocessed.smi:3287|AV-procd|sdf|12600|dock7
  -GOLD-   2272018523D 1   1.00000     0.00000
 Structure written by MMmdl.
 43 44  0  0  0  0  0  0  0  0  2 V2000
  150.8694  145.0496  160.1396 C   0  0  0  0  0  0  0  0  0  0  0  0
  152.2259  144.5075  159.6457 C   0  0  2  0  0  0  0  0  0  0  0  0
  152.3482  144.5937  158.1104 C   0  0  0  0  0  0  0  0  0  0  0  0
  151.4803  143.5466  157.3911 C   0  0  0  0  0  0  0  0  0  0  0  0
  151.8026  142.1180  157.8750 C   0  0  2  0  0  0  0  0  0  0  0  0
  150.9252  141.1147  157.2333 N   0  3  0  0  0  0  0  0  0  0  0  0
  151.1990  140.8592  155.8026 C   0  0  0  0  0  0  0  0  0  0  0  0
  150.2434  139.7997  155.2275 C   0  0  2  0  0  0  0  0  0  0  0  0
  150.9250  139.0653  154.2285 O   0  0  0  0  0  0  0  0  0  0  0  0
  148.9745  140.4420  154.6892 C   0  0  0  0  0  0  0  0  0  0  0  0
  147.9530  139.6477  154.1273 C   0  0  0  0  0  0  0  0  0  0  0  0
  146.7902  140.2846  153.6486 C   0  0  0  0  0  0  0  0  0  0  0  0
  146.6007  141.6202  153.7022 N   0  0  0  0  0  0  0  0  0  0  0  0
  147.5800  142.3760  154.2430 C   0  0  0  0  0  0  0  0  0  0  0  0
  148.7802  141.8392  154.7500 C   0  0  0  0  0  0  0  0  0  0  0  0
  151.6694  142.0230  159.4063 C   0  0  0  0  0  0  0  0  0  0  0  0
  152.5479  143.0684  160.1228 C   0  0  2  0  0  0  0  0  0  0  0  0
  152.4962  142.9071  161.6511 C   0  0  0  0  0  0  0  0  0  0  0  0
  150.0347  144.4244  159.8241 H   0  0  0  0  0  0  0  0  0  0  0  0
  150.6897  146.0536  159.7540 H   0  0  0  0  0  0  0  0  0  0  0  0
  150.8384  145.1195  161.2267 H   0  0  0  0  0  0  0  0  0  0  0  0
  152.9882  145.1678  160.0617 H   0  0  0  0  0  0  0  0  0  0  0  0
  152.0864  145.5951  157.7668 H   0  0  0  0  0  0  0  0  0  0  0  0
  153.3907  144.4433  157.8263 H   0  0  0  0  0  0  0  0  0  0  0  0
  150.4247  143.7664  157.5547 H   0  0  0  0  0  0  0  0  0  0  0  0
  151.6462  143.6325  156.3173 H   0  0  0  0  0  0  0  0  0  0  0  0
  152.8359  141.8811  157.6161 H   0  0  0  0  0  0  0  0  0  0  0  0
  151.0582  140.2379  157.7175 H   0  0  0  0  0  0  0  0  0  0  0  0
  151.0828  141.7897  155.2467 H   0  0  0  0  0  0  0  0  0  0  0  0
  152.2348  140.5393  155.6785 H   0  0  0  0  0  0  0  0  0  0  0  0
  149.9674  139.0978  156.0160 H   0  0  0  0  0  0  0  0  0  0  0  0
  150.2946  138.7782  153.5849 H   0  0  0  0  0  0  0  0  0  0  0  0
  148.0515  138.5741  154.0624 H   0  0  0  0  0  0  0  0  0  0  0  0
  145.9903  139.7049  153.2124 H   0  0  0  0  0  0  0  0  0  0  0  0
  147.4020  143.4407  154.2738 H   0  0  0  0  0  0  0  0  0  0  0  0
  149.5302  142.4895  155.1761 H   0  0  0  0  0  0  0  0  0  0  0  0
  150.6265  142.1486  159.6993 H   0  0  0  0  0  0  0  0  0  0  0  0
  151.9566  141.0226  159.7331 H   0  0  0  0  0  0  0  0  0  0  0  0
  153.5804  142.8662  159.8326 H   0  0  0  0  0  0  0  0  0  0  0  0
  151.4806  143.0039  162.0348 H   0  0  0  0  0  0  0  0  0  0  0  0
  153.1160  143.6548  162.1468 H   0  0  0  0  0  0  0  0  0  0  0  0
  152.8649  141.9258  161.9511 H   0  0  0  0  0  0  0  0  0  0  0  0
  149.9625  141.3981  157.3458 H   0  0  0  0  0  0  0  0  0  0  0  0
  1  2  1  0  0  0  0
  1 19  1  0  0  0  0
  1 20  1  0  0  0  0
  1 21  1  0  0  0  0
  2 17  1  0  0  0  0
  2  3  1  0  0  0  0
  2 22  1  0  0  0  0
  3  4  1  0  0  0  0
  3 23  1  0  0  0  0
  3 24  1  0  0  0  0
  4  5  1  0  0  0  0
  4 25  1  0  0  0  0
  4 26  1  0  0  0  0
  5  6  1  0  0  0  0
  5 16  1  0  0  0  0
  5 27  1  0  0  0  0
  6  7  1  0  0  0  0
  6 28  1  0  0  0  0
  6 43  1  0  0  0  0
  7  8  1  0  0  0  0
  7 29  1  0  0  0  0
  7 30  1  0  0  0  0
  8  9  1  0  0  0  0
  8 10  1  0  0  0  0
  8 31  1  0  0  0  0
  9 32  1  0  0  0  0
 10 15  1  0  0  0  0
 10 11  2  0  0  0  0
 11 12  1  0  0  0  0
 11 33  1  0  0  0  0
 12 13  2  0  0  0  0
 12 34  1  0  0  0  0
 13 14  1  0  0  0  0
 14 15  2  0  0  0  0
 14 35  1  0  0  0  0
 15 36  1  0  0  0  0
 16 17  1  0  0  0  0
 16 37  1  0  0  0  0
 16 38  1  0  0  0  0
 17 18  1  0  0  0  0
 17 39  1  0  0  0  0
 18 40  1  0  0  0  0
 18 41  1  0  0  0  0
 18 42  1  0  0  0  0
M  CHG  1   6   1
M  END
> <s_m_source_file>
AV-unprocessed.smi

> <i_m_source_file_index>
3287

> <i_lp_mmshare_version>
43012

> <i_f3d_flags>
0

> <s_epik_input>
W0NIM11bQ0BASF0xW0NIMl1bQ0gyXVtDQEhdKFtDSDJdW0NASF0xW0NIM10pW05IXVtDSDJdW0NASF0oW09IXSljMltjSF1bY0hdbltjSF1bY0hdMg==

> <s_epik_cmdline>
J2VwaWtfcHl0aG9uJywgJy1waCcsICc3LjAnLCAnLXRuJywgJzgnLCAnLW1hJywgJzIwMCcsICctbWV0YWxfYmluZGluZycsICctaW1hZScsICc8aW5maWxlLm1hZT4nLCAnLW9tYWUnLCAnPG91dGZpbGUubWFlPic=

> <r_lp_tautomer_probability>
1

> <r_epik_Ionization_Penalty>
0.00537262

> <r_epik_Ionization_Penalty_Charging>
0.00321624

> <r_epik_Ionization_Penalty_Neutral>
0.00215638

> <r_epik_State_Penalty>
-0

> <r_epik_Charging_Adjusted_Penalty>
0.00321624

> <i_epik_Tot_Q>
1

> <i_epik_Tot_abs_Q>
1

> <r_epik_Metal_State_Penalty>
-0

> <b_epik_Metal_Only>
0

> <s_lp_Force_Field>
OPLS_2005

> <r_lp_Energy>
17.0862

> <b_lp_Chiralities_Consistent>
1

> <s_lp_Variant>
AV-unprocessed.smi:3287-11

> <Gold.Version>
5.8.1

> <Gold.Id.Protein>
6NUR|6NUR_protein|mol2

> <Gold.PLP.Fitness>
46.8983

> <Gold.PLP.PLP>
-41.6940

> <Gold.PLP.part.hbond>
-0.9724

> <Gold.PLP.part.metal>
0.0000

> <Gold.PLP.part.buried>
-1.6748

> <Gold.PLP.part.nonpolar>
-39.8634

> <Gold.PLP.part.repulsive>
0.2516

> <Gold.PLP.ligand.clash>
0.0000

> <Gold.PLP.ligand.torsion>
0.4780

> <Gold.PLP.Chemscore.Hbond>
0.4095

> <Gold.PLP.Chemscore.CHOScore>
1.6372

> <Gold.PLP.Chemscore.Metal>
0.0000

> <Gold.Chemscore.Hbonds>
donor molecule, donor type, donor heavy atom, donor atom, acceptor molecule, acceptor atom, score
      P1  H  7989  7998       L1     9  0.42
      L1  C    12    34       P1 10175  0.95
      L1  C    14    35       P1  8028  0.76

> <Gold.PLP.Chemscore.Internal.Correction>
0.0203

> <Gold.Rescore>
     Score         DG    S(hbond)    S(metal)    S(lipo)     H(rot)  DE(clash)    DE(int)     intcor
     16.13     -16.70       0.00        0.00     137.53       1.90       0.00       0.57       ----

> <Gold.Chemscore.Fitness>
16.1276

> <Gold.Chemscore.DG>
-16.6978

> <Gold.Chemscore.ZeroCoef>
-5.4800

> <Gold.Chemscore.Hbond>
0.0000

> <Gold.Chemscore.Metal>
0.0000

> <Gold.Chemscore.Lipo>
137.5261

> <Gold.Chemscore.Internal_Hbond>
0.0000

> <Gold.Chemscore.DEClash>
0.0023

> <Gold.Chemscore.DEInternal>
0.5679

> <Gold.Chemscore.Rot>
1.9035

> <Gold.Chemscore.Internal.Correction>
   9.000000E+99

> <Gold.Chemscore.Hbonds>
donor molecule, donor type, donor heavy atom, donor atom, acceptor molecule, acceptor atom, score
      P1  H  7989  7998       L1     9  0.01

> <Gold.Chemscore.Hbond.Weighted>
-0.0001

> <Gold.Chemscore.Metal.Weighted>
-0.0000

> <Gold.Chemscore.Lipo.Weighted>
-16.0906

> <Gold.Chemscore.Internal_Hbond.Weighted>
0.0000

> <Gold.Chemscore.DEClash.Weighted>
0.0023

> <Gold.Chemscore.DEInternal.Weighted>
0.5679

> <Gold.Chemscore.Rot.Weighted>
4.8729

> <Gold.Chemscore.Internal.Correction.Weighted>
   9.000000E+99

> <Gold.Protein.RotatedTorsions>
[ 6907 6896 6895 6894 ] final  127.25 input  -60.11 | X-H torsion
[ 7974 7965 7964 7962 ] final  -19.58 input  175.53 | X-H torsion
[ 8008 7997 7996 7995 ] final   17.04 input   59.86 | X-H torsion
[ 10167 10162 10161 10158 ] final   80.57 input  -65.29 | X-H torsion
[ 10718 10713 10712 10709 ] final -152.44 input   66.30 | X-H torsion
[ 10763 10752 10751 10750 ] final   77.71 input  -60.55 | X-H torsion
[ 11005 11000 10999 10996 ] final  -35.21 input  -57.11 | X-H torsion

> <Gold.Protein.ActiveResidues>
 VAL166  LYS551  ARG553  GLY616  TRP617  ASP618  TYR619  PRO620  LYS621  CYS622 
 ASP623  PHE694  ASN695  SER759  ASP760  ASP761  ALA762  ILE779  LEU786  VAL792 
 PHE793  MET794  SER795  GLU796  ALA797  LYS798  CYS799  TRP800  GLU811  SER814 

> <Gold.Protein.RotatedAtoms>
  152.3830  133.6572  159.6175 H   0  0  0  0  0  0  0  0  0  0  0  0  # atno 6907 bound_to 6896
  150.7756  133.9083  159.3370 H   0  0  0  0  0  0  0  0  0  0  0  0  # atno 6908 bound_to 6896
  151.6885  135.0952  160.0280 H   0  0  0  0  0  0  0  0  0  0  0  0  # atno 6909 bound_to 6896
  146.1834  140.4082  142.8486 H   0  0  0  0  0  0  0  0  0  0  0  0  # atno 7974 bound_to 7965
  154.8856  140.2979  155.5400 H   0  0  0  0  0  0  0  0  0  0  0  0  # atno 8008 bound_to 7997
  156.3021  140.2434  156.3799 H   0  0  0  0  0  0  0  0  0  0  0  0  # atno 8009 bound_to 7997
  154.8672  140.0403  157.1691 H   0  0  0  0  0  0  0  0  0  0  0  0  # atno 8010 bound_to 7997
  139.9484  144.6043  150.8184 H   0  0  0  0  0  0  0  0  0  0  0  0  # atno 10167 bound_to 10162
  156.4725  130.8265  151.2494 H   0  0  0  0  0  0  0  0  0  0  0  0  # atno 10718 bound_to 10713
  153.0819  135.4904  154.8520 H   0  0  0  0  0  0  0  0  0  0  0  0  # atno 10763 bound_to 10752
  154.7162  135.3030  154.9122 H   0  0  0  0  0  0  0  0  0  0  0  0  # atno 10764 bound_to 10752
  153.9801  135.6791  153.4803 H   0  0  0  0  0  0  0  0  0  0  0  0  # atno 10765 bound_to 10752
  140.9778  133.7073  156.1632 H   0  0  0  0  0  0  0  0  0  0  0  0  # atno 11005 bound_to 11000
  144.8354  140.6773  143.6264 LP  0  0  0  0  0  0  0  0  0  0  0  0  # atno 17320 bound_to 7965
  145.4011  139.1597  143.4177 LP  0  0  0  0  0  0  0  0  0  0  0  0  # atno 17321 bound_to 7965
  140.7590  143.3120  151.2823 LP  0  0  0  0  0  0  0  0  0  0  0  0  # atno 17342 bound_to 10162
  139.6648  144.0125  152.2716 LP  0  0  0  0  0  0  0  0  0  0  0  0  # atno 17343 bound_to 10162
  157.7490  131.0071  150.3179 LP  0  0  0  0  0  0  0  0  0  0  0  0  # atno 17370 bound_to 10713
  156.3604  130.3846  149.7256 LP  0  0  0  0  0  0  0  0  0  0  0  0  # atno 17371 bound_to 10713
  140.7232  134.4335  157.5573 LP  0  0  0  0  0  0  0  0  0  0  0  0  # atno 17394 bound_to 11000
  139.8938  134.8723  156.2208 LP  0  0  0  0  0  0  0  0  0  0  0  0  # atno 17395 bound_to 11000

$$$$
