AV-unprocessed.smi:1535|AV-procd|sdf|6176|dock4
  -GOLD-   22720 6333D 1   1.00000     0.00000
 Structure written by MMmdl.
 47 48  0  0  0  0  0  0  0  0  2 V2000
  145.7648  129.9760  151.7162 C   0  0  0  0  0  0  0  0  0  0  0  0
  145.6545  131.4807  151.8941 C   0  0  0  0  0  0  0  0  0  0  0  0
  144.5553  132.1505  151.3110 C   0  0  0  0  0  0  0  0  0  0  0  0
  144.4826  133.5268  151.4912 C   0  0  0  0  0  0  0  0  0  0  0  0
  143.5412  134.4579  151.0477 N   0  3  0  0  0  0  0  0  0  0  0  0
  143.8944  135.7010  151.4765 C   0  0  0  0  0  0  0  0  0  0  0  0
  145.0469  135.5778  152.1890 N   0  0  0  0  0  0  0  0  0  0  0  0
  145.8437  136.6091  152.8682 C   0  0  0  0  0  0  0  0  0  0  0  0
  145.9694  137.9027  152.0382 C   0  0  2  0  0  0  0  0  0  0  0  0
  146.3881  137.6140  150.7191 O   0  0  0  0  0  0  0  0  0  0  0  0
  146.8882  139.0022  152.6188 C   0  0  0  0  0  0  0  0  0  0  0  0
  146.5042  139.5210  153.9364 N   0  0  0  0  0  0  0  0  0  0  0  0
  146.8160  138.5450  154.9763 C   0  0  0  0  0  0  0  0  0  0  0  0
  147.1503  140.8031  154.2357 C   0  0  0  0  0  0  0  0  0  0  0  0
  146.2558  141.8180  154.9705 C   0  0  1  0  0  0  0  0  0  0  0  0
  146.9150  142.3011  156.2679 C   0  0  0  0  0  0  0  0  0  0  0  0
  145.9253  142.9598  154.1015 C   0  0  0  0  0  0  0  0  0  0  0  0
  145.6637  143.8562  153.4180 N   0  0  0  0  0  0  0  0  0  0  0  0
  145.4540  134.2382  152.2221 C   0  0  0  0  0  0  0  0  0  0  0  0
  146.5453  133.5929  152.7995 C   0  0  0  0  0  0  0  0  0  0  0  0
  146.6371  132.1934  152.6289 C   0  0  0  0  0  0  0  0  0  0  0  0
  147.8156  131.4649  153.2520 C   0  0  0  0  0  0  0  0  0  0  0  0
  144.9352  129.5815  151.1289 H   0  0  0  0  0  0  0  0  0  0  0  0
  145.7560  129.4745  152.6843 H   0  0  0  0  0  0  0  0  0  0  0  0
  146.6898  129.7186  151.2003 H   0  0  0  0  0  0  0  0  0  0  0  0
  143.8042  131.6150  150.7490 H   0  0  0  0  0  0  0  0  0  0  0  0
  143.3573  136.6189  151.2855 H   0  0  0  0  0  0  0  0  0  0  0  0
  145.3481  136.8218  153.8160 H   0  0  0  0  0  0  0  0  0  0  0  0
  146.8199  136.1919  153.1117 H   0  0  0  0  0  0  0  0  0  0  0  0
  144.9717  138.3346  151.9512 H   0  0  0  0  0  0  0  0  0  0  0  0
  145.6779  137.8206  150.1305 H   0  0  0  0  0  0  0  0  0  0  0  0
  147.8884  138.5689  152.6747 H   0  0  0  0  0  0  0  0  0  0  0  0
  146.9781  139.8260  151.9088 H   0  0  0  0  0  0  0  0  0  0  0  0
  146.4849  138.8865  155.9562 H   0  0  0  0  0  0  0  0  0  0  0  0
  147.8882  138.3501  155.0264 H   0  0  0  0  0  0  0  0  0  0  0  0
  146.3099  137.5987  154.7823 H   0  0  0  0  0  0  0  0  0  0  0  0
  148.0542  140.6239  154.8199 H   0  0  0  0  0  0  0  0  0  0  0  0
  147.4999  141.2767  153.3218 H   0  0  0  0  0  0  0  0  0  0  0  0
  145.3081  141.3506  155.2350 H   0  0  0  0  0  0  0  0  0  0  0  0
  146.2681  143.0012  156.7975 H   0  0  0  0  0  0  0  0  0  0  0  0
  147.8589  142.8085  156.0657 H   0  0  0  0  0  0  0  0  0  0  0  0
  147.1198  141.4669  156.9393 H   0  0  0  0  0  0  0  0  0  0  0  0
  147.2981  134.1320  153.3542 H   0  0  0  0  0  0  0  0  0  0  0  0
  148.4818  132.1544  153.7717 H   0  0  0  0  0  0  0  0  0  0  0  0
  148.3986  130.9528  152.4863 H   0  0  0  0  0  0  0  0  0  0  0  0
  147.4694  130.7272  153.9763 H   0  0  0  0  0  0  0  0  0  0  0  0
  142.7183  134.2624  150.4922 H   0  0  0  0  0  0  0  0  0  0  0  0
  1  2  1  0  0  0  0
  1 23  1  0  0  0  0
  1 24  1  0  0  0  0
  1 25  1  0  0  0  0
  2 21  1  0  0  0  0
  2  3  2  0  0  0  0
  3  4  1  0  0  0  0
  3 26  1  0  0  0  0
  4 19  2  0  0  0  0
  4  5  1  0  0  0  0
  5  6  2  0  0  0  0
  5 47  1  0  0  0  0
  6  7  1  0  0  0  0
  6 27  1  0  0  0  0
  7  8  1  0  0  0  0
  7 19  1  0  0  0  0
  8  9  1  0  0  0  0
  8 28  1  0  0  0  0
  8 29  1  0  0  0  0
  9 10  1  0  0  0  0
  9 11  1  0  0  0  0
  9 30  1  0  0  0  0
 10 31  1  0  0  0  0
 11 12  1  0  0  0  0
 11 32  1  0  0  0  0
 11 33  1  0  0  0  0
 12 13  1  0  0  0  0
 12 14  1  0  0  0  0
 13 34  1  0  0  0  0
 13 35  1  0  0  0  0
 13 36  1  0  0  0  0
 14 15  1  0  0  0  0
 14 37  1  0  0  0  0
 14 38  1  0  0  0  0
 15 16  1  0  0  0  0
 15 17  1  0  0  0  0
 15 39  1  0  0  0  0
 16 40  1  0  0  0  0
 16 41  1  0  0  0  0
 16 42  1  0  0  0  0
 17 18  3  0  0  0  0
 19 20  1  0  0  0  0
 20 21  2  0  0  0  0
 20 43  1  0  0  0  0
 21 22  1  0  0  0  0
 22 44  1  0  0  0  0
 22 45  1  0  0  0  0
 22 46  1  0  0  0  0
M  CHG  1   5   1
M  END
> <s_m_source_file>
AV-unprocessed.smi

> <i_m_source_file_index>
1535

> <i_lp_mmshare_version>
43012

> <i_f3d_flags>
0

> <s_epik_input>
W0NIM11jKFtjSF0xKWMoW0NIM10pW2NIXWMoYzEyKW4oW2NIXW4yKVtDSDJdW0NASF0oW09IXSlbQ0gyXU4oW0NIM10pW0NIMl1bQ0BIXShbQ0gzXSlDI04=

> <s_epik_cmdline>
J2VwaWtfcHl0aG9uJywgJy1waCcsICc3LjAnLCAnLXRuJywgJzgnLCAnLW1hJywgJzIwMCcsICctbWV0YWxfYmluZGluZycsICctaW1hZScsICc8aW5maWxlLm1hZT4nLCAnLW9tYWUnLCAnPG91dGZpbGUubWFlPic=

> <r_epik_Ionization_Penalty>
1.22846

> <r_epik_Ionization_Penalty_Charging>
1.21333

> <r_epik_Ionization_Penalty_Neutral>
0.0151341

> <r_epik_State_Penalty>
1.27012

> <r_epik_Charging_Adjusted_Penalty>
2.48344

> <i_epik_Tot_Q>
1

> <i_epik_Tot_abs_Q>
1

> <r_epik_Metal_State_Penalty>
5.28751

> <b_epik_Metal_Only>
0

> <s_lp_Force_Field>
OPLS_2005

> <r_lp_Energy>
31.5295

> <b_lp_Chiralities_Consistent>
1

> <s_lp_Variant>
AV-unprocessed.smi:1535-7

> <Gold.Version>
5.8.1

> <Gold.Id.Protein>
6NUR|6NUR_protein|mol2

> <Gold.PLP.Fitness>
50.7440

> <Gold.PLP.PLP>
-38.9945

> <Gold.PLP.part.hbond>
-4.1903

> <Gold.PLP.part.metal>
0.0000

> <Gold.PLP.part.buried>
-5.3810

> <Gold.PLP.part.nonpolar>
-31.2375

> <Gold.PLP.part.repulsive>
0.3674

> <Gold.PLP.ligand.clash>
0.0000

> <Gold.PLP.ligand.torsion>
1.6527

> <Gold.PLP.Chemscore.Hbond>
3.9920

> <Gold.PLP.Chemscore.CHOScore>
1.0000

> <Gold.PLP.Chemscore.Metal>
0.0000

> <Gold.Chemscore.Hbonds>
donor molecule, donor type, donor heavy atom, donor atom, acceptor molecule, acceptor atom, score
      L1  H     5    47       P1 10186  2.00
      L1  H    10    31       P1 10171  1.00
      P1  H  7954  7966       L1    10  1.00
      L1  C     6    27       P1 10171  1.00

> <Gold.PLP.Chemscore.Internal.Correction>
0.0790

> <Gold.Rescore>
     Score         DG    S(hbond)    S(metal)    S(lipo)     H(rot)  DE(clash)    DE(int)     intcor
     15.87     -17.78       2.69        0.00      85.15       2.59       0.08       1.83       ----

> <Gold.Chemscore.Fitness>
15.8733

> <Gold.Chemscore.DG>
-17.7824

> <Gold.Chemscore.ZeroCoef>
-5.4800

> <Gold.Chemscore.Hbond>
2.6872

> <Gold.Chemscore.Metal>
0.0000

> <Gold.Chemscore.Lipo>
85.1466

> <Gold.Chemscore.Internal_Hbond>
0.0000

> <Gold.Chemscore.DEClash>
0.0809

> <Gold.Chemscore.DEInternal>
1.8282

> <Gold.Chemscore.Rot>
2.5918

> <Gold.Chemscore.Internal.Correction>
   9.000000E+99

> <Gold.Chemscore.Hbonds>
donor molecule, donor type, donor heavy atom, donor atom, acceptor molecule, acceptor atom, score
      L1  H     5    47       P1 10186  0.69
      L1  H    10    31       P1 10171  0.94
      P1  H  7954  7966       L1    10  0.78

> <Gold.Chemscore.Hbond.Weighted>
-8.9753

> <Gold.Chemscore.Metal.Weighted>
-0.0000

> <Gold.Chemscore.Lipo.Weighted>
-9.9621

> <Gold.Chemscore.Internal_Hbond.Weighted>
0.0000

> <Gold.Chemscore.DEClash.Weighted>
0.0809

> <Gold.Chemscore.DEInternal.Weighted>
1.8282

> <Gold.Chemscore.Rot.Weighted>
6.6351

> <Gold.Chemscore.Internal.Correction.Weighted>
   9.000000E+99

> <Gold.Protein.RotatedTorsions>
[ 6907 6896 6895 6894 ] final  -53.42 input  -60.11 | X-H torsion
[ 7974 7965 7964 7962 ] final  -42.33 input  175.53 | X-H torsion
[ 8008 7997 7996 7995 ] final  -52.78 input   59.86 | X-H torsion
[ 10167 10162 10161 10158 ] final   92.85 input  -65.29 | X-H torsion
[ 10718 10713 10712 10709 ] final   20.02 input   66.30 | X-H torsion
[ 10763 10752 10751 10750 ] final  -82.88 input  -60.55 | X-H torsion
[ 11005 11000 10999 10996 ] final -166.69 input  -57.11 | X-H torsion

> <Gold.Protein.ActiveResidues>
 VAL166  LYS551  ARG553  GLY616  TRP617  ASP618  TYR619  PRO620  LYS621  CYS622 
 ASP623  PHE694  ASN695  SER759  ASP760  ASP761  ALA762  ILE779  LEU786  VAL792 
 PHE793  MET794  SER795  GLU796  ALA797  LYS798  CYS799  TRP800  GLU811  SER814 

> <Gold.Protein.RotatedAtoms>
  150.8428  134.7727  159.6946 H   0  0  0  0  0  0  0  0  0  0  0  0  # atno 6907 bound_to 6896
  152.4512  134.5386  159.9842 H   0  0  0  0  0  0  0  0  0  0  0  0  # atno 6908 bound_to 6896
  151.5523  133.3378  159.2991 H   0  0  0  0  0  0  0  0  0  0  0  0  # atno 6909 bound_to 6896
  146.0126  140.6946  142.9217 H   0  0  0  0  0  0  0  0  0  0  0  0  # atno 7974 bound_to 7965
  154.4115  140.1215  156.5047 H   0  0  0  0  0  0  0  0  0  0  0  0  # atno 8008 bound_to 7997
  155.6859  140.3496  155.4854 H   0  0  0  0  0  0  0  0  0  0  0  0  # atno 8009 bound_to 7997
  155.9511  140.1105  157.0966 H   0  0  0  0  0  0  0  0  0  0  0  0  # atno 8010 bound_to 7997
  139.8236  144.6720  150.9487 H   0  0  0  0  0  0  0  0  0  0  0  0  # atno 10167 bound_to 10162
  157.1186  130.6540  149.5917 H   0  0  0  0  0  0  0  0  0  0  0  0  # atno 10718 bound_to 10713
  154.5811  135.5576  153.7186 H   0  0  0  0  0  0  0  0  0  0  0  0  # atno 10763 bound_to 10752
  153.0082  135.6320  154.1982 H   0  0  0  0  0  0  0  0  0  0  0  0  # atno 10764 bound_to 10752
  154.1922  135.2882  155.2998 H   0  0  0  0  0  0  0  0  0  0  0  0  # atno 10765 bound_to 10752
  140.5617  134.5327  157.5144 H   0  0  0  0  0  0  0  0  0  0  0  0  # atno 11005 bound_to 11000
  144.6958  140.3424  143.7196 LP  0  0  0  0  0  0  0  0  0  0  0  0  # atno 17320 bound_to 7965
  145.7319  139.1738  143.2425 LP  0  0  0  0  0  0  0  0  0  0  0  0  # atno 17321 bound_to 7965
  140.7811  143.4068  151.1058 LP  0  0  0  0  0  0  0  0  0  0  0  0  # atno 17342 bound_to 10162
  139.7726  143.8471  152.3123 LP  0  0  0  0  0  0  0  0  0  0  0  0  # atno 17343 bound_to 10162
  155.9834  130.4852  150.6929 LP  0  0  0  0  0  0  0  0  0  0  0  0  # atno 17370 bound_to 10713
  157.4496  131.0871  151.0859 LP  0  0  0  0  0  0  0  0  0  0  0  0  # atno 17371 bound_to 10713
  139.9405  134.7796  156.0692 LP  0  0  0  0  0  0  0  0  0  0  0  0  # atno 17394 bound_to 11000
  141.1110  133.6643  156.2980 LP  0  0  0  0  0  0  0  0  0  0  0  0  # atno 17395 bound_to 11000

$$$$
