AV-unprocessed.smi:1117|AV-procd|sdf|4813|dock4
  -GOLD-   22720 3363D 1   1.00000     0.00000
 Structure written by MMmdl.
 40 41  0  0  0  0  0  0  0  0  1 V2000
  149.8069  139.0843  154.3118 C   0  0  0  0  0  0  0  0  0  0  0  0
  150.9599  138.3940  155.0611 C   0  0  0  0  0  0  0  0  0  0  0  0
  152.2063  138.3736  154.1510 C   0  0  0  0  0  0  0  0  0  0  0  0
  151.2496  139.1688  156.3634 C   0  0  0  0  0  0  0  0  0  0  0  0
  150.5142  137.0288  155.3613 N   0  0  0  0  0  0  0  0  0  0  0  0
  151.1794  136.0498  156.0020 C   0  0  0  0  0  0  0  0  0  0  0  0
  152.3103  136.1774  156.4699 O   0  0  0  0  0  0  0  0  0  0  0  0
  150.4476  134.7132  156.1408 C   0  0  0  0  0  0  0  0  0  0  0  0
  149.1343  134.9058  156.8434 C   0  0  0  0  0  0  0  0  0  0  0  0
  147.9180  135.1681  156.2606 C   0  0  0  0  0  0  0  0  0  0  0  0
  146.6499  135.3453  157.4425 S   0  0  0  0  0  0  0  0  0  0  0  0
  147.8383  135.0284  158.7095 C   0  0  0  0  0  0  0  0  0  0  0  0
  147.5750  135.0245  160.1123 N   0  0  0  0  0  0  0  0  0  0  0  0
  147.0145  133.7847  160.6816 C   0  0  0  0  0  0  0  0  0  0  0  0
  147.4679  133.5659  162.1267 C   0  0  0  0  0  0  0  0  0  0  0  0
  147.2070  134.8364  162.9310 C   0  0  0  0  0  0  0  0  0  0  0  0
  147.6602  136.0120  162.1971 N   0  0  0  0  0  0  0  0  0  0  0  0
  147.7418  136.1546  160.8582 C   0  0  0  0  0  0  0  0  0  0  0  0
  148.0019  137.2573  160.3781 O   0  0  0  0  0  0  0  0  0  0  0  0
  149.0742  134.8294  158.2393 N   0  0  0  0  0  0  0  0  0  0  0  0
  150.0626  140.1115  154.0497 H   0  0  0  0  0  0  0  0  0  0  0  0
  148.9007  139.1173  154.9181 H   0  0  0  0  0  0  0  0  0  0  0  0
  149.5635  138.5606  153.3863 H   0  0  0  0  0  0  0  0  0  0  0  0
  152.0272  137.7937  153.2450 H   0  0  0  0  0  0  0  0  0  0  0  0
  153.0736  137.9435  154.6516 H   0  0  0  0  0  0  0  0  0  0  0  0
  152.4843  139.3826  153.8447 H   0  0  0  0  0  0  0  0  0  0  0  0
  151.4955  140.2103  156.1535 H   0  0  0  0  0  0  0  0  0  0  0  0
  152.0915  138.7470  156.9125 H   0  0  0  0  0  0  0  0  0  0  0  0
  150.3859  139.1637  157.0292 H   0  0  0  0  0  0  0  0  0  0  0  0
  149.5905  136.7938  155.0272 H   0  0  0  0  0  0  0  0  0  0  0  0
  150.2910  134.2809  155.1516 H   0  0  0  0  0  0  0  0  0  0  0  0
  151.0843  134.0141  156.6845 H   0  0  0  0  0  0  0  0  0  0  0  0
  147.6946  135.2779  155.2098 H   0  0  0  0  0  0  0  0  0  0  0  0
  145.9262  133.8451  160.6366 H   0  0  0  0  0  0  0  0  0  0  0  0
  147.3072  132.9173  160.0876 H   0  0  0  0  0  0  0  0  0  0  0  0
  146.9550  132.7127  162.5719 H   0  0  0  0  0  0  0  0  0  0  0  0
  148.5344  133.3365  162.1411 H   0  0  0  0  0  0  0  0  0  0  0  0
  146.1397  134.9459  163.1262 H   0  0  0  0  0  0  0  0  0  0  0  0
  147.7085  134.7906  163.8980 H   0  0  0  0  0  0  0  0  0  0  0  0
  147.8362  136.8371  162.7520 H   0  0  0  0  0  0  0  0  0  0  0  0
  1  2  1  0  0  0  0
  1 21  1  0  0  0  0
  1 22  1  0  0  0  0
  1 23  1  0  0  0  0
  2  3  1  0  0  0  0
  2  4  1  0  0  0  0
  2  5  1  0  0  0  0
  3 24  1  0  0  0  0
  3 25  1  0  0  0  0
  3 26  1  0  0  0  0
  4 27  1  0  0  0  0
  4 28  1  0  0  0  0
  4 29  1  0  0  0  0
  5  6  1  0  0  0  0
  5 30  1  0  0  0  0
  6  7  2  0  0  0  0
  6  8  1  0  0  0  0
  8  9  1  0  0  0  0
  8 31  1  0  0  0  0
  8 32  1  0  0  0  0
  9 20  1  0  0  0  0
  9 10  2  0  0  0  0
 10 11  1  0  0  0  0
 10 33  1  0  0  0  0
 11 12  1  0  0  0  0
 12 13  1  0  0  0  0
 12 20  2  0  0  0  0
 13 18  1  0  0  0  0
 13 14  1  0  0  0  0
 14 15  1  0  0  0  0
 14 34  1  0  0  0  0
 14 35  1  0  0  0  0
 15 16  1  0  0  0  0
 15 36  1  0  0  0  0
 15 37  1  0  0  0  0
 16 17  1  0  0  0  0
 16 38  1  0  0  0  0
 16 39  1  0  0  0  0
 17 18  1  0  0  0  0
 17 40  1  0  0  0  0
 18 19  2  0  0  0  0
M  END
> <s_m_source_file>
AV-unprocessed.smi

> <i_m_source_file_index>
1117

> <i_lp_mmshare_version>
43012

> <i_f3d_flags>
0

> <s_epik_input>
W0NIM11DKFtDSDNdKShbQ0gzXSlbTkhdQyg9TylbQ0gyXWMxW2NIXXNjKG4xKU4yW0NIMl1bQ0gyXVtDSDJdW05IXUMyPU8=

> <s_epik_cmdline>
J2VwaWtfcHl0aG9uJywgJy1waCcsICc3LjAnLCAnLXRuJywgJzgnLCAnLW1hJywgJzIwMCcsICctbWV0YWxfYmluZGluZycsICctaW1hZScsICc8aW5maWxlLm1hZT4nLCAnLW9tYWUnLCAnPG91dGZpbGUubWFlPic=

> <r_lp_tautomer_probability>
1

> <r_epik_Ionization_Penalty>
0.000135599

> <r_epik_Ionization_Penalty_Charging>
0

> <r_epik_Ionization_Penalty_Neutral>
0.000135599

> <r_epik_State_Penalty>
-0

> <r_epik_Charging_Adjusted_Penalty>
0

> <i_epik_Tot_Q>
0

> <i_epik_Tot_abs_Q>
0

> <r_epik_Metal_State_Penalty>
-0

> <b_epik_Metal_Only>
0

> <s_lp_Force_Field>
OPLS_2005

> <r_lp_Energy>
32.4347

> <b_lp_Chiralities_Consistent>
1

> <s_lp_Variant>
AV-unprocessed.smi:1117-1

> <Gold.Version>
5.8.1

> <Gold.Id.Protein>
6NUR|6NUR_protein|mol2

> <Gold.PLP.Fitness>
37.2178

> <Gold.PLP.PLP>
-30.5150

> <Gold.PLP.part.hbond>
-4.0000

> <Gold.PLP.part.metal>
0.0000

> <Gold.PLP.part.buried>
-4.4441

> <Gold.PLP.part.nonpolar>
-23.0853

> <Gold.PLP.part.repulsive>
0.2219

> <Gold.PLP.ligand.clash>
0.0000

> <Gold.PLP.ligand.torsion>
1.8653

> <Gold.PLP.Chemscore.Hbond>
3.4720

> <Gold.PLP.Chemscore.CHOScore>
0.0000

> <Gold.PLP.Chemscore.Metal>
0.0000

> <Gold.Chemscore.Hbonds>
donor molecule, donor type, donor heavy atom, donor atom, acceptor molecule, acceptor atom, score
      P1  H  6896  6909       L1    20  0.86
      P1  H  6931  6943       L1    19  0.59
      P1  H  6934  6947       L1    19  0.74
      P1  H 10752 10764       L1     7  1.00

> <Gold.PLP.Chemscore.Internal.Correction>
0.0174

> <Gold.Rescore>
     Score         DG    S(hbond)    S(metal)    S(lipo)     H(rot)  DE(clash)    DE(int)     intcor
     17.35     -19.42       3.37        0.00      55.77       1.50       0.01       2.06       ----

> <Gold.Chemscore.Fitness>
17.3494

> <Gold.Chemscore.DG>
-19.4230

> <Gold.Chemscore.ZeroCoef>
-5.4800

> <Gold.Chemscore.Hbond>
3.3700

> <Gold.Chemscore.Metal>
0.0000

> <Gold.Chemscore.Lipo>
55.7657

> <Gold.Chemscore.Internal_Hbond>
0.0000

> <Gold.Chemscore.DEClash>
0.0089

> <Gold.Chemscore.DEInternal>
2.0647

> <Gold.Chemscore.Rot>
1.4990

> <Gold.Chemscore.Internal.Correction>
   9.000000E+99

> <Gold.Chemscore.Hbonds>
donor molecule, donor type, donor heavy atom, donor atom, acceptor molecule, acceptor atom, score
      P1  H  6896  6909       L1    20  0.80
      P1  H  6931  6943       L1    19  0.29
      P1  H  6934  6947       L1    19  0.70
      P1  H 10752 10764       L1     7  0.63

> <Gold.Chemscore.Hbond.Weighted>
-11.2559

> <Gold.Chemscore.Metal.Weighted>
-0.0000

> <Gold.Chemscore.Lipo.Weighted>
-6.5246

> <Gold.Chemscore.Internal_Hbond.Weighted>
0.0000

> <Gold.Chemscore.DEClash.Weighted>
0.0089

> <Gold.Chemscore.DEInternal.Weighted>
2.0647

> <Gold.Chemscore.Rot.Weighted>
3.8375

> <Gold.Chemscore.Internal.Correction.Weighted>
   9.000000E+99

> <Gold.Protein.RotatedTorsions>
[ 6907 6896 6895 6894 ] final   15.70 input  -60.11 | X-H torsion
[ 7974 7965 7964 7962 ] final  -17.02 input  175.53 | X-H torsion
[ 8008 7997 7996 7995 ] final   84.23 input   59.86 | X-H torsion
[ 10167 10162 10161 10158 ] final   90.57 input  -65.29 | X-H torsion
[ 10718 10713 10712 10709 ] final  -35.33 input   66.30 | X-H torsion
[ 10763 10752 10751 10750 ] final   -2.88 input  -60.55 | X-H torsion
[ 11005 11000 10999 10996 ] final   60.60 input  -57.11 | X-H torsion

> <Gold.Protein.ActiveResidues>
 VAL166  LYS551  ARG553  GLY616  TRP617  ASP618  TYR619  PRO620  LYS621  CYS622 
 ASP623  PHE694  ASN695  SER759  ASP760  ASP761  ALA762  ILE779  LEU786  VAL792 
 PHE793  MET794  SER795  GLU796  ALA797  LYS798  CYS799  TRP800  GLU811  SER814 

> <Gold.Protein.RotatedAtoms>
  151.8222  135.0648  160.0426 H   0  0  0  0  0  0  0  0  0  0  0  0  # atno 6907 bound_to 6896
  152.2942  133.5587  159.5585 H   0  0  0  0  0  0  0  0  0  0  0  0  # atno 6908 bound_to 6896
  150.7244  134.0300  159.3772 H   0  0  0  0  0  0  0  0  0  0  0  0  # atno 6909 bound_to 6896
  146.1960  140.3720  142.8440 H   0  0  0  0  0  0  0  0  0  0  0  0  # atno 7974 bound_to 7965
  155.9344  140.3412  155.6275 H   0  0  0  0  0  0  0  0  0  0  0  0  # atno 8008 bound_to 7997
  155.7118  140.0772  157.2386 H   0  0  0  0  0  0  0  0  0  0  0  0  # atno 8009 bound_to 7997
  154.4091  140.1621  156.2292 H   0  0  0  0  0  0  0  0  0  0  0  0  # atno 8010 bound_to 7997
  139.8460  144.6617  150.9226 H   0  0  0  0  0  0  0  0  0  0  0  0  # atno 10167 bound_to 10162
  156.3399  130.4292  149.7796 H   0  0  0  0  0  0  0  0  0  0  0  0  # atno 10718 bound_to 10713
  153.3639  135.6991  153.6690 H   0  0  0  0  0  0  0  0  0  0  0  0  # atno 10763 bound_to 10752
  153.5367  135.3581  155.2701 H   0  0  0  0  0  0  0  0  0  0  0  0  # atno 10764 bound_to 10752
  154.8672  135.4194  154.2903 H   0  0  0  0  0  0  0  0  0  0  0  0  # atno 10765 bound_to 10752
  140.0220  134.6138  155.9626 H   0  0  0  0  0  0  0  0  0  0  0  0  # atno 11005 bound_to 11000
  144.8582  140.7101  143.6124 LP  0  0  0  0  0  0  0  0  0  0  0  0  # atno 17320 bound_to 7965
  145.3640  139.1674  143.4368 LP  0  0  0  0  0  0  0  0  0  0  0  0  # atno 17321 bound_to 7965
  140.7793  143.3869  151.1377 LP  0  0  0  0  0  0  0  0  0  0  0  0  # atno 17342 bound_to 10162
  139.7512  143.8776  152.3077 LP  0  0  0  0  0  0  0  0  0  0  0  0  # atno 17343 bound_to 10162
  156.5037  130.8140  151.3142 LP  0  0  0  0  0  0  0  0  0  0  0  0  # atno 17370 bound_to 10713
  157.7445  130.9936  150.2679 LP  0  0  0  0  0  0  0  0  0  0  0  0  # atno 17371 bound_to 10713
  141.1780  133.6542  156.4904 LP  0  0  0  0  0  0  0  0  0  0  0  0  # atno 17394 bound_to 11000
  140.4370  134.7050  157.4972 LP  0  0  0  0  0  0  0  0  0  0  0  0  # atno 17395 bound_to 11000

$$$$
