AV-unprocessed.smi:249|AV-procd|sdf|1905|dock3
  -GOLD-   2262020583D 1   1.00000     0.00000
 Structure written by MMmdl.
 64 67  0  0  0  0  0  0  0  0  2 V2000
  148.8610  128.1394  152.1620 C   0  0  0  0  0  0  0  0  0  0  0  0
  148.6657  129.4480  152.9422 C   0  0  0  0  0  0  0  0  0  0  0  0
  147.7017  130.3786  152.2954 N   0  3  1  0  0  0  0  0  0  0  0  0
  146.3683  129.7530  152.0856 C   0  0  0  0  0  0  0  0  0  0  0  0
  145.4715  130.6302  151.1977 C   0  0  0  0  0  0  0  0  0  0  0  0
  145.3326  132.0483  151.7862 C   0  0  2  0  0  0  0  0  0  0  0  0
  144.4340  132.9247  151.0228 N   0  0  0  0  0  0  0  0  0  0  0  0
  144.2715  132.6770  149.5956 C   0  0  0  0  0  0  0  0  0  0  0  0
  144.2405  134.2230  151.3660 C   0  0  0  0  0  0  0  0  0  0  0  0
  145.0498  135.1931  150.8660 N   0  0  0  0  0  0  0  0  0  0  0  0
  144.8482  136.4736  151.1916 C   0  0  0  0  0  0  0  0  0  0  0  0
  143.9115  136.9948  151.9861 N   0  0  0  0  0  0  0  0  0  0  0  0
  143.0939  136.0252  152.4866 C   0  0  0  0  0  0  0  0  0  0  0  0
  143.1841  134.6289  152.2272 C   0  0  0  0  0  0  0  0  0  0  0  0
  142.1828  133.9534  152.9145 N   0  0  0  0  0  0  0  0  0  0  0  0
  141.5363  134.8970  153.5442 C   0  0  0  0  0  0  0  0  0  0  0  0
  142.0155  136.1713  153.3395 N   0  0  0  0  0  0  0  0  0  0  0  0
  141.4967  137.4014  153.9102 C   0  0  0  0  0  0  0  0  0  0  0  0
  140.1467  137.2096  154.6441 C   0  0  1  0  0  0  0  0  0  0  0  0
  140.1733  137.7542  156.0929 C   0  0  0  0  0  0  0  0  0  0  0  0
  139.4128  136.9428  156.9647 O   0  0  0  0  0  0  0  0  0  0  0  0
  138.9661  137.7796  153.8179 C   0  0  2  0  0  0  0  0  0  0  0  0
  139.0359  139.2720  153.5468 C   0  0  0  0  0  0  0  0  0  0  0  0
  137.5949  139.5943  153.1708 C   0  0  0  0  0  0  0  0  0  0  0  0
  136.7953  138.7264  153.9648 O   0  0  0  0  0  0  0  0  0  0  0  0
  137.6006  137.6846  154.5089 C   0  0  0  0  0  0  0  0  0  0  0  0
  146.7293  132.6587  152.0340 C   0  0  0  0  0  0  0  0  0  0  0  0
  147.6173  131.7441  152.9019 C   0  0  1  0  0  0  0  0  0  0  0  0
  147.1854  131.7415  154.3844 C   0  0  0  0  0  0  0  0  0  0  0  0
  149.4632  127.4373  152.7389 H   0  0  0  0  0  0  0  0  0  0  0  0
  149.3775  128.2997  151.2160 H   0  0  0  0  0  0  0  0  0  0  0  0
  147.9053  127.6585  151.9513 H   0  0  0  0  0  0  0  0  0  0  0  0
  148.2815  129.1868  153.9290 H   0  0  0  0  0  0  0  0  0  0  0  0
  149.6226  129.9402  153.1153 H   0  0  0  0  0  0  0  0  0  0  0  0
  146.4919  128.7823  151.6042 H   0  0  0  0  0  0  0  0  0  0  0  0
  145.8864  129.5610  153.0448 H   0  0  0  0  0  0  0  0  0  0  0  0
  145.8978  130.6630  150.1960 H   0  0  0  0  0  0  0  0  0  0  0  0
  144.4913  130.1628  151.0990 H   0  0  0  0  0  0  0  0  0  0  0  0
  144.8577  131.9432  152.7621 H   0  0  0  0  0  0  0  0  0  0  0  0
  143.2213  132.7385  149.3100 H   0  0  0  0  0  0  0  0  0  0  0  0
  144.6302  131.6831  149.3267 H   0  0  0  0  0  0  0  0  0  0  0  0
  144.8314  133.4063  149.0087 H   0  0  0  0  0  0  0  0  0  0  0  0
  145.5334  137.1826  150.7507 H   0  0  0  0  0  0  0  0  0  0  0  0
  140.6842  134.6895  154.1753 H   0  0  0  0  0  0  0  0  0  0  0  0
  142.2444  137.8097  154.5914 H   0  0  0  0  0  0  0  0  0  0  0  0
  141.3948  138.1223  153.0989 H   0  0  0  0  0  0  0  0  0  0  0  0
  139.9842  136.1340  154.7280 H   0  0  0  0  0  0  0  0  0  0  0  0
  141.1948  137.8091  156.4684 H   0  0  0  0  0  0  0  0  0  0  0  0
  139.7870  138.7725  156.1357 H   0  0  0  0  0  0  0  0  0  0  0  0
  139.6032  136.0367  156.7745 H   0  0  0  0  0  0  0  0  0  0  0  0
  138.9039  137.2587  152.8607 H   0  0  0  0  0  0  0  0  0  0  0  0
  139.3167  139.8128  154.4516 H   0  0  0  0  0  0  0  0  0  0  0  0
  139.7398  139.5352  152.7569 H   0  0  0  0  0  0  0  0  0  0  0  0
  137.3413  140.6408  153.3402 H   0  0  0  0  0  0  0  0  0  0  0  0
  137.4170  139.3668  152.1191 H   0  0  0  0  0  0  0  0  0  0  0  0
  137.1296  136.7120  154.3650 H   0  0  0  0  0  0  0  0  0  0  0  0
  137.6958  137.8561  155.5820 H   0  0  0  0  0  0  0  0  0  0  0  0
  147.2442  132.8282  151.0886 H   0  0  0  0  0  0  0  0  0  0  0  0
  146.6315  133.6387  152.5027 H   0  0  0  0  0  0  0  0  0  0  0  0
  148.6129  132.1848  152.8663 H   0  0  0  0  0  0  0  0  0  0  0  0
  147.1224  132.7608  154.7664 H   0  0  0  0  0  0  0  0  0  0  0  0
  147.9031  131.2169  155.0142 H   0  0  0  0  0  0  0  0  0  0  0  0
  146.2103  131.2800  154.5354 H   0  0  0  0  0  0  0  0  0  0  0  0
  148.0670  130.5261  151.3653 H   0  0  0  0  0  0  0  0  0  0  0  0
  1  2  1  0  0  0  0
  1 30  1  0  0  0  0
  1 31  1  0  0  0  0
  1 32  1  0  0  0  0
  2  3  1  0  0  0  0
  2 33  1  0  0  0  0
  2 34  1  0  0  0  0
  3 28  1  0  0  0  0
  3  4  1  0  0  0  0
  3 64  1  0  0  0  0
  4  5  1  0  0  0  0
  4 35  1  0  0  0  0
  4 36  1  0  0  0  0
  5  6  1  0  0  0  0
  5 37  1  0  0  0  0
  5 38  1  0  0  0  0
  6  7  1  0  0  0  0
  6 27  1  0  0  0  0
  6 39  1  0  0  0  0
  7  8  1  0  0  0  0
  7  9  1  0  0  0  0
  8 40  1  0  0  0  0
  8 41  1  0  0  0  0
  8 42  1  0  0  0  0
  9 14  1  0  0  0  0
  9 10  2  0  0  0  0
 10 11  1  0  0  0  0
 11 12  2  0  0  0  0
 11 43  1  0  0  0  0
 12 13  1  0  0  0  0
 13 17  1  0  0  0  0
 13 14  2  0  0  0  0
 14 15  1  0  0  0  0
 15 16  2  0  0  0  0
 16 17  1  0  0  0  0
 16 44  1  0  0  0  0
 17 18  1  0  0  0  0
 18 19  1  0  0  0  0
 18 45  1  0  0  0  0
 18 46  1  0  0  0  0
 19 20  1  0  0  0  0
 19 22  1  0  0  0  0
 19 47  1  0  0  0  0
 20 21  1  0  0  0  0
 20 48  1  0  0  0  0
 20 49  1  0  0  0  0
 21 50  1  0  0  0  0
 22 26  1  0  0  0  0
 22 23  1  0  0  0  0
 22 51  1  0  0  0  0
 23 24  1  0  0  0  0
 23 52  1  0  0  0  0
 23 53  1  0  0  0  0
 24 25  1  0  0  0  0
 24 54  1  0  0  0  0
 24 55  1  0  0  0  0
 25 26  1  0  0  0  0
 26 56  1  0  0  0  0
 26 57  1  0  0  0  0
 27 28  1  0  0  0  0
 27 58  1  0  0  0  0
 27 59  1  0  0  0  0
 28 29  1  0  0  0  0
 28 60  1  0  0  0  0
 29 61  1  0  0  0  0
 29 62  1  0  0  0  0
 29 63  1  0  0  0  0
M  CHG  1   3   1
M  END
> <s_m_source_file>
AV-unprocessed.smi

> <i_m_source_file_index>
249

> <i_lp_mmshare_version>
43012

> <i_f3d_flags>
0

> <s_epik_input>
W0NIM11bQ0gyXU4xW0NIMl1bQ0gyXVtDQEhdKFtDSDJdW0NASF0xW0NIM10pTihbQ0gzXSljKG5bY0hdbjIpYyhjMjMpbltjSF1uM1tDSDJdW0NASF0oW0NIMl1bT0hdKVtDQEBIXTRbQ0gyXVtDSDJdT1tDSDJdNA==

> <s_epik_cmdline>
J2VwaWtfcHl0aG9uJywgJy1waCcsICc3LjAnLCAnLXRuJywgJzgnLCAnLW1hJywgJzIwMCcsICctbWV0YWxfYmluZGluZycsICctaW1hZScsICc8aW5maWxlLm1hZT4nLCAnLW9tYWUnLCAnPG91dGZpbGUubWFlPic=

> <r_lp_tautomer_probability>
1

> <r_epik_Ionization_Penalty>
0.00294688

> <r_epik_Ionization_Penalty_Charging>
0.00169971

> <r_epik_Ionization_Penalty_Neutral>
0.00124717

> <r_epik_State_Penalty>
-0

> <r_epik_Charging_Adjusted_Penalty>
0.00169971

> <i_epik_Tot_Q>
1

> <i_epik_Tot_abs_Q>
1

> <r_epik_Metal_State_Penalty>
-0

> <b_epik_Metal_Only>
0

> <s_lp_Force_Field>
OPLS_2005

> <r_lp_Energy>
52.9117

> <b_lp_Chiralities_Consistent>
1

> <s_lp_Variant>
AV-unprocessed.smi:249-8

> <Gold.Version>
5.8.1

> <Gold.Id.Protein>
6NUR|6NUR_protein|mol2

> <Gold.PLP.Fitness>
53.5871

> <Gold.PLP.PLP>
-49.5001

> <Gold.PLP.part.hbond>
-2.0000

> <Gold.PLP.part.metal>
0.0000

> <Gold.PLP.part.buried>
-9.5191

> <Gold.PLP.part.nonpolar>
-41.3323

> <Gold.PLP.part.repulsive>
2.3004

> <Gold.PLP.ligand.clash>
0.0000

> <Gold.PLP.ligand.torsion>
2.9763

> <Gold.PLP.Chemscore.Hbond>
2.0000

> <Gold.PLP.Chemscore.CHOScore>
0.8470

> <Gold.PLP.Chemscore.Metal>
0.0000

> <Gold.Chemscore.Hbonds>
donor molecule, donor type, donor heavy atom, donor atom, acceptor molecule, acceptor atom, score
      L1  H     3    64       P1 10747  0.78
      L1  H    21    50       P1 11000  1.00
      L1  C    11    43       P1 10171  0.33
      L1  C    16    44       P1 11000  0.94

> <Gold.PLP.Chemscore.Internal.Correction>
1.4986

> <Gold.Rescore>
     Score         DG    S(hbond)    S(metal)    S(lipo)     H(rot)  DE(clash)    DE(int)     intcor
     14.05     -18.12       1.93        0.00     110.89       2.65       0.92       3.16       ----

> <Gold.Chemscore.Fitness>
14.0458

> <Gold.Chemscore.DG>
-18.1203

> <Gold.Chemscore.ZeroCoef>
-5.4800

> <Gold.Chemscore.Hbond>
1.9323

> <Gold.Chemscore.Metal>
0.0000

> <Gold.Chemscore.Lipo>
110.8927

> <Gold.Chemscore.Internal_Hbond>
0.0000

> <Gold.Chemscore.DEClash>
0.9182

> <Gold.Chemscore.DEInternal>
3.1562

> <Gold.Chemscore.Rot>
2.6515

> <Gold.Chemscore.Internal.Correction>
   9.000000E+99

> <Gold.Chemscore.Hbonds>
donor molecule, donor type, donor heavy atom, donor atom, acceptor molecule, acceptor atom, score
      L1  H     3    64       P1 10747  0.76
      L1  H    21    50       P1 11000  0.82

> <Gold.Chemscore.Hbond.Weighted>
-6.4538

> <Gold.Chemscore.Metal.Weighted>
-0.0000

> <Gold.Chemscore.Lipo.Weighted>
-12.9744

> <Gold.Chemscore.Internal_Hbond.Weighted>
0.0000

> <Gold.Chemscore.DEClash.Weighted>
0.9182

> <Gold.Chemscore.DEInternal.Weighted>
3.1562

> <Gold.Chemscore.Rot.Weighted>
6.7880

> <Gold.Chemscore.Internal.Correction.Weighted>
   9.000000E+99

> <Gold.Protein.RotatedTorsions>
[ 6907 6896 6895 6894 ] final -156.02 input  -60.11 | X-H torsion
[ 7974 7965 7964 7962 ] final  -81.23 input  175.53 | X-H torsion
[ 8008 7997 7996 7995 ] final   10.77 input   59.86 | X-H torsion
[ 10167 10162 10161 10158 ] final  -12.29 input  -65.29 | X-H torsion
[ 10718 10713 10712 10709 ] final   21.59 input   66.30 | X-H torsion
[ 10763 10752 10751 10750 ] final -154.44 input  -60.55 | X-H torsion
[ 11005 11000 10999 10996 ] final -108.03 input  -57.11 | X-H torsion

> <Gold.Protein.ActiveResidues>
 VAL166  LYS551  ARG553  GLY616  TRP617  ASP618  TYR619  PRO620  LYS621  CYS622 
 ASP623  PHE694  ASN695  SER759  ASP760  ASP761  ALA762  ILE779  LEU786  VAL792 
 PHE793  MET794  SER795  GLU796  ALA797  LYS798  CYS799  TRP800  GLU811  SER814 

> <Gold.Protein.RotatedAtoms>
  151.2814  133.4208  159.2626 H   0  0  0  0  0  0  0  0  0  0  0  0  # atno 6907 bound_to 6896
  151.0358  134.9572  159.8145 H   0  0  0  0  0  0  0  0  0  0  0  0  # atno 6908 bound_to 6896
  152.5355  134.2773  159.9047 H   0  0  0  0  0  0  0  0  0  0  0  0  # atno 6909 bound_to 6896
  145.5494  140.9498  143.1507 H   0  0  0  0  0  0  0  0  0  0  0  0  # atno 7974 bound_to 7965
  154.7978  140.2847  155.5944 H   0  0  0  0  0  0  0  0  0  0  0  0  # atno 8008 bound_to 7997
  156.2973  140.2592  156.2769 H   0  0  0  0  0  0  0  0  0  0  0  0  # atno 8009 bound_to 7997
  154.9594  140.0378  157.2172 H   0  0  0  0  0  0  0  0  0  0  0  0  # atno 8010 bound_to 7997
  140.7158  143.5548  150.9261 H   0  0  0  0  0  0  0  0  0  0  0  0  # atno 10167 bound_to 10162
  157.1405  130.6630  149.5980 H   0  0  0  0  0  0  0  0  0  0  0  0  # atno 10718 bound_to 10713
  154.7858  135.3190  154.7888 H   0  0  0  0  0  0  0  0  0  0  0  0  # atno 10763 bound_to 10752
  153.8589  135.6855  153.4789 H   0  0  0  0  0  0  0  0  0  0  0  0  # atno 10764 bound_to 10752
  153.1510  135.4699  154.9575 H   0  0  0  0  0  0  0  0  0  0  0  0  # atno 10765 bound_to 10752
  141.0923  133.9033  157.2046 H   0  0  0  0  0  0  0  0  0  0  0  0  # atno 11005 bound_to 11000
  144.7537  139.7129  143.7263 LP  0  0  0  0  0  0  0  0  0  0  0  0  # atno 17320 bound_to 7965
  146.1927  139.5176  142.9795 LP  0  0  0  0  0  0  0  0  0  0  0  0  # atno 17321 bound_to 7965
  139.9272  143.6535  152.3084 LP  0  0  0  0  0  0  0  0  0  0  0  0  # atno 17342 bound_to 10162
  139.6973  144.7639  151.1333 LP  0  0  0  0  0  0  0  0  0  0  0  0  # atno 17343 bound_to 10162
  155.9789  130.4779  150.6686 LP  0  0  0  0  0  0  0  0  0  0  0  0  # atno 17370 bound_to 10713
  157.4311  131.0849  151.1038 LP  0  0  0  0  0  0  0  0  0  0  0  0  # atno 17371 bound_to 10713
  139.9751  135.0116  156.9611 LP  0  0  0  0  0  0  0  0  0  0  0  0  # atno 17394 bound_to 11000
  140.5223  134.0895  155.7295 LP  0  0  0  0  0  0  0  0  0  0  0  0  # atno 17395 bound_to 11000

$$$$
