AV-unprocessed.smi:1850|AV-procd|sdf|7522|dock6
  -GOLD-   22720 9233D 1   1.00000     0.00000
 Structure written by MMmdl.
 40 41  0  0  0  0  0  0  0  0  1 V2000
  151.6560  129.6495  154.7449 C   0  0  0  0  0  0  0  0  0  0  0  0
  150.8517  130.1980  155.9320 C   0  0  0  0  0  0  0  0  0  0  0  0
  150.6104  131.6407  155.7951 N   0  0  0  0  0  0  0  0  0  0  0  0
  149.8326  132.0534  154.6958 C   0  0  0  0  0  0  0  0  0  0  0  0
  149.5341  133.3505  154.4650 C   0  0  0  0  0  0  0  0  0  0  0  0
  148.7429  133.8246  153.4080 N   0  0  0  0  0  0  0  0  0  0  0  0
  147.5863  133.3321  152.9258 C   0  0  0  0  0  0  0  0  0  0  0  0
  147.0343  132.2959  153.2955 O   0  0  0  0  0  0  0  0  0  0  0  0
  147.0985  134.1196  151.9564 N   0  0  0  0  0  0  0  0  0  0  0  0
  145.8669  133.8779  151.2103 C   0  0  0  0  0  0  0  0  0  0  0  0
  144.7059  133.5616  152.1757 C   0  0  0  0  0  0  0  0  0  0  0  0
  143.4152  133.2229  151.4123 C   0  0  0  0  0  0  0  0  0  0  0  0
  143.6393  132.0701  150.4210 C   0  0  0  0  0  0  0  0  0  0  0  0
  144.7904  132.3868  149.4535 C   0  0  0  0  0  0  0  0  0  0  0  0
  146.0831  132.7221  150.2152 C   0  0  0  0  0  0  0  0  0  0  0  0
  150.0449  134.3173  155.4129 C   0  0  0  0  0  0  0  0  0  0  0  0
  150.7799  133.9327  156.4741 C   0  0  0  0  0  0  0  0  0  0  0  0
  151.0960  132.5233  156.7183 C   0  0  0  0  0  0  0  0  0  0  0  0
  151.7534  132.1606  157.6941 O   0  0  0  0  0  0  0  0  0  0  0  0
  151.8432  128.5823  154.8640 H   0  0  0  0  0  0  0  0  0  0  0  0
  152.6220  130.1479  154.6592 H   0  0  0  0  0  0  0  0  0  0  0  0
  151.1215  129.7893  153.8049 H   0  0  0  0  0  0  0  0  0  0  0  0
  149.9119  129.6511  156.0264 H   0  0  0  0  0  0  0  0  0  0  0  0
  151.3892  129.9947  156.8594 H   0  0  0  0  0  0  0  0  0  0  0  0
  149.4899  131.2329  154.0851 H   0  0  0  0  0  0  0  0  0  0  0  0
  149.0962  134.6550  152.9559 H   0  0  0  0  0  0  0  0  0  0  0  0
  147.6175  134.9513  151.7152 H   0  0  0  0  0  0  0  0  0  0  0  0
  145.6122  134.7710  150.6362 H   0  0  0  0  0  0  0  0  0  0  0  0
  144.9767  132.7207  152.8158 H   0  0  0  0  0  0  0  0  0  0  0  0
  144.5260  134.4087  152.8386 H   0  0  0  0  0  0  0  0  0  0  0  0
  142.6254  132.9599  152.1167 H   0  0  0  0  0  0  0  0  0  0  0  0
  143.0681  134.1056  150.8737 H   0  0  0  0  0  0  0  0  0  0  0  0
  143.8637  131.1546  150.9698 H   0  0  0  0  0  0  0  0  0  0  0  0
  142.7241  131.8786  149.8600 H   0  0  0  0  0  0  0  0  0  0  0  0
  144.9602  131.5404  148.7876 H   0  0  0  0  0  0  0  0  0  0  0  0
  144.5122  133.2288  148.8183 H   0  0  0  0  0  0  0  0  0  0  0  0
  146.8690  132.9827  149.5052 H   0  0  0  0  0  0  0  0  0  0  0  0
  146.4289  131.8344  150.7468 H   0  0  0  0  0  0  0  0  0  0  0  0
  149.8370  135.3679  155.2708 H   0  0  0  0  0  0  0  0  0  0  0  0
  151.1467  134.6798  157.1627 H   0  0  0  0  0  0  0  0  0  0  0  0
  1  2  1  0  0  0  0
  1 20  1  0  0  0  0
  1 21  1  0  0  0  0
  1 22  1  0  0  0  0
  2  3  1  0  0  0  0
  2 23  1  0  0  0  0
  2 24  1  0  0  0  0
  3 18  1  0  0  0  0
  3  4  1  0  0  0  0
  4  5  2  0  0  0  0
  4 25  1  0  0  0  0
  5  6  1  0  0  0  0
  5 16  1  0  0  0  0
  6  7  1  0  0  0  0
  6 26  1  0  0  0  0
  7  8  2  0  0  0  0
  7  9  1  0  0  0  0
  9 10  1  0  0  0  0
  9 27  1  0  0  0  0
 10 15  1  0  0  0  0
 10 11  1  0  0  0  0
 10 28  1  0  0  0  0
 11 12  1  0  0  0  0
 11 29  1  0  0  0  0
 11 30  1  0  0  0  0
 12 13  1  0  0  0  0
 12 31  1  0  0  0  0
 12 32  1  0  0  0  0
 13 14  1  0  0  0  0
 13 33  1  0  0  0  0
 13 34  1  0  0  0  0
 14 15  1  0  0  0  0
 14 35  1  0  0  0  0
 14 36  1  0  0  0  0
 15 37  1  0  0  0  0
 15 38  1  0  0  0  0
 16 17  2  0  0  0  0
 16 39  1  0  0  0  0
 17 18  1  0  0  0  0
 17 40  1  0  0  0  0
 18 19  2  0  0  0  0
M  END
> <s_m_source_file>
AV-unprocessed.smi

> <i_m_source_file_index>
1850

> <i_lp_mmshare_version>
43012

> <i_f3d_flags>
0

> <s_epik_input>
W0NIM11bQ0gyXW4xW2NIXWMoW2NIXVtjSF1jMT1PKVtOSF1DKD1PKVtOSF1bQ0hdMltDSDJdW0NIMl1bQ0gyXVtDSDJdW0NIMl0y

> <s_epik_cmdline>
J2VwaWtfcHl0aG9uJywgJy1waCcsICc3LjAnLCAnLXRuJywgJzgnLCAnLW1hJywgJzIwMCcsICctbWV0YWxfYmluZGluZycsICctaW1hZScsICc8aW5maWxlLm1hZT4nLCAnLW9tYWUnLCAnPG91dGZpbGUubWFlPic=

> <r_lp_tautomer_probability>
1

> <r_epik_Ionization_Penalty>
2.61962e-05

> <r_epik_Ionization_Penalty_Charging>
4.78076e-06

> <r_epik_Ionization_Penalty_Neutral>
2.14155e-05

> <r_epik_State_Penalty>
-0

> <r_epik_Charging_Adjusted_Penalty>
4.78076e-06

> <i_epik_Tot_Q>
0

> <i_epik_Tot_abs_Q>
0

> <r_epik_Metal_State_Penalty>
-0

> <b_epik_Metal_Only>
0

> <s_lp_Force_Field>
OPLS_2005

> <r_lp_Energy>
22.0322

> <b_lp_Chiralities_Consistent>
1

> <s_lp_Variant>
AV-unprocessed.smi:1850-1

> <Gold.Version>
5.8.1

> <Gold.Id.Protein>
6NUR|6NUR_protein|mol2

> <Gold.PLP.Fitness>
44.2758

> <Gold.PLP.PLP>
-37.9218

> <Gold.PLP.part.hbond>
-3.0000

> <Gold.PLP.part.metal>
0.0000

> <Gold.PLP.part.buried>
-3.8678

> <Gold.PLP.part.nonpolar>
-30.9426

> <Gold.PLP.part.repulsive>
0.1403

> <Gold.PLP.ligand.clash>
0.0000

> <Gold.PLP.ligand.torsion>
0.5005

> <Gold.PLP.Chemscore.Hbond>
2.4500

> <Gold.PLP.Chemscore.CHOScore>
0.0000

> <Gold.PLP.Chemscore.Metal>
0.0000

> <Gold.Chemscore.Hbonds>
donor molecule, donor type, donor heavy atom, donor atom, acceptor molecule, acceptor atom, score
      L1  H     6    26       P1  7948  0.40
      L1  H     9    27       P1  7948  1.00
      P1  H  6896  6907       L1    19  1.00

> <Gold.PLP.Chemscore.Internal.Correction>
0.0050

> <Gold.Rescore>
     Score         DG    S(hbond)    S(metal)    S(lipo)     H(rot)  DE(clash)    DE(int)     intcor
     17.86     -19.57       2.32        0.00      79.66       1.17       0.08       1.63       ----

> <Gold.Chemscore.Fitness>
17.8593

> <Gold.Chemscore.DG>
-19.5668

> <Gold.Chemscore.ZeroCoef>
-5.4800

> <Gold.Chemscore.Hbond>
2.3209

> <Gold.Chemscore.Metal>
0.0000

> <Gold.Chemscore.Lipo>
79.6569

> <Gold.Chemscore.Internal_Hbond>
0.0000

> <Gold.Chemscore.DEClash>
0.0801

> <Gold.Chemscore.DEInternal>
1.6275

> <Gold.Chemscore.Rot>
1.1660

> <Gold.Chemscore.Internal.Correction>
   9.000000E+99

> <Gold.Chemscore.Hbonds>
donor molecule, donor type, donor heavy atom, donor atom, acceptor molecule, acceptor atom, score
      L1  H     6    26       P1  7948  0.01
      L1  H     9    27       P1  7948  0.60
      P1  H  6896  6907       L1    19  0.92

> <Gold.Chemscore.Hbond.Weighted>
-7.7520

> <Gold.Chemscore.Metal.Weighted>
-0.0000

> <Gold.Chemscore.Lipo.Weighted>
-9.3199

> <Gold.Chemscore.Internal_Hbond.Weighted>
0.0000

> <Gold.Chemscore.DEClash.Weighted>
0.0801

> <Gold.Chemscore.DEInternal.Weighted>
1.6275

> <Gold.Chemscore.Rot.Weighted>
2.9850

> <Gold.Chemscore.Internal.Correction.Weighted>
   9.000000E+99

> <Gold.Protein.RotatedTorsions>
[ 6907 6896 6895 6894 ] final  167.19 input  -60.11 | X-H torsion
[ 7974 7965 7964 7962 ] final  -77.23 input  175.53 | X-H torsion
[ 8008 7997 7996 7995 ] final  -49.96 input   59.86 | X-H torsion
[ 10167 10162 10161 10158 ] final -127.87 input  -65.29 | X-H torsion
[ 10718 10713 10712 10709 ] final -176.78 input   66.30 | X-H torsion
[ 10763 10752 10751 10750 ] final   38.27 input  -60.55 | X-H torsion
[ 11005 11000 10999 10996 ] final  151.86 input  -57.11 | X-H torsion

> <Gold.Protein.ActiveResidues>
 VAL166  LYS551  ARG553  GLY616  TRP617  ASP618  TYR619  PRO620  LYS621  CYS622 
 ASP623  PHE694  ASN695  SER759  ASP760  ASP761  ALA762  ILE779  LEU786  VAL792 
 PHE793  MET794  SER795  GLU796  ALA797  LYS798  CYS799  TRP800  GLU811  SER814 

> <Gold.Protein.RotatedAtoms>
  151.8671  133.3468  159.3722 H   0  0  0  0  0  0  0  0  0  0  0  0  # atno 6907 bound_to 6896
  150.7163  134.5149  159.5634 H   0  0  0  0  0  0  0  0  0  0  0  0  # atno 6908 bound_to 6896
  152.2674  134.7970  160.0471 H   0  0  0  0  0  0  0  0  0  0  0  0  # atno 6909 bound_to 6896
  145.6025  140.9405  143.1233 H   0  0  0  0  0  0  0  0  0  0  0  0  # atno 7974 bound_to 7965
  154.4053  140.1284  156.4588 H   0  0  0  0  0  0  0  0  0  0  0  0  # atno 8008 bound_to 7997
  155.7293  140.3491  155.5032 H   0  0  0  0  0  0  0  0  0  0  0  0  # atno 8009 bound_to 7997
  155.9142  140.1041  157.1246 H   0  0  0  0  0  0  0  0  0  0  0  0  # atno 8010 bound_to 7997
  139.9563  143.6000  152.2459 H   0  0  0  0  0  0  0  0  0  0  0  0  # atno 10167 bound_to 10162
  156.8197  130.9615  151.3112 H   0  0  0  0  0  0  0  0  0  0  0  0  # atno 10718 bound_to 10713
  153.0007  135.6254  154.2277 H   0  0  0  0  0  0  0  0  0  0  0  0  # atno 10763 bound_to 10752
  154.2020  135.2804  155.2989 H   0  0  0  0  0  0  0  0  0  0  0  0  # atno 10764 bound_to 10752
  154.5676  135.5686  153.7124 H   0  0  0  0  0  0  0  0  0  0  0  0  # atno 10765 bound_to 10752
  140.1256  134.8835  157.2133 H   0  0  0  0  0  0  0  0  0  0  0  0  # atno 11005 bound_to 11000
  144.7304  139.7744  143.7349 LP  0  0  0  0  0  0  0  0  0  0  0  0  # atno 17320 bound_to 7965
  146.1566  139.4665  143.0015 LP  0  0  0  0  0  0  0  0  0  0  0  0  # atno 17321 bound_to 7965
  139.6589  144.7662  151.2001 LP  0  0  0  0  0  0  0  0  0  0  0  0  # atno 17342 bound_to 10162
  140.7567  143.6042  150.8670 LP  0  0  0  0  0  0  0  0  0  0  0  0  # atno 17343 bound_to 10162
  157.6463  130.8847  149.9545 LP  0  0  0  0  0  0  0  0  0  0  0  0  # atno 17370 bound_to 10713
  156.0996  130.3657  150.0242 LP  0  0  0  0  0  0  0  0  0  0  0  0  # atno 17371 bound_to 10713
  140.2908  134.3243  155.7316 LP  0  0  0  0  0  0  0  0  0  0  0  0  # atno 17394 bound_to 11000
  141.2160  133.7533  156.9500 LP  0  0  0  0  0  0  0  0  0  0  0  0  # atno 17395 bound_to 11000

$$$$
