AV-unprocessed.smi:1127|AV-procd|sdf|4841|dock3
  -GOLD-   22720 3403D 1   1.00000     0.00000
 Structure written by MMmdl.
 42 43  0  0  0  0  0  0  0  0  1 V2000
  146.8119  141.3124  153.7262 C   0  0  0  0  0  0  0  0  0  0  0  0
  146.3565  142.8850  154.5972 S   0  0  1  0  0  0  0  0  0  0  0  0
  144.8302  142.9857  154.5772 O   0  0  0  0  0  0  0  0  0  0  0  0
  146.7471  142.2481  156.2643 C   0  0  0  0  0  0  0  0  0  0  0  0
  145.9037  142.3049  157.2994 N   0  0  0  0  0  0  0  0  0  0  0  0
  146.5840  141.7109  158.3456 N   0  0  0  0  0  0  0  0  0  0  0  0
  147.7635  141.3608  157.8283 C   0  0  0  0  0  0  0  0  0  0  0  0
  147.9320  141.6673  156.5322 N   0  0  0  0  0  0  0  0  0  0  0  0
  149.0849  141.4247  155.6809 C   0  0  0  0  0  0  0  0  0  0  0  0
  150.3982  141.5257  156.4617 C   0  0  0  0  0  0  0  0  0  0  0  0
  151.0916  140.5250  156.6447 O   0  0  0  0  0  0  0  0  0  0  0  0
  150.7337  142.7493  156.8985 N   0  0  0  0  0  0  0  0  0  0  0  0
  151.9630  143.0940  157.6088 C   0  0  0  0  0  0  0  0  0  0  0  0
  152.1342  142.1479  158.8169 C   0  0  0  0  0  0  0  0  0  0  0  0
  153.2552  142.5286  159.8050 C   0  0  0  0  0  0  0  0  0  0  0  0
  152.7633  143.1913  161.1083 C   0  0  0  0  0  0  0  0  0  0  0  0
  152.1786  144.6141  160.9905 C   0  0  0  0  0  0  0  0  0  0  0  0
  150.8238  144.6973  160.2582 C   0  0  0  0  0  0  0  0  0  0  0  0
  150.8883  145.1888  158.7994 C   0  0  0  0  0  0  0  0  0  0  0  0
  152.0104  144.6088  157.9152 C   0  0  0  0  0  0  0  0  0  0  0  0
  147.6879  140.8531  154.1852 H   0  0  0  0  0  0  0  0  0  0  0  0
  147.0391  141.5154  152.6803 H   0  0  0  0  0  0  0  0  0  0  0  0
  145.9849  140.6037  153.7688 H   0  0  0  0  0  0  0  0  0  0  0  0
  148.5250  140.8654  158.4126 H   0  0  0  0  0  0  0  0  0  0  0  0
  148.9788  140.4406  155.2218 H   0  0  0  0  0  0  0  0  0  0  0  0
  149.0913  142.1585  154.8742 H   0  0  0  0  0  0  0  0  0  0  0  0
  150.0993  143.5098  156.7010 H   0  0  0  0  0  0  0  0  0  0  0  0
  152.8090  142.8904  156.9497 H   0  0  0  0  0  0  0  0  0  0  0  0
  151.1934  142.0103  159.3482 H   0  0  0  0  0  0  0  0  0  0  0  0
  152.3612  141.1585  158.4172 H   0  0  0  0  0  0  0  0  0  0  0  0
  153.7633  141.6074  160.0930 H   0  0  0  0  0  0  0  0  0  0  0  0
  154.0248  143.1318  159.3237 H   0  0  0  0  0  0  0  0  0  0  0  0
  152.0371  142.5396  161.5955 H   0  0  0  0  0  0  0  0  0  0  0  0
  153.6103  143.2393  161.7935 H   0  0  0  0  0  0  0  0  0  0  0  0
  152.0218  144.9745  162.0079 H   0  0  0  0  0  0  0  0  0  0  0  0
  152.9059  145.3027  160.5604 H   0  0  0  0  0  0  0  0  0  0  0  0
  150.2950  143.7479  160.3222 H   0  0  0  0  0  0  0  0  0  0  0  0
  150.1849  145.3949  160.8010 H   0  0  0  0  0  0  0  0  0  0  0  0
  149.9202  145.0248  158.3263 H   0  0  0  0  0  0  0  0  0  0  0  0
  151.0197  146.2713  158.8191 H   0  0  0  0  0  0  0  0  0  0  0  0
  152.9825  144.8771  158.3253 H   0  0  0  0  0  0  0  0  0  0  0  0
  151.9762  145.1383  156.9623 H   0  0  0  0  0  0  0  0  0  0  0  0
  1  2  1  0  0  0  0
  1 21  1  0  0  0  0
  1 22  1  0  0  0  0
  1 23  1  0  0  0  0
  2  3  2  0  0  0  0
  2  4  1  0  0  0  0
  4  8  1  0  0  0  0
  4  5  2  0  0  0  0
  5  6  1  0  0  0  0
  6  7  2  0  0  0  0
  7  8  1  0  0  0  0
  7 24  1  0  0  0  0
  8  9  1  0  0  0  0
  9 10  1  0  0  0  0
  9 25  1  0  0  0  0
  9 26  1  0  0  0  0
 10 11  2  0  0  0  0
 10 12  1  0  0  0  0
 12 13  1  0  0  0  0
 12 27  1  0  0  0  0
 13 20  1  0  0  0  0
 13 14  1  0  0  0  0
 13 28  1  0  0  0  0
 14 15  1  0  0  0  0
 14 29  1  0  0  0  0
 14 30  1  0  0  0  0
 15 16  1  0  0  0  0
 15 31  1  0  0  0  0
 15 32  1  0  0  0  0
 16 17  1  0  0  0  0
 16 33  1  0  0  0  0
 16 34  1  0  0  0  0
 17 18  1  0  0  0  0
 17 35  1  0  0  0  0
 17 36  1  0  0  0  0
 18 19  1  0  0  0  0
 18 37  1  0  0  0  0
 18 38  1  0  0  0  0
 19 20  1  0  0  0  0
 19 39  1  0  0  0  0
 19 40  1  0  0  0  0
 20 41  1  0  0  0  0
 20 42  1  0  0  0  0
M  END
> <s_m_source_file>
AV-unprocessed.smi

> <i_m_source_file_index>
1127

> <i_lp_mmshare_version>
43012

> <i_f3d_flags>
0

> <s_epik_input>
W0NIM11bU0BdKD1PKWMxbm5bY0hdbjFbQ0gyXUMoPU8pW05IXVtDSF0yW0NIMl1bQ0gyXVtDSDJdW0NIMl1bQ0gyXVtDSDJdW0NIMl0y

> <s_epik_cmdline>
J2VwaWtfcHl0aG9uJywgJy1waCcsICc3LjAnLCAnLXRuJywgJzgnLCAnLW1hJywgJzIwMCcsICctbWV0YWxfYmluZGluZycsICctaW1hZScsICc8aW5maWxlLm1hZT4nLCAnLW9tYWUnLCAnPG91dGZpbGUubWFlPic=

> <r_lp_tautomer_probability>
1

> <r_epik_Ionization_Penalty>
7.34999e-08

> <r_epik_Ionization_Penalty_Charging>
0

> <r_epik_Ionization_Penalty_Neutral>
7.34999e-08

> <r_epik_State_Penalty>
-0

> <r_epik_Charging_Adjusted_Penalty>
0

> <i_epik_Tot_Q>
0

> <i_epik_Tot_abs_Q>
0

> <r_epik_Metal_State_Penalty>
-0

> <b_epik_Metal_Only>
0

> <s_lp_Force_Field>
OPLS_2005

> <r_lp_Energy>
17.4242

> <b_lp_Chiralities_Consistent>
1

> <s_lp_Variant>
AV-unprocessed.smi:1127-2

> <Gold.Version>
5.8.1

> <Gold.Id.Protein>
6NUR|6NUR_protein|mol2

> <Gold.PLP.Fitness>
42.9896

> <Gold.PLP.PLP>
-40.9190

> <Gold.PLP.part.hbond>
-1.2161

> <Gold.PLP.part.metal>
0.0000

> <Gold.PLP.part.buried>
-6.6896

> <Gold.PLP.part.nonpolar>
-32.8146

> <Gold.PLP.part.repulsive>
0.3641

> <Gold.PLP.ligand.clash>
0.0008

> <Gold.PLP.ligand.torsion>
0.9943

> <Gold.PLP.Chemscore.Hbond>
1.0000

> <Gold.PLP.Chemscore.CHOScore>
0.0000

> <Gold.PLP.Chemscore.Metal>
0.0000

> <Gold.Chemscore.Hbonds>
donor molecule, donor type, donor heavy atom, donor atom, acceptor molecule, acceptor atom, score
      L1  H    12    27       P1  8028  1.00

> <Gold.PLP.Chemscore.Internal.Correction>
1.0601

> <Gold.Rescore>
     Score         DG    S(hbond)    S(metal)    S(lipo)     H(rot)  DE(clash)    DE(int)     intcor
     13.72     -16.75       0.99        0.00     105.43       1.70       1.01       2.02       ----

> <Gold.Chemscore.Fitness>
13.7182

> <Gold.Chemscore.DG>
-16.7453

> <Gold.Chemscore.ZeroCoef>
-5.4800

> <Gold.Chemscore.Hbond>
0.9860

> <Gold.Chemscore.Metal>
0.0000

> <Gold.Chemscore.Lipo>
105.4286

> <Gold.Chemscore.Internal_Hbond>
0.0000

> <Gold.Chemscore.DEClash>
1.0062

> <Gold.Chemscore.DEInternal>
2.0209

> <Gold.Chemscore.Rot>
1.7044

> <Gold.Chemscore.Internal.Correction>
   9.000000E+99

> <Gold.Chemscore.Hbonds>
donor molecule, donor type, donor heavy atom, donor atom, acceptor molecule, acceptor atom, score
      L1  H    12    27       P1  8028  0.96

> <Gold.Chemscore.Hbond.Weighted>
-3.2933

> <Gold.Chemscore.Metal.Weighted>
-0.0000

> <Gold.Chemscore.Lipo.Weighted>
-12.3351

> <Gold.Chemscore.Internal_Hbond.Weighted>
0.0000

> <Gold.Chemscore.DEClash.Weighted>
1.0062

> <Gold.Chemscore.DEInternal.Weighted>
2.0209

> <Gold.Chemscore.Rot.Weighted>
4.3631

> <Gold.Chemscore.Internal.Correction.Weighted>
   9.000000E+99

> <Gold.Protein.RotatedTorsions>
[ 6907 6896 6895 6894 ] final  -42.76 input  -60.11 | X-H torsion
[ 7974 7965 7964 7962 ] final   59.09 input  175.53 | X-H torsion
[ 8008 7997 7996 7995 ] final -112.94 input   59.86 | X-H torsion
[ 10167 10162 10161 10158 ] final   78.46 input  -65.29 | X-H torsion
[ 10718 10713 10712 10709 ] final -175.73 input   66.30 | X-H torsion
[ 10763 10752 10751 10750 ] final  -51.80 input  -60.55 | X-H torsion
[ 11005 11000 10999 10996 ] final -179.89 input  -57.11 | X-H torsion

> <Gold.Protein.ActiveResidues>
 VAL166  LYS551  ARG553  GLY616  TRP617  ASP618  TYR619  PRO620  LYS621  CYS622 
 ASP623  PHE694  ASN695  SER759  ASP760  ASP761  ALA762  ILE779  LEU786  VAL792 
 PHE793  MET794  SER795  GLU796  ALA797  LYS798  CYS799  TRP800  GLU811  SER814 

> <Gold.Protein.RotatedAtoms>
  150.9516  134.8915  159.7674 H   0  0  0  0  0  0  0  0  0  0  0  0  # atno 6907 bound_to 6896
  152.5121  134.3799  159.9357 H   0  0  0  0  0  0  0  0  0  0  0  0  # atno 6908 bound_to 6896
  151.3815  133.3779  159.2745 H   0  0  0  0  0  0  0  0  0  0  0  0  # atno 6909 bound_to 6896
  145.9109  139.3653  143.0536 H   0  0  0  0  0  0  0  0  0  0  0  0  # atno 7974 bound_to 7965
  155.0129  140.0393  157.2406 H   0  0  0  0  0  0  0  0  0  0  0  0  # atno 8008 bound_to 7997
  154.7444  140.2755  155.6322 H   0  0  0  0  0  0  0  0  0  0  0  0  # atno 8009 bound_to 7997
  156.2871  140.2659  156.2181 H   0  0  0  0  0  0  0  0  0  0  0  0  # atno 8010 bound_to 7997
  139.9707  144.5896  150.7988 H   0  0  0  0  0  0  0  0  0  0  0  0  # atno 10167 bound_to 10162
  156.8041  130.9563  151.3118 H   0  0  0  0  0  0  0  0  0  0  0  0  # atno 10718 bound_to 10713
  154.1325  135.6518  153.4925 H   0  0  0  0  0  0  0  0  0  0  0  0  # atno 10763 bound_to 10752
  153.0191  135.5296  154.6987 H   0  0  0  0  0  0  0  0  0  0  0  0  # atno 10764 bound_to 10752
  154.6225  135.2966  155.0280 H   0  0  0  0  0  0  0  0  0  0  0  0  # atno 10765 bound_to 10752
  140.4136  134.6670  157.4627 H   0  0  0  0  0  0  0  0  0  0  0  0  # atno 11005 bound_to 11000
  145.8672  140.9441  143.0669 LP  0  0  0  0  0  0  0  0  0  0  0  0  # atno 17320 bound_to 7965
  144.6743  140.0607  143.7476 LP  0  0  0  0  0  0  0  0  0  0  0  0  # atno 17321 bound_to 7965
  140.7523  143.2987  151.3136 LP  0  0  0  0  0  0  0  0  0  0  0  0  # atno 17342 bound_to 10162
  139.6483  144.0409  152.2607 LP  0  0  0  0  0  0  0  0  0  0  0  0  # atno 17343 bound_to 10162
  157.6539  130.8907  149.9688 LP  0  0  0  0  0  0  0  0  0  0  0  0  # atno 17370 bound_to 10713
  156.1083  130.3651  150.0094 LP  0  0  0  0  0  0  0  0  0  0  0  0  # atno 17371 bound_to 10713
  140.0250  134.6491  155.9186 LP  0  0  0  0  0  0  0  0  0  0  0  0  # atno 17394 bound_to 11000
  141.1812  133.6547  156.5026 LP  0  0  0  0  0  0  0  0  0  0  0  0  # atno 17395 bound_to 11000

$$$$
