AV-unprocessed.smi:1301|AV-procd|sdf|5421|dock1
  -GOLD-   22720 4583D 1   1.00000     0.00000
 Structure written by MMmdl.
 45 46  0  0  0  0  0  0  0  0  2 V2000
  146.7187  141.4535  154.4198 C   0  0  0  0  0  0  0  0  0  0  0  0
  146.5756  139.9738  154.3186 C   0  0  0  0  0  0  0  0  0  0  0  0
  147.2122  139.0266  153.5669 C   0  0  0  0  0  0  0  0  0  0  0  0
  146.5785  137.8207  153.9687 C   0  0  0  0  0  0  0  0  0  0  0  0
  146.9599  136.5750  153.4081 N   0  0  0  0  0  0  0  0  0  0  0  0
  146.3707  135.3810  153.5918 C   0  0  0  0  0  0  0  0  0  0  0  0
  145.3769  135.1826  154.2912 O   0  0  0  0  0  0  0  0  0  0  0  0
  147.0040  134.4151  152.9095 N   0  0  0  0  0  0  0  0  0  0  0  0
  146.6252  133.0042  152.8837 C   0  0  2  0  0  0  0  0  0  0  0  0
  147.8195  132.1277  153.2914 C   0  0  0  0  0  0  0  0  0  0  0  0
  147.4733  130.6335  153.1796 C   0  0  0  0  0  0  0  0  0  0  0  0
  147.0125  130.2869  151.8102 N   0  3  1  0  0  0  0  0  0  0  0  0
  146.7979  128.8262  151.6425 C   0  0  0  0  0  0  0  0  0  0  0  0
  148.1011  128.0074  151.7634 C   0  0  0  0  0  0  0  0  0  0  0  0
  147.9866  126.6927  150.9776 C   0  0  0  0  0  0  0  0  0  0  0  0
  148.4661  127.7256  153.2307 C   0  0  0  0  0  0  0  0  0  0  0  0
  145.8364  131.1033  151.4058 C   0  0  0  0  0  0  0  0  0  0  0  0
  146.1517  132.6069  151.4768 C   0  0  0  0  0  0  0  0  0  0  0  0
  145.6415  138.0143  154.8843 N   0  0  0  0  0  0  0  0  0  0  0  0
  145.6348  139.3952  155.1133 O   0  0  0  0  0  0  0  0  0  0  0  0
  147.4268  141.8275  153.6801 H   0  0  0  0  0  0  0  0  0  0  0  0
  147.0785  141.7400  155.4082 H   0  0  0  0  0  0  0  0  0  0  0  0
  145.7616  141.9470  154.2511 H   0  0  0  0  0  0  0  0  0  0  0  0
  148.0022  139.1768  152.8461 H   0  0  0  0  0  0  0  0  0  0  0  0
  147.7671  136.5970  152.8028 H   0  0  0  0  0  0  0  0  0  0  0  0
  147.8127  134.6770  152.3647 H   0  0  0  0  0  0  0  0  0  0  0  0
  145.8099  132.8142  153.5845 H   0  0  0  0  0  0  0  0  0  0  0  0
  148.6788  132.3486  152.6564 H   0  0  0  0  0  0  0  0  0  0  0  0
  148.1224  132.3599  154.3132 H   0  0  0  0  0  0  0  0  0  0  0  0
  148.3572  130.0457  153.4306 H   0  0  0  0  0  0  0  0  0  0  0  0
  146.7001  130.3698  153.9031 H   0  0  0  0  0  0  0  0  0  0  0  0
  146.1018  128.4678  152.4026 H   0  0  0  0  0  0  0  0  0  0  0  0
  146.3140  128.6433  150.6819 H   0  0  0  0  0  0  0  0  0  0  0  0
  148.9214  128.5688  151.3169 H   0  0  0  0  0  0  0  0  0  0  0  0
  147.1864  126.0636  151.3693 H   0  0  0  0  0  0  0  0  0  0  0  0
  148.9137  126.1211  151.0290 H   0  0  0  0  0  0  0  0  0  0  0  0
  147.7768  126.8803  149.9242 H   0  0  0  0  0  0  0  0  0  0  0  0
  147.6769  127.1682  153.7365 H   0  0  0  0  0  0  0  0  0  0  0  0
  148.6306  128.6490  153.7866 H   0  0  0  0  0  0  0  0  0  0  0  0
  149.3824  127.1387  153.3004 H   0  0  0  0  0  0  0  0  0  0  0  0
  145.5316  130.8552  150.3899 H   0  0  0  0  0  0  0  0  0  0  0  0
  144.9895  130.8698  152.0532 H   0  0  0  0  0  0  0  0  0  0  0  0
  145.2660  133.1822  151.2038 H   0  0  0  0  0  0  0  0  0  0  0  0
  146.9192  132.8522  150.7409 H   0  0  0  0  0  0  0  0  0  0  0  0
  147.7713  130.5334  151.1906 H   0  0  0  0  0  0  0  0  0  0  0  0
  1  2  1  0  0  0  0
  1 21  1  0  0  0  0
  1 22  1  0  0  0  0
  1 23  1  0  0  0  0
  2 20  1  0  0  0  0
  2  3  2  0  0  0  0
  3  4  1  0  0  0  0
  3 24  1  0  0  0  0
  4  5  1  0  0  0  0
  4 19  2  0  0  0  0
  5  6  1  0  0  0  0
  5 25  1  0  0  0  0
  6  7  2  0  0  0  0
  6  8  1  0  0  0  0
  8  9  1  0  0  0  0
  8 26  1  0  0  0  0
  9 18  1  0  0  0  0
  9 10  1  0  0  0  0
  9 27  1  0  0  0  0
 10 11  1  0  0  0  0
 10 28  1  0  0  0  0
 10 29  1  0  0  0  0
 11 12  1  0  0  0  0
 11 30  1  0  0  0  0
 11 31  1  0  0  0  0
 12 13  1  0  0  0  0
 12 17  1  0  0  0  0
 12 45  1  0  0  0  0
 13 14  1  0  0  0  0
 13 32  1  0  0  0  0
 13 33  1  0  0  0  0
 14 15  1  0  0  0  0
 14 16  1  0  0  0  0
 14 34  1  0  0  0  0
 15 35  1  0  0  0  0
 15 36  1  0  0  0  0
 15 37  1  0  0  0  0
 16 38  1  0  0  0  0
 16 39  1  0  0  0  0
 16 40  1  0  0  0  0
 17 18  1  0  0  0  0
 17 41  1  0  0  0  0
 17 42  1  0  0  0  0
 18 43  1  0  0  0  0
 18 44  1  0  0  0  0
 19 20  1  0  0  0  0
M  CHG  1  12   1
M  END
> <s_m_source_file>
AV-unprocessed.smi

> <i_m_source_file_index>
1301

> <i_lp_mmshare_version>
43012

> <i_f3d_flags>
0

> <s_epik_input>
W0NIM11jMVtjSF1jKG5vMSlbTkhdQyg9TylbTkhdW0NIXTJbQ0gyXVtDSDJdTihbQ0gyXVtDSDJdMilbQ0gyXVtDSF0oW0NIM10pW0NIM10=

> <s_epik_cmdline>
J2VwaWtfcHl0aG9uJywgJy1waCcsICc3LjAnLCAnLXRuJywgJzgnLCAnLW1hJywgJzIwMCcsICctbWV0YWxfYmluZGluZycsICctaW1hZScsICc8aW5maWxlLm1hZT4nLCAnLW9tYWUnLCAnPG91dGZpbGUubWFlPic=

> <r_epik_Ionization_Penalty>
0.0020743

> <r_epik_Ionization_Penalty_Charging>
0.0020412

> <r_epik_Ionization_Penalty_Neutral>
3.31029e-05

> <r_epik_State_Penalty>
0.00139626

> <r_epik_Charging_Adjusted_Penalty>
0.00343746

> <i_epik_Tot_Q>
1

> <i_epik_Tot_abs_Q>
1

> <r_epik_Metal_State_Penalty>
0.0141509

> <b_epik_Metal_Only>
0

> <s_lp_Force_Field>
OPLS_2005

> <r_lp_Energy>
17.3221

> <b_lp_Chiralities_Consistent>
1

> <s_lp_Variant>
AV-unprocessed.smi:1301-1

> <Gold.Version>
5.8.1

> <Gold.Id.Protein>
6NUR|6NUR_protein|mol2

> <Gold.PLP.Fitness>
39.8263

> <Gold.PLP.PLP>
-31.8302

> <Gold.PLP.part.hbond>
-3.0000

> <Gold.PLP.part.metal>
0.0000

> <Gold.PLP.part.buried>
-3.8925

> <Gold.PLP.part.nonpolar>
-26.2155

> <Gold.PLP.part.repulsive>
0.2419

> <Gold.PLP.ligand.clash>
0.0000

> <Gold.PLP.ligand.torsion>
0.3598

> <Gold.PLP.Chemscore.Hbond>
2.8873

> <Gold.PLP.Chemscore.CHOScore>
0.0000

> <Gold.PLP.Chemscore.Metal>
0.0000

> <Gold.Chemscore.Hbonds>
donor molecule, donor type, donor heavy atom, donor atom, acceptor molecule, acceptor atom, score
      L1  H     5    25       P1  7948  1.00
      L1  H     8    26       P1  7948  0.90
      L1  H    12    45       P1 10747  1.00

> <Gold.PLP.Chemscore.Internal.Correction>
0.0540

> <Gold.Rescore>
     Score         DG    S(hbond)    S(metal)    S(lipo)     H(rot)  DE(clash)    DE(int)     intcor
     19.46     -21.15       2.89        0.00      82.80       1.43       0.02       1.67       ----

> <Gold.Chemscore.Fitness>
19.4603

> <Gold.Chemscore.DG>
-21.1516

> <Gold.Chemscore.ZeroCoef>
-5.4800

> <Gold.Chemscore.Hbond>
2.8875

> <Gold.Chemscore.Metal>
0.0000

> <Gold.Chemscore.Lipo>
82.8004

> <Gold.Chemscore.Internal_Hbond>
0.0000

> <Gold.Chemscore.DEClash>
0.0244

> <Gold.Chemscore.DEInternal>
1.6669

> <Gold.Chemscore.Rot>
1.4298

> <Gold.Chemscore.Internal.Correction>
   9.000000E+99

> <Gold.Chemscore.Hbonds>
donor molecule, donor type, donor heavy atom, donor atom, acceptor molecule, acceptor atom, score
      L1  H     5    25       P1  7948  0.96
      L1  H     8    26       P1  7948  0.61
      L1  H    12    45       P1 10747  0.93

> <Gold.Chemscore.Hbond.Weighted>
-9.6443

> <Gold.Chemscore.Metal.Weighted>
-0.0000

> <Gold.Chemscore.Lipo.Weighted>
-9.6876

> <Gold.Chemscore.Internal_Hbond.Weighted>
0.0000

> <Gold.Chemscore.DEClash.Weighted>
0.0244

> <Gold.Chemscore.DEInternal.Weighted>
1.6669

> <Gold.Chemscore.Rot.Weighted>
3.6604

> <Gold.Chemscore.Internal.Correction.Weighted>
   9.000000E+99

> <Gold.Protein.RotatedTorsions>
[ 6907 6896 6895 6894 ] final  -19.56 input  -60.11 | X-H torsion
[ 7974 7965 7964 7962 ] final  -88.28 input  175.53 | X-H torsion
[ 8008 7997 7996 7995 ] final  126.93 input   59.86 | X-H torsion
[ 10167 10162 10161 10158 ] final  -39.53 input  -65.29 | X-H torsion
[ 10718 10713 10712 10709 ] final -127.48 input   66.30 | X-H torsion
[ 10763 10752 10751 10750 ] final   -6.49 input  -60.55 | X-H torsion
[ 11005 11000 10999 10996 ] final  -51.48 input  -57.11 | X-H torsion

> <Gold.Protein.ActiveResidues>
 VAL166  LYS551  ARG553  GLY616  TRP617  ASP618  TYR619  PRO620  LYS621  CYS622 
 ASP623  PHE694  ASN695  SER759  ASP760  ASP761  ALA762  ILE779  LEU786  VAL792 
 PHE793  MET794  SER795  GLU796  ALA797  LYS798  CYS799  TRP800  GLU811  SER814 

> <Gold.Protein.RotatedAtoms>
  151.2613  135.0655  159.9099 H   0  0  0  0  0  0  0  0  0  0  0  0  # atno 6907 bound_to 6896
  152.5365  134.0228  159.7999 H   0  0  0  0  0  0  0  0  0  0  0  0  # atno 6908 bound_to 6896
  151.0451  133.5622  159.2678 H   0  0  0  0  0  0  0  0  0  0  0  0  # atno 6909 bound_to 6896
  145.4553  140.9561  143.1999 H   0  0  0  0  0  0  0  0  0  0  0  0  # atno 7974 bound_to 7965
  156.2877  140.2681  156.2191 H   0  0  0  0  0  0  0  0  0  0  0  0  # atno 8008 bound_to 7997
  155.0186  140.0386  157.2446 H   0  0  0  0  0  0  0  0  0  0  0  0  # atno 8009 bound_to 7997
  154.7455  140.2733  155.6341 H   0  0  0  0  0  0  0  0  0  0  0  0  # atno 8010 bound_to 7997
  140.7061  143.3209  151.2795 H   0  0  0  0  0  0  0  0  0  0  0  0  # atno 10167 bound_to 10162
  156.1861  130.6764  151.0365 H   0  0  0  0  0  0  0  0  0  0  0  0  # atno 10718 bound_to 10713
  153.4131  135.7008  153.6345 H   0  0  0  0  0  0  0  0  0  0  0  0  # atno 10763 bound_to 10752
  153.4831  135.3689  155.2453 H   0  0  0  0  0  0  0  0  0  0  0  0  # atno 10764 bound_to 10752
  154.8718  135.4071  154.3486 H   0  0  0  0  0  0  0  0  0  0  0  0  # atno 10765 bound_to 10752
  141.0873  133.6640  156.3883 H   0  0  0  0  0  0  0  0  0  0  0  0  # atno 11005 bound_to 11000
  144.8036  139.6094  143.7061 LP  0  0  0  0  0  0  0  0  0  0  0  0  # atno 17320 bound_to 7965
  146.2481  139.6142  142.9445 LP  0  0  0  0  0  0  0  0  0  0  0  0  # atno 17321 bound_to 7965
  139.6662  144.0101  152.2724 LP  0  0  0  0  0  0  0  0  0  0  0  0  # atno 17342 bound_to 10162
  139.9684  144.6510  150.8012 LP  0  0  0  0  0  0  0  0  0  0  0  0  # atno 17343 bound_to 10162
  157.6899  131.0813  150.7136 LP  0  0  0  0  0  0  0  0  0  0  0  0  # atno 17370 bound_to 10713
  156.7193  130.4675  149.5527 LP  0  0  0  0  0  0  0  0  0  0  0  0  # atno 17371 bound_to 10713
  140.5333  134.6191  157.5357 LP  0  0  0  0  0  0  0  0  0  0  0  0  # atno 17394 bound_to 11000
  139.9693  134.7319  156.0073 LP  0  0  0  0  0  0  0  0  0  0  0  0  # atno 17395 bound_to 11000

$$$$
