AV-unprocessed.smi:33|AV-procd|sdf|203|dock4
  -GOLD-   2262015483D 1   1.00000     0.00000
 Structure written by MMmdl.
 67 72  0  0  0  0  0  0  0  0  1 V2000
  153.4764  139.2131  158.1372 O   0  0  0  0  0  0  0  0  0  0  0  0
  152.6870  140.0912  158.4916 C   0  0  0  0  0  0  0  0  0  0  0  0
  151.5633  140.4008  157.8146 O   0  0  0  0  0  0  0  0  0  0  0  0
  151.5135  140.2301  156.4075 C   0  0  0  0  0  0  0  0  0  0  0  0
  150.0487  140.1980  155.9538 C   0  0  2  0  0  0  0  0  0  0  0  0
  149.9511  140.1673  154.5339 O   0  0  0  0  0  0  0  0  0  0  0  0
  148.6831  140.6067  154.1422 C   0  0  1  0  0  0  0  0  0  0  0  0
  147.8839  139.3938  153.7698 N   0  0  0  0  0  0  0  0  0  0  0  0
  147.2897  139.0686  152.5666 C   0  0  0  0  0  0  0  0  0  0  0  0
  146.6257  137.9445  152.5535 N   0  0  0  0  0  0  0  0  0  0  0  0
  146.7564  137.4649  153.8491 C   0  0  0  0  0  0  0  0  0  0  0  0
  146.2809  136.3117  154.5281 C   0  0  0  0  0  0  0  0  0  0  0  0
  145.5206  135.3693  153.9250 N   0  0  0  0  0  0  0  0  0  0  0  0
  144.0662  135.4651  154.1157 C   0  0  0  0  0  0  0  0  0  0  0  0
  143.3704  134.4533  154.0087 O   0  0  0  0  0  0  0  0  0  0  0  0
  143.4296  136.7761  154.4796 C   0  0  0  0  0  0  0  0  0  0  0  0
  143.7330  137.3912  155.7140 C   0  0  0  0  0  0  0  0  0  0  0  0
  143.1289  138.6141  156.0650 C   0  0  0  0  0  0  0  0  0  0  0  0
  142.2036  139.2194  155.1932 C   0  0  0  0  0  0  0  0  0  0  0  0
  141.8742  138.5962  153.9745 C   0  0  0  0  0  0  0  0  0  0  0  0
  142.4782  137.3739  153.6225 C   0  0  0  0  0  0  0  0  0  0  0  0
  146.2231  134.3373  153.1480 C   0  0  0  0  0  0  0  0  0  0  0  0
  147.4019  134.0824  153.4035 O   0  0  0  0  0  0  0  0  0  0  0  0
  145.5042  133.5540  152.0863 C   0  0  0  0  0  0  0  0  0  0  0  0
  144.3876  134.1168  151.4297 C   0  0  0  0  0  0  0  0  0  0  0  0
  143.6983  133.3833  150.4449 C   0  0  0  0  0  0  0  0  0  0  0  0
  144.1093  132.0755  150.1237 C   0  0  0  0  0  0  0  0  0  0  0  0
  145.2043  131.4979  150.7941 C   0  0  0  0  0  0  0  0  0  0  0  0
  145.8946  132.2310  151.7787 C   0  0  0  0  0  0  0  0  0  0  0  0
  146.6007  136.1640  155.8394 N   0  0  0  0  0  0  0  0  0  0  0  0
  147.3446  137.0928  156.4480 C   0  0  0  0  0  0  0  0  0  0  0  0
  147.8572  138.2171  155.9410 N   0  0  0  0  0  0  0  0  0  0  0  0
  147.5366  138.3670  154.6224 C   0  0  0  0  0  0  0  0  0  0  0  0
  148.0640  141.3357  155.3504 C   0  0  2  0  0  0  0  0  0  0  0  0
  147.5330  142.6070  155.0355 O   0  0  0  0  0  0  0  0  0  0  0  0
  149.2539  141.4575  156.2929 C   0  0  2  0  0  0  0  0  0  0  0  0
  149.9939  142.5277  155.9870 F   0  0  0  0  0  0  0  0  0  0  0  0
  152.8763  140.9222  159.7160 C   0  0  0  0  0  0  0  0  0  0  0  0
  152.1734  142.1437  159.8394 C   0  0  0  0  0  0  0  0  0  0  0  0
  152.3335  142.9515  160.9821 C   0  0  0  0  0  0  0  0  0  0  0  0
  153.1987  142.5477  162.0155 C   0  0  0  0  0  0  0  0  0  0  0  0
  153.9029  141.3343  161.9053 C   0  0  0  0  0  0  0  0  0  0  0  0
  153.7439  140.5251  160.7635 C   0  0  0  0  0  0  0  0  0  0  0  0
  152.0268  141.0667  155.9313 H   0  0  0  0  0  0  0  0  0  0  0  0
  152.0298  139.3149  156.1147 H   0  0  0  0  0  0  0  0  0  0  0  0
  149.5488  139.3281  156.3810 H   0  0  0  0  0  0  0  0  0  0  0  0
  148.7501  141.2152  153.2400 H   0  0  0  0  0  0  0  0  0  0  0  0
  147.3629  139.6870  151.6850 H   0  0  0  0  0  0  0  0  0  0  0  0
  144.4420  136.9358  156.3902 H   0  0  0  0  0  0  0  0  0  0  0  0
  143.3757  139.0875  157.0039 H   0  0  0  0  0  0  0  0  0  0  0  0
  141.7417  140.1578  155.4624 H   0  0  0  0  0  0  0  0  0  0  0  0
  141.1573  139.0547  153.3095 H   0  0  0  0  0  0  0  0  0  0  0  0
  142.2143  136.9017  152.6868 H   0  0  0  0  0  0  0  0  0  0  0  0
  144.0631  135.1196  151.6682 H   0  0  0  0  0  0  0  0  0  0  0  0
  142.8534  133.8242  149.9368 H   0  0  0  0  0  0  0  0  0  0  0  0
  143.5802  131.5136  149.3684 H   0  0  0  0  0  0  0  0  0  0  0  0
  145.5145  130.4917  150.5542 H   0  0  0  0  0  0  0  0  0  0  0  0
  146.7298  131.7750  152.2904 H   0  0  0  0  0  0  0  0  0  0  0  0
  147.5592  136.9098  157.4906 H   0  0  0  0  0  0  0  0  0  0  0  0
  147.2862  140.7252  155.8095 H   0  0  0  0  0  0  0  0  0  0  0  0
  148.1313  143.2675  155.3506 H   0  0  0  0  0  0  0  0  0  0  0  0
  148.9732  141.5295  157.3440 H   0  0  0  0  0  0  0  0  0  0  0  0
  151.5040  142.4753  159.0587 H   0  0  0  0  0  0  0  0  0  0  0  0
  151.7917  143.8821  161.0646 H   0  0  0  0  0  0  0  0  0  0  0  0
  153.3219  143.1678  162.8911 H   0  0  0  0  0  0  0  0  0  0  0  0
  154.5675  141.0233  162.6981 H   0  0  0  0  0  0  0  0  0  0  0  0
  154.3000  139.6004  160.7104 H   0  0  0  0  0  0  0  0  0  0  0  0
  1  2  2  0  0  0  0
  2  3  1  0  0  0  0
  2 38  1  0  0  0  0
  3  4  1  0  0  0  0
  4  5  1  0  0  0  0
  4 44  1  0  0  0  0
  4 45  1  0  0  0  0
  5 36  1  0  0  0  0
  5  6  1  0  0  0  0
  5 46  1  0  0  0  0
  6  7  1  0  0  0  0
  7  8  1  0  0  0  0
  7 34  1  0  0  0  0
  7 47  1  0  0  0  0
  8 33  1  0  0  0  0
  8  9  1  0  0  0  0
  9 10  2  0  0  0  0
  9 48  1  0  0  0  0
 10 11  1  0  0  0  0
 11 33  2  0  0  0  0
 11 12  1  0  0  0  0
 12 13  1  0  0  0  0
 12 30  2  0  0  0  0
 13 14  1  0  0  0  0
 13 22  1  0  0  0  0
 14 15  2  0  0  0  0
 14 16  1  0  0  0  0
 16 21  1  0  0  0  0
 16 17  2  0  0  0  0
 17 18  1  0  0  0  0
 17 49  1  0  0  0  0
 18 19  2  0  0  0  0
 18 50  1  0  0  0  0
 19 20  1  0  0  0  0
 19 51  1  0  0  0  0
 20 21  2  0  0  0  0
 20 52  1  0  0  0  0
 21 53  1  0  0  0  0
 22 23  2  0  0  0  0
 22 24  1  0  0  0  0
 24 29  1  0  0  0  0
 24 25  2  0  0  0  0
 25 26  1  0  0  0  0
 25 54  1  0  0  0  0
 26 27  2  0  0  0  0
 26 55  1  0  0  0  0
 27 28  1  0  0  0  0
 27 56  1  0  0  0  0
 28 29  2  0  0  0  0
 28 57  1  0  0  0  0
 29 58  1  0  0  0  0
 30 31  1  0  0  0  0
 31 32  2  0  0  0  0
 31 59  1  0  0  0  0
 32 33  1  0  0  0  0
 34 35  1  0  0  0  0
 34 36  1  0  0  0  0
 34 60  1  0  0  0  0
 35 61  1  0  0  0  0
 36 37  1  0  0  0  0
 36 62  1  0  0  0  0
 38 43  1  0  0  0  0
 38 39  2  0  0  0  0
 39 40  1  0  0  0  0
 39 63  1  0  0  0  0
 40 41  2  0  0  0  0
 40 64  1  0  0  0  0
 41 42  1  0  0  0  0
 41 65  1  0  0  0  0
 42 43  2  0  0  0  0
 42 66  1  0  0  0  0
 43 67  1  0  0  0  0
M  END
> <s_m_source_file>
AV-unprocessed.smi

> <i_m_source_file_index>
33

> <i_lp_mmshare_version>
43012

> <i_f3d_flags>
0

> <s_epik_input>
W2NIXTFbY0hdW2NIXVtjSF1bY0hdYzFDKD1PKU9bQ0gyXVtDQEBIXTJPW0NASF0oW0NAQEhdKFtPSF0pW0NAQEhdMkYpbihbY0hdbjMpYyhjMzQpbltjSF1uYzROKEMoPU8pYzVbY0hdW2NIXVtjSF1bY0hdW2NIXTUpQyg9TyljNltjSF1bY0hdW2NIXVtjSF1bY0hdNg==

> <s_epik_cmdline>
J2VwaWtfcHl0aG9uJywgJy1waCcsICc3LjAnLCAnLXRuJywgJzgnLCAnLW1hJywgJzIwMCcsICctbWV0YWxfYmluZGluZycsICctaW1hZScsICc8aW5maWxlLm1hZT4nLCAnLW9tYWUnLCAnPG91dGZpbGUubWFlPic=

> <r_lp_tautomer_probability>
1

> <r_epik_Ionization_Penalty>
0.00067664

> <r_epik_Ionization_Penalty_Charging>
0

> <r_epik_Ionization_Penalty_Neutral>
0.00067664

> <r_epik_State_Penalty>
0.000428095

> <r_epik_Charging_Adjusted_Penalty>
0.000428095

> <i_epik_Tot_Q>
0

> <i_epik_Tot_abs_Q>
0

> <r_epik_Metal_State_Penalty>
-0

> <b_epik_Metal_Only>
0

> <s_epik_Chemistry_Notes>
This compound has an ester and may undergo hydrolysis at high or low pH. This compound contains an acetal/aminal-like group ( X-CH(R)-Y where X, Y are N, S, or O) that may be acid/base labile, releasing an aldehyde.

> <s_lp_Force_Field>
OPLS_2005

> <r_lp_Energy>
70.8142

> <b_lp_Chiralities_Consistent>
1

> <s_lp_Variant>
AV-unprocessed.smi:33-5

> <Gold.Version>
5.8.1

> <Gold.Id.Protein>
6NUR|6NUR_protein|mol2

> <Gold.PLP.Fitness>
58.0277

> <Gold.PLP.PLP>
-51.3485

> <Gold.PLP.part.hbond>
-2.9820

> <Gold.PLP.part.metal>
0.0000

> <Gold.PLP.part.buried>
3.7243

> <Gold.PLP.part.nonpolar>
-54.2697

> <Gold.PLP.part.repulsive>
3.8969

> <Gold.PLP.ligand.clash>
0.0000

> <Gold.PLP.ligand.torsion>
4.0957

> <Gold.PLP.Chemscore.Hbond>
2.9833

> <Gold.PLP.Chemscore.CHOScore>
0.5882

> <Gold.PLP.Chemscore.Metal>
0.0000

> <Gold.Chemscore.Hbonds>
donor molecule, donor type, donor heavy atom, donor atom, acceptor molecule, acceptor atom, score
      L1  H    35    61       P1  8028  1.00
      P1  H  7989  7998       L1     6  0.86
      P1  H  7997  8008       L1     1  1.00
      L1  C     9    48       P1  7957  0.62

> <Gold.PLP.Chemscore.Internal.Correction>
4.1560

> <Gold.Rescore>
     Score         DG    S(hbond)    S(metal)    S(lipo)     H(rot)  DE(clash)    DE(int)     intcor
     11.35     -23.91       2.50        0.00     141.43       2.52       5.10       7.45       ----

> <Gold.Chemscore.Fitness>
11.3540

> <Gold.Chemscore.DG>
-23.9064

> <Gold.Chemscore.ZeroCoef>
-5.4800

> <Gold.Chemscore.Hbond>
2.4977

> <Gold.Chemscore.Metal>
0.0000

> <Gold.Chemscore.Lipo>
141.4297

> <Gold.Chemscore.Internal_Hbond>
0.0000

> <Gold.Chemscore.DEClash>
5.1034

> <Gold.Chemscore.DEInternal>
7.4490

> <Gold.Chemscore.Rot>
2.5247

> <Gold.Chemscore.Internal.Correction>
   9.000000E+99

> <Gold.Chemscore.Hbonds>
donor molecule, donor type, donor heavy atom, donor atom, acceptor molecule, acceptor atom, score
      L1  H    35    61       P1  8028  0.88
      P1  H  7989  7998       L1     6  0.70
      P1  H  7997  8008       L1     1  0.45

> <Gold.Chemscore.Hbond.Weighted>
-8.3423

> <Gold.Chemscore.Metal.Weighted>
-0.0000

> <Gold.Chemscore.Lipo.Weighted>
-16.5473

> <Gold.Chemscore.Internal_Hbond.Weighted>
0.0000

> <Gold.Chemscore.DEClash.Weighted>
5.1034

> <Gold.Chemscore.DEInternal.Weighted>
7.4490

> <Gold.Chemscore.Rot.Weighted>
6.4633

> <Gold.Chemscore.Internal.Correction.Weighted>
   9.000000E+99

> <Gold.Protein.RotatedTorsions>
[ 6907 6896 6895 6894 ] final  125.73 input  -60.11 | X-H torsion
[ 7974 7965 7964 7962 ] final  -14.17 input  175.53 | X-H torsion
[ 8008 7997 7996 7995 ] final  -77.25 input   59.86 | X-H torsion
[ 10167 10162 10161 10158 ] final -113.45 input  -65.29 | X-H torsion
[ 10718 10713 10712 10709 ] final   52.83 input   66.30 | X-H torsion
[ 10763 10752 10751 10750 ] final  -23.00 input  -60.55 | X-H torsion
[ 11005 11000 10999 10996 ] final  -23.06 input  -57.11 | X-H torsion

> <Gold.Protein.ActiveResidues>
 VAL166  LYS551  ARG553  GLY616  TRP617  ASP618  TYR619  PRO620  LYS621  CYS622 
 ASP623  PHE694  ASN695  SER759  ASP760  ASP761  ALA762  ILE779  LEU786  VAL792 
 PHE793  MET794  SER795  GLU796  ALA797  LYS798  CYS799  TRP800  GLU811  SER814 

> <Gold.Protein.RotatedAtoms>
  152.3966  133.6756  159.6281 H   0  0  0  0  0  0  0  0  0  0  0  0  # atno 6907 bound_to 6896
  150.7864  133.8863  159.3309 H   0  0  0  0  0  0  0  0  0  0  0  0  # atno 6908 bound_to 6896
  151.6638  135.0987  160.0236 H   0  0  0  0  0  0  0  0  0  0  0  0  # atno 6909 bound_to 6896
  146.2085  140.3309  142.8399 H   0  0  0  0  0  0  0  0  0  0  0  0  # atno 7974 bound_to 7965
  154.5579  140.0713  156.8773 H   0  0  0  0  0  0  0  0  0  0  0  0  # atno 8008 bound_to 7997
  155.2867  140.3375  155.4237 H   0  0  0  0  0  0  0  0  0  0  0  0  # atno 8009 bound_to 7997
  156.2018  140.1724  156.7870 H   0  0  0  0  0  0  0  0  0  0  0  0  # atno 8010 bound_to 7997
  140.1117  143.4521  152.1748 H   0  0  0  0  0  0  0  0  0  0  0  0  # atno 10167 bound_to 10162
  157.5111  130.8501  149.8436 H   0  0  0  0  0  0  0  0  0  0  0  0  # atno 10718 bound_to 10713
  153.6609  135.6976  153.5178 H   0  0  0  0  0  0  0  0  0  0  0  0  # atno 10763 bound_to 10752
  153.2632  135.4238  155.0914 H   0  0  0  0  0  0  0  0  0  0  0  0  # atno 10764 bound_to 10752
  154.8452  135.3560  154.6154 H   0  0  0  0  0  0  0  0  0  0  0  0  # atno 10765 bound_to 10752
  140.8716  133.7716  156.0193 H   0  0  0  0  0  0  0  0  0  0  0  0  # atno 11005 bound_to 11000
  144.8853  140.7454  143.5961 LP  0  0  0  0  0  0  0  0  0  0  0  0  # atno 17320 bound_to 7965
  145.3230  139.1782  143.4577 LP  0  0  0  0  0  0  0  0  0  0  0  0  # atno 17321 bound_to 7965
  139.5615  144.7409  151.4140 LP  0  0  0  0  0  0  0  0  0  0  0  0  # atno 17342 bound_to 10162
  140.6922  143.7835  150.7272 LP  0  0  0  0  0  0  0  0  0  0  0  0  # atno 17343 bound_to 10162
  156.0289  130.3770  150.1742 LP  0  0  0  0  0  0  0  0  0  0  0  0  # atno 17370 bound_to 10713
  156.9932  130.9899  151.3409 LP  0  0  0  0  0  0  0  0  0  0  0  0  # atno 17371 bound_to 10713
  140.8567  134.2890  157.5252 LP  0  0  0  0  0  0  0  0  0  0  0  0  # atno 17394 bound_to 11000
  139.8712  134.9496  156.4031 LP  0  0  0  0  0  0  0  0  0  0  0  0  # atno 17395 bound_to 11000

$$$$
