AV-unprocessed.smi:445|AV-procd|sdf|2591|dock1
  -GOLD-   2262022583D 1   1.00000     0.00000
 Structure written by MMmdl.
 44 45  0  0  0  0  0  0  0  0  3 V2000
  152.3249  139.4732  159.1979 C   0  0  0  0  0  0  0  0  0  0  0  0
  152.0682  140.0857  157.8101 C   0  0  2  0  0  0  0  0  0  0  0  0
  150.7770  140.9301  157.7929 C   0  0  0  0  0  0  0  0  0  0  0  0
  150.5518  141.5905  156.4231 C   0  0  0  0  0  0  0  0  0  0  0  0
  150.5343  140.5477  155.2954 C   0  0  0  0  0  0  0  0  0  0  0  0
  151.8170  139.6977  155.3029 C   0  0  0  0  0  0  0  0  0  0  0  0
  152.0702  139.0337  156.6715 C   0  0  2  0  0  0  0  0  0  0  0  0
  151.0785  137.9815  156.9035 N   0  0  0  0  0  0  0  0  0  0  0  0
  150.9114  136.8720  156.1675 C   0  0  0  0  0  0  0  0  0  0  0  0
  151.6086  136.5921  155.1913 O   0  0  0  0  0  0  0  0  0  0  0  0
  149.7951  135.9253  156.6307 C   0  0  0  0  0  0  0  0  0  0  0  0
  149.8070  134.6282  155.9299 N   0  0  0  0  0  0  0  0  0  0  0  0
  150.6774  133.6478  156.4388 C   0  0  0  0  0  0  0  0  0  0  0  0
  150.7873  132.4283  155.8835 C   0  0  0  0  0  0  0  0  0  0  0  0
  151.6950  131.4381  156.4225 N   0  3  0  0  0  0  0  0  0  0  0  0
  152.3132  131.7014  157.4490 O   0  0  0  0  0  0  0  0  0  0  0  0
  151.8213  130.3657  155.8390 O   0  5  0  0  0  0  0  0  0  0  0  0
  149.9701  132.1367  154.7238 C   0  0  0  0  0  0  0  0  0  0  0  0
  149.1262  133.0691  154.2122 C   0  0  0  0  0  0  0  0  0  0  0  0
  148.2737  132.8150  153.0291 C   0  0  0  0  0  0  0  0  0  0  0  0
  148.3732  131.5749  152.5339 N   0  0  0  0  0  0  0  0  0  0  0  0
  147.5121  133.6115  152.4809 O   0  0  0  0  0  0  0  0  0  0  0  0
  149.0151  134.4177  154.8320 C   0  0  0  0  0  0  0  0  0  0  0  0
  148.2787  135.3212  154.4264 O   0  0  0  0  0  0  0  0  0  0  0  0
  151.5089  138.8209  159.5098 H   0  0  0  0  0  0  0  0  0  0  0  0
  152.4296  140.2514  159.9543 H   0  0  0  0  0  0  0  0  0  0  0  0
  153.2427  138.8845  159.2022 H   0  0  0  0  0  0  0  0  0  0  0  0
  152.8980  140.7664  157.6134 H   0  0  0  0  0  0  0  0  0  0  0  0
  149.9187  140.3048  158.0425 H   0  0  0  0  0  0  0  0  0  0  0  0
  150.8269  141.7014  158.5621 H   0  0  0  0  0  0  0  0  0  0  0  0
  149.6144  142.1473  156.4286 H   0  0  0  0  0  0  0  0  0  0  0  0
  151.3420  142.3183  156.2348 H   0  0  0  0  0  0  0  0  0  0  0  0
  149.6620  139.9026  155.4062 H   0  0  0  0  0  0  0  0  0  0  0  0
  150.4264  141.0457  154.3315 H   0  0  0  0  0  0  0  0  0  0  0  0
  151.7681  138.9403  154.5193 H   0  0  0  0  0  0  0  0  0  0  0  0
  152.6661  140.3352  155.0534 H   0  0  0  0  0  0  0  0  0  0  0  0
  153.0655  138.5877  156.6305 H   0  0  0  0  0  0  0  0  0  0  0  0
  150.4612  138.1161  157.6913 H   0  0  0  0  0  0  0  0  0  0  0  0
  149.8997  135.7833  157.7072 H   0  0  0  0  0  0  0  0  0  0  0  0
  148.8268  136.4140  156.5059 H   0  0  0  0  0  0  0  0  0  0  0  0
  151.2505  133.9606  157.2999 H   0  0  0  0  0  0  0  0  0  0  0  0
  150.0536  131.1560  154.2804 H   0  0  0  0  0  0  0  0  0  0  0  0
  147.8284  131.3048  151.7283 H   0  0  0  0  0  0  0  0  0  0  0  0
  148.9948  130.9111  152.9733 H   0  0  0  0  0  0  0  0  0  0  0  0
  1  2  1  0  0  0  0
  1 25  1  0  0  0  0
  1 26  1  0  0  0  0
  1 27  1  0  0  0  0
  2  7  1  0  0  0  0
  2  3  1  0  0  0  0
  2 28  1  0  0  0  0
  3  4  1  0  0  0  0
  3 29  1  0  0  0  0
  3 30  1  0  0  0  0
  4  5  1  0  0  0  0
  4 31  1  0  0  0  0
  4 32  1  0  0  0  0
  5  6  1  0  0  0  0
  5 33  1  0  0  0  0
  5 34  1  0  0  0  0
  6  7  1  0  0  0  0
  6 35  1  0  0  0  0
  6 36  1  0  0  0  0
  7  8  1  0  0  0  0
  7 37  1  0  0  0  0
  8  9  1  0  0  0  0
  8 38  1  0  0  0  0
  9 10  2  0  0  0  0
  9 11  1  0  0  0  0
 11 12  1  0  0  0  0
 11 39  1  0  0  0  0
 11 40  1  0  0  0  0
 12 23  1  0  0  0  0
 12 13  1  0  0  0  0
 13 14  2  0  0  0  0
 13 41  1  0  0  0  0
 14 15  1  0  0  0  0
 14 18  1  0  0  0  0
 15 16  2  0  0  0  0
 15 17  1  0  0  0  0
 18 19  2  0  0  0  0
 18 42  1  0  0  0  0
 19 20  1  0  0  0  0
 19 23  1  0  0  0  0
 20 21  1  0  0  0  0
 20 22  2  0  0  0  0
 21 43  1  0  0  0  0
 21 44  1  0  0  0  0
 23 24  2  0  0  0  0
M  CHG  1  15   1
M  CHG  1  17  -1
M  END
> <s_m_source_file>
AV-unprocessed.smi

> <i_m_source_file_index>
445

> <i_lp_mmshare_version>
43012

> <i_f3d_flags>
0

> <s_epik_input>
W0NIM11bQ0BASF0xW0NIMl1bQ0gyXVtDSDJdW0NIMl1bQ0BIXTFbTkhdQyg9TylbQ0gyXW4yW2NIXWMoW04rXSg9TylbTy1dKVtjSF1jKGMyPU8pQyg9TylbTkgyXQ==

> <s_epik_cmdline>
J2VwaWtfcHl0aG9uJywgJy1waCcsICc3LjAnLCAnLXRuJywgJzgnLCAnLW1hJywgJzIwMCcsICctbWV0YWxfYmluZGluZycsICctaW1hZScsICc8aW5maWxlLm1hZT4nLCAnLW9tYWUnLCAnPG91dGZpbGUubWFlPic=

> <r_lp_tautomer_probability>
1

> <r_epik_Ionization_Penalty>
2.81321e-06

> <r_epik_Ionization_Penalty_Charging>
2.43777e-12

> <r_epik_Ionization_Penalty_Neutral>
2.81321e-06

> <r_epik_State_Penalty>
-0

> <r_epik_Charging_Adjusted_Penalty>
2.43777e-12

> <i_epik_Tot_Q>
0

> <i_epik_Tot_abs_Q>
2

> <r_epik_Metal_State_Penalty>
-0

> <b_epik_Metal_Only>
0

> <s_lp_Force_Field>
OPLS_2005

> <r_lp_Energy>
27.547

> <b_lp_Chiralities_Consistent>
1

> <s_lp_Variant>
AV-unprocessed.smi:445-3

> <Gold.Version>
5.8.1

> <Gold.Id.Protein>
6NUR|6NUR_protein|mol2

> <Gold.PLP.Fitness>
39.5171

> <Gold.PLP.PLP>
-33.0911

> <Gold.PLP.part.hbond>
-3.0000

> <Gold.PLP.part.metal>
0.0000

> <Gold.PLP.part.buried>
-1.9300

> <Gold.PLP.part.nonpolar>
-29.9786

> <Gold.PLP.part.repulsive>
1.8867

> <Gold.PLP.ligand.clash>
0.0000

> <Gold.PLP.ligand.torsion>
0.4516

> <Gold.PLP.Chemscore.Hbond>
2.4320

> <Gold.PLP.Chemscore.CHOScore>
0.0000

> <Gold.PLP.Chemscore.Metal>
0.0000

> <Gold.Chemscore.Hbonds>
donor molecule, donor type, donor heavy atom, donor atom, acceptor molecule, acceptor atom, score
      L1  H    21    43       P1 10747  0.19
      P1  H 10752 10764       L1    10  1.00

> <Gold.PLP.Chemscore.Internal.Correction>
0.0332

> <Gold.Rescore>
     Score         DG    S(hbond)    S(metal)    S(lipo)     H(rot)  DE(clash)    DE(int)     intcor
     13.75     -16.92       2.55        0.00      62.49       1.71       1.16       2.01       ----

> <Gold.Chemscore.Fitness>
13.7514

> <Gold.Chemscore.DG>
-16.9227

> <Gold.Chemscore.ZeroCoef>
-5.4800

> <Gold.Chemscore.Hbond>
2.5492

> <Gold.Chemscore.Metal>
0.0000

> <Gold.Chemscore.Lipo>
62.4943

> <Gold.Chemscore.Internal_Hbond>
0.0000

> <Gold.Chemscore.DEClash>
1.1565

> <Gold.Chemscore.DEInternal>
2.0149

> <Gold.Chemscore.Rot>
1.7123

> <Gold.Chemscore.Internal.Correction>
   9.000000E+99

> <Gold.Chemscore.Hbonds>
donor molecule, donor type, donor heavy atom, donor atom, acceptor molecule, acceptor atom, score
      L1  H    21    43       P1 10747  0.20
      P1  H  6896  6908       L1    16  0.02
      P1  H 10752 10764       L1    10  1.00

> <Gold.Chemscore.Hbond.Weighted>
-8.5144

> <Gold.Chemscore.Metal.Weighted>
-0.0000

> <Gold.Chemscore.Lipo.Weighted>
-7.3118

> <Gold.Chemscore.Internal_Hbond.Weighted>
0.0000

> <Gold.Chemscore.DEClash.Weighted>
1.1565

> <Gold.Chemscore.DEInternal.Weighted>
2.0149

> <Gold.Chemscore.Rot.Weighted>
4.3835

> <Gold.Chemscore.Internal.Correction.Weighted>
   9.000000E+99

> <Gold.Protein.RotatedTorsions>
[ 6907 6896 6895 6894 ] final   60.11 input  -60.11 | X-H torsion
[ 7974 7965 7964 7962 ] final   87.91 input  175.53 | X-H torsion
[ 8008 7997 7996 7995 ] final  -71.52 input   59.86 | X-H torsion
[ 10167 10162 10161 10158 ] final  -84.75 input  -65.29 | X-H torsion
[ 10718 10713 10712 10709 ] final  -67.90 input   66.30 | X-H torsion
[ 10763 10752 10751 10750 ] final  -59.85 input  -60.55 | X-H torsion
[ 11005 11000 10999 10996 ] final   70.98 input  -57.11 | X-H torsion

> <Gold.Protein.ActiveResidues>
 VAL166  LYS551  ARG553  GLY616  TRP617  ASP618  TYR619  PRO620  LYS621  CYS622 
 ASP623  PHE694  ASN695  SER759  ASP760  ASP761  ALA762  ILE779  LEU786  VAL792 
 PHE793  MET794  SER795  GLU796  ALA797  LYS798  CYS799  TRP800  GLU811  SER814 

> <Gold.Protein.RotatedAtoms>
  152.3974  134.6342  160.0083 H   0  0  0  0  0  0  0  0  0  0  0  0  # atno 6907 bound_to 6896
  151.6558  133.3313  159.3170 H   0  0  0  0  0  0  0  0  0  0  0  0  # atno 6908 bound_to 6896
  150.7880  134.6923  159.6548 H   0  0  0  0  0  0  0  0  0  0  0  0  # atno 6909 bound_to 6896
  145.5527  139.2297  143.2504 H   0  0  0  0  0  0  0  0  0  0  0  0  # atno 7974 bound_to 7965
  154.5094  140.0814  156.7959 H   0  0  0  0  0  0  0  0  0  0  0  0  # atno 8008 bound_to 7997
  155.3819  140.3428  155.4229 H   0  0  0  0  0  0  0  0  0  0  0  0  # atno 8009 bound_to 7997
  156.1555  140.1572  156.8687 H   0  0  0  0  0  0  0  0  0  0  0  0  # atno 8010 bound_to 7997
  140.4102  143.2626  151.9027 H   0  0  0  0  0  0  0  0  0  0  0  0  # atno 10167 bound_to 10162
  156.0533  130.4285  150.1921 H   0  0  0  0  0  0  0  0  0  0  0  0  # atno 10718 bound_to 10713
  154.2601  135.6310  153.5271 H   0  0  0  0  0  0  0  0  0  0  0  0  # atno 10763 bound_to 10752
  152.9897  135.5585  154.5713 H   0  0  0  0  0  0  0  0  0  0  0  0  # atno 10764 bound_to 10752
  154.5260  135.2885  155.1196 H   0  0  0  0  0  0  0  0  0  0  0  0  # atno 10765 bound_to 10752
  139.9568  134.7130  156.0735 H   0  0  0  0  0  0  0  0  0  0  0  0  # atno 11005 bound_to 11000
  146.1906  140.6350  142.9147 LP  0  0  0  0  0  0  0  0  0  0  0  0  # atno 17320 bound_to 7965
  144.7521  140.5218  143.6794 LP  0  0  0  0  0  0  0  0  0  0  0  0  # atno 17321 bound_to 7965
  139.4783  144.5544  151.8336 LP  0  0  0  0  0  0  0  0  0  0  0  0  # atno 17342 bound_to 10162
  140.4645  144.1674  150.5910 LP  0  0  0  0  0  0  0  0  0  0  0  0  # atno 17343 bound_to 10162
  157.0002  130.9920  151.3393 LP  0  0  0  0  0  0  0  0  0  0  0  0  # atno 17370 bound_to 10713
  157.5480  130.8163  149.8110 LP  0  0  0  0  0  0  0  0  0  0  0  0  # atno 17371 bound_to 10713
  141.1240  133.6604  156.3289 LP  0  0  0  0  0  0  0  0  0  0  0  0  # atno 17394 bound_to 11000
  140.5591  134.5952  157.5429 LP  0  0  0  0  0  0  0  0  0  0  0  0  # atno 17395 bound_to 11000

$$$$
