AV-unprocessed.smi:2270|AV-procd|sdf|9156|dock9
  -GOLD-   2272012363D 1   1.00000     0.00000
 Structure written by MMmdl.
 53 54  0  0  0  0  0  0  0  0  2 V2000
  151.8818  145.5295  159.6795 C   0  0  0  0  0  0  0  0  0  0  0  0
  151.7915  144.0758  159.2650 C   0  0  0  0  0  0  0  0  0  0  0  0
  152.6150  143.1004  159.8604 C   0  0  0  0  0  0  0  0  0  0  0  0
  152.4782  141.7673  159.4339 C   0  0  0  0  0  0  0  0  0  0  0  0
  151.5287  141.4661  158.4382 C   0  0  0  0  0  0  0  0  0  0  0  0
  150.7405  142.5046  157.8934 C   0  0  0  0  0  0  0  0  0  0  0  0
  149.8130  142.0976  156.8980 N   0  0  0  0  0  0  0  0  0  0  0  0
  149.2334  140.8938  156.7465 C   0  0  0  0  0  0  0  0  0  0  0  0
  149.4189  139.9144  157.4689 O   0  0  0  0  0  0  0  0  0  0  0  0
  148.3951  140.8870  155.7001 N   0  0  0  0  0  0  0  0  0  0  0  0
  147.6231  139.7297  155.2570 C   0  0  0  0  0  0  0  0  0  0  0  0
  148.1547  139.0603  153.9534 C   0  0  2  0  0  0  0  0  0  0  0  0
  147.0301  138.3502  153.1452 C   0  0  0  0  0  0  0  0  0  0  0  0
  146.8168  138.9987  151.7625 C   0  0  0  0  0  0  0  0  0  0  0  0
  145.6819  138.3186  153.8907 C   0  0  0  0  0  0  0  0  0  0  0  0
  149.2922  138.1123  154.1734 N   0  3  0  0  0  0  0  0  0  0  0  0
  149.0411  136.9800  155.1005 C   0  0  0  0  0  0  0  0  0  0  0  0
  150.1920  135.9566  155.0088 C   0  0  0  0  0  0  0  0  0  0  0  0
  151.4967  136.5656  155.2794 N   0  0  0  0  0  0  0  0  0  0  0  0
  151.6854  136.9208  156.6820 C   0  0  0  0  0  0  0  0  0  0  0  0
  151.7269  137.6875  154.3665 C   0  0  0  0  0  0  0  0  0  0  0  0
  150.6060  138.7441  154.4501 C   0  0  0  0  0  0  0  0  0  0  0  0
  150.8814  143.7876  158.3096 N   0  0  0  0  0  0  0  0  0  0  0  0
  152.7726  145.7132  160.2808 H   0  0  0  0  0  0  0  0  0  0  0  0
  151.0081  145.8076  160.2692 H   0  0  0  0  0  0  0  0  0  0  0  0
  151.9260  146.1770  158.8032 H   0  0  0  0  0  0  0  0  0  0  0  0
  153.3321  143.3636  160.6240 H   0  0  0  0  0  0  0  0  0  0  0  0
  153.0899  140.9877  159.8635 H   0  0  0  0  0  0  0  0  0  0  0  0
  151.4106  140.4465  158.1012 H   0  0  0  0  0  0  0  0  0  0  0  0
  149.5623  142.8069  156.2254 H   0  0  0  0  0  0  0  0  0  0  0  0
  148.3038  141.7330  155.1566 H   0  0  0  0  0  0  0  0  0  0  0  0
  147.5983  139.0068  156.0727 H   0  0  0  0  0  0  0  0  0  0  0  0
  146.5929  140.0603  155.1260 H   0  0  0  0  0  0  0  0  0  0  0  0
  148.5228  139.8591  153.3078 H   0  0  0  0  0  0  0  0  0  0  0  0
  147.3264  137.3144  152.9765 H   0  0  0  0  0  0  0  0  0  0  0  0
  146.5558  140.0535  151.8559 H   0  0  0  0  0  0  0  0  0  0  0  0
  146.0100  138.5065  151.2183 H   0  0  0  0  0  0  0  0  0  0  0  0
  147.7053  138.9289  151.1347 H   0  0  0  0  0  0  0  0  0  0  0  0
  145.3677  139.3202  154.1865 H   0  0  0  0  0  0  0  0  0  0  0  0
  145.7229  137.6989  154.7856 H   0  0  0  0  0  0  0  0  0  0  0  0
  144.8950  137.8996  153.2627 H   0  0  0  0  0  0  0  0  0  0  0  0
  148.9284  137.3319  156.1255 H   0  0  0  0  0  0  0  0  0  0  0  0
  148.1056  136.4885  154.8339 H   0  0  0  0  0  0  0  0  0  0  0  0
  150.0225  135.1301  155.6996 H   0  0  0  0  0  0  0  0  0  0  0  0
  150.2136  135.5227  154.0081 H   0  0  0  0  0  0  0  0  0  0  0  0
  152.6935  137.3050  156.8406 H   0  0  0  0  0  0  0  0  0  0  0  0
  151.5655  136.0399  157.3133 H   0  0  0  0  0  0  0  0  0  0  0  0
  150.9800  137.6777  157.0228 H   0  0  0  0  0  0  0  0  0  0  0  0
  152.6957  138.1417  154.5785 H   0  0  0  0  0  0  0  0  0  0  0  0
  151.7845  137.2988  153.3488 H   0  0  0  0  0  0  0  0  0  0  0  0
  150.8005  139.5238  153.7131 H   0  0  0  0  0  0  0  0  0  0  0  0
  150.6131  139.2273  155.4250 H   0  0  0  0  0  0  0  0  0  0  0  0
  149.4216  137.6824  153.2687 H   0  0  0  0  0  0  0  0  0  0  0  0
  1  2  1  0  0  0  0
  1 24  1  0  0  0  0
  1 25  1  0  0  0  0
  1 26  1  0  0  0  0
  2 23  1  0  0  0  0
  2  3  2  0  0  0  0
  3  4  1  0  0  0  0
  3 27  1  0  0  0  0
  4  5  2  0  0  0  0
  4 28  1  0  0  0  0
  5  6  1  0  0  0  0
  5 29  1  0  0  0  0
  6  7  1  0  0  0  0
  6 23  2  0  0  0  0
  7  8  1  0  0  0  0
  7 30  1  0  0  0  0
  8  9  2  0  0  0  0
  8 10  1  0  0  0  0
 10 11  1  0  0  0  0
 10 31  1  0  0  0  0
 11 12  1  0  0  0  0
 11 32  1  0  0  0  0
 11 33  1  0  0  0  0
 12 13  1  0  0  0  0
 12 16  1  0  0  0  0
 12 34  1  0  0  0  0
 13 14  1  0  0  0  0
 13 15  1  0  0  0  0
 13 35  1  0  0  0  0
 14 36  1  0  0  0  0
 14 37  1  0  0  0  0
 14 38  1  0  0  0  0
 15 39  1  0  0  0  0
 15 40  1  0  0  0  0
 15 41  1  0  0  0  0
 16 22  1  0  0  0  0
 16 17  1  0  0  0  0
 16 53  1  0  0  0  0
 17 18  1  0  0  0  0
 17 42  1  0  0  0  0
 17 43  1  0  0  0  0
 18 19  1  0  0  0  0
 18 44  1  0  0  0  0
 18 45  1  0  0  0  0
 19 20  1  0  0  0  0
 19 21  1  0  0  0  0
 20 46  1  0  0  0  0
 20 47  1  0  0  0  0
 20 48  1  0  0  0  0
 21 22  1  0  0  0  0
 21 49  1  0  0  0  0
 21 50  1  0  0  0  0
 22 51  1  0  0  0  0
 22 52  1  0  0  0  0
M  CHG  1  16   1
M  END
> <s_m_source_file>
AV-unprocessed.smi

> <i_m_source_file_index>
2270

> <i_lp_mmshare_version>
43012

> <i_f3d_flags>
0

> <s_epik_input>
W0NIM11jMVtjSF1bY0hdW2NIXWMobjEpW05IXUMoPU8pW05IXVtDSDJdW0NASF0oW0NIXShbQ0gzXSlbQ0gzXSlOMltDSDJdW0NIMl1OKFtDSDNdKVtDSDJdW0NIMl0y

> <s_epik_cmdline>
J2VwaWtfcHl0aG9uJywgJy1waCcsICc3LjAnLCAnLXRuJywgJzgnLCAnLW1hJywgJzIwMCcsICctbWV0YWxfYmluZGluZycsICctaW1hZScsICc8aW5maWxlLm1hZT4nLCAnLW9tYWUnLCAnPG91dGZpbGUubWFlPic=

> <r_epik_Ionization_Penalty>
0.201855

> <r_epik_Ionization_Penalty_Charging>
0.20006

> <r_epik_Ionization_Penalty_Neutral>
0.00179462

> <r_epik_State_Penalty>
1.43207

> <r_epik_Charging_Adjusted_Penalty>
1.63213

> <i_epik_Tot_Q>
1

> <i_epik_Tot_abs_Q>
1

> <r_epik_Metal_State_Penalty>
1.43208

> <b_epik_Metal_Only>
0

> <s_lp_Force_Field>
OPLS_2005

> <r_lp_Energy>
33.4642

> <b_lp_Chiralities_Consistent>
1

> <s_lp_Variant>
AV-unprocessed.smi:2270-3

> <Gold.Version>
5.8.1

> <Gold.Id.Protein>
6NUR|6NUR_protein|mol2

> <Gold.PLP.Fitness>
47.7309

> <Gold.PLP.PLP>
-39.9174

> <Gold.PLP.part.hbond>
-3.0000

> <Gold.PLP.part.metal>
0.0000

> <Gold.PLP.part.buried>
-2.2321

> <Gold.PLP.part.nonpolar>
-35.7915

> <Gold.PLP.part.repulsive>
0.3515

> <Gold.PLP.ligand.clash>
0.0000

> <Gold.PLP.ligand.torsion>
2.1915

> <Gold.PLP.Chemscore.Hbond>
4.0000

> <Gold.PLP.Chemscore.CHOScore>
0.0000

> <Gold.PLP.Chemscore.Metal>
0.0000

> <Gold.Chemscore.Hbonds>
donor molecule, donor type, donor heavy atom, donor atom, acceptor molecule, acceptor atom, score
      L1  H     7    30       P1  8028  0.81
      L1  H    16    53       P1  7948  1.95
      P1  H 10752 10765       L1    19  0.70

> <Gold.PLP.Chemscore.Internal.Correction>
0.1966

> <Gold.Rescore>
     Score         DG    S(hbond)    S(metal)    S(lipo)     H(rot)  DE(clash)    DE(int)     intcor
     17.94     -21.51       2.04        0.00     113.93       1.61       0.03       3.54       ----

> <Gold.Chemscore.Fitness>
17.9364

> <Gold.Chemscore.DG>
-21.5079

> <Gold.Chemscore.ZeroCoef>
-5.4800

> <Gold.Chemscore.Hbond>
2.0396

> <Gold.Chemscore.Metal>
0.0000

> <Gold.Chemscore.Lipo>
113.9271

> <Gold.Chemscore.Internal_Hbond>
0.0000

> <Gold.Chemscore.DEClash>
0.0302

> <Gold.Chemscore.DEInternal>
3.5413

> <Gold.Chemscore.Rot>
1.6070

> <Gold.Chemscore.Internal.Correction>
   9.000000E+99

> <Gold.Chemscore.Hbonds>
donor molecule, donor type, donor heavy atom, donor atom, acceptor molecule, acceptor atom, score
      L1  H     7    30       P1  8028  0.78
      L1  H    16    53       P1  7948  0.83
      P1  H 10752 10765       L1    19  0.05

> <Gold.Chemscore.Hbond.Weighted>
-6.8123

> <Gold.Chemscore.Metal.Weighted>
-0.0000

> <Gold.Chemscore.Lipo.Weighted>
-13.3295

> <Gold.Chemscore.Internal_Hbond.Weighted>
0.0000

> <Gold.Chemscore.DEClash.Weighted>
0.0302

> <Gold.Chemscore.DEInternal.Weighted>
3.5413

> <Gold.Chemscore.Rot.Weighted>
4.1140

> <Gold.Chemscore.Internal.Correction.Weighted>
   9.000000E+99

> <Gold.Protein.RotatedTorsions>
[ 6907 6896 6895 6894 ] final   31.32 input  -60.11 | X-H torsion
[ 7974 7965 7964 7962 ] final -132.49 input  175.53 | X-H torsion
[ 8008 7997 7996 7995 ] final  -70.74 input   59.86 | X-H torsion
[ 10167 10162 10161 10158 ] final   99.97 input  -65.29 | X-H torsion
[ 10718 10713 10712 10709 ] final  -13.01 input   66.30 | X-H torsion
[ 10763 10752 10751 10750 ] final -177.89 input  -60.55 | X-H torsion
[ 11005 11000 10999 10996 ] final   55.99 input  -57.11 | X-H torsion

> <Gold.Protein.ActiveResidues>
 VAL166  LYS551  ARG553  GLY616  TRP617  ASP618  TYR619  PRO620  LYS621  CYS622 
 ASP623  PHE694  ASN695  SER759  ASP760  ASP761  ALA762  ILE779  LEU786  VAL792 
 PHE793  MET794  SER795  GLU796  ALA797  LYS798  CYS799  TRP800  GLU811  SER814 

> <Gold.Protein.RotatedAtoms>
  152.0586  134.9609  160.0574 H   0  0  0  0  0  0  0  0  0  0  0  0  # atno 6907 bound_to 6896
  152.0981  133.4230  159.4583 H   0  0  0  0  0  0  0  0  0  0  0  0  # atno 6908 bound_to 6896
  150.6838  134.2712  159.4632 H   0  0  0  0  0  0  0  0  0  0  0  0  # atno 6909 bound_to 6896
  144.9280  140.7095  143.4923 H   0  0  0  0  0  0  0  0  0  0  0  0  # atno 7974 bound_to 7965
  154.5035  140.0828  156.7846 H   0  0  0  0  0  0  0  0  0  0  0  0  # atno 8008 bound_to 7997
  155.3949  140.3434  155.4235 H   0  0  0  0  0  0  0  0  0  0  0  0  # atno 8009 bound_to 7997
  156.1486  140.1551  156.8794 H   0  0  0  0  0  0  0  0  0  0  0  0  # atno 8010 bound_to 7997
  139.7569  144.6967  151.0350 H   0  0  0  0  0  0  0  0  0  0  0  0  # atno 10167 bound_to 10162
  156.6364  130.4916  149.6110 H   0  0  0  0  0  0  0  0  0  0  0  0  # atno 10718 bound_to 10713
  154.5545  135.2815  155.0977 H   0  0  0  0  0  0  0  0  0  0  0  0  # atno 10763 bound_to 10752
  154.2410  135.6357  153.5211 H   0  0  0  0  0  0  0  0  0  0  0  0  # atno 10764 bound_to 10752
  153.0012  135.5560  154.6121 H   0  0  0  0  0  0  0  0  0  0  0  0  # atno 10765 bound_to 10752
  140.0563  134.5665  155.9203 H   0  0  0  0  0  0  0  0  0  0  0  0  # atno 11005 bound_to 11000
  145.3187  139.1795  143.4599 LP  0  0  0  0  0  0  0  0  0  0  0  0  # atno 17320 bound_to 7965
  146.3235  140.3202  142.8633 LP  0  0  0  0  0  0  0  0  0  0  0  0  # atno 17321 bound_to 7965
  140.7803  143.4743  151.0104 LP  0  0  0  0  0  0  0  0  0  0  0  0  # atno 17342 bound_to 10162
  139.8430  143.7539  152.3180 LP  0  0  0  0  0  0  0  0  0  0  0  0  # atno 17343 bound_to 10162
  156.2193  130.6727  151.1352 LP  0  0  0  0  0  0  0  0  0  0  0  0  # atno 17370 bound_to 10713
  157.7184  131.0696  150.6235 LP  0  0  0  0  0  0  0  0  0  0  0  0  # atno 17371 bound_to 10713
  141.1953  133.6587  156.5639 LP  0  0  0  0  0  0  0  0  0  0  0  0  # atno 17394 bound_to 11000
  140.3838  134.7500  157.4678 LP  0  0  0  0  0  0  0  0  0  0  0  0  # atno 17395 bound_to 11000

$$$$
