AV-unprocessed.smi:42|AV-procd|sdf|389|dock4
  -GOLD-   2262016243D 1   1.00000     0.00000
 Structure written by MMmdl.
 27 28  0  0  0  0  0  0  0  0  2 V2000
  152.5247  143.0100  161.9376 C   0  0  0  0  0  0  0  0  0  0  0  0
  152.6119  142.0732  160.7282 C   0  0  0  0  0  0  0  0  0  0  0  0
  151.8563  142.5890  159.5496 C   0  0  0  0  0  0  0  0  0  0  0  0
  151.2237  143.7595  159.4418 N   0  0  0  0  0  0  0  0  0  0  0  0
  150.7295  143.8016  158.1583 N   0  0  0  0  0  0  0  0  0  0  0  0
  151.1319  142.6679  157.5731 C   0  0  0  0  0  0  0  0  0  0  0  0
  150.8304  142.1814  156.1882 C   0  0  1  0  0  0  0  0  0  0  0  0
  151.1951  140.7169  155.9214 C   0  0  0  0  0  0  0  0  0  0  0  0
  150.0220  140.1588  155.0984 C   0  0  2  0  0  0  0  0  0  0  0  0
  150.4444  139.7346  153.8190 O   0  0  0  0  0  0  0  0  0  0  0  0
  149.0059  141.3071  154.9865 C   0  0  0  0  0  0  0  0  0  0  0  0
  149.3680  142.2620  156.0443 N   0  3  0  0  0  0  0  0  0  0  0  0
  151.8376  141.8582  158.4046 O   0  0  0  0  0  0  0  0  0  0  0  0
  151.2951  142.8341  155.4476 H   0  0  0  0  0  0  0  0  0  0  0  0
  149.5750  139.3122  155.6215 H   0  0  0  0  0  0  0  0  0  0  0  0
  153.0859  142.6081  162.7813 H   0  0  0  0  0  0  0  0  0  0  0  0
  151.4909  143.1432  162.2578 H   0  0  0  0  0  0  0  0  0  0  0  0
  152.9334  143.9935  161.7040 H   0  0  0  0  0  0  0  0  0  0  0  0
  153.6542  141.9307  160.4414 H   0  0  0  0  0  0  0  0  0  0  0  0
  152.2223  141.0892  160.9913 H   0  0  0  0  0  0  0  0  0  0  0  0
  152.1648  140.6228  155.4306 H   0  0  0  0  0  0  0  0  0  0  0  0
  151.2549  140.1641  156.8604 H   0  0  0  0  0  0  0  0  0  0  0  0
  149.7821  139.9703  153.1865 H   0  0  0  0  0  0  0  0  0  0  0  0
  149.1012  141.8197  154.0276 H   0  0  0  0  0  0  0  0  0  0  0  0
  147.9739  140.9697  155.0849 H   0  0  0  0  0  0  0  0  0  0  0  0
  148.9501  141.9559  156.9118 H   0  0  0  0  0  0  0  0  0  0  0  0
  149.0631  143.2003  155.8284 H   0  0  0  0  0  0  0  0  0  0  0  0
  1  2  1  0  0  0  0
  1 16  1  0  0  0  0
  1 17  1  0  0  0  0
  1 18  1  0  0  0  0
  2  3  1  0  0  0  0
  2 19  1  0  0  0  0
  2 20  1  0  0  0  0
  3 13  1  0  0  0  0
  3  4  2  0  0  0  0
  4  5  1  0  0  0  0
  5  6  2  0  0  0  0
  6  7  1  0  0  0  0
  6 13  1  0  0  0  0
  7 14  1  0  0  0  0
  7 12  1  0  0  0  0
  7  8  1  0  0  0  0
  8  9  1  0  0  0  0
  8 21  1  0  0  0  0
  8 22  1  0  0  0  0
  9 15  1  0  0  0  0
  9 10  1  0  0  0  0
  9 11  1  0  0  0  0
 10 23  1  0  0  0  0
 11 12  1  0  0  0  0
 11 24  1  0  0  0  0
 11 25  1  0  0  0  0
 12 26  1  0  0  0  0
 12 27  1  0  0  0  0
M  CHG  1  12   1
M  END
> <s_m_source_file>
AV-unprocessed.smi

> <i_m_source_file_index>
42

> <i_lp_mmshare_version>
43012

> <i_f3d_flags>
0

> <s_epik_input>
W0NIM11bQ0gyXWMxbm5jKG8xKVtDQEhdMltDSDJdW0NAQEhdKFtPSF0pW0NIMl1bTkhdMg==

> <s_epik_cmdline>
J2VwaWtfcHl0aG9uJywgJy1waCcsICc3LjAnLCAnLXRuJywgJzgnLCAnLW1hJywgJzIwMCcsICctbWV0YWxfYmluZGluZycsICctaW1hZScsICc8aW5maWxlLm1hZT4nLCAnLW9tYWUnLCAnPG91dGZpbGUubWFlPic=

> <r_lp_tautomer_probability>
1

> <r_epik_Ionization_Penalty>
0.00247063

> <r_epik_Ionization_Penalty_Charging>
0.0024706

> <r_epik_Ionization_Penalty_Neutral>
3.27814e-08

> <r_epik_State_Penalty>
0.00171198

> <r_epik_Charging_Adjusted_Penalty>
0.00418258

> <i_epik_Tot_Q>
1

> <i_epik_Tot_abs_Q>
1

> <r_epik_Metal_State_Penalty>
-0

> <b_epik_Metal_Only>
0

> <s_lp_Force_Field>
OPLS_2005

> <r_lp_Energy>
19.5467

> <b_lp_Chiralities_Consistent>
1

> <s_lp_Variant>
AV-unprocessed.smi:42-3

> <Gold.Version>
5.8.1

> <Gold.Id.Protein>
6NUR|6NUR_protein|mol2

> <Gold.PLP.Fitness>
38.8608

> <Gold.PLP.PLP>
-27.9921

> <Gold.PLP.part.hbond>
-3.0000

> <Gold.PLP.part.metal>
0.0000

> <Gold.PLP.part.buried>
-2.2209

> <Gold.PLP.part.nonpolar>
-21.7692

> <Gold.PLP.part.repulsive>
0.3221

> <Gold.PLP.ligand.clash>
0.0000

> <Gold.PLP.ligand.torsion>
0.1555

> <Gold.PLP.Chemscore.Hbond>
3.7137

> <Gold.PLP.Chemscore.CHOScore>
0.0000

> <Gold.PLP.Chemscore.Metal>
0.0000

> <Gold.Chemscore.Hbonds>
donor molecule, donor type, donor heavy atom, donor atom, acceptor molecule, acceptor atom, score
      L1  H    10    23       P1  7957  0.73
      L1  H    12    27       P1  8028  2.00
      P1  H  7989  7998       L1    10  1.00

> <Gold.PLP.Chemscore.Internal.Correction>
0.0385

> <Gold.Rescore>
     Score         DG    S(hbond)    S(metal)    S(lipo)     H(rot)  DE(clash)    DE(int)     intcor
     12.33     -12.94       1.83        0.00      52.01       1.86       0.57       0.04       ----

> <Gold.Chemscore.Fitness>
12.3290

> <Gold.Chemscore.DG>
-12.9408

> <Gold.Chemscore.ZeroCoef>
-5.4800

> <Gold.Chemscore.Hbond>
1.8349

> <Gold.Chemscore.Metal>
0.0000

> <Gold.Chemscore.Lipo>
52.0119

> <Gold.Chemscore.Internal_Hbond>
0.0000

> <Gold.Chemscore.DEClash>
0.5719

> <Gold.Chemscore.DEInternal>
0.0399

> <Gold.Chemscore.Rot>
1.8567

> <Gold.Chemscore.Internal.Correction>
   9.000000E+99

> <Gold.Chemscore.Hbonds>
donor molecule, donor type, donor heavy atom, donor atom, acceptor molecule, acceptor atom, score
      L1  H    10    23       P1  7957  0.68
      L1  H    12    27       P1  8028  0.93
      P1  H  7989  7998       L1    10  0.08

> <Gold.Chemscore.Hbond.Weighted>
-6.1284

> <Gold.Chemscore.Metal.Weighted>
-0.0000

> <Gold.Chemscore.Lipo.Weighted>
-6.0854

> <Gold.Chemscore.Internal_Hbond.Weighted>
0.0000

> <Gold.Chemscore.DEClash.Weighted>
0.5719

> <Gold.Chemscore.DEInternal.Weighted>
0.0399

> <Gold.Chemscore.Rot.Weighted>
4.7531

> <Gold.Chemscore.Internal.Correction.Weighted>
   9.000000E+99

> <Gold.Protein.RotatedTorsions>
[ 6907 6896 6895 6894 ] final  120.91 input  -60.11 | X-H torsion
[ 7974 7965 7964 7962 ] final -113.88 input  175.53 | X-H torsion
[ 8008 7997 7996 7995 ] final   38.45 input   59.86 | X-H torsion
[ 10167 10162 10161 10158 ] final -173.29 input  -65.29 | X-H torsion
[ 10718 10713 10712 10709 ] final   99.96 input   66.30 | X-H torsion
[ 10763 10752 10751 10750 ] final -173.01 input  -60.55 | X-H torsion
[ 11005 11000 10999 10996 ] final  171.89 input  -57.11 | X-H torsion

> <Gold.Protein.ActiveResidues>
 VAL166  LYS551  ARG553  GLY616  TRP617  ASP618  TYR619  PRO620  LYS621  CYS622 
 ASP623  PHE694  ASN695  SER759  ASP760  ASP761  ALA762  ILE779  LEU786  VAL792 
 PHE793  MET794  SER795  GLU796  ALA797  LYS798  CYS799  TRP800  GLU811  SER814 

> <Gold.Protein.RotatedAtoms>
  152.4362  133.7365  159.6616 H   0  0  0  0  0  0  0  0  0  0  0  0  # atno 6907 bound_to 6896
  150.8246  133.8182  159.3130 H   0  0  0  0  0  0  0  0  0  0  0  0  # atno 6908 bound_to 6896
  151.5854  135.1058  160.0078 H   0  0  0  0  0  0  0  0  0  0  0  0  # atno 6909 bound_to 6896
  145.1267  140.8701  143.3782 H   0  0  0  0  0  0  0  0  0  0  0  0  # atno 7974 bound_to 7965
  155.2204  140.3330  155.4316 H   0  0  0  0  0  0  0  0  0  0  0  0  # atno 8008 bound_to 7997
  156.2335  140.1861  156.7227 H   0  0  0  0  0  0  0  0  0  0  0  0  # atno 8009 bound_to 7997
  154.6019  140.0622  156.9365 H   0  0  0  0  0  0  0  0  0  0  0  0  # atno 8010 bound_to 7997
  139.5697  144.1672  152.1365 H   0  0  0  0  0  0  0  0  0  0  0  0  # atno 10167 bound_to 10162
  157.6865  131.0684  150.5027 H   0  0  0  0  0  0  0  0  0  0  0  0  # atno 10718 bound_to 10713
  154.6127  135.2866  155.0414 H   0  0  0  0  0  0  0  0  0  0  0  0  # atno 10763 bound_to 10752
  154.1638  135.6484  153.4996 H   0  0  0  0  0  0  0  0  0  0  0  0  # atno 10764 bound_to 10752
  153.0202  135.5384  154.6887 H   0  0  0  0  0  0  0  0  0  0  0  0  # atno 10765 bound_to 10752
  140.3238  134.7415  157.4084 H   0  0  0  0  0  0  0  0  0  0  0  0  # atno 11005 bound_to 11000
  145.0680  139.3053  143.5846 LP  0  0  0  0  0  0  0  0  0  0  0  0  # atno 17320 bound_to 7965
  146.3517  140.0145  142.8664 LP  0  0  0  0  0  0  0  0  0  0  0  0  # atno 17321 bound_to 7965
  140.1202  144.5380  150.6868 LP  0  0  0  0  0  0  0  0  0  0  0  0  # atno 17342 bound_to 10162
  140.6981  143.2417  151.4943 LP  0  0  0  0  0  0  0  0  0  0  0  0  # atno 17343 bound_to 10162
  156.5348  130.4193  149.6183 LP  0  0  0  0  0  0  0  0  0  0  0  0  # atno 17370 bound_to 10713
  156.3037  130.7191  151.2068 LP  0  0  0  0  0  0  0  0  0  0  0  0  # atno 17371 bound_to 10713
  140.0919  134.5590  155.8436 LP  0  0  0  0  0  0  0  0  0  0  0  0  # atno 17394 bound_to 11000
  141.2080  133.6669  156.6343 LP  0  0  0  0  0  0  0  0  0  0  0  0  # atno 17395 bound_to 11000

$$$$
