AV-unprocessed.smi:3056|AV-procd|sdf|11649|dock1
  -GOLD-   2272017 43D 1   1.00000     0.00000
 Structure written by MMmdl.
 48 49  0  0  0  0  0  0  0  0  2 V2000
  143.5550  132.5748  148.2777 C   0  0  0  0  0  0  0  0  0  0  0  0
  144.1418  132.6080  149.6596 C   0  0  0  0  0  0  0  0  0  0  0  0
  143.4485  132.6174  150.9029 C   0  0  0  0  0  0  0  0  0  0  0  0
  144.2630  132.6472  151.9445 N   0  0  0  0  0  0  0  0  0  0  0  0
  145.5031  132.6575  151.4071 N   0  0  0  0  0  0  0  0  0  0  0  0
  146.6756  132.6841  152.2723 C   0  0  2  0  0  0  0  0  0  0  0  0
  146.7697  131.3627  153.0589 C   0  0  0  0  0  0  0  0  0  0  0  0
  146.6984  133.9485  153.1761 C   0  0  2  0  0  0  0  0  0  0  0  0
  145.9594  135.1409  152.5406 C   0  0  0  0  0  0  0  0  0  0  0  0
  148.0904  134.3602  153.4793 N   0  3  0  0  0  0  0  0  0  0  0  0
  148.3068  134.9452  154.8238 C   0  0  0  0  0  0  0  0  0  0  0  0
  149.7740  135.3179  155.0997 C   0  0  0  0  0  0  0  0  0  0  0  0
  150.6213  134.4235  155.1098 O   0  0  0  0  0  0  0  0  0  0  0  0
  150.0908  136.6142  155.3317 N   0  0  0  0  0  0  0  0  0  0  0  0
  151.4392  137.1510  155.5408 C   0  0  0  0  0  0  0  0  0  0  0  0
  151.7611  138.1161  154.3862 C   0  0  0  0  0  0  0  0  0  0  0  0
  150.7769  139.1457  154.3318 O   0  0  0  0  0  0  0  0  0  0  0  0
  149.4511  138.6526  154.1476 C   0  0  2  0  0  0  0  0  0  0  0  0
  148.4983  139.8508  154.0780 C   0  0  0  0  0  0  0  0  0  0  0  0
  149.1037  137.6978  155.3073 C   0  0  0  0  0  0  0  0  0  0  0  0
  145.4569  132.6319  150.0286 C   0  0  0  0  0  0  0  0  0  0  0  0
  142.5286  132.9421  148.2655 H   0  0  0  0  0  0  0  0  0  0  0  0
  143.5394  131.5628  147.8731 H   0  0  0  0  0  0  0  0  0  0  0  0
  144.1242  133.1915  147.5817 H   0  0  0  0  0  0  0  0  0  0  0  0
  142.3828  132.6030  151.0782 H   0  0  0  0  0  0  0  0  0  0  0  0
  147.5449  132.7311  151.6142 H   0  0  0  0  0  0  0  0  0  0  0  0
  147.7180  131.2769  153.5887 H   0  0  0  0  0  0  0  0  0  0  0  0
  146.7010  130.5051  152.3887 H   0  0  0  0  0  0  0  0  0  0  0  0
  145.9668  131.2741  153.7918 H   0  0  0  0  0  0  0  0  0  0  0  0
  146.1848  133.7217  154.1120 H   0  0  0  0  0  0  0  0  0  0  0  0
  144.8999  134.9309  152.3936 H   0  0  0  0  0  0  0  0  0  0  0  0
  146.3854  135.4001  151.5707 H   0  0  0  0  0  0  0  0  0  0  0  0
  146.0216  136.0247  153.1758 H   0  0  0  0  0  0  0  0  0  0  0  0
  148.6839  133.5502  153.3746 H   0  0  0  0  0  0  0  0  0  0  0  0
  147.6634  135.8157  154.9516 H   0  0  0  0  0  0  0  0  0  0  0  0
  148.0018  134.2021  155.5612 H   0  0  0  0  0  0  0  0  0  0  0  0
  151.4693  137.6836  156.4926 H   0  0  0  0  0  0  0  0  0  0  0  0
  152.2160  136.3909  155.5992 H   0  0  0  0  0  0  0  0  0  0  0  0
  152.7398  138.5717  154.5369 H   0  0  0  0  0  0  0  0  0  0  0  0
  151.7986  137.5846  153.4340 H   0  0  0  0  0  0  0  0  0  0  0  0
  149.4025  138.1127  153.2002 H   0  0  0  0  0  0  0  0  0  0  0  0
  147.4690  139.5257  153.9256 H   0  0  0  0  0  0  0  0  0  0  0  0
  148.7631  140.5117  153.2523 H   0  0  0  0  0  0  0  0  0  0  0  0
  148.5319  140.4362  154.9972 H   0  0  0  0  0  0  0  0  0  0  0  0
  148.0807  137.3362  155.1941 H   0  0  0  0  0  0  0  0  0  0  0  0
  149.1304  138.2298  156.2596 H   0  0  0  0  0  0  0  0  0  0  0  0
  146.3548  132.6337  149.4282 H   0  0  0  0  0  0  0  0  0  0  0  0
  148.3728  135.0535  152.8007 H   0  0  0  0  0  0  0  0  0  0  0  0
  1  2  1  0  0  0  0
  1 22  1  0  0  0  0
  1 23  1  0  0  0  0
  1 24  1  0  0  0  0
  2 21  2  0  0  0  0
  2  3  1  0  0  0  0
  3  4  2  0  0  0  0
  3 25  1  0  0  0  0
  4  5  1  0  0  0  0
  5  6  1  0  0  0  0
  5 21  1  0  0  0  0
  6  7  1  0  0  0  0
  6  8  1  0  0  0  0
  6 26  1  0  0  0  0
  7 27  1  0  0  0  0
  7 28  1  0  0  0  0
  7 29  1  0  0  0  0
  8  9  1  0  0  0  0
  8 10  1  0  0  0  0
  8 30  1  0  0  0  0
  9 31  1  0  0  0  0
  9 32  1  0  0  0  0
  9 33  1  0  0  0  0
 10 11  1  0  0  0  0
 10 34  1  0  0  0  0
 10 48  1  0  0  0  0
 11 12  1  0  0  0  0
 11 35  1  0  0  0  0
 11 36  1  0  0  0  0
 12 13  2  0  0  0  0
 12 14  1  0  0  0  0
 14 20  1  0  0  0  0
 14 15  1  0  0  0  0
 15 16  1  0  0  0  0
 15 37  1  0  0  0  0
 15 38  1  0  0  0  0
 16 17  1  0  0  0  0
 16 39  1  0  0  0  0
 16 40  1  0  0  0  0
 17 18  1  0  0  0  0
 18 19  1  0  0  0  0
 18 20  1  0  0  0  0
 18 41  1  0  0  0  0
 19 42  1  0  0  0  0
 19 43  1  0  0  0  0
 19 44  1  0  0  0  0
 20 45  1  0  0  0  0
 20 46  1  0  0  0  0
 21 47  1  0  0  0  0
M  CHG  1  10   1
M  END
> <s_m_source_file>
AV-unprocessed.smi

> <i_m_source_file_index>
3056

> <i_lp_mmshare_version>
43012

> <i_f3d_flags>
0

> <s_epik_input>
W0NIM11jMVtjSF1ubihbY0hdMSlbQ0BIXShbQ0gzXSlbQ0BIXShbQ0gzXSlbTkhdW0NIMl1DKD1PKU4yW0NIMl1bQ0gyXU9bQ0BASF0oW0NIM10pW0NIMl0y

> <s_epik_cmdline>
J2VwaWtfcHl0aG9uJywgJy1waCcsICc3LjAnLCAnLXRuJywgJzgnLCAnLW1hJywgJzIwMCcsICctbWV0YWxfYmluZGluZycsICctaW1hZScsICc8aW5maWxlLm1hZT4nLCAnLW9tYWUnLCAnPG91dGZpbGUubWFlPic=

> <r_lp_tautomer_probability>
1

> <r_epik_Ionization_Penalty>
0.233715

> <r_epik_Ionization_Penalty_Charging>
0.233698

> <r_epik_Ionization_Penalty_Neutral>
1.68157e-05

> <r_epik_State_Penalty>
0.225221

> <r_epik_Charging_Adjusted_Penalty>
0.458919

> <i_epik_Tot_Q>
1

> <i_epik_Tot_abs_Q>
1

> <r_epik_Metal_State_Penalty>
0.225535

> <b_epik_Metal_Only>
0

> <s_lp_Force_Field>
OPLS_2005

> <r_lp_Energy>
28.5623

> <b_lp_Chiralities_Consistent>
1

> <s_lp_Variant>
AV-unprocessed.smi:3056-5

> <Gold.Version>
5.8.1

> <Gold.Id.Protein>
6NUR|6NUR_protein|mol2

> <Gold.PLP.Fitness>
44.8573

> <Gold.PLP.PLP>
-35.9444

> <Gold.PLP.part.hbond>
-1.9537

> <Gold.PLP.part.metal>
0.0000

> <Gold.PLP.part.buried>
-1.1142

> <Gold.PLP.part.nonpolar>
-32.0274

> <Gold.PLP.part.repulsive>
0.4152

> <Gold.PLP.ligand.clash>
0.0000

> <Gold.PLP.ligand.torsion>
1.1825

> <Gold.PLP.Chemscore.Hbond>
2.9425

> <Gold.PLP.Chemscore.CHOScore>
0.7674

> <Gold.PLP.Chemscore.Metal>
0.0000

> <Gold.Chemscore.Hbonds>
donor molecule, donor type, donor heavy atom, donor atom, acceptor molecule, acceptor atom, score
      L1  H    10    48       P1  7948  2.00
      P1  H  7989  7998       L1    17  0.84
      L1  C     3    25       P1 10186  0.34

> <Gold.PLP.Chemscore.Internal.Correction>
0.1482

> <Gold.Rescore>
     Score         DG    S(hbond)    S(metal)    S(lipo)     H(rot)  DE(clash)    DE(int)     intcor
     16.23     -17.97       1.64        0.00      97.83       1.74       0.65       1.09       ----

> <Gold.Chemscore.Fitness>
16.2269

> <Gold.Chemscore.DG>
-17.9659

> <Gold.Chemscore.ZeroCoef>
-5.4800

> <Gold.Chemscore.Hbond>
1.6414

> <Gold.Chemscore.Metal>
0.0000

> <Gold.Chemscore.Lipo>
97.8296

> <Gold.Chemscore.Internal_Hbond>
0.0000

> <Gold.Chemscore.DEClash>
0.6509

> <Gold.Chemscore.DEInternal>
1.0881

> <Gold.Chemscore.Rot>
1.7354

> <Gold.Chemscore.Internal.Correction>
   9.000000E+99

> <Gold.Chemscore.Hbonds>
donor molecule, donor type, donor heavy atom, donor atom, acceptor molecule, acceptor atom, score
      L1  H    10    48       P1  7948  0.72
      P1  H  7989  7998       L1    17  0.59

> <Gold.Chemscore.Hbond.Weighted>
-5.4824

> <Gold.Chemscore.Metal.Weighted>
-0.0000

> <Gold.Chemscore.Lipo.Weighted>
-11.4461

> <Gold.Chemscore.Internal_Hbond.Weighted>
0.0000

> <Gold.Chemscore.DEClash.Weighted>
0.6509

> <Gold.Chemscore.DEInternal.Weighted>
1.0881

> <Gold.Chemscore.Rot.Weighted>
4.4426

> <Gold.Chemscore.Internal.Correction.Weighted>
   9.000000E+99

> <Gold.Protein.RotatedTorsions>
[ 6907 6896 6895 6894 ] final   53.33 input  -60.11 | X-H torsion
[ 7974 7965 7964 7962 ] final  100.96 input  175.53 | X-H torsion
[ 8008 7997 7996 7995 ] final  -62.82 input   59.86 | X-H torsion
[ 10167 10162 10161 10158 ] final -173.35 input  -65.29 | X-H torsion
[ 10718 10713 10712 10709 ] final -178.95 input   66.30 | X-H torsion
[ 10763 10752 10751 10750 ] final   25.40 input  -60.55 | X-H torsion
[ 11005 11000 10999 10996 ] final  -79.37 input  -57.11 | X-H torsion

> <Gold.Protein.ActiveResidues>
 VAL166  LYS551  ARG553  GLY616  TRP617  ASP618  TYR619  PRO620  LYS621  CYS622 
 ASP623  PHE694  ASN695  SER759  ASP760  ASP761  ALA762  ILE779  LEU786  VAL792 
 PHE793  MET794  SER795  GLU796  ALA797  LYS798  CYS799  TRP800  GLU811  SER814 

> <Gold.Protein.RotatedAtoms>
  152.3326  134.7240  160.0285 H   0  0  0  0  0  0  0  0  0  0  0  0  # atno 6907 bound_to 6896
  151.7651  133.3331  159.3437 H   0  0  0  0  0  0  0  0  0  0  0  0  # atno 6908 bound_to 6896
  150.7432  134.6002  159.6077 H   0  0  0  0  0  0  0  0  0  0  0  0  # atno 6909 bound_to 6896
  145.3787  139.2384  143.3415 H   0  0  0  0  0  0  0  0  0  0  0  0  # atno 7974 bound_to 7965
  154.4520  140.0988  156.6647 H   0  0  0  0  0  0  0  0  0  0  0  0  # atno 8008 bound_to 7997
  155.5254  140.3480  155.4397 H   0  0  0  0  0  0  0  0  0  0  0  0  # atno 8009 bound_to 7997
  156.0701  140.1347  156.9827 H   0  0  0  0  0  0  0  0  0  0  0  0  # atno 8010 bound_to 7997
  139.5693  144.1679  152.1360 H   0  0  0  0  0  0  0  0  0  0  0  0  # atno 10167 bound_to 10162
  156.8518  130.9722  151.3091 H   0  0  0  0  0  0  0  0  0  0  0  0  # atno 10718 bound_to 10713
  153.0695  135.6584  154.0279 H   0  0  0  0  0  0  0  0  0  0  0  0  # atno 10763 bound_to 10752
  153.9928  135.2944  155.3411 H   0  0  0  0  0  0  0  0  0  0  0  0  # atno 10764 bound_to 10752
  154.7064  135.5223  153.8672 H   0  0  0  0  0  0  0  0  0  0  0  0  # atno 10765 bound_to 10752
  141.1667  133.7103  156.8112 H   0  0  0  0  0  0  0  0  0  0  0  0  # atno 11005 bound_to 11000
  146.2852  140.4450  142.8760 LP  0  0  0  0  0  0  0  0  0  0  0  0  # atno 17320 bound_to 7965
  144.8524  140.7020  143.6160 LP  0  0  0  0  0  0  0  0  0  0  0  0  # atno 17321 bound_to 7965
  140.1208  144.5374  150.6864 LP  0  0  0  0  0  0  0  0  0  0  0  0  # atno 17342 bound_to 10162
  140.6978  143.2415  151.4952 LP  0  0  0  0  0  0  0  0  0  0  0  0  # atno 17343 bound_to 10162
  157.6299  130.8721  149.9255 LP  0  0  0  0  0  0  0  0  0  0  0  0  # atno 17370 bound_to 10713
  156.0824  130.3671  150.0554 LP  0  0  0  0  0  0  0  0  0  0  0  0  # atno 17371 bound_to 10713
  140.2186  134.8774  157.3352 LP  0  0  0  0  0  0  0  0  0  0  0  0  # atno 17394 bound_to 11000
  140.2012  134.4253  155.7662 LP  0  0  0  0  0  0  0  0  0  0  0  0  # atno 17395 bound_to 11000

$$$$
