AV-unprocessed.smi:103|AV-procd|sdf|989|dock5
  -GOLD-   2262017563D 1   1.00000     0.00000
 Structure written by MMmdl.
 53 55  0  0  0  0  0  0  0  0  1 V2000
  151.5301  132.7141  156.1796 C   0  0  0  0  0  0  0  0  0  0  0  0
  150.1676  133.3404  156.4438 C   0  0  0  0  0  0  0  0  0  0  0  0
  149.4171  133.6583  155.5210 O   0  0  0  0  0  0  0  0  0  0  0  0
  149.9179  133.4893  157.7576 O   0  0  0  0  0  0  0  0  0  0  0  0
  148.6713  134.0095  158.1975 C   0  0  0  0  0  0  0  0  0  0  0  0
  148.3240  135.3147  157.4475 C   0  0  2  0  0  0  0  0  0  0  0  0
  149.4729  136.1497  157.3702 O   0  0  0  0  0  0  0  0  0  0  0  0
  149.5938  136.8803  158.5502 C   0  0  1  0  0  0  0  0  0  0  0  0
  150.1335  138.2330  158.2115 N   0  0  0  0  0  0  0  0  0  0  0  0
  151.4330  138.7000  158.2347 C   0  0  0  0  0  0  0  0  0  0  0  0
  152.8874  137.7829  158.7330 S   0  0  0  0  0  0  0  0  0  0  0  0
  153.0522  136.5549  157.3735 C   0  0  0  0  0  0  0  0  0  0  0  0
  154.0234  138.7161  158.6902 O   0  0  0  0  0  0  0  0  0  0  0  0
  152.5465  137.0778  159.9787 O   0  0  0  0  0  0  0  0  0  0  0  0
  151.6101  139.9549  157.9205 N   0  0  0  0  0  0  0  0  0  0  0  0
  150.3290  140.3838  157.6034 C   0  0  0  0  0  0  0  0  0  0  0  0
  149.7826  141.6164  157.1654 C   0  0  0  0  0  0  0  0  0  0  0  0
  150.5249  142.7130  156.9595 N   0  0  0  0  0  0  0  0  0  0  0  0
  148.4496  141.6904  156.9428 N   0  0  0  0  0  0  0  0  0  0  0  0
  147.6880  140.6094  157.1401 C   0  0  0  0  0  0  0  0  0  0  0  0
  148.0549  139.3921  157.5498 N   0  0  0  0  0  0  0  0  0  0  0  0
  149.3999  139.3177  157.7732 C   0  0  0  0  0  0  0  0  0  0  0  0
  148.1999  136.9809  159.1868 C   0  0  2  0  0  0  0  0  0  0  0  0
  148.2384  136.3509  160.4638 O   0  0  0  0  0  0  0  0  0  0  0  0
  147.2323  136.5177  161.3391 C   0  0  0  0  0  0  0  0  0  0  0  0
  147.3731  135.6168  162.5582 C   0  0  0  0  0  0  0  0  0  0  0  0
  146.2833  137.2920  161.2174 O   0  0  0  0  0  0  0  0  0  0  0  0
  147.3311  136.2221  158.1852 C   0  0  2  0  0  0  0  0  0  0  0  0
  146.2459  135.5350  158.8005 O   0  0  0  0  0  0  0  0  0  0  0  0
  145.4392  134.7475  158.0700 C   0  0  0  0  0  0  0  0  0  0  0  0
  144.4389  133.9873  158.9302 C   0  0  0  0  0  0  0  0  0  0  0  0
  145.4680  134.6158  156.8466 O   0  0  0  0  0  0  0  0  0  0  0  0
  152.3210  133.3435  156.5873 H   0  0  0  0  0  0  0  0  0  0  0  0
  151.6976  132.5990  155.1086 H   0  0  0  0  0  0  0  0  0  0  0  0
  151.5926  131.7311  156.6467 H   0  0  0  0  0  0  0  0  0  0  0  0
  147.9195  133.2533  157.9723 H   0  0  0  0  0  0  0  0  0  0  0  0
  148.6521  134.1440  159.2797 H   0  0  0  0  0  0  0  0  0  0  0  0
  147.9579  135.0791  156.4477 H   0  0  0  0  0  0  0  0  0  0  0  0
  150.3258  136.4149  159.2052 H   0  0  0  0  0  0  0  0  0  0  0  0
  153.9023  135.9042  157.5754 H   0  0  0  0  0  0  0  0  0  0  0  0
  153.2093  137.0705  156.4278 H   0  0  0  0  0  0  0  0  0  0  0  0
  152.1435  135.9564  157.3130 H   0  0  0  0  0  0  0  0  0  0  0  0
  151.5218  142.6818  157.1177 H   0  0  0  0  0  0  0  0  0  0  0  0
  150.0881  143.5657  156.6406 H   0  0  0  0  0  0  0  0  0  0  0  0
  146.6338  140.7381  156.9432 H   0  0  0  0  0  0  0  0  0  0  0  0
  147.8969  138.0267  159.2602 H   0  0  0  0  0  0  0  0  0  0  0  0
  148.2880  135.8559  163.1006 H   0  0  0  0  0  0  0  0  0  0  0  0
  147.4129  134.5711  162.2530 H   0  0  0  0  0  0  0  0  0  0  0  0
  146.5268  135.7484  163.2327 H   0  0  0  0  0  0  0  0  0  0  0  0
  146.9434  136.9537  157.4752 H   0  0  0  0  0  0  0  0  0  0  0  0
  143.8449  134.6824  159.5236 H   0  0  0  0  0  0  0  0  0  0  0  0
  144.9600  133.3101  159.6073 H   0  0  0  0  0  0  0  0  0  0  0  0
  143.7639  133.4013  158.3060 H   0  0  0  0  0  0  0  0  0  0  0  0
  1  2  1  0  0  0  0
  1 33  1  0  0  0  0
  1 34  1  0  0  0  0
  1 35  1  0  0  0  0
  2  3  2  0  0  0  0
  2  4  1  0  0  0  0
  4  5  1  0  0  0  0
  5  6  1  0  0  0  0
  5 36  1  0  0  0  0
  5 37  1  0  0  0  0
  6 28  1  0  0  0  0
  6  7  1  0  0  0  0
  6 38  1  0  0  0  0
  7  8  1  0  0  0  0
  8  9  1  0  0  0  0
  8 23  1  0  0  0  0
  8 39  1  0  0  0  0
  9 22  1  0  0  0  0
  9 10  1  0  0  0  0
 10 11  1  0  0  0  0
 10 15  2  0  0  0  0
 11 12  1  0  0  0  0
 11 13  2  0  0  0  0
 11 14  2  0  0  0  0
 12 40  1  0  0  0  0
 12 41  1  0  0  0  0
 12 42  1  0  0  0  0
 15 16  1  0  0  0  0
 16 22  2  0  0  0  0
 16 17  1  0  0  0  0
 17 18  1  0  0  0  0
 17 19  2  0  0  0  0
 18 43  1  0  0  0  0
 18 44  1  0  0  0  0
 19 20  1  0  0  0  0
 20 21  2  0  0  0  0
 20 45  1  0  0  0  0
 21 22  1  0  0  0  0
 23 24  1  0  0  0  0
 23 28  1  0  0  0  0
 23 46  1  0  0  0  0
 24 25  1  0  0  0  0
 25 26  1  0  0  0  0
 25 27  2  0  0  0  0
 26 47  1  0  0  0  0
 26 48  1  0  0  0  0
 26 49  1  0  0  0  0
 28 29  1  0  0  0  0
 28 50  1  0  0  0  0
 29 30  1  0  0  0  0
 30 31  1  0  0  0  0
 30 32  2  0  0  0  0
 31 51  1  0  0  0  0
 31 52  1  0  0  0  0
 31 53  1  0  0  0  0
M  END
> <s_m_source_file>
AV-unprocessed.smi

> <i_m_source_file_index>
103

> <i_lp_mmshare_version>
43012

> <i_f3d_flags>
0

> <s_epik_input>
W0NIM11DKD1PKU9bQ0gyXVtDQEBIXTFPW0NASF0oW0NAQEhdKE9DKD1PKVtDSDNdKVtDQEhdMU9DKD1PKVtDSDNdKW4oYyhuMilTKD1PKSg9TylbQ0gzXSljKGMyMyluW2NIXW5jM1tOSDJd

> <s_epik_cmdline>
J2VwaWtfcHl0aG9uJywgJy1waCcsICc3LjAnLCAnLXRuJywgJzgnLCAnLW1hJywgJzIwMCcsICctbWV0YWxfYmluZGluZycsICctaW1hZScsICc8aW5maWxlLm1hZT4nLCAnLW9tYWUnLCAnPG91dGZpbGUubWFlPic=

> <r_lp_tautomer_probability>
1

> <r_epik_Ionization_Penalty>
1.51338e-05

> <r_epik_Ionization_Penalty_Charging>
0

> <r_epik_Ionization_Penalty_Neutral>
1.51338e-05

> <r_epik_State_Penalty>
-0

> <r_epik_Charging_Adjusted_Penalty>
0

> <i_epik_Tot_Q>
0

> <i_epik_Tot_abs_Q>
0

> <r_epik_Metal_State_Penalty>
-0

> <b_epik_Metal_Only>
0

> <s_epik_Chemistry_Notes>
This compound has an ester and may undergo hydrolysis at high or low pH. This compound contains an acetal/aminal-like group ( X-CH(R)-Y where X, Y are N, S, or O) that may be acid/base labile, releasing an aldehyde.

> <s_lp_Force_Field>
OPLS_2005

> <r_lp_Energy>
21.2574

> <b_lp_Chiralities_Consistent>
1

> <s_lp_Variant>
AV-unprocessed.smi:103-13

> <Gold.Version>
5.8.1

> <Gold.Id.Protein>
6NUR|6NUR_protein|mol2

> <Gold.PLP.Fitness>
40.0445

> <Gold.PLP.PLP>
-30.2162

> <Gold.PLP.part.hbond>
-5.1376

> <Gold.PLP.part.metal>
0.0000

> <Gold.PLP.part.buried>
-6.5628

> <Gold.PLP.part.nonpolar>
-19.2232

> <Gold.PLP.part.repulsive>
0.2034

> <Gold.PLP.ligand.clash>
0.0000

> <Gold.PLP.ligand.torsion>
2.1853

> <Gold.PLP.Chemscore.Hbond>
3.9913

> <Gold.PLP.Chemscore.CHOScore>
0.0000

> <Gold.PLP.Chemscore.Metal>
0.0000

> <Gold.Chemscore.Hbonds>
donor molecule, donor type, donor heavy atom, donor atom, acceptor molecule, acceptor atom, score
      L1  H    18    44       P1  8028  1.00
      P1  H  6896  6907       L1    14  0.88
      P1  H  6934  6947       L1    27  1.00
      P1  H  7997  8008       L1    13  0.78

> <Gold.PLP.Chemscore.Internal.Correction>
2.2251

> <Gold.Rescore>
     Score         DG    S(hbond)    S(metal)    S(lipo)     H(rot)  DE(clash)    DE(int)     intcor
      7.14     -11.40       3.89        0.00      32.55       4.25       0.02       4.24       ----

> <Gold.Chemscore.Fitness>
7.1378

> <Gold.Chemscore.DG>
-11.4034

> <Gold.Chemscore.ZeroCoef>
-5.4800

> <Gold.Chemscore.Hbond>
3.8874

> <Gold.Chemscore.Metal>
0.0000

> <Gold.Chemscore.Lipo>
32.5476

> <Gold.Chemscore.Internal_Hbond>
0.0000

> <Gold.Chemscore.DEClash>
0.0234

> <Gold.Chemscore.DEInternal>
4.2421

> <Gold.Chemscore.Rot>
4.2456

> <Gold.Chemscore.Internal.Correction>
   9.000000E+99

> <Gold.Chemscore.Hbonds>
donor molecule, donor type, donor heavy atom, donor atom, acceptor molecule, acceptor atom, score
      L1  H    18    44       P1  8028  0.99
      P1  H  6896  6907       L1    14  0.85
      P1  H  6934  6947       L1    27  0.39
      P1  H  7997  8008       L1    13  0.77

> <Gold.Chemscore.Hbond.Weighted>
-12.9840

> <Gold.Chemscore.Metal.Weighted>
-0.0000

> <Gold.Chemscore.Lipo.Weighted>
-3.8081

> <Gold.Chemscore.Internal_Hbond.Weighted>
0.0000

> <Gold.Chemscore.DEClash.Weighted>
0.0234

> <Gold.Chemscore.DEInternal.Weighted>
4.2421

> <Gold.Chemscore.Rot.Weighted>
10.8687

> <Gold.Chemscore.Internal.Correction.Weighted>
   9.000000E+99

> <Gold.Protein.RotatedTorsions>
[ 6907 6896 6895 6894 ] final   25.34 input  -60.11 | X-H torsion
[ 7974 7965 7964 7962 ] final   16.51 input  175.53 | X-H torsion
[ 8008 7997 7996 7995 ] final -100.07 input   59.86 | X-H torsion
[ 10167 10162 10161 10158 ] final -105.87 input  -65.29 | X-H torsion
[ 10718 10713 10712 10709 ] final  -66.50 input   66.30 | X-H torsion
[ 10763 10752 10751 10750 ] final   76.84 input  -60.55 | X-H torsion
[ 11005 11000 10999 10996 ] final -125.29 input  -57.11 | X-H torsion

> <Gold.Protein.ActiveResidues>
 VAL166  LYS551  ARG553  GLY616  TRP617  ASP618  TYR619  PRO620  LYS621  CYS622 
 ASP623  PHE694  ASN695  SER759  ASP760  ASP761  ALA762  ILE779  LEU786  VAL792 
 PHE793  MET794  SER795  GLU796  ALA797  LYS798  CYS799  TRP800  GLU811  SER814 

> <Gold.Protein.RotatedAtoms>
  151.9710  135.0076  160.0552 H   0  0  0  0  0  0  0  0  0  0  0  0  # atno 6907 bound_to 6896
  152.1783  133.4685  159.4953 H   0  0  0  0  0  0  0  0  0  0  0  0  # atno 6908 bound_to 6896
  150.6913  134.1784  159.4282 H   0  0  0  0  0  0  0  0  0  0  0  0  # atno 6909 bound_to 6896
  146.2247  139.8738  142.8583 H   0  0  0  0  0  0  0  0  0  0  0  0  # atno 7974 bound_to 7965
  154.8235  140.0443  157.1427 H   0  0  0  0  0  0  0  0  0  0  0  0  # atno 8008 bound_to 7997
  154.9232  140.3029  155.5185 H   0  0  0  0  0  0  0  0  0  0  0  0  # atno 8009 bound_to 7997
  156.2982  140.2336  156.4284 H   0  0  0  0  0  0  0  0  0  0  0  0  # atno 8010 bound_to 7997
  140.1939  143.3871  152.1184 H   0  0  0  0  0  0  0  0  0  0  0  0  # atno 10167 bound_to 10162
  156.0609  130.4263  150.1717 H   0  0  0  0  0  0  0  0  0  0  0  0  # atno 10718 bound_to 10713
  153.0754  135.4936  154.8393 H   0  0  0  0  0  0  0  0  0  0  0  0  # atno 10763 bound_to 10752
  154.7080  135.3014  154.9243 H   0  0  0  0  0  0  0  0  0  0  0  0  # atno 10764 bound_to 10752
  153.9945  135.6774  153.4809 H   0  0  0  0  0  0  0  0  0  0  0  0  # atno 10765 bound_to 10752
  140.9773  134.0722  157.3804 H   0  0  0  0  0  0  0  0  0  0  0  0  # atno 11005 bound_to 11000
  145.2582  141.0068  143.3842 LP  0  0  0  0  0  0  0  0  0  0  0  0  # atno 17320 bound_to 7965
  144.9320  139.4288  143.6490 LP  0  0  0  0  0  0  0  0  0  0  0  0  # atno 17321 bound_to 7965
  139.5245  144.7084  151.5283 LP  0  0  0  0  0  0  0  0  0  0  0  0  # atno 17342 bound_to 10162
  140.6437  143.8837  150.6716 LP  0  0  0  0  0  0  0  0  0  0  0  0  # atno 17343 bound_to 10162
  156.9785  130.9857  151.3443 LP  0  0  0  0  0  0  0  0  0  0  0  0  # atno 17370 bound_to 10713
  157.5617  130.8250  149.8274 LP  0  0  0  0  0  0  0  0  0  0  0  0  # atno 17371 bound_to 10713
  139.8936  135.0131  156.6906 LP  0  0  0  0  0  0  0  0  0  0  0  0  # atno 17394 bound_to 11000
  140.7239  133.9117  155.8165 LP  0  0  0  0  0  0  0  0  0  0  0  0  # atno 17395 bound_to 11000

$$$$
