AV-unprocessed.smi:243|AV-procd|sdf|1860|dock1
  -GOLD-   2262020493D 1   1.00000     0.00000
 Structure written by MMmdl.
 58 61  0  0  0  0  0  0  0  0  2 V2000
  144.4646  132.2967  148.9253 C   0  0  0  0  0  0  0  0  0  0  0  0
  145.8978  131.7624  149.0641 C   0  0  0  0  0  0  0  0  0  0  0  0
  146.3849  131.7945  150.4666 N   0  3  2  0  0  0  0  0  0  0  0  0
  145.7933  130.7111  151.2905 C   0  0  0  0  0  0  0  0  0  0  0  0
  146.4538  130.6554  152.6744 C   0  0  0  0  0  0  0  0  0  0  0  0
  146.3431  132.0129  153.4030 C   0  0  1  0  0  0  0  0  0  0  0  0
  146.9165  131.9833  154.7574 N   0  0  0  0  0  0  0  0  0  0  0  0
  148.3417  131.7117  154.8989 C   0  0  0  0  0  0  0  0  0  0  0  0
  146.4135  132.7415  155.7646 C   0  0  0  0  0  0  0  0  0  0  0  0
  145.3184  133.5187  155.5601 N   0  0  0  0  0  0  0  0  0  0  0  0
  144.8315  134.2717  156.5510 C   0  0  0  0  0  0  0  0  0  0  0  0
  145.2783  134.3945  157.8022 N   0  0  0  0  0  0  0  0  0  0  0  0
  146.3807  133.6195  158.0125 C   0  0  0  0  0  0  0  0  0  0  0  0
  147.0066  132.7707  157.0568 C   0  0  0  0  0  0  0  0  0  0  0  0
  148.0901  132.1222  157.6356 N   0  0  0  0  0  0  0  0  0  0  0  0
  148.1050  132.5634  158.8635 C   0  0  0  0  0  0  0  0  0  0  0  0
  147.1227  133.4779  159.1727 N   0  0  0  0  0  0  0  0  0  0  0  0
  146.9058  134.1268  160.4573 C   0  0  0  0  0  0  0  0  0  0  0  0
  147.7068  135.4402  160.6506 C   0  0  2  0  0  0  0  0  0  0  0  0
  148.9062  135.3716  159.9016 O   0  0  0  0  0  0  0  0  0  0  0  0
  148.0457  135.7597  162.1085 C   0  0  0  0  0  0  0  0  0  0  0  0
  146.9697  136.7624  162.4981 C   0  0  0  0  0  0  0  0  0  0  0  0
  146.8539  137.5491  161.3264 O   0  0  0  0  0  0  0  0  0  0  0  0
  146.8892  136.6711  160.2075 C   0  0  0  0  0  0  0  0  0  0  0  0
  146.8795  133.1640  152.5091 C   0  0  2  0  0  0  0  0  0  0  0  0
  146.6608  134.5476  153.1480 C   0  0  0  0  0  0  0  0  0  0  0  0
  146.2111  133.1184  151.1193 C   0  0  0  0  0  0  0  0  0  0  0  0
  144.1783  132.3559  147.8751 H   0  0  0  0  0  0  0  0  0  0  0  0
  144.3744  133.2982  149.3473 H   0  0  0  0  0  0  0  0  0  0  0  0
  143.7363  131.6549  149.4201 H   0  0  0  0  0  0  0  0  0  0  0  0
  145.9740  130.7508  148.6627 H   0  0  0  0  0  0  0  0  0  0  0  0
  146.5430  132.3886  148.4465 H   0  0  0  0  0  0  0  0  0  0  0  0
  144.7180  130.8685  151.3887 H   0  0  0  0  0  0  0  0  0  0  0  0
  145.9295  129.7492  150.7946 H   0  0  0  0  0  0  0  0  0  0  0  0
  145.9822  129.8702  153.2663 H   0  0  0  0  0  0  0  0  0  0  0  0
  147.4946  130.3601  152.5494 H   0  0  0  0  0  0  0  0  0  0  0  0
  145.2787  132.2059  153.5450 H   0  0  0  0  0  0  0  0  0  0  0  0
  148.9002  132.6404  155.0228 H   0  0  0  0  0  0  0  0  0  0  0  0
  148.7314  131.1996  154.0190 H   0  0  0  0  0  0  0  0  0  0  0  0
  148.5356  131.0770  155.7635 H   0  0  0  0  0  0  0  0  0  0  0  0
  143.9609  134.8620  156.3061 H   0  0  0  0  0  0  0  0  0  0  0  0
  148.8410  132.2330  159.5820 H   0  0  0  0  0  0  0  0  0  0  0  0
  145.8376  134.3235  160.5599 H   0  0  0  0  0  0  0  0  0  0  0  0
  147.1591  133.4137  161.2429 H   0  0  0  0  0  0  0  0  0  0  0  0
  148.7192  135.6292  159.0119 H   0  0  0  0  0  0  0  0  0  0  0  0
  148.0702  134.8954  162.7695 H   0  0  0  0  0  0  0  0  0  0  0  0
  149.0186  136.2491  162.1812 H   0  0  0  0  0  0  0  0  0  0  0  0
  146.0224  136.2628  162.7067 H   0  0  0  0  0  0  0  0  0  0  0  0
  147.2450  137.3642  163.3643 H   0  0  0  0  0  0  0  0  0  0  0  0
  147.3110  137.1806  159.3402 H   0  0  0  0  0  0  0  0  0  0  0  0
  145.8642  136.3957  159.9549 H   0  0  0  0  0  0  0  0  0  0  0  0
  147.9504  133.0351  152.3517 H   0  0  0  0  0  0  0  0  0  0  0  0
  145.6038  134.7307  153.3443 H   0  0  0  0  0  0  0  0  0  0  0  0
  147.0196  135.3431  152.4945 H   0  0  0  0  0  0  0  0  0  0  0  0
  147.1943  134.6461  154.0931 H   0  0  0  0  0  0  0  0  0  0  0  0
  146.6457  133.9000  150.4972 H   0  0  0  0  0  0  0  0  0  0  0  0
  145.1464  133.3427  151.2033 H   0  0  0  0  0  0  0  0  0  0  0  0
  147.3776  131.6106  150.4279 H   0  0  0  0  0  0  0  0  0  0  0  0
  1  2  1  0  0  0  0
  1 28  1  0  0  0  0
  1 29  1  0  0  0  0
  1 30  1  0  0  0  0
  2  3  1  0  0  0  0
  2 31  1  0  0  0  0
  2 32  1  0  0  0  0
  3 27  1  0  0  0  0
  3  4  1  0  0  0  0
  3 58  1  0  0  0  0
  4  5  1  0  0  0  0
  4 33  1  0  0  0  0
  4 34  1  0  0  0  0
  5  6  1  0  0  0  0
  5 35  1  0  0  0  0
  5 36  1  0  0  0  0
  6  7  1  0  0  0  0
  6 25  1  0  0  0  0
  6 37  1  0  0  0  0
  7  8  1  0  0  0  0
  7  9  1  0  0  0  0
  8 38  1  0  0  0  0
  8 39  1  0  0  0  0
  8 40  1  0  0  0  0
  9 14  1  0  0  0  0
  9 10  2  0  0  0  0
 10 11  1  0  0  0  0
 11 12  2  0  0  0  0
 11 41  1  0  0  0  0
 12 13  1  0  0  0  0
 13 17  1  0  0  0  0
 13 14  2  0  0  0  0
 14 15  1  0  0  0  0
 15 16  2  0  0  0  0
 16 17  1  0  0  0  0
 16 42  1  0  0  0  0
 17 18  1  0  0  0  0
 18 19  1  0  0  0  0
 18 43  1  0  0  0  0
 18 44  1  0  0  0  0
 19 24  1  0  0  0  0
 19 20  1  0  0  0  0
 19 21  1  0  0  0  0
 20 45  1  0  0  0  0
 21 22  1  0  0  0  0
 21 46  1  0  0  0  0
 21 47  1  0  0  0  0
 22 23  1  0  0  0  0
 22 48  1  0  0  0  0
 22 49  1  0  0  0  0
 23 24  1  0  0  0  0
 24 50  1  0  0  0  0
 24 51  1  0  0  0  0
 25 26  1  0  0  0  0
 25 27  1  0  0  0  0
 25 52  1  0  0  0  0
 26 53  1  0  0  0  0
 26 54  1  0  0  0  0
 26 55  1  0  0  0  0
 27 56  1  0  0  0  0
 27 57  1  0  0  0  0
M  CHG  1   3   1
M  END
> <s_m_source_file>
AV-unprocessed.smi

> <i_m_source_file_index>
243

> <i_lp_mmshare_version>
43012

> <i_f3d_flags>
0

> <s_epik_input>
W0NIM11bQ0gyXU4xW0NIMl1bQ0gyXVtDQEhdKFtDQEBIXShbQ0gzXSlbQ0gyXTEpTihbQ0gzXSljKG5bY0hdbjIpYyhjMjMpbltjSF1uM1tDSDJdW0NAQF00KFtPSF0pW0NIMl1bQ0gyXU9bQ0gyXTQ=

> <s_epik_cmdline>
J2VwaWtfcHl0aG9uJywgJy1waCcsICc3LjAnLCAnLXRuJywgJzgnLCAnLW1hJywgJzIwMCcsICctbWV0YWxfYmluZGluZycsICctaW1hZScsICc8aW5maWxlLm1hZT4nLCAnLW9tYWUnLCAnPG91dGZpbGUubWFlPic=

> <r_lp_tautomer_probability>
1

> <r_epik_Ionization_Penalty>
0.00253099

> <r_epik_Ionization_Penalty_Charging>
0.00137877

> <r_epik_Ionization_Penalty_Neutral>
0.00115221

> <r_epik_State_Penalty>
-0

> <r_epik_Charging_Adjusted_Penalty>
0.00137877

> <i_epik_Tot_Q>
1

> <i_epik_Tot_abs_Q>
1

> <r_epik_Metal_State_Penalty>
-0

> <b_epik_Metal_Only>
0

> <s_lp_Force_Field>
OPLS_2005

> <r_lp_Energy>
45.5006

> <b_lp_Chiralities_Consistent>
1

> <s_lp_Variant>
AV-unprocessed.smi:243-13

> <Gold.Version>
5.8.1

> <Gold.Id.Protein>
6NUR|6NUR_protein|mol2

> <Gold.PLP.Fitness>
40.8979

> <Gold.PLP.PLP>
-33.7725

> <Gold.PLP.part.hbond>
-3.3975

> <Gold.PLP.part.metal>
0.0000

> <Gold.PLP.part.buried>
-3.1162

> <Gold.PLP.part.nonpolar>
-27.9128

> <Gold.PLP.part.repulsive>
0.2273

> <Gold.PLP.ligand.clash>
0.0142

> <Gold.PLP.ligand.torsion>
1.5381

> <Gold.PLP.Chemscore.Hbond>
2.9913

> <Gold.PLP.Chemscore.CHOScore>
0.0000

> <Gold.PLP.Chemscore.Metal>
0.0000

> <Gold.Chemscore.Hbonds>
donor molecule, donor type, donor heavy atom, donor atom, acceptor molecule, acceptor atom, score
      L1  H     3    58       P1 10747  1.00
      P1  H  6896  6907       L1    20  0.86
      P1  H  6931  6943       L1    23  0.02
      P1  H  6934  6947       L1    23  1.00

> <Gold.PLP.Chemscore.Internal.Correction>
1.2421

> <Gold.Rescore>
     Score         DG    S(hbond)    S(metal)    S(lipo)     H(rot)  DE(clash)    DE(int)     intcor
     16.77     -20.25       2.62        0.00     100.38       2.24       0.50       2.99       ----

> <Gold.Chemscore.Fitness>
16.7673

> <Gold.Chemscore.DG>
-20.2522

> <Gold.Chemscore.ZeroCoef>
-5.4800

> <Gold.Chemscore.Hbond>
2.6219

> <Gold.Chemscore.Metal>
0.0000

> <Gold.Chemscore.Lipo>
100.3782

> <Gold.Chemscore.Internal_Hbond>
0.0000

> <Gold.Chemscore.DEClash>
0.4958

> <Gold.Chemscore.DEInternal>
2.9891

> <Gold.Chemscore.Rot>
2.2379

> <Gold.Chemscore.Internal.Correction>
   9.000000E+99

> <Gold.Chemscore.Hbonds>
donor molecule, donor type, donor heavy atom, donor atom, acceptor molecule, acceptor atom, score
      L1  H     3    58       P1 10747  1.00
      P1  H  6896  6907       L1    20  0.16
      P1  H  6934  6947       L1    23  0.80

> <Gold.Chemscore.Hbond.Weighted>
-8.7570

> <Gold.Chemscore.Metal.Weighted>
-0.0000

> <Gold.Chemscore.Lipo.Weighted>
-11.7443

> <Gold.Chemscore.Internal_Hbond.Weighted>
0.0000

> <Gold.Chemscore.DEClash.Weighted>
0.4958

> <Gold.Chemscore.DEInternal.Weighted>
2.9891

> <Gold.Chemscore.Rot.Weighted>
5.7291

> <Gold.Chemscore.Internal.Correction.Weighted>
   9.000000E+99

> <Gold.Protein.RotatedTorsions>
[ 6907 6896 6895 6894 ] final  -68.99 input  -60.11 | X-H torsion
[ 7974 7965 7964 7962 ] final -164.88 input  175.53 | X-H torsion
[ 8008 7997 7996 7995 ] final  -39.90 input   59.86 | X-H torsion
[ 10167 10162 10161 10158 ] final  134.80 input  -65.29 | X-H torsion
[ 10718 10713 10712 10709 ] final  -85.52 input   66.30 | X-H torsion
[ 10763 10752 10751 10750 ] final   14.35 input  -60.55 | X-H torsion
[ 11005 11000 10999 10996 ] final  172.06 input  -57.11 | X-H torsion

> <Gold.Protein.ActiveResidues>
 VAL166  LYS551  ARG553  GLY616  TRP617  ASP618  TYR619  PRO620  LYS621  CYS622 
 ASP623  PHE694  ASN695  SER759  ASP760  ASP761  ALA762  ILE779  LEU786  VAL792 
 PHE793  MET794  SER795  GLU796  ALA797  LYS798  CYS799  TRP800  GLU811  SER814 

> <Gold.Protein.RotatedAtoms>
  150.7328  134.5660  159.5866 H   0  0  0  0  0  0  0  0  0  0  0  0  # atno 6907 bound_to 6896
  152.3111  134.7493  160.0345 H   0  0  0  0  0  0  0  0  0  0  0  0  # atno 6908 bound_to 6896
  151.8040  133.3338  159.3572 H   0  0  0  0  0  0  0  0  0  0  0  0  # atno 6909 bound_to 6896
  144.7284  140.2895  143.6223 H   0  0  0  0  0  0  0  0  0  0  0  0  # atno 7974 bound_to 7965
  154.4018  140.1539  156.2940 H   0  0  0  0  0  0  0  0  0  0  0  0  # atno 8008 bound_to 7997
  155.8760  140.3446  155.5833 H   0  0  0  0  0  0  0  0  0  0  0  0  # atno 8009 bound_to 7997
  155.7721  140.0831  157.2093 H   0  0  0  0  0  0  0  0  0  0  0  0  # atno 8010 bound_to 7997
  139.5242  144.6549  151.5191 H   0  0  0  0  0  0  0  0  0  0  0  0  # atno 10167 bound_to 10162
  155.9996  130.4734  150.4575 H   0  0  0  0  0  0  0  0  0  0  0  0  # atno 10718 bound_to 10713
  153.1630  135.6799  153.8715 H   0  0  0  0  0  0  0  0  0  0  0  0  # atno 10763 bound_to 10752
  153.8104  135.3143  155.3401 H   0  0  0  0  0  0  0  0  0  0  0  0  # atno 10764 bound_to 10752
  154.7946  135.4815  154.0220 H   0  0  0  0  0  0  0  0  0  0  0  0  # atno 10765 bound_to 10752
  140.3257  134.7400  157.4097 H   0  0  0  0  0  0  0  0  0  0  0  0  # atno 11005 bound_to 11000
  145.7869  139.1912  143.2125 LP  0  0  0  0  0  0  0  0  0  0  0  0  # atno 17320 bound_to 7965
  146.0788  140.7787  142.9652 LP  0  0  0  0  0  0  0  0  0  0  0  0  # atno 17321 bound_to 7965
  140.6371  143.8963  150.6657 LP  0  0  0  0  0  0  0  0  0  0  0  0  # atno 17342 bound_to 10162
  140.2286  143.3753  152.1584 LP  0  0  0  0  0  0  0  0  0  0  0  0  # atno 17343 bound_to 10162
  157.2602  131.0565  151.2325 LP  0  0  0  0  0  0  0  0  0  0  0  0  # atno 17370 bound_to 10713
  157.3442  130.7049  149.6400 LP  0  0  0  0  0  0  0  0  0  0  0  0  # atno 17371 bound_to 10713
  140.0903  134.5610  155.8450 LP  0  0  0  0  0  0  0  0  0  0  0  0  # atno 17394 bound_to 11000
  141.2076  133.6665  156.6314 LP  0  0  0  0  0  0  0  0  0  0  0  0  # atno 17395 bound_to 11000

$$$$
