AV-unprocessed.smi:1240|AV-procd|sdf|5201|dock8
  -GOLD-   22720 4293D 1   1.00000     0.00000
 Structure written by MMmdl.
 48 50  0  0  0  0  0  0  0  0  2 V2000
  145.0565  135.2537  153.5563 O   0  0  0  0  0  0  0  0  0  0  0  0
  146.1412  135.4500  153.0094 C   0  0  0  0  0  0  0  0  0  0  0  0
  147.0191  136.3694  153.4302 N   0  0  0  0  0  0  0  0  0  0  0  0
  146.7952  137.2617  154.5632 C   0  0  0  0  0  0  0  0  0  0  0  0
  147.9091  138.3327  154.6787 C   0  0  2  0  0  0  0  0  0  0  0  0
  147.7002  139.4873  153.6436 C   0  0  1  0  0  0  0  0  0  0  0  0
  146.3657  140.2137  153.7750 C   0  0  0  0  0  0  0  0  0  0  0  0
  146.6458  141.5522  153.1132 C   0  0  0  0  0  0  0  0  0  0  0  0
  147.9390  141.8736  153.5897 O   0  0  0  0  0  0  0  0  0  0  0  0
  148.6830  140.6720  153.7642 C   0  0  0  0  0  0  0  0  0  0  0  0
  149.2354  137.6291  154.6155 N   0  3  0  0  0  0  0  0  0  0  0  0
  150.4723  138.4497  154.6915 C   0  0  0  0  0  0  0  0  0  0  0  0
  151.7157  137.5689  154.4785 C   0  0  0  0  0  0  0  0  0  0  0  0
  151.7390  136.5288  155.4464 O   0  0  0  0  0  0  0  0  0  0  0  0
  150.6040  135.6808  155.3369 C   0  0  0  0  0  0  0  0  0  0  0  0
  149.3257  136.5005  155.5783 C   0  0  0  0  0  0  0  0  0  0  0  0
  146.6131  134.7763  151.9462 N   0  0  0  0  0  0  0  0  0  0  0  0
  145.9795  133.7444  151.2029 C   0  0  0  0  0  0  0  0  0  0  0  0
  144.5716  133.6756  151.2397 C   0  0  0  0  0  0  0  0  0  0  0  0
  143.9236  132.6492  150.5236 C   0  0  0  0  0  0  0  0  0  0  0  0
  144.5831  131.7140  149.8082 N   0  0  0  0  0  0  0  0  0  0  0  0
  145.9315  131.7719  149.7878 C   0  0  0  0  0  0  0  0  0  0  0  0
  146.6766  132.7572  150.4660 C   0  0  0  0  0  0  0  0  0  0  0  0
  147.8844  136.4741  152.9212 H   0  0  0  0  0  0  0  0  0  0  0  0
  145.8121  137.7236  154.4697 H   0  0  0  0  0  0  0  0  0  0  0  0
  146.7436  136.6651  155.4743 H   0  0  0  0  0  0  0  0  0  0  0  0
  147.8185  138.7859  155.6674 H   0  0  0  0  0  0  0  0  0  0  0  0
  147.7403  139.0921  152.6275 H   0  0  0  0  0  0  0  0  0  0  0  0
  145.5395  139.6829  153.3008 H   0  0  0  0  0  0  0  0  0  0  0  0
  146.1140  140.3725  154.8248 H   0  0  0  0  0  0  0  0  0  0  0  0
  146.6688  141.4540  152.0269 H   0  0  0  0  0  0  0  0  0  0  0  0
  145.9168  142.3182  153.3784 H   0  0  0  0  0  0  0  0  0  0  0  0
  149.1673  140.7051  154.7407 H   0  0  0  0  0  0  0  0  0  0  0  0
  149.4629  140.6223  153.0045 H   0  0  0  0  0  0  0  0  0  0  0  0
  150.4759  139.2236  153.9258 H   0  0  0  0  0  0  0  0  0  0  0  0
  150.5379  138.9354  155.6655 H   0  0  0  0  0  0  0  0  0  0  0  0
  151.7275  137.1468  153.4724 H   0  0  0  0  0  0  0  0  0  0  0  0
  152.6211  138.1671  154.5823 H   0  0  0  0  0  0  0  0  0  0  0  0
  150.5822  135.2024  154.3563 H   0  0  0  0  0  0  0  0  0  0  0  0
  150.6856  134.8857  156.0780 H   0  0  0  0  0  0  0  0  0  0  0  0
  149.3215  136.8900  156.5976 H   0  0  0  0  0  0  0  0  0  0  0  0
  148.4600  135.8453  155.4883 H   0  0  0  0  0  0  0  0  0  0  0  0
  147.5590  134.9896  151.6662 H   0  0  0  0  0  0  0  0  0  0  0  0
  143.9930  134.3964  151.7988 H   0  0  0  0  0  0  0  0  0  0  0  0
  142.8461  132.5771  150.5276 H   0  0  0  0  0  0  0  0  0  0  0  0
  146.4344  131.0046  149.2179 H   0  0  0  0  0  0  0  0  0  0  0  0
  147.7542  132.7273  150.4184 H   0  0  0  0  0  0  0  0  0  0  0  0
  149.2609  137.2127  153.6955 H   0  0  0  0  0  0  0  0  0  0  0  0
  1  2  2  0  0  0  0
  2  3  1  0  0  0  0
  2 17  1  0  0  0  0
  3  4  1  0  0  0  0
  3 24  1  0  0  0  0
  4  5  1  0  0  0  0
  4 25  1  0  0  0  0
  4 26  1  0  0  0  0
  5  6  1  0  0  0  0
  5 11  1  0  0  0  0
  5 27  1  0  0  0  0
  6 10  1  0  0  0  0
  6  7  1  0  0  0  0
  6 28  1  0  0  0  0
  7  8  1  0  0  0  0
  7 29  1  0  0  0  0
  7 30  1  0  0  0  0
  8  9  1  0  0  0  0
  8 31  1  0  0  0  0
  8 32  1  0  0  0  0
  9 10  1  0  0  0  0
 10 33  1  0  0  0  0
 10 34  1  0  0  0  0
 11 16  1  0  0  0  0
 11 12  1  0  0  0  0
 11 48  1  0  0  0  0
 12 13  1  0  0  0  0
 12 35  1  0  0  0  0
 12 36  1  0  0  0  0
 13 14  1  0  0  0  0
 13 37  1  0  0  0  0
 13 38  1  0  0  0  0
 14 15  1  0  0  0  0
 15 16  1  0  0  0  0
 15 39  1  0  0  0  0
 15 40  1  0  0  0  0
 16 41  1  0  0  0  0
 16 42  1  0  0  0  0
 17 18  1  0  0  0  0
 17 43  1  0  0  0  0
 18 23  1  0  0  0  0
 18 19  2  0  0  0  0
 19 20  1  0  0  0  0
 19 44  1  0  0  0  0
 20 21  2  0  0  0  0
 20 45  1  0  0  0  0
 21 22  1  0  0  0  0
 22 23  2  0  0  0  0
 22 46  1  0  0  0  0
 23 47  1  0  0  0  0
M  CHG  1  11   1
M  END
> <s_m_source_file>
AV-unprocessed.smi

> <i_m_source_file_index>
1240

> <i_lp_mmshare_version>
43012

> <i_f3d_flags>
0

> <s_epik_input>
W2NIXTFbY0hdbltjSF1bY0hdYzFbTkhdQyg9TylbTkhdW0NIMl1bQ0BIXShbQ0BASF0yW0NIMl1bQ0gyXU9bQ0gyXTIpTjNbQ0gyXVtDSDJdT1tDSDJdW0NIMl0z

> <s_epik_cmdline>
J2VwaWtfcHl0aG9uJywgJy1waCcsICc3LjAnLCAnLXRuJywgJzgnLCAnLW1hJywgJzIwMCcsICctbWV0YWxfYmluZGluZycsICctaW1hZScsICc8aW5maWxlLm1hZT4nLCAnLW9tYWUnLCAnPG91dGZpbGUubWFlPic=

> <r_epik_Ionization_Penalty>
1.08433

> <r_epik_Ionization_Penalty_Charging>
0.98326

> <r_epik_Ionization_Penalty_Neutral>
0.10107

> <r_epik_State_Penalty>
1.11265

> <r_epik_Charging_Adjusted_Penalty>
2.09591

> <i_epik_Tot_Q>
1

> <i_epik_Tot_abs_Q>
1

> <r_epik_Metal_State_Penalty>
1.10731

> <b_epik_Metal_Only>
0

> <s_lp_Force_Field>
OPLS_2005

> <r_lp_Energy>
52.9252

> <b_lp_Chiralities_Consistent>
1

> <s_lp_Variant>
AV-unprocessed.smi:1240-7

> <Gold.Version>
5.8.1

> <Gold.Id.Protein>
6NUR|6NUR_protein|mol2

> <Gold.PLP.Fitness>
51.1932

> <Gold.PLP.PLP>
-33.6210

> <Gold.PLP.part.hbond>
-5.1500

> <Gold.PLP.part.metal>
0.0000

> <Gold.PLP.part.buried>
-0.0828

> <Gold.PLP.part.nonpolar>
-28.3435

> <Gold.PLP.part.repulsive>
0.5314

> <Gold.PLP.ligand.clash>
0.0000

> <Gold.PLP.ligand.torsion>
0.3031

> <Gold.PLP.Chemscore.Hbond>
5.0220

> <Gold.PLP.Chemscore.CHOScore>
1.0000

> <Gold.PLP.Chemscore.Metal>
0.0000

> <Gold.Chemscore.Hbonds>
donor molecule, donor type, donor heavy atom, donor atom, acceptor molecule, acceptor atom, score
      L1  H     3    24       P1  7948  0.99
      L1  H    11    48       P1  7948  1.76
      L1  H    17    43       P1  7948  0.91
      P1  H  8011  8017       L1     9  0.02
      P1  H 10752 10763       L1    14  1.00
      P1  H 10785 10796       L1    21  0.11
      L1  C    20    45       P1 10186  0.37
      L1  C    22    46       P1 10747  0.27

> <Gold.PLP.Chemscore.Internal.Correction>
0.1122

> <Gold.Rescore>
     Score         DG    S(hbond)    S(metal)    S(lipo)     H(rot)  DE(clash)    DE(int)     intcor
     21.36     -24.01       3.53        0.00      94.94       1.70       0.96       1.68       ----

> <Gold.Chemscore.Fitness>
21.3610

> <Gold.Chemscore.DG>
-24.0051

> <Gold.Chemscore.ZeroCoef>
-5.4800

> <Gold.Chemscore.Hbond>
3.5252

> <Gold.Chemscore.Metal>
0.0000

> <Gold.Chemscore.Lipo>
94.9438

> <Gold.Chemscore.Internal_Hbond>
0.0000

> <Gold.Chemscore.DEClash>
0.9638

> <Gold.Chemscore.DEInternal>
1.6803

> <Gold.Chemscore.Rot>
1.7021

> <Gold.Chemscore.Internal.Correction>
   9.000000E+99

> <Gold.Chemscore.Hbonds>
donor molecule, donor type, donor heavy atom, donor atom, acceptor molecule, acceptor atom, score
      L1  H     3    24       P1  7948  0.92
      L1  H    11    48       P1  7948  0.85
      L1  H    17    43       P1  7948  0.58
      P1  H 10752 10763       L1    14  0.22
      P1  H 10785 10796       L1    21  0.11

> <Gold.Chemscore.Hbond.Weighted>
-11.7742

> <Gold.Chemscore.Metal.Weighted>
-0.0000

> <Gold.Chemscore.Lipo.Weighted>
-11.1084

> <Gold.Chemscore.Internal_Hbond.Weighted>
0.0000

> <Gold.Chemscore.DEClash.Weighted>
0.9638

> <Gold.Chemscore.DEInternal.Weighted>
1.6803

> <Gold.Chemscore.Rot.Weighted>
4.3575

> <Gold.Chemscore.Internal.Correction.Weighted>
   9.000000E+99

> <Gold.Protein.RotatedTorsions>
[ 6907 6896 6895 6894 ] final  160.07 input  -60.11 | X-H torsion
[ 7974 7965 7964 7962 ] final   85.70 input  175.53 | X-H torsion
[ 8008 7997 7996 7995 ] final  -26.10 input   59.86 | X-H torsion
[ 10167 10162 10161 10158 ] final   98.66 input  -65.29 | X-H torsion
[ 10718 10713 10712 10709 ] final   72.01 input   66.30 | X-H torsion
[ 10763 10752 10751 10750 ] final   85.67 input  -60.55 | X-H torsion
[ 11005 11000 10999 10996 ] final  -72.55 input  -57.11 | X-H torsion

> <Gold.Protein.ActiveResidues>
 VAL166  LYS551  ARG553  GLY616  TRP617  ASP618  TYR619  PRO620  LYS621  CYS622 
 ASP623  PHE694  ASN695  SER759  ASP760  ASP761  ALA762  ILE779  LEU786  VAL792 
 PHE793  MET794  SER795  GLU796  ALA797  LYS798  CYS799  TRP800  GLU811  SER814 

> <Gold.Protein.RotatedAtoms>
  151.9762  133.3742  159.4089 H   0  0  0  0  0  0  0  0  0  0  0  0  # atno 6907 bound_to 6896
  150.6941  134.4088  159.5161 H   0  0  0  0  0  0  0  0  0  0  0  0  # atno 6908 bound_to 6896
  152.1799  134.8762  160.0578 H   0  0  0  0  0  0  0  0  0  0  0  0  # atno 6909 bound_to 6896
  145.5821  139.2326  143.2347 H   0  0  0  0  0  0  0  0  0  0  0  0  # atno 7974 bound_to 7965
  154.4442  140.1908  156.0723 H   0  0  0  0  0  0  0  0  0  0  0  0  # atno 8008 bound_to 7997
  156.0501  140.3309  155.7315 H   0  0  0  0  0  0  0  0  0  0  0  0  # atno 8009 bound_to 7997
  155.5569  140.0600  157.2828 H   0  0  0  0  0  0  0  0  0  0  0  0  # atno 8010 bound_to 7997
  139.7688  144.6929  151.0186 H   0  0  0  0  0  0  0  0  0  0  0  0  # atno 10167 bound_to 10162
  157.6480  130.9557  150.0868 H   0  0  0  0  0  0  0  0  0  0  0  0  # atno 10718 bound_to 10713
  153.1497  135.4608  154.9618 H   0  0  0  0  0  0  0  0  0  0  0  0  # atno 10763 bound_to 10752
  154.7815  135.3190  154.7982 H   0  0  0  0  0  0  0  0  0  0  0  0  # atno 10764 bound_to 10752
  153.8490  135.6923  153.4848 H   0  0  0  0  0  0  0  0  0  0  0  0  # atno 10765 bound_to 10752
  141.1610  133.6850  156.7077 H   0  0  0  0  0  0  0  0  0  0  0  0  # atno 11005 bound_to 11000
  146.1709  140.6647  142.9234 LP  0  0  0  0  0  0  0  0  0  0  0  0  # atno 17320 bound_to 7965
  144.7389  140.4887  143.6883 LP  0  0  0  0  0  0  0  0  0  0  0  0  # atno 17321 bound_to 7965
  140.7812  143.4612  151.0275 LP  0  0  0  0  0  0  0  0  0  0  0  0  # atno 17342 bound_to 10162
  139.8296  143.7709  152.3179 LP  0  0  0  0  0  0  0  0  0  0  0  0  # atno 17343 bound_to 10162
  156.1829  130.3651  149.9012 LP  0  0  0  0  0  0  0  0  0  0  0  0  # atno 17370 bound_to 10713
  156.6959  130.8914  151.3594 LP  0  0  0  0  0  0  0  0  0  0  0  0  # atno 17371 bound_to 10713
  140.2911  134.8240  157.4017 LP  0  0  0  0  0  0  0  0  0  0  0  0  # atno 17394 bound_to 11000
  140.1346  134.5051  155.8078 LP  0  0  0  0  0  0  0  0  0  0  0  0  # atno 17395 bound_to 11000

$$$$
