AV-unprocessed.smi:3331|AV-procd|sdf|12823|dock9
  -GOLD-   2272019203D 1   1.00000     0.00000
 Structure written by MMmdl.
 46 47  0  0  0  0  0  0  0  0  1 V2000
  153.9665  141.6837  160.7631 C   0  0  0  0  0  0  0  0  0  0  0  0
  153.0601  142.2421  159.6573 C   0  0  2  0  0  0  0  0  0  0  0  0
  152.8276  143.7616  159.8290 C   0  0  0  0  0  0  0  0  0  0  0  0
  151.8064  144.3350  158.8197 C   0  0  1  0  0  0  0  0  0  0  0  0
  152.4183  144.5247  157.4204 C   0  0  0  0  0  0  0  0  0  0  0  0
  150.5350  143.4582  158.8059 C   0  0  0  0  0  0  0  0  0  0  0  0
  150.8992  142.0646  158.5130 N   0  0  0  0  0  0  0  0  0  0  0  0
  150.6286  141.3797  157.3725 C   0  0  0  0  0  0  0  0  0  0  0  0
  150.0472  141.9063  156.4213 O   0  0  0  0  0  0  0  0  0  0  0  0
  151.0403  139.8946  157.2332 C   0  0  2  0  0  0  0  0  0  0  0  0
  151.8755  139.6993  155.9583 C   0  0  0  0  0  0  0  0  0  0  0  0
  149.8912  138.9699  157.2170 N   0  0  0  0  0  0  0  0  0  0  0  0
  149.5417  138.4523  158.5359 C   0  0  0  0  0  0  0  0  0  0  0  0
  148.1916  137.7273  158.4588 C   0  0  0  0  0  0  0  0  0  0  0  0
  148.0456  136.7642  159.5325 N   0  0  0  0  0  0  0  0  0  0  0  0
  148.0813  135.3879  159.4586 C   0  0  0  0  0  0  0  0  0  0  0  0
  147.8882  134.9084  160.7224 C   0  0  0  0  0  0  0  0  0  0  0  0
  147.7402  136.0840  161.5107 C   0  0  0  0  0  0  0  0  0  0  0  0
  147.8338  137.1935  160.7953 N   0  0  0  0  0  0  0  0  0  0  0  0
  151.7103  141.4957  159.5982 C   0  0  0  0  0  0  0  0  0  0  0  0
  153.5103  141.7994  161.7468 H   0  0  0  0  0  0  0  0  0  0  0  0
  154.9279  142.1978  160.7789 H   0  0  0  0  0  0  0  0  0  0  0  0
  154.1636  140.6222  160.6107 H   0  0  0  0  0  0  0  0  0  0  0  0
  153.5727  142.0819  158.7076 H   0  0  0  0  0  0  0  0  0  0  0  0
  152.4541  143.9452  160.8375 H   0  0  0  0  0  0  0  0  0  0  0  0
  153.7730  144.3009  159.7582 H   0  0  0  0  0  0  0  0  0  0  0  0
  151.5191  145.3269  159.1707 H   0  0  0  0  0  0  0  0  0  0  0  0
  152.7548  143.5814  156.9908 H   0  0  0  0  0  0  0  0  0  0  0  0
  153.2782  145.1934  157.4573 H   0  0  0  0  0  0  0  0  0  0  0  0
  151.6944  144.9623  156.7327 H   0  0  0  0  0  0  0  0  0  0  0  0
  150.0664  143.4911  159.7906 H   0  0  0  0  0  0  0  0  0  0  0  0
  149.7814  143.8726  158.1395 H   0  0  0  0  0  0  0  0  0  0  0  0
  151.6490  139.5946  158.0835 H   0  0  0  0  0  0  0  0  0  0  0  0
  152.7618  140.3350  155.9604 H   0  0  0  0  0  0  0  0  0  0  0  0
  151.2996  139.9354  155.0625 H   0  0  0  0  0  0  0  0  0  0  0  0
  152.2169  138.6675  155.8694 H   0  0  0  0  0  0  0  0  0  0  0  0
  149.0819  139.3935  156.7858 H   0  0  0  0  0  0  0  0  0  0  0  0
  150.3162  137.7633  158.8764 H   0  0  0  0  0  0  0  0  0  0  0  0
  149.4778  139.2581  159.2677 H   0  0  0  0  0  0  0  0  0  0  0  0
  147.3701  138.4424  158.5247 H   0  0  0  0  0  0  0  0  0  0  0  0
  148.0855  137.2085  157.5047 H   0  0  0  0  0  0  0  0  0  0  0  0
  148.2374  134.8708  158.5234 H   0  0  0  0  0  0  0  0  0  0  0  0
  147.8562  133.8757  161.0358 H   0  0  0  0  0  0  0  0  0  0  0  0
  147.5681  136.1635  162.5739 H   0  0  0  0  0  0  0  0  0  0  0  0
  151.8845  140.4253  159.4796 H   0  0  0  0  0  0  0  0  0  0  0  0
  151.1768  141.6012  160.5441 H   0  0  0  0  0  0  0  0  0  0  0  0
  1  2  1  0  0  0  0
  1 21  1  0  0  0  0
  1 22  1  0  0  0  0
  1 23  1  0  0  0  0
  2 20  1  0  0  0  0
  2  3  1  0  0  0  0
  2 24  1  0  0  0  0
  3  4  1  0  0  0  0
  3 25  1  0  0  0  0
  3 26  1  0  0  0  0
  4  5  1  0  0  0  0
  4  6  1  0  0  0  0
  4 27  1  0  0  0  0
  5 28  1  0  0  0  0
  5 29  1  0  0  0  0
  5 30  1  0  0  0  0
  6  7  1  0  0  0  0
  6 31  1  0  0  0  0
  6 32  1  0  0  0  0
  7  8  1  0  0  0  0
  7 20  1  0  0  0  0
  8  9  2  0  0  0  0
  8 10  1  0  0  0  0
 10 11  1  0  0  0  0
 10 12  1  0  0  0  0
 10 33  1  0  0  0  0
 11 34  1  0  0  0  0
 11 35  1  0  0  0  0
 11 36  1  0  0  0  0
 12 13  1  0  0  0  0
 12 37  1  0  0  0  0
 13 14  1  0  0  0  0
 13 38  1  0  0  0  0
 13 39  1  0  0  0  0
 14 15  1  0  0  0  0
 14 40  1  0  0  0  0
 14 41  1  0  0  0  0
 15 19  1  0  0  0  0
 15 16  1  0  0  0  0
 16 17  2  0  0  0  0
 16 42  1  0  0  0  0
 17 18  1  0  0  0  0
 17 43  1  0  0  0  0
 18 19  2  0  0  0  0
 18 44  1  0  0  0  0
 20 45  1  0  0  0  0
 20 46  1  0  0  0  0
M  END
> <s_m_source_file>
AV-unprocessed.smi

> <i_m_source_file_index>
3331

> <i_lp_mmshare_version>
43012

> <i_f3d_flags>
0

> <s_epik_input>
W0NIM11bQ0BASF0xW0NIMl1bQ0BASF0oW0NIM10pW0NIMl1OKFtDSDJdMSlDKD1PKVtDQEhdKFtDSDNdKVtOSF1bQ0gyXVtDSDJdbjJbY0hdW2NIXVtjSF1uMg==

> <s_epik_cmdline>
J2VwaWtfcHl0aG9uJywgJy1waCcsICc3LjAnLCAnLXRuJywgJzgnLCAnLW1hJywgJzIwMCcsICctbWV0YWxfYmluZGluZycsICctaW1hZScsICc8aW5maWxlLm1hZT4nLCAnLW9tYWUnLCAnPG91dGZpbGUubWFlPic=

> <r_lp_tautomer_probability>
1

> <r_epik_Ionization_Penalty>
0.767994

> <r_epik_Ionization_Penalty_Charging>
0

> <r_epik_Ionization_Penalty_Neutral>
0.767994

> <r_epik_State_Penalty>
0.795453

> <r_epik_Charging_Adjusted_Penalty>
0.795453

> <i_epik_Tot_Q>
0

> <i_epik_Tot_abs_Q>
0

> <r_epik_Metal_State_Penalty>
0.794784

> <b_epik_Metal_Only>
0

> <s_lp_Force_Field>
OPLS_2005

> <r_lp_Energy>
29.1229

> <b_lp_Chiralities_Consistent>
1

> <s_lp_Variant>
AV-unprocessed.smi:3331-7

> <Gold.Version>
5.8.1

> <Gold.Id.Protein>
6NUR|6NUR_protein|mol2

> <Gold.PLP.Fitness>
44.0498

> <Gold.PLP.PLP>
-40.6567

> <Gold.PLP.part.hbond>
-2.0000

> <Gold.PLP.part.metal>
0.0000

> <Gold.PLP.part.buried>
-5.6592

> <Gold.PLP.part.nonpolar>
-33.9402

> <Gold.PLP.part.repulsive>
0.1167

> <Gold.PLP.ligand.clash>
0.0000

> <Gold.PLP.ligand.torsion>
0.8709

> <Gold.PLP.Chemscore.Hbond>
1.6960

> <Gold.PLP.Chemscore.CHOScore>
0.0000

> <Gold.PLP.Chemscore.Metal>
0.0000

> <Gold.Chemscore.Hbonds>
donor molecule, donor type, donor heavy atom, donor atom, acceptor molecule, acceptor atom, score
      P1  H  6931  6943       L1    19  0.85
      P1  H  6934  6947       L1    19  0.85

> <Gold.PLP.Chemscore.Internal.Correction>
0.0470

> <Gold.Rescore>
     Score         DG    S(hbond)    S(metal)    S(lipo)     H(rot)  DE(clash)    DE(int)     intcor
     16.99     -18.11       1.12        0.00     112.44       1.66       0.21       0.91       ----

> <Gold.Chemscore.Fitness>
16.9893

> <Gold.Chemscore.DG>
-18.1111

> <Gold.Chemscore.ZeroCoef>
-5.4800

> <Gold.Chemscore.Hbond>
1.1192

> <Gold.Chemscore.Metal>
0.0000

> <Gold.Chemscore.Lipo>
112.4354

> <Gold.Chemscore.Internal_Hbond>
0.0000

> <Gold.Chemscore.DEClash>
0.2133

> <Gold.Chemscore.DEInternal>
0.9085

> <Gold.Chemscore.Rot>
1.6649

> <Gold.Chemscore.Internal.Correction>
   9.000000E+99

> <Gold.Chemscore.Hbonds>
donor molecule, donor type, donor heavy atom, donor atom, acceptor molecule, acceptor atom, score
      P1  H  6931  6943       L1    19  0.29
      P1  H  6934  6947       L1    19  0.75

> <Gold.Chemscore.Hbond.Weighted>
-3.7382

> <Gold.Chemscore.Metal.Weighted>
-0.0000

> <Gold.Chemscore.Lipo.Weighted>
-13.1549

> <Gold.Chemscore.Internal_Hbond.Weighted>
0.0000

> <Gold.Chemscore.DEClash.Weighted>
0.2133

> <Gold.Chemscore.DEInternal.Weighted>
0.9085

> <Gold.Chemscore.Rot.Weighted>
4.2621

> <Gold.Chemscore.Internal.Correction.Weighted>
   9.000000E+99

> <Gold.Protein.RotatedTorsions>
[ 6907 6896 6895 6894 ] final   48.22 input  -60.11 | X-H torsion
[ 7974 7965 7964 7962 ] final -154.93 input  175.53 | X-H torsion
[ 8008 7997 7996 7995 ] final -124.54 input   59.86 | X-H torsion
[ 10167 10162 10161 10158 ] final -175.67 input  -65.29 | X-H torsion
[ 10718 10713 10712 10709 ] final   84.21 input   66.30 | X-H torsion
[ 10763 10752 10751 10750 ] final  108.55 input  -60.55 | X-H torsion
[ 11005 11000 10999 10996 ] final  -85.74 input  -57.11 | X-H torsion

> <Gold.Protein.ActiveResidues>
 VAL166  LYS551  ARG553  GLY616  TRP617  ASP618  TYR619  PRO620  LYS621  CYS622 
 ASP623  PHE694  ASN695  SER759  ASP760  ASP761  ALA762  ILE779  LEU786  VAL792 
 PHE793  MET794  SER795  GLU796  ALA797  LYS798  CYS799  TRP800  GLU811  SER814 

> <Gold.Protein.RotatedAtoms>
  152.2770  134.7871  160.0403 H   0  0  0  0  0  0  0  0  0  0  0  0  # atno 6907 bound_to 6896
  151.8463  133.3427  159.3667 H   0  0  0  0  0  0  0  0  0  0  0  0  # atno 6908 bound_to 6896
  150.7174  134.5270  159.5726 H   0  0  0  0  0  0  0  0  0  0  0  0  # atno 6909 bound_to 6896
  144.7665  140.4320  143.5938 H   0  0  0  0  0  0  0  0  0  0  0  0  # atno 7974 bound_to 7965
  155.1985  140.0415  157.2913 H   0  0  0  0  0  0  0  0  0  0  0  0  # atno 8008 bound_to 7997
  154.6090  140.2472  155.7665 H   0  0  0  0  0  0  0  0  0  0  0  0  # atno 8009 bound_to 7997
  156.2368  140.2918  156.0343 H   0  0  0  0  0  0  0  0  0  0  0  0  # atno 8010 bound_to 7997
  139.5569  144.1967  152.1174 H   0  0  0  0  0  0  0  0  0  0  0  0  # atno 10167 bound_to 10162
  157.6894  131.0123  150.2639 H   0  0  0  0  0  0  0  0  0  0  0  0  # atno 10718 bound_to 10713
  153.4223  135.3808  155.2119 H   0  0  0  0  0  0  0  0  0  0  0  0  # atno 10763 bound_to 10752
  154.8745  135.3820  154.4369 H   0  0  0  0  0  0  0  0  0  0  0  0  # atno 10764 bound_to 10752
  153.4891  135.7088  153.5957 H   0  0  0  0  0  0  0  0  0  0  0  0  # atno 10765 bound_to 10752
  141.1638  133.7416  156.9059 H   0  0  0  0  0  0  0  0  0  0  0  0  # atno 11005 bound_to 11000
  145.6454  139.1556  143.2892 LP  0  0  0  0  0  0  0  0  0  0  0  0  # atno 17320 bound_to 7965
  146.1777  140.6547  142.9204 LP  0  0  0  0  0  0  0  0  0  0  0  0  # atno 17321 bound_to 7965
  140.1473  144.5147  150.6708 LP  0  0  0  0  0  0  0  0  0  0  0  0  # atno 17342 bound_to 10162
  140.6843  143.2342  151.5302 LP  0  0  0  0  0  0  0  0  0  0  0  0  # atno 17343 bound_to 10162
  156.3213  130.3786  149.7572 LP  0  0  0  0  0  0  0  0  0  0  0  0  # atno 17370 bound_to 10713
  156.5141  130.8185  151.3180 LP  0  0  0  0  0  0  0  0  0  0  0  0  # atno 17371 bound_to 10713
  140.1550  134.9204  157.2642 LP  0  0  0  0  0  0  0  0  0  0  0  0  # atno 17394 bound_to 11000
  140.2678  134.3496  155.7384 LP  0  0  0  0  0  0  0  0  0  0  0  0  # atno 17395 bound_to 11000

$$$$
