AV-unprocessed.smi:165|AV-procd|sdf|1386|dock2
  -GOLD-   2262019123D 1   1.00000     0.00000
 Structure written by MMmdl.
 55 59  0  0  0  0  0  0  0  0  1 V2000
  146.8362  132.1843  150.7444 O   0  0  0  0  0  0  0  0  0  0  0  0
  145.8600  132.0341  149.7324 C   0  0  0  0  0  0  0  0  0  0  0  0
  144.7800  133.1314  149.7767 C   0  0  0  0  0  0  0  0  0  0  0  0
  143.8086  132.7862  148.6283 C   0  0  0  0  0  0  0  0  0  0  0  0
  143.2625  133.9243  147.9924 O   0  0  0  0  0  0  0  0  0  0  0  0
  144.1377  133.4038  151.1561 C   0  0  0  0  0  0  0  0  0  0  0  0
  144.2697  134.9146  150.9304 C   0  0  0  0  0  0  0  0  0  0  0  0
  144.6042  135.7950  152.0120 N   0  0  0  0  0  0  0  0  0  0  0  0
  145.6427  136.6981  152.0488 C   0  0  0  0  0  0  0  0  0  0  0  0
  145.7172  137.4178  153.1349 N   0  0  0  0  0  0  0  0  0  0  0  0
  144.6210  137.0121  153.8870 C   0  0  0  0  0  0  0  0  0  0  0  0
  144.0997  137.3830  155.1587 C   0  0  0  0  0  0  0  0  0  0  0  0
  144.6764  138.3327  155.9375 N   0  0  0  0  0  0  0  0  0  0  0  0
  145.0728  137.8859  157.2665 C   0  0  0  0  0  0  0  0  0  0  0  0
  145.3555  139.0999  158.1619 C   0  0  0  0  0  0  0  0  0  0  0  0
  146.3140  139.9536  157.5395 O   0  0  0  0  0  0  0  0  0  0  0  0
  145.9506  140.4409  156.2424 C   0  0  2  0  0  0  0  0  0  0  0  0
  147.1904  141.2150  155.7523 C   0  0  0  0  0  0  0  0  0  0  0  0
  146.8864  142.0219  154.4849 C   0  0  0  0  0  0  0  0  0  0  0  0
  145.6561  142.9111  154.7077 C   0  0  0  0  0  0  0  0  0  0  0  0
  144.5509  142.1070  155.0994 O   0  0  0  0  0  0  0  0  0  0  0  0
  144.7556  141.4267  156.3347 C   0  0  0  0  0  0  0  0  0  0  0  0
  145.6487  139.2324  155.3224 C   0  0  0  0  0  0  0  0  0  0  0  0
  142.9772  136.7436  155.5846 N   0  0  0  0  0  0  0  0  0  0  0  0
  142.3971  135.8155  154.8183 C   0  0  0  0  0  0  0  0  0  0  0  0
  142.7699  135.3739  153.6161 N   0  0  0  0  0  0  0  0  0  0  0  0
  143.9035  135.9999  153.1883 C   0  0  0  0  0  0  0  0  0  0  0  0
  145.2862  134.5915  149.8282 C   0  0  0  0  0  0  0  0  0  0  0  0
  147.5884  131.6588  150.5182 H   0  0  0  0  0  0  0  0  0  0  0  0
  146.3757  132.0353  148.7714 H   0  0  0  0  0  0  0  0  0  0  0  0
  145.4128  131.0462  149.8476 H   0  0  0  0  0  0  0  0  0  0  0  0
  144.3106  132.1914  147.8644 H   0  0  0  0  0  0  0  0  0  0  0  0
  142.9765  132.1842  148.9952 H   0  0  0  0  0  0  0  0  0  0  0  0
  143.9599  134.3889  147.5558 H   0  0  0  0  0  0  0  0  0  0  0  0
  143.1088  133.0572  151.2580 H   0  0  0  0  0  0  0  0  0  0  0  0
  144.7419  133.0595  151.9964 H   0  0  0  0  0  0  0  0  0  0  0  0
  143.3530  135.3162  150.4975 H   0  0  0  0  0  0  0  0  0  0  0  0
  146.3557  136.8024  151.2439 H   0  0  0  0  0  0  0  0  0  0  0  0
  144.3079  137.2627  157.7284 H   0  0  0  0  0  0  0  0  0  0  0  0
  145.9701  137.2722  157.1783 H   0  0  0  0  0  0  0  0  0  0  0  0
  144.4370  139.6440  158.3818 H   0  0  0  0  0  0  0  0  0  0  0  0
  145.7545  138.7692  159.1208 H   0  0  0  0  0  0  0  0  0  0  0  0
  147.5166  141.9041  156.5329 H   0  0  0  0  0  0  0  0  0  0  0  0
  148.0265  140.5367  155.5785 H   0  0  0  0  0  0  0  0  0  0  0  0
  147.7476  142.6329  154.2142 H   0  0  0  0  0  0  0  0  0  0  0  0
  146.7073  141.3490  153.6459 H   0  0  0  0  0  0  0  0  0  0  0  0
  145.8545  143.6706  155.4654 H   0  0  0  0  0  0  0  0  0  0  0  0
  145.4014  143.4370  153.7874 H   0  0  0  0  0  0  0  0  0  0  0  0
  143.8308  140.9077  156.5856 H   0  0  0  0  0  0  0  0  0  0  0  0
  144.9253  142.1601  157.1247 H   0  0  0  0  0  0  0  0  0  0  0  0
  146.5659  138.6742  155.1289 H   0  0  0  0  0  0  0  0  0  0  0  0
  145.2754  139.5801  154.3581 H   0  0  0  0  0  0  0  0  0  0  0  0
  141.5077  135.3598  155.2280 H   0  0  0  0  0  0  0  0  0  0  0  0
  146.3162  134.6824  150.1748 H   0  0  0  0  0  0  0  0  0  0  0  0
  145.1404  135.1582  148.9083 H   0  0  0  0  0  0  0  0  0  0  0  0
  1  2  1  0  0  0  0
  1 29  1  0  0  0  0
  2  3  1  0  0  0  0
  2 30  1  0  0  0  0
  2 31  1  0  0  0  0
  3 28  1  0  0  0  0
  3  4  1  0  0  0  0
  3  6  1  0  0  0  0
  4  5  1  0  0  0  0
  4 32  1  0  0  0  0
  4 33  1  0  0  0  0
  5 34  1  0  0  0  0
  6  7  1  0  0  0  0
  6 35  1  0  0  0  0
  6 36  1  0  0  0  0
  7  8  1  0  0  0  0
  7 28  1  0  0  0  0
  7 37  1  0  0  0  0
  8 27  1  0  0  0  0
  8  9  1  0  0  0  0
  9 10  2  0  0  0  0
  9 38  1  0  0  0  0
 10 11  1  0  0  0  0
 11 27  2  0  0  0  0
 11 12  1  0  0  0  0
 12 13  1  0  0  0  0
 12 24  2  0  0  0  0
 13 23  1  0  0  0  0
 13 14  1  0  0  0  0
 14 15  1  0  0  0  0
 14 39  1  0  0  0  0
 14 40  1  0  0  0  0
 15 16  1  0  0  0  0
 15 41  1  0  0  0  0
 15 42  1  0  0  0  0
 16 17  1  0  0  0  0
 17 22  1  0  0  0  0
 17 18  1  0  0  0  0
 17 23  1  0  0  0  0
 18 19  1  0  0  0  0
 18 43  1  0  0  0  0
 18 44  1  0  0  0  0
 19 20  1  0  0  0  0
 19 45  1  0  0  0  0
 19 46  1  0  0  0  0
 20 21  1  0  0  0  0
 20 47  1  0  0  0  0
 20 48  1  0  0  0  0
 21 22  1  0  0  0  0
 22 49  1  0  0  0  0
 22 50  1  0  0  0  0
 23 51  1  0  0  0  0
 23 52  1  0  0  0  0
 24 25  1  0  0  0  0
 25 26  2  0  0  0  0
 25 53  1  0  0  0  0
 26 27  1  0  0  0  0
 28 54  1  0  0  0  0
 28 55  1  0  0  0  0
M  END
> <s_m_source_file>
AV-unprocessed.smi

> <i_m_source_file_index>
165

> <i_lp_mmshare_version>
43012

> <i_f3d_flags>
0

> <s_epik_input>
W09IXVtDSDJdQzEoW0NIMl1bT0hdKVtDSDJdW0NIXShbQ0gyXTEpbihbY0hdbjIpYyhjMjMpbltjSF1uYzNOKFtDSDJdNClbQ0gyXVtDSDJdT1tDQEBdNDVbQ0gyXVtDSDJdW0NIMl1PW0NIMl01

> <s_epik_cmdline>
J2VwaWtfcHl0aG9uJywgJy1waCcsICc3LjAnLCAnLXRuJywgJzgnLCAnLW1hJywgJzIwMCcsICctbWV0YWxfYmluZGluZycsICctaW1hZScsICc8aW5maWxlLm1hZT4nLCAnLW9tYWUnLCAnPG91dGZpbGUubWFlPic=

> <r_lp_tautomer_probability>
1

> <r_epik_Ionization_Penalty>
0.00466923

> <r_epik_Ionization_Penalty_Charging>
0

> <r_epik_Ionization_Penalty_Neutral>
0.00466923

> <r_epik_State_Penalty>
0.0032353

> <r_epik_Charging_Adjusted_Penalty>
0.0032353

> <i_epik_Tot_Q>
0

> <i_epik_Tot_abs_Q>
0

> <r_epik_Metal_State_Penalty>
-0

> <b_epik_Metal_Only>
0

> <s_lp_Force_Field>
OPLS_2005

> <r_lp_Energy>
54.9184

> <b_lp_Chiralities_Consistent>
1

> <s_lp_Variant>
AV-unprocessed.smi:165-1

> <Gold.Version>
5.8.1

> <Gold.Id.Protein>
6NUR|6NUR_protein|mol2

> <Gold.PLP.Fitness>
48.5893

> <Gold.PLP.PLP>
-36.4187

> <Gold.PLP.part.hbond>
-4.9698

> <Gold.PLP.part.metal>
0.0000

> <Gold.PLP.part.buried>
-3.9188

> <Gold.PLP.part.nonpolar>
-29.7902

> <Gold.PLP.part.repulsive>
0.7018

> <Gold.PLP.ligand.clash>
0.0000

> <Gold.PLP.ligand.torsion>
1.1557

> <Gold.PLP.Chemscore.Hbond>
3.0000

> <Gold.PLP.Chemscore.CHOScore>
1.5924

> <Gold.PLP.Chemscore.Metal>
0.0000

> <Gold.Chemscore.Hbonds>
donor molecule, donor type, donor heavy atom, donor atom, acceptor molecule, acceptor atom, score
      L1  H     1    29       P1 10747  1.00
      L1  H     5    34       P1  7921  0.55
      P1  H 10192 10197       L1     5  0.40
      L1  C     9    38       P1  7948  0.44
      L1  C    25    53       P1 11000  0.65

> <Gold.PLP.Chemscore.Internal.Correction>
0.7048

> <Gold.Rescore>
     Score         DG    S(hbond)    S(metal)    S(lipo)     H(rot)  DE(clash)    DE(int)     intcor
     11.28     -15.94       2.87        0.00      76.23       3.14       1.87       2.79       ----

> <Gold.Chemscore.Fitness>
11.2800

> <Gold.Chemscore.DG>
-15.9437

> <Gold.Chemscore.ZeroCoef>
-5.4800

> <Gold.Chemscore.Hbond>
2.8655

> <Gold.Chemscore.Metal>
0.0000

> <Gold.Chemscore.Lipo>
76.2292

> <Gold.Chemscore.Internal_Hbond>
0.0000

> <Gold.Chemscore.DEClash>
1.8725

> <Gold.Chemscore.DEInternal>
2.7912

> <Gold.Chemscore.Rot>
3.1351

> <Gold.Chemscore.Internal.Correction>
   9.000000E+99

> <Gold.Chemscore.Hbonds>
donor molecule, donor type, donor heavy atom, donor atom, acceptor molecule, acceptor atom, score
      L1  H     1    29       P1 10747  0.99
      L1  H     5    34       P1  7921  0.55
      P1  H 10192 10197       L1     5  0.01

> <Gold.Chemscore.Hbond.Weighted>
-9.5708

> <Gold.Chemscore.Metal.Weighted>
-0.0000

> <Gold.Chemscore.Lipo.Weighted>
-8.9188

> <Gold.Chemscore.Internal_Hbond.Weighted>
0.0000

> <Gold.Chemscore.DEClash.Weighted>
1.8725

> <Gold.Chemscore.DEInternal.Weighted>
2.7912

> <Gold.Chemscore.Rot.Weighted>
8.0260

> <Gold.Chemscore.Internal.Correction.Weighted>
   9.000000E+99

> <Gold.Protein.RotatedTorsions>
[ 6907 6896 6895 6894 ] final  152.19 input  -60.11 | X-H torsion
[ 7974 7965 7964 7962 ] final  121.54 input  175.53 | X-H torsion
[ 8008 7997 7996 7995 ] final  -85.80 input   59.86 | X-H torsion
[ 10167 10162 10161 10158 ] final   91.08 input  -65.29 | X-H torsion
[ 10718 10713 10712 10709 ] final  -55.25 input   66.30 | X-H torsion
[ 10763 10752 10751 10750 ] final   47.68 input  -60.55 | X-H torsion
[ 11005 11000 10999 10996 ] final -112.40 input  -57.11 | X-H torsion

> <Gold.Protein.ActiveResidues>
 VAL166  LYS551  ARG553  GLY616  TRP617  ASP618  TYR619  PRO620  LYS621  CYS622 
 ASP623  PHE694  ASN695  SER759  ASP760  ASP761  ALA762  ILE779  LEU786  VAL792 
 PHE793  MET794  SER795  GLU796  ALA797  LYS798  CYS799  TRP800  GLU811  SER814 

> <Gold.Protein.RotatedAtoms>
  152.0902  133.4196  159.4540 H   0  0  0  0  0  0  0  0  0  0  0  0  # atno 6907 bound_to 6896
  150.6862  134.2880  159.4664 H   0  0  0  0  0  0  0  0  0  0  0  0  # atno 6908 bound_to 6896
  152.0731  134.9520  160.0625 H   0  0  0  0  0  0  0  0  0  0  0  0  # atno 6909 bound_to 6896
  145.1180  139.3408  143.4728 H   0  0  0  0  0  0  0  0  0  0  0  0  # atno 7974 bound_to 7965
  154.6448  140.0587  156.9887 H   0  0  0  0  0  0  0  0  0  0  0  0  # atno 8008 bound_to 7997
  155.1461  140.3270  155.4423 H   0  0  0  0  0  0  0  0  0  0  0  0  # atno 8009 bound_to 7997
  156.2548  140.1955  156.6575 H   0  0  0  0  0  0  0  0  0  0  0  0  # atno 8010 bound_to 7997
  139.8410  144.6641  150.9284 H   0  0  0  0  0  0  0  0  0  0  0  0  # atno 10167 bound_to 10162
  156.1383  130.4155  150.0146 H   0  0  0  0  0  0  0  0  0  0  0  0  # atno 10718 bound_to 10713
  152.9798  135.5968  154.3803 H   0  0  0  0  0  0  0  0  0  0  0  0  # atno 10763 bound_to 10752
  154.3468  135.2767  155.2395 H   0  0  0  0  0  0  0  0  0  0  0  0  # atno 10764 bound_to 10752
  154.4452  135.6003  153.6210 H   0  0  0  0  0  0  0  0  0  0  0  0  # atno 10765 bound_to 10752
  141.0677  133.9431  157.2546 H   0  0  0  0  0  0  0  0  0  0  0  0  # atno 11005 bound_to 11000
  146.3522  140.1128  142.8603 LP  0  0  0  0  0  0  0  0  0  0  0  0  # atno 17320 bound_to 7965
  145.0772  140.9196  143.4847 LP  0  0  0  0  0  0  0  0  0  0  0  0  # atno 17321 bound_to 7965
  140.7798  143.3913  151.1305 LP  0  0  0  0  0  0  0  0  0  0  0  0  # atno 17342 bound_to 10162
  139.7559  143.8708  152.3088 LP  0  0  0  0  0  0  0  0  0  0  0  0  # atno 17343 bound_to 10162
  156.8039  130.9300  151.3645 LP  0  0  0  0  0  0  0  0  0  0  0  0  # atno 17370 bound_to 10713
  157.6553  130.8919  149.9716 LP  0  0  0  0  0  0  0  0  0  0  0  0  # atno 17371 bound_to 10713
  139.9493  135.0178  156.8945 LP  0  0  0  0  0  0  0  0  0  0  0  0  # atno 17394 bound_to 11000
  140.5738  134.0417  155.7440 LP  0  0  0  0  0  0  0  0  0  0  0  0  # atno 17395 bound_to 11000

$$$$
