AV-unprocessed.smi:2061|AV-procd|sdf|8367|dock6
  -GOLD-   2272011 43D 1   1.00000     0.00000
 Structure written by MMmdl.
 46 47  0  0  0  0  0  0  0  0  2 V2000
  146.6098  134.0798  162.7424 C   0  0  0  0  0  0  0  0  0  0  0  0
  146.9632  135.1531  161.7708 C   0  0  0  0  0  0  0  0  0  0  0  0
  147.1708  135.1532  160.4201 C   0  0  0  0  0  0  0  0  0  0  0  0
  147.4728  136.5131  160.1433 C   0  0  0  0  0  0  0  0  0  0  0  0
  147.7617  136.9392  158.8220 N   0  0  0  0  0  0  0  0  0  0  0  0
  147.9660  136.1697  157.7396 C   0  0  0  0  0  0  0  0  0  0  0  0
  147.9625  134.9385  157.7307 O   0  0  0  0  0  0  0  0  0  0  0  0
  148.1698  136.9143  156.6432 N   0  0  0  0  0  0  0  0  0  0  0  0
  148.3883  136.3830  155.3006 C   0  0  0  0  0  0  0  0  0  0  0  0
  147.0700  136.0258  154.5589 C   0  0  1  0  0  0  0  0  0  0  0  0
  146.4233  137.3075  153.9769 C   0  0  0  0  0  0  0  0  0  0  0  0
  147.3139  134.9654  153.5254 N   0  3  1  0  0  0  0  0  0  0  0  0
  147.8736  133.7131  154.1040 C   0  0  0  0  0  0  0  0  0  0  0  0
  148.1951  132.6857  153.0033 C   0  0  1  0  0  0  0  0  0  0  0  0
  148.7192  131.3655  153.5793 C   0  0  0  0  0  0  0  0  0  0  0  0
  147.0086  132.4080  152.2730 O   0  0  0  0  0  0  0  0  0  0  0  0
  146.4994  133.5619  151.6192 C   0  0  1  0  0  0  0  0  0  0  0  0
  145.2828  133.1376  150.7889 C   0  0  0  0  0  0  0  0  0  0  0  0
  146.1409  134.6301  152.6707 C   0  0  0  0  0  0  0  0  0  0  0  0
  147.4508  137.2747  161.2263 N   0  0  0  0  0  0  0  0  0  0  0  0
  147.1238  136.4068  162.2751 O   0  0  0  0  0  0  0  0  0  0  0  0
  146.5257  133.1146  162.2429 H   0  0  0  0  0  0  0  0  0  0  0  0
  145.6563  134.2949  163.2252 H   0  0  0  0  0  0  0  0  0  0  0  0
  147.3711  133.9938  163.5179 H   0  0  0  0  0  0  0  0  0  0  0  0
  147.1162  134.3137  159.7431 H   0  0  0  0  0  0  0  0  0  0  0  0
  147.7974  137.9383  158.6832 H   0  0  0  0  0  0  0  0  0  0  0  0
  148.1626  137.9191  156.7407 H   0  0  0  0  0  0  0  0  0  0  0  0
  148.9386  137.1327  154.7310 H   0  0  0  0  0  0  0  0  0  0  0  0
  149.0537  135.5262  155.3942 H   0  0  0  0  0  0  0  0  0  0  0  0
  146.3613  135.6159  155.2804 H   0  0  0  0  0  0  0  0  0  0  0  0
  146.2920  138.0783  154.7359 H   0  0  0  0  0  0  0  0  0  0  0  0
  145.4249  137.1201  153.5817 H   0  0  0  0  0  0  0  0  0  0  0  0
  147.0330  137.7351  153.1802 H   0  0  0  0  0  0  0  0  0  0  0  0
  148.7876  133.9097  154.6606 H   0  0  0  0  0  0  0  0  0  0  0  0
  147.1590  133.2904  154.8125 H   0  0  0  0  0  0  0  0  0  0  0  0
  148.9503  133.0921  152.3278 H   0  0  0  0  0  0  0  0  0  0  0  0
  149.6394  131.5206  154.1434 H   0  0  0  0  0  0  0  0  0  0  0  0
  148.9344  130.6519  152.7836 H   0  0  0  0  0  0  0  0  0  0  0  0
  147.9894  130.9082  154.2483 H   0  0  0  0  0  0  0  0  0  0  0  0
  147.2592  133.9556  150.9415 H   0  0  0  0  0  0  0  0  0  0  0  0
  144.8554  133.9860  150.2540 H   0  0  0  0  0  0  0  0  0  0  0  0
  144.5022  132.7122  151.4204 H   0  0  0  0  0  0  0  0  0  0  0  0
  145.5591  132.3849  150.0500 H   0  0  0  0  0  0  0  0  0  0  0  0
  145.3202  134.2826  153.3011 H   0  0  0  0  0  0  0  0  0  0  0  0
  145.7913  135.5094  152.1309 H   0  0  0  0  0  0  0  0  0  0  0  0
  148.0133  135.3375  152.8988 H   0  0  0  0  0  0  0  0  0  0  0  0
  1  2  1  0  0  0  0
  1 22  1  0  0  0  0
  1 23  1  0  0  0  0
  1 24  1  0  0  0  0
  2 21  1  0  0  0  0
  2  3  2  0  0  0  0
  3  4  1  0  0  0  0
  3 25  1  0  0  0  0
  4  5  1  0  0  0  0
  4 20  2  0  0  0  0
  5  6  1  0  0  0  0
  5 26  1  0  0  0  0
  6  7  2  0  0  0  0
  6  8  1  0  0  0  0
  8  9  1  0  0  0  0
  8 27  1  0  0  0  0
  9 10  1  0  0  0  0
  9 28  1  0  0  0  0
  9 29  1  0  0  0  0
 10 11  1  0  0  0  0
 10 12  1  0  0  0  0
 10 30  1  0  0  0  0
 11 31  1  0  0  0  0
 11 32  1  0  0  0  0
 11 33  1  0  0  0  0
 12 19  1  0  0  0  0
 12 13  1  0  0  0  0
 12 46  1  0  0  0  0
 13 14  1  0  0  0  0
 13 34  1  0  0  0  0
 13 35  1  0  0  0  0
 14 15  1  0  0  0  0
 14 16  1  0  0  0  0
 14 36  1  0  0  0  0
 15 37  1  0  0  0  0
 15 38  1  0  0  0  0
 15 39  1  0  0  0  0
 16 17  1  0  0  0  0
 17 18  1  0  0  0  0
 17 19  1  0  0  0  0
 17 40  1  0  0  0  0
 18 41  1  0  0  0  0
 18 42  1  0  0  0  0
 18 43  1  0  0  0  0
 19 44  1  0  0  0  0
 19 45  1  0  0  0  0
 20 21  1  0  0  0  0
M  CHG  1  12   1
M  END
> <s_m_source_file>
AV-unprocessed.smi

> <i_m_source_file_index>
2061

> <i_lp_mmshare_version>
43012

> <i_f3d_flags>
0

> <s_epik_input>
W0NIM11jMVtjSF1jKG5vMSlbTkhdQyg9TylbTkhdW0NIMl1bQ0BIXShbQ0gzXSlOMltDSDJdW0NAQEhdKFtDSDNdKU9bQ0BASF0oW0NIM10pW0NIMl0y

> <s_epik_cmdline>
J2VwaWtfcHl0aG9uJywgJy1waCcsICc3LjAnLCAnLXRuJywgJzgnLCAnLW1hJywgJzIwMCcsICctbWV0YWxfYmluZGluZycsICctaW1hZScsICc8aW5maWxlLm1hZT4nLCAnLW9tYWUnLCAnPG91dGZpbGUubWFlPic=

> <r_epik_Ionization_Penalty>
0.707076

> <r_epik_Ionization_Penalty_Charging>
0.707039

> <r_epik_Ionization_Penalty_Neutral>
3.6548e-05

> <r_epik_State_Penalty>
0.730276

> <r_epik_Charging_Adjusted_Penalty>
1.43732

> <i_epik_Tot_Q>
1

> <i_epik_Tot_abs_Q>
1

> <r_epik_Metal_State_Penalty>
0.743132

> <b_epik_Metal_Only>
0

> <s_lp_Force_Field>
OPLS_2005

> <r_lp_Energy>
16.4142

> <b_lp_Chiralities_Consistent>
1

> <s_lp_Variant>
AV-unprocessed.smi:2061-8

> <Gold.Version>
5.8.1

> <Gold.Id.Protein>
6NUR|6NUR_protein|mol2

> <Gold.PLP.Fitness>
38.3653

> <Gold.PLP.PLP>
-27.8397

> <Gold.PLP.part.hbond>
-3.0000

> <Gold.PLP.part.metal>
0.0000

> <Gold.PLP.part.buried>
-3.8901

> <Gold.PLP.part.nonpolar>
-21.6707

> <Gold.PLP.part.repulsive>
0.2601

> <Gold.PLP.ligand.clash>
0.0000

> <Gold.PLP.ligand.torsion>
0.4501

> <Gold.PLP.Chemscore.Hbond>
3.7920

> <Gold.PLP.Chemscore.CHOScore>
0.0000

> <Gold.PLP.Chemscore.Metal>
0.0000

> <Gold.Chemscore.Hbonds>
donor molecule, donor type, donor heavy atom, donor atom, acceptor molecule, acceptor atom, score
      L1  H    12    46       P1  7948  2.00
      P1  H  6931  6943       L1    20  0.85
      P1  H  6934  6947       L1    20  0.96

> <Gold.PLP.Chemscore.Internal.Correction>
0.0498

> <Gold.Rescore>
     Score         DG    S(hbond)    S(metal)    S(lipo)     H(rot)  DE(clash)    DE(int)     intcor
     14.93     -16.66       2.53        0.00      57.93       1.58       0.00       1.74       ----

> <Gold.Chemscore.Fitness>
14.9266

> <Gold.Chemscore.DG>
-16.6643

> <Gold.Chemscore.ZeroCoef>
-5.4800

> <Gold.Chemscore.Hbond>
2.5328

> <Gold.Chemscore.Metal>
0.0000

> <Gold.Chemscore.Lipo>
57.9340

> <Gold.Chemscore.Internal_Hbond>
0.0000

> <Gold.Chemscore.DEClash>
0.0009

> <Gold.Chemscore.DEInternal>
1.7367

> <Gold.Chemscore.Rot>
1.5834

> <Gold.Chemscore.Internal.Correction>
   9.000000E+99

> <Gold.Chemscore.Hbonds>
donor molecule, donor type, donor heavy atom, donor atom, acceptor molecule, acceptor atom, score
      L1  H    12    46       P1  7948  1.00
      P1  H  6931  6943       L1    20  0.37
      P1  H  6934  6947       L1    20  0.85

> <Gold.Chemscore.Hbond.Weighted>
-8.4595

> <Gold.Chemscore.Metal.Weighted>
-0.0000

> <Gold.Chemscore.Lipo.Weighted>
-6.7783

> <Gold.Chemscore.Internal_Hbond.Weighted>
0.0000

> <Gold.Chemscore.DEClash.Weighted>
0.0009

> <Gold.Chemscore.DEInternal.Weighted>
1.7367

> <Gold.Chemscore.Rot.Weighted>
4.0535

> <Gold.Chemscore.Internal.Correction.Weighted>
   9.000000E+99

> <Gold.Protein.RotatedTorsions>
[ 6907 6896 6895 6894 ] final -110.70 input  -60.11 | X-H torsion
[ 7974 7965 7964 7962 ] final   66.26 input  175.53 | X-H torsion
[ 8008 7997 7996 7995 ] final  -97.27 input   59.86 | X-H torsion
[ 10167 10162 10161 10158 ] final -119.49 input  -65.29 | X-H torsion
[ 10718 10713 10712 10709 ] final   40.94 input   66.30 | X-H torsion
[ 10763 10752 10751 10750 ] final   85.33 input  -60.55 | X-H torsion
[ 11005 11000 10999 10996 ] final   -4.59 input  -57.11 | X-H torsion

> <Gold.Protein.ActiveResidues>
 VAL166  LYS551  ARG553  GLY616  TRP617  ASP618  TYR619  PRO620  LYS621  CYS622 
 ASP623  PHE694  ASN695  SER759  ASP760  ASP761  ALA762  ILE779  LEU786  VAL792 
 PHE793  MET794  SER795  GLU796  ALA797  LYS798  CYS799  TRP800  GLU811  SER814 

> <Gold.Protein.RotatedAtoms>
  150.7642  133.9343  159.3436 H   0  0  0  0  0  0  0  0  0  0  0  0  # atno 6907 bound_to 6896
  151.7245  135.0885  160.0299 H   0  0  0  0  0  0  0  0  0  0  0  0  # atno 6908 bound_to 6896
  152.3629  133.6282  159.6064 H   0  0  0  0  0  0  0  0  0  0  0  0  # atno 6909 bound_to 6896
  145.8287  139.3126  143.1000 H   0  0  0  0  0  0  0  0  0  0  0  0  # atno 7974 bound_to 7965
  154.7855  140.0464  157.1160 H   0  0  0  0  0  0  0  0  0  0  0  0  # atno 8008 bound_to 7997
  154.9654  140.3083  155.4992 H   0  0  0  0  0  0  0  0  0  0  0  0  # atno 8009 bound_to 7997
  156.2942  140.2263  156.4742 H   0  0  0  0  0  0  0  0  0  0  0  0  # atno 8010 bound_to 7997
  140.0461  143.5106  152.2106 H   0  0  0  0  0  0  0  0  0  0  0  0  # atno 10167 bound_to 10162
  157.3879  130.7790  149.7245 H   0  0  0  0  0  0  0  0  0  0  0  0  # atno 10718 bound_to 10713
  153.1465  135.4621  154.9573 H   0  0  0  0  0  0  0  0  0  0  0  0  # atno 10763 bound_to 10752
  154.7790  135.3182  154.8033 H   0  0  0  0  0  0  0  0  0  0  0  0  # atno 10764 bound_to 10752
  153.8546  135.6918  153.4843 H   0  0  0  0  0  0  0  0  0  0  0  0  # atno 10765 bound_to 10752
  140.6820  133.9146  155.8561 H   0  0  0  0  0  0  0  0  0  0  0  0  # atno 11005 bound_to 11000
  145.9595  140.8846  143.0218 LP  0  0  0  0  0  0  0  0  0  0  0  0  # atno 17320 bound_to 7965
  144.6741  140.1793  143.7407 LP  0  0  0  0  0  0  0  0  0  0  0  0  # atno 17321 bound_to 7965
  139.5983  144.7574  151.3233 LP  0  0  0  0  0  0  0  0  0  0  0  0  # atno 17342 bound_to 10162
  140.7238  143.7061  150.7806 LP  0  0  0  0  0  0  0  0  0  0  0  0  # atno 17343 bound_to 10162
  155.9791  130.4044  150.3608 LP  0  0  0  0  0  0  0  0  0  0  0  0  # atno 17370 bound_to 10713
  157.1720  131.0371  151.2790 LP  0  0  0  0  0  0  0  0  0  0  0  0  # atno 17371 bound_to 10713
  141.0310  134.0756  157.4014 LP  0  0  0  0  0  0  0  0  0  0  0  0  # atno 17394 bound_to 11000
  139.8949  135.0138  156.6974 LP  0  0  0  0  0  0  0  0  0  0  0  0  # atno 17395 bound_to 11000

$$$$
