AV-unprocessed.smi:958|AV-procd|sdf|4268|dock2
  -GOLD-   22720 2173D 1   1.00000     0.00000
 Structure written by MMmdl.
 31 33  0  0  0  0  0  0  0  0  2 V2000
  153.1154  140.7551  158.9553 C   0  0  0  0  0  0  0  0  0  0  0  0
  153.3049  139.7133  158.1478 N   0  0  0  0  0  0  0  0  0  0  0  0
  152.3864  139.8892  157.1339 N   0  0  0  0  0  0  0  0  0  0  0  0
  151.7252  141.0152  157.4331 C   0  0  0  0  0  0  0  0  0  0  0  0
  150.6131  141.5698  156.5873 C   0  0  1  0  0  0  0  0  0  0  0  0
  150.3952  140.7405  155.3073 C   0  0  0  0  0  0  0  0  0  0  0  0
  149.2509  141.3332  154.4708 C   0  0  0  0  0  0  0  0  0  0  0  0
  147.9702  141.4706  155.3109 C   0  0  0  0  0  0  0  0  0  0  0  0
  148.2251  142.2724  156.5275 N   0  3  0  0  0  0  0  0  0  0  0  0
  149.2966  141.7098  157.3790 C   0  0  0  0  0  0  0  0  0  0  0  0
  152.1661  141.6177  158.5588 N   0  0  0  0  0  0  0  0  0  0  0  0
  151.7015  142.8216  159.2278 C   0  0  0  0  0  0  0  0  0  0  0  0
  151.8552  144.0864  158.4140 C   0  0  0  0  0  0  0  0  0  0  0  0
  152.7858  143.8170  159.5754 C   0  0  0  0  0  0  0  0  0  0  0  0
  153.6883  140.8945  159.8605 H   0  0  0  0  0  0  0  0  0  0  0  0
  150.8949  142.5752  156.2745 H   0  0  0  0  0  0  0  0  0  0  0  0
  151.3107  140.7100  154.7156 H   0  0  0  0  0  0  0  0  0  0  0  0
  150.1581  139.7078  155.5670 H   0  0  0  0  0  0  0  0  0  0  0  0
  149.5460  142.3111  154.0879 H   0  0  0  0  0  0  0  0  0  0  0  0
  149.0612  140.7044  153.6001 H   0  0  0  0  0  0  0  0  0  0  0  0
  147.1844  141.9504  154.7268 H   0  0  0  0  0  0  0  0  0  0  0  0
  147.5979  140.4865  155.5993 H   0  0  0  0  0  0  0  0  0  0  0  0
  148.4952  143.2042  156.2465 H   0  0  0  0  0  0  0  0  0  0  0  0
  148.9714  140.7416  157.7626 H   0  0  0  0  0  0  0  0  0  0  0  0
  149.4396  142.3625  158.2407 H   0  0  0  0  0  0  0  0  0  0  0  0
  150.8429  142.6669  159.8782 H   0  0  0  0  0  0  0  0  0  0  0  0
  152.2708  144.0071  157.4111 H   0  0  0  0  0  0  0  0  0  0  0  0
  151.1022  144.8607  158.5448 H   0  0  0  0  0  0  0  0  0  0  0  0
  152.6479  144.4134  160.4750 H   0  0  0  0  0  0  0  0  0  0  0  0
  153.8189  143.5710  159.3363 H   0  0  0  0  0  0  0  0  0  0  0  0
  147.3732  142.3292  157.0675 H   0  0  0  0  0  0  0  0  0  0  0  0
  1 11  1  0  0  0  0
  1  2  2  0  0  0  0
  1 15  1  0  0  0  0
  2  3  1  0  0  0  0
  3  4  2  0  0  0  0
  4  5  1  0  0  0  0
  4 11  1  0  0  0  0
  5 10  1  0  0  0  0
  5  6  1  0  0  0  0
  5 16  1  0  0  0  0
  6  7  1  0  0  0  0
  6 17  1  0  0  0  0
  6 18  1  0  0  0  0
  7  8  1  0  0  0  0
  7 19  1  0  0  0  0
  7 20  1  0  0  0  0
  8  9  1  0  0  0  0
  8 21  1  0  0  0  0
  8 22  1  0  0  0  0
  9 10  1  0  0  0  0
  9 23  1  0  0  0  0
  9 31  1  0  0  0  0
 10 24  1  0  0  0  0
 10 25  1  0  0  0  0
 11 12  1  0  0  0  0
 12 14  1  0  0  0  0
 12 13  1  0  0  0  0
 12 26  1  0  0  0  0
 13 14  1  0  0  0  0
 13 27  1  0  0  0  0
 13 28  1  0  0  0  0
 14 29  1  0  0  0  0
 14 30  1  0  0  0  0
M  CHG  1   9   1
M  END
> <s_m_source_file>
AV-unprocessed.smi

> <i_m_source_file_index>
958

> <i_lp_mmshare_version>
43012

> <i_f3d_flags>
0

> <s_epik_input>
W0NIMl0xW0NIMl1bQ0hdMW4yW2NIXW5uYzJbQ0BASF0zW0NIMl1bQ0gyXVtDSDJdW05IXVtDSDJdMw==

> <s_epik_cmdline>
J2VwaWtfcHl0aG9uJywgJy1waCcsICc3LjAnLCAnLXRuJywgJzgnLCAnLW1hJywgJzIwMCcsICctbWV0YWxfYmluZGluZycsICctaW1hZScsICc8aW5maWxlLm1hZT4nLCAnLW9tYWUnLCAnPG91dGZpbGUubWFlPic=

> <r_lp_tautomer_probability>
1

> <r_epik_Ionization_Penalty>
0.000442722

> <r_epik_Ionization_Penalty_Charging>
0.000426856

> <r_epik_Ionization_Penalty_Neutral>
1.58656e-05

> <r_epik_State_Penalty>
-0

> <r_epik_Charging_Adjusted_Penalty>
0.000426856

> <i_epik_Tot_Q>
1

> <i_epik_Tot_abs_Q>
1

> <r_epik_Metal_State_Penalty>
-0

> <b_epik_Metal_Only>
0

> <s_lp_Force_Field>
OPLS_2005

> <r_lp_Energy>
27.2192

> <b_lp_Chiralities_Consistent>
1

> <s_lp_Variant>
AV-unprocessed.smi:958-2

> <Gold.Version>
5.8.1

> <Gold.Id.Protein>
6NUR|6NUR_protein|mol2

> <Gold.PLP.Fitness>
38.8449

> <Gold.PLP.PLP>
-30.0516

> <Gold.PLP.part.hbond>
-2.8393

> <Gold.PLP.part.metal>
0.0000

> <Gold.PLP.part.buried>
-1.4584

> <Gold.PLP.part.nonpolar>
-25.1683

> <Gold.PLP.part.repulsive>
0.0151

> <Gold.PLP.ligand.clash>
0.0000

> <Gold.PLP.ligand.torsion>
0.0905

> <Gold.PLP.Chemscore.Hbond>
2.9600

> <Gold.PLP.Chemscore.CHOScore>
0.0000

> <Gold.PLP.Chemscore.Metal>
0.0000

> <Gold.Chemscore.Hbonds>
donor molecule, donor type, donor heavy atom, donor atom, acceptor molecule, acceptor atom, score
      L1  H     9    23       P1  8028  2.00
      P1  H  7997  8009       L1     2  0.93

> <Gold.PLP.Chemscore.Internal.Correction>
0.0943

> <Gold.Rescore>
     Score         DG    S(hbond)    S(metal)    S(lipo)     H(rot)  DE(clash)    DE(int)     intcor
     13.83     -14.11       1.13        0.00      68.92       1.25       0.04       0.24       ----

> <Gold.Chemscore.Fitness>
13.8324

> <Gold.Chemscore.DG>
-14.1146

> <Gold.Chemscore.ZeroCoef>
-5.4800

> <Gold.Chemscore.Hbond>
1.1283

> <Gold.Chemscore.Metal>
0.0000

> <Gold.Chemscore.Lipo>
68.9216

> <Gold.Chemscore.Internal_Hbond>
0.0000

> <Gold.Chemscore.DEClash>
0.0378

> <Gold.Chemscore.DEInternal>
0.2443

> <Gold.Chemscore.Rot>
1.2491

> <Gold.Chemscore.Internal.Correction>
   9.000000E+99

> <Gold.Chemscore.Hbonds>
donor molecule, donor type, donor heavy atom, donor atom, acceptor molecule, acceptor atom, score
      L1  H     9    23       P1  8028  0.85
      P1  H  7997  8009       L1     2  0.12

> <Gold.Chemscore.Hbond.Weighted>
-3.7685

> <Gold.Chemscore.Metal.Weighted>
-0.0000

> <Gold.Chemscore.Lipo.Weighted>
-8.0638

> <Gold.Chemscore.Internal_Hbond.Weighted>
0.0000

> <Gold.Chemscore.DEClash.Weighted>
0.0378

> <Gold.Chemscore.DEInternal.Weighted>
0.2443

> <Gold.Chemscore.Rot.Weighted>
3.1977

> <Gold.Chemscore.Internal.Correction.Weighted>
   9.000000E+99

> <Gold.Protein.RotatedTorsions>
[ 6907 6896 6895 6894 ] final   60.93 input  -60.11 | X-H torsion
[ 7974 7965 7964 7962 ] final -163.41 input  175.53 | X-H torsion
[ 8008 7997 7996 7995 ] final  136.58 input   59.86 | X-H torsion
[ 10167 10162 10161 10158 ] final   -3.67 input  -65.29 | X-H torsion
[ 10718 10713 10712 10709 ] final  -15.74 input   66.30 | X-H torsion
[ 10763 10752 10751 10750 ] final  126.70 input  -60.55 | X-H torsion
[ 11005 11000 10999 10996 ] final   11.80 input  -57.11 | X-H torsion

> <Gold.Protein.ActiveResidues>
 VAL166  LYS551  ARG553  GLY616  TRP617  ASP618  TYR619  PRO620  LYS621  CYS622 
 ASP623  PHE694  ASN695  SER759  ASP760  ASP761  ALA762  ILE779  LEU786  VAL792 
 PHE793  MET794  SER795  GLU796  ALA797  LYS798  CYS799  TRP800  GLU811  SER814 

> <Gold.Protein.RotatedAtoms>
  152.4045  134.6230  160.0055 H   0  0  0  0  0  0  0  0  0  0  0  0  # atno 6907 bound_to 6896
  151.6425  133.3319  159.3141 H   0  0  0  0  0  0  0  0  0  0  0  0  # atno 6908 bound_to 6896
  150.7942  134.7030  159.6605 H   0  0  0  0  0  0  0  0  0  0  0  0  # atno 6909 bound_to 6896
  144.7327  140.3110  143.6188 H   0  0  0  0  0  0  0  0  0  0  0  0  # atno 7974 bound_to 7965
  156.3004  140.2441  156.3769 H   0  0  0  0  0  0  0  0  0  0  0  0  # atno 8008 bound_to 7997
  154.8737  140.0415  157.1760 H   0  0  0  0  0  0  0  0  0  0  0  0  # atno 8009 bound_to 7997
  154.8768  140.2943  155.5452 H   0  0  0  0  0  0  0  0  0  0  0  0  # atno 8010 bound_to 7997
  140.6899  143.6512  150.8348 H   0  0  0  0  0  0  0  0  0  0  0  0  # atno 10167 bound_to 10162
  156.5975  130.4815  149.6253 H   0  0  0  0  0  0  0  0  0  0  0  0  # atno 10718 bound_to 10713
  153.6975  135.3289  155.3217 H   0  0  0  0  0  0  0  0  0  0  0  0  # atno 10763 bound_to 10752
  154.8422  135.4446  154.1445 H   0  0  0  0  0  0  0  0  0  0  0  0  # atno 10764 bound_to 10752
  153.2503  135.6980  153.7764 H   0  0  0  0  0  0  0  0  0  0  0  0  # atno 10765 bound_to 10752
  140.4991  134.0764  155.7789 H   0  0  0  0  0  0  0  0  0  0  0  0  # atno 11005 bound_to 11000
  145.7664  139.1842  143.2237 LP  0  0  0  0  0  0  0  0  0  0  0  0  # atno 17320 bound_to 7965
  146.0945  140.7616  142.9579 LP  0  0  0  0  0  0  0  0  0  0  0  0  # atno 17321 bound_to 7965
  140.0224  143.5528  152.2795 LP  0  0  0  0  0  0  0  0  0  0  0  0  # atno 17342 bound_to 10162
  139.6291  144.7642  151.2574 LP  0  0  0  0  0  0  0  0  0  0  0  0  # atno 17343 bound_to 10162
  156.2497  130.6900  151.1633 LP  0  0  0  0  0  0  0  0  0  0  0  0  # atno 17370 bound_to 10713
  157.7288  131.0629  150.5803 LP  0  0  0  0  0  0  0  0  0  0  0  0  # atno 17371 bound_to 10713
  141.1445  133.9080  157.2249 LP  0  0  0  0  0  0  0  0  0  0  0  0  # atno 17394 bound_to 11000
  139.9724  135.0124  156.9545 LP  0  0  0  0  0  0  0  0  0  0  0  0  # atno 17395 bound_to 11000

$$$$
