AV-unprocessed.smi:3245|AV-procd|sdf|12406|dock6
  -GOLD-   2272018283D 1   1.00000     0.00000
 Structure written by MMmdl.
 35 36  0  0  0  0  0  0  0  0  3 V2000
  146.9311  140.5592  153.3704 C   0  0  0  0  0  0  0  0  0  0  0  0
  147.1077  139.0908  152.9610 C   0  0  2  0  0  0  0  0  0  0  0  0
  146.3800  138.1564  153.9526 C   0  0  0  0  0  0  0  0  0  0  0  0
  145.4090  137.2908  153.3071 N   0  0  0  0  0  0  0  0  0  0  0  0
  145.6097  136.3885  152.2837 C   0  0  0  0  0  0  0  0  0  0  0  0
  144.4095  135.7879  152.0319 C   0  0  0  0  0  0  0  0  0  0  0  0
  143.5224  136.3993  152.9614 C   0  0  0  0  0  0  0  0  0  0  0  0
  144.1231  137.3010  153.7213 N   0  0  0  0  0  0  0  0  0  0  0  0
  148.5516  138.7714  152.8845 N   0  3  0  0  0  0  0  0  0  0  0  0
  149.2516  138.7476  154.1845 C   0  0  0  0  0  0  0  0  0  0  0  0
  150.6163  138.0573  154.0598 C   0  0  0  0  0  0  0  0  0  0  0  0
  151.5389  138.5396  155.0898 N   0  0  0  0  0  0  0  0  0  0  0  0
  152.2281  137.7429  155.9121 C   0  0  0  0  0  0  0  0  0  0  0  0
  152.2085  136.5127  155.9637 O   0  0  0  0  0  0  0  0  0  0  0  0
  153.0845  138.6264  156.7887 C   0  0  0  0  0  0  0  0  0  0  0  0
  152.7624  139.9489  156.3009 N   0  5  0  0  0  0  0  0  0  0  0  0
  151.8550  139.8305  155.3042 C   0  0  0  0  0  0  0  0  0  0  0  0
  151.3615  140.7441  154.6440 O   0  0  0  0  0  0  0  0  0  0  0  0
  145.8761  140.8332  153.4044 H   0  0  0  0  0  0  0  0  0  0  0  0
  147.4199  141.2267  152.6600 H   0  0  0  0  0  0  0  0  0  0  0  0
  147.3563  140.7519  154.3560 H   0  0  0  0  0  0  0  0  0  0  0  0
  146.6629  138.9752  151.9710 H   0  0  0  0  0  0  0  0  0  0  0  0
  147.0984  137.5399  154.4959 H   0  0  0  0  0  0  0  0  0  0  0  0
  145.8525  138.7471  154.7027 H   0  0  0  0  0  0  0  0  0  0  0  0
  146.5793  136.2453  151.8299 H   0  0  0  0  0  0  0  0  0  0  0  0
  144.1971  135.0254  151.2972 H   0  0  0  0  0  0  0  0  0  0  0  0
  142.4681  136.2142  153.1071 H   0  0  0  0  0  0  0  0  0  0  0  0
  148.6590  137.8593  152.4644 H   0  0  0  0  0  0  0  0  0  0  0  0
  149.3921  139.7635  154.5526 H   0  0  0  0  0  0  0  0  0  0  0  0
  148.6268  138.2310  154.9142 H   0  0  0  0  0  0  0  0  0  0  0  0
  150.5008  136.9747  154.1341 H   0  0  0  0  0  0  0  0  0  0  0  0
  151.0381  138.2433  153.0702 H   0  0  0  0  0  0  0  0  0  0  0  0
  152.8210  138.4774  157.8364 H   0  0  0  0  0  0  0  0  0  0  0  0
  154.1360  138.3659  156.6644 H   0  0  0  0  0  0  0  0  0  0  0  0
  148.9951  139.4551  152.2873 H   0  0  0  0  0  0  0  0  0  0  0  0
  1  2  1  0  0  0  0
  1 19  1  0  0  0  0
  1 20  1  0  0  0  0
  1 21  1  0  0  0  0
  2  3  1  0  0  0  0
  2  9  1  0  0  0  0
  2 22  1  0  0  0  0
  3  4  1  0  0  0  0
  3 23  1  0  0  0  0
  3 24  1  0  0  0  0
  4  8  1  0  0  0  0
  4  5  1  0  0  0  0
  5  6  2  0  0  0  0
  5 25  1  0  0  0  0
  6  7  1  0  0  0  0
  6 26  1  0  0  0  0
  7  8  2  0  0  0  0
  7 27  1  0  0  0  0
  9 10  1  0  0  0  0
  9 28  1  0  0  0  0
  9 35  1  0  0  0  0
 10 11  1  0  0  0  0
 10 29  1  0  0  0  0
 10 30  1  0  0  0  0
 11 12  1  0  0  0  0
 11 31  1  0  0  0  0
 11 32  1  0  0  0  0
 12 17  1  0  0  0  0
 12 13  1  0  0  0  0
 13 14  2  0  0  0  0
 13 15  1  0  0  0  0
 15 16  1  0  0  0  0
 15 33  1  0  0  0  0
 15 34  1  0  0  0  0
 16 17  1  0  0  0  0
 17 18  2  0  0  0  0
M  CHG  1   9   1
M  CHG  1  16  -1
M  END
> <s_m_source_file>
AV-unprocessed.smi

> <i_m_source_file_index>
3245

> <i_lp_mmshare_version>
43012

> <i_f3d_flags>
0

> <s_epik_input>
bjFbY0hdW2NIXVtjSF1uMVtDSDJdW0NAQEhdKFtDSDNdKVtOSF1bQ0gyXVtDSDJdTjJDKD1PKVtDSDJdW05IXUMyPU8=

> <s_epik_cmdline>
J2VwaWtfcHl0aG9uJywgJy1waCcsICc3LjAnLCAnLXRuJywgJzgnLCAnLW1hJywgJzIwMCcsICctbWV0YWxfYmluZGluZycsICctaW1hZScsICc8aW5maWxlLm1hZT4nLCAnLW9tYWUnLCAnPG91dGZpbGUubWFlPic=

> <r_lp_tautomer_probability>
1

> <r_epik_Ionization_Penalty>
5.1873

> <r_epik_Ionization_Penalty_Charging>
5.18729

> <r_epik_Ionization_Penalty_Neutral>
3.83745e-06

> <r_epik_State_Penalty>
5.18822

> <r_epik_Charging_Adjusted_Penalty>
10.3755

> <i_epik_Tot_Q>
0

> <i_epik_Tot_abs_Q>
2

> <r_epik_Metal_State_Penalty>
1.25934

> <b_epik_Metal_Only>
1

> <s_lp_Force_Field>
OPLS_2005

> <r_lp_Energy>
10.3219

> <b_lp_Chiralities_Consistent>
1

> <s_lp_Variant>
AV-unprocessed.smi:3245-5

> <Gold.Version>
5.8.1

> <Gold.Id.Protein>
6NUR|6NUR_protein|mol2

> <Gold.PLP.Fitness>
50.3566

> <Gold.PLP.PLP>
-28.4745

> <Gold.PLP.part.hbond>
-4.7839

> <Gold.PLP.part.metal>
0.0000

> <Gold.PLP.part.buried>
-4.0315

> <Gold.PLP.part.nonpolar>
-21.0518

> <Gold.PLP.part.repulsive>
0.2973

> <Gold.PLP.ligand.clash>
0.0000

> <Gold.PLP.ligand.torsion>
1.0330

> <Gold.PLP.Chemscore.Hbond>
6.9600

> <Gold.PLP.Chemscore.CHOScore>
1.0000

> <Gold.PLP.Chemscore.Metal>
0.0000

> <Gold.Chemscore.Hbonds>
donor molecule, donor type, donor heavy atom, donor atom, acceptor molecule, acceptor atom, score
      L1  H     9    28       P1  7948  2.00
      L1  H     9    35       P1  7957  0.68
      P1  H  7989  7998       L1    18  0.10
      P1  H  7997  8008       L1    16  0.20
      P1  H 10752 10763       L1    14  1.00
      L1  C     5    25       P1  7948  1.00

> <Gold.PLP.Chemscore.Internal.Correction>
0.0680

> <Gold.Rescore>
     Score         DG    S(hbond)    S(metal)    S(lipo)     H(rot)  DE(clash)    DE(int)     intcor
     16.71     -17.56       4.12        0.00      43.99       2.66       0.07       0.79       ----

> <Gold.Chemscore.Fitness>
16.7108

> <Gold.Chemscore.DG>
-17.5644

> <Gold.Chemscore.ZeroCoef>
-5.4800

> <Gold.Chemscore.Hbond>
4.1159

> <Gold.Chemscore.Metal>
0.0000

> <Gold.Chemscore.Lipo>
43.9913

> <Gold.Chemscore.Internal_Hbond>
0.0000

> <Gold.Chemscore.DEClash>
0.0660

> <Gold.Chemscore.DEInternal>
0.7876

> <Gold.Chemscore.Rot>
2.6601

> <Gold.Chemscore.Internal.Correction>
   9.000000E+99

> <Gold.Chemscore.Hbonds>
donor molecule, donor type, donor heavy atom, donor atom, acceptor molecule, acceptor atom, score
      L1  H     9    28       P1  7948  1.00
      L1  H     9    35       P1  7957  0.68
      P1  H  7989  7998       L1    18  0.12
      P1  H 10752 10763       L1    14  0.99

> <Gold.Chemscore.Hbond.Weighted>
-13.7471

> <Gold.Chemscore.Metal.Weighted>
-0.0000

> <Gold.Chemscore.Lipo.Weighted>
-5.1470

> <Gold.Chemscore.Internal_Hbond.Weighted>
0.0000

> <Gold.Chemscore.DEClash.Weighted>
0.0660

> <Gold.Chemscore.DEInternal.Weighted>
0.7876

> <Gold.Chemscore.Rot.Weighted>
6.8098

> <Gold.Chemscore.Internal.Correction.Weighted>
   9.000000E+99

> <Gold.Protein.RotatedTorsions>
[ 6907 6896 6895 6894 ] final  -39.46 input  -60.11 | X-H torsion
[ 7974 7965 7964 7962 ] final   85.12 input  175.53 | X-H torsion
[ 8008 7997 7996 7995 ] final  -46.07 input   59.86 | X-H torsion
[ 10167 10162 10161 10158 ] final -106.33 input  -65.29 | X-H torsion
[ 10718 10713 10712 10709 ] final  -21.37 input   66.30 | X-H torsion
[ 10763 10752 10751 10750 ] final   91.81 input  -60.55 | X-H torsion
[ 11005 11000 10999 10996 ] final   63.04 input  -57.11 | X-H torsion

> <Gold.Protein.ActiveResidues>
 VAL166  LYS551  ARG553  GLY616  TRP617  ASP618  TYR619  PRO620  LYS621  CYS622 
 ASP623  PHE694  ASN695  SER759  ASP760  ASP761  ALA762  ILE779  LEU786  VAL792 
 PHE793  MET794  SER795  GLU796  ALA797  LYS798  CYS799  TRP800  GLU811  SER814 

> <Gold.Protein.RotatedAtoms>
  150.9900  134.9237  159.7893 H   0  0  0  0  0  0  0  0  0  0  0  0  # atno 6907 bound_to 6896
  152.5248  134.3294  159.9187 H   0  0  0  0  0  0  0  0  0  0  0  0  # atno 6908 bound_to 6896
  151.3300  133.3963  159.2696 H   0  0  0  0  0  0  0  0  0  0  0  0  # atno 6909 bound_to 6896
  145.5897  139.2336  143.2306 H   0  0  0  0  0  0  0  0  0  0  0  0  # atno 7974 bound_to 7965
  154.4005  140.1381  156.3951 H   0  0  0  0  0  0  0  0  0  0  0  0  # atno 8008 bound_to 7997
  155.7878  140.3479  155.5312 H   0  0  0  0  0  0  0  0  0  0  0  0  # atno 8009 bound_to 7997
  155.8610  140.0956  157.1604 H   0  0  0  0  0  0  0  0  0  0  0  0  # atno 8010 bound_to 7997
  140.1889  143.3907  152.1222 H   0  0  0  0  0  0  0  0  0  0  0  0  # atno 10167 bound_to 10162
  156.5191  130.4628  149.6606 H   0  0  0  0  0  0  0  0  0  0  0  0  # atno 10718 bound_to 10713
  153.2123  135.4384  155.0393 H   0  0  0  0  0  0  0  0  0  0  0  0  # atno 10763 bound_to 10752
  154.8206  135.3336  154.7051 H   0  0  0  0  0  0  0  0  0  0  0  0  # atno 10764 bound_to 10752
  153.7488  135.6999  153.5006 H   0  0  0  0  0  0  0  0  0  0  0  0  # atno 10765 bound_to 10752
  140.0051  134.6381  155.9868 H   0  0  0  0  0  0  0  0  0  0  0  0  # atno 11005 bound_to 11000
  146.1656  140.6723  142.9257 LP  0  0  0  0  0  0  0  0  0  0  0  0  # atno 17320 bound_to 7965
  144.7357  140.4800  143.6906 LP  0  0  0  0  0  0  0  0  0  0  0  0  # atno 17321 bound_to 7965
  139.5264  144.7107  151.5214 LP  0  0  0  0  0  0  0  0  0  0  0  0  # atno 17342 bound_to 10162
  140.6469  143.8776  150.6746 LP  0  0  0  0  0  0  0  0  0  0  0  0  # atno 17343 bound_to 10162
  156.3167  130.7258  151.2162 LP  0  0  0  0  0  0  0  0  0  0  0  0  # atno 17370 bound_to 10713
  157.7439  131.0467  150.4905 LP  0  0  0  0  0  0  0  0  0  0  0  0  # atno 17371 bound_to 10713
  141.1671  133.6537  156.4518 LP  0  0  0  0  0  0  0  0  0  0  0  0  # atno 17394 bound_to 11000
  140.4655  134.6801  157.5105 LP  0  0  0  0  0  0  0  0  0  0  0  0  # atno 17395 bound_to 11000

$$$$
