AV-unprocessed.smi:1131|AV-procd|sdf|4853|dock3
  -GOLD-   22720 3423D 1   1.00000     0.00000
 Structure written by MMmdl.
 32 33  0  0  0  0  0  0  0  0  2 V2000
  146.0596  138.4901  154.8967 O   0  0  0  0  0  0  0  0  0  0  0  0
  146.8363  138.1633  153.9980 C   0  0  0  0  0  0  0  0  0  0  0  0
  147.7723  139.1966  153.3564 C   0  0  0  0  0  0  0  0  0  0  0  0
  149.0338  139.3684  154.0949 N   0  0  0  0  0  0  0  0  0  0  0  0
  149.7519  138.2103  154.4415 C   0  0  0  0  0  0  0  0  0  0  0  0
  150.9136  138.2711  155.1200 C   0  0  0  0  0  0  0  0  0  0  0  0
  151.4253  139.5831  155.4960 C   0  0  0  0  0  0  0  0  0  0  0  0
  152.4879  139.6581  156.1101 O   0  0  0  0  0  0  0  0  0  0  0  0
  150.6892  140.6769  155.1416 N   0  5  0  0  0  0  0  0  0  0  0  0
  149.5077  140.5996  154.4538 C   0  0  0  0  0  0  0  0  0  0  0  0
  148.8579  141.5996  154.1455 O   0  0  0  0  0  0  0  0  0  0  0  0
  146.9482  136.9061  153.5427 N   0  0  0  0  0  0  0  0  0  0  0  0
  146.1742  135.7616  154.0128 C   0  0  0  0  0  0  0  0  0  0  0  0
  145.4210  135.0664  152.8629 C   0  0  1  0  0  0  0  0  0  0  0  0
  144.6076  135.9852  151.9712 C   0  0  0  0  0  0  0  0  0  0  0  0
  144.4168  135.1300  150.7220 C   0  0  0  0  0  0  0  0  0  0  0  0
  145.5624  134.2858  150.6463 O   0  0  0  0  0  0  0  0  0  0  0  0
  146.3391  134.4084  151.8338 C   0  0  0  0  0  0  0  0  0  0  0  0
  147.9719  138.8809  152.3318 H   0  0  0  0  0  0  0  0  0  0  0  0
  147.2580  140.1551  153.2653 H   0  0  0  0  0  0  0  0  0  0  0  0
  149.3012  137.2792  154.1311 H   0  0  0  0  0  0  0  0  0  0  0  0
  151.4517  137.3720  155.3814 H   0  0  0  0  0  0  0  0  0  0  0  0
  147.6156  136.7314  152.8052 H   0  0  0  0  0  0  0  0  0  0  0  0
  146.8117  135.0516  154.5427 H   0  0  0  0  0  0  0  0  0  0  0  0
  145.4557  136.1291  154.7459 H   0  0  0  0  0  0  0  0  0  0  0  0
  144.7585  134.3022  153.2733 H   0  0  0  0  0  0  0  0  0  0  0  0
  143.6631  136.2958  152.4187 H   0  0  0  0  0  0  0  0  0  0  0  0
  145.1795  136.8813  151.7260 H   0  0  0  0  0  0  0  0  0  0  0  0
  143.5312  134.5014  150.8227 H   0  0  0  0  0  0  0  0  0  0  0  0
  144.3044  135.7320  149.8199 H   0  0  0  0  0  0  0  0  0  0  0  0
  147.1977  135.0460  151.6178 H   0  0  0  0  0  0  0  0  0  0  0  0
  146.7138  133.4401  152.1660 H   0  0  0  0  0  0  0  0  0  0  0  0
  1  2  2  0  0  0  0
  2  3  1  0  0  0  0
  2 12  1  0  0  0  0
  3  4  1  0  0  0  0
  3 19  1  0  0  0  0
  3 20  1  0  0  0  0
  4 10  1  0  0  0  0
  4  5  1  0  0  0  0
  5  6  2  0  0  0  0
  5 21  1  0  0  0  0
  6  7  1  0  0  0  0
  6 22  1  0  0  0  0
  7  8  2  0  0  0  0
  7  9  1  0  0  0  0
  9 10  1  0  0  0  0
 10 11  2  0  0  0  0
 12 13  1  0  0  0  0
 12 23  1  0  0  0  0
 13 14  1  0  0  0  0
 13 24  1  0  0  0  0
 13 25  1  0  0  0  0
 14 18  1  0  0  0  0
 14 15  1  0  0  0  0
 14 26  1  0  0  0  0
 15 16  1  0  0  0  0
 15 27  1  0  0  0  0
 15 28  1  0  0  0  0
 16 17  1  0  0  0  0
 16 29  1  0  0  0  0
 16 30  1  0  0  0  0
 17 18  1  0  0  0  0
 18 31  1  0  0  0  0
 18 32  1  0  0  0  0
M  CHG  1   9  -1
M  END
> <s_m_source_file>
AV-unprocessed.smi

> <i_m_source_file_index>
1131

> <i_lp_mmshare_version>
43012

> <i_f3d_flags>
0

> <s_epik_input>
W0NIMl0xT1tDSDJdW0NIMl1bQ0BIXTFbQ0gyXVtOSF1DKD1PKVtDSDJdbjJbY0hdW2NIXWMoPU8pW25IXWMyPU8=

> <s_epik_cmdline>
J2VwaWtfcHl0aG9uJywgJy1waCcsICc3LjAnLCAnLXRuJywgJzgnLCAnLW1hJywgJzIwMCcsICctbWV0YWxfYmluZGluZycsICctaW1hZScsICc8aW5maWxlLm1hZT4nLCAnLW9tYWUnLCAnPG91dGZpbGUubWFlPic=

> <r_lp_tautomer_probability>
0.999537

> <r_epik_Ionization_Penalty>
3.07866

> <r_epik_Ionization_Penalty_Charging>
2.6898e-08

> <r_epik_Ionization_Penalty_Neutral>
3.07866

> <r_epik_State_Penalty>
3.07769

> <r_epik_Charging_Adjusted_Penalty>
3.07769

> <i_epik_Tot_Q>
-1

> <i_epik_Tot_abs_Q>
1

> <r_epik_Metal_State_Penalty>
0.459839

> <b_epik_Metal_Only>
1

> <s_lp_Force_Field>
OPLS_2005

> <r_lp_Energy>
26.9978

> <b_lp_Chiralities_Consistent>
1

> <s_lp_Variant>
AV-unprocessed.smi:1131-4

> <Gold.Version>
5.8.1

> <Gold.Id.Protein>
6NUR|6NUR_protein|mol2

> <Gold.PLP.Fitness>
36.2500

> <Gold.PLP.PLP>
-25.5000

> <Gold.PLP.part.hbond>
-4.1275

> <Gold.PLP.part.metal>
0.0000

> <Gold.PLP.part.buried>
0.7637

> <Gold.PLP.part.nonpolar>
-21.5231

> <Gold.PLP.part.repulsive>
0.5061

> <Gold.PLP.ligand.clash>
0.0000

> <Gold.PLP.ligand.torsion>
0.4999

> <Gold.PLP.Chemscore.Hbond>
2.9047

> <Gold.PLP.Chemscore.CHOScore>
1.0000

> <Gold.PLP.Chemscore.Metal>
0.0000

> <Gold.Chemscore.Hbonds>
donor molecule, donor type, donor heavy atom, donor atom, acceptor molecule, acceptor atom, score
      L1  H    12    23       P1  7948  1.00
      P1  H  7989  7998       L1     9  0.30
      P1  H  7997  8010       L1     8  1.00
      P1  H  8011  8017       L1    11  0.35
      L1  C     5    21       P1  7948  1.00

> <Gold.PLP.Chemscore.Internal.Correction>
0.0356

> <Gold.Rescore>
     Score         DG    S(hbond)    S(metal)    S(lipo)     H(rot)  DE(clash)    DE(int)     intcor
     11.80     -13.40       2.63        0.00      37.51       2.05       0.93       0.67       ----

> <Gold.Chemscore.Fitness>
11.7999

> <Gold.Chemscore.DG>
-13.4008

> <Gold.Chemscore.ZeroCoef>
-5.4800

> <Gold.Chemscore.Hbond>
2.6260

> <Gold.Chemscore.Metal>
0.0000

> <Gold.Chemscore.Lipo>
37.5095

> <Gold.Chemscore.Internal_Hbond>
0.0000

> <Gold.Chemscore.DEClash>
0.9328

> <Gold.Chemscore.DEInternal>
0.6681

> <Gold.Chemscore.Rot>
2.0463

> <Gold.Chemscore.Internal.Correction>
   9.000000E+99

> <Gold.Chemscore.Hbonds>
donor molecule, donor type, donor heavy atom, donor atom, acceptor molecule, acceptor atom, score
      L1  H    12    23       P1  7948  1.00
      P1  H  7997  8010       L1     8  0.99
      P1  H  8011  8017       L1    11  0.21

> <Gold.Chemscore.Hbond.Weighted>
-8.7708

> <Gold.Chemscore.Metal.Weighted>
-0.0000

> <Gold.Chemscore.Lipo.Weighted>
-4.3886

> <Gold.Chemscore.Internal_Hbond.Weighted>
0.0000

> <Gold.Chemscore.DEClash.Weighted>
0.9328

> <Gold.Chemscore.DEInternal.Weighted>
0.6681

> <Gold.Chemscore.Rot.Weighted>
5.2386

> <Gold.Chemscore.Internal.Correction.Weighted>
   9.000000E+99

> <Gold.Protein.RotatedTorsions>
[ 6907 6896 6895 6894 ] final  162.12 input  -60.11 | X-H torsion
[ 7974 7965 7964 7962 ] final   41.75 input  175.53 | X-H torsion
[ 8008 7997 7996 7995 ] final   90.24 input   59.86 | X-H torsion
[ 10167 10162 10161 10158 ] final   98.94 input  -65.29 | X-H torsion
[ 10718 10713 10712 10709 ] final  -52.92 input   66.30 | X-H torsion
[ 10763 10752 10751 10750 ] final  -47.41 input  -60.55 | X-H torsion
[ 11005 11000 10999 10996 ] final  -73.23 input  -57.11 | X-H torsion

> <Gold.Protein.ActiveResidues>
 VAL166  LYS551  ARG553  GLY616  TRP617  ASP618  TYR619  PRO620  LYS621  CYS622 
 ASP623  PHE694  ASN695  SER759  ASP760  ASP761  ALA762  ILE779  LEU786  VAL792 
 PHE793  MET794  SER795  GLU796  ALA797  LYS798  CYS799  TRP800  GLU811  SER814 

> <Gold.Protein.RotatedAtoms>
  151.9452  133.3649  159.3979 H   0  0  0  0  0  0  0  0  0  0  0  0  # atno 6907 bound_to 6896
  150.6991  134.4398  159.5296 H   0  0  0  0  0  0  0  0  0  0  0  0  # atno 6908 bound_to 6896
  152.2061  134.8544  160.0553 H   0  0  0  0  0  0  0  0  0  0  0  0  # atno 6909 bound_to 6896
  146.0798  139.5380  142.9544 H   0  0  0  0  0  0  0  0  0  0  0  0  # atno 7974 bound_to 7965
  156.0096  140.3351  155.6927 H   0  0  0  0  0  0  0  0  0  0  0  0  # atno 8008 bound_to 7997
  155.6177  140.0672  157.2705 H   0  0  0  0  0  0  0  0  0  0  0  0  # atno 8009 bound_to 7997
  154.4276  140.1782  156.1326 H   0  0  0  0  0  0  0  0  0  0  0  0  # atno 8010 bound_to 7997
  139.7662  144.6938  151.0220 H   0  0  0  0  0  0  0  0  0  0  0  0  # atno 10167 bound_to 10162
  156.1579  130.4150  149.9839 H   0  0  0  0  0  0  0  0  0  0  0  0  # atno 10718 bound_to 10713
  154.0610  135.6618  153.4812 H   0  0  0  0  0  0  0  0  0  0  0  0  # atno 10763 bound_to 10752
  153.0427  135.5134  154.7659 H   0  0  0  0  0  0  0  0  0  0  0  0  # atno 10764 bound_to 10752
  154.6695  135.3027  154.9727 H   0  0  0  0  0  0  0  0  0  0  0  0  # atno 10765 bound_to 10752
  141.1620  133.6872  156.7180 H   0  0  0  0  0  0  0  0  0  0  0  0  # atno 11005 bound_to 11000
  145.6239  141.0317  143.1900 LP  0  0  0  0  0  0  0  0  0  0  0  0  # atno 17320 bound_to 7965
  144.7285  139.7798  143.7356 LP  0  0  0  0  0  0  0  0  0  0  0  0  # atno 17321 bound_to 7965
  140.7811  143.4640  151.0238 LP  0  0  0  0  0  0  0  0  0  0  0  0  # atno 17342 bound_to 10162
  139.8325  143.7672  152.3180 LP  0  0  0  0  0  0  0  0  0  0  0  0  # atno 17343 bound_to 10162
  156.7677  130.9174  151.3643 LP  0  0  0  0  0  0  0  0  0  0  0  0  # atno 17370 bound_to 10713
  157.6710  130.9051  150.0040 LP  0  0  0  0  0  0  0  0  0  0  0  0  # atno 17371 bound_to 10713
  140.2837  134.8296  157.3956 LP  0  0  0  0  0  0  0  0  0  0  0  0  # atno 17394 bound_to 11000
  140.1410  134.4972  155.8032 LP  0  0  0  0  0  0  0  0  0  0  0  0  # atno 17395 bound_to 11000

$$$$
