AV-unprocessed.smi:1663|AV-procd|sdf|6665|dock1
  -GOLD-   22720 7373D 1   1.00000     0.00000
 Structure written by MMmdl.
 39 40  0  0  0  0  0  0  0  0  2 V2000
  146.5680  135.8435  154.5917 C   0  0  0  0  0  0  0  0  0  0  0  0
  147.3415  137.0513  154.2318 N   0  3  2  0  0  0  0  0  0  0  0  0
  147.8318  137.7850  155.4246 C   0  0  0  0  0  0  0  0  0  0  0  0
  148.7361  138.9613  155.0183 C   0  0  0  0  0  0  0  0  0  0  0  0
  148.0119  139.9207  154.0523 C   0  0  1  0  0  0  0  0  0  0  0  0
  148.9077  141.0873  153.5839 C   0  0  0  0  0  0  0  0  0  0  0  0
  149.3052  141.9725  154.6744 N   0  0  0  0  0  0  0  0  0  0  0  0
  150.2680  141.7070  155.5690 C   0  0  0  0  0  0  0  0  0  0  0  0
  150.9535  140.6843  155.5422 O   0  0  0  0  0  0  0  0  0  0  0  0
  150.3745  142.6933  156.4772 N   0  0  0  0  0  0  0  0  0  0  0  0
  151.2416  142.7641  157.6000 C   0  0  0  0  0  0  0  0  0  0  0  0
  151.6650  144.0668  157.9478 C   0  0  0  0  0  0  0  0  0  0  0  0
  152.5215  144.2457  159.0515 C   0  0  0  0  0  0  0  0  0  0  0  0
  152.9335  143.1157  159.7798 C   0  0  0  0  0  0  0  0  0  0  0  0
  152.4677  141.8542  159.3660 C   0  0  0  0  0  0  0  0  0  0  0  0
  151.6471  141.6804  158.3083 N   0  0  0  0  0  0  0  0  0  0  0  0
  147.4820  139.1183  152.8504 C   0  0  0  0  0  0  0  0  0  0  0  0
  146.6032  137.9397  153.3009 C   0  0  0  0  0  0  0  0  0  0  0  0
  145.6656  136.1062  155.1452 H   0  0  0  0  0  0  0  0  0  0  0  0
  147.1665  135.1739  155.2101 H   0  0  0  0  0  0  0  0  0  0  0  0
  146.2731  135.2936  153.6973 H   0  0  0  0  0  0  0  0  0  0  0  0
  146.9825  138.1479  156.0057 H   0  0  0  0  0  0  0  0  0  0  0  0
  148.3890  137.1039  156.0688 H   0  0  0  0  0  0  0  0  0  0  0  0
  149.0546  139.4933  155.9152 H   0  0  0  0  0  0  0  0  0  0  0  0
  149.6431  138.5785  154.5482 H   0  0  0  0  0  0  0  0  0  0  0  0
  147.1508  140.3406  154.5748 H   0  0  0  0  0  0  0  0  0  0  0  0
  149.8150  140.6975  153.1215 H   0  0  0  0  0  0  0  0  0  0  0  0
  148.3992  141.6689  152.8128 H   0  0  0  0  0  0  0  0  0  0  0  0
  148.7914  142.8363  154.7700 H   0  0  0  0  0  0  0  0  0  0  0  0
  149.7463  143.4752  156.3661 H   0  0  0  0  0  0  0  0  0  0  0  0
  151.3373  144.9246  157.3787 H   0  0  0  0  0  0  0  0  0  0  0  0
  152.8555  145.2330  159.3341 H   0  0  0  0  0  0  0  0  0  0  0  0
  153.5893  143.2124  160.6325 H   0  0  0  0  0  0  0  0  0  0  0  0
  152.7612  140.9614  159.8977 H   0  0  0  0  0  0  0  0  0  0  0  0
  146.9070  139.7704  152.1920 H   0  0  0  0  0  0  0  0  0  0  0  0
  148.3181  138.7433  152.2582 H   0  0  0  0  0  0  0  0  0  0  0  0
  146.2852  137.3696  152.4271 H   0  0  0  0  0  0  0  0  0  0  0  0
  145.6982  138.3090  153.7859 H   0  0  0  0  0  0  0  0  0  0  0  0
  148.1596  136.7289  153.7346 H   0  0  0  0  0  0  0  0  0  0  0  0
  1  2  1  0  0  0  0
  1 19  1  0  0  0  0
  1 20  1  0  0  0  0
  1 21  1  0  0  0  0
  2 18  1  0  0  0  0
  2  3  1  0  0  0  0
  2 39  1  0  0  0  0
  3  4  1  0  0  0  0
  3 22  1  0  0  0  0
  3 23  1  0  0  0  0
  4  5  1  0  0  0  0
  4 24  1  0  0  0  0
  4 25  1  0  0  0  0
  5  6  1  0  0  0  0
  5 17  1  0  0  0  0
  5 26  1  0  0  0  0
  6  7  1  0  0  0  0
  6 27  1  0  0  0  0
  6 28  1  0  0  0  0
  7  8  1  0  0  0  0
  7 29  1  0  0  0  0
  8  9  2  0  0  0  0
  8 10  1  0  0  0  0
 10 11  1  0  0  0  0
 10 30  1  0  0  0  0
 11 16  1  0  0  0  0
 11 12  2  0  0  0  0
 12 13  1  0  0  0  0
 12 31  1  0  0  0  0
 13 14  2  0  0  0  0
 13 32  1  0  0  0  0
 14 15  1  0  0  0  0
 14 33  1  0  0  0  0
 15 16  2  0  0  0  0
 15 34  1  0  0  0  0
 17 18  1  0  0  0  0
 17 35  1  0  0  0  0
 17 36  1  0  0  0  0
 18 37  1  0  0  0  0
 18 38  1  0  0  0  0
M  CHG  1   2   1
M  END
> <s_m_source_file>
AV-unprocessed.smi

> <i_m_source_file_index>
1663

> <i_lp_mmshare_version>
43012

> <i_f3d_flags>
0

> <s_epik_input>
W0NIM11OMVtDSDJdW0NIMl1bQ0hdKFtDSDJdW0NIMl0xKVtDSDJdW05IXUMoPU8pW05IXWMyW2NIXVtjSF1bY0hdW2NIXW4y

> <s_epik_cmdline>
J2VwaWtfcHl0aG9uJywgJy1waCcsICc3LjAnLCAnLXRuJywgJzgnLCAnLW1hJywgJzIwMCcsICctbWV0YWxfYmluZGluZycsICctaW1hZScsICc8aW5maWxlLm1hZT4nLCAnLW9tYWUnLCAnPG91dGZpbGUubWFlPic=

> <r_epik_Ionization_Penalty>
0.00110639

> <r_epik_Ionization_Penalty_Charging>
0.00106265

> <r_epik_Ionization_Penalty_Neutral>
4.37361e-05

> <r_epik_State_Penalty>
0.000695551

> <r_epik_Charging_Adjusted_Penalty>
0.0017582

> <i_epik_Tot_Q>
1

> <i_epik_Tot_abs_Q>
1

> <r_epik_Metal_State_Penalty>
-0

> <b_epik_Metal_Only>
0

> <s_lp_Force_Field>
OPLS_2005

> <r_lp_Energy>
18.6494

> <b_lp_Chiralities_Consistent>
1

> <s_lp_Variant>
AV-unprocessed.smi:1663-1

> <Gold.Version>
5.8.1

> <Gold.Id.Protein>
6NUR|6NUR_protein|mol2

> <Gold.PLP.Fitness>
44.9690

> <Gold.PLP.PLP>
-31.7908

> <Gold.PLP.part.hbond>
-4.0000

> <Gold.PLP.part.metal>
0.0000

> <Gold.PLP.part.buried>
0.1807

> <Gold.PLP.part.nonpolar>
-27.2508

> <Gold.PLP.part.repulsive>
0.4328

> <Gold.PLP.ligand.clash>
0.0000

> <Gold.PLP.ligand.torsion>
0.3495

> <Gold.PLP.Chemscore.Hbond>
4.6240

> <Gold.PLP.Chemscore.CHOScore>
0.0000

> <Gold.PLP.Chemscore.Metal>
0.0000

> <Gold.Chemscore.Hbonds>
donor molecule, donor type, donor heavy atom, donor atom, acceptor molecule, acceptor atom, score
      L1  H     2    39       P1  7948  1.54
      L1  H     7    29       P1  8028  0.79
      L1  H    10    30       P1  8028  1.00
      P1  H  7989  7998       L1     9  0.50

> <Gold.PLP.Chemscore.Internal.Correction>
0.0053

> <Gold.Rescore>
     Score         DG    S(hbond)    S(metal)    S(lipo)     H(rot)  DE(clash)    DE(int)     intcor
     16.89     -22.77       3.27        0.00      82.45       1.28       3.55       2.32       ----

> <Gold.Chemscore.Fitness>
16.8920

> <Gold.Chemscore.DG>
-22.7666

> <Gold.Chemscore.ZeroCoef>
-5.4800

> <Gold.Chemscore.Hbond>
3.2660

> <Gold.Chemscore.Metal>
0.0000

> <Gold.Chemscore.Lipo>
82.4549

> <Gold.Chemscore.Internal_Hbond>
0.0000

> <Gold.Chemscore.DEClash>
3.5530

> <Gold.Chemscore.DEInternal>
2.3216

> <Gold.Chemscore.Rot>
1.2770

> <Gold.Chemscore.Internal.Correction>
   9.000000E+99

> <Gold.Chemscore.Hbonds>
donor molecule, donor type, donor heavy atom, donor atom, acceptor molecule, acceptor atom, score
      L1  H     2    39       P1  7948  0.74
      L1  H     7    29       P1  8028  0.74
      L1  H    10    30       P1  8028  1.00
      P1  H  7989  7998       L1     9  0.08

> <Gold.Chemscore.Hbond.Weighted>
-10.9085

> <Gold.Chemscore.Metal.Weighted>
-0.0000

> <Gold.Chemscore.Lipo.Weighted>
-9.6472

> <Gold.Chemscore.Internal_Hbond.Weighted>
0.0000

> <Gold.Chemscore.DEClash.Weighted>
3.5530

> <Gold.Chemscore.DEInternal.Weighted>
2.3216

> <Gold.Chemscore.Rot.Weighted>
3.2691

> <Gold.Chemscore.Internal.Correction.Weighted>
   9.000000E+99

> <Gold.Protein.RotatedTorsions>
[ 6907 6896 6895 6894 ] final   31.83 input  -60.11 | X-H torsion
[ 7974 7965 7964 7962 ] final  179.79 input  175.53 | X-H torsion
[ 8008 7997 7996 7995 ] final  -49.84 input   59.86 | X-H torsion
[ 10167 10162 10161 10158 ] final  131.95 input  -65.29 | X-H torsion
[ 10718 10713 10712 10709 ] final -139.67 input   66.30 | X-H torsion
[ 10763 10752 10751 10750 ] final   66.42 input  -60.55 | X-H torsion
[ 11005 11000 10999 10996 ] final   59.72 input  -57.11 | X-H torsion

> <Gold.Protein.ActiveResidues>
 VAL166  LYS551  ARG553  GLY616  TRP617  ASP618  TYR619  PRO620  LYS621  CYS622 
 ASP623  PHE694  ASN695  SER759  ASP760  ASP761  ALA762  ILE779  LEU786  VAL792 
 PHE793  MET794  SER795  GLU796  ALA797  LYS798  CYS799  TRP800  GLU811  SER814 

> <Gold.Protein.RotatedAtoms>
  152.0658  134.9565  160.0574 H   0  0  0  0  0  0  0  0  0  0  0  0  # atno 6907 bound_to 6896
  152.0911  133.4196  159.4552 H   0  0  0  0  0  0  0  0  0  0  0  0  # atno 6908 bound_to 6896
  150.6837  134.2790  159.4663 H   0  0  0  0  0  0  0  0  0  0  0  0  # atno 6909 bound_to 6896
  144.7142  140.0600  143.6433 H   0  0  0  0  0  0  0  0  0  0  0  0  # atno 7974 bound_to 7965
  154.4051  140.1287  156.4568 H   0  0  0  0  0  0  0  0  0  0  0  0  # atno 8008 bound_to 7997
  155.7312  140.3491  155.5040 H   0  0  0  0  0  0  0  0  0  0  0  0  # atno 8009 bound_to 7997
  155.9126  140.1038  157.1258 H   0  0  0  0  0  0  0  0  0  0  0  0  # atno 8010 bound_to 7997
  139.5361  144.6683  151.4782 H   0  0  0  0  0  0  0  0  0  0  0  0  # atno 10167 bound_to 10162
  156.3134  130.7494  151.1575 H   0  0  0  0  0  0  0  0  0  0  0  0  # atno 10718 bound_to 10713
  153.0139  135.5321  154.6820 H   0  0  0  0  0  0  0  0  0  0  0  0  # atno 10763 bound_to 10752
  154.5977  135.2865  155.0570 H   0  0  0  0  0  0  0  0  0  0  0  0  # atno 10764 bound_to 10752
  154.1639  135.6543  153.5045 H   0  0  0  0  0  0  0  0  0  0  0  0  # atno 10765 bound_to 10752
  140.0283  134.6050  155.9542 H   0  0  0  0  0  0  0  0  0  0  0  0  # atno 11005 bound_to 11000
  145.9872  139.2986  143.1007 LP  0  0  0  0  0  0  0  0  0  0  0  0  # atno 17320 bound_to 7965
  145.8944  140.9283  143.0535 LP  0  0  0  0  0  0  0  0  0  0  0  0  # atno 17321 bound_to 7965
  140.6568  143.8583  150.6843 LP  0  0  0  0  0  0  0  0  0  0  0  0  # atno 17342 bound_to 10162
  140.1965  143.3994  152.1824 LP  0  0  0  0  0  0  0  0  0  0  0  0  # atno 17343 bound_to 10162
  157.7396  131.0527  150.5221 LP  0  0  0  0  0  0  0  0  0  0  0  0  # atno 17370 bound_to 10713
  156.5364  130.4197  149.6176 LP  0  0  0  0  0  0  0  0  0  0  0  0  # atno 17371 bound_to 10713
  141.1816  133.6547  156.5043 LP  0  0  0  0  0  0  0  0  0  0  0  0  # atno 17394 bound_to 11000
  140.4269  134.7137  157.4920 LP  0  0  0  0  0  0  0  0  0  0  0  0  # atno 17395 bound_to 11000

$$$$
