AV-unprocessed.smi:496|AV-procd|sdf|2721|dock7
  -GOLD-   2262023163D 1   1.00000     0.00000
 Structure written by MMmdl.
 41 43  0  0  0  0  0  0  0  0  2 V2000
  152.1813  139.2717  155.3031 C   0  0  0  0  0  0  0  0  0  0  0  0
  151.1806  140.1272  154.7733 O   0  0  0  0  0  0  0  0  0  0  0  0
  149.8682  139.8210  155.2218 C   0  0  0  0  0  0  0  0  0  0  0  0
  149.4576  140.6982  156.4178 C   0  0  0  0  0  0  0  0  0  0  0  0
  150.3902  140.5582  157.5375 N   0  0  0  0  0  0  0  0  0  0  0  0
  150.7277  139.4579  158.2796 C   0  0  0  0  0  0  0  0  0  0  0  0
  150.1453  138.0690  158.0742 C   0  0  1  0  0  0  0  0  0  0  0  0
  151.2350  137.0388  157.7423 C   0  0  0  0  0  0  0  0  0  0  0  0
  149.3830  137.6127  159.2380 N   0  5  0  0  0  0  0  0  0  0  0  0
  148.8750  136.3544  159.3719 C   0  0  0  0  0  0  0  0  0  0  0  0
  149.0501  135.3546  158.6662 O   0  0  0  0  0  0  0  0  0  0  0  0
  147.9893  136.2265  160.5530 C   0  0  0  0  0  0  0  0  0  0  0  0
  147.4149  135.1121  161.1051 C   0  0  0  0  0  0  0  0  0  0  0  0
  146.6554  135.5515  162.2245 C   0  0  0  0  0  0  0  0  0  0  0  0
  146.8180  136.9057  162.2798 C   0  0  0  0  0  0  0  0  0  0  0  0
  147.6264  137.3329  161.2728 O   0  0  0  0  0  0  0  0  0  0  0  0
  151.6115  139.6862  159.2571 N   0  0  0  0  0  0  0  0  0  0  0  0
  151.8852  141.0316  159.1321 C   0  0  0  0  0  0  0  0  0  0  0  0
  152.7528  141.8634  159.8753 C   0  0  0  0  0  0  0  0  0  0  0  0
  152.8743  143.2322  159.5590 C   0  0  0  0  0  0  0  0  0  0  0  0
  152.1313  143.7862  158.4969 C   0  0  0  0  0  0  0  0  0  0  0  0
  151.2611  142.9736  157.7449 C   0  0  0  0  0  0  0  0  0  0  0  0
  151.1419  141.6070  158.0652 C   0  0  0  0  0  0  0  0  0  0  0  0
  153.1590  139.5901  154.9417 H   0  0  0  0  0  0  0  0  0  0  0  0
  152.0374  138.2358  154.9968 H   0  0  0  0  0  0  0  0  0  0  0  0
  152.1989  139.3139  156.3929 H   0  0  0  0  0  0  0  0  0  0  0  0
  149.1527  139.8992  154.4019 H   0  0  0  0  0  0  0  0  0  0  0  0
  149.8647  138.7759  155.5324 H   0  0  0  0  0  0  0  0  0  0  0  0
  149.4362  141.7440  156.1112 H   0  0  0  0  0  0  0  0  0  0  0  0
  148.4462  140.4792  156.7573 H   0  0  0  0  0  0  0  0  0  0  0  0
  149.5020  138.1045  157.1949 H   0  0  0  0  0  0  0  0  0  0  0  0
  151.7916  137.3356  156.8531 H   0  0  0  0  0  0  0  0  0  0  0  0
  150.8028  136.0568  157.5471 H   0  0  0  0  0  0  0  0  0  0  0  0
  151.9485  136.9307  158.5600 H   0  0  0  0  0  0  0  0  0  0  0  0
  147.5282  134.1006  160.7439 H   0  0  0  0  0  0  0  0  0  0  0  0
  146.0647  134.9533  162.9019 H   0  0  0  0  0  0  0  0  0  0  0  0
  146.4501  137.6809  162.9354 H   0  0  0  0  0  0  0  0  0  0  0  0
  153.3254  141.4455  160.6900 H   0  0  0  0  0  0  0  0  0  0  0  0
  153.5404  143.8589  160.1334 H   0  0  0  0  0  0  0  0  0  0  0  0
  152.2292  144.8353  158.2600 H   0  0  0  0  0  0  0  0  0  0  0  0
  150.6921  143.3978  156.9313 H   0  0  0  0  0  0  0  0  0  0  0  0
  1  2  1  0  0  0  0
  1 24  1  0  0  0  0
  1 25  1  0  0  0  0
  1 26  1  0  0  0  0
  2  3  1  0  0  0  0
  3  4  1  0  0  0  0
  3 27  1  0  0  0  0
  3 28  1  0  0  0  0
  4  5  1  0  0  0  0
  4 29  1  0  0  0  0
  4 30  1  0  0  0  0
  5 23  1  0  0  0  0
  5  6  1  0  0  0  0
  6  7  1  0  0  0  0
  6 17  2  0  0  0  0
  7  8  1  0  0  0  0
  7  9  1  0  0  0  0
  7 31  1  0  0  0  0
  8 32  1  0  0  0  0
  8 33  1  0  0  0  0
  8 34  1  0  0  0  0
  9 10  1  0  0  0  0
 10 11  2  0  0  0  0
 10 12  1  0  0  0  0
 12 16  1  0  0  0  0
 12 13  2  0  0  0  0
 13 14  1  0  0  0  0
 13 35  1  0  0  0  0
 14 15  2  0  0  0  0
 14 36  1  0  0  0  0
 15 16  1  0  0  0  0
 15 37  1  0  0  0  0
 17 18  1  0  0  0  0
 18 23  2  0  0  0  0
 18 19  1  0  0  0  0
 19 20  2  0  0  0  0
 19 38  1  0  0  0  0
 20 21  1  0  0  0  0
 20 39  1  0  0  0  0
 21 22  2  0  0  0  0
 21 40  1  0  0  0  0
 22 23  1  0  0  0  0
 22 41  1  0  0  0  0
M  CHG  1   9  -1
M  END
> <s_m_source_file>
AV-unprocessed.smi

> <i_m_source_file_index>
496

> <i_lp_mmshare_version>
43012

> <i_f3d_flags>
0

> <s_epik_input>
W2NIXTFbY0hdW2NIXVtjSF1jKGMxMiluKFtDSDJdW0NIMl1PW0NIM10pYyhuMilbQ0BIXShbQ0gzXSlbTkhdQyg9TyljM1tjSF1bY0hdW2NIXW8z

> <s_epik_cmdline>
J2VwaWtfcHl0aG9uJywgJy1waCcsICc3LjAnLCAnLXRuJywgJzgnLCAnLW1hJywgJzIwMCcsICctbWV0YWxfYmluZGluZycsICctaW1hZScsICc8aW5maWxlLm1hZT4nLCAnLW9tYWUnLCAnPG91dGZpbGUubWFlPic=

> <r_epik_Ionization_Penalty>
7.3423

> <r_epik_Ionization_Penalty_Charging>
6.43826

> <r_epik_Ionization_Penalty_Neutral>
0.90404

> <r_epik_State_Penalty>
6.54438

> <r_epik_Charging_Adjusted_Penalty>
12.9826

> <i_epik_Tot_Q>
-1

> <i_epik_Tot_abs_Q>
1

> <r_epik_Metal_State_Penalty>
2.56942

> <b_epik_Metal_Only>
1

> <s_lp_Force_Field>
OPLS_2005

> <r_lp_Energy>
16.0483

> <b_lp_Chiralities_Consistent>
1

> <s_lp_Variant>
AV-unprocessed.smi:496-6

> <Gold.Version>
5.8.1

> <Gold.Id.Protein>
6NUR|6NUR_protein|mol2

> <Gold.PLP.Fitness>
58.3307

> <Gold.PLP.PLP>
-47.8368

> <Gold.PLP.part.hbond>
-4.8365

> <Gold.PLP.part.metal>
0.0000

> <Gold.PLP.part.buried>
-5.9403

> <Gold.PLP.part.nonpolar>
-38.1400

> <Gold.PLP.part.repulsive>
0.0675

> <Gold.PLP.ligand.clash>
0.0000

> <Gold.PLP.ligand.torsion>
0.3886

> <Gold.PLP.Chemscore.Hbond>
3.7040

> <Gold.PLP.Chemscore.CHOScore>
0.0000

> <Gold.PLP.Chemscore.Metal>
0.0000

> <Gold.Chemscore.Hbonds>
donor molecule, donor type, donor heavy atom, donor atom, acceptor molecule, acceptor atom, score
      P1  H  6896  6908       L1    11  0.93
      P1  H  6931  6943       L1    16  0.88
      P1  H  6934  6947       L1    16  0.85
      P1  H  7989  7998       L1     2  1.00

> <Gold.PLP.Chemscore.Internal.Correction>
0.1590

> <Gold.Rescore>
     Score         DG    S(hbond)    S(metal)    S(lipo)     H(rot)  DE(clash)    DE(int)     intcor
     23.11     -24.75       3.11        0.00     114.84       1.78       0.06       1.59       ----

> <Gold.Chemscore.Fitness>
23.1071

> <Gold.Chemscore.DG>
-24.7548

> <Gold.Chemscore.ZeroCoef>
-5.4800

> <Gold.Chemscore.Hbond>
3.1139

> <Gold.Chemscore.Metal>
0.0000

> <Gold.Chemscore.Lipo>
114.8368

> <Gold.Chemscore.Internal_Hbond>
0.0000

> <Gold.Chemscore.DEClash>
0.0580

> <Gold.Chemscore.DEInternal>
1.5897

> <Gold.Chemscore.Rot>
1.7819

> <Gold.Chemscore.Internal.Correction>
   9.000000E+99

> <Gold.Chemscore.Hbonds>
donor molecule, donor type, donor heavy atom, donor atom, acceptor molecule, acceptor atom, score
      P1  H  6896  6908       L1    11  0.61
      P1  H  6931  6943       L1    16  0.60
      P1  H  6934  6947       L1    16  0.50
      P1  H  7989  7998       L1     2  0.81

> <Gold.Chemscore.Hbond.Weighted>
-10.4005

> <Gold.Chemscore.Metal.Weighted>
-0.0000

> <Gold.Chemscore.Lipo.Weighted>
-13.4359

> <Gold.Chemscore.Internal_Hbond.Weighted>
0.0000

> <Gold.Chemscore.DEClash.Weighted>
0.0580

> <Gold.Chemscore.DEInternal.Weighted>
1.5897

> <Gold.Chemscore.Rot.Weighted>
4.5617

> <Gold.Chemscore.Internal.Correction.Weighted>
   9.000000E+99

> <Gold.Protein.RotatedTorsions>
[ 6907 6896 6895 6894 ] final  149.30 input  -60.11 | X-H torsion
[ 7974 7965 7964 7962 ] final  -48.84 input  175.53 | X-H torsion
[ 8008 7997 7996 7995 ] final -143.47 input   59.86 | X-H torsion
[ 10167 10162 10161 10158 ] final   13.38 input  -65.29 | X-H torsion
[ 10718 10713 10712 10709 ] final  -95.41 input   66.30 | X-H torsion
[ 10763 10752 10751 10750 ] final    8.28 input  -60.55 | X-H torsion
[ 11005 11000 10999 10996 ] final  -40.94 input  -57.11 | X-H torsion

> <Gold.Protein.ActiveResidues>
 VAL166  LYS551  ARG553  GLY616  TRP617  ASP618  TYR619  PRO620  LYS621  CYS622 
 ASP623  PHE694  ASN695  SER759  ASP760  ASP761  ALA762  ILE779  LEU786  VAL792 
 PHE793  MET794  SER795  GLU796  ALA797  LYS798  CYS799  TRP800  GLU811  SER814 

> <Gold.Protein.RotatedAtoms>
  152.1299  133.4402  159.4715 H   0  0  0  0  0  0  0  0  0  0  0  0  # atno 6907 bound_to 6896
  150.6877  134.2433  159.4490 H   0  0  0  0  0  0  0  0  0  0  0  0  # atno 6908 bound_to 6896
  152.0316  134.9764  160.0623 H   0  0  0  0  0  0  0  0  0  0  0  0  # atno 6909 bound_to 6896
  145.9469  140.7609  142.9524 H   0  0  0  0  0  0  0  0  0  0  0  0  # atno 7974 bound_to 7965
  155.5111  140.0583  157.2923 H   0  0  0  0  0  0  0  0  0  0  0  0  # atno 8008 bound_to 7997
  154.4551  140.1969  156.0351 H   0  0  0  0  0  0  0  0  0  0  0  0  # atno 8009 bound_to 7997
  156.0783  140.3250  155.7666 H   0  0  0  0  0  0  0  0  0  0  0  0  # atno 8010 bound_to 7997
  140.6006  143.8611  150.6962 H   0  0  0  0  0  0  0  0  0  0  0  0  # atno 10167 bound_to 10162
  156.0043  130.5108  150.6072 H   0  0  0  0  0  0  0  0  0  0  0  0  # atno 10718 bound_to 10713
  153.2268  135.6888  153.7935 H   0  0  0  0  0  0  0  0  0  0  0  0  # atno 10763 bound_to 10752
  153.7114  135.3281  155.3248 H   0  0  0  0  0  0  0  0  0  0  0  0  # atno 10764 bound_to 10752
  154.8296  135.4591  154.1138 H   0  0  0  0  0  0  0  0  0  0  0  0  # atno 10765 bound_to 10752
  141.0210  133.6863  156.2389 H   0  0  0  0  0  0  0  0  0  0  0  0  # atno 11005 bound_to 11000
  144.6788  140.2371  143.7348 LP  0  0  0  0  0  0  0  0  0  0  0  0  # atno 17320 bound_to 7965
  145.8224  139.2049  143.1930 LP  0  0  0  0  0  0  0  0  0  0  0  0  # atno 17321 bound_to 7965
  140.2156  143.3849  152.1683 LP  0  0  0  0  0  0  0  0  0  0  0  0  # atno 17342 bound_to 10162
  139.5289  144.7135  151.5129 LP  0  0  0  0  0  0  0  0  0  0  0  0  # atno 17343 bound_to 10162
  157.3910  131.0795  151.1393 LP  0  0  0  0  0  0  0  0  0  0  0  0  # atno 17370 bound_to 10713
  157.2085  130.6427  149.5765 LP  0  0  0  0  0  0  0  0  0  0  0  0  # atno 17371 bound_to 10713
  140.6573  134.5005  157.5581 LP  0  0  0  0  0  0  0  0  0  0  0  0  # atno 17394 bound_to 11000
  139.9146  134.8273  156.1410 LP  0  0  0  0  0  0  0  0  0  0  0  0  # atno 17395 bound_to 11000

$$$$
