AV-unprocessed.smi:113|AV-procd|sdf|1100|dock7
  -GOLD-   2262018213D 1   1.00000     0.00000
 Structure written by MMmdl.
 53 56  0  0  0  0  0  0  0  0  2 V2000
  149.2946  141.4501  154.3768 C   0  0  0  0  0  0  0  0  0  0  0  0
  150.1335  141.2460  155.6205 C   0  0  0  0  0  0  0  0  0  0  0  0
  150.6462  139.9845  155.9789 C   0  0  0  0  0  0  0  0  0  0  0  0
  151.4270  139.8454  157.1533 C   0  0  0  0  0  0  0  0  0  0  0  0
  151.9950  138.4845  157.5703 C   0  0  0  0  0  0  0  0  0  0  0  0
  151.1036  137.3382  157.4631 N   0  0  0  0  0  0  0  0  0  0  0  0
  149.9879  137.2871  158.3321 C   0  0  0  0  0  0  0  0  0  0  0  0
  149.7646  138.1852  159.1468 O   0  0  0  0  0  0  0  0  0  0  0  0
  149.1294  136.1118  158.1724 C   0  0  0  0  0  0  0  0  0  0  0  0
  147.9342  135.9696  159.1025 C   0  0  0  0  0  0  0  0  0  0  0  0
  149.4165  135.1900  157.2210 C   0  0  0  0  0  0  0  0  0  0  0  0
  150.4983  135.2815  156.3560 N   0  0  0  0  0  0  0  0  0  0  0  0
  150.7856  134.2657  155.2649 C   0  0  1  0  0  0  0  0  0  0  0  0
  150.3459  132.8324  155.5511 C   0  0  0  0  0  0  0  0  0  0  0  0
  150.3620  132.2708  154.1443 C   0  0  1  0  0  0  0  0  0  0  0  0
  149.5437  131.1215  154.0479 O   0  0  0  0  0  0  0  0  0  0  0  0
  149.9176  133.4771  153.2835 C   0  0  1  0  0  0  0  0  0  0  0  0
  148.4633  133.4612  152.7751 C   0  0  0  0  0  0  0  0  0  0  0  0
  148.2189  132.3111  151.9923 O   0  0  0  0  0  0  0  0  0  0  0  0
  150.0537  134.6170  154.1342 O   0  0  0  0  0  0  0  0  0  0  0  0
  151.3827  136.3755  156.4679 C   0  0  0  0  0  0  0  0  0  0  0  0
  152.3520  136.4860  155.7126 O   0  0  0  0  0  0  0  0  0  0  0  0
  151.6729  141.0043  157.9400 C   0  0  0  0  0  0  0  0  0  0  0  0
  152.4433  140.9606  159.1268 C   0  0  0  0  0  0  0  0  0  0  0  0
  152.6646  142.1308  159.8794 C   0  0  0  0  0  0  0  0  0  0  0  0
  152.1213  143.3592  159.4587 C   0  0  0  0  0  0  0  0  0  0  0  0
  151.3534  143.4207  158.2812 C   0  0  0  0  0  0  0  0  0  0  0  0
  151.1307  142.2514  157.5269 C   0  0  0  0  0  0  0  0  0  0  0  0
  150.3934  142.3168  156.3981 N   0  3  0  0  0  0  0  0  0  0  0  0
  148.8150  140.5183  154.0754 H   0  0  0  0  0  0  0  0  0  0  0  0
  149.9192  141.7961  153.5531 H   0  0  0  0  0  0  0  0  0  0  0  0
  148.5134  142.1905  154.5528 H   0  0  0  0  0  0  0  0  0  0  0  0
  150.4322  139.1368  155.3451 H   0  0  0  0  0  0  0  0  0  0  0  0
  152.8909  138.2580  156.9901 H   0  0  0  0  0  0  0  0  0  0  0  0
  152.3471  138.5238  158.6024 H   0  0  0  0  0  0  0  0  0  0  0  0
  147.3628  135.0638  158.8974 H   0  0  0  0  0  0  0  0  0  0  0  0
  147.2604  136.8198  158.9903 H   0  0  0  0  0  0  0  0  0  0  0  0
  148.2627  135.9273  160.1415 H   0  0  0  0  0  0  0  0  0  0  0  0
  148.7566  134.3398  157.1671 H   0  0  0  0  0  0  0  0  0  0  0  0
  151.8590  134.3362  155.0742 H   0  0  0  0  0  0  0  0  0  0  0  0
  151.0175  132.3284  156.2468 H   0  0  0  0  0  0  0  0  0  0  0  0
  149.3228  132.8169  155.9286 H   0  0  0  0  0  0  0  0  0  0  0  0
  151.3839  131.9960  153.8784 H   0  0  0  0  0  0  0  0  0  0  0  0
  149.8859  130.5651  153.3642 H   0  0  0  0  0  0  0  0  0  0  0  0
  150.6016  133.6016  152.4427 H   0  0  0  0  0  0  0  0  0  0  0  0
  147.7530  133.5148  153.6007 H   0  0  0  0  0  0  0  0  0  0  0  0
  148.2811  134.3309  152.1434 H   0  0  0  0  0  0  0  0  0  0  0  0
  148.9117  132.2277  151.3550 H   0  0  0  0  0  0  0  0  0  0  0  0
  152.8764  140.0372  159.4807 H   0  0  0  0  0  0  0  0  0  0  0  0
  153.2541  142.0851  160.7835 H   0  0  0  0  0  0  0  0  0  0  0  0
  152.2941  144.2538  160.0392 H   0  0  0  0  0  0  0  0  0  0  0  0
  150.9394  144.3667  157.9630 H   0  0  0  0  0  0  0  0  0  0  0  0
  150.0140  143.2216  156.1197 H   0  0  0  0  0  0  0  0  0  0  0  0
  1  2  1  0  0  0  0
  1 30  1  0  0  0  0
  1 31  1  0  0  0  0
  1 32  1  0  0  0  0
  2 29  1  0  0  0  0
  2  3  2  0  0  0  0
  3  4  1  0  0  0  0
  3 33  1  0  0  0  0
  4  5  1  0  0  0  0
  4 23  2  0  0  0  0
  5  6  1  0  0  0  0
  5 34  1  0  0  0  0
  5 35  1  0  0  0  0
  6 21  1  0  0  0  0
  6  7  1  0  0  0  0
  7  8  2  0  0  0  0
  7  9  1  0  0  0  0
  9 10  1  0  0  0  0
  9 11  2  0  0  0  0
 10 36  1  0  0  0  0
 10 37  1  0  0  0  0
 10 38  1  0  0  0  0
 11 12  1  0  0  0  0
 11 39  1  0  0  0  0
 12 13  1  0  0  0  0
 12 21  1  0  0  0  0
 13 20  1  0  0  0  0
 13 14  1  0  0  0  0
 13 40  1  0  0  0  0
 14 15  1  0  0  0  0
 14 41  1  0  0  0  0
 14 42  1  0  0  0  0
 15 16  1  0  0  0  0
 15 17  1  0  0  0  0
 15 43  1  0  0  0  0
 16 44  1  0  0  0  0
 17 18  1  0  0  0  0
 17 20  1  0  0  0  0
 17 45  1  0  0  0  0
 18 19  1  0  0  0  0
 18 46  1  0  0  0  0
 18 47  1  0  0  0  0
 19 48  1  0  0  0  0
 21 22  2  0  0  0  0
 23 28  1  0  0  0  0
 23 24  1  0  0  0  0
 24 25  2  0  0  0  0
 24 49  1  0  0  0  0
 25 26  1  0  0  0  0
 25 50  1  0  0  0  0
 26 27  2  0  0  0  0
 26 51  1  0  0  0  0
 27 28  1  0  0  0  0
 27 52  1  0  0  0  0
 28 29  2  0  0  0  0
 29 53  1  0  0  0  0
M  CHG  1  29   1
M  END
> <s_m_source_file>
AV-unprocessed.smi

> <i_m_source_file_index>
113

> <i_lp_mmshare_version>
43012

> <i_f3d_flags>
0

> <s_epik_input>
W2NIXTFbY0hdW2NIXVtjSF1jKGMxMiluYyhbQ0gzXSlbY0hdYzJbQ0gyXW4zYyg9TyljKFtDSDNdKVtjSF1uKGMzPU8pW0NAQEhdNFtDSDJdW0NAQEhdKFtPSF0pW0NASF0oTzQpW0NIMl1bT0hd

> <s_epik_cmdline>
J2VwaWtfcHl0aG9uJywgJy1waCcsICc3LjAnLCAnLXRuJywgJzgnLCAnLW1hJywgJzIwMCcsICctbWV0YWxfYmluZGluZycsICctaW1hZScsICc8aW5maWxlLm1hZT4nLCAnLW9tYWUnLCAnPG91dGZpbGUubWFlPic=

> <r_lp_tautomer_probability>
1

> <r_epik_Ionization_Penalty>
0.705471

> <r_epik_Ionization_Penalty_Charging>
0.70547

> <r_epik_Ionization_Penalty_Neutral>
1.19947e-07

> <r_epik_State_Penalty>
0.728574

> <r_epik_Charging_Adjusted_Penalty>
1.43404

> <i_epik_Tot_Q>
1

> <i_epik_Tot_abs_Q>
1

> <r_epik_Metal_State_Penalty>
4.61665

> <b_epik_Metal_Only>
0

> <s_epik_Chemistry_Notes>
This compound contains an acetal/aminal-like group ( X-CH(R)-Y where X, Y are N, S, or O) that may be acid/base labile, releasing an aldehyde.

> <s_lp_Force_Field>
OPLS_2005

> <r_lp_Energy>
46.487

> <b_lp_Chiralities_Consistent>
1

> <s_lp_Variant>
AV-unprocessed.smi:113-10

> <Gold.Version>
5.8.1

> <Gold.Id.Protein>
6NUR|6NUR_protein|mol2

> <Gold.PLP.Fitness>
59.3186

> <Gold.PLP.PLP>
-49.8225

> <Gold.PLP.part.hbond>
-3.8702

> <Gold.PLP.part.metal>
0.0000

> <Gold.PLP.part.buried>
-6.7187

> <Gold.PLP.part.nonpolar>
-39.8583

> <Gold.PLP.part.repulsive>
0.2900

> <Gold.PLP.ligand.clash>
0.0000

> <Gold.PLP.ligand.torsion>
1.0259

> <Gold.PLP.Chemscore.Hbond>
3.8406

> <Gold.PLP.Chemscore.CHOScore>
0.0000

> <Gold.PLP.Chemscore.Metal>
0.0000

> <Gold.Chemscore.Hbonds>
donor molecule, donor type, donor heavy atom, donor atom, acceptor molecule, acceptor atom, score
      L1  H    19    48       P1 10747  0.45
      L1  H    29    53       P1  8028  2.00
      P1  H 10752 10764       L1    22  0.80

> <Gold.PLP.Chemscore.Internal.Correction>
0.0261

> <Gold.Rescore>
     Score         DG    S(hbond)    S(metal)    S(lipo)     H(rot)  DE(clash)    DE(int)     intcor
     19.56     -20.65       2.81        0.00     115.22       3.01       0.16       0.93       ----

> <Gold.Chemscore.Fitness>
19.5602

> <Gold.Chemscore.DG>
-20.6494

> <Gold.Chemscore.ZeroCoef>
-5.4800

> <Gold.Chemscore.Hbond>
2.8141

> <Gold.Chemscore.Metal>
0.0000

> <Gold.Chemscore.Lipo>
115.2239

> <Gold.Chemscore.Internal_Hbond>
0.0000

> <Gold.Chemscore.DEClash>
0.1577

> <Gold.Chemscore.DEInternal>
0.9315

> <Gold.Chemscore.Rot>
3.0120

> <Gold.Chemscore.Internal.Correction>
   9.000000E+99

> <Gold.Chemscore.Hbonds>
donor molecule, donor type, donor heavy atom, donor atom, acceptor molecule, acceptor atom, score
      L1  H    19    48       P1 10747  0.44
      L1  H    29    53       P1  8028  1.00
      P1  H 10752 10764       L1    22  0.76

> <Gold.Chemscore.Hbond.Weighted>
-9.3990

> <Gold.Chemscore.Metal.Weighted>
-0.0000

> <Gold.Chemscore.Lipo.Weighted>
-13.4812

> <Gold.Chemscore.Internal_Hbond.Weighted>
0.0000

> <Gold.Chemscore.DEClash.Weighted>
0.1577

> <Gold.Chemscore.DEInternal.Weighted>
0.9315

> <Gold.Chemscore.Rot.Weighted>
7.7108

> <Gold.Chemscore.Internal.Correction.Weighted>
   9.000000E+99

> <Gold.Protein.RotatedTorsions>
[ 6907 6896 6895 6894 ] final  -43.81 input  -60.11 | X-H torsion
[ 7974 7965 7964 7962 ] final    8.71 input  175.53 | X-H torsion
[ 8008 7997 7996 7995 ] final  127.46 input   59.86 | X-H torsion
[ 10167 10162 10161 10158 ] final -125.36 input  -65.29 | X-H torsion
[ 10718 10713 10712 10709 ] final  -59.75 input   66.30 | X-H torsion
[ 10763 10752 10751 10750 ] final  -49.56 input  -60.55 | X-H torsion
[ 11005 11000 10999 10996 ] final  169.55 input  -57.11 | X-H torsion

> <Gold.Protein.ActiveResidues>
 VAL166  LYS551  ARG553  GLY616  TRP617  ASP618  TYR619  PRO620  LYS621  CYS622 
 ASP623  PHE694  ASN695  SER759  ASP760  ASP761  ALA762  ILE779  LEU786  VAL792 
 PHE793  MET794  SER795  GLU796  ALA797  LYS798  CYS799  TRP800  GLU811  SER814 

> <Gold.Protein.RotatedAtoms>
  150.9398  134.8808  159.7604 H   0  0  0  0  0  0  0  0  0  0  0  0  # atno 6907 bound_to 6896
  152.5075  134.3958  159.9409 H   0  0  0  0  0  0  0  0  0  0  0  0  # atno 6908 bound_to 6896
  151.3980  133.3727  159.2763 H   0  0  0  0  0  0  0  0  0  0  0  0  # atno 6909 bound_to 6896
  146.2413  139.9892  142.8427 H   0  0  0  0  0  0  0  0  0  0  0  0  # atno 7974 bound_to 7965
  156.2891  140.2668  156.2277 H   0  0  0  0  0  0  0  0  0  0  0  0  # atno 8008 bound_to 7997
  155.0103  140.0387  157.2415 H   0  0  0  0  0  0  0  0  0  0  0  0  # atno 8009 bound_to 7997
  154.7523  140.2745  155.6287 H   0  0  0  0  0  0  0  0  0  0  0  0  # atno 8010 bound_to 7997
  139.9830  143.5722  152.2371 H   0  0  0  0  0  0  0  0  0  0  0  0  # atno 10167 bound_to 10162
  156.1039  130.4183  150.0759 H   0  0  0  0  0  0  0  0  0  0  0  0  # atno 10718 bound_to 10713
  154.0961  135.6570  153.4860 H   0  0  0  0  0  0  0  0  0  0  0  0  # atno 10763 bound_to 10752
  153.0304  135.5214  154.7332 H   0  0  0  0  0  0  0  0  0  0  0  0  # atno 10764 bound_to 10752
  154.6470  135.2996  155.0002 H   0  0  0  0  0  0  0  0  0  0  0  0  # atno 10765 bound_to 10752
  140.2989  134.7611  157.3900 H   0  0  0  0  0  0  0  0  0  0  0  0  # atno 11005 bound_to 11000
  145.1519  140.9627  143.4428 LP  0  0  0  0  0  0  0  0  0  0  0  0  # atno 17320 bound_to 7965
  145.0197  139.3435  143.6078 LP  0  0  0  0  0  0  0  0  0  0  0  0  # atno 17321 bound_to 7965
  139.6396  144.7653  151.2367 LP  0  0  0  0  0  0  0  0  0  0  0  0  # atno 17342 bound_to 10162
  140.7482  143.6340  150.8396 LP  0  0  0  0  0  0  0  0  0  0  0  0  # atno 17343 bound_to 10162
  156.8739  130.9534  151.3606 LP  0  0  0  0  0  0  0  0  0  0  0  0  # atno 17370 bound_to 10713
  157.6213  130.8657  149.9113 LP  0  0  0  0  0  0  0  0  0  0  0  0  # atno 17371 bound_to 10713
  140.1127  134.5324  155.8252 LP  0  0  0  0  0  0  0  0  0  0  0  0  # atno 17394 bound_to 11000
  141.2132  133.6730  156.6719 LP  0  0  0  0  0  0  0  0  0  0  0  0  # atno 17395 bound_to 11000

$$$$
