AV-unprocessed.smi:618|AV-procd|sdf|3081|dock6
  -GOLD-   22720 0 03D 1   1.00000     0.00000
 Structure written by MMmdl.
 41 43  0  0  0  0  0  0  0  0  2 V2000
  151.1525  134.9856  155.7030 O   0  0  0  0  0  0  0  0  0  0  0  0
  150.3858  135.3386  154.8073 C   0  0  0  0  0  0  0  0  0  0  0  0
  149.6305  134.4840  154.1027 N   0  0  0  0  0  0  0  0  0  0  0  0
  149.6058  133.0361  154.2867 C   0  0  0  0  0  0  0  0  0  0  0  0
  148.7557  132.3351  153.2120 C   0  0  1  0  0  0  0  0  0  0  0  0
  148.3170  130.9211  153.6633 C   0  0  0  0  0  0  0  0  0  0  0  0
  147.4210  130.3614  152.6346 N   0  3  1  0  0  0  0  0  0  0  0  0
  146.8853  129.0039  152.8352 C   0  0  0  0  0  0  0  0  0  0  0  0
  145.5953  128.9611  151.9912 C   0  0  0  0  0  0  0  0  0  0  0  0
  145.3784  130.3993  151.4850 C   0  0  0  0  0  0  0  0  0  0  0  0
  146.2612  131.2274  152.4128 C   0  0  2  0  0  0  0  0  0  0  0  0
  146.7475  132.5972  151.9240 C   0  0  0  0  0  0  0  0  0  0  0  0
  147.5987  133.1342  152.9374 O   0  0  0  0  0  0  0  0  0  0  0  0
  150.1733  136.6082  154.4212 N   0  0  0  0  0  0  0  0  0  0  0  0
  150.7783  137.7940  154.9185 C   0  0  0  0  0  0  0  0  0  0  0  0
  151.7795  137.8166  155.9197 C   0  0  0  0  0  0  0  0  0  0  0  0
  152.3151  139.0567  156.3171 C   0  0  0  0  0  0  0  0  0  0  0  0
  151.8377  140.2265  155.6950 C   0  0  0  0  0  0  0  0  0  0  0  0
  150.8948  140.2186  154.7292 N   0  0  0  0  0  0  0  0  0  0  0  0
  150.3864  139.0260  154.3527 C   0  0  0  0  0  0  0  0  0  0  0  0
  149.0303  134.8622  153.3842 H   0  0  0  0  0  0  0  0  0  0  0  0
  150.6358  132.6842  154.2254 H   0  0  0  0  0  0  0  0  0  0  0  0
  149.2529  132.7767  155.2866 H   0  0  0  0  0  0  0  0  0  0  0  0
  149.3453  132.2486  152.2972 H   0  0  0  0  0  0  0  0  0  0  0  0
  149.1829  130.2703  153.7890 H   0  0  0  0  0  0  0  0  0  0  0  0
  147.7994  130.9654  154.6230 H   0  0  0  0  0  0  0  0  0  0  0  0
  147.6101  128.2479  152.5318 H   0  0  0  0  0  0  0  0  0  0  0  0
  146.6498  128.8469  153.8889 H   0  0  0  0  0  0  0  0  0  0  0  0
  145.6819  128.2643  151.1567 H   0  0  0  0  0  0  0  0  0  0  0  0
  144.7550  128.6344  152.6056 H   0  0  0  0  0  0  0  0  0  0  0  0
  145.7269  130.4874  150.4549 H   0  0  0  0  0  0  0  0  0  0  0  0
  144.3322  130.7059  151.5146 H   0  0  0  0  0  0  0  0  0  0  0  0
  145.7346  131.3560  153.3612 H   0  0  0  0  0  0  0  0  0  0  0  0
  147.2846  132.5196  150.9774 H   0  0  0  0  0  0  0  0  0  0  0  0
  145.9046  133.2708  151.7685 H   0  0  0  0  0  0  0  0  0  0  0  0
  149.4503  136.7490  153.7309 H   0  0  0  0  0  0  0  0  0  0  0  0
  152.1547  136.9146  156.3774 H   0  0  0  0  0  0  0  0  0  0  0  0
  153.0790  139.1091  157.0784 H   0  0  0  0  0  0  0  0  0  0  0  0
  152.2280  141.1932  155.9766 H   0  0  0  0  0  0  0  0  0  0  0  0
  149.6361  139.0582  153.5761 H   0  0  0  0  0  0  0  0  0  0  0  0
  147.9340  130.3407  151.7647 H   0  0  0  0  0  0  0  0  0  0  0  0
  1  2  2  0  0  0  0
  2  3  1  0  0  0  0
  2 14  1  0  0  0  0
  3  4  1  0  0  0  0
  3 21  1  0  0  0  0
  4  5  1  0  0  0  0
  4 22  1  0  0  0  0
  4 23  1  0  0  0  0
  5 13  1  0  0  0  0
  5  6  1  0  0  0  0
  5 24  1  0  0  0  0
  6  7  1  0  0  0  0
  6 25  1  0  0  0  0
  6 26  1  0  0  0  0
  7 11  1  0  0  0  0
  7  8  1  0  0  0  0
  7 41  1  0  0  0  0
  8  9  1  0  0  0  0
  8 27  1  0  0  0  0
  8 28  1  0  0  0  0
  9 10  1  0  0  0  0
  9 29  1  0  0  0  0
  9 30  1  0  0  0  0
 10 11  1  0  0  0  0
 10 31  1  0  0  0  0
 10 32  1  0  0  0  0
 11 12  1  0  0  0  0
 11 33  1  0  0  0  0
 12 13  1  0  0  0  0
 12 34  1  0  0  0  0
 12 35  1  0  0  0  0
 14 15  1  0  0  0  0
 14 36  1  0  0  0  0
 15 20  1  0  0  0  0
 15 16  2  0  0  0  0
 16 17  1  0  0  0  0
 16 37  1  0  0  0  0
 17 18  2  0  0  0  0
 17 38  1  0  0  0  0
 18 19  1  0  0  0  0
 18 39  1  0  0  0  0
 19 20  2  0  0  0  0
 20 40  1  0  0  0  0
M  CHG  1   7   1
M  END
> <s_m_source_file>
AV-unprocessed.smi

> <i_m_source_file_index>
618

> <i_lp_mmshare_version>
43012

> <i_f3d_flags>
0

> <s_epik_input>
W2NIXTFuW2NIXVtjSF1bY0hdYzFbTkhdQyg9TylbTkhdW0NIMl1bQ0BIXShbQ0gyXTIpT1tDSDJdW0NAQEhdKE4yMylbQ0gyXVtDSDJdW0NIMl0z

> <s_epik_cmdline>
J2VwaWtfcHl0aG9uJywgJy1waCcsICc3LjAnLCAnLXRuJywgJzgnLCAnLW1hJywgJzIwMCcsICctbWV0YWxfYmluZGluZycsICctaW1hZScsICc8aW5maWxlLm1hZT4nLCAnLW9tYWUnLCAnPG91dGZpbGUubWFlPic=

> <r_epik_Ionization_Penalty>
0.111044

> <r_epik_Ionization_Penalty_Charging>
0.10673

> <r_epik_Ionization_Penalty_Neutral>
0.00431361

> <r_epik_State_Penalty>
0.0978747

> <r_epik_Charging_Adjusted_Penalty>
0.204605

> <i_epik_Tot_Q>
1

> <i_epik_Tot_abs_Q>
1

> <r_epik_Metal_State_Penalty>
0.0947591

> <b_epik_Metal_Only>
0

> <s_lp_Force_Field>
OPLS_2005

> <r_lp_Energy>
39.3215

> <b_lp_Chiralities_Consistent>
1

> <s_lp_Variant>
AV-unprocessed.smi:618-8

> <Gold.Version>
5.8.1

> <Gold.Id.Protein>
6NUR|6NUR_protein|mol2

> <Gold.PLP.Fitness>
54.5406

> <Gold.PLP.PLP>
-39.0230

> <Gold.PLP.part.hbond>
-5.6807

> <Gold.PLP.part.metal>
0.0000

> <Gold.PLP.part.buried>
-1.9656

> <Gold.PLP.part.nonpolar>
-30.0663

> <Gold.PLP.part.repulsive>
0.3953

> <Gold.PLP.ligand.clash>
0.0000

> <Gold.PLP.ligand.torsion>
0.2223

> <Gold.PLP.Chemscore.Hbond>
4.4381

> <Gold.PLP.Chemscore.CHOScore>
0.8823

> <Gold.PLP.Chemscore.Metal>
0.0000

> <Gold.Chemscore.Hbonds>
donor molecule, donor type, donor heavy atom, donor atom, acceptor molecule, acceptor atom, score
      L1  H     3    21       P1  7948  0.76
      L1  H     7    41       P1 10747  1.00
      L1  H    14    36       P1  7948  0.80
      P1  H  7989  7998       L1    19  1.00
      P1  H 10752 10763       L1     1  0.77
      L1  C    20    40       P1  7957  0.82

> <Gold.PLP.Chemscore.Internal.Correction>
0.0010

> <Gold.Rescore>
     Score         DG    S(hbond)    S(metal)    S(lipo)     H(rot)  DE(clash)    DE(int)     intcor
     20.39     -22.37       2.66        0.00      96.03       1.27       0.48       1.49       ----

> <Gold.Chemscore.Fitness>
20.3945

> <Gold.Chemscore.DG>
-22.3698

> <Gold.Chemscore.ZeroCoef>
-5.4800

> <Gold.Chemscore.Hbond>
2.6630

> <Gold.Chemscore.Metal>
0.0000

> <Gold.Chemscore.Lipo>
96.0269

> <Gold.Chemscore.Internal_Hbond>
0.0000

> <Gold.Chemscore.DEClash>
0.4815

> <Gold.Chemscore.DEInternal>
1.4938

> <Gold.Chemscore.Rot>
1.2656

> <Gold.Chemscore.Internal.Correction>
   9.000000E+99

> <Gold.Chemscore.Hbonds>
donor molecule, donor type, donor heavy atom, donor atom, acceptor molecule, acceptor atom, score
      L1  H     3    21       P1  7948  0.14
      L1  H     7    41       P1 10747  1.00
      L1  H    14    36       P1  7948  0.69
      P1  H  7989  7998       L1    19  0.27
      P1  H 10752 10763       L1     1  0.25

> <Gold.Chemscore.Hbond.Weighted>
-8.8945

> <Gold.Chemscore.Metal.Weighted>
-0.0000

> <Gold.Chemscore.Lipo.Weighted>
-11.2351

> <Gold.Chemscore.Internal_Hbond.Weighted>
0.0000

> <Gold.Chemscore.DEClash.Weighted>
0.4815

> <Gold.Chemscore.DEInternal.Weighted>
1.4938

> <Gold.Chemscore.Rot.Weighted>
3.2399

> <Gold.Chemscore.Internal.Correction.Weighted>
   9.000000E+99

> <Gold.Protein.RotatedTorsions>
[ 6907 6896 6895 6894 ] final   73.89 input  -60.11 | X-H torsion
[ 7974 7965 7964 7962 ] final -106.81 input  175.53 | X-H torsion
[ 8008 7997 7996 7995 ] final   82.53 input   59.86 | X-H torsion
[ 10167 10162 10161 10158 ] final  -30.54 input  -65.29 | X-H torsion
[ 10718 10713 10712 10709 ] final   -8.29 input   66.30 | X-H torsion
[ 10763 10752 10751 10750 ] final   79.29 input  -60.55 | X-H torsion
[ 11005 11000 10999 10996 ] final   70.56 input  -57.11 | X-H torsion

> <Gold.Protein.ActiveResidues>
 VAL166  LYS551  ARG553  GLY616  TRP617  ASP618  TYR619  PRO620  LYS621  CYS622 
 ASP623  PHE694  ASN695  SER759  ASP760  ASP761  ALA762  ILE779  LEU786  VAL792 
 PHE793  MET794  SER795  GLU796  ALA797  LYS798  CYS799  TRP800  GLU811  SER814 

> <Gold.Protein.RotatedAtoms>
  152.4947  134.4353  159.9525 H   0  0  0  0  0  0  0  0  0  0  0  0  # atno 6907 bound_to 6896
  151.4334  133.3657  159.2779 H   0  0  0  0  0  0  0  0  0  0  0  0  # atno 6908 bound_to 6896
  150.9138  134.8579  159.7503 H   0  0  0  0  0  0  0  0  0  0  0  0  # atno 6909 bound_to 6896
  145.2131  140.9104  143.3303 H   0  0  0  0  0  0  0  0  0  0  0  0  # atno 7974 bound_to 7965
  155.9118  140.3427  155.6105 H   0  0  0  0  0  0  0  0  0  0  0  0  # atno 8008 bound_to 7997
  155.7378  140.0803  157.2278 H   0  0  0  0  0  0  0  0  0  0  0  0  # atno 8009 bound_to 7997
  154.4057  140.1576  156.2569 H   0  0  0  0  0  0  0  0  0  0  0  0  # atno 8010 bound_to 7997
  140.7248  143.3841  151.1548 H   0  0  0  0  0  0  0  0  0  0  0  0  # atno 10167 bound_to 10162
  156.7048  130.5104  149.5907 H   0  0  0  0  0  0  0  0  0  0  0  0  # atno 10718 bound_to 10713
  153.0941  135.4845  154.8745 H   0  0  0  0  0  0  0  0  0  0  0  0  # atno 10763 bound_to 10752
  154.7303  135.3059  154.8904 H   0  0  0  0  0  0  0  0  0  0  0  0  # atno 10764 bound_to 10752
  153.9542  135.6820  153.4797 H   0  0  0  0  0  0  0  0  0  0  0  0  # atno 10765 bound_to 10752
  139.9591  134.7092  156.0686 H   0  0  0  0  0  0  0  0  0  0  0  0  # atno 11005 bound_to 11000
  144.9836  139.3758  143.6249 LP  0  0  0  0  0  0  0  0  0  0  0  0  # atno 17320 bound_to 7965
  146.3393  139.8988  142.8797 LP  0  0  0  0  0  0  0  0  0  0  0  0  # atno 17321 bound_to 7965
  139.7435  143.8888  152.3057 LP  0  0  0  0  0  0  0  0  0  0  0  0  # atno 17342 bound_to 10162
  139.8717  144.7064  150.8979 LP  0  0  0  0  0  0  0  0  0  0  0  0  # atno 17343 bound_to 10162
  156.1703  130.6432  151.0829 LP  0  0  0  0  0  0  0  0  0  0  0  0  # atno 17370 bound_to 10713
  157.6959  131.0794  150.6970 LP  0  0  0  0  0  0  0  0  0  0  0  0  # atno 17371 bound_to 10713
  141.1266  133.6597  156.3353 LP  0  0  0  0  0  0  0  0  0  0  0  0  # atno 17394 bound_to 11000
  140.5541  134.5998  157.5416 LP  0  0  0  0  0  0  0  0  0  0  0  0  # atno 17395 bound_to 11000

$$$$
