AV-unprocessed.smi:1893|AV-procd|sdf|7677|dock2
  -GOLD-   22720 9413D 1   1.00000     0.00000
 Structure written by MMmdl.
 43 44  0  0  0  0  0  0  0  0  2 V2000
  143.7926  136.4255  152.3322 C   0  0  0  0  0  0  0  0  0  0  0  0
  145.1960  136.2902  151.7018 C   0  0  2  0  0  0  0  0  0  0  0  0
  145.3100  135.0566  150.7814 C   0  0  0  0  0  0  0  0  0  0  0  0
  145.3658  133.7446  151.5778 C   0  0  0  0  0  0  0  0  0  0  0  0
  146.4947  133.8068  152.6135 C   0  0  0  0  0  0  0  0  0  0  0  0
  146.3553  135.0442  153.5153 C   0  0  0  0  0  0  0  0  0  0  0  0
  146.3011  136.2932  152.7071 N   0  3  2  0  0  0  0  0  0  0  0  0
  146.3611  137.5333  153.5227 C   0  0  0  0  0  0  0  0  0  0  0  0
  146.6164  138.7870  152.6642 C   0  0  0  0  0  0  0  0  0  0  0  0
  147.9060  139.3889  152.9787 N   0  0  0  0  0  0  0  0  0  0  0  0
  148.3927  139.5608  154.2184 C   0  0  0  0  0  0  0  0  0  0  0  0
  147.7624  139.2527  155.2307 O   0  0  0  0  0  0  0  0  0  0  0  0
  149.8044  140.1627  154.3190 C   0  0  1  0  0  0  0  0  0  0  0  0
  149.8680  141.4035  155.2326 C   0  0  0  0  0  0  0  0  0  0  0  0
  150.7632  139.1422  154.7258 N   0  0  0  0  0  0  0  0  0  0  0  0
  150.9975  137.9317  154.2147 C   0  0  0  0  0  0  0  0  0  0  0  0
  151.9231  137.2418  154.8660 N   0  0  0  0  0  0  0  0  0  0  0  0
  152.2399  138.1469  155.8388 C   0  0  0  0  0  0  0  0  0  0  0  0
  151.5669  139.2969  155.8076 N   0  0  0  0  0  0  0  0  0  0  0  0
  143.0243  136.4348  151.5587 H   0  0  0  0  0  0  0  0  0  0  0  0
  143.6882  137.3550  152.8919 H   0  0  0  0  0  0  0  0  0  0  0  0
  143.5588  135.6045  153.0091 H   0  0  0  0  0  0  0  0  0  0  0  0
  145.3420  137.1653  151.0665 H   0  0  0  0  0  0  0  0  0  0  0  0
  144.4790  135.0312  150.0758 H   0  0  0  0  0  0  0  0  0  0  0  0
  146.2150  135.1432  150.1783 H   0  0  0  0  0  0  0  0  0  0  0  0
  144.4129  133.5655  152.0765 H   0  0  0  0  0  0  0  0  0  0  0  0
  145.5228  132.9030  150.9024 H   0  0  0  0  0  0  0  0  0  0  0  0
  146.4934  132.9009  153.2205 H   0  0  0  0  0  0  0  0  0  0  0  0
  147.4582  133.8348  152.1028 H   0  0  0  0  0  0  0  0  0  0  0  0
  145.4649  134.9612  154.1392 H   0  0  0  0  0  0  0  0  0  0  0  0
  147.2047  135.0736  154.1965 H   0  0  0  0  0  0  0  0  0  0  0  0
  145.4100  137.6614  154.0417 H   0  0  0  0  0  0  0  0  0  0  0  0
  147.1239  137.4346  154.2967 H   0  0  0  0  0  0  0  0  0  0  0  0
  146.6246  138.5383  151.6035 H   0  0  0  0  0  0  0  0  0  0  0  0
  145.8186  139.5182  152.8061 H   0  0  0  0  0  0  0  0  0  0  0  0
  148.4812  139.6737  152.1990 H   0  0  0  0  0  0  0  0  0  0  0  0
  150.0852  140.4853  153.3151 H   0  0  0  0  0  0  0  0  0  0  0  0
  149.2022  142.1901  154.8759 H   0  0  0  0  0  0  0  0  0  0  0  0
  150.8767  141.8168  155.2552 H   0  0  0  0  0  0  0  0  0  0  0  0
  149.5846  141.1705  156.2599 H   0  0  0  0  0  0  0  0  0  0  0  0
  150.4759  137.5442  153.3514 H   0  0  0  0  0  0  0  0  0  0  0  0
  152.9834  137.9493  156.5972 H   0  0  0  0  0  0  0  0  0  0  0  0
  147.1476  136.2987  152.1560 H   0  0  0  0  0  0  0  0  0  0  0  0
  1  2  1  0  0  0  0
  1 20  1  0  0  0  0
  1 21  1  0  0  0  0
  1 22  1  0  0  0  0
  2  7  1  0  0  0  0
  2  3  1  0  0  0  0
  2 23  1  0  0  0  0
  3  4  1  0  0  0  0
  3 24  1  0  0  0  0
  3 25  1  0  0  0  0
  4  5  1  0  0  0  0
  4 26  1  0  0  0  0
  4 27  1  0  0  0  0
  5  6  1  0  0  0  0
  5 28  1  0  0  0  0
  5 29  1  0  0  0  0
  6  7  1  0  0  0  0
  6 30  1  0  0  0  0
  6 31  1  0  0  0  0
  7  8  1  0  0  0  0
  7 43  1  0  0  0  0
  8  9  1  0  0  0  0
  8 32  1  0  0  0  0
  8 33  1  0  0  0  0
  9 10  1  0  0  0  0
  9 34  1  0  0  0  0
  9 35  1  0  0  0  0
 10 11  1  0  0  0  0
 10 36  1  0  0  0  0
 11 12  2  0  0  0  0
 11 13  1  0  0  0  0
 13 14  1  0  0  0  0
 13 15  1  0  0  0  0
 13 37  1  0  0  0  0
 14 38  1  0  0  0  0
 14 39  1  0  0  0  0
 14 40  1  0  0  0  0
 15 19  1  0  0  0  0
 15 16  1  0  0  0  0
 16 17  2  0  0  0  0
 16 41  1  0  0  0  0
 17 18  1  0  0  0  0
 18 19  2  0  0  0  0
 18 42  1  0  0  0  0
M  CHG  1   7   1
M  END
> <s_m_source_file>
AV-unprocessed.smi

> <i_m_source_file_index>
1893

> <i_lp_mmshare_version>
43012

> <i_f3d_flags>
0

> <s_epik_input>
W0NIM11bQ0BASF0xW0NIMl1bQ0gyXVtDSDJdW0NIMl1OMVtDSDJdW0NIMl1bTkhdQyg9TylbQ0BIXShbQ0gzXSluMltjSF1uW2NIXW4y

> <s_epik_cmdline>
J2VwaWtfcHl0aG9uJywgJy1waCcsICc3LjAnLCAnLXRuJywgJzgnLCAnLW1hJywgJzIwMCcsICctbWV0YWxfYmluZGluZycsICctaW1hZScsICc8aW5maWxlLm1hZT4nLCAnLW9tYWUnLCAnPG91dGZpbGUubWFlPic=

> <r_lp_tautomer_probability>
1

> <r_epik_Ionization_Penalty>
0.00266409

> <r_epik_Ionization_Penalty_Charging>
0.00265606

> <r_epik_Ionization_Penalty_Neutral>
8.02794e-06

> <r_epik_State_Penalty>
0.00184955

> <r_epik_Charging_Adjusted_Penalty>
0.00450561

> <i_epik_Tot_Q>
1

> <i_epik_Tot_abs_Q>
1

> <r_epik_Metal_State_Penalty>
-0

> <b_epik_Metal_Only>
0

> <s_lp_Force_Field>
OPLS_2005

> <r_lp_Energy>
24.5349

> <b_lp_Chiralities_Consistent>
1

> <s_lp_Variant>
AV-unprocessed.smi:1893-7

> <Gold.Version>
5.8.1

> <Gold.Id.Protein>
6NUR|6NUR_protein|mol2

> <Gold.PLP.Fitness>
47.5130

> <Gold.PLP.PLP>
-33.4226

> <Gold.PLP.part.hbond>
-3.0000

> <Gold.PLP.part.metal>
0.0000

> <Gold.PLP.part.buried>
-2.4708

> <Gold.PLP.part.nonpolar>
-27.8710

> <Gold.PLP.part.repulsive>
0.2229

> <Gold.PLP.ligand.clash>
0.0000

> <Gold.PLP.ligand.torsion>
0.7421

> <Gold.PLP.Chemscore.Hbond>
3.9120

> <Gold.PLP.Chemscore.CHOScore>
1.1854

> <Gold.PLP.Chemscore.Metal>
0.0000

> <Gold.Chemscore.Hbonds>
donor molecule, donor type, donor heavy atom, donor atom, acceptor molecule, acceptor atom, score
      L1  H     7    43       P1  7948  2.00
      L1  H    10    36       P1  7957  1.00
      P1  H 10752 10765       L1    17  0.96
      L1  C    16    41       P1  7948  0.66
      L1  C    16    41       P1  7949  0.49

> <Gold.PLP.Chemscore.Internal.Correction>
0.2822

> <Gold.Rescore>
     Score         DG    S(hbond)    S(metal)    S(lipo)     H(rot)  DE(clash)    DE(int)     intcor
     12.94     -14.95       2.96        0.00      51.92       2.54       0.00       2.01       ----

> <Gold.Chemscore.Fitness>
12.9431

> <Gold.Chemscore.DG>
-14.9540

> <Gold.Chemscore.ZeroCoef>
-5.4800

> <Gold.Chemscore.Hbond>
2.9630

> <Gold.Chemscore.Metal>
0.0000

> <Gold.Chemscore.Lipo>
51.9155

> <Gold.Chemscore.Internal_Hbond>
0.0000

> <Gold.Chemscore.DEClash>
0.0009

> <Gold.Chemscore.DEInternal>
2.0099

> <Gold.Chemscore.Rot>
2.5377

> <Gold.Chemscore.Internal.Correction>
   9.000000E+99

> <Gold.Chemscore.Hbonds>
donor molecule, donor type, donor heavy atom, donor atom, acceptor molecule, acceptor atom, score
      L1  H     7    43       P1  7948  0.99
      L1  H    10    36       P1  7957  0.96
      P1  H 10752 10765       L1    17  0.91

> <Gold.Chemscore.Hbond.Weighted>
-9.8965

> <Gold.Chemscore.Metal.Weighted>
-0.0000

> <Gold.Chemscore.Lipo.Weighted>
-6.0741

> <Gold.Chemscore.Internal_Hbond.Weighted>
0.0000

> <Gold.Chemscore.DEClash.Weighted>
0.0009

> <Gold.Chemscore.DEInternal.Weighted>
2.0099

> <Gold.Chemscore.Rot.Weighted>
6.4966

> <Gold.Chemscore.Internal.Correction.Weighted>
   9.000000E+99

> <Gold.Protein.RotatedTorsions>
[ 6907 6896 6895 6894 ] final   -4.27 input  -60.11 | X-H torsion
[ 7974 7965 7964 7962 ] final -155.17 input  175.53 | X-H torsion
[ 8008 7997 7996 7995 ] final  139.61 input   59.86 | X-H torsion
[ 10167 10162 10161 10158 ] final -174.39 input  -65.29 | X-H torsion
[ 10718 10713 10712 10709 ] final  125.41 input   66.30 | X-H torsion
[ 10763 10752 10751 10750 ] final  174.96 input  -60.55 | X-H torsion
[ 11005 11000 10999 10996 ] final    7.72 input  -57.11 | X-H torsion

> <Gold.Protein.ActiveResidues>
 VAL166  LYS551  ARG553  GLY616  TRP617  ASP618  TYR619  PRO620  LYS621  CYS622 
 ASP623  PHE694  ASN695  SER759  ASP760  ASP761  ALA762  ILE779  LEU786  VAL792 
 PHE793  MET794  SER795  GLU796  ALA797  LYS798  CYS799  TRP800  GLU811  SER814 

> <Gold.Protein.RotatedAtoms>
  151.5003  135.1061  159.9826 H   0  0  0  0  0  0  0  0  0  0  0  0  # atno 6907 bound_to 6896
  152.4704  133.8013  159.6965 H   0  0  0  0  0  0  0  0  0  0  0  0  # atno 6908 bound_to 6896
  150.8710  133.7442  159.2987 H   0  0  0  0  0  0  0  0  0  0  0  0  # atno 6909 bound_to 6896
  144.7653  140.4287  143.5946 H   0  0  0  0  0  0  0  0  0  0  0  0  # atno 7974 bound_to 7965
  156.2988  140.2363  156.4266 H   0  0  0  0  0  0  0  0  0  0  0  0  # atno 8008 bound_to 7997
  154.8308  140.0433  157.1495 H   0  0  0  0  0  0  0  0  0  0  0  0  # atno 8009 bound_to 7997
  154.9210  140.3003  155.5220 H   0  0  0  0  0  0  0  0  0  0  0  0  # atno 8010 bound_to 7997
  139.5637  144.1808  152.1278 H   0  0  0  0  0  0  0  0  0  0  0  0  # atno 10167 bound_to 10162
  157.5505  131.1094  150.8710 H   0  0  0  0  0  0  0  0  0  0  0  0  # atno 10718 bound_to 10713
  154.4611  135.2768  155.1712 H   0  0  0  0  0  0  0  0  0  0  0  0  # atno 10763 bound_to 10752
  154.3500  135.6152  153.5641 H   0  0  0  0  0  0  0  0  0  0  0  0  # atno 10764 bound_to 10752
  152.9855  135.5809  154.4973 H   0  0  0  0  0  0  0  0  0  0  0  0  # atno 10765 bound_to 10752
  140.5450  134.0338  155.7917 H   0  0  0  0  0  0  0  0  0  0  0  0  # atno 11005 bound_to 11000
  145.6489  139.1562  143.2873 LP  0  0  0  0  0  0  0  0  0  0  0  0  # atno 17320 bound_to 7965
  146.1755  140.6580  142.9213 LP  0  0  0  0  0  0  0  0  0  0  0  0  # atno 17321 bound_to 7965
  140.1327  144.5274  150.6792 LP  0  0  0  0  0  0  0  0  0  0  0  0  # atno 17342 bound_to 10162
  140.6918  143.2380  151.5109 LP  0  0  0  0  0  0  0  0  0  0  0  0  # atno 17343 bound_to 10162
  156.9236  130.5324  149.5279 LP  0  0  0  0  0  0  0  0  0  0  0  0  # atno 17370 bound_to 10713
  156.0572  130.5632  150.9117 LP  0  0  0  0  0  0  0  0  0  0  0  0  # atno 17371 bound_to 10713
  141.1205  133.9469  157.2739 LP  0  0  0  0  0  0  0  0  0  0  0  0  # atno 17394 bound_to 11000
  139.9484  135.0180  156.8922 LP  0  0  0  0  0  0  0  0  0  0  0  0  # atno 17395 bound_to 11000

$$$$
