AV-unprocessed.smi:3304|AV-procd|sdf|12697|dock4
  -GOLD-   2272019 33D 1   1.00000     0.00000
 Structure written by MMmdl.
 46 47  0  0  0  0  0  0  0  0  2 V2000
  155.3456  144.0296  165.1549 C   0  0  0  0  0  0  0  0  0  0  0  0
  155.5951  142.9178  166.1222 C   0  0  0  0  0  0  0  0  0  0  0  0
  155.9912  141.6236  165.9154 C   0  0  0  0  0  0  0  0  0  0  0  0
  156.2983  140.9205  164.6215 C   0  0  0  0  0  0  0  0  0  0  0  0
  155.0456  140.7790  163.7469 C   0  0  0  0  0  0  0  0  0  0  0  0
  155.3646  141.0017  162.3238 N   0  3  0  0  0  0  0  0  0  0  0  0
  154.2215  140.7958  161.4119 C   0  0  0  0  0  0  0  0  0  0  0  0
  153.6978  142.1295  160.8480 C   0  0  2  0  0  0  0  0  0  0  0  0
  152.7438  142.8134  161.8473 C   0  0  0  0  0  0  0  0  0  0  0  0
  152.2113  144.1493  161.3035 C   0  0  0  0  0  0  0  0  0  0  0  0
  151.5087  143.9685  159.9452 C   0  0  1  0  0  0  0  0  0  0  0  0
  150.9868  145.3054  159.3998 C   0  0  0  0  0  0  0  0  0  0  0  0
  152.4541  143.2809  158.9430 C   0  0  0  0  0  0  0  0  0  0  0  0
  152.9863  141.9463  159.4902 C   0  0  0  0  0  0  0  0  0  0  0  0
  156.0469  141.0748  167.2277 C   0  0  0  0  0  0  0  0  0  0  0  0
  155.7132  141.9456  168.1630 N   0  0  0  0  0  0  0  0  0  0  0  0
  155.4355  143.0787  167.4857 N   0  0  0  0  0  0  0  0  0  0  0  0
  155.0255  144.2621  168.2165 C   0  0  0  0  0  0  0  0  0  0  0  0
  155.5383  143.7136  164.1297 H   0  0  0  0  0  0  0  0  0  0  0  0
  155.9917  144.8813  165.3687 H   0  0  0  0  0  0  0  0  0  0  0  0
  154.3105  144.3670  165.2112 H   0  0  0  0  0  0  0  0  0  0  0  0
  157.0692  141.4578  164.0679 H   0  0  0  0  0  0  0  0  0  0  0  0
  156.7125  139.9306  164.8171 H   0  0  0  0  0  0  0  0  0  0  0  0
  154.6183  139.7825  163.8666 H   0  0  0  0  0  0  0  0  0  0  0  0
  154.2857  141.4964  164.0600 H   0  0  0  0  0  0  0  0  0  0  0  0
  155.6986  141.9484  162.2119 H   0  0  0  0  0  0  0  0  0  0  0  0
  154.5149  140.1304  160.5986 H   0  0  0  0  0  0  0  0  0  0  0  0
  153.4287  140.2908  161.9660 H   0  0  0  0  0  0  0  0  0  0  0  0
  154.5520  142.7931  160.7014 H   0  0  0  0  0  0  0  0  0  0  0  0
  151.9051  142.1527  162.0703 H   0  0  0  0  0  0  0  0  0  0  0  0
  153.2568  142.9883  162.7936 H   0  0  0  0  0  0  0  0  0  0  0  0
  151.5205  144.5869  162.0250 H   0  0  0  0  0  0  0  0  0  0  0  0
  153.0370  144.8549  161.2012 H   0  0  0  0  0  0  0  0  0  0  0  0
  150.6466  143.3167  160.0960 H   0  0  0  0  0  0  0  0  0  0  0  0
  151.8018  146.0085  159.2253 H   0  0  0  0  0  0  0  0  0  0  0  0
  150.2906  145.7695  160.0988 H   0  0  0  0  0  0  0  0  0  0  0  0
  150.4604  145.1655  158.4553 H   0  0  0  0  0  0  0  0  0  0  0  0
  151.9341  143.1068  158.0003 H   0  0  0  0  0  0  0  0  0  0  0  0
  153.2929  143.9400  158.7143 H   0  0  0  0  0  0  0  0  0  0  0  0
  153.6673  141.5078  158.7603 H   0  0  0  0  0  0  0  0  0  0  0  0
  152.1586  141.2438  159.5986 H   0  0  0  0  0  0  0  0  0  0  0  0
  156.3166  140.0724  167.5261 H   0  0  0  0  0  0  0  0  0  0  0  0
  155.7272  145.0735  168.0235 H   0  0  0  0  0  0  0  0  0  0  0  0
  155.0014  144.0654  169.2891 H   0  0  0  0  0  0  0  0  0  0  0  0
  154.0302  144.5662  167.8919 H   0  0  0  0  0  0  0  0  0  0  0  0
  156.1026  140.3654  162.0579 H   0  0  0  0  0  0  0  0  0  0  0  0
  1  2  1  0  0  0  0
  1 19  1  0  0  0  0
  1 20  1  0  0  0  0
  1 21  1  0  0  0  0
  2 17  1  0  0  0  0
  2  3  2  0  0  0  0
  3  4  1  0  0  0  0
  3 15  1  0  0  0  0
  4  5  1  0  0  0  0
  4 22  1  0  0  0  0
  4 23  1  0  0  0  0
  5  6  1  0  0  0  0
  5 24  1  0  0  0  0
  5 25  1  0  0  0  0
  6  7  1  0  0  0  0
  6 26  1  0  0  0  0
  6 46  1  0  0  0  0
  7  8  1  0  0  0  0
  7 27  1  0  0  0  0
  7 28  1  0  0  0  0
  8 14  1  0  0  0  0
  8  9  1  0  0  0  0
  8 29  1  0  0  0  0
  9 10  1  0  0  0  0
  9 30  1  0  0  0  0
  9 31  1  0  0  0  0
 10 11  1  0  0  0  0
 10 32  1  0  0  0  0
 10 33  1  0  0  0  0
 11 12  1  0  0  0  0
 11 13  1  0  0  0  0
 11 34  1  0  0  0  0
 12 35  1  0  0  0  0
 12 36  1  0  0  0  0
 12 37  1  0  0  0  0
 13 14  1  0  0  0  0
 13 38  1  0  0  0  0
 13 39  1  0  0  0  0
 14 40  1  0  0  0  0
 14 41  1  0  0  0  0
 15 16  2  0  0  0  0
 15 42  1  0  0  0  0
 16 17  1  0  0  0  0
 17 18  1  0  0  0  0
 18 43  1  0  0  0  0
 18 44  1  0  0  0  0
 18 45  1  0  0  0  0
M  CHG  1   6   1
M  END
> <s_m_source_file>
AV-unprocessed.smi

> <i_m_source_file_index>
3304

> <i_lp_mmshare_version>
43012

> <i_f3d_flags>
0

> <s_epik_input>
W0NIM11uMW5bY0hdYyhjMVtDSDNdKVtDSDJdW0NIMl1bTkhdW0NIMl1bQ0BASF0yW0NIMl1bQ0gyXVtDQEBIXShbQ0gzXSlbQ0gyXVtDSDJdMg==

> <s_epik_cmdline>
J2VwaWtfcHl0aG9uJywgJy1waCcsICc3LjAnLCAnLXRuJywgJzgnLCAnLW1hJywgJzIwMCcsICctbWV0YWxfYmluZGluZycsICctaW1hZScsICc8aW5maWxlLm1hZT4nLCAnLW9tYWUnLCAnPG91dGZpbGUubWFlPic=

> <r_lp_tautomer_probability>
1

> <r_epik_Ionization_Penalty>
0.000505313

> <r_epik_Ionization_Penalty_Charging>
0.000421171

> <r_epik_Ionization_Penalty_Neutral>
8.41424e-05

> <r_epik_State_Penalty>
-0

> <r_epik_Charging_Adjusted_Penalty>
0.000421171

> <i_epik_Tot_Q>
1

> <i_epik_Tot_abs_Q>
1

> <r_epik_Metal_State_Penalty>
-0

> <b_epik_Metal_Only>
0

> <s_lp_Force_Field>
OPLS_2005

> <r_lp_Energy>
10.3881

> <b_lp_Chiralities_Consistent>
1

> <s_lp_Variant>
AV-unprocessed.smi:3304-1

> <Gold.Version>
5.8.1

> <Gold.Id.Protein>
6NUR|6NUR_protein|mol2

> <Gold.PLP.Fitness>
47.4889

> <Gold.PLP.PLP>
-49.2859

> <Gold.PLP.part.hbond>
-0.9365

> <Gold.PLP.part.metal>
0.0000

> <Gold.PLP.part.buried>
-6.4937

> <Gold.PLP.part.nonpolar>
-41.8391

> <Gold.PLP.part.repulsive>
0.0933

> <Gold.PLP.ligand.clash>
0.0000

> <Gold.PLP.ligand.torsion>
0.9113

> <Gold.PLP.Chemscore.Hbond>
0.0000

> <Gold.PLP.Chemscore.CHOScore>
0.0000

> <Gold.PLP.Chemscore.Metal>
0.0000

> <Gold.PLP.Chemscore.Internal.Correction>
0.0255

> <Gold.Rescore>
     Score         DG    S(hbond)    S(metal)    S(lipo)     H(rot)  DE(clash)    DE(int)     intcor
     16.07     -18.71       0.00        0.00     144.43       1.43       1.75       0.89       ----

> <Gold.Chemscore.Fitness>
16.0689

> <Gold.Chemscore.DG>
-18.7091

> <Gold.Chemscore.ZeroCoef>
-5.4800

> <Gold.Chemscore.Hbond>
0.0000

> <Gold.Chemscore.Metal>
0.0000

> <Gold.Chemscore.Lipo>
144.4259

> <Gold.Chemscore.Internal_Hbond>
0.0000

> <Gold.Chemscore.DEClash>
1.7540

> <Gold.Chemscore.DEInternal>
0.8862

> <Gold.Chemscore.Rot>
1.4331

> <Gold.Chemscore.Internal.Correction>
   9.000000E+99

> <Gold.Chemscore.Hbond.Weighted>
-0.0000

> <Gold.Chemscore.Metal.Weighted>
-0.0000

> <Gold.Chemscore.Lipo.Weighted>
-16.8978

> <Gold.Chemscore.Internal_Hbond.Weighted>
0.0000

> <Gold.Chemscore.DEClash.Weighted>
1.7540

> <Gold.Chemscore.DEInternal.Weighted>
0.8862

> <Gold.Chemscore.Rot.Weighted>
3.6688

> <Gold.Chemscore.Internal.Correction.Weighted>
   9.000000E+99

> <Gold.Protein.RotatedTorsions>
[ 6907 6896 6895 6894 ] final   -5.48 input  -60.11 | X-H torsion
[ 7974 7965 7964 7962 ] final  154.29 input  175.53 | X-H torsion
[ 8008 7997 7996 7995 ] final   22.08 input   59.86 | X-H torsion
[ 10167 10162 10161 10158 ] final -111.13 input  -65.29 | X-H torsion
[ 10718 10713 10712 10709 ] final  -90.80 input   66.30 | X-H torsion
[ 10763 10752 10751 10750 ] final -122.18 input  -60.55 | X-H torsion
[ 11005 11000 10999 10996 ] final -167.68 input  -57.11 | X-H torsion

> <Gold.Protein.ActiveResidues>
 VAL166  LYS551  ARG553  GLY616  TRP617  ASP618  TYR619  PRO620  LYS621  CYS622 
 ASP623  PHE694  ASN695  SER759  ASP760  ASP761  ALA762  ILE779  LEU786  VAL792 
 PHE793  MET794  SER795  GLU796  ALA797  LYS798  CYS799  TRP800  GLU811  SER814 

> <Gold.Protein.RotatedAtoms>
  151.4809  135.1052  159.9777 H   0  0  0  0  0  0  0  0  0  0  0  0  # atno 6907 bound_to 6896
  152.4780  133.8180  159.7049 H   0  0  0  0  0  0  0  0  0  0  0  0  # atno 6908 bound_to 6896
  150.8830  133.7284  159.2953 H   0  0  0  0  0  0  0  0  0  0  0  0  # atno 6909 bound_to 6896
  144.8098  139.6915  143.6146 H   0  0  0  0  0  0  0  0  0  0  0  0  # atno 7974 bound_to 7965
  154.9603  140.3077  155.5034 H   0  0  0  0  0  0  0  0  0  0  0  0  # atno 8008 bound_to 7997
  156.2978  140.2302  156.4626 H   0  0  0  0  0  0  0  0  0  0  0  0  # atno 8009 bound_to 7997
  154.7972  140.0436  157.1234 H   0  0  0  0  0  0  0  0  0  0  0  0  # atno 8010 bound_to 7997
  140.1370  143.4312  152.1588 H   0  0  0  0  0  0  0  0  0  0  0  0  # atno 10167 bound_to 10162
  155.9990  130.4924  150.5378 H   0  0  0  0  0  0  0  0  0  0  0  0  # atno 10718 bound_to 10713
  154.8684  135.4142  154.2740 H   0  0  0  0  0  0  0  0  0  0  0  0  # atno 10763 bound_to 10752
  153.3645  135.7005  153.6692 H   0  0  0  0  0  0  0  0  0  0  0  0  # atno 10764 bound_to 10752
  153.5579  135.3616  155.2759 H   0  0  0  0  0  0  0  0  0  0  0  0  # atno 10765 bound_to 10752
  140.5506  134.5432  157.5121 H   0  0  0  0  0  0  0  0  0  0  0  0  # atno 11005 bound_to 11000
  146.2395  139.5972  142.9501 LP  0  0  0  0  0  0  0  0  0  0  0  0  # atno 17320 bound_to 7965
  145.5351  141.0424  143.2361 LP  0  0  0  0  0  0  0  0  0  0  0  0  # atno 17321 bound_to 7965
  139.5491  144.7323  151.4491 LP  0  0  0  0  0  0  0  0  0  0  0  0  # atno 17342 bound_to 10162
  140.6783  143.8139  150.7088 LP  0  0  0  0  0  0  0  0  0  0  0  0  # atno 17343 bound_to 10162
  157.3319  131.0701  151.1854 LP  0  0  0  0  0  0  0  0  0  0  0  0  # atno 17370 bound_to 10713
  157.2732  130.6714  149.6030 LP  0  0  0  0  0  0  0  0  0  0  0  0  # atno 17371 bound_to 10713
  139.9457  134.7706  156.0568 LP  0  0  0  0  0  0  0  0  0  0  0  0  # atno 17394 bound_to 11000
  141.1174  133.6623  156.3128 LP  0  0  0  0  0  0  0  0  0  0  0  0  # atno 17395 bound_to 11000

$$$$
