AV-unprocessed.smi:35|AV-procd|sdf|262|dock9
  -GOLD-   2262016 23D 1   1.00000     0.00000
 Structure written by MMmdl.
 29 30  0  0  0  0  0  0  0  0  1 V2000
  152.2803  137.0114  159.7774 O   0  0  0  0  0  0  0  0  0  0  0  0
  151.9713  137.8024  158.8890 C   0  0  0  0  0  0  0  0  0  0  0  0
  152.0672  139.1794  159.1056 N   0  0  0  0  0  0  0  0  0  0  0  0
  151.7409  140.1704  158.1782 C   0  0  0  0  0  0  0  0  0  0  0  0
  151.8806  141.3569  158.4727 O   0  0  0  0  0  0  0  0  0  0  0  0
  151.2550  139.7495  156.9192 N   0  0  0  0  0  0  0  0  0  0  0  0
  150.9115  140.8157  155.8928 C   0  0  1  0  0  0  0  0  0  0  0  0
  150.3602  140.2127  154.7592 O   0  0  0  0  0  0  0  0  0  0  0  0
  148.9389  140.2628  154.8336 C   0  0  2  0  0  0  0  0  0  0  0  0
  148.2961  139.9828  153.4645 C   0  0  0  0  0  0  0  0  0  0  0  0
  148.7469  138.7406  152.9679 O   0  0  0  0  0  0  0  0  0  0  0  0
  148.7081  141.6638  155.4069 C   0  0  2  0  0  0  0  0  0  0  0  0
  148.7993  142.6412  154.3824 O   0  0  0  0  0  0  0  0  0  0  0  0
  149.8318  141.7806  156.4369 C   0  0  2  0  0  0  0  0  0  0  0  0
  150.2892  143.1112  156.5955 O   0  0  0  0  0  0  0  0  0  0  0  0
  151.1700  138.3866  156.6501 C   0  0  0  0  0  0  0  0  0  0  0  0
  151.4952  137.4379  157.5598 C   0  0  0  0  0  0  0  0  0  0  0  0
  151.2980  135.5528  156.9829 Br  0  0  0  0  0  0  0  0  0  0  0  0
  152.4058  139.4823  160.0073 H   0  0  0  0  0  0  0  0  0  0  0  0
  151.8616  141.2869  155.6335 H   0  0  0  0  0  0  0  0  0  0  0  0
  148.5853  139.5352  155.5666 H   0  0  0  0  0  0  0  0  0  0  0  0
  147.2121  139.9212  153.5641 H   0  0  0  0  0  0  0  0  0  0  0  0
  148.5143  140.7772  152.7501 H   0  0  0  0  0  0  0  0  0  0  0  0
  149.2492  138.8959  152.1827 H   0  0  0  0  0  0  0  0  0  0  0  0
  147.7261  141.7522  155.8729 H   0  0  0  0  0  0  0  0  0  0  0  0
  148.5369  143.4746  154.7435 H   0  0  0  0  0  0  0  0  0  0  0  0
  149.4686  141.4132  157.3981 H   0  0  0  0  0  0  0  0  0  0  0  0
  149.5926  143.6971  156.3395 H   0  0  0  0  0  0  0  0  0  0  0  0
  150.8375  138.0391  155.6838 H   0  0  0  0  0  0  0  0  0  0  0  0
  1  2  2  0  0  0  0
  2 17  1  0  0  0  0
  2  3  1  0  0  0  0
  3 19  1  0  0  0  0
  3  4  1  0  0  0  0
  4  5  2  0  0  0  0
  4  6  1  0  0  0  0
  6  7  1  0  0  0  0
  6 16  1  0  0  0  0
  7 14  1  0  0  0  0
  7  8  1  0  0  0  0
  7 20  1  0  0  0  0
  8  9  1  0  0  0  0
  9 10  1  0  0  0  0
  9 12  1  0  0  0  0
  9 21  1  0  0  0  0
 10 11  1  0  0  0  0
 10 22  1  0  0  0  0
 10 23  1  0  0  0  0
 11 24  1  0  0  0  0
 12 13  1  0  0  0  0
 12 14  1  0  0  0  0
 12 25  1  0  0  0  0
 13 26  1  0  0  0  0
 14 15  1  0  0  0  0
 14 27  1  0  0  0  0
 15 28  1  0  0  0  0
 16 17  2  0  0  0  0
 16 29  1  0  0  0  0
 17 18  1  0  0  0  0
M  END
> <s_m_source_file>
AV-unprocessed.smi

> <i_m_source_file_index>
35

> <i_lp_mmshare_version>
43012

> <i_f3d_flags>
0

> <s_epik_input>
Tz1jMVtuSF1jKD1PKW4oW2NIXWMxQnIpW0NAQEhdMk9bQ0BASF0oW0NIMl1bT0hdKVtDQEBIXShbT0hdKVtDQEhdMltPSF0=

> <s_epik_cmdline>
J2VwaWtfcHl0aG9uJywgJy1waCcsICc3LjAnLCAnLXRuJywgJzgnLCAnLW1hJywgJzIwMCcsICctbWV0YWxfYmluZGluZycsICctaW1hZScsICc8aW5maWxlLm1hZT4nLCAnLW9tYWUnLCAnPG91dGZpbGUubWFlPic=

> <r_lp_tautomer_probability>
0.999537

> <r_epik_Ionization_Penalty>
0.10812

> <r_epik_Ionization_Penalty_Charging>
0.108119

> <r_epik_Ionization_Penalty_Neutral>
4.93006e-07

> <r_epik_State_Penalty>
0.0979238

> <r_epik_Charging_Adjusted_Penalty>
0.206043

> <i_epik_Tot_Q>
0

> <i_epik_Tot_abs_Q>
0

> <r_epik_Metal_State_Penalty>
3.07911

> <b_epik_Metal_Only>
0

> <s_epik_Chemistry_Notes>
This compound contains an acetal/aminal-like group ( X-CH(R)-Y where X, Y are N, S, or O) that may be acid/base labile, releasing an aldehyde.

> <s_lp_Force_Field>
OPLS_2005

> <r_lp_Energy>
32.933

> <b_lp_Chiralities_Consistent>
1

> <s_lp_Variant>
AV-unprocessed.smi:35-16

> <Gold.Version>
5.8.1

> <Gold.Id.Protein>
6NUR|6NUR_protein|mol2

> <Gold.PLP.Fitness>
38.0290

> <Gold.PLP.PLP>
-23.9498

> <Gold.PLP.part.hbond>
-5.9418

> <Gold.PLP.part.metal>
0.0000

> <Gold.PLP.part.buried>
-1.0659

> <Gold.PLP.part.nonpolar>
-16.4942

> <Gold.PLP.part.repulsive>
0.1652

> <Gold.PLP.ligand.clash>
0.0000

> <Gold.PLP.ligand.torsion>
0.0696

> <Gold.PLP.Chemscore.Hbond>
4.7315

> <Gold.PLP.Chemscore.CHOScore>
0.0000

> <Gold.PLP.Chemscore.Metal>
0.0000

> <Gold.Chemscore.Hbonds>
donor molecule, donor type, donor heavy atom, donor atom, acceptor molecule, acceptor atom, score
      L1  H    11    24       P1  7957  0.85
      L1  H    13    26       P1  8028  1.00
      L1  H    15    28       P1  8028  0.71
      P1  H  6896  6909       L1     1  1.00
      P1  H  7989  7998       L1     8  0.85
      P1  H  8011  8017       L1    13  0.03

> <Gold.PLP.Chemscore.Internal.Correction>
0.0239

> <Gold.Rescore>
     Score         DG    S(hbond)    S(metal)    S(lipo)     H(rot)  DE(clash)    DE(int)     intcor
     11.75     -13.11       3.86        0.00      35.35       3.67       0.16       1.19       ----

> <Gold.Chemscore.Fitness>
11.7545

> <Gold.Chemscore.DG>
-13.1083

> <Gold.Chemscore.ZeroCoef>
-5.4800

> <Gold.Chemscore.Hbond>
3.8586

> <Gold.Chemscore.Metal>
0.0000

> <Gold.Chemscore.Lipo>
35.3505

> <Gold.Chemscore.Internal_Hbond>
0.0000

> <Gold.Chemscore.DEClash>
0.1596

> <Gold.Chemscore.DEInternal>
1.1942

> <Gold.Chemscore.Rot>
3.6701

> <Gold.Chemscore.Internal.Correction>
   9.000000E+99

> <Gold.Chemscore.Hbonds>
donor molecule, donor type, donor heavy atom, donor atom, acceptor molecule, acceptor atom, score
      L1  H    11    24       P1  7957  0.64
      L1  H    13    26       P1  8028  0.90
      L1  H    15    28       P1  8028  0.71
      P1  H  6896  6909       L1     1  0.97
      P1  H  7989  7998       L1     8  0.14
      P1  H  8011  8017       L1    13  0.04

> <Gold.Chemscore.Hbond.Weighted>
-12.8877

> <Gold.Chemscore.Metal.Weighted>
-0.0000

> <Gold.Chemscore.Lipo.Weighted>
-4.1360

> <Gold.Chemscore.Internal_Hbond.Weighted>
0.0000

> <Gold.Chemscore.DEClash.Weighted>
0.1596

> <Gold.Chemscore.DEInternal.Weighted>
1.1942

> <Gold.Chemscore.Rot.Weighted>
9.3955

> <Gold.Chemscore.Internal.Correction.Weighted>
   9.000000E+99

> <Gold.Protein.RotatedTorsions>
[ 6907 6896 6895 6894 ] final  144.74 input  -60.11 | X-H torsion
[ 7974 7965 7964 7962 ] final   37.75 input  175.53 | X-H torsion
[ 8008 7997 7996 7995 ] final  146.19 input   59.86 | X-H torsion
[ 10167 10162 10161 10158 ] final  172.58 input  -65.29 | X-H torsion
[ 10718 10713 10712 10709 ] final  178.98 input   66.30 | X-H torsion
[ 10763 10752 10751 10750 ] final   84.81 input  -60.55 | X-H torsion
[ 11005 11000 10999 10996 ] final   -5.12 input  -57.11 | X-H torsion

> <Gold.Protein.ActiveResidues>
 VAL166  LYS551  ARG553  GLY616  TRP617  ASP618  TYR619  PRO620  LYS621  CYS622 
 ASP623  PHE694  ASN695  SER759  ASP760  ASP761  ALA762  ILE779  LEU786  VAL792 
 PHE793  MET794  SER795  GLU796  ALA797  LYS798  CYS799  TRP800  GLU811  SER814 

> <Gold.Protein.RotatedAtoms>
  152.1898  133.4765  159.5001 H   0  0  0  0  0  0  0  0  0  0  0  0  # atno 6907 bound_to 6896
  150.6949  134.1727  159.4227 H   0  0  0  0  0  0  0  0  0  0  0  0  # atno 6908 bound_to 6896
  151.9641  135.0109  160.0600 H   0  0  0  0  0  0  0  0  0  0  0  0  # atno 6909 bound_to 6896
  146.1114  139.5856  142.9350 H   0  0  0  0  0  0  0  0  0  0  0  0  # atno 7974 bound_to 7965
  156.2862  140.2189  156.5336 H   0  0  0  0  0  0  0  0  0  0  0  0  # atno 8008 bound_to 7997
  154.7428  140.0486  157.0848 H   0  0  0  0  0  0  0  0  0  0  0  0  # atno 8009 bound_to 7997
  155.0209  140.3124  155.4797 H   0  0  0  0  0  0  0  0  0  0  0  0  # atno 8010 bound_to 7997
  139.5081  144.3358  152.0067 H   0  0  0  0  0  0  0  0  0  0  0  0  # atno 10167 bound_to 10162
  156.8825  130.9820  151.3060 H   0  0  0  0  0  0  0  0  0  0  0  0  # atno 10718 bound_to 10713
  153.1416  135.4640  154.9504 H   0  0  0  0  0  0  0  0  0  0  0  0  # atno 10763 bound_to 10752
  154.7752  135.3171  154.8109 H   0  0  0  0  0  0  0  0  0  0  0  0  # atno 10764 bound_to 10752
  153.8631  135.6910  153.4835 H   0  0  0  0  0  0  0  0  0  0  0  0  # atno 10765 bound_to 10752
  140.6877  133.9098  155.8597 H   0  0  0  0  0  0  0  0  0  0  0  0  # atno 11005 bound_to 11000
  145.5656  141.0400  143.2202 LP  0  0  0  0  0  0  0  0  0  0  0  0  # atno 17320 bound_to 7965
  144.7515  139.7182  143.7271 LP  0  0  0  0  0  0  0  0  0  0  0  0  # atno 17321 bound_to 7965
  140.2797  144.3874  150.6123 LP  0  0  0  0  0  0  0  0  0  0  0  0  # atno 17342 bound_to 10162
  140.6027  143.2167  151.7040 LP  0  0  0  0  0  0  0  0  0  0  0  0  # atno 17343 bound_to 10162
  157.6132  130.8598  149.8985 LP  0  0  0  0  0  0  0  0  0  0  0  0  # atno 17370 bound_to 10713
  156.0670  130.3691  150.0857 LP  0  0  0  0  0  0  0  0  0  0  0  0  # atno 17371 bound_to 10713
  141.0267  134.0814  157.4061 LP  0  0  0  0  0  0  0  0  0  0  0  0  # atno 17394 bound_to 11000
  139.8933  135.0129  156.6890 LP  0  0  0  0  0  0  0  0  0  0  0  0  # atno 17395 bound_to 11000

$$$$
