AV-unprocessed.smi:2044|AV-procd|sdf|8302|dock7
  -GOLD-   2272010563D 1   1.00000     0.00000
 Structure written by MMmdl.
 38 39  0  0  0  0  0  0  0  0  2 V2000
  162.0951  141.1442  160.1023 C   0  0  0  0  0  0  0  0  0  0  0  0
  160.6157  140.9633  160.1121 C   0  0  0  0  0  0  0  0  0  0  0  0
  159.7529  140.4262  161.0248 C   0  0  0  0  0  0  0  0  0  0  0  0
  158.4862  140.5646  160.3945 C   0  0  0  0  0  0  0  0  0  0  0  0
  157.3051  140.1890  160.9085 N   0  5  0  0  0  0  0  0  0  0  0  0
  156.1612  140.4124  160.2211 C   0  0  0  0  0  0  0  0  0  0  0  0
  155.9569  140.1475  159.0341 O   0  0  0  0  0  0  0  0  0  0  0  0
  155.1923  140.9760  160.9537 N   0  0  0  0  0  0  0  0  0  0  0  0
  153.8591  141.3177  160.4686 C   0  0  0  0  0  0  0  0  0  0  0  0
  153.3931  142.6983  160.9946 C   0  0  2  0  0  0  0  0  0  0  0  0
  153.1025  142.5643  162.5064 C   0  0  0  0  0  0  0  0  0  0  0  0
  152.2724  143.2885  160.2296 N   0  0  0  0  0  0  0  0  0  0  0  0
  152.6303  143.5787  158.8381 C   0  0  0  0  0  0  0  0  0  0  0  0
  151.4689  144.2056  158.0478 C   0  0  0  0  0  0  0  0  0  0  0  0
  151.0277  145.3887  158.7010 O   0  0  0  0  0  0  0  0  0  0  0  0
  150.6050  145.1390  160.0353 C   0  0  0  0  0  0  0  0  0  0  0  0
  151.7624  144.5203  160.8379 C   0  0  0  0  0  0  0  0  0  0  0  0
  158.5707  141.1507  159.2118 N   0  0  0  0  0  0  0  0  0  0  0  0
  159.9343  141.4027  159.0198 O   0  0  0  0  0  0  0  0  0  0  0  0
  162.4417  141.5422  161.0559 H   0  0  0  0  0  0  0  0  0  0  0  0
  162.4008  141.8361  159.3173 H   0  0  0  0  0  0  0  0  0  0  0  0
  162.5976  140.1925  159.9294 H   0  0  0  0  0  0  0  0  0  0  0  0
  159.9883  139.9982  161.9877 H   0  0  0  0  0  0  0  0  0  0  0  0
  155.3922  141.1760  161.9228 H   0  0  0  0  0  0  0  0  0  0  0  0
  153.8758  141.3206  159.3777 H   0  0  0  0  0  0  0  0  0  0  0  0
  153.1513  140.5345  160.7414 H   0  0  0  0  0  0  0  0  0  0  0  0
  154.2507  143.3665  160.9015 H   0  0  0  0  0  0  0  0  0  0  0  0
  153.9027  142.0271  163.0163 H   0  0  0  0  0  0  0  0  0  0  0  0
  152.1748  142.0210  162.6885 H   0  0  0  0  0  0  0  0  0  0  0  0
  153.0278  143.5337  162.9979 H   0  0  0  0  0  0  0  0  0  0  0  0
  153.4913  144.2481  158.8094 H   0  0  0  0  0  0  0  0  0  0  0  0
  152.9213  142.6663  158.3194 H   0  0  0  0  0  0  0  0  0  0  0  0
  151.7913  144.4561  157.0372 H   0  0  0  0  0  0  0  0  0  0  0  0
  150.6410  143.5009  157.9546 H   0  0  0  0  0  0  0  0  0  0  0  0
  150.2883  146.0778  160.4901 H   0  0  0  0  0  0  0  0  0  0  0  0
  149.7387  144.4757  160.0331 H   0  0  0  0  0  0  0  0  0  0  0  0
  151.3956  144.3266  161.8448 H   0  0  0  0  0  0  0  0  0  0  0  0
  152.5691  145.2492  160.9301 H   0  0  0  0  0  0  0  0  0  0  0  0
  1  2  1  0  0  0  0
  1 20  1  0  0  0  0
  1 21  1  0  0  0  0
  1 22  1  0  0  0  0
  2 19  1  0  0  0  0
  2  3  2  0  0  0  0
  3  4  1  0  0  0  0
  3 23  1  0  0  0  0
  4  5  1  0  0  0  0
  4 18  2  0  0  0  0
  5  6  1  0  0  0  0
  6  7  2  0  0  0  0
  6  8  1  0  0  0  0
  8  9  1  0  0  0  0
  8 24  1  0  0  0  0
  9 10  1  0  0  0  0
  9 25  1  0  0  0  0
  9 26  1  0  0  0  0
 10 11  1  0  0  0  0
 10 12  1  0  0  0  0
 10 27  1  0  0  0  0
 11 28  1  0  0  0  0
 11 29  1  0  0  0  0
 11 30  1  0  0  0  0
 12 17  1  0  0  0  0
 12 13  1  0  0  0  0
 13 14  1  0  0  0  0
 13 31  1  0  0  0  0
 13 32  1  0  0  0  0
 14 15  1  0  0  0  0
 14 33  1  0  0  0  0
 14 34  1  0  0  0  0
 15 16  1  0  0  0  0
 16 17  1  0  0  0  0
 16 35  1  0  0  0  0
 16 36  1  0  0  0  0
 17 37  1  0  0  0  0
 17 38  1  0  0  0  0
 18 19  1  0  0  0  0
M  CHG  1   5  -1
M  END
> <s_m_source_file>
AV-unprocessed.smi

> <i_m_source_file_index>
2044

> <i_lp_mmshare_version>
43012

> <i_f3d_flags>
0

> <s_epik_input>
W0NIM11jMVtjSF1jKG5vMSlbTkhdQyg9TylbTkhdW0NIMl1bQ0BIXShbQ0gzXSlOMltDSDJdW0NIMl1PW0NIMl1bQ0gyXTI=

> <s_epik_cmdline>
J2VwaWtfcHl0aG9uJywgJy1waCcsICc3LjAnLCAnLXRuJywgJzgnLCAnLW1hJywgJzIwMCcsICctbWV0YWxfYmluZGluZycsICctaW1hZScsICc8aW5maWxlLm1hZT4nLCAnLW9tYWUnLCAnPG91dGZpbGUubWFlPic=

> <r_epik_Ionization_Penalty>
6.88367

> <r_epik_Ionization_Penalty_Charging>
6.57198

> <r_epik_Ionization_Penalty_Neutral>
0.311681

> <r_epik_State_Penalty>
6.77619

> <r_epik_Charging_Adjusted_Penalty>
13.3482

> <i_epik_Tot_Q>
-1

> <i_epik_Tot_abs_Q>
1

> <r_epik_Metal_State_Penalty>
2.70533

> <b_epik_Metal_Only>
1

> <s_lp_Force_Field>
OPLS_2005

> <r_lp_Energy>
25.764

> <b_lp_Chiralities_Consistent>
1

> <s_lp_Variant>
AV-unprocessed.smi:2044-5

> <Gold.Version>
5.8.1

> <Gold.Id.Protein>
6NUR|6NUR_protein|mol2

> <Gold.PLP.Fitness>
37.7211

> <Gold.PLP.PLP>
-36.0864

> <Gold.PLP.part.hbond>
-3.6462

> <Gold.PLP.part.metal>
0.0000

> <Gold.PLP.part.buried>
-4.1832

> <Gold.PLP.part.nonpolar>
-28.5115

> <Gold.PLP.part.repulsive>
0.4432

> <Gold.PLP.ligand.clash>
0.0000

> <Gold.PLP.ligand.torsion>
0.7085

> <Gold.PLP.Chemscore.Hbond>
1.0000

> <Gold.PLP.Chemscore.CHOScore>
0.0000

> <Gold.PLP.Chemscore.Metal>
0.0000

> <Gold.Chemscore.Hbonds>
donor molecule, donor type, donor heavy atom, donor atom, acceptor molecule, acceptor atom, score
      P1  H  7997  8010       L1     7  0.99

> <Gold.PLP.Chemscore.Internal.Correction>
0.0517

> <Gold.Rescore>
     Score         DG    S(hbond)    S(metal)    S(lipo)     H(rot)  DE(clash)    DE(int)     intcor
     11.82     -14.73       0.91        0.00      86.94       1.55       0.89       2.02       ----

> <Gold.Chemscore.Fitness>
11.8184

> <Gold.Chemscore.DG>
-14.7277

> <Gold.Chemscore.ZeroCoef>
-5.4800

> <Gold.Chemscore.Hbond>
0.9090

> <Gold.Chemscore.Metal>
0.0000

> <Gold.Chemscore.Lipo>
86.9390

> <Gold.Chemscore.Internal_Hbond>
0.0000

> <Gold.Chemscore.DEClash>
0.8882

> <Gold.Chemscore.DEInternal>
2.0211

> <Gold.Chemscore.Rot>
1.5470

> <Gold.Chemscore.Internal.Correction>
   9.000000E+99

> <Gold.Chemscore.Hbonds>
donor molecule, donor type, donor heavy atom, donor atom, acceptor molecule, acceptor atom, score
      P1  H  7997  8010       L1     7  0.93

> <Gold.Chemscore.Hbond.Weighted>
-3.0361

> <Gold.Chemscore.Metal.Weighted>
-0.0000

> <Gold.Chemscore.Lipo.Weighted>
-10.1719

> <Gold.Chemscore.Internal_Hbond.Weighted>
0.0000

> <Gold.Chemscore.DEClash.Weighted>
0.8882

> <Gold.Chemscore.DEInternal.Weighted>
2.0211

> <Gold.Chemscore.Rot.Weighted>
3.9603

> <Gold.Chemscore.Internal.Correction.Weighted>
   9.000000E+99

> <Gold.Protein.RotatedTorsions>
[ 6907 6896 6895 6894 ] final   64.11 input  -60.11 | X-H torsion
[ 7974 7965 7964 7962 ] final  -70.89 input  175.53 | X-H torsion
[ 8008 7997 7996 7995 ] final  -29.75 input   59.86 | X-H torsion
[ 10167 10162 10161 10158 ] final   85.28 input  -65.29 | X-H torsion
[ 10718 10713 10712 10709 ] final -156.63 input   66.30 | X-H torsion
[ 10763 10752 10751 10750 ] final  102.99 input  -60.55 | X-H torsion
[ 11005 11000 10999 10996 ] final   84.75 input  -57.11 | X-H torsion

> <Gold.Protein.ActiveResidues>
 VAL166  LYS551  ARG553  GLY616  TRP617  ASP618  TYR619  PRO620  LYS621  CYS622 
 ASP623  PHE694  ASN695  SER759  ASP760  ASP761  ALA762  ILE779  LEU786  VAL792 
 PHE793  MET794  SER795  GLU796  ALA797  LYS798  CYS799  TRP800  GLU811  SER814 

> <Gold.Protein.RotatedAtoms>
  152.4306  134.5786  159.9941 H   0  0  0  0  0  0  0  0  0  0  0  0  # atno 6907 bound_to 6896
  151.5910  133.3361  159.3035 H   0  0  0  0  0  0  0  0  0  0  0  0  # atno 6908 bound_to 6896
  150.8198  134.7436  159.6827 H   0  0  0  0  0  0  0  0  0  0  0  0  # atno 6909 bound_to 6896
  145.6851  140.9174  143.0811 H   0  0  0  0  0  0  0  0  0  0  0  0  # atno 7974 bound_to 7965
  154.4277  140.1810  156.1297 H   0  0  0  0  0  0  0  0  0  0  0  0  # atno 8008 bound_to 7997
  156.0077  140.3353  155.6884 H   0  0  0  0  0  0  0  0  0  0  0  0  # atno 8009 bound_to 7997
  155.6154  140.0654  157.2684 H   0  0  0  0  0  0  0  0  0  0  0  0  # atno 8010 bound_to 7997
  139.8994  144.6338  150.8653 H   0  0  0  0  0  0  0  0  0  0  0  0  # atno 10167 bound_to 10162
  156.5291  130.8513  151.2710 H   0  0  0  0  0  0  0  0  0  0  0  0  # atno 10718 bound_to 10713
  153.3468  135.3991  155.1615 H   0  0  0  0  0  0  0  0  0  0  0  0  # atno 10763 bound_to 10752
  154.8654  135.3647  154.5273 H   0  0  0  0  0  0  0  0  0  0  0  0  # atno 10764 bound_to 10752
  153.5722  135.7078  153.5559 H   0  0  0  0  0  0  0  0  0  0  0  0  # atno 10765 bound_to 10752
  139.8991  134.8239  156.2488 H   0  0  0  0  0  0  0  0  0  0  0  0  # atno 11005 bound_to 11000
  144.7014  139.8747  143.7443 LP  0  0  0  0  0  0  0  0  0  0  0  0  # atno 17320 bound_to 7965
  146.0931  139.3921  143.0393 LP  0  0  0  0  0  0  0  0  0  0  0  0  # atno 17321 bound_to 7965
  140.7710  143.3448  151.2133 LP  0  0  0  0  0  0  0  0  0  0  0  0  # atno 17342 bound_to 10162
  139.7039  143.9488  152.2918 LP  0  0  0  0  0  0  0  0  0  0  0  0  # atno 17343 bound_to 10162
  157.7424  130.9891  150.2518 LP  0  0  0  0  0  0  0  0  0  0  0  0  # atno 17370 bound_to 10713
  156.3077  130.3767  149.7691 LP  0  0  0  0  0  0  0  0  0  0  0  0  # atno 17371 bound_to 10713
  141.0237  133.7027  156.1311 LP  0  0  0  0  0  0  0  0  0  0  0  0  # atno 17394 bound_to 11000
  140.7197  134.4372  157.5576 LP  0  0  0  0  0  0  0  0  0  0  0  0  # atno 17395 bound_to 11000

$$$$
