AV-unprocessed.smi:2889|AV-procd|sdf|11113|dock9
  -GOLD-   2272015583D 1   1.00000     0.00000
 Structure written by MMmdl.
 35 36  0  0  0  0  0  0  0  0  2 V2000
  152.4933  144.6588  157.9168 C   0  0  0  0  0  0  0  0  0  0  0  0
  151.6303  144.1972  159.4460 S   0  0  0  0  0  0  0  0  0  0  0  0
  152.9374  143.3200  160.3733 C   0  0  1  0  0  0  0  0  0  0  0  0
  152.5191  143.1443  161.8588 C   0  0  0  0  0  0  0  0  0  0  0  0
  153.6131  142.4742  162.7160 C   0  0  0  0  0  0  0  0  0  0  0  0
  154.0323  141.1369  162.0726 C   0  0  0  0  0  0  0  0  0  0  0  0
  154.4491  141.2911  160.5866 C   0  0  0  0  0  0  0  0  0  0  0  0
  153.3873  141.9877  159.6986 C   0  0  1  0  0  0  0  0  0  0  0  0
  152.2514  141.0971  159.4932 N   0  5  0  0  0  0  0  0  0  0  0  0
  152.4249  139.7686  158.5799 S   0  0  0  0  0  0  0  0  0  0  0  0
  153.8257  139.3274  158.4700 O   0  0  0  0  0  0  0  0  0  0  0  0
  151.4216  138.7429  158.9083 O   0  0  0  0  0  0  0  0  0  0  0  0
  151.9528  140.4286  156.9207 C   0  0  0  0  0  0  0  0  0  0  0  0
  152.0452  139.3473  155.8781 C   0  0  0  0  0  0  0  0  0  0  0  0
  151.0279  138.8728  155.0037 C   0  0  0  0  0  0  0  0  0  0  0  0
  151.6572  137.9061  154.2749 C   0  0  0  0  0  0  0  0  0  0  0  0
  152.9486  137.7777  154.6712 O   0  0  0  0  0  0  0  0  0  0  0  0
  153.1859  138.6985  155.6980 N   0  0  0  0  0  0  0  0  0  0  0  0
  151.8414  145.2697  157.2929 H   0  0  0  0  0  0  0  0  0  0  0  0
  152.7763  143.7745  157.3462 H   0  0  0  0  0  0  0  0  0  0  0  0
  153.3920  145.2325  158.1425 H   0  0  0  0  0  0  0  0  0  0  0  0
  153.7989  143.9889  160.3750 H   0  0  0  0  0  0  0  0  0  0  0  0
  152.2833  144.1194  162.2861 H   0  0  0  0  0  0  0  0  0  0  0  0
  151.5971  142.5627  161.9269 H   0  0  0  0  0  0  0  0  0  0  0  0
  154.4784  143.1343  162.7888 H   0  0  0  0  0  0  0  0  0  0  0  0
  153.2541  142.3115  163.7325 H   0  0  0  0  0  0  0  0  0  0  0  0
  154.8607  140.7082  162.6373 H   0  0  0  0  0  0  0  0  0  0  0  0
  153.2131  140.4204  162.1605 H   0  0  0  0  0  0  0  0  0  0  0  0
  155.3678  141.8774  160.5485 H   0  0  0  0  0  0  0  0  0  0  0  0
  154.7050  140.3158  160.1703 H   0  0  0  0  0  0  0  0  0  0  0  0
  153.8652  142.2380  158.7507 H   0  0  0  0  0  0  0  0  0  0  0  0
  150.9333  140.8069  156.9959 H   0  0  0  0  0  0  0  0  0  0  0  0
  152.5985  141.2736  156.6832 H   0  0  0  0  0  0  0  0  0  0  0  0
  150.0034  139.2035  154.9163 H   0  0  0  0  0  0  0  0  0  0  0  0
  151.3371  137.2510  153.4783 H   0  0  0  0  0  0  0  0  0  0  0  0
  1  2  1  0  0  0  0
  1 19  1  0  0  0  0
  1 20  1  0  0  0  0
  1 21  1  0  0  0  0
  2  3  1  0  0  0  0
  3  8  1  0  0  0  0
  3  4  1  0  0  0  0
  3 22  1  0  0  0  0
  4  5  1  0  0  0  0
  4 23  1  0  0  0  0
  4 24  1  0  0  0  0
  5  6  1  0  0  0  0
  5 25  1  0  0  0  0
  5 26  1  0  0  0  0
  6  7  1  0  0  0  0
  6 27  1  0  0  0  0
  6 28  1  0  0  0  0
  7  8  1  0  0  0  0
  7 29  1  0  0  0  0
  7 30  1  0  0  0  0
  8  9  1  0  0  0  0
  8 31  1  0  0  0  0
  9 10  1  0  0  0  0
 10 11  2  0  0  0  0
 10 12  2  0  0  0  0
 10 13  1  0  0  0  0
 13 14  1  0  0  0  0
 13 32  1  0  0  0  0
 13 33  1  0  0  0  0
 14 18  2  0  0  0  0
 14 15  1  0  0  0  0
 15 16  2  0  0  0  0
 15 34  1  0  0  0  0
 16 17  1  0  0  0  0
 16 35  1  0  0  0  0
 17 18  1  0  0  0  0
M  CHG  1   9  -1
M  END
> <s_m_source_file>
AV-unprocessed.smi

> <i_m_source_file_index>
2889

> <i_lp_mmshare_version>
43012

> <i_f3d_flags>
0

> <s_epik_input>
W0NIM11TW0NAQEhdMVtDSDJdW0NIMl1bQ0gyXVtDSDJdW0NASF0xW05IXVMoPU8pKD1PKVtDSDJdYzJbY0hdW2NIXW9uMg==

> <s_epik_cmdline>
J2VwaWtfcHl0aG9uJywgJy1waCcsICc3LjAnLCAnLXRuJywgJzgnLCAnLW1hJywgJzIwMCcsICctbWV0YWxfYmluZGluZycsICctaW1hZScsICc8aW5maWxlLm1hZT4nLCAnLW9tYWUnLCAnPG91dGZpbGUubWFlPic=

> <r_lp_tautomer_probability>
1

> <r_epik_Ionization_Penalty>
4.65467

> <r_epik_Ionization_Penalty_Charging>
4.65467

> <r_epik_Ionization_Penalty_Neutral>
2.71476e-10

> <r_epik_State_Penalty>
4.65444

> <r_epik_Charging_Adjusted_Penalty>
9.30911

> <i_epik_Tot_Q>
-1

> <i_epik_Tot_abs_Q>
1

> <r_epik_Metal_State_Penalty>
0.901484

> <b_epik_Metal_Only>
1

> <s_lp_Force_Field>
OPLS_2005

> <r_lp_Energy>
11.2119

> <b_lp_Chiralities_Consistent>
1

> <s_lp_Variant>
AV-unprocessed.smi:2889-6

> <Gold.Version>
5.8.1

> <Gold.Id.Protein>
6NUR|6NUR_protein|mol2

> <Gold.PLP.Fitness>
55.8234

> <Gold.PLP.PLP>
-47.8386

> <Gold.PLP.part.hbond>
-3.0000

> <Gold.PLP.part.metal>
0.0000

> <Gold.PLP.part.buried>
-6.4748

> <Gold.PLP.part.nonpolar>
-37.6564

> <Gold.PLP.part.repulsive>
0.0550

> <Gold.PLP.ligand.clash>
0.0000

> <Gold.PLP.ligand.torsion>
0.6561

> <Gold.PLP.Chemscore.Hbond>
1.7537

> <Gold.PLP.Chemscore.CHOScore>
1.0000

> <Gold.PLP.Chemscore.Metal>
0.0000

> <Gold.Chemscore.Hbonds>
donor molecule, donor type, donor heavy atom, donor atom, acceptor molecule, acceptor atom, score
      P1  H  7997  8008       L1    18  0.67
      P1  H  7997  8010       L1    11  0.86
      P1  H 10752 10764       L1    17  0.17
      L1  C    16    35       P1  7949  1.00

> <Gold.PLP.Chemscore.Internal.Correction>
1.0360

> <Gold.Rescore>
     Score         DG    S(hbond)    S(metal)    S(lipo)     H(rot)  DE(clash)    DE(int)     intcor
     19.25     -21.45       1.87        0.00     116.70       1.53       0.02       2.18       ----

> <Gold.Chemscore.Fitness>
19.2456

> <Gold.Chemscore.DG>
-21.4451

> <Gold.Chemscore.ZeroCoef>
-5.4800

> <Gold.Chemscore.Hbond>
1.8657

> <Gold.Chemscore.Metal>
0.0000

> <Gold.Chemscore.Lipo>
116.7024

> <Gold.Chemscore.Internal_Hbond>
0.0000

> <Gold.Chemscore.DEClash>
0.0174

> <Gold.Chemscore.DEInternal>
2.1821

> <Gold.Chemscore.Rot>
1.5314

> <Gold.Chemscore.Internal.Correction>
   9.000000E+99

> <Gold.Chemscore.Hbonds>
donor molecule, donor type, donor heavy atom, donor atom, acceptor molecule, acceptor atom, score
      P1  H  7997  8008       L1    18  0.25
      P1  H  7997  8010       L1    11  0.85
      P1  H 10752 10764       L1    17  0.01

> <Gold.Chemscore.Hbond.Weighted>
-6.2314

> <Gold.Chemscore.Metal.Weighted>
-0.0000

> <Gold.Chemscore.Lipo.Weighted>
-13.6542

> <Gold.Chemscore.Internal_Hbond.Weighted>
0.0000

> <Gold.Chemscore.DEClash.Weighted>
0.0174

> <Gold.Chemscore.DEInternal.Weighted>
2.1821

> <Gold.Chemscore.Rot.Weighted>
3.9205

> <Gold.Chemscore.Internal.Correction.Weighted>
   9.000000E+99

> <Gold.Protein.RotatedTorsions>
[ 6907 6896 6895 6894 ] final  -97.29 input  -60.11 | X-H torsion
[ 7974 7965 7964 7962 ] final -145.05 input  175.53 | X-H torsion
[ 8008 7997 7996 7995 ] final   -3.99 input   59.86 | X-H torsion
[ 10167 10162 10161 10158 ] final -166.07 input  -65.29 | X-H torsion
[ 10718 10713 10712 10709 ] final  -12.77 input   66.30 | X-H torsion
[ 10763 10752 10751 10750 ] final  -79.51 input  -60.55 | X-H torsion
[ 11005 11000 10999 10996 ] final   64.07 input  -57.11 | X-H torsion

> <Gold.Protein.ActiveResidues>
 VAL166  LYS551  ARG553  GLY616  TRP617  ASP618  TYR619  PRO620  LYS621  CYS622 
 ASP623  PHE694  ASN695  SER759  ASP760  ASP761  ALA762  ILE779  LEU786  VAL792 
 PHE793  MET794  SER795  GLU796  ALA797  LYS798  CYS799  TRP800  GLU811  SER814 

> <Gold.Protein.RotatedAtoms>
  150.7012  134.1371  159.4090 H   0  0  0  0  0  0  0  0  0  0  0  0  # atno 6907 bound_to 6896
  151.9356  135.0234  160.0541 H   0  0  0  0  0  0  0  0  0  0  0  0  # atno 6908 bound_to 6896
  152.2138  133.4896  159.5161 H   0  0  0  0  0  0  0  0  0  0  0  0  # atno 6909 bound_to 6896
  144.8254  140.5632  143.5550 H   0  0  0  0  0  0  0  0  0  0  0  0  # atno 7974 bound_to 7965
  154.6191  140.2495  155.7572 H   0  0  0  0  0  0  0  0  0  0  0  0  # atno 8008 bound_to 7997
  156.2416  140.2930  156.0409 H   0  0  0  0  0  0  0  0  0  0  0  0  # atno 8009 bound_to 7997
  155.1927  140.0392  157.2893 H   0  0  0  0  0  0  0  0  0  0  0  0  # atno 8010 bound_to 7997
  139.6139  144.0759  152.1869 H   0  0  0  0  0  0  0  0  0  0  0  0  # atno 10167 bound_to 10162
  156.6398  130.4925  149.6099 H   0  0  0  0  0  0  0  0  0  0  0  0  # atno 10718 bound_to 10713
  154.5395  135.5693  153.6827 H   0  0  0  0  0  0  0  0  0  0  0  0  # atno 10763 bound_to 10752
  152.9960  135.6224  154.2521 H   0  0  0  0  0  0  0  0  0  0  0  0  # atno 10764 bound_to 10752
  154.2451  135.2861  155.2818 H   0  0  0  0  0  0  0  0  0  0  0  0  # atno 10765 bound_to 10752
  139.9983  134.6482  155.9973 H   0  0  0  0  0  0  0  0  0  0  0  0  # atno 11005 bound_to 11000
  145.5012  139.1483  143.3656 LP  0  0  0  0  0  0  0  0  0  0  0  0  # atno 17320 bound_to 7965
  146.2559  140.5152  142.8874 LP  0  0  0  0  0  0  0  0  0  0  0  0  # atno 17321 bound_to 7965
  140.0384  144.6026  150.7431 LP  0  0  0  0  0  0  0  0  0  0  0  0  # atno 17342 bound_to 10162
  140.7338  143.2721  151.3855 LP  0  0  0  0  0  0  0  0  0  0  0  0  # atno 17343 bound_to 10162
  156.2168  130.6712  151.1327 LP  0  0  0  0  0  0  0  0  0  0  0  0  # atno 17370 bound_to 10713
  157.7174  131.0702  150.6272 LP  0  0  0  0  0  0  0  0  0  0  0  0  # atno 17371 bound_to 10713
  141.1622  133.6538  156.4356 LP  0  0  0  0  0  0  0  0  0  0  0  0  # atno 17394 bound_to 11000
  140.4776  134.6695  157.5157 LP  0  0  0  0  0  0  0  0  0  0  0  0  # atno 17395 bound_to 11000

$$$$
