AV-unprocessed.smi:19|AV-procd|sdf|111|dock1
  -GOLD-   2262015273D 1   1.00000     0.00000
 Structure written by MMmdl.
 57 60  0  0  0  0  0  0  0  0  1 V2000
  148.7853  140.7553  156.0496 C   0  0  0  0  0  0  0  0  0  0  0  0
  150.0607  141.0724  156.5788 O   0  0  0  0  0  0  0  0  0  0  0  0
  149.9844  141.9393  157.6985 C   0  0  0  0  0  0  0  0  0  0  0  0
  151.3967  142.4131  158.0652 C   0  0  2  0  0  0  0  0  0  0  0  0
  152.1716  141.3428  158.8569 C   0  0  0  0  0  0  0  0  0  0  0  0
  153.4682  141.8670  159.2791 N   0  0  0  0  0  0  0  0  0  0  0  0
  154.3836  140.9922  159.7681 C   0  0  0  0  0  0  0  0  0  0  0  0
  154.7258  139.8909  159.0466 N   0  0  0  0  0  0  0  0  0  0  0  0
  155.6200  139.0206  159.5245 C   0  0  0  0  0  0  0  0  0  0  0  0
  156.2843  139.0578  160.6809 N   0  0  0  0  0  0  0  0  0  0  0  0
  155.9505  140.1615  161.4085 C   0  0  0  0  0  0  0  0  0  0  0  0
  155.0223  141.1718  161.0280 C   0  0  0  0  0  0  0  0  0  0  0  0
  154.9629  142.1515  162.0119 N   0  0  0  0  0  0  0  0  0  0  0  0
  155.7998  141.7396  162.9238 C   0  0  0  0  0  0  0  0  0  0  0  0
  156.4246  140.5430  162.6525 N   0  0  0  0  0  0  0  0  0  0  0  0
  157.4004  139.8591  163.4899 C   0  0  0  0  0  0  0  0  0  0  0  0
  156.9578  138.4558  164.0016 C   0  0  0  0  0  0  0  0  0  0  0  0
  157.9289  137.9367  165.1008 C   0  0  0  0  0  0  0  0  0  0  0  0
  158.0221  138.8227  166.1978 O   0  0  0  0  0  0  0  0  0  0  0  0
  155.5076  138.5688  164.5364 C   0  0  0  0  0  0  0  0  0  0  0  0
  154.8569  137.2002  164.8032 C   0  0  0  0  0  0  0  0  0  0  0  0
  154.8752  136.4196  163.6155 O   0  0  0  0  0  0  0  0  0  0  0  0
  156.1927  136.1391  163.1628 C   0  0  0  0  0  0  0  0  0  0  0  0
  156.9282  137.4491  162.8229 C   0  0  0  0  0  0  0  0  0  0  0  0
  153.3633  143.1220  160.0157 C   0  0  0  0  0  0  0  0  0  0  0  0
  152.5476  144.1462  159.2061 C   0  0  2  0  0  0  0  0  0  0  0  0
  152.3078  145.4404  159.9905 C   0  0  0  0  0  0  0  0  0  0  0  0
  151.2819  143.5786  158.8789 O   0  0  0  0  0  0  0  0  0  0  0  0
  148.8988  140.0957  155.1894 H   0  0  0  0  0  0  0  0  0  0  0  0
  148.2607  141.6526  155.7190 H   0  0  0  0  0  0  0  0  0  0  0  0
  148.1689  140.2414  156.7884 H   0  0  0  0  0  0  0  0  0  0  0  0
  149.3359  142.7917  157.4886 H   0  0  0  0  0  0  0  0  0  0  0  0
  149.5494  141.3953  158.5385 H   0  0  0  0  0  0  0  0  0  0  0  0
  151.9410  142.6516  157.1494 H   0  0  0  0  0  0  0  0  0  0  0  0
  151.5993  141.0399  159.7351 H   0  0  0  0  0  0  0  0  0  0  0  0
  152.3119  140.4565  158.2364 H   0  0  0  0  0  0  0  0  0  0  0  0
  155.8321  138.1723  158.8904 H   0  0  0  0  0  0  0  0  0  0  0  0
  155.9817  142.3004  163.8291 H   0  0  0  0  0  0  0  0  0  0  0  0
  158.3337  139.7820  162.9308 H   0  0  0  0  0  0  0  0  0  0  0  0
  157.6215  140.5128  164.3349 H   0  0  0  0  0  0  0  0  0  0  0  0
  157.6140  136.9702  165.4906 H   0  0  0  0  0  0  0  0  0  0  0  0
  158.9296  137.7835  164.6969 H   0  0  0  0  0  0  0  0  0  0  0  0
  157.8943  139.7049  165.8820 H   0  0  0  0  0  0  0  0  0  0  0  0
  155.4734  139.1771  165.4407 H   0  0  0  0  0  0  0  0  0  0  0  0
  154.8917  139.0936  163.8047 H   0  0  0  0  0  0  0  0  0  0  0  0
  155.3535  136.6689  165.6159 H   0  0  0  0  0  0  0  0  0  0  0  0
  153.8202  137.3382  165.1099 H   0  0  0  0  0  0  0  0  0  0  0  0
  156.7318  135.5565  163.9104 H   0  0  0  0  0  0  0  0  0  0  0  0
  156.1265  135.5122  162.2735 H   0  0  0  0  0  0  0  0  0  0  0  0
  156.4262  137.9058  161.9687 H   0  0  0  0  0  0  0  0  0  0  0  0
  157.9401  137.2146  162.4913 H   0  0  0  0  0  0  0  0  0  0  0  0
  152.8778  142.9270  160.9731 H   0  0  0  0  0  0  0  0  0  0  0  0
  154.3452  143.5370  160.2395 H   0  0  0  0  0  0  0  0  0  0  0  0
  153.0789  144.3921  158.2848 H   0  0  0  0  0  0  0  0  0  0  0  0
  153.2508  145.9138  160.2645 H   0  0  0  0  0  0  0  0  0  0  0  0
  151.7501  145.2485  160.9075 H   0  0  0  0  0  0  0  0  0  0  0  0
  151.7375  146.1555  159.3971 H   0  0  0  0  0  0  0  0  0  0  0  0
  1  2  1  0  0  0  0
  1 29  1  0  0  0  0
  1 30  1  0  0  0  0
  1 31  1  0  0  0  0
  2  3  1  0  0  0  0
  3  4  1  0  0  0  0
  3 32  1  0  0  0  0
  3 33  1  0  0  0  0
  4 28  1  0  0  0  0
  4  5  1  0  0  0  0
  4 34  1  0  0  0  0
  5  6  1  0  0  0  0
  5 35  1  0  0  0  0
  5 36  1  0  0  0  0
  6  7  1  0  0  0  0
  6 25  1  0  0  0  0
  7 12  1  0  0  0  0
  7  8  2  0  0  0  0
  8  9  1  0  0  0  0
  9 10  2  0  0  0  0
  9 37  1  0  0  0  0
 10 11  1  0  0  0  0
 11 15  1  0  0  0  0
 11 12  2  0  0  0  0
 12 13  1  0  0  0  0
 13 14  2  0  0  0  0
 14 15  1  0  0  0  0
 14 38  1  0  0  0  0
 15 16  1  0  0  0  0
 16 17  1  0  0  0  0
 16 39  1  0  0  0  0
 16 40  1  0  0  0  0
 17 24  1  0  0  0  0
 17 18  1  0  0  0  0
 17 20  1  0  0  0  0
 18 19  1  0  0  0  0
 18 41  1  0  0  0  0
 18 42  1  0  0  0  0
 19 43  1  0  0  0  0
 20 21  1  0  0  0  0
 20 44  1  0  0  0  0
 20 45  1  0  0  0  0
 21 22  1  0  0  0  0
 21 46  1  0  0  0  0
 21 47  1  0  0  0  0
 22 23  1  0  0  0  0
 23 24  1  0  0  0  0
 23 48  1  0  0  0  0
 23 49  1  0  0  0  0
 24 50  1  0  0  0  0
 24 51  1  0  0  0  0
 25 26  1  0  0  0  0
 25 52  1  0  0  0  0
 25 53  1  0  0  0  0
 26 27  1  0  0  0  0
 26 28  1  0  0  0  0
 26 54  1  0  0  0  0
 27 55  1  0  0  0  0
 27 56  1  0  0  0  0
 27 57  1  0  0  0  0
M  END
> <s_m_source_file>
AV-unprocessed.smi

> <i_m_source_file_index>
19

> <i_lp_mmshare_version>
43012

> <i_f3d_flags>
0

> <s_epik_input>
W0NIM11PW0NIMl1bQ0BASF0xW0NIMl1OKFtDSDJdW0NASF0oTzEpW0NIM10pYyhuW2NIXW4yKWMoYzIzKW5bY0hdbjNbQ0gyXUM0KFtDSDJdW09IXSlbQ0gyXVtDSDJdT1tDSDJdW0NIMl00

> <s_epik_cmdline>
J2VwaWtfcHl0aG9uJywgJy1waCcsICc3LjAnLCAnLXRuJywgJzgnLCAnLW1hJywgJzIwMCcsICctbWV0YWxfYmluZGluZycsICctaW1hZScsICc8aW5maWxlLm1hZT4nLCAnLW9tYWUnLCAnPG91dGZpbGUubWFlPic=

> <r_lp_tautomer_probability>
1

> <r_epik_Ionization_Penalty>
6.20357e-05

> <r_epik_Ionization_Penalty_Charging>
0

> <r_epik_Ionization_Penalty_Neutral>
6.20357e-05

> <r_epik_State_Penalty>
-0

> <r_epik_Charging_Adjusted_Penalty>
0

> <i_epik_Tot_Q>
0

> <i_epik_Tot_abs_Q>
0

> <r_epik_Metal_State_Penalty>
-0

> <b_epik_Metal_Only>
0

> <s_lp_Force_Field>
OPLS_2005

> <r_lp_Energy>
33.9592

> <b_lp_Chiralities_Consistent>
1

> <s_lp_Variant>
AV-unprocessed.smi:19-3

> <Gold.Version>
5.8.1

> <Gold.Id.Protein>
6NUR|6NUR_protein|mol2

> <Gold.PLP.Fitness>
48.6366

> <Gold.PLP.PLP>
-46.6588

> <Gold.PLP.part.hbond>
-3.2876

> <Gold.PLP.part.metal>
0.0000

> <Gold.PLP.part.buried>
-3.4269

> <Gold.PLP.part.nonpolar>
-38.6474

> <Gold.PLP.part.repulsive>
0.1479

> <Gold.PLP.ligand.clash>
0.5116

> <Gold.PLP.ligand.torsion>
0.4574

> <Gold.PLP.Chemscore.Hbond>
1.0000

> <Gold.PLP.Chemscore.CHOScore>
0.0000

> <Gold.PLP.Chemscore.Metal>
0.0000

> <Gold.Chemscore.Hbonds>
donor molecule, donor type, donor heavy atom, donor atom, acceptor molecule, acceptor atom, score
      P1  H  7997  8008       L1     8  1.00

> <Gold.PLP.Chemscore.Internal.Correction>
0.4042

> <Gold.Rescore>
     Score         DG    S(hbond)    S(metal)    S(lipo)     H(rot)  DE(clash)    DE(int)     intcor
      8.99     -12.68       0.83        0.00     100.69       2.87       1.42       2.28       ----

> <Gold.Chemscore.Fitness>
8.9870

> <Gold.Chemscore.DG>
-12.6821

> <Gold.Chemscore.ZeroCoef>
-5.4800

> <Gold.Chemscore.Hbond>
0.8311

> <Gold.Chemscore.Metal>
0.0000

> <Gold.Chemscore.Lipo>
100.6902

> <Gold.Chemscore.Internal_Hbond>
0.0000

> <Gold.Chemscore.DEClash>
1.4198

> <Gold.Chemscore.DEInternal>
2.2754

> <Gold.Chemscore.Rot>
2.8729

> <Gold.Chemscore.Internal.Correction>
   9.000000E+99

> <Gold.Chemscore.Hbonds>
donor molecule, donor type, donor heavy atom, donor atom, acceptor molecule, acceptor atom, score
      P1  H  7997  8008       L1     8  0.61

> <Gold.Chemscore.Hbond.Weighted>
-2.7760

> <Gold.Chemscore.Metal.Weighted>
-0.0000

> <Gold.Chemscore.Lipo.Weighted>
-11.7808

> <Gold.Chemscore.Internal_Hbond.Weighted>
0.0000

> <Gold.Chemscore.DEClash.Weighted>
1.4198

> <Gold.Chemscore.DEInternal.Weighted>
2.2754

> <Gold.Chemscore.Rot.Weighted>
7.3546

> <Gold.Chemscore.Internal.Correction.Weighted>
   9.000000E+99

> <Gold.Protein.RotatedTorsions>
[ 6907 6896 6895 6894 ] final   87.34 input  -60.11 | X-H torsion
[ 7974 7965 7964 7962 ] final   92.94 input  175.53 | X-H torsion
[ 8008 7997 7996 7995 ] final -111.77 input   59.86 | X-H torsion
[ 10167 10162 10161 10158 ] final   61.70 input  -65.29 | X-H torsion
[ 10718 10713 10712 10709 ] final   50.31 input   66.30 | X-H torsion
[ 10763 10752 10751 10750 ] final  -36.25 input  -60.55 | X-H torsion
[ 11005 11000 10999 10996 ] final   85.84 input  -57.11 | X-H torsion

> <Gold.Protein.ActiveResidues>
 VAL166  LYS551  ARG553  GLY616  TRP617  ASP618  TYR619  PRO620  LYS621  CYS622 
 ASP623  PHE694  ASN695  SER759  ASP760  ASP761  ALA762  ILE779  LEU786  VAL792 
 PHE793  MET794  SER795  GLU796  ALA797  LYS798  CYS799  TRP800  GLU811  SER814 

> <Gold.Protein.RotatedAtoms>
  152.5409  134.2291  159.8817 H   0  0  0  0  0  0  0  0  0  0  0  0  # atno 6907 bound_to 6896
  151.2264  133.4467  159.2610 H   0  0  0  0  0  0  0  0  0  0  0  0  # atno 6908 bound_to 6896
  151.0757  134.9840  159.8387 H   0  0  0  0  0  0  0  0  0  0  0  0  # atno 6909 bound_to 6896
  145.4856  139.2277  143.2858 H   0  0  0  0  0  0  0  0  0  0  0  0  # atno 7974 bound_to 7965
  154.9950  140.0395  157.2336 H   0  0  0  0  0  0  0  0  0  0  0  0  # atno 8008 bound_to 7997
  154.7595  140.2782  155.6203 H   0  0  0  0  0  0  0  0  0  0  0  0  # atno 8009 bound_to 7997
  156.2901  140.2631  156.2369 H   0  0  0  0  0  0  0  0  0  0  0  0  # atno 8010 bound_to 7997
  140.1519  144.4454  150.6755 H   0  0  0  0  0  0  0  0  0  0  0  0  # atno 10167 bound_to 10162
  157.4872  130.8352  149.8160 H   0  0  0  0  0  0  0  0  0  0  0  0  # atno 10718 bound_to 10713
  153.8767  135.6825  153.4770 H   0  0  0  0  0  0  0  0  0  0  0  0  # atno 10763 bound_to 10752
  153.1256  135.4720  154.9265 H   0  0  0  0  0  0  0  0  0  0  0  0  # atno 10764 bound_to 10752
  154.7688  135.3232  154.8183 H   0  0  0  0  0  0  0  0  0  0  0  0  # atno 10765 bound_to 10752
  139.8960  134.8314  156.2638 H   0  0  0  0  0  0  0  0  0  0  0  0  # atno 11005 bound_to 11000
  146.2315  140.5645  142.8973 LP  0  0  0  0  0  0  0  0  0  0  0  0  # atno 17320 bound_to 7965
  144.7864  140.5944  143.6571 LP  0  0  0  0  0  0  0  0  0  0  0  0  # atno 17321 bound_to 7965
  140.6697  143.2281  151.5655 LP  0  0  0  0  0  0  0  0  0  0  0  0  # atno 17342 bound_to 10162
  139.5422  144.2618  152.1372 LP  0  0  0  0  0  0  0  0  0  0  0  0  # atno 17343 bound_to 10162
  156.0153  130.3816  150.2131 LP  0  0  0  0  0  0  0  0  0  0  0  0  # atno 17370 bound_to 10713
  157.0318  131.0010  151.3310 LP  0  0  0  0  0  0  0  0  0  0  0  0  # atno 17371 bound_to 10713
  141.0145  133.7076  156.1166 LP  0  0  0  0  0  0  0  0  0  0  0  0  # atno 17394 bound_to 11000
  140.7320  134.4244  157.5565 LP  0  0  0  0  0  0  0  0  0  0  0  0  # atno 17395 bound_to 11000

$$$$
