AV-unprocessed.smi:2807|AV-procd|sdf|10818|dock2
  -GOLD-   2272015253D 1   1.00000     0.00000
 Structure written by MMmdl.
 32 33  0  0  0  0  0  0  0  0  1 V2000
  151.6843  139.9310  155.2983 O   0  0  0  0  0  0  0  0  0  0  0  0
  150.9159  140.4488  156.1098 C   0  0  0  0  0  0  0  0  0  0  0  0
  149.7379  140.9936  155.7618 N   0  0  0  0  0  0  0  0  0  0  0  0
  149.1925  141.0611  154.4052 C   0  0  2  0  0  0  0  0  0  0  0  0
  147.9987  142.0356  154.3513 C   0  0  0  0  0  0  0  0  0  0  0  0
  146.8625  141.2873  153.6497 C   0  0  0  0  0  0  0  0  0  0  0  0
  147.1277  139.8177  153.9591 C   0  0  0  0  0  0  0  0  0  0  0  0
  148.6517  139.7012  153.8977 C   0  0  2  0  0  0  0  0  0  0  0  0
  149.1010  138.5643  154.6111 O   0  0  0  0  0  0  0  0  0  0  0  0
  151.2843  140.4988  157.6002 C   0  0  0  0  0  0  0  0  0  0  0  0
  150.3038  139.9386  158.3134 F   0  0  0  0  0  0  0  0  0  0  0  0
  152.3914  139.7783  157.7947 F   0  0  0  0  0  0  0  0  0  0  0  0
  151.5060  141.9421  158.0450 C   0  0  0  0  0  0  0  0  0  0  0  0
  152.0606  142.2356  159.3116 C   0  0  0  0  0  0  0  0  0  0  0  0
  152.2553  143.5838  159.6681 C   0  0  0  0  0  0  0  0  0  0  0  0
  151.8938  144.5876  158.7501 C   0  0  0  0  0  0  0  0  0  0  0  0
  151.3525  144.1967  157.5100 C   0  0  0  0  0  0  0  0  0  0  0  0
  151.1615  142.9072  157.1582 N   0  0  0  0  0  0  0  0  0  0  0  0
  149.1779  141.4032  156.4958 H   0  0  0  0  0  0  0  0  0  0  0  0
  149.9617  141.4111  153.7142 H   0  0  0  0  0  0  0  0  0  0  0  0
  147.6767  142.3071  155.3581 H   0  0  0  0  0  0  0  0  0  0  0  0
  148.2499  142.9633  153.8360 H   0  0  0  0  0  0  0  0  0  0  0  0
  145.8767  141.6155  153.9804 H   0  0  0  0  0  0  0  0  0  0  0  0
  146.9240  141.4508  152.5728 H   0  0  0  0  0  0  0  0  0  0  0  0
  146.7696  139.5897  154.9644 H   0  0  0  0  0  0  0  0  0  0  0  0
  146.6257  139.1433  153.2645 H   0  0  0  0  0  0  0  0  0  0  0  0
  148.9469  139.5796  152.8544 H   0  0  0  0  0  0  0  0  0  0  0  0
  148.6249  137.8091  154.3016 H   0  0  0  0  0  0  0  0  0  0  0  0
  152.3361  141.4474  159.9967 H   0  0  0  0  0  0  0  0  0  0  0  0
  152.6764  143.8429  160.6284 H   0  0  0  0  0  0  0  0  0  0  0  0
  152.0298  145.6318  158.9900 H   0  0  0  0  0  0  0  0  0  0  0  0
  151.0653  144.9394  156.7805 H   0  0  0  0  0  0  0  0  0  0  0  0
  1  2  2  0  0  0  0
  2  3  1  0  0  0  0
  2 10  1  0  0  0  0
  3  4  1  0  0  0  0
  3 19  1  0  0  0  0
  4  8  1  0  0  0  0
  4  5  1  0  0  0  0
  4 20  1  0  0  0  0
  5  6  1  0  0  0  0
  5 21  1  0  0  0  0
  5 22  1  0  0  0  0
  6  7  1  0  0  0  0
  6 23  1  0  0  0  0
  6 24  1  0  0  0  0
  7  8  1  0  0  0  0
  7 25  1  0  0  0  0
  7 26  1  0  0  0  0
  8  9  1  0  0  0  0
  8 27  1  0  0  0  0
  9 28  1  0  0  0  0
 10 11  1  0  0  0  0
 10 12  1  0  0  0  0
 10 13  1  0  0  0  0
 13 18  1  0  0  0  0
 13 14  2  0  0  0  0
 14 15  1  0  0  0  0
 14 29  1  0  0  0  0
 15 16  2  0  0  0  0
 15 30  1  0  0  0  0
 16 17  1  0  0  0  0
 16 31  1  0  0  0  0
 17 18  2  0  0  0  0
 17 32  1  0  0  0  0
M  END
> <s_m_source_file>
AV-unprocessed.smi

> <i_m_source_file_index>
2807

> <i_lp_mmshare_version>
43012

> <i_f3d_flags>
0

> <s_epik_input>
bjFbY0hdW2NIXVtjSF1bY0hdYzFDKEYpKEYpQyg9TylbTkhdW0NAQEhdMltDSDJdW0NIMl1bQ0gyXVtDQEhdMltPSF0=

> <s_epik_cmdline>
J2VwaWtfcHl0aG9uJywgJy1waCcsICc3LjAnLCAnLXRuJywgJzgnLCAnLW1hJywgJzIwMCcsICctbWV0YWxfYmluZGluZycsICctaW1hZScsICc8aW5maWxlLm1hZT4nLCAnLW9tYWUnLCAnPG91dGZpbGUubWFlPic=

> <r_lp_tautomer_probability>
1

> <r_epik_Ionization_Penalty>
4.08325e-05

> <r_epik_Ionization_Penalty_Charging>
0

> <r_epik_Ionization_Penalty_Neutral>
4.08325e-05

> <r_epik_State_Penalty>
-0

> <r_epik_Charging_Adjusted_Penalty>
0

> <i_epik_Tot_Q>
0

> <i_epik_Tot_abs_Q>
0

> <r_epik_Metal_State_Penalty>
0.034564

> <b_epik_Metal_Only>
0

> <s_lp_Force_Field>
OPLS_2005

> <r_lp_Energy>
28.2651

> <b_lp_Chiralities_Consistent>
1

> <s_lp_Variant>
AV-unprocessed.smi:2807-3

> <Gold.Version>
5.8.1

> <Gold.Id.Protein>
6NUR|6NUR_protein|mol2

> <Gold.PLP.Fitness>
40.5017

> <Gold.PLP.PLP>
-36.2760

> <Gold.PLP.part.hbond>
-1.0000

> <Gold.PLP.part.metal>
0.0000

> <Gold.PLP.part.buried>
0.7457

> <Gold.PLP.part.nonpolar>
-35.5231

> <Gold.PLP.part.repulsive>
0.2295

> <Gold.PLP.ligand.clash>
0.0000

> <Gold.PLP.ligand.torsion>
0.5500

> <Gold.PLP.Chemscore.Hbond>
0.9920

> <Gold.PLP.Chemscore.CHOScore>
0.7784

> <Gold.PLP.Chemscore.Metal>
0.0000

> <Gold.Chemscore.Hbonds>
donor molecule, donor type, donor heavy atom, donor atom, acceptor molecule, acceptor atom, score
      P1  H  7989  7998       L1     1  0.99
      L1  C    17    32       P1  8028  0.80

> <Gold.PLP.Chemscore.Internal.Correction>
0.0143

> <Gold.Rescore>
     Score         DG    S(hbond)    S(metal)    S(lipo)     H(rot)  DE(clash)    DE(int)     intcor
     11.23     -13.81       0.89        0.00      90.48       2.05       0.71       1.87       ----

> <Gold.Chemscore.Fitness>
11.2315

> <Gold.Chemscore.DG>
-13.8105

> <Gold.Chemscore.ZeroCoef>
-5.4800

> <Gold.Chemscore.Hbond>
0.8927

> <Gold.Chemscore.Metal>
0.0000

> <Gold.Chemscore.Lipo>
90.4783

> <Gold.Chemscore.Internal_Hbond>
0.0000

> <Gold.Chemscore.DEClash>
0.7056

> <Gold.Chemscore.DEInternal>
1.8734

> <Gold.Chemscore.Rot>
2.0457

> <Gold.Chemscore.Internal.Correction>
   9.000000E+99

> <Gold.Chemscore.Hbonds>
donor molecule, donor type, donor heavy atom, donor atom, acceptor molecule, acceptor atom, score
      P1  H  7989  7998       L1     1  0.73

> <Gold.Chemscore.Hbond.Weighted>
-2.9816

> <Gold.Chemscore.Metal.Weighted>
-0.0000

> <Gold.Chemscore.Lipo.Weighted>
-10.5860

> <Gold.Chemscore.Internal_Hbond.Weighted>
0.0000

> <Gold.Chemscore.DEClash.Weighted>
0.7056

> <Gold.Chemscore.DEInternal.Weighted>
1.8734

> <Gold.Chemscore.Rot.Weighted>
5.2371

> <Gold.Chemscore.Internal.Correction.Weighted>
   9.000000E+99

> <Gold.Protein.RotatedTorsions>
[ 6907 6896 6895 6894 ] final    2.64 input  -60.11 | X-H torsion
[ 7974 7965 7964 7962 ] final   -2.82 input  175.53 | X-H torsion
[ 8008 7997 7996 7995 ] final -143.18 input   59.86 | X-H torsion
[ 10167 10162 10161 10158 ] final  125.79 input  -65.29 | X-H torsion
[ 10718 10713 10712 10709 ] final  142.82 input   66.30 | X-H torsion
[ 10763 10752 10751 10750 ] final  135.73 input  -60.55 | X-H torsion
[ 11005 11000 10999 10996 ] final -144.83 input  -57.11 | X-H torsion

> <Gold.Protein.ActiveResidues>
 VAL166  LYS551  ARG553  GLY616  TRP617  ASP618  TYR619  PRO620  LYS621  CYS622 
 ASP623  PHE694  ASN695  SER759  ASP760  ASP761  ALA762  ILE779  LEU786  VAL792 
 PHE793  MET794  SER795  GLU796  ALA797  LYS798  CYS799  TRP800  GLU811  SER814 

> <Gold.Protein.RotatedAtoms>
  151.6121  135.1039  160.0083 H   0  0  0  0  0  0  0  0  0  0  0  0  # atno 6907 bound_to 6896
  152.4202  133.7100  159.6484 H   0  0  0  0  0  0  0  0  0  0  0  0  # atno 6908 bound_to 6896
  150.8090  133.8383  159.3213 H   0  0  0  0  0  0  0  0  0  0  0  0  # atno 6909 bound_to 6896
  146.2399  140.1629  142.8332 H   0  0  0  0  0  0  0  0  0  0  0  0  # atno 7974 bound_to 7965
  155.5064  140.0580  157.2931 H   0  0  0  0  0  0  0  0  0  0  0  0  # atno 8008 bound_to 7997
  154.4568  140.1977  156.0306 H   0  0  0  0  0  0  0  0  0  0  0  0  # atno 8009 bound_to 7997
  156.0814  140.3246  155.7703 H   0  0  0  0  0  0  0  0  0  0  0  0  # atno 8010 bound_to 7997
  139.5666  144.6915  151.3893 H   0  0  0  0  0  0  0  0  0  0  0  0  # atno 10167 bound_to 10162
  157.3762  131.0986  151.0782 H   0  0  0  0  0  0  0  0  0  0  0  0  # atno 10718 bound_to 10713
  153.8449  135.3086  155.3428 H   0  0  0  0  0  0  0  0  0  0  0  0  # atno 10763 bound_to 10752
  154.7917  135.4779  154.0070 H   0  0  0  0  0  0  0  0  0  0  0  0  # atno 10764 bound_to 10752
  153.1553  135.6851  153.8913 H   0  0  0  0  0  0  0  0  0  0  0  0  # atno 10765 bound_to 10752
  140.7984  134.2885  157.4987 H   0  0  0  0  0  0  0  0  0  0  0  0  # atno 11005 bound_to 11000
  145.0074  140.8685  143.5244 LP  0  0  0  0  0  0  0  0  0  0  0  0  # atno 17320 bound_to 7965
  145.1657  139.2432  143.5368 LP  0  0  0  0  0  0  0  0  0  0  0  0  # atno 17321 bound_to 7965
  140.6950  143.7771  150.7312 LP  0  0  0  0  0  0  0  0  0  0  0  0  # atno 17342 bound_to 10162
  140.1265  143.4565  152.2281 LP  0  0  0  0  0  0  0  0  0  0  0  0  # atno 17343 bound_to 10162
  157.1868  130.6334  149.5690 LP  0  0  0  0  0  0  0  0  0  0  0  0  # atno 17370 bound_to 10713
  155.9766  130.4735  150.6537 LP  0  0  0  0  0  0  0  0  0  0  0  0  # atno 17371 bound_to 10713
  139.8724  134.9415  156.3800 LP  0  0  0  0  0  0  0  0  0  0  0  0  # atno 17394 bound_to 11000
  140.9319  133.7573  156.0035 LP  0  0  0  0  0  0  0  0  0  0  0  0  # atno 17395 bound_to 11000

$$$$
