AV-unprocessed.smi:101|AV-procd|sdf|925|dock2
  -GOLD-   2262017433D 1   1.00000     0.00000
 Structure written by MMmdl.
 44 46  0  0  0  0  0  0  0  0  1 V2000
  147.6256  136.6277  162.8424 C   0  0  0  0  0  0  0  0  0  0  0  0
  147.7005  136.1079  161.4162 C   0  0  0  0  0  0  0  0  0  0  0  0
  148.5565  136.6256  160.4983 C   0  0  0  0  0  0  0  0  0  0  0  0
  148.6507  136.1696  159.1887 N   0  0  0  0  0  0  0  0  0  0  0  0
  149.6250  136.7615  158.1857 C   0  0  2  0  0  0  0  0  0  0  0  0
  150.8657  136.9572  158.7999 O   0  0  0  0  0  0  0  0  0  0  0  0
  151.0893  138.3481  159.0057 C   0  0  1  0  0  0  0  0  0  0  0  0
  152.5916  138.6090  159.1504 C   0  0  0  0  0  0  0  0  0  0  0  0
  152.7979  140.0117  159.1551 O   0  0  0  0  0  0  0  0  0  0  0  0
  153.3687  140.6123  160.2154 C   0  0  0  0  0  0  0  0  0  0  0  0
  154.1687  140.0533  160.9682 O   0  0  0  0  0  0  0  0  0  0  0  0
  152.9264  142.0269  160.3833 C   0  0  0  0  0  0  0  0  0  0  0  0
  152.6016  142.7926  159.2393 C   0  0  0  0  0  0  0  0  0  0  0  0
  152.1845  144.1319  159.3676 C   0  0  0  0  0  0  0  0  0  0  0  0
  152.0860  144.7213  160.6412 C   0  0  0  0  0  0  0  0  0  0  0  0
  152.4052  143.9699  161.7873 C   0  0  0  0  0  0  0  0  0  0  0  0
  152.8231  142.6309  161.6612 C   0  0  0  0  0  0  0  0  0  0  0  0
  150.4582  138.9489  157.7538 C   0  0  2  0  0  0  0  0  0  0  0  0
  150.2406  140.3448  157.8479 O   0  0  0  0  0  0  0  0  0  0  0  0
  149.1733  138.1345  157.6263 C   0  0  2  0  0  0  0  0  0  0  0  0
  148.1017  138.7174  158.3542 O   0  0  0  0  0  0  0  0  0  0  0  0
  147.8193  135.1124  158.7664 C   0  0  0  0  0  0  0  0  0  0  0  0
  147.8425  134.6664  157.6198 O   0  0  0  0  0  0  0  0  0  0  0  0
  146.9411  134.5803  159.7081 N   0  0  0  0  0  0  0  0  0  0  0  0
  146.8138  135.0061  161.0322 C   0  0  0  0  0  0  0  0  0  0  0  0
  145.9988  134.4563  161.7711 O   0  0  0  0  0  0  0  0  0  0  0  0
  146.3448  133.8228  159.4083 H   0  0  0  0  0  0  0  0  0  0  0  0
  148.3284  137.4439  163.0139 H   0  0  0  0  0  0  0  0  0  0  0  0
  147.8598  135.8319  163.5502 H   0  0  0  0  0  0  0  0  0  0  0  0
  146.6239  136.9984  163.0617 H   0  0  0  0  0  0  0  0  0  0  0  0
  149.1926  137.4350  160.8214 H   0  0  0  0  0  0  0  0  0  0  0  0
  149.7594  136.0006  157.4145 H   0  0  0  0  0  0  0  0  0  0  0  0
  150.5503  138.6900  159.8913 H   0  0  0  0  0  0  0  0  0  0  0  0
  152.9753  138.1529  160.0642 H   0  0  0  0  0  0  0  0  0  0  0  0
  153.1320  138.1743  158.3087 H   0  0  0  0  0  0  0  0  0  0  0  0
  152.6702  142.3617  158.2508 H   0  0  0  0  0  0  0  0  0  0  0  0
  151.9407  144.7072  158.4864 H   0  0  0  0  0  0  0  0  0  0  0  0
  151.7667  145.7484  160.7393 H   0  0  0  0  0  0  0  0  0  0  0  0
  152.3302  144.4209  162.7659 H   0  0  0  0  0  0  0  0  0  0  0  0
  153.0607  142.0834  162.5618 H   0  0  0  0  0  0  0  0  0  0  0  0
  151.0980  138.7486  156.8929 H   0  0  0  0  0  0  0  0  0  0  0  0
  150.8957  140.7884  157.3315 H   0  0  0  0  0  0  0  0  0  0  0  0
  148.8674  138.0260  156.5853 H   0  0  0  0  0  0  0  0  0  0  0  0
  147.7296  139.4117  157.8322 H   0  0  0  0  0  0  0  0  0  0  0  0
  1  2  1  0  0  0  0
  1 28  1  0  0  0  0
  1 29  1  0  0  0  0
  1 30  1  0  0  0  0
  2 25  1  0  0  0  0
  2  3  2  0  0  0  0
  3  4  1  0  0  0  0
  3 31  1  0  0  0  0
  4  5  1  0  0  0  0
  4 22  1  0  0  0  0
  5 20  1  0  0  0  0
  5  6  1  0  0  0  0
  5 32  1  0  0  0  0
  6  7  1  0  0  0  0
  7  8  1  0  0  0  0
  7 18  1  0  0  0  0
  7 33  1  0  0  0  0
  8  9  1  0  0  0  0
  8 34  1  0  0  0  0
  8 35  1  0  0  0  0
  9 10  1  0  0  0  0
 10 11  2  0  0  0  0
 10 12  1  0  0  0  0
 12 17  1  0  0  0  0
 12 13  2  0  0  0  0
 13 14  1  0  0  0  0
 13 36  1  0  0  0  0
 14 15  2  0  0  0  0
 14 37  1  0  0  0  0
 15 16  1  0  0  0  0
 15 38  1  0  0  0  0
 16 17  2  0  0  0  0
 16 39  1  0  0  0  0
 17 40  1  0  0  0  0
 18 19  1  0  0  0  0
 18 20  1  0  0  0  0
 18 41  1  0  0  0  0
 19 42  1  0  0  0  0
 20 21  1  0  0  0  0
 20 43  1  0  0  0  0
 21 44  1  0  0  0  0
 22 23  2  0  0  0  0
 22 24  1  0  0  0  0
 24 27  1  0  0  0  0
 24 25  1  0  0  0  0
 25 26  2  0  0  0  0
M  END
> <s_m_source_file>
AV-unprocessed.smi

> <i_m_source_file_index>
101

> <i_lp_mmshare_version>
43012

> <i_f3d_flags>
0

> <s_epik_input>
Tz1jMVtuSF1jKD1PKW4oW2NIXWMxW0NIM10pW0NAQEhdMk9bQ0BIXShbQ0BASF0oW09IXSlbQ0BIXTJbT0hdKVtDSDJdT0MoPU8pYzNbY0hdW2NIXVtjSF1bY0hdW2NIXTM=

> <s_epik_cmdline>
J2VwaWtfcHl0aG9uJywgJy1waCcsICc3LjAnLCAnLXRuJywgJzgnLCAnLW1hJywgJzIwMCcsICctbWV0YWxfYmluZGluZycsICctaW1hZScsICc8aW5maWxlLm1hZT4nLCAnLW9tYWUnLCAnPG91dGZpbGUubWFlPic=

> <r_lp_tautomer_probability>
0.999537

> <r_epik_Ionization_Penalty>
0.00263537

> <r_epik_Ionization_Penalty_Charging>
0.00263428

> <r_epik_Ionization_Penalty_Neutral>
1.09111e-06

> <r_epik_State_Penalty>
0.00183335

> <r_epik_Charging_Adjusted_Penalty>
0.00446763

> <i_epik_Tot_Q>
0

> <i_epik_Tot_abs_Q>
0

> <r_epik_Metal_State_Penalty>
1.00528

> <b_epik_Metal_Only>
0

> <s_epik_Chemistry_Notes>
This compound has an ester and may undergo hydrolysis at high or low pH. This compound contains an acetal/aminal-like group ( X-CH(R)-Y where X, Y are N, S, or O) that may be acid/base labile, releasing an aldehyde.

> <s_lp_Force_Field>
OPLS_2005

> <r_lp_Energy>
40.9352

> <b_lp_Chiralities_Consistent>
1

> <s_lp_Variant>
AV-unprocessed.smi:101-13

> <Gold.Version>
5.8.1

> <Gold.Id.Protein>
6NUR|6NUR_protein|mol2

> <Gold.PLP.Fitness>
49.8344

> <Gold.PLP.PLP>
-49.9383

> <Gold.PLP.part.hbond>
-1.4580

> <Gold.PLP.part.metal>
0.0000

> <Gold.PLP.part.buried>
-6.1437

> <Gold.PLP.part.nonpolar>
-41.8273

> <Gold.PLP.part.repulsive>
0.0343

> <Gold.PLP.ligand.clash>
0.0000

> <Gold.PLP.ligand.torsion>
1.6089

> <Gold.PLP.Chemscore.Hbond>
0.9913

> <Gold.PLP.Chemscore.CHOScore>
0.0000

> <Gold.PLP.Chemscore.Metal>
0.0000

> <Gold.Chemscore.Hbonds>
donor molecule, donor type, donor heavy atom, donor atom, acceptor molecule, acceptor atom, score
      P1  H  6896  6907       L1     6  0.67

> <Gold.PLP.Chemscore.Internal.Correction>
0.1402

> <Gold.Rescore>
     Score         DG    S(hbond)    S(metal)    S(lipo)     H(rot)  DE(clash)    DE(int)     intcor
      9.21     -12.17       0.69        0.00     109.94       3.32       0.01       2.94       ----

> <Gold.Chemscore.Fitness>
9.2121

> <Gold.Chemscore.DG>
-12.1654

> <Gold.Chemscore.ZeroCoef>
-5.4800

> <Gold.Chemscore.Hbond>
0.6931

> <Gold.Chemscore.Metal>
0.0000

> <Gold.Chemscore.Lipo>
109.9361

> <Gold.Chemscore.Internal_Hbond>
0.0000

> <Gold.Chemscore.DEClash>
0.0103

> <Gold.Chemscore.DEInternal>
2.9430

> <Gold.Chemscore.Rot>
3.3172

> <Gold.Chemscore.Internal.Correction>
   9.000000E+99

> <Gold.Chemscore.Hbonds>
donor molecule, donor type, donor heavy atom, donor atom, acceptor molecule, acceptor atom, score
      P1  H  6896  6907       L1     6  0.35

> <Gold.Chemscore.Hbond.Weighted>
-2.3149

> <Gold.Chemscore.Metal.Weighted>
-0.0000

> <Gold.Chemscore.Lipo.Weighted>
-12.8625

> <Gold.Chemscore.Internal_Hbond.Weighted>
0.0000

> <Gold.Chemscore.DEClash.Weighted>
0.0103

> <Gold.Chemscore.DEInternal.Weighted>
2.9430

> <Gold.Chemscore.Rot.Weighted>
8.4920

> <Gold.Chemscore.Internal.Correction.Weighted>
   9.000000E+99

> <Gold.Protein.RotatedTorsions>
[ 6907 6896 6895 6894 ] final  -17.58 input  -60.11 | X-H torsion
[ 7974 7965 7964 7962 ] final   -6.62 input  175.53 | X-H torsion
[ 8008 7997 7996 7995 ] final   83.86 input   59.86 | X-H torsion
[ 10167 10162 10161 10158 ] final  -63.97 input  -65.29 | X-H torsion
[ 10718 10713 10712 10709 ] final  -94.30 input   66.30 | X-H torsion
[ 10763 10752 10751 10750 ] final  -63.79 input  -60.55 | X-H torsion
[ 11005 11000 10999 10996 ] final  155.18 input  -57.11 | X-H torsion

> <Gold.Protein.ActiveResidues>
 VAL166  LYS551  ARG553  GLY616  TRP617  ASP618  TYR619  PRO620  LYS621  CYS622 
 ASP623  PHE694  ASN695  SER759  ASP760  ASP761  ALA762  ILE779  LEU786  VAL792 
 PHE793  MET794  SER795  GLU796  ALA797  LYS798  CYS799  TRP800  GLU811  SER814 

> <Gold.Protein.RotatedAtoms>
  151.2912  135.0742  159.9204 H   0  0  0  0  0  0  0  0  0  0  0  0  # atno 6907 bound_to 6896
  152.5316  133.9930  159.7870 H   0  0  0  0  0  0  0  0  0  0  0  0  # atno 6908 bound_to 6896
  151.0200  133.5834  159.2703 H   0  0  0  0  0  0  0  0  0  0  0  0  # atno 6909 bound_to 6896
  146.2326  140.2198  142.8337 H   0  0  0  0  0  0  0  0  0  0  0  0  # atno 7974 bound_to 7965
  155.9294  140.3416  155.6237 H   0  0  0  0  0  0  0  0  0  0  0  0  # atno 8008 bound_to 7997
  155.7176  140.0779  157.2363 H   0  0  0  0  0  0  0  0  0  0  0  0  # atno 8009 bound_to 7997
  154.4082  140.1611  156.2353 H   0  0  0  0  0  0  0  0  0  0  0  0  # atno 8010 bound_to 7997
  140.5834  143.2330  151.6295 H   0  0  0  0  0  0  0  0  0  0  0  0  # atno 10167 bound_to 10162
  156.0025  130.5062  150.5906 H   0  0  0  0  0  0  0  0  0  0  0  0  # atno 10718 bound_to 10713
  154.3203  135.6197  153.5505 H   0  0  0  0  0  0  0  0  0  0  0  0  # atno 10763 bound_to 10752
  152.9820  135.5722  154.5077 H   0  0  0  0  0  0  0  0  0  0  0  0  # atno 10764 bound_to 10752
  154.4744  135.2860  155.1595 H   0  0  0  0  0  0  0  0  0  0  0  0  # atno 10765 bound_to 10752
  140.1558  134.8644  157.2512 H   0  0  0  0  0  0  0  0  0  0  0  0  # atno 11005 bound_to 11000
  144.9641  140.8304  143.5495 LP  0  0  0  0  0  0  0  0  0  0  0  0  # atno 17320 bound_to 7965
  145.2172  139.2176  143.5112 LP  0  0  0  0  0  0  0  0  0  0  0  0  # atno 17321 bound_to 7965
  139.5183  144.3289  152.0844 LP  0  0  0  0  0  0  0  0  0  0  0  0  # atno 17342 bound_to 10162
  140.2442  144.4237  150.6247 LP  0  0  0  0  0  0  0  0  0  0  0  0  # atno 17343 bound_to 10162
  157.3771  131.0775  151.1508 LP  0  0  0  0  0  0  0  0  0  0  0  0  # atno 17370 bound_to 10713
  157.2242  130.6495  149.5823 LP  0  0  0  0  0  0  0  0  0  0  0  0  # atno 17371 bound_to 10713
  140.2549  134.3639  155.7428 LP  0  0  0  0  0  0  0  0  0  0  0  0  # atno 17394 bound_to 11000
  141.2204  133.7337  156.8992 LP  0  0  0  0  0  0  0  0  0  0  0  0  # atno 17395 bound_to 11000

$$$$
