AV-unprocessed.smi:2822|AV-procd|sdf|10867|dock2
  -GOLD-   2272015313D 1   1.00000     0.00000
 Structure written by MMmdl.
 41 43  0  0  0  0  0  0  0  0  3 V2000
  150.1333  138.4438  154.1074 Cl  0  0  0  0  0  0  0  0  0  0  0  0
  148.9658  139.7187  154.1367 C   0  0  0  0  0  0  0  0  0  0  0  0
  149.3349  140.9790  154.6504 C   0  0  0  0  0  0  0  0  0  0  0  0
  148.4362  141.9856  154.6808 N   0  3  0  0  0  0  0  0  0  0  0  0
  147.1704  141.8466  154.2333 C   0  0  0  0  0  0  0  0  0  0  0  0
  146.7418  140.6106  153.7079 C   0  0  0  0  0  0  0  0  0  0  0  0
  147.6479  139.5215  153.6552 C   0  0  0  0  0  0  0  0  0  0  0  0
  147.2836  138.2639  153.1491 N   0  0  0  0  0  0  0  0  0  0  0  0
  145.8939  137.8325  153.1234 C   0  0  0  0  0  0  0  0  0  0  0  0
  145.7012  136.6054  152.2204 C   0  0  1  0  0  0  0  0  0  0  0  0
  146.1812  135.3123  152.9052 C   0  0  0  0  0  0  0  0  0  0  0  0
  145.9191  134.1365  152.0426 N   0  3  1  0  0  0  0  0  0  0  0  0
  146.4029  132.8697  152.6482 C   0  0  0  0  0  0  0  0  0  0  0  0
  146.2014  131.6853  151.6891 C   0  0  0  0  0  0  0  0  0  0  0  0
  144.7317  131.5690  151.2654 C   0  0  0  0  0  0  0  0  0  0  0  0
  144.2493  132.8985  150.6698 C   0  0  0  0  0  0  0  0  0  0  0  0
  144.4862  134.0679  151.6461 C   0  0  2  0  0  0  0  0  0  0  0  0
  144.0453  135.4106  151.0309 C   0  0  0  0  0  0  0  0  0  0  0  0
  144.3120  136.4713  151.9397 O   0  0  0  0  0  0  0  0  0  0  0  0
  150.3172  141.2104  155.0359 H   0  0  0  0  0  0  0  0  0  0  0  0
  146.5419  142.7220  154.3089 H   0  0  0  0  0  0  0  0  0  0  0  0
  145.7248  140.5193  153.3569 H   0  0  0  0  0  0  0  0  0  0  0  0
  147.9613  137.7358  152.6168 H   0  0  0  0  0  0  0  0  0  0  0  0
  145.5911  137.5821  154.1409 H   0  0  0  0  0  0  0  0  0  0  0  0
  145.2581  138.6520  152.7859 H   0  0  0  0  0  0  0  0  0  0  0  0
  146.2557  136.7526  151.2911 H   0  0  0  0  0  0  0  0  0  0  0  0
  147.2497  135.3773  153.1146 H   0  0  0  0  0  0  0  0  0  0  0  0
  145.6744  135.1823  153.8629 H   0  0  0  0  0  0  0  0  0  0  0  0
  147.4611  132.9631  152.8949 H   0  0  0  0  0  0  0  0  0  0  0  0
  145.8735  132.6867  153.5845 H   0  0  0  0  0  0  0  0  0  0  0  0
  146.8291  131.8161  150.8065 H   0  0  0  0  0  0  0  0  0  0  0  0
  146.5261  130.7598  152.1658 H   0  0  0  0  0  0  0  0  0  0  0  0
  144.6105  130.7644  150.5395 H   0  0  0  0  0  0  0  0  0  0  0  0
  144.1183  131.3064  152.1284 H   0  0  0  0  0  0  0  0  0  0  0  0
  144.7736  133.0870  149.7318 H   0  0  0  0  0  0  0  0  0  0  0  0
  143.1897  132.8263  150.4216 H   0  0  0  0  0  0  0  0  0  0  0  0
  143.8950  133.8948  152.5473 H   0  0  0  0  0  0  0  0  0  0  0  0
  144.5524  135.5955  150.0822 H   0  0  0  0  0  0  0  0  0  0  0  0
  142.9756  135.3940  150.8199 H   0  0  0  0  0  0  0  0  0  0  0  0
  146.4489  134.2740  151.1937 H   0  0  0  0  0  0  0  0  0  0  0  0
  148.7259  142.8886  155.0576 H   0  0  0  0  0  0  0  0  0  0  0  0
  1  2  1  0  0  0  0
  2  7  1  0  0  0  0
  2  3  2  0  0  0  0
  3  4  1  0  0  0  0
  3 20  1  0  0  0  0
  4  5  2  0  0  0  0
  4 41  1  0  0  0  0
  5  6  1  0  0  0  0
  5 21  1  0  0  0  0
  6  7  2  0  0  0  0
  6 22  1  0  0  0  0
  7  8  1  0  0  0  0
  8  9  1  0  0  0  0
  8 23  1  0  0  0  0
  9 10  1  0  0  0  0
  9 24  1  0  0  0  0
  9 25  1  0  0  0  0
 10 19  1  0  0  0  0
 10 11  1  0  0  0  0
 10 26  1  0  0  0  0
 11 12  1  0  0  0  0
 11 27  1  0  0  0  0
 11 28  1  0  0  0  0
 12 17  1  0  0  0  0
 12 13  1  0  0  0  0
 12 40  1  0  0  0  0
 13 14  1  0  0  0  0
 13 29  1  0  0  0  0
 13 30  1  0  0  0  0
 14 15  1  0  0  0  0
 14 31  1  0  0  0  0
 14 32  1  0  0  0  0
 15 16  1  0  0  0  0
 15 33  1  0  0  0  0
 15 34  1  0  0  0  0
 16 17  1  0  0  0  0
 16 35  1  0  0  0  0
 16 36  1  0  0  0  0
 17 18  1  0  0  0  0
 17 37  1  0  0  0  0
 18 19  1  0  0  0  0
 18 38  1  0  0  0  0
 18 39  1  0  0  0  0
M  CHG  1   4   1
M  CHG  1  12   1
M  END
> <s_m_source_file>
AV-unprocessed.smi

> <i_m_source_file_index>
2822

> <i_lp_mmshare_version>
43012

> <i_f3d_flags>
0

> <s_epik_input>
Q2xjMVtjSF1uW2NIXVtjSF1jMVtOSF1bQ0gyXVtDQEhdKFtDSDJdMilPW0NIMl1bQ0BASF0oTjIzKVtDSDJdW0NIMl1bQ0gyXVtDSDJdMw==

> <s_epik_cmdline>
J2VwaWtfcHl0aG9uJywgJy1waCcsICc3LjAnLCAnLXRuJywgJzgnLCAnLW1hJywgJzIwMCcsICctbWV0YWxfYmluZGluZycsICctaW1hZScsICc8aW5maWxlLm1hZT4nLCAnLW9tYWUnLCAnPG91dGZpbGUubWFlPic=

> <r_lp_tautomer_probability>
1

> <r_epik_Ionization_Penalty>
0.254999

> <r_epik_Ionization_Penalty_Charging>
0.254956

> <r_epik_Ionization_Penalty_Neutral>
4.33524e-05

> <r_epik_State_Penalty>
0.230978

> <r_epik_Charging_Adjusted_Penalty>
0.485934

> <i_epik_Tot_Q>
2

> <i_epik_Tot_abs_Q>
2

> <r_epik_Metal_State_Penalty>
3.47007

> <b_epik_Metal_Only>
0

> <s_lp_Force_Field>
OPLS_2005

> <r_lp_Energy>
36.8988

> <b_lp_Chiralities_Consistent>
1

> <s_lp_Variant>
AV-unprocessed.smi:2822-8

> <Gold.Version>
5.8.1

> <Gold.Id.Protein>
6NUR|6NUR_protein|mol2

> <Gold.PLP.Fitness>
41.4710

> <Gold.PLP.PLP>
-33.1576

> <Gold.PLP.part.hbond>
-2.0000

> <Gold.PLP.part.metal>
0.0000

> <Gold.PLP.part.buried>
-3.2184

> <Gold.PLP.part.nonpolar>
-29.6631

> <Gold.PLP.part.repulsive>
1.6213

> <Gold.PLP.ligand.clash>
0.0000

> <Gold.PLP.ligand.torsion>
0.3441

> <Gold.PLP.Chemscore.Hbond>
3.0000

> <Gold.PLP.Chemscore.CHOScore>
0.0000

> <Gold.PLP.Chemscore.Metal>
0.0000

> <Gold.Chemscore.Hbonds>
donor molecule, donor type, donor heavy atom, donor atom, acceptor molecule, acceptor atom, score
      L1  H     4    41       P1  8028  2.00
      L1  H     8    23       P1  7948  1.00

> <Gold.PLP.Chemscore.Internal.Correction>
0.0016

> <Gold.Rescore>
     Score         DG    S(hbond)    S(metal)    S(lipo)     H(rot)  DE(clash)    DE(int)     intcor
     18.74     -20.42       1.98        0.00      97.18       1.20       1.29       0.38       ----

> <Gold.Chemscore.Fitness>
18.7434

> <Gold.Chemscore.DG>
-20.4151

> <Gold.Chemscore.ZeroCoef>
-5.4800

> <Gold.Chemscore.Hbond>
1.9841

> <Gold.Chemscore.Metal>
0.0000

> <Gold.Chemscore.Lipo>
97.1831

> <Gold.Chemscore.Internal_Hbond>
0.0000

> <Gold.Chemscore.DEClash>
1.2944

> <Gold.Chemscore.DEInternal>
0.3773

> <Gold.Chemscore.Rot>
1.1962

> <Gold.Chemscore.Internal.Correction>
   9.000000E+99

> <Gold.Chemscore.Hbonds>
donor molecule, donor type, donor heavy atom, donor atom, acceptor molecule, acceptor atom, score
      L1  H     4    41       P1  8028  1.00
      L1  H     8    23       P1  7948  0.99

> <Gold.Chemscore.Hbond.Weighted>
-6.6270

> <Gold.Chemscore.Metal.Weighted>
-0.0000

> <Gold.Chemscore.Lipo.Weighted>
-11.3704

> <Gold.Chemscore.Internal_Hbond.Weighted>
0.0000

> <Gold.Chemscore.DEClash.Weighted>
1.2944

> <Gold.Chemscore.DEInternal.Weighted>
0.3773

> <Gold.Chemscore.Rot.Weighted>
3.0623

> <Gold.Chemscore.Internal.Correction.Weighted>
   9.000000E+99

> <Gold.Protein.RotatedTorsions>
[ 6907 6896 6895 6894 ] final  -91.47 input  -60.11 | X-H torsion
[ 7974 7965 7964 7962 ] final   15.60 input  175.53 | X-H torsion
[ 8008 7997 7996 7995 ] final  -97.24 input   59.86 | X-H torsion
[ 10167 10162 10161 10158 ] final  -39.07 input  -65.29 | X-H torsion
[ 10718 10713 10712 10709 ] final  107.12 input   66.30 | X-H torsion
[ 10763 10752 10751 10750 ] final -176.41 input  -60.55 | X-H torsion
[ 11005 11000 10999 10996 ] final  -30.05 input  -57.11 | X-H torsion

> <Gold.Protein.ActiveResidues>
 VAL166  LYS551  ARG553  GLY616  TRP617  ASP618  TYR619  PRO620  LYS621  CYS622 
 ASP623  PHE694  ASN695  SER759  ASP760  ASP761  ALA762  ILE779  LEU786  VAL792 
 PHE793  MET794  SER795  GLU796  ALA797  LYS798  CYS799  TRP800  GLU811  SER814 

> <Gold.Protein.RotatedAtoms>
  150.6893  134.2271  159.4419 H   0  0  0  0  0  0  0  0  0  0  0  0  # atno 6907 bound_to 6896
  152.0224  134.9812  160.0580 H   0  0  0  0  0  0  0  0  0  0  0  0  # atno 6908 bound_to 6896
  152.1384  133.4414  159.4792 H   0  0  0  0  0  0  0  0  0  0  0  0  # atno 6909 bound_to 6896
  146.2274  139.8870  142.8561 H   0  0  0  0  0  0  0  0  0  0  0  0  # atno 7974 bound_to 7965
  154.7852  140.0464  157.1158 H   0  0  0  0  0  0  0  0  0  0  0  0  # atno 8008 bound_to 7997
  154.9657  140.3083  155.4991 H   0  0  0  0  0  0  0  0  0  0  0  0  # atno 8009 bound_to 7997
  156.2942  140.2262  156.4746 H   0  0  0  0  0  0  0  0  0  0  0  0  # atno 8010 bound_to 7997
  140.7074  143.3237  151.2731 H   0  0  0  0  0  0  0  0  0  0  0  0  # atno 10167 bound_to 10162
  157.6641  131.0866  150.6108 H   0  0  0  0  0  0  0  0  0  0  0  0  # atno 10718 bound_to 10713
  154.5727  135.2829  155.0811 H   0  0  0  0  0  0  0  0  0  0  0  0  # atno 10763 bound_to 10752
  154.2177  135.6396  153.5139 H   0  0  0  0  0  0  0  0  0  0  0  0  # atno 10764 bound_to 10752
  153.0062  135.5507  154.6356 H   0  0  0  0  0  0  0  0  0  0  0  0  # atno 10765 bound_to 10752
  140.9349  133.7315  156.0990 H   0  0  0  0  0  0  0  0  0  0  0  0  # atno 11005 bound_to 11000
  145.2456  141.0025  143.3911 LP  0  0  0  0  0  0  0  0  0  0  0  0  # atno 17320 bound_to 7965
  144.9416  139.4182  143.6446 LP  0  0  0  0  0  0  0  0  0  0  0  0  # atno 17321 bound_to 7965
  139.6699  144.0039  152.2746 LP  0  0  0  0  0  0  0  0  0  0  0  0  # atno 17342 bound_to 10162
  139.9634  144.6542  150.8058 LP  0  0  0  0  0  0  0  0  0  0  0  0  # atno 17343 bound_to 10162
  156.6410  130.4458  149.5752 LP  0  0  0  0  0  0  0  0  0  0  0  0  # atno 17370 bound_to 10713
  156.2209  130.6736  151.1367 LP  0  0  0  0  0  0  0  0  0  0  0  0  # atno 17371 bound_to 10713
  140.7813  134.3723  157.5487 LP  0  0  0  0  0  0  0  0  0  0  0  0  # atno 17394 bound_to 11000
  139.8805  134.9083  156.2965 LP  0  0  0  0  0  0  0  0  0  0  0  0  # atno 17395 bound_to 11000

$$$$
