AV-unprocessed.smi:3140|AV-procd|sdf|11961|dock10
  -GOLD-   2272017363D 1   1.00000     0.00000
 Structure written by MMmdl.
 37 38  0  0  0  0  0  0  0  0  1 V2000
  147.1897  141.8173  155.2918 C   0  0  0  0  0  0  0  0  0  0  0  0
  148.5450  141.1084  155.4617 C   0  0  1  0  0  0  0  0  0  0  0  0
  148.8813  140.2589  154.2193 C   0  0  0  0  0  0  0  0  0  0  0  0
  150.0849  139.4647  154.3978 N   0  0  0  0  0  0  0  0  0  0  0  0
  150.2489  138.1084  154.2101 C   0  0  0  0  0  0  0  0  0  0  0  0
  151.5501  137.8117  154.4990 C   0  0  0  0  0  0  0  0  0  0  0  0
  152.1117  139.0696  154.8552 C   0  0  0  0  0  0  0  0  0  0  0  0
  151.2336  140.0575  154.7907 N   0  0  0  0  0  0  0  0  0  0  0  0
  149.6035  142.0925  155.6636 N   0  0  0  0  0  0  0  0  0  0  0  0
  150.2034  142.0022  156.9858 C   0  0  0  0  0  0  0  0  0  0  0  0
  151.4020  142.9591  157.0669 C   0  0  0  0  0  0  0  0  0  0  0  0
  151.9440  143.0172  158.4211 N   0  0  0  0  0  0  0  0  0  0  0  0
  152.5676  141.8500  159.0215 C   0  0  0  0  0  0  0  0  0  0  0  0
  152.8174  142.2412  160.4852 C   0  0  0  0  0  0  0  0  0  0  0  0
  152.6366  143.7620  160.5469 C   0  0  0  0  0  0  0  0  0  0  0  0
  151.9784  144.0919  159.2178 C   0  0  0  0  0  0  0  0  0  0  0  0
  151.5474  145.2117  158.9462 O   0  0  0  0  0  0  0  0  0  0  0  0
  146.3976  141.0951  155.0927 H   0  0  0  0  0  0  0  0  0  0  0  0
  147.2100  142.5207  154.4586 H   0  0  0  0  0  0  0  0  0  0  0  0
  146.8996  142.3672  156.1867 H   0  0  0  0  0  0  0  0  0  0  0  0
  148.4961  140.4456  156.3269 H   0  0  0  0  0  0  0  0  0  0  0  0
  148.0631  139.5693  154.0088 H   0  0  0  0  0  0  0  0  0  0  0  0
  148.9893  140.8885  153.3340 H   0  0  0  0  0  0  0  0  0  0  0  0
  149.4338  137.4753  153.8923 H   0  0  0  0  0  0  0  0  0  0  0  0
  152.0278  136.8439  154.4612 H   0  0  0  0  0  0  0  0  0  0  0  0
  153.1252  139.2930  155.1547 H   0  0  0  0  0  0  0  0  0  0  0  0
  149.2527  143.0243  155.4930 H   0  0  0  0  0  0  0  0  0  0  0  0
  149.4708  142.2567  157.7509 H   0  0  0  0  0  0  0  0  0  0  0  0
  150.5304  140.9782  157.1704 H   0  0  0  0  0  0  0  0  0  0  0  0
  152.1853  142.6380  156.3783 H   0  0  0  0  0  0  0  0  0  0  0  0
  151.1088  143.9631  156.7546 H   0  0  0  0  0  0  0  0  0  0  0  0
  151.9271  140.9707  158.9405 H   0  0  0  0  0  0  0  0  0  0  0  0
  153.5060  141.6392  158.5070 H   0  0  0  0  0  0  0  0  0  0  0  0
  152.0859  141.7556  161.1324 H   0  0  0  0  0  0  0  0  0  0  0  0
  153.8079  141.9335  160.8217 H   0  0  0  0  0  0  0  0  0  0  0  0
  152.0141  144.0697  161.3875 H   0  0  0  0  0  0  0  0  0  0  0  0
  153.5965  144.2750  160.6139 H   0  0  0  0  0  0  0  0  0  0  0  0
  1  2  1  0  0  0  0
  1 18  1  0  0  0  0
  1 19  1  0  0  0  0
  1 20  1  0  0  0  0
  2  3  1  0  0  0  0
  2  9  1  0  0  0  0
  2 21  1  0  0  0  0
  3  4  1  0  0  0  0
  3 22  1  0  0  0  0
  3 23  1  0  0  0  0
  4  8  1  0  0  0  0
  4  5  1  0  0  0  0
  5  6  2  0  0  0  0
  5 24  1  0  0  0  0
  6  7  1  0  0  0  0
  6 25  1  0  0  0  0
  7  8  2  0  0  0  0
  7 26  1  0  0  0  0
  9 10  1  0  0  0  0
  9 27  1  0  0  0  0
 10 11  1  0  0  0  0
 10 28  1  0  0  0  0
 10 29  1  0  0  0  0
 11 12  1  0  0  0  0
 11 30  1  0  0  0  0
 11 31  1  0  0  0  0
 12 16  1  0  0  0  0
 12 13  1  0  0  0  0
 13 14  1  0  0  0  0
 13 32  1  0  0  0  0
 13 33  1  0  0  0  0
 14 15  1  0  0  0  0
 14 34  1  0  0  0  0
 14 35  1  0  0  0  0
 15 16  1  0  0  0  0
 15 36  1  0  0  0  0
 15 37  1  0  0  0  0
 16 17  2  0  0  0  0
M  END
> <s_m_source_file>
AV-unprocessed.smi

> <i_m_source_file_index>
3140

> <i_lp_mmshare_version>
43012

> <i_f3d_flags>
0

> <s_epik_input>
bjFbY0hdW2NIXVtjSF1uMVtDSDJdW0NAQEhdKFtDSDNdKVtOSF1bQ0gyXVtDSDJdTjJbQ0gyXVtDSDJdW0NIMl1DMj1P

> <s_epik_cmdline>
J2VwaWtfcHl0aG9uJywgJy1waCcsICc3LjAnLCAnLXRuJywgJzgnLCAnLW1hJywgJzIwMCcsICctbWV0YWxfYmluZGluZycsICctaW1hZScsICc8aW5maWxlLm1hZT4nLCAnLW9tYWUnLCAnPG91dGZpbGUubWFlPic=

> <r_lp_tautomer_probability>
1

> <r_epik_Ionization_Penalty>
2.53587

> <r_epik_Ionization_Penalty_Charging>
0

> <r_epik_Ionization_Penalty_Neutral>
2.53587

> <r_epik_State_Penalty>
2.70334

> <r_epik_Charging_Adjusted_Penalty>
2.70334

> <i_epik_Tot_Q>
0

> <i_epik_Tot_abs_Q>
0

> <r_epik_Metal_State_Penalty>
2.7033

> <b_epik_Metal_Only>
0

> <s_lp_Force_Field>
OPLS_2005

> <r_lp_Energy>
20.5339

> <b_lp_Chiralities_Consistent>
1

> <s_lp_Variant>
AV-unprocessed.smi:3140-4

> <Gold.Version>
5.8.1

> <Gold.Id.Protein>
6NUR|6NUR_protein|mol2

> <Gold.PLP.Fitness>
48.9228

> <Gold.PLP.PLP>
-41.5949

> <Gold.PLP.part.hbond>
-2.3934

> <Gold.PLP.part.metal>
0.0000

> <Gold.PLP.part.buried>
-5.2254

> <Gold.PLP.part.nonpolar>
-35.5733

> <Gold.PLP.part.repulsive>
0.1885

> <Gold.PLP.ligand.clash>
0.0000

> <Gold.PLP.ligand.torsion>
0.8455

> <Gold.PLP.Chemscore.Hbond>
2.0000

> <Gold.PLP.Chemscore.CHOScore>
1.0000

> <Gold.PLP.Chemscore.Metal>
0.0000

> <Gold.Chemscore.Hbonds>
donor molecule, donor type, donor heavy atom, donor atom, acceptor molecule, acceptor atom, score
      L1  H     9    27       P1  8028  1.00
      P1  H  7989  7998       L1     8  1.00
      L1  C     5    24       P1  7948  1.00

> <Gold.PLP.Chemscore.Internal.Correction>
0.0189

> <Gold.Rescore>
     Score         DG    S(hbond)    S(metal)    S(lipo)     H(rot)  DE(clash)    DE(int)     intcor
     15.83     -16.75       1.93        0.00      84.45       1.97       0.05       0.87       ----

> <Gold.Chemscore.Fitness>
15.8340

> <Gold.Chemscore.DG>
-16.7461

> <Gold.Chemscore.ZeroCoef>
-5.4800

> <Gold.Chemscore.Hbond>
1.9263

> <Gold.Chemscore.Metal>
0.0000

> <Gold.Chemscore.Lipo>
84.4533

> <Gold.Chemscore.Internal_Hbond>
0.0000

> <Gold.Chemscore.DEClash>
0.0456

> <Gold.Chemscore.DEInternal>
0.8665

> <Gold.Chemscore.Rot>
1.9722

> <Gold.Chemscore.Internal.Correction>
   9.000000E+99

> <Gold.Chemscore.Hbonds>
donor molecule, donor type, donor heavy atom, donor atom, acceptor molecule, acceptor atom, score
      L1  H     9    27       P1  8028  1.00
      P1  H  7989  7998       L1     8  0.15

> <Gold.Chemscore.Hbond.Weighted>
-6.4339

> <Gold.Chemscore.Metal.Weighted>
-0.0000

> <Gold.Chemscore.Lipo.Weighted>
-9.8810

> <Gold.Chemscore.Internal_Hbond.Weighted>
0.0000

> <Gold.Chemscore.DEClash.Weighted>
0.0456

> <Gold.Chemscore.DEInternal.Weighted>
0.8665

> <Gold.Chemscore.Rot.Weighted>
5.0487

> <Gold.Chemscore.Internal.Correction.Weighted>
   9.000000E+99

> <Gold.Protein.RotatedTorsions>
[ 6907 6896 6895 6894 ] final  -92.42 input  -60.11 | X-H torsion
[ 7974 7965 7964 7962 ] final  -25.21 input  175.53 | X-H torsion
[ 8008 7997 7996 7995 ] final  105.49 input   59.86 | X-H torsion
[ 10167 10162 10161 10158 ] final   64.69 input  -65.29 | X-H torsion
[ 10718 10713 10712 10709 ] final  -45.94 input   66.30 | X-H torsion
[ 10763 10752 10751 10750 ] final   28.32 input  -60.55 | X-H torsion
[ 11005 11000 10999 10996 ] final -137.18 input  -57.11 | X-H torsion

> <Gold.Protein.ActiveResidues>
 VAL166  LYS551  ARG553  GLY616  TRP617  ASP618  TYR619  PRO620  LYS621  CYS622 
 ASP623  PHE694  ASN695  SER759  ASP760  ASP761  ALA762  ILE779  LEU786  VAL792 
 PHE793  MET794  SER795  GLU796  ALA797  LYS798  CYS799  TRP800  GLU811  SER814 

> <Gold.Protein.RotatedAtoms>
  150.6906  134.2124  159.4364 H   0  0  0  0  0  0  0  0  0  0  0  0  # atno 6907 bound_to 6896
  152.0085  134.9887  160.0576 H   0  0  0  0  0  0  0  0  0  0  0  0  # atno 6908 bound_to 6896
  152.1511  133.4488  159.4851 H   0  0  0  0  0  0  0  0  0  0  0  0  # atno 6909 bound_to 6896
  146.1506  140.4856  142.8613 H   0  0  0  0  0  0  0  0  0  0  0  0  # atno 7974 bound_to 7965
  156.1664  140.3129  155.8896 H   0  0  0  0  0  0  0  0  0  0  0  0  # atno 8008 bound_to 7997
  155.3678  140.0480  157.3063 H   0  0  0  0  0  0  0  0  0  0  0  0  # atno 8009 bound_to 7997
  154.5196  140.2193  155.9011 H   0  0  0  0  0  0  0  0  0  0  0  0  # atno 8010 bound_to 7997
  140.1195  144.4744  150.6929 H   0  0  0  0  0  0  0  0  0  0  0  0  # atno 10167 bound_to 10162
  156.2233  130.4167  149.8966 H   0  0  0  0  0  0  0  0  0  0  0  0  # atno 10718 bound_to 10713
  153.0499  135.6516  154.0720 H   0  0  0  0  0  0  0  0  0  0  0  0  # atno 10763 bound_to 10752
  154.0411  135.2903  155.3356 H   0  0  0  0  0  0  0  0  0  0  0  0  # atno 10764 bound_to 10752
  154.6781  135.5330  153.8293 H   0  0  0  0  0  0  0  0  0  0  0  0  # atno 10765 bound_to 10752
  140.8735  134.2021  157.4636 H   0  0  0  0  0  0  0  0  0  0  0  0  # atno 11005 bound_to 11000
  144.7899  140.6011  143.6549 LP  0  0  0  0  0  0  0  0  0  0  0  0  # atno 17320 bound_to 7965
  145.4833  139.1494  143.3750 LP  0  0  0  0  0  0  0  0  0  0  0  0  # atno 17321 bound_to 7965
  140.6880  143.2360  151.5208 LP  0  0  0  0  0  0  0  0  0  0  0  0  # atno 17342 bound_to 10162
  139.5576  144.2236  152.1638 LP  0  0  0  0  0  0  0  0  0  0  0  0  # atno 17343 bound_to 10162
  156.6605  130.8780  151.3546 LP  0  0  0  0  0  0  0  0  0  0  0  0  # atno 17370 bound_to 10713
  157.7098  130.9427  150.1051 LP  0  0  0  0  0  0  0  0  0  0  0  0  # atno 17371 bound_to 10713
  139.8714  134.9785  156.5000 LP  0  0  0  0  0  0  0  0  0  0  0  0  # atno 17394 bound_to 11000
  140.8545  133.8106  155.9202 LP  0  0  0  0  0  0  0  0  0  0  0  0  # atno 17395 bound_to 11000

$$$$
