AV-unprocessed.smi:1376|AV-procd|sdf|5591|dock8
  -GOLD-   22720 5193D 1   1.00000     0.00000
 Structure written by MMmdl.
 42 43  0  0  0  0  0  0  0  0  1 V2000
  148.9179  136.3021  158.1110 O   0  0  0  0  0  0  0  0  0  0  0  0
  147.9198  137.0095  158.2518 C   0  0  0  0  0  0  0  0  0  0  0  0
  146.6642  136.4611  158.9437 C   0  0  0  0  0  0  0  0  0  0  0  0
  146.9514  135.8415  160.2479 N   0  0  0  0  0  0  0  0  0  0  0  0
  147.4099  134.5090  160.2408 C   0  0  0  0  0  0  0  0  0  0  0  0
  147.6993  133.8518  161.3750 C   0  0  0  0  0  0  0  0  0  0  0  0
  147.5293  134.5464  162.6289 C   0  0  0  0  0  0  0  0  0  0  0  0
  147.0956  135.8225  162.6470 C   0  0  0  0  0  0  0  0  0  0  0  0
  146.7807  136.5459  161.4096 C   0  0  0  0  0  0  0  0  0  0  0  0
  146.3865  137.7126  161.4165 O   0  0  0  0  0  0  0  0  0  0  0  0
  147.8426  138.2724  157.8057 N   0  0  0  0  0  0  0  0  0  0  0  0
  148.9145  138.9998  157.1328 C   0  0  1  0  0  0  0  0  0  0  0  0
  148.4753  139.4192  155.7159 C   0  0  0  0  0  0  0  0  0  0  0  0
  149.5572  140.2607  155.0208 C   0  0  0  0  0  0  0  0  0  0  0  0
  149.9424  141.4826  155.8691 C   0  0  0  0  0  0  0  0  0  0  0  0
  150.4012  141.0653  157.2767 C   0  0  1  0  0  0  0  0  0  0  0  0
  150.6718  142.2552  158.0063 O   0  0  0  0  0  0  0  0  0  0  0  0
  151.5460  143.1641  157.3504 C   0  0  0  0  0  0  0  0  0  0  0  0
  152.1967  144.0833  158.3907 C   0  0  0  0  0  0  0  0  0  0  0  0
  152.9088  143.3473  159.2432 F   0  0  0  0  0  0  0  0  0  0  0  0
  153.0109  144.9522  157.7923 F   0  0  0  0  0  0  0  0  0  0  0  0
  151.2611  144.7428  159.0731 F   0  0  0  0  0  0  0  0  0  0  0  0
  149.3081  140.2286  157.9735 C   0  0  0  0  0  0  0  0  0  0  0  0
  145.9299  137.2600  159.0654 H   0  0  0  0  0  0  0  0  0  0  0  0
  146.1942  135.7423  158.2714 H   0  0  0  0  0  0  0  0  0  0  0  0
  147.5169  134.0635  159.2623 H   0  0  0  0  0  0  0  0  0  0  0  0
  148.0539  132.8319  161.3501 H   0  0  0  0  0  0  0  0  0  0  0  0
  147.7524  134.0415  163.5573 H   0  0  0  0  0  0  0  0  0  0  0  0
  146.9755  136.3265  163.5948 H   0  0  0  0  0  0  0  0  0  0  0  0
  146.9793  138.7738  157.9565 H   0  0  0  0  0  0  0  0  0  0  0  0
  149.7924  138.3554  157.0524 H   0  0  0  0  0  0  0  0  0  0  0  0
  148.2542  138.5376  155.1132 H   0  0  0  0  0  0  0  0  0  0  0  0
  147.5507  139.9958  155.7713 H   0  0  0  0  0  0  0  0  0  0  0  0
  150.4404  139.6458  154.8433 H   0  0  0  0  0  0  0  0  0  0  0  0
  149.2037  140.5844  154.0413 H   0  0  0  0  0  0  0  0  0  0  0  0
  150.7346  142.0431  155.3716 H   0  0  0  0  0  0  0  0  0  0  0  0
  149.0881  142.1568  155.9454 H   0  0  0  0  0  0  0  0  0  0  0  0
  151.3135  140.4740  157.1777 H   0  0  0  0  0  0  0  0  0  0  0  0
  152.3206  142.6296  156.8005 H   0  0  0  0  0  0  0  0  0  0  0  0
  150.9879  143.7627  156.6290 H   0  0  0  0  0  0  0  0  0  0  0  0
  148.4305  140.8535  158.1459 H   0  0  0  0  0  0  0  0  0  0  0  0
  149.6483  139.8973  158.9545 H   0  0  0  0  0  0  0  0  0  0  0  0
  1  2  2  0  0  0  0
  2  3  1  0  0  0  0
  2 11  1  0  0  0  0
  3  4  1  0  0  0  0
  3 24  1  0  0  0  0
  3 25  1  0  0  0  0
  4  9  1  0  0  0  0
  4  5  1  0  0  0  0
  5  6  2  0  0  0  0
  5 26  1  0  0  0  0
  6  7  1  0  0  0  0
  6 27  1  0  0  0  0
  7  8  2  0  0  0  0
  7 28  1  0  0  0  0
  8  9  1  0  0  0  0
  8 29  1  0  0  0  0
  9 10  2  0  0  0  0
 11 12  1  0  0  0  0
 11 30  1  0  0  0  0
 12 23  1  0  0  0  0
 12 13  1  0  0  0  0
 12 31  1  0  0  0  0
 13 14  1  0  0  0  0
 13 32  1  0  0  0  0
 13 33  1  0  0  0  0
 14 15  1  0  0  0  0
 14 34  1  0  0  0  0
 14 35  1  0  0  0  0
 15 16  1  0  0  0  0
 15 36  1  0  0  0  0
 15 37  1  0  0  0  0
 16 17  1  0  0  0  0
 16 23  1  0  0  0  0
 16 38  1  0  0  0  0
 17 18  1  0  0  0  0
 18 19  1  0  0  0  0
 18 39  1  0  0  0  0
 18 40  1  0  0  0  0
 19 20  1  0  0  0  0
 19 21  1  0  0  0  0
 19 22  1  0  0  0  0
 23 41  1  0  0  0  0
 23 42  1  0  0  0  0
M  END
> <s_m_source_file>
AV-unprocessed.smi

> <i_m_source_file_index>
1376

> <i_lp_mmshare_version>
43012

> <i_f3d_flags>
0

> <s_epik_input>
Tz1jMVtjSF1bY0hdW2NIXVtjSF1uMVtDSDJdQyg9TylbTkhdW0NAQEhdMltDSDJdW0NIMl1bQ0gyXVtDQEhdKFtDSDJdMilPW0NIMl1DKEYpKEYpRg==

> <s_epik_cmdline>
J2VwaWtfcHl0aG9uJywgJy1waCcsICc3LjAnLCAnLXRuJywgJzgnLCAnLW1hJywgJzIwMCcsICctbWV0YWxfYmluZGluZycsICctaW1hZScsICc8aW5maWxlLm1hZT4nLCAnLW9tYWUnLCAnPG91dGZpbGUubWFlPic=

> <r_lp_tautomer_probability>
1

> <r_epik_Ionization_Penalty>
4.08567e-07

> <r_epik_Ionization_Penalty_Charging>
3.90028e-07

> <r_epik_Ionization_Penalty_Neutral>
1.85393e-08

> <r_epik_State_Penalty>
-0

> <r_epik_Charging_Adjusted_Penalty>
3.90028e-07

> <i_epik_Tot_Q>
0

> <i_epik_Tot_abs_Q>
0

> <r_epik_Metal_State_Penalty>
-0

> <b_epik_Metal_Only>
0

> <s_lp_Force_Field>
OPLS_2005

> <r_lp_Energy>
18.2113

> <b_lp_Chiralities_Consistent>
1

> <s_lp_Variant>
AV-unprocessed.smi:1376-2

> <Gold.Version>
5.8.1

> <Gold.Id.Protein>
6NUR|6NUR_protein|mol2

> <Gold.PLP.Fitness>
43.8750

> <Gold.PLP.PLP>
-41.9598

> <Gold.PLP.part.hbond>
-0.8232

> <Gold.PLP.part.metal>
0.0000

> <Gold.PLP.part.buried>
-6.7873

> <Gold.PLP.part.nonpolar>
-34.6931

> <Gold.PLP.part.repulsive>
0.1789

> <Gold.PLP.ligand.clash>
0.0000

> <Gold.PLP.ligand.torsion>
0.5551

> <Gold.PLP.Chemscore.Hbond>
0.9920

> <Gold.PLP.Chemscore.CHOScore>
0.0000

> <Gold.PLP.Chemscore.Metal>
0.0000

> <Gold.Chemscore.Hbonds>
donor molecule, donor type, donor heavy atom, donor atom, acceptor molecule, acceptor atom, score
      P1  H  6934  6947       L1    10  1.00

> <Gold.PLP.Chemscore.Internal.Correction>
0.0495

> <Gold.Rescore>
     Score         DG    S(hbond)    S(metal)    S(lipo)     H(rot)  DE(clash)    DE(int)     intcor
     11.76     -12.27       0.94        0.00      78.88       2.18       0.03       0.47       ----

> <Gold.Chemscore.Fitness>
11.7620

> <Gold.Chemscore.DG>
-12.2693

> <Gold.Chemscore.ZeroCoef>
-5.4800

> <Gold.Chemscore.Hbond>
0.9401

> <Gold.Chemscore.Metal>
0.0000

> <Gold.Chemscore.Lipo>
78.8840

> <Gold.Chemscore.Internal_Hbond>
0.0000

> <Gold.Chemscore.DEClash>
0.0336

> <Gold.Chemscore.DEInternal>
0.4738

> <Gold.Chemscore.Rot>
2.1797

> <Gold.Chemscore.Internal.Correction>
   9.000000E+99

> <Gold.Chemscore.Hbonds>
donor molecule, donor type, donor heavy atom, donor atom, acceptor molecule, acceptor atom, score
      P1  H  6934  6947       L1    10  0.95

> <Gold.Chemscore.Hbond.Weighted>
-3.1401

> <Gold.Chemscore.Metal.Weighted>
-0.0000

> <Gold.Chemscore.Lipo.Weighted>
-9.2294

> <Gold.Chemscore.Internal_Hbond.Weighted>
0.0000

> <Gold.Chemscore.DEClash.Weighted>
0.0336

> <Gold.Chemscore.DEInternal.Weighted>
0.4738

> <Gold.Chemscore.Rot.Weighted>
5.5802

> <Gold.Chemscore.Internal.Correction.Weighted>
   9.000000E+99

> <Gold.Protein.RotatedTorsions>
[ 6907 6896 6895 6894 ] final   -5.94 input  -60.11 | X-H torsion
[ 7974 7965 7964 7962 ] final  -60.63 input  175.53 | X-H torsion
[ 8008 7997 7996 7995 ] final   27.72 input   59.86 | X-H torsion
[ 10167 10162 10161 10158 ] final   35.14 input  -65.29 | X-H torsion
[ 10718 10713 10712 10709 ] final  166.71 input   66.30 | X-H torsion
[ 10763 10752 10751 10750 ] final -110.58 input  -60.55 | X-H torsion
[ 11005 11000 10999 10996 ] final -109.02 input  -57.11 | X-H torsion

> <Gold.Protein.ActiveResidues>
 VAL166  LYS551  ARG553  GLY616  TRP617  ASP618  TYR619  PRO620  LYS621  CYS622 
 ASP623  PHE694  ASN695  SER759  ASP760  ASP761  ALA762  ILE779  LEU786  VAL792 
 PHE793  MET794  SER795  GLU796  ALA797  LYS798  CYS799  TRP800  GLU811  SER814 

> <Gold.Protein.RotatedAtoms>
  151.4735  135.1047  159.9757 H   0  0  0  0  0  0  0  0  0  0  0  0  # atno 6907 bound_to 6896
  152.4807  133.8244  159.7081 H   0  0  0  0  0  0  0  0  0  0  0  0  # atno 6908 bound_to 6896
  150.8877  133.7224  159.2940 H   0  0  0  0  0  0  0  0  0  0  0  0  # atno 6909 bound_to 6896
  145.8132  140.8586  143.0171 H   0  0  0  0  0  0  0  0  0  0  0  0  # atno 7974 bound_to 7965
  155.0474  140.3176  155.4704 H   0  0  0  0  0  0  0  0  0  0  0  0  # atno 8008 bound_to 7997
  156.2842  140.2152  156.5542 H   0  0  0  0  0  0  0  0  0  0  0  0  # atno 8009 bound_to 7997
  154.7239  140.0487  157.0652 H   0  0  0  0  0  0  0  0  0  0  0  0  # atno 8010 bound_to 7997
  140.4250  144.1406  150.6152 H   0  0  0  0  0  0  0  0  0  0  0  0  # atno 10167 bound_to 10162
  157.0620  131.0342  151.2643 H   0  0  0  0  0  0  0  0  0  0  0  0  # atno 10718 bound_to 10713
  154.8255  135.4559  154.0907 H   0  0  0  0  0  0  0  0  0  0  0  0  # atno 10763 bound_to 10752
  153.2224  135.6895  153.7991 H   0  0  0  0  0  0  0  0  0  0  0  0  # atno 10764 bound_to 10752
  153.7403  135.3313  155.3279 H   0  0  0  0  0  0  0  0  0  0  0  0  # atno 10765 bound_to 10752
  141.0870  133.9121  157.2163 H   0  0  0  0  0  0  0  0  0  0  0  0  # atno 11005 bound_to 11000
  144.6755  140.0425  143.7480 LP  0  0  0  0  0  0  0  0  0  0  0  0  # atno 17320 bound_to 7965
  145.9755  139.2901  143.1073 LP  0  0  0  0  0  0  0  0  0  0  0  0  # atno 17321 bound_to 7965
  140.4492  143.2494  151.9371 LP  0  0  0  0  0  0  0  0  0  0  0  0  # atno 17342 bound_to 10162
  139.4783  144.5579  151.8285 LP  0  0  0  0  0  0  0  0  0  0  0  0  # atno 17343 bound_to 10162
  157.4947  130.7843  149.7543 LP  0  0  0  0  0  0  0  0  0  0  0  0  # atno 17370 bound_to 10713
  155.9976  130.3899  150.2735 LP  0  0  0  0  0  0  0  0  0  0  0  0  # atno 17371 bound_to 10713
  139.9690  135.0134  156.9462 LP  0  0  0  0  0  0  0  0  0  0  0  0  # atno 17394 bound_to 11000
  140.5340  134.0785  155.7323 LP  0  0  0  0  0  0  0  0  0  0  0  0  # atno 17395 bound_to 11000

$$$$
