AV-unprocessed.smi:1054|AV-procd|sdf|4623|dock8
  -GOLD-   22720 3123D 1   1.00000     0.00000
 Structure written by MMmdl.
 35 36  0  0  0  0  0  0  0  0  1 V2000
  153.3438  140.5764  158.5987 O   0  0  0  0  0  0  0  0  0  0  0  0
  153.2692  140.6882  159.8224 C   0  0  0  0  0  0  0  0  0  0  0  0
  152.7266  141.7331  160.4720 N   0  0  0  0  0  0  0  0  0  0  0  0
  152.1403  142.9036  159.9210 C   0  0  0  0  0  0  0  0  0  0  0  0
  152.2632  144.0649  160.7171 C   0  0  0  0  0  0  0  0  0  0  0  0
  151.7152  145.2793  160.2608 C   0  0  0  0  0  0  0  0  0  0  0  0
  151.0573  145.3015  159.0182 C   0  0  0  0  0  0  0  0  0  0  0  0
  150.9796  144.1016  158.2877 C   0  0  0  0  0  0  0  0  0  0  0  0
  151.5037  142.9363  158.7234 N   0  0  0  0  0  0  0  0  0  0  0  0
  153.7276  139.7703  160.6908 N   0  0  0  0  0  0  0  0  0  0  0  0
  154.4085  138.4982  160.4042 C   0  0  0  0  0  0  0  0  0  0  0  0
  155.8996  138.7545  160.0450 C   0  0  0  0  0  0  0  0  0  0  0  0
  156.0376  139.4655  158.8304 O   0  0  0  0  0  0  0  0  0  0  0  0
  154.2638  137.6178  161.6705 C   0  0  0  0  0  0  0  0  0  0  0  0
  154.6407  136.1471  161.4235 C   0  0  0  0  0  0  0  0  0  0  0  0
  153.8508  135.6160  160.3687 O   0  0  0  0  0  0  0  0  0  0  0  0
  154.0722  136.2823  159.1335 C   0  0  0  0  0  0  0  0  0  0  0  0
  153.6762  137.7655  159.2489 C   0  0  0  0  0  0  0  0  0  0  0  0
  152.7374  141.6873  161.4798 H   0  0  0  0  0  0  0  0  0  0  0  0
  152.7719  144.0300  161.6696 H   0  0  0  0  0  0  0  0  0  0  0  0
  151.7984  146.1774  160.8550 H   0  0  0  0  0  0  0  0  0  0  0  0
  150.6237  146.2134  158.6350 H   0  0  0  0  0  0  0  0  0  0  0  0
  150.4836  144.0760  157.3287 H   0  0  0  0  0  0  0  0  0  0  0  0
  153.6100  139.9805  161.6709 H   0  0  0  0  0  0  0  0  0  0  0  0
  156.3973  139.3320  160.8230 H   0  0  0  0  0  0  0  0  0  0  0  0
  156.4558  137.8208  159.9647 H   0  0  0  0  0  0  0  0  0  0  0  0
  156.8963  139.8593  158.8100 H   0  0  0  0  0  0  0  0  0  0  0  0
  154.8523  138.0181  162.4966 H   0  0  0  0  0  0  0  0  0  0  0  0
  153.2266  137.6419  162.0094 H   0  0  0  0  0  0  0  0  0  0  0  0
  155.7016  136.0402  161.1942 H   0  0  0  0  0  0  0  0  0  0  0  0
  154.4553  135.5614  162.3238 H   0  0  0  0  0  0  0  0  0  0  0  0
  155.1131  136.1717  158.8279 H   0  0  0  0  0  0  0  0  0  0  0  0
  153.4701  135.7980  158.3646 H   0  0  0  0  0  0  0  0  0  0  0  0
  152.5986  137.8138  159.4137 H   0  0  0  0  0  0  0  0  0  0  0  0
  153.8588  138.2597  158.2947 H   0  0  0  0  0  0  0  0  0  0  0  0
  1  2  2  0  0  0  0
  2  3  1  0  0  0  0
  2 10  1  0  0  0  0
  3  4  1  0  0  0  0
  3 19  1  0  0  0  0
  4  9  1  0  0  0  0
  4  5  2  0  0  0  0
  5  6  1  0  0  0  0
  5 20  1  0  0  0  0
  6  7  2  0  0  0  0
  6 21  1  0  0  0  0
  7  8  1  0  0  0  0
  7 22  1  0  0  0  0
  8  9  2  0  0  0  0
  8 23  1  0  0  0  0
 10 11  1  0  0  0  0
 10 24  1  0  0  0  0
 11 18  1  0  0  0  0
 11 12  1  0  0  0  0
 11 14  1  0  0  0  0
 12 13  1  0  0  0  0
 12 25  1  0  0  0  0
 12 26  1  0  0  0  0
 13 27  1  0  0  0  0
 14 15  1  0  0  0  0
 14 28  1  0  0  0  0
 14 29  1  0  0  0  0
 15 16  1  0  0  0  0
 15 30  1  0  0  0  0
 15 31  1  0  0  0  0
 16 17  1  0  0  0  0
 17 18  1  0  0  0  0
 17 32  1  0  0  0  0
 17 33  1  0  0  0  0
 18 34  1  0  0  0  0
 18 35  1  0  0  0  0
M  END
> <s_m_source_file>
AV-unprocessed.smi

> <i_m_source_file_index>
1054

> <i_lp_mmshare_version>
43012

> <i_f3d_flags>
0

> <s_epik_input>
W0NIMl0xW0NIMl1PW0NIMl1bQ0gyXUMxKFtDSDJdW09IXSlbTkhdQyg9TylbTkhdYzJbY0hdW2NIXVtjSF1bY0hdbjI=

> <s_epik_cmdline>
J2VwaWtfcHl0aG9uJywgJy1waCcsICc3LjAnLCAnLXRuJywgJzgnLCAnLW1hJywgJzIwMCcsICctbWV0YWxfYmluZGluZycsICctaW1hZScsICc8aW5maWxlLm1hZT4nLCAnLW9tYWUnLCAnPG91dGZpbGUubWFlPic=

> <r_lp_tautomer_probability>
1

> <r_epik_Ionization_Penalty>
4.33411e-05

> <r_epik_Ionization_Penalty_Charging>
0

> <r_epik_Ionization_Penalty_Neutral>
4.33411e-05

> <r_epik_State_Penalty>
-0

> <r_epik_Charging_Adjusted_Penalty>
0

> <i_epik_Tot_Q>
0

> <i_epik_Tot_abs_Q>
0

> <r_epik_Metal_State_Penalty>
-0

> <b_epik_Metal_Only>
0

> <s_lp_Force_Field>
OPLS_2005

> <r_lp_Energy>
17.545

> <b_lp_Chiralities_Consistent>
1

> <s_lp_Variant>
AV-unprocessed.smi:1054-1

> <Gold.Version>
5.8.1

> <Gold.Id.Protein>
6NUR|6NUR_protein|mol2

> <Gold.PLP.Fitness>
38.6500

> <Gold.PLP.PLP>
-30.7990

> <Gold.PLP.part.hbond>
-3.0000

> <Gold.PLP.part.metal>
0.0000

> <Gold.PLP.part.buried>
-3.3130

> <Gold.PLP.part.nonpolar>
-24.4300

> <Gold.PLP.part.repulsive>
0.1616

> <Gold.PLP.ligand.clash>
0.0000

> <Gold.PLP.ligand.torsion>
0.5795

> <Gold.PLP.Chemscore.Hbond>
2.0000

> <Gold.PLP.Chemscore.CHOScore>
1.0000

> <Gold.PLP.Chemscore.Metal>
0.0000

> <Gold.Chemscore.Hbonds>
donor molecule, donor type, donor heavy atom, donor atom, acceptor molecule, acceptor atom, score
      P1  H  6896  6908       L1    16  1.00
      P1  H  7997  8008       L1    13  1.00
      L1  C     8    23       P1  8028  1.00

> <Gold.PLP.Chemscore.Internal.Correction>
0.0100

> <Gold.Rescore>
     Score         DG    S(hbond)    S(metal)    S(lipo)     H(rot)  DE(clash)    DE(int)     intcor
     12.31     -15.35       1.84        0.00      72.94       1.88       0.36       2.69       ----

> <Gold.Chemscore.Fitness>
12.3061

> <Gold.Chemscore.DG>
-15.3497

> <Gold.Chemscore.ZeroCoef>
-5.4800

> <Gold.Chemscore.Hbond>
1.8385

> <Gold.Chemscore.Metal>
0.0000

> <Gold.Chemscore.Lipo>
72.9385

> <Gold.Chemscore.Internal_Hbond>
0.0000

> <Gold.Chemscore.DEClash>
0.3559

> <Gold.Chemscore.DEInternal>
2.6877

> <Gold.Chemscore.Rot>
1.8769

> <Gold.Chemscore.Internal.Correction>
   9.000000E+99

> <Gold.Chemscore.Hbonds>
donor molecule, donor type, donor heavy atom, donor atom, acceptor molecule, acceptor atom, score
      P1  H  6896  6908       L1    16  0.30
      P1  H  7997  8008       L1    13  0.25

> <Gold.Chemscore.Hbond.Weighted>
-6.1407

> <Gold.Chemscore.Metal.Weighted>
-0.0000

> <Gold.Chemscore.Lipo.Weighted>
-8.5338

> <Gold.Chemscore.Internal_Hbond.Weighted>
0.0000

> <Gold.Chemscore.DEClash.Weighted>
0.3559

> <Gold.Chemscore.DEInternal.Weighted>
2.6877

> <Gold.Chemscore.Rot.Weighted>
4.8048

> <Gold.Chemscore.Internal.Correction.Weighted>
   9.000000E+99

> <Gold.Protein.RotatedTorsions>
[ 6907 6896 6895 6894 ] final  -68.35 input  -60.11 | X-H torsion
[ 7974 7965 7964 7962 ] final  -75.20 input  175.53 | X-H torsion
[ 8008 7997 7996 7995 ] final -136.36 input   59.86 | X-H torsion
[ 10167 10162 10161 10158 ] final    7.02 input  -65.29 | X-H torsion
[ 10718 10713 10712 10709 ] final  -21.19 input   66.30 | X-H torsion
[ 10763 10752 10751 10750 ] final -133.23 input  -60.55 | X-H torsion
[ 11005 11000 10999 10996 ] final   27.83 input  -57.11 | X-H torsion

> <Gold.Protein.ActiveResidues>
 VAL166  LYS551  ARG553  GLY616  TRP617  ASP618  TYR619  PRO620  LYS621  CYS622 
 ASP623  PHE694  ASN695  SER759  ASP760  ASP761  ALA762  ILE779  LEU786  VAL792 
 PHE793  MET794  SER795  GLU796  ALA797  LYS798  CYS799  TRP800  GLU811  SER814 

> <Gold.Protein.RotatedAtoms>
  150.7361  134.5752  159.5910 H   0  0  0  0  0  0  0  0  0  0  0  0  # atno 6907 bound_to 6896
  152.3180  134.7412  160.0329 H   0  0  0  0  0  0  0  0  0  0  0  0  # atno 6908 bound_to 6896
  151.7937  133.3326  159.3543 H   0  0  0  0  0  0  0  0  0  0  0  0  # atno 6909 bound_to 6896
  145.6291  140.9342  143.1097 H   0  0  0  0  0  0  0  0  0  0  0  0  # atno 7974 bound_to 7965
  155.3939  140.0501  157.3039 H   0  0  0  0  0  0  0  0  0  0  0  0  # atno 8008 bound_to 7997
  154.5023  140.2161  155.9283 H   0  0  0  0  0  0  0  0  0  0  0  0  # atno 8009 bound_to 7997
  156.1482  140.3141  155.8611 H   0  0  0  0  0  0  0  0  0  0  0  0  # atno 8010 bound_to 7997
  140.6395  143.7807  150.7408 H   0  0  0  0  0  0  0  0  0  0  0  0  # atno 10167 bound_to 10162
  156.5216  130.4634  149.6594 H   0  0  0  0  0  0  0  0  0  0  0  0  # atno 10718 bound_to 10713
  154.8735  135.3773  154.4538 H   0  0  0  0  0  0  0  0  0  0  0  0  # atno 10763 bound_to 10752
  153.5212  135.7029  153.5735 H   0  0  0  0  0  0  0  0  0  0  0  0  # atno 10764 bound_to 10752
  153.3981  135.3955  155.1935 H   0  0  0  0  0  0  0  0  0  0  0  0  # atno 10765 bound_to 10752
  140.3221  134.2532  155.7715 H   0  0  0  0  0  0  0  0  0  0  0  0  # atno 11005 bound_to 11000
  144.7201  139.8061  143.7385 LP  0  0  0  0  0  0  0  0  0  0  0  0  # atno 17320 bound_to 7965
  146.1371  139.4419  143.0132 LP  0  0  0  0  0  0  0  0  0  0  0  0  # atno 17321 bound_to 7965
  140.1435  143.4420  152.2178 LP  0  0  0  0  0  0  0  0  0  0  0  0  # atno 17342 bound_to 10162
  139.5605  144.7402  151.4170 LP  0  0  0  0  0  0  0  0  0  0  0  0  # atno 17343 bound_to 10162
  156.3144  130.7246  151.2146 LP  0  0  0  0  0  0  0  0  0  0  0  0  # atno 17370 bound_to 10713
  157.7436  131.0472  150.4934 LP  0  0  0  0  0  0  0  0  0  0  0  0  # atno 17371 bound_to 10713
  141.2084  133.7779  157.0061 LP  0  0  0  0  0  0  0  0  0  0  0  0  # atno 17394 bound_to 11000
  140.0933  134.9579  157.1810 LP  0  0  0  0  0  0  0  0  0  0  0  0  # atno 17395 bound_to 11000

$$$$
