AV-unprocessed.smi:978|AV-procd|sdf|4309|dock3
  -GOLD-   22720 2213D 1   1.00000     0.00000
 Structure written by MMmdl.
 39 40  0  0  0  0  0  0  0  0  2 V2000
  150.4289  134.6368  156.1857 C   0  0  0  0  0  0  0  0  0  0  0  0
  151.2643  135.8812  156.0673 C   0  0  0  0  0  0  0  0  0  0  0  0
  152.3330  136.0139  156.8391 N   0  0  0  0  0  0  0  0  0  0  0  0
  152.8718  137.2810  156.5681 O   0  0  0  0  0  0  0  0  0  0  0  0
  152.1068  137.8918  155.6261 C   0  0  0  0  0  0  0  0  0  0  0  0
  152.5110  139.2662  155.2115 C   0  0  0  0  0  0  0  0  0  0  0  0
  151.1026  137.0451  155.2593 C   0  0  0  0  0  0  0  0  0  0  0  0
  150.0920  137.3546  154.3150 N   0  0  0  0  0  0  0  0  0  0  0  0
  149.2165  138.3691  154.3792 C   0  0  0  0  0  0  0  0  0  0  0  0
  149.1469  139.1825  155.2999 O   0  0  0  0  0  0  0  0  0  0  0  0
  148.3985  138.3787  153.3169 N   0  0  0  0  0  0  0  0  0  0  0  0
  147.3104  139.3315  153.0988 C   0  0  2  0  0  0  0  0  0  0  0  0
  146.2085  139.1417  154.1566 C   0  0  0  0  0  0  0  0  0  0  0  0
  145.4067  137.8465  153.9314 C   0  0  0  0  0  0  0  0  0  0  0  0
  144.8415  137.7985  152.5600 N   0  3  2  0  0  0  0  0  0  0  0  0
  143.9640  136.6264  152.3532 C   0  0  0  0  0  0  0  0  0  0  0  0
  145.8944  137.9057  151.5199 C   0  0  0  0  0  0  0  0  0  0  0  0
  146.7049  139.2034  151.6857 C   0  0  0  0  0  0  0  0  0  0  0  0
  149.3715  134.8564  156.0376 H   0  0  0  0  0  0  0  0  0  0  0  0
  150.5300  134.1801  157.1706 H   0  0  0  0  0  0  0  0  0  0  0  0
  150.7262  133.8935  155.4458 H   0  0  0  0  0  0  0  0  0  0  0  0
  151.7579  139.7204  154.5677 H   0  0  0  0  0  0  0  0  0  0  0  0
  153.4527  139.2409  154.6631 H   0  0  0  0  0  0  0  0  0  0  0  0
  152.6429  139.9094  156.0818 H   0  0  0  0  0  0  0  0  0  0  0  0
  149.9608  136.6842  153.5718 H   0  0  0  0  0  0  0  0  0  0  0  0
  148.5258  137.6624  152.6172 H   0  0  0  0  0  0  0  0  0  0  0  0
  147.7197  140.3369  153.2154 H   0  0  0  0  0  0  0  0  0  0  0  0
  146.6395  139.1477  155.1586 H   0  0  0  0  0  0  0  0  0  0  0  0
  145.5264  139.9922  154.1168 H   0  0  0  0  0  0  0  0  0  0  0  0
  146.0406  136.9739  154.0968 H   0  0  0  0  0  0  0  0  0  0  0  0
  144.5977  137.7909  154.6610 H   0  0  0  0  0  0  0  0  0  0  0  0
  144.5283  135.6962  152.4326 H   0  0  0  0  0  0  0  0  0  0  0  0
  143.4995  136.6626  151.3672 H   0  0  0  0  0  0  0  0  0  0  0  0
  143.1655  136.6069  153.0955 H   0  0  0  0  0  0  0  0  0  0  0  0
  146.5537  137.0379  151.5732 H   0  0  0  0  0  0  0  0  0  0  0  0
  145.4335  137.8914  150.5316 H   0  0  0  0  0  0  0  0  0  0  0  0
  146.0493  140.0557  151.5024 H   0  0  0  0  0  0  0  0  0  0  0  0
  147.4840  139.2577  150.9245 H   0  0  0  0  0  0  0  0  0  0  0  0
  144.2551  138.6152  152.4613 H   0  0  0  0  0  0  0  0  0  0  0  0
  1  2  1  0  0  0  0
  1 19  1  0  0  0  0
  1 20  1  0  0  0  0
  1 21  1  0  0  0  0
  2  7  1  0  0  0  0
  2  3  2  0  0  0  0
  3  4  1  0  0  0  0
  4  5  1  0  0  0  0
  5  6  1  0  0  0  0
  5  7  2  0  0  0  0
  6 22  1  0  0  0  0
  6 23  1  0  0  0  0
  6 24  1  0  0  0  0
  7  8  1  0  0  0  0
  8  9  1  0  0  0  0
  8 25  1  0  0  0  0
  9 10  2  0  0  0  0
  9 11  1  0  0  0  0
 11 12  1  0  0  0  0
 11 26  1  0  0  0  0
 12 18  1  0  0  0  0
 12 13  1  0  0  0  0
 12 27  1  0  0  0  0
 13 14  1  0  0  0  0
 13 28  1  0  0  0  0
 13 29  1  0  0  0  0
 14 15  1  0  0  0  0
 14 30  1  0  0  0  0
 14 31  1  0  0  0  0
 15 16  1  0  0  0  0
 15 17  1  0  0  0  0
 15 39  1  0  0  0  0
 16 32  1  0  0  0  0
 16 33  1  0  0  0  0
 16 34  1  0  0  0  0
 17 18  1  0  0  0  0
 17 35  1  0  0  0  0
 17 36  1  0  0  0  0
 18 37  1  0  0  0  0
 18 38  1  0  0  0  0
M  CHG  1  15   1
M  END
> <s_m_source_file>
AV-unprocessed.smi

> <i_m_source_file_index>
978

> <i_lp_mmshare_version>
43012

> <i_f3d_flags>
0

> <s_epik_input>
W0NIM11jMW5vYyhbQ0gzXSljMVtOSF1DKD1PKVtOSF1bQ0hdMltDSDJdW0NIMl1OKFtDSDNdKVtDSDJdW0NIMl0y

> <s_epik_cmdline>
J2VwaWtfcHl0aG9uJywgJy1waCcsICc3LjAnLCAnLXRuJywgJzgnLCAnLW1hJywgJzIwMCcsICctbWV0YWxfYmluZGluZycsICctaW1hZScsICc8aW5maWxlLm1hZT4nLCAnLW9tYWUnLCAnPG91dGZpbGUubWFlPic=

> <r_epik_Ionization_Penalty>
0.00369783

> <r_epik_Ionization_Penalty_Charging>
0.00366825

> <r_epik_Ionization_Penalty_Neutral>
2.95799e-05

> <r_epik_State_Penalty>
0.00261101

> <r_epik_Charging_Adjusted_Penalty>
0.00627926

> <i_epik_Tot_Q>
1

> <i_epik_Tot_abs_Q>
1

> <r_epik_Metal_State_Penalty>
-0

> <b_epik_Metal_Only>
0

> <s_lp_Force_Field>
OPLS_2005

> <r_lp_Energy>
17.545

> <b_lp_Chiralities_Consistent>
1

> <s_lp_Variant>
AV-unprocessed.smi:978-2

> <Gold.Version>
5.8.1

> <Gold.Id.Protein>
6NUR|6NUR_protein|mol2

> <Gold.PLP.Fitness>
37.2858

> <Gold.PLP.PLP>
-26.4363

> <Gold.PLP.part.hbond>
-6.4637

> <Gold.PLP.part.metal>
0.0000

> <Gold.PLP.part.buried>
4.3263

> <Gold.PLP.part.nonpolar>
-25.1113

> <Gold.PLP.part.repulsive>
0.1511

> <Gold.PLP.ligand.clash>
0.0000

> <Gold.PLP.ligand.torsion>
0.6258

> <Gold.PLP.Chemscore.Hbond>
3.9440

> <Gold.PLP.Chemscore.CHOScore>
0.0000

> <Gold.PLP.Chemscore.Metal>
0.0000

> <Gold.Chemscore.Hbonds>
donor molecule, donor type, donor heavy atom, donor atom, acceptor molecule, acceptor atom, score
      L1  H     8    25       P1  7948  0.90
      L1  H    11    26       P1  7948  1.00
      L1  H    15    39       P1 10175  2.00

> <Gold.PLP.Chemscore.Internal.Correction>
0.2691

> <Gold.Rescore>
     Score         DG    S(hbond)    S(metal)    S(lipo)     H(rot)  DE(clash)    DE(int)     intcor
     16.52     -18.44       2.41        0.00      63.76       1.00       1.35       0.57       ----

> <Gold.Chemscore.Fitness>
16.5167

> <Gold.Chemscore.DG>
-18.4374

> <Gold.Chemscore.ZeroCoef>
-5.4800

> <Gold.Chemscore.Hbond>
2.4125

> <Gold.Chemscore.Metal>
0.0000

> <Gold.Chemscore.Lipo>
63.7576

> <Gold.Chemscore.Internal_Hbond>
0.0000

> <Gold.Chemscore.DEClash>
1.3462

> <Gold.Chemscore.DEInternal>
0.5745

> <Gold.Chemscore.Rot>
1.0000

> <Gold.Chemscore.Internal.Correction>
   9.000000E+99

> <Gold.Chemscore.Hbonds>
donor molecule, donor type, donor heavy atom, donor atom, acceptor molecule, acceptor atom, score
      L1  H     8    25       P1  7948  0.19
      L1  H    11    26       P1  7948  1.00
      L1  H    15    39       P1 10175  0.99

> <Gold.Chemscore.Hbond.Weighted>
-8.0578

> <Gold.Chemscore.Metal.Weighted>
-0.0000

> <Gold.Chemscore.Lipo.Weighted>
-7.4596

> <Gold.Chemscore.Internal_Hbond.Weighted>
0.0000

> <Gold.Chemscore.DEClash.Weighted>
1.3462

> <Gold.Chemscore.DEInternal.Weighted>
0.5745

> <Gold.Chemscore.Rot.Weighted>
2.5600

> <Gold.Chemscore.Internal.Correction.Weighted>
   9.000000E+99

> <Gold.Protein.RotatedTorsions>
[ 6907 6896 6895 6894 ] final -158.69 input  -60.11 | X-H torsion
[ 7974 7965 7964 7962 ] final   15.50 input  175.53 | X-H torsion
[ 8008 7997 7996 7995 ] final  -92.03 input   59.86 | X-H torsion
[ 10167 10162 10161 10158 ] final -123.03 input  -65.29 | X-H torsion
[ 10718 10713 10712 10709 ] final   31.08 input   66.30 | X-H torsion
[ 10763 10752 10751 10750 ] final -163.07 input  -60.55 | X-H torsion
[ 11005 11000 10999 10996 ] final -142.80 input  -57.11 | X-H torsion

> <Gold.Protein.ActiveResidues>
 VAL166  LYS551  ARG553  GLY616  TRP617  ASP618  TYR619  PRO620  LYS621  CYS622 
 ASP623  PHE694  ASN695  SER759  ASP760  ASP761  ALA762  ILE779  LEU786  VAL792 
 PHE793  MET794  SER795  GLU796  ALA797  LYS798  CYS799  TRP800  GLU811  SER814 

> <Gold.Protein.RotatedAtoms>
  151.3220  133.4036  159.2655 H   0  0  0  0  0  0  0  0  0  0  0  0  # atno 6907 bound_to 6896
  151.0026  134.9335  159.7973 H   0  0  0  0  0  0  0  0  0  0  0  0  # atno 6908 bound_to 6896
  152.5279  134.3185  159.9192 H   0  0  0  0  0  0  0  0  0  0  0  0  # atno 6909 bound_to 6896
  146.2276  139.8885  142.8559 H   0  0  0  0  0  0  0  0  0  0  0  0  # atno 7974 bound_to 7965
  154.7180  140.0513  157.0613 H   0  0  0  0  0  0  0  0  0  0  0  0  # atno 8008 bound_to 7997
  155.0465  140.3174  155.4687 H   0  0  0  0  0  0  0  0  0  0  0  0  # atno 8009 bound_to 7997
  156.2808  140.2123  156.5590 H   0  0  0  0  0  0  0  0  0  0  0  0  # atno 8010 bound_to 7997
  140.0079  143.5472  152.2276 H   0  0  0  0  0  0  0  0  0  0  0  0  # atno 10167 bound_to 10162
  157.2679  130.7193  149.6488 H   0  0  0  0  0  0  0  0  0  0  0  0  # atno 10718 bound_to 10713
  154.7156  135.3015  154.9128 H   0  0  0  0  0  0  0  0  0  0  0  0  # atno 10763 bound_to 10752
  154.0016  135.6706  153.4763 H   0  0  0  0  0  0  0  0  0  0  0  0  # atno 10764 bound_to 10752
  153.0791  135.5019  154.8381 H   0  0  0  0  0  0  0  0  0  0  0  0  # atno 10765 bound_to 10752
  140.8189  134.2655  157.4909 H   0  0  0  0  0  0  0  0  0  0  0  0  # atno 11005 bound_to 11000
  145.2441  141.0020  143.3919 LP  0  0  0  0  0  0  0  0  0  0  0  0  # atno 17320 bound_to 7965
  144.9428  139.4170  143.6441 LP  0  0  0  0  0  0  0  0  0  0  0  0  # atno 17321 bound_to 7965
  139.6226  144.7631  151.2708 LP  0  0  0  0  0  0  0  0  0  0  0  0  # atno 17342 bound_to 10162
  140.7393  143.6622  150.8154 LP  0  0  0  0  0  0  0  0  0  0  0  0  # atno 17343 bound_to 10162
  155.9663  130.4377  150.5186 LP  0  0  0  0  0  0  0  0  0  0  0  0  # atno 17370 bound_to 10713
  157.3104  131.0662  151.2005 LP  0  0  0  0  0  0  0  0  0  0  0  0  # atno 17371 bound_to 10713
  139.8709  134.9524  156.4115 LP  0  0  0  0  0  0  0  0  0  0  0  0  # atno 17394 bound_to 11000
  140.9119  133.7705  155.9802 LP  0  0  0  0  0  0  0  0  0  0  0  0  # atno 17395 bound_to 11000

$$$$
