AV-unprocessed.smi:1665|AV-procd|sdf|6670|dock9
  -GOLD-   22720 7383D 1   1.00000     0.00000
 Structure written by MMmdl.
 37 38  0  0  0  0  0  0  0  0  1 V2000
  148.1011  136.5113  157.2037 C   0  0  0  0  0  0  0  0  0  0  0  0
  148.1993  136.9216  158.6821 C   0  0  1  0  0  0  0  0  0  0  0  0
  148.4209  135.7276  159.6355 C   0  0  0  0  0  0  0  0  0  0  0  0
  147.7393  135.8845  160.9077 N   0  0  0  0  0  0  0  0  0  0  0  0
  147.4413  134.9191  161.8466 C   0  0  0  0  0  0  0  0  0  0  0  0
  146.8020  135.5417  162.8803 C   0  0  0  0  0  0  0  0  0  0  0  0
  146.7591  136.9062  162.4786 C   0  0  0  0  0  0  0  0  0  0  0  0
  147.3240  137.1086  161.2994 N   0  0  0  0  0  0  0  0  0  0  0  0
  149.2785  137.8918  158.8347 N   0  0  0  0  0  0  0  0  0  0  0  0
  150.5892  137.6136  158.7603 C   0  0  0  0  0  0  0  0  0  0  0  0
  151.0360  136.5012  158.4823 O   0  0  0  0  0  0  0  0  0  0  0  0
  151.5472  138.7667  159.0661 C   0  0  0  0  0  0  0  0  0  0  0  0
  151.4520  139.9245  158.0488 C   0  0  0  0  0  0  0  0  0  0  0  0
  151.7914  141.2222  158.6383 N   0  0  0  0  0  0  0  0  0  0  0  0
  152.4162  141.2633  159.9526 C   0  0  0  0  0  0  0  0  0  0  0  0
  152.9935  142.6670  160.1439 C   0  0  0  0  0  0  0  0  0  0  0  0
  152.0568  143.7879  159.0842 S   0  0  0  0  0  0  0  0  0  0  0  0
  151.4452  142.4402  158.0665 C   0  0  0  0  0  0  0  0  0  0  0  0
  150.8253  142.6360  157.0228 O   0  0  0  0  0  0  0  0  0  0  0  0
  147.2498  135.8534  157.0270 H   0  0  0  0  0  0  0  0  0  0  0  0
  149.0005  135.9894  156.8758 H   0  0  0  0  0  0  0  0  0  0  0  0
  147.9712  137.3856  156.5642 H   0  0  0  0  0  0  0  0  0  0  0  0
  147.2562  137.4059  158.9433 H   0  0  0  0  0  0  0  0  0  0  0  0
  148.0708  134.8049  159.1704 H   0  0  0  0  0  0  0  0  0  0  0  0
  149.4850  135.5909  159.8347 H   0  0  0  0  0  0  0  0  0  0  0  0
  147.7045  133.8816  161.7018 H   0  0  0  0  0  0  0  0  0  0  0  0
  146.4239  135.0915  163.7862 H   0  0  0  0  0  0  0  0  0  0  0  0
  146.3390  137.7502  163.0057 H   0  0  0  0  0  0  0  0  0  0  0  0
  149.0089  138.8373  159.0643 H   0  0  0  0  0  0  0  0  0  0  0  0
  151.3077  139.1432  160.0610 H   0  0  0  0  0  0  0  0  0  0  0  0
  152.5726  138.3975  159.1219 H   0  0  0  0  0  0  0  0  0  0  0  0
  152.0886  139.7228  157.1853 H   0  0  0  0  0  0  0  0  0  0  0  0
  150.4354  139.9745  157.6565 H   0  0  0  0  0  0  0  0  0  0  0  0
  151.6513  141.0621  160.7039 H   0  0  0  0  0  0  0  0  0  0  0  0
  153.1885  140.4996  160.0522 H   0  0  0  0  0  0  0  0  0  0  0  0
  152.9631  142.9881  161.1854 H   0  0  0  0  0  0  0  0  0  0  0  0
  154.0340  142.6886  159.8181 H   0  0  0  0  0  0  0  0  0  0  0  0
  1  2  1  0  0  0  0
  1 20  1  0  0  0  0
  1 21  1  0  0  0  0
  1 22  1  0  0  0  0
  2  3  1  0  0  0  0
  2  9  1  0  0  0  0
  2 23  1  0  0  0  0
  3  4  1  0  0  0  0
  3 24  1  0  0  0  0
  3 25  1  0  0  0  0
  4  8  1  0  0  0  0
  4  5  1  0  0  0  0
  5  6  2  0  0  0  0
  5 26  1  0  0  0  0
  6  7  1  0  0  0  0
  6 27  1  0  0  0  0
  7  8  2  0  0  0  0
  7 28  1  0  0  0  0
  9 10  1  0  0  0  0
  9 29  1  0  0  0  0
 10 11  2  0  0  0  0
 10 12  1  0  0  0  0
 12 13  1  0  0  0  0
 12 30  1  0  0  0  0
 12 31  1  0  0  0  0
 13 14  1  0  0  0  0
 13 32  1  0  0  0  0
 13 33  1  0  0  0  0
 14 18  1  0  0  0  0
 14 15  1  0  0  0  0
 15 16  1  0  0  0  0
 15 34  1  0  0  0  0
 15 35  1  0  0  0  0
 16 17  1  0  0  0  0
 16 36  1  0  0  0  0
 16 37  1  0  0  0  0
 17 18  1  0  0  0  0
 18 19  2  0  0  0  0
M  END
> <s_m_source_file>
AV-unprocessed.smi

> <i_m_source_file_index>
1665

> <i_lp_mmshare_version>
43012

> <i_f3d_flags>
0

> <s_epik_input>
bjFbY0hdW2NIXVtjSF1uMVtDSDJdW0NAQEhdKFtDSDNdKVtOSF1DKD1PKVtDSDJdW0NIMl1OMltDSDJdW0NIMl1TQzI9Tw==

> <s_epik_cmdline>
J2VwaWtfcHl0aG9uJywgJy1waCcsICc3LjAnLCAnLXRuJywgJzgnLCAnLW1hJywgJzIwMCcsICctbWV0YWxfYmluZGluZycsICctaW1hZScsICc8aW5maWxlLm1hZT4nLCAnLW9tYWUnLCAnPG91dGZpbGUubWFlPic=

> <r_lp_tautomer_probability>
1

> <r_epik_Ionization_Penalty>
0.000300775

> <r_epik_Ionization_Penalty_Charging>
0

> <r_epik_Ionization_Penalty_Neutral>
0.000300775

> <r_epik_State_Penalty>
-0

> <r_epik_Charging_Adjusted_Penalty>
0

> <i_epik_Tot_Q>
0

> <i_epik_Tot_abs_Q>
0

> <r_epik_Metal_State_Penalty>
-0

> <b_epik_Metal_Only>
0

> <s_lp_Force_Field>
OPLS_2005

> <r_lp_Energy>
3.63181

> <b_lp_Chiralities_Consistent>
1

> <s_lp_Variant>
AV-unprocessed.smi:1665-2

> <Gold.Version>
5.8.1

> <Gold.Id.Protein>
6NUR|6NUR_protein|mol2

> <Gold.PLP.Fitness>
45.5049

> <Gold.PLP.PLP>
-40.1526

> <Gold.PLP.part.hbond>
-3.0000

> <Gold.PLP.part.metal>
0.0000

> <Gold.PLP.part.buried>
-5.4575

> <Gold.PLP.part.nonpolar>
-31.8932

> <Gold.PLP.part.repulsive>
0.3361

> <Gold.PLP.ligand.clash>
0.0000

> <Gold.PLP.ligand.torsion>
1.1819

> <Gold.PLP.Chemscore.Hbond>
2.5520

> <Gold.PLP.Chemscore.CHOScore>
0.0000

> <Gold.PLP.Chemscore.Metal>
0.0000

> <Gold.Chemscore.Hbonds>
donor molecule, donor type, donor heavy atom, donor atom, acceptor molecule, acceptor atom, score
      P1  H  6896  6907       L1    11  0.77
      P1  H  6931  6943       L1     8  0.67
      P1  H  6934  6947       L1     8  1.00

> <Gold.PLP.Chemscore.Internal.Correction>
0.0601

> <Gold.Rescore>
     Score         DG    S(hbond)    S(metal)    S(lipo)     H(rot)  DE(clash)    DE(int)     intcor
     14.23     -16.67       2.26        0.00      79.46       2.20       0.07       2.38       ----

> <Gold.Chemscore.Fitness>
14.2274

> <Gold.Chemscore.DG>
-16.6721

> <Gold.Chemscore.ZeroCoef>
-5.4800

> <Gold.Chemscore.Hbond>
2.2559

> <Gold.Chemscore.Metal>
0.0000

> <Gold.Chemscore.Lipo>
79.4553

> <Gold.Chemscore.Internal_Hbond>
0.0000

> <Gold.Chemscore.DEClash>
0.0657

> <Gold.Chemscore.DEInternal>
2.3790

> <Gold.Chemscore.Rot>
2.2026

> <Gold.Chemscore.Internal.Correction>
   9.000000E+99

> <Gold.Chemscore.Hbonds>
donor molecule, donor type, donor heavy atom, donor atom, acceptor molecule, acceptor atom, score
      P1  H  6896  6907       L1    11  0.76
      P1  H  6931  6943       L1     8  0.11
      P1  H  6934  6947       L1     8  0.52

> <Gold.Chemscore.Hbond.Weighted>
-7.5346

> <Gold.Chemscore.Metal.Weighted>
-0.0000

> <Gold.Chemscore.Lipo.Weighted>
-9.2963

> <Gold.Chemscore.Internal_Hbond.Weighted>
0.0000

> <Gold.Chemscore.DEClash.Weighted>
0.0657

> <Gold.Chemscore.DEInternal.Weighted>
2.3790

> <Gold.Chemscore.Rot.Weighted>
5.6387

> <Gold.Chemscore.Internal.Correction.Weighted>
   9.000000E+99

> <Gold.Protein.RotatedTorsions>
[ 6907 6896 6895 6894 ] final  -32.78 input  -60.11 | X-H torsion
[ 7974 7965 7964 7962 ] final  172.39 input  175.53 | X-H torsion
[ 8008 7997 7996 7995 ] final  142.81 input   59.86 | X-H torsion
[ 10167 10162 10161 10158 ] final  136.44 input  -65.29 | X-H torsion
[ 10718 10713 10712 10709 ] final  169.84 input   66.30 | X-H torsion
[ 10763 10752 10751 10750 ] final -169.61 input  -60.55 | X-H torsion
[ 11005 11000 10999 10996 ] final -138.93 input  -57.11 | X-H torsion

> <Gold.Protein.ActiveResidues>
 VAL166  LYS551  ARG553  GLY616  TRP617  ASP618  TYR619  PRO620  LYS621  CYS622 
 ASP623  PHE694  ASN695  SER759  ASP760  ASP761  ALA762  ILE779  LEU786  VAL792 
 PHE793  MET794  SER795  GLU796  ALA797  LYS798  CYS799  TRP800  GLU811  SER814 

> <Gold.Protein.RotatedAtoms>
  151.0743  134.9818  159.8323 H   0  0  0  0  0  0  0  0  0  0  0  0  # atno 6907 bound_to 6896
  152.5412  134.2261  159.8816 H   0  0  0  0  0  0  0  0  0  0  0  0  # atno 6908 bound_to 6896
  151.2287  133.4419  159.2636 H   0  0  0  0  0  0  0  0  0  0  0  0  # atno 6909 bound_to 6896
  144.7269  139.9492  143.6431 H   0  0  0  0  0  0  0  0  0  0  0  0  # atno 7974 bound_to 7965
  156.2942  140.2279  156.4789 H   0  0  0  0  0  0  0  0  0  0  0  0  # atno 8008 bound_to 7997
  154.7870  140.0456  157.1193 H   0  0  0  0  0  0  0  0  0  0  0  0  # atno 8009 bound_to 7997
  154.9690  140.3064  155.4999 H   0  0  0  0  0  0  0  0  0  0  0  0  # atno 8010 bound_to 7997
  139.5180  144.6464  151.5427 H   0  0  0  0  0  0  0  0  0  0  0  0  # atno 10167 bound_to 10162
  157.0168  131.0220  151.2787 H   0  0  0  0  0  0  0  0  0  0  0  0  # atno 10718 bound_to 10713
  154.6505  135.2910  154.9993 H   0  0  0  0  0  0  0  0  0  0  0  0  # atno 10763 bound_to 10752
  154.1088  135.6566  153.4885 H   0  0  0  0  0  0  0  0  0  0  0  0  # atno 10764 bound_to 10752
  153.0374  135.5260  154.7411 H   0  0  0  0  0  0  0  0  0  0  0  0  # atno 10765 bound_to 10752
  140.8568  134.2218  157.4730 H   0  0  0  0  0  0  0  0  0  0  0  0  # atno 11005 bound_to 11000
  146.0724  139.3713  143.0514 LP  0  0  0  0  0  0  0  0  0  0  0  0  # atno 17320 bound_to 7965
  145.7950  140.9797  143.1029 LP  0  0  0  0  0  0  0  0  0  0  0  0  # atno 17321 bound_to 7965
  140.6251  143.9184  150.6558 LP  0  0  0  0  0  0  0  0  0  0  0  0  # atno 17342 bound_to 10162
  140.2470  143.3621  152.1438 LP  0  0  0  0  0  0  0  0  0  0  0  0  # atno 17343 bound_to 10162
  157.5279  130.8040  149.7883 LP  0  0  0  0  0  0  0  0  0  0  0  0  # atno 17370 bound_to 10713
  156.0116  130.3831  150.2245 LP  0  0  0  0  0  0  0  0  0  0  0  0  # atno 17371 bound_to 10713
  139.8705  134.9710  156.4722 LP  0  0  0  0  0  0  0  0  0  0  0  0  # atno 17394 bound_to 11000
  140.8728  133.7976  155.9382 LP  0  0  0  0  0  0  0  0  0  0  0  0  # atno 17395 bound_to 11000

$$$$
