AV-unprocessed.smi:1543|AV-procd|sdf|6210|dock10
  -GOLD-   22720 6383D 1   1.00000     0.00000
 Structure written by MMmdl.
 49 50  0  0  0  0  0  0  0  0  2 V2000
  151.1210  135.3002  155.9549 C   0  0  0  0  0  0  0  0  0  0  0  0
  151.2601  136.8265  155.9330 C   0  0  2  0  0  0  0  0  0  0  0  0
  150.0039  137.5172  155.3696 C   0  0  0  0  0  0  0  0  0  0  0  0
  150.2011  138.9928  155.3043 N   0  3  2  0  0  0  0  0  0  0  0  0
  148.9812  139.8048  154.9490 C   0  0  0  0  0  0  0  0  0  0  0  0
  148.1052  139.0233  153.9377 C   0  0  0  0  0  0  0  0  0  0  0  0
  148.1067  139.9973  156.2138 C   0  0  0  0  0  0  0  0  0  0  0  0
  149.3768  141.1852  154.3425 C   0  0  0  0  0  0  0  0  0  0  0  0
  149.5312  142.2397  155.3440 N   0  0  0  0  0  0  0  0  0  0  0  0
  150.4629  142.2699  156.3077 C   0  0  0  0  0  0  0  0  0  0  0  0
  151.3069  141.3878  156.4629 O   0  0  0  0  0  0  0  0  0  0  0  0
  150.3530  143.3817  157.0544 N   0  0  0  0  0  0  0  0  0  0  0  0
  151.1307  143.7735  158.1775 C   0  0  0  0  0  0  0  0  0  0  0  0
  152.1738  142.9956  158.7364 C   0  0  0  0  0  0  0  0  0  0  0  0
  152.8594  143.4876  159.8635 C   0  0  0  0  0  0  0  0  0  0  0  0
  152.4739  144.7335  160.3948 C   0  0  0  0  0  0  0  0  0  0  0  0
  151.4730  145.4791  159.8812 N   0  0  0  0  0  0  0  0  0  0  0  0
  150.8193  145.0004  158.8012 C   0  0  0  0  0  0  0  0  0  0  0  0
  151.4326  139.2936  154.5200 C   0  0  0  0  0  0  0  0  0  0  0  0
  152.6468  138.5525  155.1102 C   0  0  2  0  0  0  0  0  0  0  0  0
  153.9220  138.7868  154.2924 C   0  0  0  0  0  0  0  0  0  0  0  0
  152.3784  137.1565  155.1195 O   0  0  0  0  0  0  0  0  0  0  0  0
  150.2827  134.9907  156.5797 H   0  0  0  0  0  0  0  0  0  0  0  0
  152.0216  134.8331  156.3541 H   0  0  0  0  0  0  0  0  0  0  0  0
  150.9567  134.9035  154.9528 H   0  0  0  0  0  0  0  0  0  0  0  0
  151.4424  137.1707  156.9526 H   0  0  0  0  0  0  0  0  0  0  0  0
  149.7849  137.1236  154.3767 H   0  0  0  0  0  0  0  0  0  0  0  0
  149.1650  137.2558  156.0116 H   0  0  0  0  0  0  0  0  0  0  0  0
  147.1211  139.4783  153.8198 H   0  0  0  0  0  0  0  0  0  0  0  0
  147.9434  137.9948  154.2621 H   0  0  0  0  0  0  0  0  0  0  0  0
  148.5455  138.9973  152.9411 H   0  0  0  0  0  0  0  0  0  0  0  0
  147.1189  140.3886  155.9683 H   0  0  0  0  0  0  0  0  0  0  0  0
  148.5446  140.7050  156.9173 H   0  0  0  0  0  0  0  0  0  0  0  0
  147.9515  139.0537  156.7382 H   0  0  0  0  0  0  0  0  0  0  0  0
  150.2896  141.1071  153.7514 H   0  0  0  0  0  0  0  0  0  0  0  0
  148.6076  141.5320  153.6534 H   0  0  0  0  0  0  0  0  0  0  0  0
  148.8820  143.0111  155.2917 H   0  0  0  0  0  0  0  0  0  0  0  0
  149.6642  144.0550  156.7518 H   0  0  0  0  0  0  0  0  0  0  0  0
  152.4510  142.0326  158.3370 H   0  0  0  0  0  0  0  0  0  0  0  0
  153.6603  142.9197  160.3133 H   0  0  0  0  0  0  0  0  0  0  0  0
  152.9789  145.1390  161.2589 H   0  0  0  0  0  0  0  0  0  0  0  0
  150.0220  145.6219  158.4202 H   0  0  0  0  0  0  0  0  0  0  0  0
  151.2979  138.9970  153.4796 H   0  0  0  0  0  0  0  0  0  0  0  0
  151.6578  140.3583  154.5241 H   0  0  0  0  0  0  0  0  0  0  0  0
  152.8246  138.8926  156.1322 H   0  0  0  0  0  0  0  0  0  0  0  0
  154.1809  139.8454  154.2622 H   0  0  0  0  0  0  0  0  0  0  0  0
  153.8029  138.4421  153.2648 H   0  0  0  0  0  0  0  0  0  0  0  0
  154.7668  138.2517  154.7267 H   0  0  0  0  0  0  0  0  0  0  0  0
  150.4199  139.2690  156.2509 H   0  0  0  0  0  0  0  0  0  0  0  0
  1  2  1  0  0  0  0
  1 23  1  0  0  0  0
  1 24  1  0  0  0  0
  1 25  1  0  0  0  0
  2 22  1  0  0  0  0
  2  3  1  0  0  0  0
  2 26  1  0  0  0  0
  3  4  1  0  0  0  0
  3 27  1  0  0  0  0
  3 28  1  0  0  0  0
  4  5  1  0  0  0  0
  4 19  1  0  0  0  0
  4 49  1  0  0  0  0
  5  6  1  0  0  0  0
  5  7  1  0  0  0  0
  5  8  1  0  0  0  0
  6 29  1  0  0  0  0
  6 30  1  0  0  0  0
  6 31  1  0  0  0  0
  7 32  1  0  0  0  0
  7 33  1  0  0  0  0
  7 34  1  0  0  0  0
  8  9  1  0  0  0  0
  8 35  1  0  0  0  0
  8 36  1  0  0  0  0
  9 10  1  0  0  0  0
  9 37  1  0  0  0  0
 10 11  2  0  0  0  0
 10 12  1  0  0  0  0
 12 13  1  0  0  0  0
 12 38  1  0  0  0  0
 13 18  1  0  0  0  0
 13 14  2  0  0  0  0
 14 15  1  0  0  0  0
 14 39  1  0  0  0  0
 15 16  2  0  0  0  0
 15 40  1  0  0  0  0
 16 17  1  0  0  0  0
 16 41  1  0  0  0  0
 17 18  2  0  0  0  0
 18 42  1  0  0  0  0
 19 20  1  0  0  0  0
 19 43  1  0  0  0  0
 19 44  1  0  0  0  0
 20 21  1  0  0  0  0
 20 22  1  0  0  0  0
 20 45  1  0  0  0  0
 21 46  1  0  0  0  0
 21 47  1  0  0  0  0
 21 48  1  0  0  0  0
M  CHG  1   4   1
M  END
> <s_m_source_file>
AV-unprocessed.smi

> <i_m_source_file_index>
1543

> <i_lp_mmshare_version>
43012

> <i_f3d_flags>
0

> <s_epik_input>
W0NIM11bQ0BASF0xW0NIMl1OKFtDSDJdW0NASF0oTzEpW0NIM10pQyhbQ0gzXSkoW0NIM10pW0NIMl1bTkhdQyg9TylbTkhdYzJbY0hdW2NIXVtjSF1uW2NIXTI=

> <s_epik_cmdline>
J2VwaWtfcHl0aG9uJywgJy1waCcsICc3LjAnLCAnLXRuJywgJzgnLCAnLW1hJywgJzIwMCcsICctbWV0YWxfYmluZGluZycsICctaW1hZScsICc8aW5maWxlLm1hZT4nLCAnLW9tYWUnLCAnPG91dGZpbGUubWFlPic=

> <r_epik_Ionization_Penalty>
0.60676

> <r_epik_Ionization_Penalty_Charging>
0.602531

> <r_epik_Ionization_Penalty_Neutral>
0.00422967

> <r_epik_State_Penalty>
0.607492

> <r_epik_Charging_Adjusted_Penalty>
1.21002

> <i_epik_Tot_Q>
1

> <i_epik_Tot_abs_Q>
1

> <r_epik_Metal_State_Penalty>
0.604589

> <b_epik_Metal_Only>
0

> <s_lp_Force_Field>
OPLS_2005

> <r_lp_Energy>
27.1707

> <b_lp_Chiralities_Consistent>
1

> <s_lp_Variant>
AV-unprocessed.smi:1543-6

> <Gold.Version>
5.8.1

> <Gold.Id.Protein>
6NUR|6NUR_protein|mol2

> <Gold.PLP.Fitness>
46.6318

> <Gold.PLP.PLP>
-38.3469

> <Gold.PLP.part.hbond>
-3.0000

> <Gold.PLP.part.metal>
0.0000

> <Gold.PLP.part.buried>
-2.6633

> <Gold.PLP.part.nonpolar>
-32.9945

> <Gold.PLP.part.repulsive>
0.4918

> <Gold.PLP.ligand.clash>
0.0000

> <Gold.PLP.ligand.torsion>
1.5978

> <Gold.PLP.Chemscore.Hbond>
2.8960

> <Gold.PLP.Chemscore.CHOScore>
0.8954

> <Gold.PLP.Chemscore.Metal>
0.0000

> <Gold.Chemscore.Hbonds>
donor molecule, donor type, donor heavy atom, donor atom, acceptor molecule, acceptor atom, score
      L1  H     9    37       P1  8028  0.77
      L1  H    12    38       P1  8028  0.88
      P1  H 10752 10764       L1    22  0.72
      L1  C    18    42       P1  8029  1.00

> <Gold.PLP.Chemscore.Internal.Correction>
0.1065

> <Gold.Rescore>
     Score         DG    S(hbond)    S(metal)    S(lipo)     H(rot)  DE(clash)    DE(int)     intcor
     18.77     -22.44       2.33        0.00     110.38       1.46       1.13       2.54       ----

> <Gold.Chemscore.Fitness>
18.7702

> <Gold.Chemscore.DG>
-22.4430

> <Gold.Chemscore.ZeroCoef>
-5.4800

> <Gold.Chemscore.Hbond>
2.3335

> <Gold.Chemscore.Metal>
0.0000

> <Gold.Chemscore.Lipo>
110.3844

> <Gold.Chemscore.Internal_Hbond>
0.0000

> <Gold.Chemscore.DEClash>
1.1334

> <Gold.Chemscore.DEInternal>
2.5394

> <Gold.Chemscore.Rot>
1.4632

> <Gold.Chemscore.Internal.Correction>
   9.000000E+99

> <Gold.Chemscore.Hbonds>
donor molecule, donor type, donor heavy atom, donor atom, acceptor molecule, acceptor atom, score
      L1  H     9    37       P1  8028  0.76
      L1  H    12    38       P1  8028  0.76
      P1  H 10752 10764       L1    22  0.25

> <Gold.Chemscore.Hbond.Weighted>
-7.7939

> <Gold.Chemscore.Metal.Weighted>
-0.0000

> <Gold.Chemscore.Lipo.Weighted>
-12.9150

> <Gold.Chemscore.Internal_Hbond.Weighted>
0.0000

> <Gold.Chemscore.DEClash.Weighted>
1.1334

> <Gold.Chemscore.DEInternal.Weighted>
2.5394

> <Gold.Chemscore.Rot.Weighted>
3.7459

> <Gold.Chemscore.Internal.Correction.Weighted>
   9.000000E+99

> <Gold.Protein.RotatedTorsions>
[ 6907 6896 6895 6894 ] final   65.00 input  -60.11 | X-H torsion
[ 7974 7965 7964 7962 ] final  -56.54 input  175.53 | X-H torsion
[ 8008 7997 7996 7995 ] final -107.89 input   59.86 | X-H torsion
[ 10167 10162 10161 10158 ] final  -69.94 input  -65.29 | X-H torsion
[ 10718 10713 10712 10709 ] final   19.27 input   66.30 | X-H torsion
[ 10763 10752 10751 10750 ] final  -50.91 input  -60.55 | X-H torsion
[ 11005 11000 10999 10996 ] final  -19.38 input  -57.11 | X-H torsion

> <Gold.Protein.ActiveResidues>
 VAL166  LYS551  ARG553  GLY616  TRP617  ASP618  TYR619  PRO620  LYS621  CYS622 
 ASP623  PHE694  ASN695  SER759  ASP760  ASP761  ALA762  ILE779  LEU786  VAL792 
 PHE793  MET794  SER795  GLU796  ALA797  LYS798  CYS799  TRP800  GLU811  SER814 

> <Gold.Protein.RotatedAtoms>
  152.4374  134.5658  159.9907 H   0  0  0  0  0  0  0  0  0  0  0  0  # atno 6907 bound_to 6896
  151.5765  133.3377  159.3008 H   0  0  0  0  0  0  0  0  0  0  0  0  # atno 6908 bound_to 6896
  150.8275  134.7547  159.6889 H   0  0  0  0  0  0  0  0  0  0  0  0  # atno 6909 bound_to 6896
  145.8615  140.8282  142.9934 H   0  0  0  0  0  0  0  0  0  0  0  0  # atno 7974 bound_to 7965
  154.9360  140.0404  157.2072 H   0  0  0  0  0  0  0  0  0  0  0  0  # atno 8008 bound_to 7997
  154.8114  140.2868  155.5828 H   0  0  0  0  0  0  0  0  0  0  0  0  # atno 8009 bound_to 7997
  156.2972  140.2536  156.3003 H   0  0  0  0  0  0  0  0  0  0  0  0  # atno 8010 bound_to 7997
  140.5391  143.2316  151.7122 H   0  0  0  0  0  0  0  0  0  0  0  0  # atno 10167 bound_to 10162
  157.1081  130.6497  149.5890 H   0  0  0  0  0  0  0  0  0  0  0  0  # atno 10718 bound_to 10713
  154.1180  135.6539  153.4897 H   0  0  0  0  0  0  0  0  0  0  0  0  # atno 10763 bound_to 10752
  153.0235  135.5263  154.7126 H   0  0  0  0  0  0  0  0  0  0  0  0  # atno 10764 bound_to 10752
  154.6325  135.2978  155.0170 H   0  0  0  0  0  0  0  0  0  0  0  0  # atno 10765 bound_to 10752
  140.8361  133.7961  155.9810 H   0  0  0  0  0  0  0  0  0  0  0  0  # atno 11005 bound_to 11000
  144.6726  140.1103  143.7456 LP  0  0  0  0  0  0  0  0  0  0  0  0  # atno 17320 bound_to 7965
  145.9242  139.2565  143.1363 LP  0  0  0  0  0  0  0  0  0  0  0  0  # atno 17321 bound_to 7965
  139.4982  144.3996  152.0195 LP  0  0  0  0  0  0  0  0  0  0  0  0  # atno 17342 bound_to 10162
  140.3104  144.3545  150.6035 LP  0  0  0  0  0  0  0  0  0  0  0  0  # atno 17343 bound_to 10162
  155.9857  130.4888  150.7044 LP  0  0  0  0  0  0  0  0  0  0  0  0  # atno 17370 bound_to 10713
  157.4583  131.0880  151.0773 LP  0  0  0  0  0  0  0  0  0  0  0  0  # atno 17371 bound_to 10713
  140.8946  134.2453  157.5076 LP  0  0  0  0  0  0  0  0  0  0  0  0  # atno 17394 bound_to 11000
  139.8704  134.9678  156.4608 LP  0  0  0  0  0  0  0  0  0  0  0  0  # atno 17395 bound_to 11000

$$$$
