AV-unprocessed.smi:102|AV-procd|sdf|956|dock4
  -GOLD-   2262017493D 1   1.00000     0.00000
 Structure written by MMmdl.
 44 45  0  0  0  0  0  0  0  0  1 V2000
  156.8089  137.5691  159.2839 C   0  0  0  0  0  0  0  0  0  0  0  0
  155.5361  137.9828  158.5573 C   0  0  0  0  0  0  0  0  0  0  0  0
  155.4464  139.0713  157.9882 O   0  0  0  0  0  0  0  0  0  0  0  0
  154.5785  137.0399  158.6224 O   0  0  0  0  0  0  0  0  0  0  0  0
  153.3812  137.1769  157.8692 C   0  0  0  0  0  0  0  0  0  0  0  0
  152.3239  137.9827  158.6481 C   0  0  1  0  0  0  0  0  0  0  0  0
  152.6815  139.3580  158.6815 O   0  0  0  0  0  0  0  0  0  0  0  0
  152.1532  139.9871  157.5612 C   0  0  2  0  0  0  0  0  0  0  0  0
  151.9526  141.4486  157.8676 N   0  0  0  0  0  0  0  0  0  0  0  0
  152.4176  142.0019  159.0526 C   0  0  0  0  0  0  0  0  0  0  0  0
  152.2438  143.3061  159.3723 C   0  0  0  0  0  0  0  0  0  0  0  0
  152.7208  143.7728  160.5386 F   0  0  0  0  0  0  0  0  0  0  0  0
  151.5345  144.2063  158.4671 C   0  0  0  0  0  0  0  0  0  0  0  0
  151.3315  145.4024  158.6659 O   0  0  0  0  0  0  0  0  0  0  0  0
  151.0650  143.5986  157.2983 N   0  0  0  0  0  0  0  0  0  0  0  0
  151.2332  142.2547  156.9591 C   0  0  0  0  0  0  0  0  0  0  0  0
  150.7558  141.8194  155.9121 O   0  0  0  0  0  0  0  0  0  0  0  0
  150.8163  139.3124  157.2617 C   0  0  1  0  0  0  0  0  0  0  0  0
  150.6385  139.1759  155.8587 O   0  0  0  0  0  0  0  0  0  0  0  0
  149.4556  138.7743  155.3671 C   0  0  0  0  0  0  0  0  0  0  0  0
  149.4288  138.7808  153.8447 C   0  0  0  0  0  0  0  0  0  0  0  0
  148.4767  138.4262  156.0275 O   0  0  0  0  0  0  0  0  0  0  0  0
  150.9534  137.9559  157.9490 C   0  0  2  0  0  0  0  0  0  0  0  0
  149.8921  137.7987  158.8824 O   0  0  0  0  0  0  0  0  0  0  0  0
  149.4024  136.5763  159.1535 C   0  0  0  0  0  0  0  0  0  0  0  0
  148.4577  136.5818  160.3476 C   0  0  0  0  0  0  0  0  0  0  0  0
  149.6622  135.5394  158.5428 O   0  0  0  0  0  0  0  0  0  0  0  0
  150.5564  144.1802  156.6481 H   0  0  0  0  0  0  0  0  0  0  0  0
  157.3119  136.7704  158.7388 H   0  0  0  0  0  0  0  0  0  0  0  0
  156.5759  137.2117  160.2870 H   0  0  0  0  0  0  0  0  0  0  0  0
  157.4927  138.4139  159.3690 H   0  0  0  0  0  0  0  0  0  0  0  0
  153.5697  137.6046  156.8835 H   0  0  0  0  0  0  0  0  0  0  0  0
  153.0009  136.1699  157.6968 H   0  0  0  0  0  0  0  0  0  0  0  0
  152.2571  137.5960  159.6657 H   0  0  0  0  0  0  0  0  0  0  0  0
  152.8840  139.9094  156.7529 H   0  0  0  0  0  0  0  0  0  0  0  0
  152.9358  141.3734  159.7626 H   0  0  0  0  0  0  0  0  0  0  0  0
  150.0185  139.9011  157.7190 H   0  0  0  0  0  0  0  0  0  0  0  0
  149.6887  139.7691  153.4651 H   0  0  0  0  0  0  0  0  0  0  0  0
  148.4361  138.5197  153.4777 H   0  0  0  0  0  0  0  0  0  0  0  0
  150.1438  138.0583  153.4510 H   0  0  0  0  0  0  0  0  0  0  0  0
  150.9180  137.1563  157.2068 H   0  0  0  0  0  0  0  0  0  0  0  0
  147.6428  137.2873  160.1841 H   0  0  0  0  0  0  0  0  0  0  0  0
  148.9930  136.8733  161.2513 H   0  0  0  0  0  0  0  0  0  0  0  0
  148.0309  135.5908  160.5031 H   0  0  0  0  0  0  0  0  0  0  0  0
  1  2  1  0  0  0  0
  1 29  1  0  0  0  0
  1 30  1  0  0  0  0
  1 31  1  0  0  0  0
  2  3  2  0  0  0  0
  2  4  1  0  0  0  0
  4  5  1  0  0  0  0
  5  6  1  0  0  0  0
  5 32  1  0  0  0  0
  5 33  1  0  0  0  0
  6 23  1  0  0  0  0
  6  7  1  0  0  0  0
  6 34  1  0  0  0  0
  7  8  1  0  0  0  0
  8  9  1  0  0  0  0
  8 18  1  0  0  0  0
  8 35  1  0  0  0  0
  9 16  1  0  0  0  0
  9 10  1  0  0  0  0
 10 11  2  0  0  0  0
 10 36  1  0  0  0  0
 11 12  1  0  0  0  0
 11 13  1  0  0  0  0
 13 14  2  0  0  0  0
 13 15  1  0  0  0  0
 15 28  1  0  0  0  0
 15 16  1  0  0  0  0
 16 17  2  0  0  0  0
 18 19  1  0  0  0  0
 18 23  1  0  0  0  0
 18 37  1  0  0  0  0
 19 20  1  0  0  0  0
 20 21  1  0  0  0  0
 20 22  2  0  0  0  0
 21 38  1  0  0  0  0
 21 39  1  0  0  0  0
 21 40  1  0  0  0  0
 23 24  1  0  0  0  0
 23 41  1  0  0  0  0
 24 25  1  0  0  0  0
 25 26  1  0  0  0  0
 25 27  2  0  0  0  0
 26 42  1  0  0  0  0
 26 43  1  0  0  0  0
 26 44  1  0  0  0  0
M  END
> <s_m_source_file>
AV-unprocessed.smi

> <i_m_source_file_index>
102

> <i_lp_mmshare_version>
43012

> <i_f3d_flags>
0

> <s_epik_input>
W0NIM11DKD1PKU9bQ0gyXVtDQEBIXTFPW0NASF0oW0NAQEhdKE9DKD1PKVtDSDNdKVtDQEhdMU9DKD1PKVtDSDNdKW4yW2NIXWMoRiljKD1PKVtuSF1jMj1P

> <s_epik_cmdline>
J2VwaWtfcHl0aG9uJywgJy1waCcsICc3LjAnLCAnLXRuJywgJzgnLCAnLW1hJywgJzIwMCcsICctbWV0YWxfYmluZGluZycsICctaW1hZScsICc8aW5maWxlLm1hZT4nLCAnLW9tYWUnLCAnPG91dGZpbGUubWFlPic=

> <r_lp_tautomer_probability>
0.999537

> <r_epik_Ionization_Penalty>
0.058267

> <r_epik_Ionization_Penalty_Charging>
0.058267

> <r_epik_Ionization_Penalty_Neutral>
6.57791e-16

> <r_epik_State_Penalty>
0.0503774

> <r_epik_Charging_Adjusted_Penalty>
0.108644

> <i_epik_Tot_Q>
0

> <i_epik_Tot_abs_Q>
0

> <r_epik_Metal_State_Penalty>
2.6644

> <b_epik_Metal_Only>
0

> <s_epik_Chemistry_Notes>
This compound has an ester and may undergo hydrolysis at high or low pH. This compound contains an acetal/aminal-like group ( X-CH(R)-Y where X, Y are N, S, or O) that may be acid/base labile, releasing an aldehyde.

> <s_lp_Force_Field>
OPLS_2005

> <r_lp_Energy>
12.7651

> <b_lp_Chiralities_Consistent>
1

> <s_lp_Variant>
AV-unprocessed.smi:102-12

> <Gold.Version>
5.8.1

> <Gold.Id.Protein>
6NUR|6NUR_protein|mol2

> <Gold.PLP.Fitness>
45.1332

> <Gold.PLP.PLP>
-38.0031

> <Gold.PLP.part.hbond>
-4.5416

> <Gold.PLP.part.metal>
0.0000

> <Gold.PLP.part.buried>
-6.9188

> <Gold.PLP.part.nonpolar>
-27.5508

> <Gold.PLP.part.repulsive>
0.2463

> <Gold.PLP.ligand.clash>
0.0000

> <Gold.PLP.ligand.torsion>
1.0031

> <Gold.PLP.Chemscore.Hbond>
3.0000

> <Gold.PLP.Chemscore.CHOScore>
0.0000

> <Gold.PLP.Chemscore.Metal>
0.0000

> <Gold.Chemscore.Hbonds>
donor molecule, donor type, donor heavy atom, donor atom, acceptor molecule, acceptor atom, score
      L1  H    15    28       P1  8028  1.00
      P1  H  6896  6907       L1    27  1.00
      P1  H  7997  8010       L1     3  0.18

> <Gold.PLP.Chemscore.Internal.Correction>
0.1363

> <Gold.Rescore>
     Score         DG    S(hbond)    S(metal)    S(lipo)     H(rot)  DE(clash)    DE(int)     intcor
      6.92     -10.78       2.96        0.00      49.42       4.05       0.10       3.77       ----

> <Gold.Chemscore.Fitness>
6.9152

> <Gold.Chemscore.DG>
-10.7845

> <Gold.Chemscore.ZeroCoef>
-5.4800

> <Gold.Chemscore.Hbond>
2.9629

> <Gold.Chemscore.Metal>
0.0000

> <Gold.Chemscore.Lipo>
49.4150

> <Gold.Chemscore.Internal_Hbond>
0.0000

> <Gold.Chemscore.DEClash>
0.0983

> <Gold.Chemscore.DEInternal>
3.7710

> <Gold.Chemscore.Rot>
4.0520

> <Gold.Chemscore.Internal.Correction>
   9.000000E+99

> <Gold.Chemscore.Hbonds>
donor molecule, donor type, donor heavy atom, donor atom, acceptor molecule, acceptor atom, score
      L1  H    15    28       P1  8028  0.94
      P1  H  6896  6907       L1    27  0.70
      P1  H  7997  8010       L1     3  0.18

> <Gold.Chemscore.Hbond.Weighted>
-9.8961

> <Gold.Chemscore.Metal.Weighted>
-0.0000

> <Gold.Chemscore.Lipo.Weighted>
-5.7816

> <Gold.Chemscore.Internal_Hbond.Weighted>
0.0000

> <Gold.Chemscore.DEClash.Weighted>
0.0983

> <Gold.Chemscore.DEInternal.Weighted>
3.7710

> <Gold.Chemscore.Rot.Weighted>
10.3732

> <Gold.Chemscore.Internal.Correction.Weighted>
   9.000000E+99

> <Gold.Protein.RotatedTorsions>
[ 6907 6896 6895 6894 ] final  -73.57 input  -60.11 | X-H torsion
[ 7974 7965 7964 7962 ] final   16.95 input  175.53 | X-H torsion
[ 8008 7997 7996 7995 ] final    7.31 input   59.86 | X-H torsion
[ 10167 10162 10161 10158 ] final -169.64 input  -65.29 | X-H torsion
[ 10718 10713 10712 10709 ] final  114.43 input   66.30 | X-H torsion
[ 10763 10752 10751 10750 ] final  -60.02 input  -60.55 | X-H torsion
[ 11005 11000 10999 10996 ] final  -65.51 input  -57.11 | X-H torsion

> <Gold.Protein.ActiveResidues>
 VAL166  LYS551  ARG553  GLY616  TRP617  ASP618  TYR619  PRO620  LYS621  CYS622 
 ASP623  PHE694  ASN695  SER759  ASP760  ASP761  ALA762  ILE779  LEU786  VAL792 
 PHE793  MET794  SER795  GLU796  ALA797  LYS798  CYS799  TRP800  GLU811  SER814 

> <Gold.Protein.RotatedAtoms>
  150.7125  134.4997  159.5555 H   0  0  0  0  0  0  0  0  0  0  0  0  # atno 6907 bound_to 6896
  152.2597  134.8044  160.0441 H   0  0  0  0  0  0  0  0  0  0  0  0  # atno 6908 bound_to 6896
  151.8762  133.3450  159.3788 H   0  0  0  0  0  0  0  0  0  0  0  0  # atno 6909 bound_to 6896
  146.2234  139.8673  142.8594 H   0  0  0  0  0  0  0  0  0  0  0  0  # atno 7974 bound_to 7965
  154.7522  140.2769  155.6283 H   0  0  0  0  0  0  0  0  0  0  0  0  # atno 8008 bound_to 7997
  156.2898  140.2676  156.2205 H   0  0  0  0  0  0  0  0  0  0  0  0  # atno 8009 bound_to 7997
  155.0123  140.0372  157.2394 H   0  0  0  0  0  0  0  0  0  0  0  0  # atno 8010 bound_to 7997
  139.5910  144.1214  152.1634 H   0  0  0  0  0  0  0  0  0  0  0  0  # atno 10167 bound_to 10162
  157.6281  131.0998  150.7185 H   0  0  0  0  0  0  0  0  0  0  0  0  # atno 10718 bound_to 10713
  154.2628  135.6305  153.5281 H   0  0  0  0  0  0  0  0  0  0  0  0  # atno 10763 bound_to 10752
  152.9893  135.5591  154.5686 H   0  0  0  0  0  0  0  0  0  0  0  0  # atno 10764 bound_to 10752
  154.5238  135.2884  155.1214 H   0  0  0  0  0  0  0  0  0  0  0  0  # atno 10765 bound_to 10752
  141.1456  133.6683  156.5996 H   0  0  0  0  0  0  0  0  0  0  0  0  # atno 11005 bound_to 11000
  145.2643  141.0087  143.3808 LP  0  0  0  0  0  0  0  0  0  0  0  0  # atno 17320 bound_to 7965
  144.9273  139.4340  143.6512 LP  0  0  0  0  0  0  0  0  0  0  0  0  # atno 17321 bound_to 7965
  140.0788  144.5718  150.7137 LP  0  0  0  0  0  0  0  0  0  0  0  0  # atno 17342 bound_to 10162
  140.7173  143.2556  151.4394 LP  0  0  0  0  0  0  0  0  0  0  0  0  # atno 17343 bound_to 10162
  156.7529  130.4774  149.5453 LP  0  0  0  0  0  0  0  0  0  0  0  0  # atno 17370 bound_to 10713
  156.1466  130.6281  151.0540 LP  0  0  0  0  0  0  0  0  0  0  0  0  # atno 17371 bound_to 10713
  140.3699  134.7615  157.4591 LP  0  0  0  0  0  0  0  0  0  0  0  0  # atno 17394 bound_to 11000
  140.0719  134.5851  155.8633 LP  0  0  0  0  0  0  0  0  0  0  0  0  # atno 17395 bound_to 11000

$$$$
