AV-unprocessed.smi:2684|AV-procd|sdf|10381|dock10
  -GOLD-   2272014413D 1   1.00000     0.00000
 Structure written by MMmdl.
 44 45  0  0  0  0  0  0  0  0  1 V2000
  151.7924  142.7983  158.5575 C   0  0  0  0  0  0  0  0  0  0  0  0
  151.2383  141.7664  157.6177 C   0  0  0  0  0  0  0  0  0  0  0  0
  151.3286  140.3497  157.7255 C   0  0  0  0  0  0  0  0  0  0  0  0
  150.7255  139.7185  156.7313 N   0  0  0  0  0  0  0  0  0  0  0  0
  150.2431  140.7065  155.9473 N   0  0  0  0  0  0  0  0  0  0  0  0
  149.5023  140.3805  154.7411 C   0  0  0  0  0  0  0  0  0  0  0  0
  149.3609  138.8622  154.4801 C   0  0  1  0  0  0  0  0  0  0  0  0
  148.5529  138.1950  155.6020 C   0  0  0  0  0  0  0  0  0  0  0  0
  148.6493  138.6029  153.2308 N   0  0  0  0  0  0  0  0  0  0  0  0
  147.2711  139.1133  153.2402 C   0  0  0  0  0  0  0  0  0  0  0  0
  146.2125  138.0011  153.1920 C   0  0  0  0  0  0  0  0  0  0  0  0
  145.1937  138.0822  153.8769 O   0  0  0  0  0  0  0  0  0  0  0  0
  146.4199  136.9401  152.3932 N   0  0  0  0  0  0  0  0  0  0  0  0
  145.5434  135.7851  152.2053 C   0  0  0  0  0  0  0  0  0  0  0  0
  146.2352  134.4959  152.6798 C   0  0  0  0  0  0  0  0  0  0  0  0
  145.3745  133.2670  152.3466 C   0  0  0  0  0  0  0  0  0  0  0  0
  145.1052  133.2253  150.9490 O   0  0  0  0  0  0  0  0  0  0  0  0
  144.3672  134.3531  150.4899 C   0  0  0  0  0  0  0  0  0  0  0  0
  145.1744  135.6414  150.7217 C   0  0  0  0  0  0  0  0  0  0  0  0
  150.5315  141.9522  156.4633 C   0  0  0  0  0  0  0  0  0  0  0  0
  151.5754  142.5529  159.5972 H   0  0  0  0  0  0  0  0  0  0  0  0
  151.3744  143.7869  158.3671 H   0  0  0  0  0  0  0  0  0  0  0  0
  152.8747  142.8852  158.4669 H   0  0  0  0  0  0  0  0  0  0  0  0
  151.8085  139.7646  158.4962 H   0  0  0  0  0  0  0  0  0  0  0  0
  148.5137  140.8318  154.8348 H   0  0  0  0  0  0  0  0  0  0  0  0
  149.9819  140.8705  153.8924 H   0  0  0  0  0  0  0  0  0  0  0  0
  150.3442  138.3889  154.4667 H   0  0  0  0  0  0  0  0  0  0  0  0
  149.0414  138.3295  156.5677 H   0  0  0  0  0  0  0  0  0  0  0  0
  148.4542  137.1219  155.4332 H   0  0  0  0  0  0  0  0  0  0  0  0
  147.5491  138.6150  155.6776 H   0  0  0  0  0  0  0  0  0  0  0  0
  148.6868  137.6175  153.0135 H   0  0  0  0  0  0  0  0  0  0  0  0
  147.1117  139.7121  154.1334 H   0  0  0  0  0  0  0  0  0  0  0  0
  147.1204  139.7646  152.3782 H   0  0  0  0  0  0  0  0  0  0  0  0
  147.2817  136.9305  151.8669 H   0  0  0  0  0  0  0  0  0  0  0  0
  144.6148  135.9186  152.7620 H   0  0  0  0  0  0  0  0  0  0  0  0
  147.2066  134.3950  152.1937 H   0  0  0  0  0  0  0  0  0  0  0  0
  146.4282  134.5344  153.7513 H   0  0  0  0  0  0  0  0  0  0  0  0
  145.8989  132.3546  152.6297 H   0  0  0  0  0  0  0  0  0  0  0  0
  144.4399  133.2841  152.9093 H   0  0  0  0  0  0  0  0  0  0  0  0
  144.1584  134.2279  149.4272 H   0  0  0  0  0  0  0  0  0  0  0  0
  143.4034  134.4010  150.9990 H   0  0  0  0  0  0  0  0  0  0  0  0
  144.6005  136.5067  150.3884 H   0  0  0  0  0  0  0  0  0  0  0  0
  146.0793  135.6120  150.1128 H   0  0  0  0  0  0  0  0  0  0  0  0
  150.2151  142.8593  155.9696 H   0  0  0  0  0  0  0  0  0  0  0  0
  1  2  1  0  0  0  0
  1 21  1  0  0  0  0
  1 22  1  0  0  0  0
  1 23  1  0  0  0  0
  2 20  2  0  0  0  0
  2  3  1  0  0  0  0
  3  4  2  0  0  0  0
  3 24  1  0  0  0  0
  4  5  1  0  0  0  0
  5  6  1  0  0  0  0
  5 20  1  0  0  0  0
  6  7  1  0  0  0  0
  6 25  1  0  0  0  0
  6 26  1  0  0  0  0
  7  8  1  0  0  0  0
  7  9  1  0  0  0  0
  7 27  1  0  0  0  0
  8 28  1  0  0  0  0
  8 29  1  0  0  0  0
  8 30  1  0  0  0  0
  9 10  1  0  0  0  0
  9 31  1  0  0  0  0
 10 11  1  0  0  0  0
 10 32  1  0  0  0  0
 10 33  1  0  0  0  0
 11 12  2  0  0  0  0
 11 13  1  0  0  0  0
 13 14  1  0  0  0  0
 13 34  1  0  0  0  0
 14 19  1  0  0  0  0
 14 15  1  0  0  0  0
 14 35  1  0  0  0  0
 15 16  1  0  0  0  0
 15 36  1  0  0  0  0
 15 37  1  0  0  0  0
 16 17  1  0  0  0  0
 16 38  1  0  0  0  0
 16 39  1  0  0  0  0
 17 18  1  0  0  0  0
 18 19  1  0  0  0  0
 18 40  1  0  0  0  0
 18 41  1  0  0  0  0
 19 42  1  0  0  0  0
 19 43  1  0  0  0  0
 20 44  1  0  0  0  0
M  END
> <s_m_source_file>
AV-unprocessed.smi

> <i_m_source_file_index>
2684

> <i_lp_mmshare_version>
43012

> <i_f3d_flags>
0

> <s_epik_input>
W0NIM11jMVtjSF1ubihbY0hdMSlbQ0gyXVtDQEhdKFtDSDNdKVtOSF1bQ0gyXUMoPU8pW05IXVtDSF0yW0NIMl1bQ0gyXU9bQ0gyXVtDSDJdMg==

> <s_epik_cmdline>
J2VwaWtfcHl0aG9uJywgJy1waCcsICc3LjAnLCAnLXRuJywgJzgnLCAnLW1hJywgJzIwMCcsICctbWV0YWxfYmluZGluZycsICctaW1hZScsICc8aW5maWxlLm1hZT4nLCAnLW9tYWUnLCAnPG91dGZpbGUubWFlPic=

> <r_lp_tautomer_probability>
1

> <r_epik_Ionization_Penalty>
0.968507

> <r_epik_Ionization_Penalty_Charging>
0

> <r_epik_Ionization_Penalty_Neutral>
0.968507

> <r_epik_State_Penalty>
1.01412

> <r_epik_Charging_Adjusted_Penalty>
1.01412

> <i_epik_Tot_Q>
0

> <i_epik_Tot_abs_Q>
0

> <r_epik_Metal_State_Penalty>
1.01401

> <b_epik_Metal_Only>
0

> <s_lp_Force_Field>
OPLS_2005

> <r_lp_Energy>
12.4601

> <b_lp_Chiralities_Consistent>
1

> <s_lp_Variant>
AV-unprocessed.smi:2684-4

> <Gold.Version>
5.8.1

> <Gold.Id.Protein>
6NUR|6NUR_protein|mol2

> <Gold.PLP.Fitness>
41.1451

> <Gold.PLP.PLP>
-33.7201

> <Gold.PLP.part.hbond>
-3.0000

> <Gold.PLP.part.metal>
0.0000

> <Gold.PLP.part.buried>
-4.7520

> <Gold.PLP.part.nonpolar>
-27.0283

> <Gold.PLP.part.repulsive>
0.3122

> <Gold.PLP.ligand.clash>
0.0000

> <Gold.PLP.ligand.torsion>
0.6538

> <Gold.PLP.Chemscore.Hbond>
1.8960

> <Gold.PLP.Chemscore.CHOScore>
1.0000

> <Gold.PLP.Chemscore.Metal>
0.0000

> <Gold.Chemscore.Hbonds>
donor molecule, donor type, donor heavy atom, donor atom, acceptor molecule, acceptor atom, score
      L1  H     9    31       P1  7948  1.00
      L1  H    13    34       P1  7948  0.88
      L1  C    20    44       P1  8028  1.00

> <Gold.PLP.Chemscore.Internal.Correction>
0.0446

> <Gold.Rescore>
     Score         DG    S(hbond)    S(metal)    S(lipo)     H(rot)  DE(clash)    DE(int)     intcor
     13.91     -15.64       1.82        0.00      77.94       1.97       0.04       1.69       ----

> <Gold.Chemscore.Fitness>
13.9146

> <Gold.Chemscore.DG>
-15.6390

> <Gold.Chemscore.ZeroCoef>
-5.4800

> <Gold.Chemscore.Hbond>
1.8239

> <Gold.Chemscore.Metal>
0.0000

> <Gold.Chemscore.Lipo>
77.9432

> <Gold.Chemscore.Internal_Hbond>
0.0000

> <Gold.Chemscore.DEClash>
0.0356

> <Gold.Chemscore.DEInternal>
1.6888

> <Gold.Chemscore.Rot>
1.9736

> <Gold.Chemscore.Internal.Correction>
   9.000000E+99

> <Gold.Chemscore.Hbonds>
donor molecule, donor type, donor heavy atom, donor atom, acceptor molecule, acceptor atom, score
      L1  H     9    31       P1  7948  0.95
      L1  H    13    34       P1  7948  0.87

> <Gold.Chemscore.Hbond.Weighted>
-6.0920

> <Gold.Chemscore.Metal.Weighted>
-0.0000

> <Gold.Chemscore.Lipo.Weighted>
-9.1193

> <Gold.Chemscore.Internal_Hbond.Weighted>
0.0000

> <Gold.Chemscore.DEClash.Weighted>
0.0356

> <Gold.Chemscore.DEInternal.Weighted>
1.6888

> <Gold.Chemscore.Rot.Weighted>
5.0523

> <Gold.Chemscore.Internal.Correction.Weighted>
   9.000000E+99

> <Gold.Protein.RotatedTorsions>
[ 6907 6896 6895 6894 ] final   72.10 input  -60.11 | X-H torsion
[ 7974 7965 7964 7962 ] final  158.31 input  175.53 | X-H torsion
[ 8008 7997 7996 7995 ] final -134.05 input   59.86 | X-H torsion
[ 10167 10162 10161 10158 ] final -165.03 input  -65.29 | X-H torsion
[ 10718 10713 10712 10709 ] final  -92.80 input   66.30 | X-H torsion
[ 10763 10752 10751 10750 ] final  169.13 input  -60.55 | X-H torsion
[ 11005 11000 10999 10996 ] final  -70.34 input  -57.11 | X-H torsion

> <Gold.Protein.ActiveResidues>
 VAL166  LYS551  ARG553  GLY616  TRP617  ASP618  TYR619  PRO620  LYS621  CYS622 
 ASP623  PHE694  ASN695  SER759  ASP760  ASP761  ALA762  ILE779  LEU786  VAL792 
 PHE793  MET794  SER795  GLU796  ALA797  LYS798  CYS799  TRP800  GLU811  SER814 

> <Gold.Protein.RotatedAtoms>
  152.4849  134.4621  159.9608 H   0  0  0  0  0  0  0  0  0  0  0  0  # atno 6907 bound_to 6896
  151.4620  133.3584  159.2818 H   0  0  0  0  0  0  0  0  0  0  0  0  # atno 6908 bound_to 6896
  150.8950  134.8383  159.7381 H   0  0  0  0  0  0  0  0  0  0  0  0  # atno 6909 bound_to 6896
  144.7853  139.7461  143.6243 H   0  0  0  0  0  0  0  0  0  0  0  0  # atno 7974 bound_to 7965
  155.3556  140.0480  157.3046 H   0  0  0  0  0  0  0  0  0  0  0  0  # atno 8008 bound_to 7997
  154.5204  140.2223  155.8950 H   0  0  0  0  0  0  0  0  0  0  0  0  # atno 8009 bound_to 7997
  156.1683  140.3101  155.8934 H   0  0  0  0  0  0  0  0  0  0  0  0  # atno 8010 bound_to 7997
  139.6210  144.0625  152.1932 H   0  0  0  0  0  0  0  0  0  0  0  0  # atno 10167 bound_to 10162
  156.0006  130.5001  150.5680 H   0  0  0  0  0  0  0  0  0  0  0  0  # atno 10718 bound_to 10713
  154.3787  135.2753  155.2224 H   0  0  0  0  0  0  0  0  0  0  0  0  # atno 10763 bound_to 10752
  154.4340  135.5970  153.6090 H   0  0  0  0  0  0  0  0  0  0  0  0  # atno 10764 bound_to 10752
  152.9835  135.6002  154.4027 H   0  0  0  0  0  0  0  0  0  0  0  0  # atno 10765 bound_to 10752
  141.1572  133.6787  156.6737 H   0  0  0  0  0  0  0  0  0  0  0  0  # atno 11005 bound_to 11000
  146.2081  139.5419  142.9699 LP  0  0  0  0  0  0  0  0  0  0  0  0  # atno 17320 bound_to 7965
  145.5939  141.0365  143.2055 LP  0  0  0  0  0  0  0  0  0  0  0  0  # atno 17321 bound_to 7965
  140.0266  144.6112  150.7522 LP  0  0  0  0  0  0  0  0  0  0  0  0  # atno 17342 bound_to 10162
  140.7382  143.2775  151.3698 LP  0  0  0  0  0  0  0  0  0  0  0  0  # atno 17343 bound_to 10162
  157.3579  131.0745  151.1660 LP  0  0  0  0  0  0  0  0  0  0  0  0  # atno 17370 bound_to 10713
  157.2455  130.6589  149.5908 LP  0  0  0  0  0  0  0  0  0  0  0  0  # atno 17371 bound_to 10713
  140.3155  134.8051  157.4210 LP  0  0  0  0  0  0  0  0  0  0  0  0  # atno 17394 bound_to 11000
  140.1142  134.5305  155.8240 LP  0  0  0  0  0  0  0  0  0  0  0  0  # atno 17395 bound_to 11000

$$$$
