AV-unprocessed.smi:1982|AV-procd|sdf|8027|dock9
  -GOLD-   2272010223D 1   1.00000     0.00000
 Structure written by MMmdl.
 36 37  0  0  0  0  0  0  0  0  1 V2000
  151.2981  141.6610  157.5014 C   0  0  0  0  0  0  0  0  0  0  0  0
  150.5449  140.6592  156.6079 C   0  0  1  0  0  0  0  0  0  0  0  0
  149.5610  141.4157  155.6912 C   0  0  0  0  0  0  0  0  0  0  0  0
  148.7668  140.4659  154.7848 C   0  0  0  0  0  0  0  0  0  0  0  0
  149.7099  139.5927  153.9453 C   0  0  0  0  0  0  0  0  0  0  0  0
  150.7061  138.8155  154.8271 C   0  0  2  0  0  0  0  0  0  0  0  0
  150.0184  137.7760  155.5915 N   0  0  0  0  0  0  0  0  0  0  0  0
  150.5847  136.6851  156.1300 C   0  0  0  0  0  0  0  0  0  0  0  0
  151.7716  136.3929  155.9885 O   0  0  0  0  0  0  0  0  0  0  0  0
  149.6685  135.7877  156.9632 C   0  0  0  0  0  0  0  0  0  0  0  0
  149.1324  136.5067  158.1049 N   0  0  0  0  0  0  0  0  0  0  0  0
  148.1782  137.4360  158.1866 C   0  0  0  0  0  0  0  0  0  0  0  0
  147.9744  137.8186  159.4378 N   0  0  0  0  0  0  0  0  0  0  0  0
  148.8814  137.0540  160.1526 N   0  0  0  0  0  0  0  0  0  0  0  0
  149.5718  136.2738  159.3672 N   0  0  0  0  0  0  0  0  0  0  0  0
  151.4967  139.7596  155.7702 C   0  0  2  0  0  0  0  0  0  0  0  0
  152.4976  138.9684  156.6384 C   0  0  0  0  0  0  0  0  0  0  0  0
  151.9644  142.2935  156.9143 H   0  0  0  0  0  0  0  0  0  0  0  0
  151.8949  141.1567  158.2608 H   0  0  0  0  0  0  0  0  0  0  0  0
  150.6025  142.3136  158.0294 H   0  0  0  0  0  0  0  0  0  0  0  0
  149.9575  140.0172  157.2662 H   0  0  0  0  0  0  0  0  0  0  0  0
  148.8660  142.0019  156.2933 H   0  0  0  0  0  0  0  0  0  0  0  0
  150.1086  142.1293  155.0739 H   0  0  0  0  0  0  0  0  0  0  0  0
  148.1158  139.8354  155.3916 H   0  0  0  0  0  0  0  0  0  0  0  0
  148.1128  141.0405  154.1285 H   0  0  0  0  0  0  0  0  0  0  0  0
  149.1322  138.9053  153.3261 H   0  0  0  0  0  0  0  0  0  0  0  0
  150.2647  140.2284  153.2543 H   0  0  0  0  0  0  0  0  0  0  0  0
  151.4287  138.3330  154.1663 H   0  0  0  0  0  0  0  0  0  0  0  0
  149.0334  137.9229  155.7601 H   0  0  0  0  0  0  0  0  0  0  0  0
  148.8486  135.4192  156.3448 H   0  0  0  0  0  0  0  0  0  0  0  0
  150.2193  134.9184  157.3246 H   0  0  0  0  0  0  0  0  0  0  0  0
  147.6338  137.8228  157.3375 H   0  0  0  0  0  0  0  0  0  0  0  0
  152.0877  140.4182  155.1316 H   0  0  0  0  0  0  0  0  0  0  0  0
  151.9916  138.3780  157.4033 H   0  0  0  0  0  0  0  0  0  0  0  0
  153.2027  139.6292  157.1417 H   0  0  0  0  0  0  0  0  0  0  0  0
  153.0871  138.2834  156.0284 H   0  0  0  0  0  0  0  0  0  0  0  0
  1  2  1  0  0  0  0
  1 18  1  0  0  0  0
  1 19  1  0  0  0  0
  1 20  1  0  0  0  0
  2 16  1  0  0  0  0
  2  3  1  0  0  0  0
  2 21  1  0  0  0  0
  3  4  1  0  0  0  0
  3 22  1  0  0  0  0
  3 23  1  0  0  0  0
  4  5  1  0  0  0  0
  4 24  1  0  0  0  0
  4 25  1  0  0  0  0
  5  6  1  0  0  0  0
  5 26  1  0  0  0  0
  5 27  1  0  0  0  0
  6  7  1  0  0  0  0
  6 16  1  0  0  0  0
  6 28  1  0  0  0  0
  7  8  1  0  0  0  0
  7 29  1  0  0  0  0
  8  9  2  0  0  0  0
  8 10  1  0  0  0  0
 10 11  1  0  0  0  0
 10 30  1  0  0  0  0
 10 31  1  0  0  0  0
 11 15  1  0  0  0  0
 11 12  1  0  0  0  0
 12 13  2  0  0  0  0
 12 32  1  0  0  0  0
 13 14  1  0  0  0  0
 14 15  2  0  0  0  0
 16 17  1  0  0  0  0
 16 33  1  0  0  0  0
 17 34  1  0  0  0  0
 17 35  1  0  0  0  0
 17 36  1  0  0  0  0
M  END
> <s_m_source_file>
AV-unprocessed.smi

> <i_m_source_file_index>
1982

> <i_lp_mmshare_version>
43012

> <i_f3d_flags>
0

> <s_epik_input>
W0NIM11bQ0BASF0xW0NIMl1bQ0gyXVtDSDJdW0NASF0oW0NASF0xW0NIM10pW05IXUMoPU8pW0NIMl1uMltjSF1ubm4y

> <s_epik_cmdline>
J2VwaWtfcHl0aG9uJywgJy1waCcsICc3LjAnLCAnLXRuJywgJzgnLCAnLW1hJywgJzIwMCcsICctbWV0YWxfYmluZGluZycsICctaW1hZScsICc8aW5maWxlLm1hZT4nLCAnLW9tYWUnLCAnPG91dGZpbGUubWFlPic=

> <r_lp_tautomer_probability>
1

> <r_epik_Ionization_Penalty>
5.03816e-07

> <r_epik_Ionization_Penalty_Charging>
0

> <r_epik_Ionization_Penalty_Neutral>
5.03816e-07

> <r_epik_State_Penalty>
-0

> <r_epik_Charging_Adjusted_Penalty>
0

> <i_epik_Tot_Q>
0

> <i_epik_Tot_abs_Q>
0

> <r_epik_Metal_State_Penalty>
-0

> <b_epik_Metal_Only>
0

> <s_lp_Force_Field>
OPLS_2005

> <r_lp_Energy>
12.4214

> <b_lp_Chiralities_Consistent>
1

> <s_lp_Variant>
AV-unprocessed.smi:1982-8

> <Gold.Version>
5.8.1

> <Gold.Id.Protein>
6NUR|6NUR_protein|mol2

> <Gold.PLP.Fitness>
31.5832

> <Gold.PLP.PLP>
-23.3232

> <Gold.PLP.part.hbond>
-4.6599

> <Gold.PLP.part.metal>
0.0000

> <Gold.PLP.part.buried>
-0.2594

> <Gold.PLP.part.nonpolar>
-18.5846

> <Gold.PLP.part.repulsive>
0.0267

> <Gold.PLP.ligand.clash>
0.0000

> <Gold.PLP.ligand.torsion>
0.4363

> <Gold.PLP.Chemscore.Hbond>
3.0400

> <Gold.PLP.Chemscore.CHOScore>
0.0000

> <Gold.PLP.Chemscore.Metal>
0.0000

> <Gold.Chemscore.Hbonds>
donor molecule, donor type, donor heavy atom, donor atom, acceptor molecule, acceptor atom, score
      P1  H  6896  6909       L1    15  1.00
      P1  H  6931  6943       L1    14  0.46
      P1  H  6934  6947       L1    13  0.43
      P1  H 10752 10765       L1     9  1.00

> <Gold.PLP.Chemscore.Internal.Correction>
0.0126

> <Gold.Rescore>
     Score         DG    S(hbond)    S(metal)    S(lipo)     H(rot)  DE(clash)    DE(int)     intcor
     11.83     -14.76       2.38        0.00      53.01       1.91       0.24       2.70       ----

> <Gold.Chemscore.Fitness>
11.8256

> <Gold.Chemscore.DG>
-14.7641

> <Gold.Chemscore.ZeroCoef>
-5.4800

> <Gold.Chemscore.Hbond>
2.3834

> <Gold.Chemscore.Metal>
0.0000

> <Gold.Chemscore.Lipo>
53.0132

> <Gold.Chemscore.Internal_Hbond>
0.0000

> <Gold.Chemscore.DEClash>
0.2386

> <Gold.Chemscore.DEInternal>
2.6999

> <Gold.Chemscore.Rot>
1.9058

> <Gold.Chemscore.Internal.Correction>
   9.000000E+99

> <Gold.Chemscore.Hbonds>
donor molecule, donor type, donor heavy atom, donor atom, acceptor molecule, acceptor atom, score
      P1  H  6896  6909       L1    15  0.97
      P1  H  6931  6943       L1    14  0.10
      P1  H  6934  6947       L1    13  0.14
      P1  H 10752 10765       L1     9  1.00

> <Gold.Chemscore.Hbond.Weighted>
-7.9604

> <Gold.Chemscore.Metal.Weighted>
-0.0000

> <Gold.Chemscore.Lipo.Weighted>
-6.2025

> <Gold.Chemscore.Internal_Hbond.Weighted>
0.0000

> <Gold.Chemscore.DEClash.Weighted>
0.2386

> <Gold.Chemscore.DEInternal.Weighted>
2.6999

> <Gold.Chemscore.Rot.Weighted>
4.8788

> <Gold.Chemscore.Internal.Correction.Weighted>
   9.000000E+99

> <Gold.Protein.RotatedTorsions>
[ 6907 6896 6895 6894 ] final   70.48 input  -60.11 | X-H torsion
[ 7974 7965 7964 7962 ] final   95.71 input  175.53 | X-H torsion
[ 8008 7997 7996 7995 ] final  125.71 input   59.86 | X-H torsion
[ 10167 10162 10161 10158 ] final  -27.05 input  -65.29 | X-H torsion
[ 10718 10713 10712 10709 ] final  138.50 input   66.30 | X-H torsion
[ 10763 10752 10751 10750 ] final -168.60 input  -60.55 | X-H torsion
[ 11005 11000 10999 10996 ] final  108.73 input  -57.11 | X-H torsion

> <Gold.Protein.ActiveResidues>
 VAL166  LYS551  ARG553  GLY616  TRP617  ASP618  TYR619  PRO620  LYS621  CYS622 
 ASP623  PHE694  ASN695  SER759  ASP760  ASP761  ALA762  ILE779  LEU786  VAL792 
 PHE793  MET794  SER795  GLU796  ALA797  LYS798  CYS799  TRP800  GLU811  SER814 

> <Gold.Protein.RotatedAtoms>
  152.4752  134.4862  159.9680 H   0  0  0  0  0  0  0  0  0  0  0  0  # atno 6907 bound_to 6896
  151.4880  133.3525  159.2856 H   0  0  0  0  0  0  0  0  0  0  0  0  # atno 6908 bound_to 6896
  150.8786  134.8200  159.7269 H   0  0  0  0  0  0  0  0  0  0  0  0  # atno 6909 bound_to 6896
  145.4485  139.2295  143.3053 H   0  0  0  0  0  0  0  0  0  0  0  0  # atno 7974 bound_to 7965
  156.2842  140.2710  156.1993 H   0  0  0  0  0  0  0  0  0  0  0  0  # atno 8008 bound_to 7997
  155.0377  140.0386  157.2516 H   0  0  0  0  0  0  0  0  0  0  0  0  # atno 8009 bound_to 7997
  154.7300  140.2705  155.6470 H   0  0  0  0  0  0  0  0  0  0  0  0  # atno 8010 bound_to 7997
  140.7279  143.4126  151.1081 H   0  0  0  0  0  0  0  0  0  0  0  0  # atno 10167 bound_to 10162
  157.4246  131.1042  151.0316 H   0  0  0  0  0  0  0  0  0  0  0  0  # atno 10718 bound_to 10713
  154.6611  135.2925  154.9865 H   0  0  0  0  0  0  0  0  0  0  0  0  # atno 10763 bound_to 10752
  154.0924  135.6589  153.4858 H   0  0  0  0  0  0  0  0  0  0  0  0  # atno 10764 bound_to 10752
  153.0430  135.5223  154.7563 H   0  0  0  0  0  0  0  0  0  0  0  0  # atno 10765 bound_to 10752
  139.8849  134.9439  156.6018 H   0  0  0  0  0  0  0  0  0  0  0  0  # atno 11005 bound_to 11000
  146.2517  140.5241  142.8890 LP  0  0  0  0  0  0  0  0  0  0  0  0  # atno 17320 bound_to 7965
  144.8076  140.6328  143.6436 LP  0  0  0  0  0  0  0  0  0  0  0  0  # atno 17321 bound_to 7965
  139.7761  143.8423  152.3129 LP  0  0  0  0  0  0  0  0  0  0  0  0  # atno 17342 bound_to 10162
  139.8358  144.7233  150.9392 LP  0  0  0  0  0  0  0  0  0  0  0  0  # atno 17343 bound_to 10162
  157.1235  130.6071  149.5511 LP  0  0  0  0  0  0  0  0  0  0  0  0  # atno 17370 bound_to 10713
  155.9892  130.4938  150.7204 LP  0  0  0  0  0  0  0  0  0  0  0  0  # atno 17371 bound_to 10713
  140.7878  133.8607  155.8620 LP  0  0  0  0  0  0  0  0  0  0  0  0  # atno 17394 bound_to 11000
  140.9704  134.1539  157.4581 LP  0  0  0  0  0  0  0  0  0  0  0  0  # atno 17395 bound_to 11000

$$$$
