AV-unprocessed.smi:516|AV-procd|sdf|2784|dock6
  -GOLD-   2262023253D 1   1.00000     0.00000
 Structure written by MMmdl.
 44 46  0  0  0  0  0  0  0  0  1 V2000
  145.7658  143.1179  154.3957 C   0  0  0  0  0  0  0  0  0  0  0  0
  146.3415  141.9254  153.8923 O   0  0  0  0  0  0  0  0  0  0  0  0
  147.7567  141.9335  153.9633 C   0  0  0  0  0  0  0  0  0  0  0  0
  148.1774  141.8404  155.4347 C   0  0  0  0  0  0  0  0  0  0  0  0
  149.4887  141.2219  155.5825 N   0  0  0  0  0  0  0  0  0  0  0  0
  150.5870  141.7384  156.1926 C   0  0  0  0  0  0  0  0  0  0  0  0
  150.6036  143.0967  156.8271 C   0  0  0  0  0  0  0  0  0  0  0  0
  150.9448  143.0829  158.2483 N   0  0  0  0  0  0  0  0  0  0  0  0
  152.1344  142.2837  158.5338 C   0  0  0  0  0  0  0  0  0  0  0  0
  152.4875  142.2995  160.0315 C   0  0  0  0  0  0  0  0  0  0  0  0
  152.6538  143.6437  160.4711 O   0  0  0  0  0  0  0  0  0  0  0  0
  151.4954  144.4420  160.2504 C   0  0  0  0  0  0  0  0  0  0  0  0
  151.1445  144.4359  158.7529 C   0  0  0  0  0  0  0  0  0  0  0  0
  151.6567  140.9358  156.1717 N   0  0  0  0  0  0  0  0  0  0  0  0
  151.1979  139.8188  155.4889 C   0  0  0  0  0  0  0  0  0  0  0  0
  149.9024  139.9744  155.1207 C   0  0  0  0  0  0  0  0  0  0  0  0
  149.1672  138.9518  154.3676 C   0  0  0  0  0  0  0  0  0  0  0  0
  147.9970  139.0808  154.0147 O   0  0  0  0  0  0  0  0  0  0  0  0
  149.9155  137.8543  154.0977 N   0  0  0  0  0  0  0  0  0  0  0  0
  151.2209  137.6303  154.4433 C   0  0  0  0  0  0  0  0  0  0  0  0
  151.7629  136.5730  154.1229 O   0  0  0  0  0  0  0  0  0  0  0  0
  151.8731  138.6157  155.1432 N   0  0  0  0  0  0  0  0  0  0  0  0
  153.2692  138.4757  155.5619 C   0  0  0  0  0  0  0  0  0  0  0  0
  149.4581  137.1177  153.5807 H   0  0  0  0  0  0  0  0  0  0  0  0
  144.6800  143.0612  154.3194 H   0  0  0  0  0  0  0  0  0  0  0  0
  146.0984  143.9869  153.8266 H   0  0  0  0  0  0  0  0  0  0  0  0
  146.0224  143.2670  155.4453 H   0  0  0  0  0  0  0  0  0  0  0  0
  148.1642  141.0925  153.3999 H   0  0  0  0  0  0  0  0  0  0  0  0
  148.1471  142.8499  153.5178 H   0  0  0  0  0  0  0  0  0  0  0  0
  148.1910  142.8335  155.8823 H   0  0  0  0  0  0  0  0  0  0  0  0
  147.4473  141.2697  156.0080 H   0  0  0  0  0  0  0  0  0  0  0  0
  151.3013  143.7335  156.2808 H   0  0  0  0  0  0  0  0  0  0  0  0
  149.6172  143.5408  156.6891 H   0  0  0  0  0  0  0  0  0  0  0  0
  151.9813  141.2513  158.2186 H   0  0  0  0  0  0  0  0  0  0  0  0
  152.9813  142.6629  157.9598 H   0  0  0  0  0  0  0  0  0  0  0  0
  151.7061  141.8127  160.6171 H   0  0  0  0  0  0  0  0  0  0  0  0
  153.4116  141.7494  160.2094 H   0  0  0  0  0  0  0  0  0  0  0  0
  150.6629  144.0605  160.8437 H   0  0  0  0  0  0  0  0  0  0  0  0
  151.6925  145.4588  160.5902 H   0  0  0  0  0  0  0  0  0  0  0  0
  151.9429  144.9257  158.1929 H   0  0  0  0  0  0  0  0  0  0  0  0
  150.2425  145.0275  158.5925 H   0  0  0  0  0  0  0  0  0  0  0  0
  153.7301  137.5327  155.2660 H   0  0  0  0  0  0  0  0  0  0  0  0
  153.3399  138.5461  156.6478 H   0  0  0  0  0  0  0  0  0  0  0  0
  153.8682  139.2801  155.1339 H   0  0  0  0  0  0  0  0  0  0  0  0
  1  2  1  0  0  0  0
  1 25  1  0  0  0  0
  1 26  1  0  0  0  0
  1 27  1  0  0  0  0
  2  3  1  0  0  0  0
  3  4  1  0  0  0  0
  3 28  1  0  0  0  0
  3 29  1  0  0  0  0
  4  5  1  0  0  0  0
  4 30  1  0  0  0  0
  4 31  1  0  0  0  0
  5 16  1  0  0  0  0
  5  6  1  0  0  0  0
  6  7  1  0  0  0  0
  6 14  2  0  0  0  0
  7  8  1  0  0  0  0
  7 32  1  0  0  0  0
  7 33  1  0  0  0  0
  8 13  1  0  0  0  0
  8  9  1  0  0  0  0
  9 10  1  0  0  0  0
  9 34  1  0  0  0  0
  9 35  1  0  0  0  0
 10 11  1  0  0  0  0
 10 36  1  0  0  0  0
 10 37  1  0  0  0  0
 11 12  1  0  0  0  0
 12 13  1  0  0  0  0
 12 38  1  0  0  0  0
 12 39  1  0  0  0  0
 13 40  1  0  0  0  0
 13 41  1  0  0  0  0
 14 15  1  0  0  0  0
 15 22  1  0  0  0  0
 15 16  2  0  0  0  0
 16 17  1  0  0  0  0
 17 18  2  0  0  0  0
 17 19  1  0  0  0  0
 19 24  1  0  0  0  0
 19 20  1  0  0  0  0
 20 21  2  0  0  0  0
 20 22  1  0  0  0  0
 22 23  1  0  0  0  0
 23 42  1  0  0  0  0
 23 43  1  0  0  0  0
 23 44  1  0  0  0  0
M  END
> <s_m_source_file>
AV-unprocessed.smi

> <i_m_source_file_index>
516

> <i_lp_mmshare_version>
43012

> <i_f3d_flags>
0

> <s_epik_input>
W0NIM11uMWMoPU8pW25IXWMoPU8pYyhjMTIpbihbQ0gyXVtDSDJdT1tDSDNdKWMobjIpW0NIMl1OM1tDSDJdW0NIMl1PW0NIMl1bQ0gyXTM=

> <s_epik_cmdline>
J2VwaWtfcHl0aG9uJywgJy1waCcsICc3LjAnLCAnLXRuJywgJzgnLCAnLW1hJywgJzIwMCcsICctbWV0YWxfYmluZGluZycsICctaW1hZScsICc8aW5maWxlLm1hZT4nLCAnLW9tYWUnLCAnPG91dGZpbGUubWFlPic=

> <r_epik_Ionization_Penalty>
0.0972048

> <r_epik_Ionization_Penalty_Charging>
0.000199653

> <r_epik_Ionization_Penalty_Neutral>
0.0970052

> <r_epik_State_Penalty>
0.0871068

> <r_epik_Charging_Adjusted_Penalty>
0.0873064

> <i_epik_Tot_Q>
0

> <i_epik_Tot_abs_Q>
0

> <r_epik_Metal_State_Penalty>
0.236525

> <b_epik_Metal_Only>
0

> <s_lp_Force_Field>
OPLS_2005

> <r_lp_Energy>
41.4517

> <b_lp_Chiralities_Consistent>
1

> <s_lp_Variant>
AV-unprocessed.smi:516-1

> <Gold.Version>
5.8.1

> <Gold.Id.Protein>
6NUR|6NUR_protein|mol2

> <Gold.PLP.Fitness>
45.5982

> <Gold.PLP.PLP>
-40.0935

> <Gold.PLP.part.hbond>
-1.8831

> <Gold.PLP.part.metal>
0.0000

> <Gold.PLP.part.buried>
1.4681

> <Gold.PLP.part.nonpolar>
-42.8063

> <Gold.PLP.part.repulsive>
3.2667

> <Gold.PLP.ligand.clash>
0.0000

> <Gold.PLP.ligand.torsion>
0.2535

> <Gold.PLP.Chemscore.Hbond>
2.0000

> <Gold.PLP.Chemscore.CHOScore>
0.0000

> <Gold.PLP.Chemscore.Metal>
0.0000

> <Gold.Chemscore.Hbonds>
donor molecule, donor type, donor heavy atom, donor atom, acceptor molecule, acceptor atom, score
      L1  H    19    24       P1  7948  1.00
      P1  H 10752 10765       L1    21  1.00

> <Gold.PLP.Chemscore.Internal.Correction>
0.0117

> <Gold.Rescore>
     Score         DG    S(hbond)    S(metal)    S(lipo)     H(rot)  DE(clash)    DE(int)     intcor
     10.27     -16.10       1.88        0.00      81.72       2.04       3.11       2.73       ----

> <Gold.Chemscore.Fitness>
10.2664

> <Gold.Chemscore.DG>
-16.0996

> <Gold.Chemscore.ZeroCoef>
-5.4800

> <Gold.Chemscore.Hbond>
1.8832

> <Gold.Chemscore.Metal>
0.0000

> <Gold.Chemscore.Lipo>
81.7234

> <Gold.Chemscore.Internal_Hbond>
0.0000

> <Gold.Chemscore.DEClash>
3.1061

> <Gold.Chemscore.DEInternal>
2.7271

> <Gold.Chemscore.Rot>
2.0437

> <Gold.Chemscore.Internal.Correction>
   9.000000E+99

> <Gold.Chemscore.Hbonds>
donor molecule, donor type, donor heavy atom, donor atom, acceptor molecule, acceptor atom, score
      L1  H    19    24       P1  7948  0.86
      P1  H 10752 10765       L1    21  0.92

> <Gold.Chemscore.Hbond.Weighted>
-6.2898

> <Gold.Chemscore.Metal.Weighted>
-0.0000

> <Gold.Chemscore.Lipo.Weighted>
-9.5616

> <Gold.Chemscore.Internal_Hbond.Weighted>
0.0000

> <Gold.Chemscore.DEClash.Weighted>
3.1061

> <Gold.Chemscore.DEInternal.Weighted>
2.7271

> <Gold.Chemscore.Rot.Weighted>
5.2319

> <Gold.Chemscore.Internal.Correction.Weighted>
   9.000000E+99

> <Gold.Protein.RotatedTorsions>
[ 6907 6896 6895 6894 ] final -156.30 input  -60.11 | X-H torsion
[ 7974 7965 7964 7962 ] final  115.15 input  175.53 | X-H torsion
[ 8008 7997 7996 7995 ] final  155.23 input   59.86 | X-H torsion
[ 10167 10162 10161 10158 ] final  120.02 input  -65.29 | X-H torsion
[ 10718 10713 10712 10709 ] final   47.08 input   66.30 | X-H torsion
[ 10763 10752 10751 10750 ] final  140.32 input  -60.55 | X-H torsion
[ 11005 11000 10999 10996 ] final -170.29 input  -57.11 | X-H torsion

> <Gold.Protein.ActiveResidues>
 VAL166  LYS551  ARG553  GLY616  TRP617  ASP618  TYR619  PRO620  LYS621  CYS622 
 ASP623  PHE694  ASN695  SER759  ASP760  ASP761  ALA762  ILE779  LEU786  VAL792 
 PHE793  MET794  SER795  GLU796  ALA797  LYS798  CYS799  TRP800  GLU811  SER814 

> <Gold.Protein.RotatedAtoms>
  151.2855  133.4189  159.2629 H   0  0  0  0  0  0  0  0  0  0  0  0  # atno 6907 bound_to 6896
  151.0323  134.9548  159.8128 H   0  0  0  0  0  0  0  0  0  0  0  0  # atno 6908 bound_to 6896
  152.5348  134.2815  159.9062 H   0  0  0  0  0  0  0  0  0  0  0  0  # atno 6909 bound_to 6896
  145.1955  139.2978  143.4345 H   0  0  0  0  0  0  0  0  0  0  0  0  # atno 7974 bound_to 7965
  156.2489  140.1945  156.6769 H   0  0  0  0  0  0  0  0  0  0  0  0  # atno 8008 bound_to 7997
  154.6350  140.0591  156.9804 H   0  0  0  0  0  0  0  0  0  0  0  0  # atno 8009 bound_to 7997
  155.1650  140.3263  155.4406 H   0  0  0  0  0  0  0  0  0  0  0  0  # atno 8010 bound_to 7997
  139.6009  144.7056  151.3066 H   0  0  0  0  0  0  0  0  0  0  0  0  # atno 10167 bound_to 10162
  157.4548  130.8160  149.7825 H   0  0  0  0  0  0  0  0  0  0  0  0  # atno 10718 bound_to 10713
  153.9208  135.3001  155.3447 H   0  0  0  0  0  0  0  0  0  0  0  0  # atno 10763 bound_to 10752
  154.7576  135.4950  153.9407 H   0  0  0  0  0  0  0  0  0  0  0  0  # atno 10764 bound_to 10752
  153.1143  135.6767  153.9549 H   0  0  0  0  0  0  0  0  0  0  0  0  # atno 10765 bound_to 10752
  140.5212  134.5707  157.5048 H   0  0  0  0  0  0  0  0  0  0  0  0  # atno 11005 bound_to 11000
  146.3428  140.2183  142.8591 LP  0  0  0  0  0  0  0  0  0  0  0  0  # atno 17320 bound_to 7965
  144.9999  140.8622  143.5288 LP  0  0  0  0  0  0  0  0  0  0  0  0  # atno 17321 bound_to 7965
  140.7248  143.7033  150.7827 LP  0  0  0  0  0  0  0  0  0  0  0  0  # atno 17342 bound_to 10162
  140.0609  143.5155  152.2628 LP  0  0  0  0  0  0  0  0  0  0  0  0  # atno 17343 bound_to 10162
  156.0002  130.3884  150.2634 LP  0  0  0  0  0  0  0  0  0  0  0  0  # atno 17370 bound_to 10713
  157.0808  131.0143  151.3157 LP  0  0  0  0  0  0  0  0  0  0  0  0  # atno 17371 bound_to 10713
  139.9605  134.7461  156.0248 LP  0  0  0  0  0  0  0  0  0  0  0  0  # atno 17394 bound_to 11000
  141.1333  133.6581  156.3524 LP  0  0  0  0  0  0  0  0  0  0  0  0  # atno 17395 bound_to 11000

$$$$
