AV-unprocessed.smi:1065|AV-procd|sdf|4666|dock3
  -GOLD-   22720 3173D 1   1.00000     0.00000
 Structure written by MMmdl.
 39 40  0  0  0  0  0  0  0  0  1 V2000
  151.2904  145.2358  159.1884 C   0  0  0  0  0  0  0  0  0  0  0  0
  151.8266  144.1118  160.0861 C   0  0  0  0  0  0  0  0  0  0  0  0
  152.4075  142.9102  159.3125 C   0  0  2  0  0  0  0  0  0  0  0  0
  151.2991  142.1681  158.5397 C   0  0  0  0  0  0  0  0  0  0  0  0
  151.8517  140.9696  157.7514 C   0  0  0  0  0  0  0  0  0  0  0  0
  152.6004  139.9803  158.6699 C   0  0  1  0  0  0  0  0  0  0  0  0
  153.1794  138.7784  157.8992 C   0  0  0  0  0  0  0  0  0  0  0  0
  152.3105  138.3794  156.8002 N   0  0  0  0  0  0  0  0  0  0  0  0
  152.6435  138.4482  155.5035 C   0  0  0  0  0  0  0  0  0  0  0  0
  153.7403  138.8379  155.1041 O   0  0  0  0  0  0  0  0  0  0  0  0
  151.5726  138.0174  154.5016 C   0  0  0  0  0  0  0  0  0  0  0  0
  150.5130  139.0048  154.4227 N   0  0  0  0  0  0  0  0  0  0  0  0
  149.2517  138.9048  153.9983 C   0  0  0  0  0  0  0  0  0  0  0  0
  148.6155  140.0636  154.0801 N   0  0  0  0  0  0  0  0  0  0  0  0
  149.5788  140.9165  154.5929 N   0  0  0  0  0  0  0  0  0  0  0  0
  150.7071  140.2941  154.7980 N   0  0  0  0  0  0  0  0  0  0  0  0
  153.7077  140.7203  159.4441 C   0  0  0  0  0  0  0  0  0  0  0  0
  153.1544  141.9196  160.2305 C   0  0  0  0  0  0  0  0  0  0  0  0
  150.8205  146.0155  159.7882 H   0  0  0  0  0  0  0  0  0  0  0  0
  150.5424  144.8604  158.4897 H   0  0  0  0  0  0  0  0  0  0  0  0
  152.0860  145.7061  158.6113 H   0  0  0  0  0  0  0  0  0  0  0  0
  152.5778  144.5150  160.7662 H   0  0  0  0  0  0  0  0  0  0  0  0
  151.0063  143.7649  160.7157 H   0  0  0  0  0  0  0  0  0  0  0  0
  153.1176  143.2964  158.5797 H   0  0  0  0  0  0  0  0  0  0  0  0
  150.5336  141.8216  159.2355 H   0  0  0  0  0  0  0  0  0  0  0  0
  150.8011  142.8524  157.8521 H   0  0  0  0  0  0  0  0  0  0  0  0
  151.0269  140.4698  157.2428 H   0  0  0  0  0  0  0  0  0  0  0  0
  152.5229  141.3267  156.9690 H   0  0  0  0  0  0  0  0  0  0  0  0
  151.8873  139.5940  159.4002 H   0  0  0  0  0  0  0  0  0  0  0  0
  154.1682  139.0245  157.5080 H   0  0  0  0  0  0  0  0  0  0  0  0
  153.3052  137.9297  158.5734 H   0  0  0  0  0  0  0  0  0  0  0  0
  151.3864  138.0503  157.0412 H   0  0  0  0  0  0  0  0  0  0  0  0
  152.0134  137.8961  153.5111 H   0  0  0  0  0  0  0  0  0  0  0  0
  151.1520  137.0523  154.7886 H   0  0  0  0  0  0  0  0  0  0  0  0
  148.8059  137.9927  153.6294 H   0  0  0  0  0  0  0  0  0  0  0  0
  154.2034  140.0342  160.1319 H   0  0  0  0  0  0  0  0  0  0  0  0
  154.4749  141.0659  158.7498 H   0  0  0  0  0  0  0  0  0  0  0  0
  153.9811  142.4179  160.7363 H   0  0  0  0  0  0  0  0  0  0  0  0
  152.4836  141.5632  161.0133 H   0  0  0  0  0  0  0  0  0  0  0  0
  1  2  1  0  0  0  0
  1 19  1  0  0  0  0
  1 20  1  0  0  0  0
  1 21  1  0  0  0  0
  2  3  1  0  0  0  0
  2 22  1  0  0  0  0
  2 23  1  0  0  0  0
  3 18  1  0  0  0  0
  3  4  1  0  0  0  0
  3 24  1  0  0  0  0
  4  5  1  0  0  0  0
  4 25  1  0  0  0  0
  4 26  1  0  0  0  0
  5  6  1  0  0  0  0
  5 27  1  0  0  0  0
  5 28  1  0  0  0  0
  6  7  1  0  0  0  0
  6 17  1  0  0  0  0
  6 29  1  0  0  0  0
  7  8  1  0  0  0  0
  7 30  1  0  0  0  0
  7 31  1  0  0  0  0
  8  9  1  0  0  0  0
  8 32  1  0  0  0  0
  9 10  2  0  0  0  0
  9 11  1  0  0  0  0
 11 12  1  0  0  0  0
 11 33  1  0  0  0  0
 11 34  1  0  0  0  0
 12 16  1  0  0  0  0
 12 13  1  0  0  0  0
 13 14  2  0  0  0  0
 13 35  1  0  0  0  0
 14 15  1  0  0  0  0
 15 16  2  0  0  0  0
 17 18  1  0  0  0  0
 17 36  1  0  0  0  0
 17 37  1  0  0  0  0
 18 38  1  0  0  0  0
 18 39  1  0  0  0  0
M  END
> <s_m_source_file>
AV-unprocessed.smi

> <i_m_source_file_index>
1065

> <i_lp_mmshare_version>
43012

> <i_f3d_flags>
0

> <s_epik_input>
W0NIM11bQ0gyXVtDQEBIXTFbQ0gyXVtDSDJdW0NASF0oW0NIMl1bQ0gyXTEpW0NIMl1bTkhdQyg9TylbQ0gyXW4yW2NIXW5ubjI=

> <s_epik_cmdline>
J2VwaWtfcHl0aG9uJywgJy1waCcsICc3LjAnLCAnLXRuJywgJzgnLCAnLW1hJywgJzIwMCcsICctbWV0YWxfYmluZGluZycsICctaW1hZScsICc8aW5maWxlLm1hZT4nLCAnLW9tYWUnLCAnPG91dGZpbGUubWFlPic=

> <r_lp_tautomer_probability>
1

> <r_epik_Ionization_Penalty>
4.54759e-07

> <r_epik_Ionization_Penalty_Charging>
0

> <r_epik_Ionization_Penalty_Neutral>
4.54759e-07

> <r_epik_State_Penalty>
-0

> <r_epik_Charging_Adjusted_Penalty>
0

> <i_epik_Tot_Q>
0

> <i_epik_Tot_abs_Q>
0

> <r_epik_Metal_State_Penalty>
-0

> <b_epik_Metal_Only>
0

> <s_lp_Force_Field>
OPLS_2005

> <r_lp_Energy>
13.9446

> <b_lp_Chiralities_Consistent>
1

> <s_lp_Variant>
AV-unprocessed.smi:1065-1

> <Gold.Version>
5.8.1

> <Gold.Id.Protein>
6NUR|6NUR_protein|mol2

> <Gold.PLP.Fitness>
46.5378

> <Gold.PLP.PLP>
-39.3493

> <Gold.PLP.part.hbond>
-2.8335

> <Gold.PLP.part.metal>
0.0000

> <Gold.PLP.part.buried>
-5.4081

> <Gold.PLP.part.nonpolar>
-32.2228

> <Gold.PLP.part.repulsive>
0.5580

> <Gold.PLP.ligand.clash>
0.0000

> <Gold.PLP.ligand.torsion>
0.7359

> <Gold.PLP.Chemscore.Hbond>
1.8960

> <Gold.PLP.Chemscore.CHOScore>
0.9830

> <Gold.PLP.Chemscore.Metal>
0.0000

> <Gold.Chemscore.Hbonds>
donor molecule, donor type, donor heavy atom, donor atom, acceptor molecule, acceptor atom, score
      P1  H  7989  7998       L1    16  1.00
      P1  H  7997  8010       L1    10  0.90
      L1  C    13    35       P1  7948  1.00

> <Gold.PLP.Chemscore.Internal.Correction>
0.0234

> <Gold.Rescore>
     Score         DG    S(hbond)    S(metal)    S(lipo)     H(rot)  DE(clash)    DE(int)     intcor
     15.11     -15.89       1.85        0.00      89.79       2.45       0.09       0.69       ----

> <Gold.Chemscore.Fitness>
15.1101

> <Gold.Chemscore.DG>
-15.8850

> <Gold.Chemscore.ZeroCoef>
-5.4800

> <Gold.Chemscore.Hbond>
1.8487

> <Gold.Chemscore.Metal>
0.0000

> <Gold.Chemscore.Lipo>
89.7894

> <Gold.Chemscore.Internal_Hbond>
0.0000

> <Gold.Chemscore.DEClash>
0.0885

> <Gold.Chemscore.DEInternal>
0.6864

> <Gold.Chemscore.Rot>
2.4512

> <Gold.Chemscore.Internal.Correction>
   9.000000E+99

> <Gold.Chemscore.Hbonds>
donor molecule, donor type, donor heavy atom, donor atom, acceptor molecule, acceptor atom, score
      P1  H  7989  7998       L1    16  0.09
      P1  H  7997  8010       L1    10  0.85

> <Gold.Chemscore.Hbond.Weighted>
-6.1747

> <Gold.Chemscore.Metal.Weighted>
-0.0000

> <Gold.Chemscore.Lipo.Weighted>
-10.5054

> <Gold.Chemscore.Internal_Hbond.Weighted>
0.0000

> <Gold.Chemscore.DEClash.Weighted>
0.0885

> <Gold.Chemscore.DEInternal.Weighted>
0.6864

> <Gold.Chemscore.Rot.Weighted>
6.2750

> <Gold.Chemscore.Internal.Correction.Weighted>
   9.000000E+99

> <Gold.Protein.RotatedTorsions>
[ 6907 6896 6895 6894 ] final  -21.13 input  -60.11 | X-H torsion
[ 7974 7965 7964 7962 ] final -111.29 input  175.53 | X-H torsion
[ 8008 7997 7996 7995 ] final  105.29 input   59.86 | X-H torsion
[ 10167 10162 10161 10158 ] final  -11.26 input  -65.29 | X-H torsion
[ 10718 10713 10712 10709 ] final  -59.98 input   66.30 | X-H torsion
[ 10763 10752 10751 10750 ] final  -54.49 input  -60.55 | X-H torsion
[ 11005 11000 10999 10996 ] final   25.90 input  -57.11 | X-H torsion

> <Gold.Protein.ActiveResidues>
 VAL166  LYS551  ARG553  GLY616  TRP617  ASP618  TYR619  PRO620  LYS621  CYS622 
 ASP623  PHE694  ASN695  SER759  ASP760  ASP761  ALA762  ILE779  LEU786  VAL792 
 PHE793  MET794  SER795  GLU796  ALA797  LYS798  CYS799  TRP800  GLU811  SER814 

> <Gold.Protein.RotatedAtoms>
  151.2379  135.0578  159.9013 H   0  0  0  0  0  0  0  0  0  0  0  0  # atno 6907 bound_to 6896
  152.5397  134.0466  159.8101 H   0  0  0  0  0  0  0  0  0  0  0  0  # atno 6908 bound_to 6896
  151.0656  133.5459  159.2662 H   0  0  0  0  0  0  0  0  0  0  0  0  # atno 6909 bound_to 6896
  145.1579  140.8863  143.3608 H   0  0  0  0  0  0  0  0  0  0  0  0  # atno 7974 bound_to 7965
  156.1646  140.3133  155.8867 H   0  0  0  0  0  0  0  0  0  0  0  0  # atno 8008 bound_to 7997
  155.3712  140.0482  157.3062 H   0  0  0  0  0  0  0  0  0  0  0  0  # atno 8009 bound_to 7997
  154.5180  140.2188  155.9040 H   0  0  0  0  0  0  0  0  0  0  0  0  # atno 8010 bound_to 7997
  140.7134  143.5659  150.9145 H   0  0  0  0  0  0  0  0  0  0  0  0  # atno 10167 bound_to 10162
  156.1023  130.4185  150.0790 H   0  0  0  0  0  0  0  0  0  0  0  0  # atno 10718 bound_to 10713
  154.1756  135.6452  153.5020 H   0  0  0  0  0  0  0  0  0  0  0  0  # atno 10763 bound_to 10752
  153.0073  135.5394  154.6567 H   0  0  0  0  0  0  0  0  0  0  0  0  # atno 10764 bound_to 10752
  154.5918  135.2935  155.0600 H   0  0  0  0  0  0  0  0  0  0  0  0  # atno 10765 bound_to 10752
  140.3428  134.2314  155.7688 H   0  0  0  0  0  0  0  0  0  0  0  0  # atno 11005 bound_to 11000
  145.0362  139.3299  143.6000 LP  0  0  0  0  0  0  0  0  0  0  0  0  # atno 17320 bound_to 7965
  146.3486  139.9718  142.8705 LP  0  0  0  0  0  0  0  0  0  0  0  0  # atno 17321 bound_to 7965
  139.9384  143.6410  152.3059 LP  0  0  0  0  0  0  0  0  0  0  0  0  # atno 17342 bound_to 10162
  139.6886  144.7649  151.1479 LP  0  0  0  0  0  0  0  0  0  0  0  0  # atno 17343 bound_to 10162
  156.8774  130.9545  151.3603 LP  0  0  0  0  0  0  0  0  0  0  0  0  # atno 17370 bound_to 10713
  157.6195  130.8644  149.9084 LP  0  0  0  0  0  0  0  0  0  0  0  0  # atno 17371 bound_to 10713
  141.2034  133.7914  157.0343 LP  0  0  0  0  0  0  0  0  0  0  0  0  # atno 17394 bound_to 11000
  140.0767  134.9671  157.1557 LP  0  0  0  0  0  0  0  0  0  0  0  0  # atno 17395 bound_to 11000

$$$$
