AV-unprocessed.smi:38|AV-procd|sdf|342|dock10
  -GOLD-   2262016183D 1   1.00000     0.00000
 Structure written by MMmdl.
 28 29  0  0  0  0  0  0  0  0  1 V2000
  151.7197  137.0761  159.3901 O   0  0  0  0  0  0  0  0  0  0  0  0
  151.3705  137.7509  158.4234 C   0  0  0  0  0  0  0  0  0  0  0  0
  152.3231  138.2259  157.5170 N   0  0  0  0  0  0  0  0  0  0  0  0
  152.0541  139.0006  156.3868 C   0  0  0  0  0  0  0  0  0  0  0  0
  152.9798  139.3722  155.6670 O   0  0  0  0  0  0  0  0  0  0  0  0
  150.7017  139.3271  156.1374 N   0  0  0  0  0  0  0  0  0  0  0  0
  150.3319  140.1531  154.9266 C   0  0  2  0  0  0  0  0  0  0  0  0
  149.7381  141.5026  155.3434 C   0  0  0  0  0  0  0  0  0  0  0  0
  148.2651  141.3250  155.0247 C   0  0  1  0  0  0  0  0  0  0  0  0
  147.6753  142.5596  154.6721 O   0  0  0  0  0  0  0  0  0  0  0  0
  148.2961  140.3368  153.8554 C   0  0  2  0  0  0  0  0  0  0  0  0
  146.9957  139.5346  153.6945 C   0  0  0  0  0  0  0  0  0  0  0  0
  145.8807  140.3924  153.8074 O   0  0  0  0  0  0  0  0  0  0  0  0
  149.3630  139.4589  154.2011 O   0  0  0  0  0  0  0  0  0  0  0  0
  149.7220  138.8776  157.0124 C   0  0  0  0  0  0  0  0  0  0  0  0
  149.9965  138.1291  158.1065 C   0  0  0  0  0  0  0  0  0  0  0  0
  148.9930  137.7310  158.9067 F   0  0  0  0  0  0  0  0  0  0  0  0
  153.2883  137.9902  157.6961 H   0  0  0  0  0  0  0  0  0  0  0  0
  151.2208  140.2566  154.3033 H   0  0  0  0  0  0  0  0  0  0  0  0
  147.7445  140.8950  155.8811 H   0  0  0  0  0  0  0  0  0  0  0  0
  148.5558  140.8653  152.9358 H   0  0  0  0  0  0  0  0  0  0  0  0
  149.9356  141.7386  156.3900 H   0  0  0  0  0  0  0  0  0  0  0  0
  150.1866  142.2771  154.7193 H   0  0  0  0  0  0  0  0  0  0  0  0
  148.2301  143.2593  154.9818 H   0  0  0  0  0  0  0  0  0  0  0  0
  146.9728  139.0025  152.7429 H   0  0  0  0  0  0  0  0  0  0  0  0
  146.9138  138.7881  154.4851 H   0  0  0  0  0  0  0  0  0  0  0  0
  145.2906  140.2156  153.0907 H   0  0  0  0  0  0  0  0  0  0  0  0
  148.6892  139.1284  156.8212 H   0  0  0  0  0  0  0  0  0  0  0  0
  1  2  2  0  0  0  0
  2 16  1  0  0  0  0
  2  3  1  0  0  0  0
  3 18  1  0  0  0  0
  3  4  1  0  0  0  0
  4  5  2  0  0  0  0
  4  6  1  0  0  0  0
  6  7  1  0  0  0  0
  6 15  1  0  0  0  0
  7 19  1  0  0  0  0
  7 14  1  0  0  0  0
  7  8  1  0  0  0  0
  8  9  1  0  0  0  0
  8 22  1  0  0  0  0
  8 23  1  0  0  0  0
  9 20  1  0  0  0  0
  9 10  1  0  0  0  0
  9 11  1  0  0  0  0
 10 24  1  0  0  0  0
 11 21  1  0  0  0  0
 11 12  1  0  0  0  0
 11 14  1  0  0  0  0
 12 13  1  0  0  0  0
 12 25  1  0  0  0  0
 12 26  1  0  0  0  0
 13 27  1  0  0  0  0
 15 16  2  0  0  0  0
 15 28  1  0  0  0  0
 16 17  1  0  0  0  0
M  END
> <s_m_source_file>
AV-unprocessed.smi

> <i_m_source_file_index>
38

> <i_lp_mmshare_version>
43012

> <i_f3d_flags>
0

> <s_epik_input>
Tz1jMVtuSF1jKD1PKW4oW2NIXWMxRilbQ0BIXTJbQ0gyXVtDQEhdKFtPSF0pW0NASF0oTzIpW0NIMl1bT0hd

> <s_epik_cmdline>
J2VwaWtfcHl0aG9uJywgJy1waCcsICc3LjAnLCAnLXRuJywgJzgnLCAnLW1hJywgJzIwMCcsICctbWV0YWxfYmluZGluZycsICctaW1hZScsICc8aW5maWxlLm1hZT4nLCAnLW9tYWUnLCAnPG91dGZpbGUubWFlPic=

> <r_lp_tautomer_probability>
0.999537

> <r_epik_Ionization_Penalty>
0.0357432

> <r_epik_Ionization_Penalty_Charging>
0.0357431

> <r_epik_Ionization_Penalty_Neutral>
1.19946e-07

> <r_epik_State_Penalty>
0.0298169

> <r_epik_Charging_Adjusted_Penalty>
0.06556

> <i_epik_Tot_Q>
0

> <i_epik_Tot_abs_Q>
0

> <r_epik_Metal_State_Penalty>
2.348

> <b_epik_Metal_Only>
0

> <s_epik_Chemistry_Notes>
This compound contains an acetal/aminal-like group ( X-CH(R)-Y where X, Y are N, S, or O) that may be acid/base labile, releasing an aldehyde.

> <s_lp_Force_Field>
OPLS_2005

> <r_lp_Energy>
27.0037

> <b_lp_Chiralities_Consistent>
1

> <s_lp_Variant>
AV-unprocessed.smi:38-8

> <Gold.Version>
5.8.1

> <Gold.Id.Protein>
6NUR|6NUR_protein|mol2

> <Gold.PLP.Fitness>
34.6204

> <Gold.PLP.PLP>
-23.0300

> <Gold.PLP.part.hbond>
-4.0000

> <Gold.PLP.part.metal>
0.0000

> <Gold.PLP.part.buried>
-2.1949

> <Gold.PLP.part.nonpolar>
-17.2022

> <Gold.PLP.part.repulsive>
0.5160

> <Gold.PLP.ligand.clash>
0.0000

> <Gold.PLP.ligand.torsion>
0.2093

> <Gold.PLP.Chemscore.Hbond>
4.0000

> <Gold.PLP.Chemscore.CHOScore>
0.0000

> <Gold.PLP.Chemscore.Metal>
0.0000

> <Gold.Chemscore.Hbonds>
donor molecule, donor type, donor heavy atom, donor atom, acceptor molecule, acceptor atom, score
      L1  H    10    24       P1  8028  1.00
      L1  H    13    27       P1 10175  0.90
      P1  H  6896  6909       L1     1  0.98
      P1  H  7997  8009       L1     5  1.00

> <Gold.PLP.Chemscore.Internal.Correction>
0.0091

> <Gold.Rescore>
     Score         DG    S(hbond)    S(metal)    S(lipo)     H(rot)  DE(clash)    DE(int)     intcor
     14.35     -14.67       3.96        0.00      29.18       2.91       0.02       0.29       ----

> <Gold.Chemscore.Fitness>
14.3540

> <Gold.Chemscore.DG>
-14.6672

> <Gold.Chemscore.ZeroCoef>
-5.4800

> <Gold.Chemscore.Hbond>
3.9622

> <Gold.Chemscore.Metal>
0.0000

> <Gold.Chemscore.Lipo>
29.1759

> <Gold.Chemscore.Internal_Hbond>
0.0000

> <Gold.Chemscore.DEClash>
0.0207

> <Gold.Chemscore.DEInternal>
0.2925

> <Gold.Chemscore.Rot>
2.9141

> <Gold.Chemscore.Internal.Correction>
   9.000000E+99

> <Gold.Chemscore.Hbonds>
donor molecule, donor type, donor heavy atom, donor atom, acceptor molecule, acceptor atom, score
      L1  H    10    24       P1  8028  0.97
      L1  H    13    27       P1 10175  0.87
      P1  H  6896  6909       L1     1  0.88
      P1  H  7997  8009       L1     5  0.97

> <Gold.Chemscore.Hbond.Weighted>
-13.2337

> <Gold.Chemscore.Metal.Weighted>
-0.0000

> <Gold.Chemscore.Lipo.Weighted>
-3.4136

> <Gold.Chemscore.Internal_Hbond.Weighted>
0.0000

> <Gold.Chemscore.DEClash.Weighted>
0.0207

> <Gold.Chemscore.DEInternal.Weighted>
0.2925

> <Gold.Chemscore.Rot.Weighted>
7.4601

> <Gold.Chemscore.Internal.Correction.Weighted>
   9.000000E+99

> <Gold.Protein.RotatedTorsions>
[ 6907 6896 6895 6894 ] final  133.95 input  -60.11 | X-H torsion
[ 7974 7965 7964 7962 ] final  175.95 input  175.53 | X-H torsion
[ 8008 7997 7996 7995 ] final -163.97 input   59.86 | X-H torsion
[ 10167 10162 10161 10158 ] final   70.07 input  -65.29 | X-H torsion
[ 10718 10713 10712 10709 ] final  -98.49 input   66.30 | X-H torsion
[ 10763 10752 10751 10750 ] final   90.94 input  -60.55 | X-H torsion
[ 11005 11000 10999 10996 ] final -177.89 input  -57.11 | X-H torsion

> <Gold.Protein.ActiveResidues>
 VAL166  LYS551  ARG553  GLY616  TRP617  ASP618  TYR619  PRO620  LYS621  CYS622 
 ASP623  PHE694  ASN695  SER759  ASP760  ASP761  ALA762  ILE779  LEU786  VAL792 
 PHE793  MET794  SER795  GLU796  ALA797  LYS798  CYS799  TRP800  GLU811  SER814 

> <Gold.Protein.RotatedAtoms>
  152.3166  133.5808  159.5715 H   0  0  0  0  0  0  0  0  0  0  0  0  # atno 6907 bound_to 6896
  150.7349  134.0074  159.3667 H   0  0  0  0  0  0  0  0  0  0  0  0  # atno 6908 bound_to 6896
  151.7962  135.0722  160.0445 H   0  0  0  0  0  0  0  0  0  0  0  0  # atno 6909 bound_to 6896
  144.7192  140.0023  143.6440 H   0  0  0  0  0  0  0  0  0  0  0  0  # atno 7974 bound_to 7965
  155.8289  140.0931  157.1804 H   0  0  0  0  0  0  0  0  0  0  0  0  # atno 8008 bound_to 7997
  154.3979  140.1422  156.3651 H   0  0  0  0  0  0  0  0  0  0  0  0  # atno 8009 bound_to 7997
  155.8187  140.3447  155.5503 H   0  0  0  0  0  0  0  0  0  0  0  0  # atno 8010 bound_to 7997
  140.0609  144.5233  150.7295 H   0  0  0  0  0  0  0  0  0  0  0  0  # atno 10167 bound_to 10162
  156.0109  130.5240  150.6530 H   0  0  0  0  0  0  0  0  0  0  0  0  # atno 10718 bound_to 10713
  153.2029  135.4415  155.0288 H   0  0  0  0  0  0  0  0  0  0  0  0  # atno 10763 bound_to 10752
  154.8157  135.3314  154.7185 H   0  0  0  0  0  0  0  0  0  0  0  0  # atno 10764 bound_to 10752
  153.7628  135.6990  153.4977 H   0  0  0  0  0  0  0  0  0  0  0  0  # atno 10765 bound_to 10752
  140.4359  134.6476  157.4734 H   0  0  0  0  0  0  0  0  0  0  0  0  # atno 11005 bound_to 11000
  146.0325  139.3348  143.0746 LP  0  0  0  0  0  0  0  0  0  0  0  0  # atno 17320 bound_to 7965
  145.8435  140.9568  143.0787 LP  0  0  0  0  0  0  0  0  0  0  0  0  # atno 17321 bound_to 7965
  140.7172  143.2555  151.4396 LP  0  0  0  0  0  0  0  0  0  0  0  0  # atno 17342 bound_to 10162
  139.5894  144.1532  152.2070 LP  0  0  0  0  0  0  0  0  0  0  0  0  # atno 17343 bound_to 10162
  157.4287  131.0846  151.1060 LP  0  0  0  0  0  0  0  0  0  0  0  0  # atno 17370 bound_to 10713
  157.1639  130.6237  149.5619 LP  0  0  0  0  0  0  0  0  0  0  0  0  # atno 17371 bound_to 10713
  140.0103  134.6701  155.9392 LP  0  0  0  0  0  0  0  0  0  0  0  0  # atno 17394 bound_to 11000
  141.1726  133.6538  156.4708 LP  0  0  0  0  0  0  0  0  0  0  0  0  # atno 17395 bound_to 11000

$$$$
