AV-unprocessed.smi:802|AV-procd|sdf|3791|dock3
  -GOLD-   22720 1223D 1   1.00000     0.00000
 Structure written by MMmdl.
 38 39  0  0  0  0  0  0  0  0  1 V2000
  146.9511  141.6309  154.1601 C   0  0  0  0  0  0  0  0  0  0  0  0
  148.2356  140.8864  154.3750 C   0  0  0  0  0  0  0  0  0  0  0  0
  148.4195  139.5535  154.8342 C   0  0  0  0  0  0  0  0  0  0  0  0
  149.7770  139.4027  154.8499 C   0  0  0  0  0  0  0  0  0  0  0  0
  150.6705  138.2718  155.2308 C   0  0  0  0  0  0  0  0  0  0  0  0
  152.2600  138.9430  155.8720 S   0  0  0  0  0  0  0  0  0  0  0  0
  153.0156  137.8585  156.5170 O   0  0  0  0  0  0  0  0  0  0  0  0
  152.8869  139.7440  154.8094 O   0  0  0  0  0  0  0  0  0  0  0  0
  151.7348  140.0181  157.1162 N   0  0  0  0  0  0  0  0  0  0  0  0
  152.4759  140.0643  158.3802 C   0  0  0  0  0  0  0  0  0  0  0  0
  152.0877  141.2902  159.2329 C   0  0  0  0  0  0  0  0  0  0  0  0
  151.8756  142.5620  158.3844 C   0  0  0  0  0  0  0  0  0  0  0  0
  151.4192  143.7473  159.2512 C   0  0  0  0  0  0  0  0  0  0  0  0
  152.4046  144.0100  160.4008 C   0  0  0  0  0  0  0  0  0  0  0  0
  152.6114  142.7488  161.2543 C   0  0  0  0  0  0  0  0  0  0  0  0
  153.0699  141.5611  160.3923 C   0  0  0  0  0  0  0  0  0  0  0  0
  150.3806  140.5443  154.4298 O   0  0  0  0  0  0  0  0  0  0  0  0
  149.3895  141.4851  154.1301 N   0  0  0  0  0  0  0  0  0  0  0  0
  146.0977  140.9528  154.1691 H   0  0  0  0  0  0  0  0  0  0  0  0
  146.9503  142.1510  153.2017 H   0  0  0  0  0  0  0  0  0  0  0  0
  146.7940  142.3728  154.9433 H   0  0  0  0  0  0  0  0  0  0  0  0
  147.6732  138.8251  155.1150 H   0  0  0  0  0  0  0  0  0  0  0  0
  150.2131  137.6586  156.0072 H   0  0  0  0  0  0  0  0  0  0  0  0
  150.8799  137.6345  154.3717 H   0  0  0  0  0  0  0  0  0  0  0  0
  150.7320  139.9317  157.2803 H   0  0  0  0  0  0  0  0  0  0  0  0
  152.2708  139.1472  158.9329 H   0  0  0  0  0  0  0  0  0  0  0  0
  153.5480  140.0657  158.1799 H   0  0  0  0  0  0  0  0  0  0  0  0
  151.1248  141.0492  159.6858 H   0  0  0  0  0  0  0  0  0  0  0  0
  152.8008  142.8289  157.8720 H   0  0  0  0  0  0  0  0  0  0  0  0
  151.1351  142.3732  157.6064 H   0  0  0  0  0  0  0  0  0  0  0  0
  151.3197  144.6412  158.6352 H   0  0  0  0  0  0  0  0  0  0  0  0
  150.4289  143.5411  159.6594 H   0  0  0  0  0  0  0  0  0  0  0  0
  153.3624  144.3371  159.9941 H   0  0  0  0  0  0  0  0  0  0  0  0
  152.0387  144.8257  161.0250 H   0  0  0  0  0  0  0  0  0  0  0  0
  153.3461  142.9459  162.0355 H   0  0  0  0  0  0  0  0  0  0  0  0
  151.6807  142.4944  161.7628 H   0  0  0  0  0  0  0  0  0  0  0  0
  153.1655  140.6723  161.0166 H   0  0  0  0  0  0  0  0  0  0  0  0
  154.0646  141.7710  159.9976 H   0  0  0  0  0  0  0  0  0  0  0  0
  1  2  1  0  0  0  0
  1 19  1  0  0  0  0
  1 20  1  0  0  0  0
  1 21  1  0  0  0  0
  2 18  2  0  0  0  0
  2  3  1  0  0  0  0
  3  4  2  0  0  0  0
  3 22  1  0  0  0  0
  4  5  1  0  0  0  0
  4 17  1  0  0  0  0
  5  6  1  0  0  0  0
  5 23  1  0  0  0  0
  5 24  1  0  0  0  0
  6  7  2  0  0  0  0
  6  8  2  0  0  0  0
  6  9  1  0  0  0  0
  9 10  1  0  0  0  0
  9 25  1  0  0  0  0
 10 11  1  0  0  0  0
 10 26  1  0  0  0  0
 10 27  1  0  0  0  0
 11 16  1  0  0  0  0
 11 12  1  0  0  0  0
 11 28  1  0  0  0  0
 12 13  1  0  0  0  0
 12 29  1  0  0  0  0
 12 30  1  0  0  0  0
 13 14  1  0  0  0  0
 13 31  1  0  0  0  0
 13 32  1  0  0  0  0
 14 15  1  0  0  0  0
 14 33  1  0  0  0  0
 14 34  1  0  0  0  0
 15 16  1  0  0  0  0
 15 35  1  0  0  0  0
 15 36  1  0  0  0  0
 16 37  1  0  0  0  0
 16 38  1  0  0  0  0
 17 18  1  0  0  0  0
M  END
> <s_m_source_file>
AV-unprocessed.smi

> <i_m_source_file_index>
802

> <i_lp_mmshare_version>
43012

> <i_f3d_flags>
0

> <s_epik_input>
W0NIM11jMVtjSF1jKG9uMSlbQ0gyXVMoPU8pKD1PKVtOSF1bQ0gyXVtDSF0yW0NIMl1bQ0gyXVtDSDJdW0NIMl1bQ0gyXTI=

> <s_epik_cmdline>
J2VwaWtfcHl0aG9uJywgJy1waCcsICc3LjAnLCAnLXRuJywgJzgnLCAnLW1hJywgJzIwMCcsICctbWV0YWxfYmluZGluZycsICctaW1hZScsICc8aW5maWxlLm1hZT4nLCAnLW9tYWUnLCAnPG91dGZpbGUubWFlPic=

> <r_lp_tautomer_probability>
1

> <r_epik_Ionization_Penalty>
5.14394e-05

> <r_epik_Ionization_Penalty_Charging>
0

> <r_epik_Ionization_Penalty_Neutral>
5.14394e-05

> <r_epik_State_Penalty>
-0

> <r_epik_Charging_Adjusted_Penalty>
0

> <i_epik_Tot_Q>
0

> <i_epik_Tot_abs_Q>
0

> <r_epik_Metal_State_Penalty>
0.0455401

> <b_epik_Metal_Only>
0

> <s_lp_Force_Field>
OPLS_2005

> <r_lp_Energy>
6.71551

> <b_lp_Chiralities_Consistent>
1

> <s_lp_Variant>
AV-unprocessed.smi:802-1

> <Gold.Version>
5.8.1

> <Gold.Id.Protein>
6NUR|6NUR_protein|mol2

> <Gold.PLP.Fitness>
44.4498

> <Gold.PLP.PLP>
-38.2764

> <Gold.PLP.part.hbond>
-4.7728

> <Gold.PLP.part.metal>
0.0000

> <Gold.PLP.part.buried>
-5.5158

> <Gold.PLP.part.nonpolar>
-28.6235

> <Gold.PLP.part.repulsive>
0.3339

> <Gold.PLP.ligand.clash>
0.0000

> <Gold.PLP.ligand.torsion>
1.0298

> <Gold.PLP.Chemscore.Hbond>
2.6880

> <Gold.PLP.Chemscore.CHOScore>
0.0000

> <Gold.PLP.Chemscore.Metal>
0.0000

> <Gold.Chemscore.Hbonds>
donor molecule, donor type, donor heavy atom, donor atom, acceptor molecule, acceptor atom, score
      P1  H  7989  7998       L1    17  0.93
      P1  H  7997  8008       L1     8  1.00
      P1  H  8011  8017       L1    18  0.61

> <Gold.PLP.Chemscore.Internal.Correction>
0.1689

> <Gold.Rescore>
     Score         DG    S(hbond)    S(metal)    S(lipo)     H(rot)  DE(clash)    DE(int)     intcor
     15.24     -17.75       1.73        0.00      93.53       1.74       0.07       2.45       ----

> <Gold.Chemscore.Fitness>
15.2407

> <Gold.Chemscore.DG>
-17.7528

> <Gold.Chemscore.ZeroCoef>
-5.4800

> <Gold.Chemscore.Hbond>
1.7342

> <Gold.Chemscore.Metal>
0.0000

> <Gold.Chemscore.Lipo>
93.5329

> <Gold.Chemscore.Internal_Hbond>
0.0000

> <Gold.Chemscore.DEClash>
0.0668

> <Gold.Chemscore.DEInternal>
2.4453

> <Gold.Chemscore.Rot>
1.7432

> <Gold.Chemscore.Internal.Correction>
   9.000000E+99

> <Gold.Chemscore.Hbonds>
donor molecule, donor type, donor heavy atom, donor atom, acceptor molecule, acceptor atom, score
      P1  H  7989  7998       L1    17  0.49
      P1  H  7997  8008       L1     8  0.29
      P1  H  8011  8017       L1    18  0.46

> <Gold.Chemscore.Hbond.Weighted>
-5.7921

> <Gold.Chemscore.Metal.Weighted>
-0.0000

> <Gold.Chemscore.Lipo.Weighted>
-10.9434

> <Gold.Chemscore.Internal_Hbond.Weighted>
0.0000

> <Gold.Chemscore.DEClash.Weighted>
0.0668

> <Gold.Chemscore.DEInternal.Weighted>
2.4453

> <Gold.Chemscore.Rot.Weighted>
4.4626

> <Gold.Chemscore.Internal.Correction.Weighted>
   9.000000E+99

> <Gold.Protein.RotatedTorsions>
[ 6907 6896 6895 6894 ] final  168.79 input  -60.11 | X-H torsion
[ 7974 7965 7964 7962 ] final  116.90 input  175.53 | X-H torsion
[ 8008 7997 7996 7995 ] final    0.27 input   59.86 | X-H torsion
[ 10167 10162 10161 10158 ] final  -81.76 input  -65.29 | X-H torsion
[ 10718 10713 10712 10709 ] final   37.33 input   66.30 | X-H torsion
[ 10763 10752 10751 10750 ] final  -14.47 input  -60.55 | X-H torsion
[ 11005 11000 10999 10996 ] final -173.07 input  -57.11 | X-H torsion

> <Gold.Protein.ActiveResidues>
 VAL166  LYS551  ARG553  GLY616  TRP617  ASP618  TYR619  PRO620  LYS621  CYS622 
 ASP623  PHE694  ASN695  SER759  ASP760  ASP761  ALA762  ILE779  LEU786  VAL792 
 PHE793  MET794  SER795  GLU796  ALA797  LYS798  CYS799  TRP800  GLU811  SER814 

> <Gold.Protein.RotatedAtoms>
  151.8421  133.3425  159.3646 H   0  0  0  0  0  0  0  0  0  0  0  0  # atno 6907 bound_to 6896
  150.7231  134.5381  159.5743 H   0  0  0  0  0  0  0  0  0  0  0  0  # atno 6908 bound_to 6896
  152.2856  134.7780  160.0439 H   0  0  0  0  0  0  0  0  0  0  0  0  # atno 6909 bound_to 6896
  145.1740  139.3086  143.4453 H   0  0  0  0  0  0  0  0  0  0  0  0  # atno 7974 bound_to 7965
  154.6662  140.2601  155.7056 H   0  0  0  0  0  0  0  0  0  0  0  0  # atno 8008 bound_to 7997
  156.2639  140.2838  156.1075 H   0  0  0  0  0  0  0  0  0  0  0  0  # atno 8009 bound_to 7997
  155.1236  140.0377  157.2746 H   0  0  0  0  0  0  0  0  0  0  0  0  # atno 8010 bound_to 7997
  140.4382  143.2524  151.8663 H   0  0  0  0  0  0  0  0  0  0  0  0  # atno 10167 bound_to 10162
  157.3456  130.7571  149.6942 H   0  0  0  0  0  0  0  0  0  0  0  0  # atno 10718 bound_to 10713
  153.5287  135.7015  153.5694 H   0  0  0  0  0  0  0  0  0  0  0  0  # atno 10763 bound_to 10752
  153.3711  135.3944  155.1789 H   0  0  0  0  0  0  0  0  0  0  0  0  # atno 10764 bound_to 10752
  154.8687  135.3812  154.4782 H   0  0  0  0  0  0  0  0  0  0  0  0  # atno 10765 bound_to 10752
  140.4899  134.5995  157.4951 H   0  0  0  0  0  0  0  0  0  0  0  0  # atno 11005 bound_to 11000
  146.3464  140.1895  142.8589 LP  0  0  0  0  0  0  0  0  0  0  0  0  # atno 17320 bound_to 7965
  145.0204  140.8789  143.5170 LP  0  0  0  0  0  0  0  0  0  0  0  0  # atno 17321 bound_to 7965
  139.4788  144.5258  151.8737 LP  0  0  0  0  0  0  0  0  0  0  0  0  # atno 17342 bound_to 10162
  140.4348  144.2066  150.5889 LP  0  0  0  0  0  0  0  0  0  0  0  0  # atno 17343 bound_to 10162
  155.9714  130.4155  150.4185 LP  0  0  0  0  0  0  0  0  0  0  0  0  # atno 17370 bound_to 10713
  157.2239  131.0489  151.2531 LP  0  0  0  0  0  0  0  0  0  0  0  0  # atno 17371 bound_to 10713
  139.9775  134.7191  155.9921 LP  0  0  0  0  0  0  0  0  0  0  0  0  # atno 17394 bound_to 11000
  141.1489  133.6551  156.3953 LP  0  0  0  0  0  0  0  0  0  0  0  0  # atno 17395 bound_to 11000

$$$$
