AV-unprocessed.smi:1965|AV-procd|sdf|7947|dock1
  -GOLD-   2272010113D 1   1.00000     0.00000
 Structure written by MMmdl.
 36 38  0  0  0  0  0  0  0  0  3 V2000
  150.4056  141.1827  158.1721 O   0  0  0  0  0  0  0  0  0  0  0  0
  151.4540  141.0234  157.5485 C   0  0  0  0  0  0  0  0  0  0  0  0
  151.5125  140.9234  156.1951 N   0  5  0  0  0  0  0  0  0  0  0  0
  151.2660  139.7726  155.5419 C   0  0  0  0  0  0  0  0  0  0  0  0
  150.6639  139.7221  154.3481 N   0  0  0  0  0  0  0  0  0  0  0  0
  150.5102  138.4237  153.8583 C   0  0  0  0  0  0  0  0  0  0  0  0
  151.0071  137.4634  154.6992 C   0  0  0  0  0  0  0  0  0  0  0  0
  151.6932  138.1655  156.1364 S   0  0  0  0  0  0  0  0  0  0  0  0
  152.6106  140.9415  158.2322 N   0  0  0  0  0  0  0  0  0  0  0  0
  152.7603  141.0549  159.6776 C   0  0  1  0  0  0  0  0  0  0  0  0
  153.5447  139.9017  160.3225 C   0  0  0  0  0  0  0  0  0  0  0  0
  154.3936  140.5561  161.4303 C   0  0  0  0  0  0  0  0  0  0  0  0
  154.0511  141.9977  161.4365 N   0  3  2  0  0  0  0  0  0  0  0  0
  153.0662  142.3345  162.5010 C   0  0  0  0  0  0  0  0  0  0  0  0
  152.5293  143.7651  162.3612 C   0  0  0  0  0  0  0  0  0  0  0  0
  151.8803  143.9532  160.9876 C   0  0  0  0  0  0  0  0  0  0  0  0
  152.9101  143.6584  159.8918 C   0  0  0  0  0  0  0  0  0  0  0  0
  153.5925  142.2817  160.0555 C   0  0  2  0  0  0  0  0  0  0  0  0
  150.0341  138.2753  152.9006 H   0  0  0  0  0  0  0  0  0  0  0  0
  151.0161  136.3928  154.5605 H   0  0  0  0  0  0  0  0  0  0  0  0
  153.4539  140.8023  157.6952 H   0  0  0  0  0  0  0  0  0  0  0  0
  151.7739  141.1248  160.1394 H   0  0  0  0  0  0  0  0  0  0  0  0
  152.8696  139.1438  160.7214 H   0  0  0  0  0  0  0  0  0  0  0  0
  154.1964  139.4106  159.5983 H   0  0  0  0  0  0  0  0  0  0  0  0
  154.2405  140.0856  162.4027 H   0  0  0  0  0  0  0  0  0  0  0  0
  155.4521  140.4548  161.1875 H   0  0  0  0  0  0  0  0  0  0  0  0
  152.2317  141.6319  162.4711 H   0  0  0  0  0  0  0  0  0  0  0  0
  153.5415  142.2114  163.4749 H   0  0  0  0  0  0  0  0  0  0  0  0
  151.8005  143.9669  163.1466 H   0  0  0  0  0  0  0  0  0  0  0  0
  153.3392  144.4835  162.4945 H   0  0  0  0  0  0  0  0  0  0  0  0
  151.0199  143.2911  160.8849 H   0  0  0  0  0  0  0  0  0  0  0  0
  151.5042  144.9712  160.8838 H   0  0  0  0  0  0  0  0  0  0  0  0
  152.4455  143.7347  158.9081 H   0  0  0  0  0  0  0  0  0  0  0  0
  153.6775  144.4332  159.9209 H   0  0  0  0  0  0  0  0  0  0  0  0
  154.4855  142.2836  159.4266 H   0  0  0  0  0  0  0  0  0  0  0  0
  154.8844  142.5391  161.6169 H   0  0  0  0  0  0  0  0  0  0  0  0
  1  2  2  0  0  0  0
  2  3  1  0  0  0  0
  2  9  1  0  0  0  0
  3  4  1  0  0  0  0
  4  8  1  0  0  0  0
  4  5  2  0  0  0  0
  5  6  1  0  0  0  0
  6  7  2  0  0  0  0
  6 19  1  0  0  0  0
  7  8  1  0  0  0  0
  7 20  1  0  0  0  0
  9 10  1  0  0  0  0
  9 21  1  0  0  0  0
 10 18  1  0  0  0  0
 10 11  1  0  0  0  0
 10 22  1  0  0  0  0
 11 12  1  0  0  0  0
 11 23  1  0  0  0  0
 11 24  1  0  0  0  0
 12 13  1  0  0  0  0
 12 25  1  0  0  0  0
 12 26  1  0  0  0  0
 13 18  1  0  0  0  0
 13 14  1  0  0  0  0
 13 36  1  0  0  0  0
 14 15  1  0  0  0  0
 14 27  1  0  0  0  0
 14 28  1  0  0  0  0
 15 16  1  0  0  0  0
 15 29  1  0  0  0  0
 15 30  1  0  0  0  0
 16 17  1  0  0  0  0
 16 31  1  0  0  0  0
 16 32  1  0  0  0  0
 17 18  1  0  0  0  0
 17 33  1  0  0  0  0
 17 34  1  0  0  0  0
 18 35  1  0  0  0  0
M  CHG  1   3  -1
M  CHG  1  13   1
M  END
> <s_m_source_file>
AV-unprocessed.smi

> <i_m_source_file_index>
1965

> <i_lp_mmshare_version>
43012

> <i_f3d_flags>
0

> <s_epik_input>
czFbY0hdW2NIXW5jMVtOSF1DKD1PKVtOSF1bQ0BIXShbQ0gyXVtDSDJdMilbQ0BASF0oTjIzKVtDSDJdW0NIMl1bQ0gyXVtDSDJdMw==

> <s_epik_cmdline>
J2VwaWtfcHl0aG9uJywgJy1waCcsICc3LjAnLCAnLXRuJywgJzgnLCAnLW1hJywgJzIwMCcsICctbWV0YWxfYmluZGluZycsICctaW1hZScsICc8aW5maWxlLm1hZT4nLCAnLW9tYWUnLCAnPG91dGZpbGUubWFlPic=

> <r_lp_tautomer_probability>
1

> <r_epik_Ionization_Penalty>
7.4116

> <r_epik_Ionization_Penalty_Charging>
6.13869

> <r_epik_Ionization_Penalty_Neutral>
1.27291

> <r_epik_State_Penalty>
6.13761

> <r_epik_Charging_Adjusted_Penalty>
12.2763

> <i_epik_Tot_Q>
0

> <i_epik_Tot_abs_Q>
2

> <r_epik_Metal_State_Penalty>
2.08142

> <b_epik_Metal_Only>
1

> <s_lp_Force_Field>
OPLS_2005

> <r_lp_Energy>
29.0908

> <b_lp_Chiralities_Consistent>
1

> <s_lp_Variant>
AV-unprocessed.smi:1965-16

> <Gold.Version>
5.8.1

> <Gold.Id.Protein>
6NUR|6NUR_protein|mol2

> <Gold.PLP.Fitness>
44.6749

> <Gold.PLP.PLP>
-37.8837

> <Gold.PLP.part.hbond>
-2.0000

> <Gold.PLP.part.metal>
0.0000

> <Gold.PLP.part.buried>
-1.6781

> <Gold.PLP.part.nonpolar>
-34.3667

> <Gold.PLP.part.repulsive>
0.2620

> <Gold.PLP.ligand.clash>
0.0000

> <Gold.PLP.ligand.torsion>
1.0257

> <Gold.PLP.Chemscore.Hbond>
1.0000

> <Gold.PLP.Chemscore.CHOScore>
1.9440

> <Gold.PLP.Chemscore.Metal>
0.0000

> <Gold.Chemscore.Hbonds>
donor molecule, donor type, donor heavy atom, donor atom, acceptor molecule, acceptor atom, score
      P1  H  7989  7998       L1     5  1.00
      L1  C     6    19       P1  7948  1.00
      L1  C     6    19       P1  7957  0.94

> <Gold.PLP.Chemscore.Internal.Correction>
0.0106

> <Gold.Rescore>
     Score         DG    S(hbond)    S(metal)    S(lipo)     H(rot)  DE(clash)    DE(int)     intcor
     17.02     -18.07       0.90        0.00     103.72       1.00       0.22       0.83       ----

> <Gold.Chemscore.Fitness>
17.0180

> <Gold.Chemscore.DG>
-18.0732

> <Gold.Chemscore.ZeroCoef>
-5.4800

> <Gold.Chemscore.Hbond>
0.9037

> <Gold.Chemscore.Metal>
0.0000

> <Gold.Chemscore.Lipo>
103.7154

> <Gold.Chemscore.Internal_Hbond>
0.0000

> <Gold.Chemscore.DEClash>
0.2203

> <Gold.Chemscore.DEInternal>
0.8349

> <Gold.Chemscore.Rot>
1.0000

> <Gold.Chemscore.Internal.Correction>
   9.000000E+99

> <Gold.Chemscore.Hbonds>
donor molecule, donor type, donor heavy atom, donor atom, acceptor molecule, acceptor atom, score
      P1  H  7989  7998       L1     5  0.25

> <Gold.Chemscore.Hbond.Weighted>
-3.0185

> <Gold.Chemscore.Metal.Weighted>
-0.0000

> <Gold.Chemscore.Lipo.Weighted>
-12.1347

> <Gold.Chemscore.Internal_Hbond.Weighted>
0.0000

> <Gold.Chemscore.DEClash.Weighted>
0.2203

> <Gold.Chemscore.DEInternal.Weighted>
0.8349

> <Gold.Chemscore.Rot.Weighted>
2.5600

> <Gold.Chemscore.Internal.Correction.Weighted>
   9.000000E+99

> <Gold.Protein.RotatedTorsions>
[ 6907 6896 6895 6894 ] final  142.15 input  -60.11 | X-H torsion
[ 7974 7965 7964 7962 ] final  -76.44 input  175.53 | X-H torsion
[ 8008 7997 7996 7995 ] final  -64.77 input   59.86 | X-H torsion
[ 10167 10162 10161 10158 ] final  122.59 input  -65.29 | X-H torsion
[ 10718 10713 10712 10709 ] final  -95.72 input   66.30 | X-H torsion
[ 10763 10752 10751 10750 ] final   89.39 input  -60.55 | X-H torsion
[ 11005 11000 10999 10996 ] final -108.24 input  -57.11 | X-H torsion

> <Gold.Protein.ActiveResidues>
 VAL166  LYS551  ARG553  GLY616  TRP617  ASP618  TYR619  PRO620  LYS621  CYS622 
 ASP623  PHE694  ASN695  SER759  ASP760  ASP761  ALA762  ILE779  LEU786  VAL792 
 PHE793  MET794  SER795  GLU796  ALA797  LYS798  CYS799  TRP800  GLU811  SER814 

> <Gold.Protein.RotatedAtoms>
  152.2223  133.4993  159.5168 H   0  0  0  0  0  0  0  0  0  0  0  0  # atno 6907 bound_to 6896
  150.7016  134.1326  159.4084 H   0  0  0  0  0  0  0  0  0  0  0  0  # atno 6908 bound_to 6896
  151.9247  135.0282  160.0575 H   0  0  0  0  0  0  0  0  0  0  0  0  # atno 6909 bound_to 6896
  145.6128  140.9382  143.1180 H   0  0  0  0  0  0  0  0  0  0  0  0  # atno 7974 bound_to 7965
  154.4631  140.0947  156.6948 H   0  0  0  0  0  0  0  0  0  0  0  0  # atno 8008 bound_to 7997
  155.4936  140.3471  155.4340 H   0  0  0  0  0  0  0  0  0  0  0  0  # atno 8009 bound_to 7997
  156.0907  140.1396  156.9584 H   0  0  0  0  0  0  0  0  0  0  0  0  # atno 8010 bound_to 7997
  139.5849  144.7002  151.3434 H   0  0  0  0  0  0  0  0  0  0  0  0  # atno 10167 bound_to 10162
  156.0048  130.5121  150.6118 H   0  0  0  0  0  0  0  0  0  0  0  0  # atno 10718 bound_to 10713
  153.1866  135.4472  155.0096 H   0  0  0  0  0  0  0  0  0  0  0  0  # atno 10763 bound_to 10752
  154.8064  135.3276  154.7423 H   0  0  0  0  0  0  0  0  0  0  0  0  # atno 10764 bound_to 10752
  153.7881  135.6972  153.4931 H   0  0  0  0  0  0  0  0  0  0  0  0  # atno 10765 bound_to 10752
  141.0912  133.9052  157.2071 H   0  0  0  0  0  0  0  0  0  0  0  0  # atno 11005 bound_to 11000
  144.7263  139.7866  143.7364 LP  0  0  0  0  0  0  0  0  0  0  0  0  # atno 17320 bound_to 7965
  146.1491  139.4569  143.0060 LP  0  0  0  0  0  0  0  0  0  0  0  0  # atno 17321 bound_to 7965
  140.7122  143.7360  150.7589 LP  0  0  0  0  0  0  0  0  0  0  0  0  # atno 17342 bound_to 10162
  140.0901  143.4885  152.2483 LP  0  0  0  0  0  0  0  0  0  0  0  0  # atno 17343 bound_to 10162
  157.3949  131.0801  151.1360 LP  0  0  0  0  0  0  0  0  0  0  0  0  # atno 17370 bound_to 10713
  157.2040  130.6407  149.5749 LP  0  0  0  0  0  0  0  0  0  0  0  0  # atno 17371 bound_to 10713
  139.9738  135.0120  156.9580 LP  0  0  0  0  0  0  0  0  0  0  0  0  # atno 17394 bound_to 11000
  140.5248  134.0872  155.7301 LP  0  0  0  0  0  0  0  0  0  0  0  0  # atno 17395 bound_to 11000

$$$$
