AV-unprocessed.smi:1079|AV-procd|sdf|4705|dock9
  -GOLD-   22720 3233D 1   1.00000     0.00000
 Structure written by MMmdl.
 43 44  0  0  0  0  0  0  0  0  2 V2000
  146.2709  137.2667  162.3185 C   0  0  0  0  0  0  0  0  0  0  0  0
  146.8537  137.3971  161.0345 O   0  0  0  0  0  0  0  0  0  0  0  0
  145.9136  137.2102  159.9891 C   0  0  0  0  0  0  0  0  0  0  0  0
  146.6445  136.8141  158.6950 C   0  0  0  0  0  0  0  0  0  0  0  0
  148.0719  137.2035  158.7273 N   0  0  0  0  0  0  0  0  0  0  0  0
  148.5137  138.3051  157.9454 C   0  0  0  0  0  0  0  0  0  0  0  0
  147.5990  138.9771  157.1470 N   0  0  0  0  0  0  0  0  0  0  0  0
  149.8250  138.6677  157.9589 C   0  0  0  0  0  0  0  0  0  0  0  0
  150.3006  139.7787  157.2328 N   0  0  0  0  0  0  0  0  0  0  0  0
  149.8672  141.1127  157.6812 C   0  0  0  0  0  0  0  0  0  0  0  0
  151.0132  142.0079  158.1268 C   0  0  0  0  0  0  0  0  0  0  0  0
  151.9222  141.5619  159.1095 C   0  0  0  0  0  0  0  0  0  0  0  0
  152.9866  142.3881  159.5184 C   0  0  0  0  0  0  0  0  0  0  0  0
  153.1448  143.6663  158.9491 C   0  0  0  0  0  0  0  0  0  0  0  0
  152.2381  144.1175  157.9707 C   0  0  0  0  0  0  0  0  0  0  0  0
  151.1741  143.2906  157.5610 C   0  0  0  0  0  0  0  0  0  0  0  0
  151.0292  139.6394  156.0934 C   0  0  0  0  0  0  0  0  0  0  0  0
  151.3318  138.2364  155.5523 C   0  0  0  0  0  0  0  0  0  0  0  0
  151.4378  140.6047  155.4462 O   0  0  0  0  0  0  0  0  0  0  0  0
  150.7560  137.9229  158.8170 C   0  0  0  0  0  0  0  0  0  0  0  0
  151.9389  138.2570  158.8861 O   0  0  0  0  0  0  0  0  0  0  0  0
  150.2638  136.8697  159.5204 N   0  5  0  0  0  0  0  0  0  0  0  0
  148.9550  136.4899  159.4912 C   0  0  0  0  0  0  0  0  0  0  0  0
  148.5494  135.5207  160.1347 O   0  0  0  0  0  0  0  0  0  0  0  0
  147.0323  137.4197  163.0830 H   0  0  0  0  0  0  0  0  0  0  0  0
  145.8465  136.2718  162.4592 H   0  0  0  0  0  0  0  0  0  0  0  0
  145.4860  138.0085  162.4724 H   0  0  0  0  0  0  0  0  0  0  0  0
  145.2169  136.4188  160.2685 H   0  0  0  0  0  0  0  0  0  0  0  0
  145.3257  138.1167  159.8362 H   0  0  0  0  0  0  0  0  0  0  0  0
  146.5082  135.7509  158.4997 H   0  0  0  0  0  0  0  0  0  0  0  0
  146.1470  137.2892  157.8479 H   0  0  0  0  0  0  0  0  0  0  0  0
  146.6295  138.6977  157.1125 H   0  0  0  0  0  0  0  0  0  0  0  0
  147.8084  139.8939  156.7786 H   0  0  0  0  0  0  0  0  0  0  0  0
  149.2948  141.6013  156.8906 H   0  0  0  0  0  0  0  0  0  0  0  0
  149.1788  141.0262  158.5236 H   0  0  0  0  0  0  0  0  0  0  0  0
  151.8054  140.5839  159.5525 H   0  0  0  0  0  0  0  0  0  0  0  0
  153.6816  142.0403  160.2684 H   0  0  0  0  0  0  0  0  0  0  0  0
  153.9611  144.3000  159.2627 H   0  0  0  0  0  0  0  0  0  0  0  0
  152.3591  145.0971  157.5325 H   0  0  0  0  0  0  0  0  0  0  0  0
  150.4855  143.6417  156.8065 H   0  0  0  0  0  0  0  0  0  0  0  0
  150.4276  137.6291  155.5001 H   0  0  0  0  0  0  0  0  0  0  0  0
  152.0625  137.7275  156.1807 H   0  0  0  0  0  0  0  0  0  0  0  0
  151.7463  138.2976  154.5455 H   0  0  0  0  0  0  0  0  0  0  0  0
  1  2  1  0  0  0  0
  1 25  1  0  0  0  0
  1 26  1  0  0  0  0
  1 27  1  0  0  0  0
  2  3  1  0  0  0  0
  3  4  1  0  0  0  0
  3 28  1  0  0  0  0
  3 29  1  0  0  0  0
  4  5  1  0  0  0  0
  4 30  1  0  0  0  0
  4 31  1  0  0  0  0
  5 23  1  0  0  0  0
  5  6  1  0  0  0  0
  6  7  1  0  0  0  0
  6  8  2  0  0  0  0
  7 32  1  0  0  0  0
  7 33  1  0  0  0  0
  8  9  1  0  0  0  0
  8 20  1  0  0  0  0
  9 10  1  0  0  0  0
  9 17  1  0  0  0  0
 10 11  1  0  0  0  0
 10 34  1  0  0  0  0
 10 35  1  0  0  0  0
 11 16  1  0  0  0  0
 11 12  2  0  0  0  0
 12 13  1  0  0  0  0
 12 36  1  0  0  0  0
 13 14  2  0  0  0  0
 13 37  1  0  0  0  0
 14 15  1  0  0  0  0
 14 38  1  0  0  0  0
 15 16  2  0  0  0  0
 15 39  1  0  0  0  0
 16 40  1  0  0  0  0
 17 18  1  0  0  0  0
 17 19  2  0  0  0  0
 18 41  1  0  0  0  0
 18 42  1  0  0  0  0
 18 43  1  0  0  0  0
 20 21  2  0  0  0  0
 20 22  1  0  0  0  0
 22 23  1  0  0  0  0
 23 24  2  0  0  0  0
M  CHG  1  22  -1
M  END
> <s_m_source_file>
AV-unprocessed.smi

> <i_m_source_file_index>
1079

> <i_lp_mmshare_version>
43012

> <i_f3d_flags>
0

> <s_epik_input>
W0NIM11PW0NIMl1bQ0gyXW4xYyhbTkgyXSljKGMoPU8pW25IXWMxPU8pTihDKD1PKVtDSDNdKVtDSDJdYzJbY0hdW2NIXVtjSF1bY0hdW2NIXTI=

> <s_epik_cmdline>
J2VwaWtfcHl0aG9uJywgJy1waCcsICc3LjAnLCAnLXRuJywgJzgnLCAnLW1hJywgJzIwMCcsICctbWV0YWxfYmluZGluZycsICctaW1hZScsICc8aW5maWxlLm1hZT4nLCAnLW9tYWUnLCAnPG91dGZpbGUubWFlPic=

> <r_lp_tautomer_probability>
1

> <r_epik_Ionization_Penalty>
7.02899

> <r_epik_Ionization_Penalty_Charging>
0.353543

> <r_epik_Ionization_Penalty_Neutral>
6.67545

> <r_epik_State_Penalty>
6.67544

> <r_epik_Charging_Adjusted_Penalty>
7.02899

> <i_epik_Tot_Q>
-1

> <i_epik_Tot_abs_Q>
1

> <r_epik_Metal_State_Penalty>
2.59023

> <b_epik_Metal_Only>
1

> <s_epik_Chemistry_Notes>
This compound has an imine and may undergo hydrolysis.

> <s_lp_Force_Field>
OPLS_2005

> <r_lp_Energy>
37.6248

> <b_lp_Chiralities_Consistent>
1

> <s_lp_Variant>
AV-unprocessed.smi:1079-2

> <Gold.Version>
5.8.1

> <Gold.Id.Protein>
6NUR|6NUR_protein|mol2

> <Gold.PLP.Fitness>
47.6722

> <Gold.PLP.PLP>
-38.1636

> <Gold.PLP.part.hbond>
-3.1582

> <Gold.PLP.part.metal>
0.0000

> <Gold.PLP.part.buried>
-6.6961

> <Gold.PLP.part.nonpolar>
-29.5336

> <Gold.PLP.part.repulsive>
0.0689

> <Gold.PLP.ligand.clash>
0.0000

> <Gold.PLP.ligand.torsion>
1.9970

> <Gold.PLP.Chemscore.Hbond>
3.7840

> <Gold.PLP.Chemscore.CHOScore>
0.0000

> <Gold.PLP.Chemscore.Metal>
0.0000

> <Gold.Chemscore.Hbonds>
donor molecule, donor type, donor heavy atom, donor atom, acceptor molecule, acceptor atom, score
      P1  H  6896  6908       L1    22  1.70
      P1  H  6934  6947       L1     2  1.00
      P1  H  7989  7998       L1    19  0.80

> <Gold.PLP.Chemscore.Internal.Correction>
2.1505

> <Gold.Rescore>
     Score         DG    S(hbond)    S(metal)    S(lipo)     H(rot)  DE(clash)    DE(int)     intcor
     12.71     -17.94       2.40        0.00      81.42       1.98       0.00       5.23       ----

> <Gold.Chemscore.Fitness>
12.7147

> <Gold.Chemscore.DG>
-17.9418

> <Gold.Chemscore.ZeroCoef>
-5.4800

> <Gold.Chemscore.Hbond>
2.3983

> <Gold.Chemscore.Metal>
0.0000

> <Gold.Chemscore.Lipo>
81.4230

> <Gold.Chemscore.Internal_Hbond>
0.0000

> <Gold.Chemscore.DEClash>
0.0000

> <Gold.Chemscore.DEInternal>
5.2271

> <Gold.Chemscore.Rot>
1.9824

> <Gold.Chemscore.Internal.Correction>
   9.000000E+99

> <Gold.Chemscore.Hbonds>
donor molecule, donor type, donor heavy atom, donor atom, acceptor molecule, acceptor atom, score
      P1  H  6896  6908       L1    22  0.14
      P1  H  6934  6947       L1     2  0.14
      P1  H  7989  7998       L1    19  0.78

> <Gold.Chemscore.Hbond.Weighted>
-8.0102

> <Gold.Chemscore.Metal.Weighted>
-0.0000

> <Gold.Chemscore.Lipo.Weighted>
-9.5265

> <Gold.Chemscore.Internal_Hbond.Weighted>
0.0000

> <Gold.Chemscore.DEClash.Weighted>
0.0000

> <Gold.Chemscore.DEInternal.Weighted>
5.2271

> <Gold.Chemscore.Rot.Weighted>
5.0749

> <Gold.Chemscore.Internal.Correction.Weighted>
   9.000000E+99

> <Gold.Protein.RotatedTorsions>
[ 6907 6896 6895 6894 ] final -152.86 input  -60.11 | X-H torsion
[ 7974 7965 7964 7962 ] final  147.20 input  175.53 | X-H torsion
[ 8008 7997 7996 7995 ] final   63.44 input   59.86 | X-H torsion
[ 10167 10162 10161 10158 ] final  -60.01 input  -65.29 | X-H torsion
[ 10718 10713 10712 10709 ] final  -33.39 input   66.30 | X-H torsion
[ 10763 10752 10751 10750 ] final   49.18 input  -60.55 | X-H torsion
[ 11005 11000 10999 10996 ] final  -73.32 input  -57.11 | X-H torsion

> <Gold.Protein.ActiveResidues>
 VAL166  LYS551  ARG553  GLY616  TRP617  ASP618  TYR619  PRO620  LYS621  CYS622 
 ASP623  PHE694  ASN695  SER759  ASP760  ASP761  ALA762  ILE779  LEU786  VAL792 
 PHE793  MET794  SER795  GLU796  ALA797  LYS798  CYS799  TRP800  GLU811  SER814 

> <Gold.Protein.RotatedAtoms>
  151.2340  133.4435  159.2604 H   0  0  0  0  0  0  0  0  0  0  0  0  # atno 6907 bound_to 6896
  151.0767  134.9833  159.8346 H   0  0  0  0  0  0  0  0  0  0  0  0  # atno 6908 bound_to 6896
  152.5419  134.2282  159.8867 H   0  0  0  0  0  0  0  0  0  0  0  0  # atno 6909 bound_to 6896
  144.8610  139.5999  143.5930 H   0  0  0  0  0  0  0  0  0  0  0  0  # atno 7974 bound_to 7965
  155.6303  140.3496  155.4680 H   0  0  0  0  0  0  0  0  0  0  0  0  # atno 8008 bound_to 7997
  156.0009  140.1213  157.0572 H   0  0  0  0  0  0  0  0  0  0  0  0  # atno 8009 bound_to 7997
  154.4248  140.1101  156.5681 H   0  0  0  0  0  0  0  0  0  0  0  0  # atno 8010 bound_to 7997
  140.6099  143.2384  151.5734 H   0  0  0  0  0  0  0  0  0  0  0  0  # atno 10167 bound_to 10162
  156.3632  130.4327  149.7606 H   0  0  0  0  0  0  0  0  0  0  0  0  # atno 10718 bound_to 10713
  152.9788  135.5920  154.4047 H   0  0  0  0  0  0  0  0  0  0  0  0  # atno 10763 bound_to 10752
  154.3689  135.2767  155.2280 H   0  0  0  0  0  0  0  0  0  0  0  0  # atno 10764 bound_to 10752
  154.4244  135.6051  153.6084 H   0  0  0  0  0  0  0  0  0  0  0  0  # atno 10765 bound_to 10752
  141.1621  133.6875  156.7194 H   0  0  0  0  0  0  0  0  0  0  0  0  # atno 11005 bound_to 11000
  146.2861  139.7007  142.9195 LP  0  0  0  0  0  0  0  0  0  0  0  0  # atno 17320 bound_to 7965
  145.4311  141.0415  143.2910 LP  0  0  0  0  0  0  0  0  0  0  0  0  # atno 17321 bound_to 7965
  139.5353  144.2799  152.1238 LP  0  0  0  0  0  0  0  0  0  0  0  0  # atno 17342 bound_to 10162
  140.1996  144.4671  150.6438 LP  0  0  0  0  0  0  0  0  0  0  0  0  # atno 17343 bound_to 10162
  156.4762  130.8020  151.3036 LP  0  0  0  0  0  0  0  0  0  0  0  0  # atno 17370 bound_to 10713
  157.7476  131.0020  150.2984 LP  0  0  0  0  0  0  0  0  0  0  0  0  # atno 17371 bound_to 10713
  140.2827  134.8304  157.3947 LP  0  0  0  0  0  0  0  0  0  0  0  0  # atno 17394 bound_to 11000
  140.1418  134.4961  155.8025 LP  0  0  0  0  0  0  0  0  0  0  0  0  # atno 17395 bound_to 11000

$$$$
