AV-unprocessed.smi:1236|AV-procd|sdf|5180|dock4
  -GOLD-   22720 4263D 1   1.00000     0.00000
 Structure written by MMmdl.
 39 40  0  0  0  0  0  0  0  0  1 V2000
  146.3415  138.1138  155.2490 C   0  0  0  0  0  0  0  0  0  0  0  0
  146.3369  138.4301  153.7476 C   0  0  1  0  0  0  0  0  0  0  0  0
  147.3954  139.4985  153.3981 C   0  0  0  0  0  0  0  0  0  0  0  0
  148.4875  139.6481  154.3611 N   0  0  0  0  0  0  0  0  0  0  0  0
  149.6095  138.7523  154.0886 C   0  0  0  0  0  0  0  0  0  0  0  0
  150.7463  138.9352  155.1086 C   0  0  0  0  0  0  0  0  0  0  0  0
  151.1714  140.2942  155.1126 O   0  0  0  0  0  0  0  0  0  0  0  0
  150.1146  141.1995  155.4146 C   0  0  0  0  0  0  0  0  0  0  0  0
  148.9768  141.0217  154.3948 C   0  0  0  0  0  0  0  0  0  0  0  0
  146.5944  137.2003  152.9993 N   0  0  0  0  0  0  0  0  0  0  0  0
  145.6633  136.3515  152.5381 C   0  0  0  0  0  0  0  0  0  0  0  0
  144.4546  136.4973  152.7229 O   0  0  0  0  0  0  0  0  0  0  0  0
  146.2269  135.3413  151.8524 N   0  0  0  0  0  0  0  0  0  0  0  0
  145.5836  134.2540  151.2031 C   0  0  0  0  0  0  0  0  0  0  0  0
  146.4529  133.3311  150.5788 C   0  0  0  0  0  0  0  0  0  0  0  0
  145.9141  132.2171  149.9063 C   0  0  0  0  0  0  0  0  0  0  0  0
  144.5176  132.0538  149.8763 C   0  0  0  0  0  0  0  0  0  0  0  0
  143.7235  133.0179  150.5239 C   0  0  0  0  0  0  0  0  0  0  0  0
  144.2379  134.0864  151.1684 N   0  0  0  0  0  0  0  0  0  0  0  0
  146.1346  139.0078  155.8377 H   0  0  0  0  0  0  0  0  0  0  0  0
  147.3063  137.7198  155.5707 H   0  0  0  0  0  0  0  0  0  0  0  0
  145.5796  137.3739  155.4966 H   0  0  0  0  0  0  0  0  0  0  0  0
  145.3441  138.8160  153.5140 H   0  0  0  0  0  0  0  0  0  0  0  0
  147.8097  139.2865  152.4112 H   0  0  0  0  0  0  0  0  0  0  0  0
  146.8801  140.4552  153.3021 H   0  0  0  0  0  0  0  0  0  0  0  0
  149.2843  137.7135  154.1162 H   0  0  0  0  0  0  0  0  0  0  0  0
  149.9929  138.9333  153.0835 H   0  0  0  0  0  0  0  0  0  0  0  0
  150.4169  138.6460  156.1077 H   0  0  0  0  0  0  0  0  0  0  0  0
  151.5922  138.2971  154.8531 H   0  0  0  0  0  0  0  0  0  0  0  0
  149.7542  141.0234  156.4292 H   0  0  0  0  0  0  0  0  0  0  0  0
  150.4980  142.2193  155.3825 H   0  0  0  0  0  0  0  0  0  0  0  0
  149.3309  141.3134  153.4048 H   0  0  0  0  0  0  0  0  0  0  0  0
  148.1604  141.6999  154.6464 H   0  0  0  0  0  0  0  0  0  0  0  0
  147.5609  136.9949  152.7943 H   0  0  0  0  0  0  0  0  0  0  0  0
  147.2332  135.3559  151.7794 H   0  0  0  0  0  0  0  0  0  0  0  0
  147.5237  133.4719  150.6117 H   0  0  0  0  0  0  0  0  0  0  0  0
  146.5615  131.5012  149.4223 H   0  0  0  0  0  0  0  0  0  0  0  0
  144.0669  131.2123  149.3714 H   0  0  0  0  0  0  0  0  0  0  0  0
  142.6472  132.9293  150.5253 H   0  0  0  0  0  0  0  0  0  0  0  0
  1  2  1  0  0  0  0
  1 20  1  0  0  0  0
  1 21  1  0  0  0  0
  1 22  1  0  0  0  0
  2  3  1  0  0  0  0
  2 10  1  0  0  0  0
  2 23  1  0  0  0  0
  3  4  1  0  0  0  0
  3 24  1  0  0  0  0
  3 25  1  0  0  0  0
  4  9  1  0  0  0  0
  4  5  1  0  0  0  0
  5  6  1  0  0  0  0
  5 26  1  0  0  0  0
  5 27  1  0  0  0  0
  6  7  1  0  0  0  0
  6 28  1  0  0  0  0
  6 29  1  0  0  0  0
  7  8  1  0  0  0  0
  8  9  1  0  0  0  0
  8 30  1  0  0  0  0
  8 31  1  0  0  0  0
  9 32  1  0  0  0  0
  9 33  1  0  0  0  0
 10 11  1  0  0  0  0
 10 34  1  0  0  0  0
 11 12  2  0  0  0  0
 11 13  1  0  0  0  0
 13 14  1  0  0  0  0
 13 35  1  0  0  0  0
 14 19  1  0  0  0  0
 14 15  2  0  0  0  0
 15 16  1  0  0  0  0
 15 36  1  0  0  0  0
 16 17  2  0  0  0  0
 16 37  1  0  0  0  0
 17 18  1  0  0  0  0
 17 38  1  0  0  0  0
 18 19  2  0  0  0  0
 18 39  1  0  0  0  0
M  END
> <s_m_source_file>
AV-unprocessed.smi

> <i_m_source_file_index>
1236

> <i_lp_mmshare_version>
43012

> <i_f3d_flags>
0

> <s_epik_input>
W0NIMl0xW0NIMl1PW0NIMl1bQ0gyXU4xW0NIMl1bQ0BASF0oW0NIM10pW05IXUMoPU8pW05IXWMyW2NIXVtjSF1bY0hdW2NIXW4y

> <s_epik_cmdline>
J2VwaWtfcHl0aG9uJywgJy1waCcsICc3LjAnLCAnLXRuJywgJzgnLCAnLW1hJywgJzIwMCcsICctbWV0YWxfYmluZGluZycsICctaW1hZScsICc8aW5maWxlLm1hZT4nLCAnLW9tYWUnLCAnPG91dGZpbGUubWFlPic=

> <r_epik_Ionization_Penalty>
0.26604

> <r_epik_Ionization_Penalty_Charging>
0

> <r_epik_Ionization_Penalty_Neutral>
0.26604

> <r_epik_State_Penalty>
0.257924

> <r_epik_Charging_Adjusted_Penalty>
0.257924

> <i_epik_Tot_Q>
0

> <i_epik_Tot_abs_Q>
0

> <r_epik_Metal_State_Penalty>
0.257923

> <b_epik_Metal_Only>
0

> <s_lp_Force_Field>
OPLS_2005

> <r_lp_Energy>
27.6221

> <b_lp_Chiralities_Consistent>
1

> <s_lp_Variant>
AV-unprocessed.smi:1236-2

> <Gold.Version>
5.8.1

> <Gold.Id.Protein>
6NUR|6NUR_protein|mol2

> <Gold.PLP.Fitness>
42.9001

> <Gold.PLP.PLP>
-33.4435

> <Gold.PLP.part.hbond>
-3.0000

> <Gold.PLP.part.metal>
0.0000

> <Gold.PLP.part.buried>
-4.3456

> <Gold.PLP.part.nonpolar>
-26.9675

> <Gold.PLP.part.repulsive>
0.5263

> <Gold.PLP.ligand.clash>
0.0000

> <Gold.PLP.ligand.torsion>
1.2855

> <Gold.PLP.Chemscore.Hbond>
3.0000

> <Gold.PLP.Chemscore.CHOScore>
0.9986

> <Gold.PLP.Chemscore.Metal>
0.0000

> <Gold.Chemscore.Hbonds>
donor molecule, donor type, donor heavy atom, donor atom, acceptor molecule, acceptor atom, score
      L1  H    10    34       P1  7948  1.00
      L1  H    13    35       P1  7948  1.00
      P1  H  7989  7998       L1     7  1.00
      L1  C    18    39       P1 10186  0.98

> <Gold.PLP.Chemscore.Internal.Correction>
0.0317

> <Gold.Rescore>
     Score         DG    S(hbond)    S(metal)    S(lipo)     H(rot)  DE(clash)    DE(int)     intcor
     16.84     -19.61       2.57        0.00      80.33       1.51       0.18       2.58       ----

> <Gold.Chemscore.Fitness>
16.8416

> <Gold.Chemscore.DG>
-19.6076

> <Gold.Chemscore.ZeroCoef>
-5.4800

> <Gold.Chemscore.Hbond>
2.5736

> <Gold.Chemscore.Metal>
0.0000

> <Gold.Chemscore.Lipo>
80.3272

> <Gold.Chemscore.Internal_Hbond>
0.0000

> <Gold.Chemscore.DEClash>
0.1811

> <Gold.Chemscore.DEInternal>
2.5850

> <Gold.Chemscore.Rot>
1.5104

> <Gold.Chemscore.Internal.Correction>
   9.000000E+99

> <Gold.Chemscore.Hbonds>
donor molecule, donor type, donor heavy atom, donor atom, acceptor molecule, acceptor atom, score
      L1  H    10    34       P1  7948  0.98
      L1  H    13    35       P1  7948  0.96
      P1  H  7989  7998       L1     7  0.21

> <Gold.Chemscore.Hbond.Weighted>
-8.5959

> <Gold.Chemscore.Metal.Weighted>
-0.0000

> <Gold.Chemscore.Lipo.Weighted>
-9.3983

> <Gold.Chemscore.Internal_Hbond.Weighted>
0.0000

> <Gold.Chemscore.DEClash.Weighted>
0.1811

> <Gold.Chemscore.DEInternal.Weighted>
2.5850

> <Gold.Chemscore.Rot.Weighted>
3.8665

> <Gold.Chemscore.Internal.Correction.Weighted>
   9.000000E+99

> <Gold.Protein.RotatedTorsions>
[ 6907 6896 6895 6894 ] final   74.64 input  -60.11 | X-H torsion
[ 7974 7965 7964 7962 ] final  -48.59 input  175.53 | X-H torsion
[ 8008 7997 7996 7995 ] final -144.54 input   59.86 | X-H torsion
[ 10167 10162 10161 10158 ] final -135.90 input  -65.29 | X-H torsion
[ 10718 10713 10712 10709 ] final -117.79 input   66.30 | X-H torsion
[ 10763 10752 10751 10750 ] final   38.40 input  -60.55 | X-H torsion
[ 11005 11000 10999 10996 ] final  -61.89 input  -57.11 | X-H torsion

> <Gold.Protein.ActiveResidues>
 VAL166  LYS551  ARG553  GLY616  TRP617  ASP618  TYR619  PRO620  LYS621  CYS622 
 ASP623  PHE694  ASN695  SER759  ASP760  ASP761  ALA762  ILE779  LEU786  VAL792 
 PHE793  MET794  SER795  GLU796  ALA797  LYS798  CYS799  TRP800  GLU811  SER814 

> <Gold.Protein.RotatedAtoms>
  152.4986  134.4241  159.9490 H   0  0  0  0  0  0  0  0  0  0  0  0  # atno 6907 bound_to 6896
  151.4216  133.3690  159.2764 H   0  0  0  0  0  0  0  0  0  0  0  0  # atno 6908 bound_to 6896
  150.9218  134.8658  159.7554 H   0  0  0  0  0  0  0  0  0  0  0  0  # atno 6909 bound_to 6896
  145.9495  140.7586  142.9511 H   0  0  0  0  0  0  0  0  0  0  0  0  # atno 7974 bound_to 7965
  155.5286  140.0597  157.2893 H   0  0  0  0  0  0  0  0  0  0  0  0  # atno 8008 bound_to 7997
  154.4492  140.1940  156.0516 H   0  0  0  0  0  0  0  0  0  0  0  0  # atno 8009 bound_to 7997
  156.0668  140.3265  155.7532 H   0  0  0  0  0  0  0  0  0  0  0  0  # atno 8010 bound_to 7997
  139.8732  143.6931  152.2637 H   0  0  0  0  0  0  0  0  0  0  0  0  # atno 10167 bound_to 10162
  156.1059  130.6210  150.9208 H   0  0  0  0  0  0  0  0  0  0  0  0  # atno 10718 bound_to 10713
  153.0002  135.6250  154.2299 H   0  0  0  0  0  0  0  0  0  0  0  0  # atno 10763 bound_to 10752
  154.2042  135.2803  155.2982 H   0  0  0  0  0  0  0  0  0  0  0  0  # atno 10764 bound_to 10752
  154.5659  135.5691  153.7109 H   0  0  0  0  0  0  0  0  0  0  0  0  # atno 10765 bound_to 10752
  141.1340  133.6634  156.5444 H   0  0  0  0  0  0  0  0  0  0  0  0  # atno 11005 bound_to 11000
  144.6793  140.2412  143.7343 LP  0  0  0  0  0  0  0  0  0  0  0  0  # atno 17320 bound_to 7965
  145.8190  139.2035  143.1949 LP  0  0  0  0  0  0  0  0  0  0  0  0  # atno 17321 bound_to 7965
  139.7264  144.7592  151.0872 LP  0  0  0  0  0  0  0  0  0  0  0  0  # atno 17342 bound_to 10162
  140.7757  143.5142  150.9615 LP  0  0  0  0  0  0  0  0  0  0  0  0  # atno 17343 bound_to 10162
  157.6235  131.0927  150.8577 LP  0  0  0  0  0  0  0  0  0  0  0  0  # atno 17370 bound_to 10713
  156.8696  130.5141  149.5297 LP  0  0  0  0  0  0  0  0  0  0  0  0  # atno 17371 bound_to 10713
  140.4114  134.7269  157.4838 LP  0  0  0  0  0  0  0  0  0  0  0  0  # atno 17394 bound_to 11000
  140.0424  134.6247  155.8963 LP  0  0  0  0  0  0  0  0  0  0  0  0  # atno 17395 bound_to 11000

$$$$
