AV-unprocessed.smi:609|AV-procd|sdf|3048|dock1
  -GOLD-   2262023563D 1   1.00000     0.00000
 Structure written by MMmdl.
 42 44  0  0  0  0  0  0  0  0  1 V2000
  151.9253  144.2850  159.6644 C   0  0  0  0  0  0  0  0  0  0  0  0
  152.6661  143.0480  160.1413 C   0  0  0  0  0  0  0  0  0  0  0  0
  152.9843  142.0350  159.2088 C   0  0  0  0  0  0  0  0  0  0  0  0
  153.6721  140.8695  159.6119 C   0  0  0  0  0  0  0  0  0  0  0  0
  154.0816  139.7686  158.8791 N   0  0  0  0  0  0  0  0  0  0  0  0
  154.6675  139.0269  159.8144 C   0  0  0  0  0  0  0  0  0  0  0  0
  154.6865  139.5177  161.0682 N   0  0  0  0  0  0  0  0  0  0  0  0
  155.2672  138.8893  162.2413 C   0  0  0  0  0  0  0  0  0  0  0  0
  154.4489  137.6775  162.7237 C   0  0  1  0  0  0  0  0  0  0  0  0
  154.6962  136.5702  161.8783 O   0  0  0  0  0  0  0  0  0  0  0  0
  154.7942  137.2945  164.1752 C   0  0  0  0  0  0  0  0  0  0  0  0
  153.8123  135.8913  164.7947 S   0  0  0  0  0  0  0  0  0  0  0  0
  154.8997  134.5531  164.4068 C   0  0  0  0  0  0  0  0  0  0  0  0
  156.0975  134.6824  163.8414 N   0  0  0  0  0  0  0  0  0  0  0  0
  156.5822  133.3847  163.7219 C   0  0  0  0  0  0  0  0  0  0  0  0
  155.6522  132.5053  164.2195 C   0  0  0  0  0  0  0  0  0  0  0  0
  154.5770  133.2696  164.6523 N   0  0  0  0  0  0  0  0  0  0  0  0
  153.3571  132.7654  165.2518 C   0  0  0  0  0  0  0  0  0  0  0  0
  154.0349  140.7436  160.9848 C   0  0  0  0  0  0  0  0  0  0  0  0
  153.7244  141.7447  161.9220 C   0  0  0  0  0  0  0  0  0  0  0  0
  153.0374  142.9031  161.5023 C   0  0  0  0  0  0  0  0  0  0  0  0
  152.7079  143.9791  162.5217 C   0  0  0  0  0  0  0  0  0  0  0  0
  151.7133  144.2355  158.5960 H   0  0  0  0  0  0  0  0  0  0  0  0
  152.5195  145.1807  159.8461 H   0  0  0  0  0  0  0  0  0  0  0  0
  150.9752  144.3871  160.1889 H   0  0  0  0  0  0  0  0  0  0  0  0
  152.7022  142.1453  158.1720 H   0  0  0  0  0  0  0  0  0  0  0  0
  155.1107  138.0711  159.5754 H   0  0  0  0  0  0  0  0  0  0  0  0
  156.2924  138.5954  162.0121 H   0  0  0  0  0  0  0  0  0  0  0  0
  155.3283  139.6388  163.0316 H   0  0  0  0  0  0  0  0  0  0  0  0
  153.3895  137.9226  162.6485 H   0  0  0  0  0  0  0  0  0  0  0  0
  153.8660  136.2182  161.5952 H   0  0  0  0  0  0  0  0  0  0  0  0
  155.8493  137.0288  164.2469 H   0  0  0  0  0  0  0  0  0  0  0  0
  154.6501  138.1459  164.8409 H   0  0  0  0  0  0  0  0  0  0  0  0
  157.5525  133.1865  163.2910 H   0  0  0  0  0  0  0  0  0  0  0  0
  155.6656  131.4281  164.2979 H   0  0  0  0  0  0  0  0  0  0  0  0
  153.3923  131.6777  165.3202 H   0  0  0  0  0  0  0  0  0  0  0  0
  152.5003  133.0532  164.6424 H   0  0  0  0  0  0  0  0  0  0  0  0
  153.2408  133.1790  166.2540 H   0  0  0  0  0  0  0  0  0  0  0  0
  154.0154  141.6224  162.9548 H   0  0  0  0  0  0  0  0  0  0  0  0
  153.0657  143.7087  163.5156 H   0  0  0  0  0  0  0  0  0  0  0  0
  151.6300  144.1299  162.5839 H   0  0  0  0  0  0  0  0  0  0  0  0
  153.1752  144.9240  162.2440 H   0  0  0  0  0  0  0  0  0  0  0  0
  1  2  1  0  0  0  0
  1 23  1  0  0  0  0
  1 24  1  0  0  0  0
  1 25  1  0  0  0  0
  2 21  1  0  0  0  0
  2  3  2  0  0  0  0
  3  4  1  0  0  0  0
  3 26  1  0  0  0  0
  4 19  2  0  0  0  0
  4  5  1  0  0  0  0
  5  6  2  0  0  0  0
  6  7  1  0  0  0  0
  6 27  1  0  0  0  0
  7  8  1  0  0  0  0
  7 19  1  0  0  0  0
  8  9  1  0  0  0  0
  8 28  1  0  0  0  0
  8 29  1  0  0  0  0
  9 10  1  0  0  0  0
  9 11  1  0  0  0  0
  9 30  1  0  0  0  0
 10 31  1  0  0  0  0
 11 12  1  0  0  0  0
 11 32  1  0  0  0  0
 11 33  1  0  0  0  0
 12 13  1  0  0  0  0
 13 17  1  0  0  0  0
 13 14  2  0  0  0  0
 14 15  1  0  0  0  0
 15 16  2  0  0  0  0
 15 34  1  0  0  0  0
 16 17  1  0  0  0  0
 16 35  1  0  0  0  0
 17 18  1  0  0  0  0
 18 36  1  0  0  0  0
 18 37  1  0  0  0  0
 18 38  1  0  0  0  0
 19 20  1  0  0  0  0
 20 21  2  0  0  0  0
 20 39  1  0  0  0  0
 21 22  1  0  0  0  0
 22 40  1  0  0  0  0
 22 41  1  0  0  0  0
 22 42  1  0  0  0  0
M  END
> <s_m_source_file>
AV-unprocessed.smi

> <i_m_source_file_index>
609

> <i_lp_mmshare_version>
43012

> <i_f3d_flags>
0

> <s_epik_input>
W0NIM11jKFtjSF0xKWMoW0NIM10pW2NIXWMoYzEyKW4oW2NIXW4yKVtDSDJdW0NASF0oW09IXSlbQ0gyXVNjM25bY0hdW2NIXW4zW0NIM10=

> <s_epik_cmdline>
J2VwaWtfcHl0aG9uJywgJy1waCcsICc3LjAnLCAnLXRuJywgJzgnLCAnLW1hJywgJzIwMCcsICctbWV0YWxfYmluZGluZycsICctaW1hZScsICc8aW5maWxlLm1hZT4nLCAnLW9tYWUnLCAnPG91dGZpbGUubWFlPic=

> <r_lp_tautomer_probability>
1

> <r_epik_Ionization_Penalty>
1.15618

> <r_epik_Ionization_Penalty_Charging>
1.04908

> <r_epik_Ionization_Penalty_Neutral>
0.107097

> <r_epik_State_Penalty>
1.19446

> <r_epik_Charging_Adjusted_Penalty>
2.24354

> <i_epik_Tot_Q>
0

> <i_epik_Tot_abs_Q>
0

> <r_epik_Metal_State_Penalty>
0.487262

> <b_epik_Metal_Only>
0

> <s_lp_Force_Field>
OPLS_2005

> <r_lp_Energy>
7.62781

> <b_lp_Chiralities_Consistent>
1

> <s_lp_Variant>
AV-unprocessed.smi:609-4

> <Gold.Version>
5.8.1

> <Gold.Id.Protein>
6NUR|6NUR_protein|mol2

> <Gold.PLP.Fitness>
49.5087

> <Gold.PLP.PLP>
-47.3289

> <Gold.PLP.part.hbond>
-1.0000

> <Gold.PLP.part.metal>
0.0000

> <Gold.PLP.part.buried>
-2.2173

> <Gold.PLP.part.nonpolar>
-44.0331

> <Gold.PLP.part.repulsive>
0.0303

> <Gold.PLP.ligand.clash>
0.0000

> <Gold.PLP.ligand.torsion>
0.4851

> <Gold.PLP.Chemscore.Hbond>
1.0000

> <Gold.PLP.Chemscore.CHOScore>
0.0000

> <Gold.PLP.Chemscore.Metal>
0.0000

> <Gold.Chemscore.Hbonds>
donor molecule, donor type, donor heavy atom, donor atom, acceptor molecule, acceptor atom, score
      P1  H  7997  8008       L1     5  1.00

> <Gold.PLP.Chemscore.Internal.Correction>
0.1499

> <Gold.Rescore>
     Score         DG    S(hbond)    S(metal)    S(lipo)     H(rot)  DE(clash)    DE(int)     intcor
     17.44     -18.30       0.97        0.00     134.50       2.41       0.26       0.61       ----

> <Gold.Chemscore.Fitness>
17.4351

> <Gold.Chemscore.DG>
-18.3046

> <Gold.Chemscore.ZeroCoef>
-5.4800

> <Gold.Chemscore.Hbond>
0.9735

> <Gold.Chemscore.Metal>
0.0000

> <Gold.Chemscore.Lipo>
134.4976

> <Gold.Chemscore.Internal_Hbond>
0.0000

> <Gold.Chemscore.DEClash>
0.2589

> <Gold.Chemscore.DEInternal>
0.6106

> <Gold.Chemscore.Rot>
2.4074

> <Gold.Chemscore.Internal.Correction>
   9.000000E+99

> <Gold.Chemscore.Hbonds>
donor molecule, donor type, donor heavy atom, donor atom, acceptor molecule, acceptor atom, score
      P1  H  7997  8008       L1     5  0.95

> <Gold.Chemscore.Hbond.Weighted>
-3.2514

> <Gold.Chemscore.Metal.Weighted>
-0.0000

> <Gold.Chemscore.Lipo.Weighted>
-15.7362

> <Gold.Chemscore.Internal_Hbond.Weighted>
0.0000

> <Gold.Chemscore.DEClash.Weighted>
0.2589

> <Gold.Chemscore.DEInternal.Weighted>
0.6106

> <Gold.Chemscore.Rot.Weighted>
6.1630

> <Gold.Chemscore.Internal.Correction.Weighted>
   9.000000E+99

> <Gold.Protein.RotatedTorsions>
[ 6907 6896 6895 6894 ] final -118.22 input  -60.11 | X-H torsion
[ 7974 7965 7964 7962 ] final  -52.04 input  175.53 | X-H torsion
[ 8008 7997 7996 7995 ] final  -99.19 input   59.86 | X-H torsion
[ 10167 10162 10161 10158 ] final  -41.06 input  -65.29 | X-H torsion
[ 10718 10713 10712 10709 ] final -175.95 input   66.30 | X-H torsion
[ 10763 10752 10751 10750 ] final  150.45 input  -60.55 | X-H torsion
[ 11005 11000 10999 10996 ] final  173.55 input  -57.11 | X-H torsion

> <Gold.Protein.ActiveResidues>
 VAL166  LYS551  ARG553  GLY616  TRP617  ASP618  TYR619  PRO620  LYS621  CYS622 
 ASP623  PHE694  ASN695  SER759  ASP760  ASP761  ALA762  ILE779  LEU786  VAL792 
 PHE793  MET794  SER795  GLU796  ALA797  LYS798  CYS799  TRP800  GLU811  SER814 

> <Gold.Protein.RotatedAtoms>
  150.8201  133.8268  159.3142 H   0  0  0  0  0  0  0  0  0  0  0  0  # atno 6907 bound_to 6896
  151.6028  135.1044  160.0073 H   0  0  0  0  0  0  0  0  0  0  0  0  # atno 6908 bound_to 6896
  152.4291  133.7205  159.6587 H   0  0  0  0  0  0  0  0  0  0  0  0  # atno 6909 bound_to 6896
  145.9123  140.7904  142.9689 H   0  0  0  0  0  0  0  0  0  0  0  0  # atno 7974 bound_to 7965
  154.8114  140.0449  157.1345 H   0  0  0  0  0  0  0  0  0  0  0  0  # atno 8008 bound_to 7997
  154.9364  140.3046  155.5122 H   0  0  0  0  0  0  0  0  0  0  0  0  # atno 8009 bound_to 7997
  156.2972  140.2313  156.4429 H   0  0  0  0  0  0  0  0  0  0  0  0  # atno 8010 bound_to 7997
  140.7015  143.3117  151.3012 H   0  0  0  0  0  0  0  0  0  0  0  0  # atno 10167 bound_to 10162
  156.8075  130.9574  151.3117 H   0  0  0  0  0  0  0  0  0  0  0  0  # atno 10718 bound_to 10713
  154.0877  135.2855  155.3278 H   0  0  0  0  0  0  0  0  0  0  0  0  # atno 10763 bound_to 10752
  154.6641  135.5323  153.8058 H   0  0  0  0  0  0  0  0  0  0  0  0  # atno 10764 bound_to 10752
  153.0425  135.6541  154.1048 H   0  0  0  0  0  0  0  0  0  0  0  0  # atno 10765 bound_to 10752
  140.3417  134.7271  157.4206 H   0  0  0  0  0  0  0  0  0  0  0  0  # atno 11005 bound_to 11000
  144.6744  140.1845  143.7402 LP  0  0  0  0  0  0  0  0  0  0  0  0  # atno 17320 bound_to 7965
  145.8655  139.2245  143.1691 LP  0  0  0  0  0  0  0  0  0  0  0  0  # atno 17321 bound_to 7965
  139.6541  144.0308  152.2647 LP  0  0  0  0  0  0  0  0  0  0  0  0  # atno 17342 bound_to 10162
  139.9853  144.6399  150.7863 LP  0  0  0  0  0  0  0  0  0  0  0  0  # atno 17343 bound_to 10162
  157.6523  130.8894  149.9657 LP  0  0  0  0  0  0  0  0  0  0  0  0  # atno 17370 bound_to 10713
  156.1064  130.3652  150.0126 LP  0  0  0  0  0  0  0  0  0  0  0  0  # atno 17371 bound_to 10713
  140.0776  134.5776  155.8575 LP  0  0  0  0  0  0  0  0  0  0  0  0  # atno 17394 bound_to 11000
  141.2037  133.6633  156.6076 LP  0  0  0  0  0  0  0  0  0  0  0  0  # atno 17395 bound_to 11000

$$$$
