AV-unprocessed.smi:1560|AV-procd|sdf|6278|dock3
  -GOLD-   22720 6473D 1   1.00000     0.00000
 Structure written by MMmdl.
 48 49  0  0  0  0  0  0  0  0  2 V2000
  149.9799  140.2161  154.9465 C   0  0  0  0  0  0  0  0  0  0  0  0
  148.6440  140.8739  154.5571 C   0  0  0  0  0  0  0  0  0  0  0  0
  147.6983  141.2305  155.7450 C   0  0  2  0  0  0  0  0  0  0  0  0
  148.5923  141.5180  156.9806 C   0  0  0  0  0  0  0  0  0  0  0  0
  146.7843  140.0081  156.0561 C   0  0  0  0  0  0  0  0  0  0  0  0
  146.3530  139.3010  154.8538 N   0  0  0  0  0  0  0  0  0  0  0  0
  146.2934  137.9670  154.7372 C   0  0  0  0  0  0  0  0  0  0  0  0
  146.6009  137.2002  155.6510 O   0  0  0  0  0  0  0  0  0  0  0  0
  145.7899  137.4314  153.3887 C   0  0  0  0  0  0  0  0  0  0  0  0
  144.5227  136.6931  153.4934 N   0  0  0  0  0  0  0  0  0  0  0  0
  143.3762  137.1821  152.8834 C   0  0  0  0  0  0  0  0  0  0  0  0
  142.1750  136.5600  152.9457 C   0  0  0  0  0  0  0  0  0  0  0  0
  142.0287  135.3082  153.6804 C   0  0  0  0  0  0  0  0  0  0  0  0
  140.9849  134.6691  153.7924 O   0  0  0  0  0  0  0  0  0  0  0  0
  143.2036  134.8502  154.2829 N   0  0  0  0  0  0  0  0  0  0  0  0
  144.4439  135.4880  154.2251 C   0  0  0  0  0  0  0  0  0  0  0  0
  145.4173  135.0008  154.7989 O   0  0  0  0  0  0  0  0  0  0  0  0
  146.8696  142.4446  155.4035 N   0  3  0  0  0  0  0  0  0  0  0  0
  146.2646  142.4569  154.0410 C   0  0  0  0  0  0  0  0  0  0  0  0
  145.6323  143.8262  153.7456 C   0  0  0  0  0  0  0  0  0  0  0  0
  144.6456  144.1129  154.7263 O   0  0  0  0  0  0  0  0  0  0  0  0
  145.2063  144.1890  156.0291 C   0  0  0  0  0  0  0  0  0  0  0  0
  145.8401  142.8389  156.4069 C   0  0  0  0  0  0  0  0  0  0  0  0
  143.1502  133.9879  154.8055 H   0  0  0  0  0  0  0  0  0  0  0  0
  150.5703  140.0003  154.0560 H   0  0  0  0  0  0  0  0  0  0  0  0
  149.8299  139.2724  155.4702 H   0  0  0  0  0  0  0  0  0  0  0  0
  150.5821  140.8635  155.5838 H   0  0  0  0  0  0  0  0  0  0  0  0
  148.8488  141.7576  153.9534 H   0  0  0  0  0  0  0  0  0  0  0  0
  148.1327  140.1952  153.8734 H   0  0  0  0  0  0  0  0  0  0  0  0
  149.3616  140.7560  157.1101 H   0  0  0  0  0  0  0  0  0  0  0  0
  148.0175  141.5303  157.9069 H   0  0  0  0  0  0  0  0  0  0  0  0
  149.1031  142.4776  156.8971 H   0  0  0  0  0  0  0  0  0  0  0  0
  147.2991  139.2905  156.6956 H   0  0  0  0  0  0  0  0  0  0  0  0
  145.8918  140.3261  156.5958 H   0  0  0  0  0  0  0  0  0  0  0  0
  146.0835  139.8624  154.0586 H   0  0  0  0  0  0  0  0  0  0  0  0
  145.6759  138.2770  152.7088 H   0  0  0  0  0  0  0  0  0  0  0  0
  146.5586  136.8014  152.9360 H   0  0  0  0  0  0  0  0  0  0  0  0
  143.4365  138.1095  152.3315 H   0  0  0  0  0  0  0  0  0  0  0  0
  141.3176  136.9920  152.4500 H   0  0  0  0  0  0  0  0  0  0  0  0
  147.0053  142.2542  153.2702 H   0  0  0  0  0  0  0  0  0  0  0  0
  145.4964  141.6877  153.9592 H   0  0  0  0  0  0  0  0  0  0  0  0
  146.3900  144.6114  153.7275 H   0  0  0  0  0  0  0  0  0  0  0  0
  145.1595  143.8174  152.7633 H   0  0  0  0  0  0  0  0  0  0  0  0
  145.9445  144.9916  156.0744 H   0  0  0  0  0  0  0  0  0  0  0  0
  144.4175  144.4436  156.7373 H   0  0  0  0  0  0  0  0  0  0  0  0
  145.0634  142.0766  156.4696 H   0  0  0  0  0  0  0  0  0  0  0  0
  146.2676  142.9464  157.4019 H   0  0  0  0  0  0  0  0  0  0  0  0
  147.5334  143.2059  155.4023 H   0  0  0  0  0  0  0  0  0  0  0  0
  1  2  1  0  0  0  0
  1 25  1  0  0  0  0
  1 26  1  0  0  0  0
  1 27  1  0  0  0  0
  2  3  1  0  0  0  0
  2 28  1  0  0  0  0
  2 29  1  0  0  0  0
  3  4  1  0  0  0  0
  3  5  1  0  0  0  0
  3 18  1  0  0  0  0
  4 30  1  0  0  0  0
  4 31  1  0  0  0  0
  4 32  1  0  0  0  0
  5  6  1  0  0  0  0
  5 33  1  0  0  0  0
  5 34  1  0  0  0  0
  6  7  1  0  0  0  0
  6 35  1  0  0  0  0
  7  8  2  0  0  0  0
  7  9  1  0  0  0  0
  9 10  1  0  0  0  0
  9 36  1  0  0  0  0
  9 37  1  0  0  0  0
 10 16  1  0  0  0  0
 10 11  1  0  0  0  0
 11 12  2  0  0  0  0
 11 38  1  0  0  0  0
 12 13  1  0  0  0  0
 12 39  1  0  0  0  0
 13 14  2  0  0  0  0
 13 15  1  0  0  0  0
 15 24  1  0  0  0  0
 15 16  1  0  0  0  0
 16 17  2  0  0  0  0
 18 23  1  0  0  0  0
 18 19  1  0  0  0  0
 18 48  1  0  0  0  0
 19 20  1  0  0  0  0
 19 40  1  0  0  0  0
 19 41  1  0  0  0  0
 20 21  1  0  0  0  0
 20 42  1  0  0  0  0
 20 43  1  0  0  0  0
 21 22  1  0  0  0  0
 22 23  1  0  0  0  0
 22 44  1  0  0  0  0
 22 45  1  0  0  0  0
 23 46  1  0  0  0  0
 23 47  1  0  0  0  0
M  CHG  1  18   1
M  END
> <s_m_source_file>
AV-unprocessed.smi

> <i_m_source_file_index>
1560

> <i_lp_mmshare_version>
43012

> <i_f3d_flags>
0

> <s_epik_input>
W0NIMl0xW0NIMl1PW0NIMl1bQ0gyXU4xW0NAQF0oW0NIM10pKFtDSDJdW0NIM10pW0NIMl1bTkhdQyg9TylbQ0gyXW4yW2NIXVtjSF1jKD1PKVtuSF1jMj1P

> <s_epik_cmdline>
J2VwaWtfcHl0aG9uJywgJy1waCcsICc3LjAnLCAnLXRuJywgJzgnLCAnLW1hJywgJzIwMCcsICctbWV0YWxfYmluZGluZycsICctaW1hZScsICc8aW5maWxlLm1hZT4nLCAnLW9tYWUnLCAnPG91dGZpbGUubWFlPic=

> <r_lp_tautomer_probability>
0.999537

> <r_epik_Ionization_Penalty>
0.523885

> <r_epik_Ionization_Penalty_Charging>
0.523885

> <r_epik_Ionization_Penalty_Neutral>
8.70177e-08

> <r_epik_State_Penalty>
0.572334

> <r_epik_Charging_Adjusted_Penalty>
1.09622

> <i_epik_Tot_Q>
1

> <i_epik_Tot_abs_Q>
1

> <r_epik_Metal_State_Penalty>
0.938906

> <b_epik_Metal_Only>
0

> <s_lp_Force_Field>
OPLS_2005

> <r_lp_Energy>
29.9369

> <b_lp_Chiralities_Consistent>
1

> <s_lp_Variant>
AV-unprocessed.smi:1560-4

> <Gold.Version>
5.8.1

> <Gold.Id.Protein>
6NUR|6NUR_protein|mol2

> <Gold.PLP.Fitness>
41.8130

> <Gold.PLP.PLP>
-28.2588

> <Gold.PLP.part.hbond>
-3.3949

> <Gold.PLP.part.metal>
0.0000

> <Gold.PLP.part.buried>
-7.4295

> <Gold.PLP.part.nonpolar>
-16.8729

> <Gold.PLP.part.repulsive>
0.5112

> <Gold.PLP.ligand.clash>
0.0000

> <Gold.PLP.ligand.torsion>
1.3124

> <Gold.PLP.Chemscore.Hbond>
3.3501

> <Gold.PLP.Chemscore.CHOScore>
1.9527

> <Gold.PLP.Chemscore.Metal>
0.0000

> <Gold.Chemscore.Hbonds>
donor molecule, donor type, donor heavy atom, donor atom, acceptor molecule, acceptor atom, score
      L1  H    15    24       P1 10957  0.37
      L1  H    18    48       P1  8028  1.90
      P1  H 11000 11005       L1    14  0.96
      L1  C    11    38       P1 10171  0.87
      L1  C    11    38       P1 10175  1.00

> <Gold.PLP.Chemscore.Internal.Correction>
0.2706

> <Gold.Rescore>
     Score         DG    S(hbond)    S(metal)    S(lipo)     H(rot)  DE(clash)    DE(int)     intcor
      9.89     -13.27       2.51        0.00      51.08       2.56       0.46       2.92       ----

> <Gold.Chemscore.Fitness>
9.8937

> <Gold.Chemscore.DG>
-13.2748

> <Gold.Chemscore.ZeroCoef>
-5.4800

> <Gold.Chemscore.Hbond>
2.5093

> <Gold.Chemscore.Metal>
0.0000

> <Gold.Chemscore.Lipo>
51.0795

> <Gold.Chemscore.Internal_Hbond>
0.0000

> <Gold.Chemscore.DEClash>
0.4601

> <Gold.Chemscore.DEInternal>
2.9210

> <Gold.Chemscore.Rot>
2.5634

> <Gold.Chemscore.Internal.Correction>
   9.000000E+99

> <Gold.Chemscore.Hbonds>
donor molecule, donor type, donor heavy atom, donor atom, acceptor molecule, acceptor atom, score
      L1  H    15    24       P1 10957  0.36
      L1  H    18    48       P1  8028  0.21
      P1  H 11000 11005       L1    14  0.83

> <Gold.Chemscore.Hbond.Weighted>
-8.3809

> <Gold.Chemscore.Metal.Weighted>
-0.0000

> <Gold.Chemscore.Lipo.Weighted>
-5.9763

> <Gold.Chemscore.Internal_Hbond.Weighted>
0.0000

> <Gold.Chemscore.DEClash.Weighted>
0.4601

> <Gold.Chemscore.DEInternal.Weighted>
2.9210

> <Gold.Chemscore.Rot.Weighted>
6.5624

> <Gold.Chemscore.Internal.Correction.Weighted>
   9.000000E+99

> <Gold.Protein.RotatedTorsions>
[ 6907 6896 6895 6894 ] final   62.66 input  -60.11 | X-H torsion
[ 7974 7965 7964 7962 ] final  153.70 input  175.53 | X-H torsion
[ 8008 7997 7996 7995 ] final  -41.61 input   59.86 | X-H torsion
[ 10167 10162 10161 10158 ] final   76.94 input  -65.29 | X-H torsion
[ 10718 10713 10712 10709 ] final   45.12 input   66.30 | X-H torsion
[ 10763 10752 10751 10750 ] final   55.56 input  -60.55 | X-H torsion
[ 11005 11000 10999 10996 ] final   22.65 input  -57.11 | X-H torsion

> <Gold.Protein.ActiveResidues>
 VAL166  LYS551  ARG553  GLY616  TRP617  ASP618  TYR619  PRO620  LYS621  CYS622 
 ASP623  PHE694  ASN695  SER759  ASP760  ASP761  ALA762  ILE779  LEU786  VAL792 
 PHE793  MET794  SER795  GLU796  ALA797  LYS798  CYS799  TRP800  GLU811  SER814 

> <Gold.Protein.RotatedAtoms>
  152.4190  134.5989  159.9994 H   0  0  0  0  0  0  0  0  0  0  0  0  # atno 6907 bound_to 6896
  151.6144  133.3339  159.3082 H   0  0  0  0  0  0  0  0  0  0  0  0  # atno 6908 bound_to 6896
  150.8079  134.7254  159.6726 H   0  0  0  0  0  0  0  0  0  0  0  0  # atno 6909 bound_to 6896
  144.8137  139.6835  143.6130 H   0  0  0  0  0  0  0  0  0  0  0  0  # atno 7974 bound_to 7965
  154.4003  140.1495  156.3219 H   0  0  0  0  0  0  0  0  0  0  0  0  # atno 8008 bound_to 7997
  155.8522  140.3457  155.5679 H   0  0  0  0  0  0  0  0  0  0  0  0  # atno 8009 bound_to 7997
  155.7972  140.0865  157.1967 H   0  0  0  0  0  0  0  0  0  0  0  0  # atno 8010 bound_to 7997
  139.9869  144.5786  150.7852 H   0  0  0  0  0  0  0  0  0  0  0  0  # atno 10167 bound_to 10162
  157.4341  130.8042  149.7631 H   0  0  0  0  0  0  0  0  0  0  0  0  # atno 10718 bound_to 10713
  152.9818  135.5706  154.5087 H   0  0  0  0  0  0  0  0  0  0  0  0  # atno 10763 bound_to 10752
  154.4594  135.2781  155.1726 H   0  0  0  0  0  0  0  0  0  0  0  0  # atno 10764 bound_to 10752
  154.3320  135.6247  153.5609 H   0  0  0  0  0  0  0  0  0  0  0  0  # atno 10765 bound_to 10752
  140.3783  134.1948  155.7664 H   0  0  0  0  0  0  0  0  0  0  0  0  # atno 11005 bound_to 11000
  146.2438  139.6056  142.9473 LP  0  0  0  0  0  0  0  0  0  0  0  0  # atno 17320 bound_to 7965
  145.5264  141.0429  143.2407 LP  0  0  0  0  0  0  0  0  0  0  0  0  # atno 17321 bound_to 7965
  140.7469  143.2898  151.3362 LP  0  0  0  0  0  0  0  0  0  0  0  0  # atno 17342 bound_to 10162
  139.6369  144.0614  152.2523 LP  0  0  0  0  0  0  0  0  0  0  0  0  # atno 17343 bound_to 10162
  155.9924  130.3931  150.2944 LP  0  0  0  0  0  0  0  0  0  0  0  0  # atno 17370 bound_to 10713
  157.1103  131.0219  151.3050 LP  0  0  0  0  0  0  0  0  0  0  0  0  # atno 17371 bound_to 10713
  141.1932  133.8156  157.0808 LP  0  0  0  0  0  0  0  0  0  0  0  0  # atno 17394 bound_to 11000
  140.0498  134.9811  157.1116 LP  0  0  0  0  0  0  0  0  0  0  0  0  # atno 17395 bound_to 11000

$$$$
