AV-unprocessed.smi:2973|AV-procd|sdf|11338|dock5
  -GOLD-   2272016253D 1   1.00000     0.00000
 Structure written by MMmdl.
 49 51  0  0  0  0  0  0  0  0  1 V2000
  150.7006  142.1433  157.2634 C   0  0  0  0  0  0  0  0  0  0  0  0
  151.9560  141.6507  158.0151 C   0  0  1  0  0  0  0  0  0  0  0  0
  152.0169  142.2919  159.4187 C   0  0  0  0  0  0  0  0  0  0  0  0
  153.2831  141.8821  160.1869 C   0  0  0  0  0  0  0  0  0  0  0  0
  153.4017  140.3554  160.2934 C   0  0  0  0  0  0  0  0  0  0  0  0
  153.3626  139.7043  158.9019 C   0  0  0  0  0  0  0  0  0  0  0  0
  152.0911  140.0989  158.1126 C   0  0  1  0  0  0  0  0  0  0  0  0
  150.9091  139.4787  158.6883 N   0  0  0  0  0  0  0  0  0  0  0  0
  150.3198  138.6080  157.8592 C   0  0  0  0  0  0  0  0  0  0  0  0
  149.3147  137.9495  158.1204 O   0  0  0  0  0  0  0  0  0  0  0  0
  151.0195  138.5777  156.7100 N   0  0  0  0  0  0  0  0  0  0  0  0
  150.6880  137.7233  155.5594 C   0  0  0  0  0  0  0  0  0  0  0  0
  150.9303  136.2186  155.7706 C   0  0  0  0  0  0  0  0  0  0  0  0
  151.9802  135.8534  156.2981 O   0  0  0  0  0  0  0  0  0  0  0  0
  149.9849  135.3544  155.3631 N   0  0  0  0  0  0  0  0  0  0  0  0
  150.0722  133.9023  155.4580 C   0  0  0  0  0  0  0  0  0  0  0  0
  149.2184  133.2158  154.3786 C   0  0  0  0  0  0  0  0  0  0  0  0
  149.4790  131.7237  154.2978 C   0  0  0  0  0  0  0  0  0  0  0  0
  148.6604  130.8914  153.5047 C   0  0  0  0  0  0  0  0  0  0  0  0
  148.9445  129.5125  153.4647 C   0  0  0  0  0  0  0  0  0  0  0  0
  150.0314  129.0219  154.2140 C   0  0  0  0  0  0  0  0  0  0  0  0
  150.7907  129.9363  154.9707 C   0  0  0  0  0  0  0  0  0  0  0  0
  150.5271  131.2603  155.0159 N   0  0  0  0  0  0  0  0  0  0  0  0
  152.0718  139.4065  156.7553 C   0  0  0  0  0  0  0  0  0  0  0  0
  152.9069  139.5973  155.8711 O   0  0  0  0  0  0  0  0  0  0  0  0
  149.7832  141.8280  157.7610 H   0  0  0  0  0  0  0  0  0  0  0  0
  150.6681  141.7741  156.2383 H   0  0  0  0  0  0  0  0  0  0  0  0
  150.6835  143.2321  157.2099 H   0  0  0  0  0  0  0  0  0  0  0  0
  152.8196  142.0198  157.4590 H   0  0  0  0  0  0  0  0  0  0  0  0
  151.9865  143.3787  159.3324 H   0  0  0  0  0  0  0  0  0  0  0  0
  151.1353  142.0079  159.9950 H   0  0  0  0  0  0  0  0  0  0  0  0
  154.1628  142.2830  159.6821 H   0  0  0  0  0  0  0  0  0  0  0  0
  153.2708  142.3235  161.1838 H   0  0  0  0  0  0  0  0  0  0  0  0
  154.3297  140.0903  160.8008 H   0  0  0  0  0  0  0  0  0  0  0  0
  152.5914  139.9646  160.9100 H   0  0  0  0  0  0  0  0  0  0  0  0
  154.2502  140.0113  158.3462 H   0  0  0  0  0  0  0  0  0  0  0  0
  153.4310  138.6198  159.0049 H   0  0  0  0  0  0  0  0  0  0  0  0
  150.5834  139.6864  159.6211 H   0  0  0  0  0  0  0  0  0  0  0  0
  149.6399  137.8645  155.2905 H   0  0  0  0  0  0  0  0  0  0  0  0
  151.2568  138.0413  154.6840 H   0  0  0  0  0  0  0  0  0  0  0  0
  149.1488  135.7329  154.9424 H   0  0  0  0  0  0  0  0  0  0  0  0
  151.1131  133.5821  155.3860 H   0  0  0  0  0  0  0  0  0  0  0  0
  149.7243  133.6113  156.4496 H   0  0  0  0  0  0  0  0  0  0  0  0
  148.1590  133.3780  154.5816 H   0  0  0  0  0  0  0  0  0  0  0  0
  149.4131  133.6620  153.4024 H   0  0  0  0  0  0  0  0  0  0  0  0
  147.8343  131.2987  152.9401 H   0  0  0  0  0  0  0  0  0  0  0  0
  148.3397  128.8434  152.8707 H   0  0  0  0  0  0  0  0  0  0  0  0
  150.2777  127.9704  154.2084 H   0  0  0  0  0  0  0  0  0  0  0  0
  151.6314  129.5952  155.5563 H   0  0  0  0  0  0  0  0  0  0  0  0
  1  2  1  0  0  0  0
  1 26  1  0  0  0  0
  1 27  1  0  0  0  0
  1 28  1  0  0  0  0
  2  7  1  0  0  0  0
  2  3  1  0  0  0  0
  2 29  1  0  0  0  0
  3  4  1  0  0  0  0
  3 30  1  0  0  0  0
  3 31  1  0  0  0  0
  4  5  1  0  0  0  0
  4 32  1  0  0  0  0
  4 33  1  0  0  0  0
  5  6  1  0  0  0  0
  5 34  1  0  0  0  0
  5 35  1  0  0  0  0
  6  7  1  0  0  0  0
  6 36  1  0  0  0  0
  6 37  1  0  0  0  0
  7 24  1  0  0  0  0
  7  8  1  0  0  0  0
  8  9  1  0  0  0  0
  8 38  1  0  0  0  0
  9 10  2  0  0  0  0
  9 11  1  0  0  0  0
 11 12  1  0  0  0  0
 11 24  1  0  0  0  0
 12 13  1  0  0  0  0
 12 39  1  0  0  0  0
 12 40  1  0  0  0  0
 13 14  2  0  0  0  0
 13 15  1  0  0  0  0
 15 16  1  0  0  0  0
 15 41  1  0  0  0  0
 16 17  1  0  0  0  0
 16 42  1  0  0  0  0
 16 43  1  0  0  0  0
 17 18  1  0  0  0  0
 17 44  1  0  0  0  0
 17 45  1  0  0  0  0
 18 23  1  0  0  0  0
 18 19  2  0  0  0  0
 19 20  1  0  0  0  0
 19 46  1  0  0  0  0
 20 21  2  0  0  0  0
 20 47  1  0  0  0  0
 21 22  1  0  0  0  0
 21 48  1  0  0  0  0
 22 23  2  0  0  0  0
 22 49  1  0  0  0  0
 24 25  2  0  0  0  0
M  END
> <s_m_source_file>
AV-unprocessed.smi

> <i_m_source_file_index>
2973

> <i_lp_mmshare_version>
43012

> <i_f3d_flags>
0

> <s_epik_input>
W0NIMl0xW0NIMl1bQ0gyXVtDSDJdW0NAQEhdKFtDSDNdKVtDQF0xMltOSF1DKD1PKU4oQzI9TylbQ0gyXUMoPU8pW05IXVtDSDJdW0NIMl1jM1tjSF1bY0hdW2NIXVtjSF1uMw==

> <s_epik_cmdline>
J2VwaWtfcHl0aG9uJywgJy1waCcsICc3LjAnLCAnLXRuJywgJzgnLCAnLW1hJywgJzIwMCcsICctbWV0YWxfYmluZGluZycsICctaW1hZScsICc8aW5maWxlLm1hZT4nLCAnLW9tYWUnLCAnPG91dGZpbGUubWFlPic=

> <r_lp_tautomer_probability>
1

> <r_epik_Ionization_Penalty>
0.0245152

> <r_epik_Ionization_Penalty_Charging>
0

> <r_epik_Ionization_Penalty_Neutral>
0.0245152

> <r_epik_State_Penalty>
0.0198648

> <r_epik_Charging_Adjusted_Penalty>
0.0198648

> <i_epik_Tot_Q>
0

> <i_epik_Tot_abs_Q>
0

> <r_epik_Metal_State_Penalty>
0.0400162

> <b_epik_Metal_Only>
0

> <s_lp_Force_Field>
OPLS_2005

> <r_lp_Energy>
22.4148

> <b_lp_Chiralities_Consistent>
1

> <s_lp_Variant>
AV-unprocessed.smi:2973-2

> <Gold.Version>
5.8.1

> <Gold.Id.Protein>
6NUR|6NUR_protein|mol2

> <Gold.PLP.Fitness>
44.5814

> <Gold.PLP.PLP>
-39.7343

> <Gold.PLP.part.hbond>
-2.0000

> <Gold.PLP.part.metal>
0.0000

> <Gold.PLP.part.buried>
-4.4300

> <Gold.PLP.part.nonpolar>
-32.8749

> <Gold.PLP.part.repulsive>
0.2247

> <Gold.PLP.ligand.clash>
0.0000

> <Gold.PLP.ligand.torsion>
0.5896

> <Gold.PLP.Chemscore.Hbond>
2.0000

> <Gold.PLP.Chemscore.CHOScore>
0.0000

> <Gold.PLP.Chemscore.Metal>
0.0000

> <Gold.Chemscore.Hbonds>
donor molecule, donor type, donor heavy atom, donor atom, acceptor molecule, acceptor atom, score
      P1  H  7997  8008       L1    25  1.00
      P1  H 10752 10763       L1    14  1.00

> <Gold.PLP.Chemscore.Internal.Correction>
0.0264

> <Gold.Rescore>
     Score         DG    S(hbond)    S(metal)    S(lipo)     H(rot)  DE(clash)    DE(int)     intcor
     18.08     -18.49       1.96        0.00      95.82       1.86       0.01       0.40       ----

> <Gold.Chemscore.Fitness>
18.0811

> <Gold.Chemscore.DG>
-18.4936

> <Gold.Chemscore.ZeroCoef>
-5.4800

> <Gold.Chemscore.Hbond>
1.9618

> <Gold.Chemscore.Metal>
0.0000

> <Gold.Chemscore.Lipo>
95.8202

> <Gold.Chemscore.Internal_Hbond>
0.0000

> <Gold.Chemscore.DEClash>
0.0127

> <Gold.Chemscore.DEInternal>
0.3999

> <Gold.Chemscore.Rot>
1.8553

> <Gold.Chemscore.Internal.Correction>
   9.000000E+99

> <Gold.Chemscore.Hbonds>
donor molecule, donor type, donor heavy atom, donor atom, acceptor molecule, acceptor atom, score
      P1  H  7997  8008       L1    25  0.95
      P1  H 10752 10763       L1    14  0.74

> <Gold.Chemscore.Hbond.Weighted>
-6.5524

> <Gold.Chemscore.Metal.Weighted>
-0.0000

> <Gold.Chemscore.Lipo.Weighted>
-11.2110

> <Gold.Chemscore.Internal_Hbond.Weighted>
0.0000

> <Gold.Chemscore.DEClash.Weighted>
0.0127

> <Gold.Chemscore.DEInternal.Weighted>
0.3999

> <Gold.Chemscore.Rot.Weighted>
4.7497

> <Gold.Chemscore.Internal.Correction.Weighted>
   9.000000E+99

> <Gold.Protein.RotatedTorsions>
[ 6907 6896 6895 6894 ] final  176.10 input  -60.11 | X-H torsion
[ 7974 7965 7964 7962 ] final -117.74 input  175.53 | X-H torsion
[ 8008 7997 7996 7995 ] final  -38.73 input   59.86 | X-H torsion
[ 10167 10162 10161 10158 ] final  -10.85 input  -65.29 | X-H torsion
[ 10718 10713 10712 10709 ] final  -97.70 input   66.30 | X-H torsion
[ 10763 10752 10751 10750 ] final   91.41 input  -60.55 | X-H torsion
[ 11005 11000 10999 10996 ] final   87.75 input  -57.11 | X-H torsion

> <Gold.Protein.ActiveResidues>
 VAL166  LYS551  ARG553  GLY616  TRP617  ASP618  TYR619  PRO620  LYS621  CYS622 
 ASP623  PHE694  ASN695  SER759  ASP760  ASP761  ALA762  ILE779  LEU786  VAL792 
 PHE793  MET794  SER795  GLU796  ALA797  LYS798  CYS799  TRP800  GLU811  SER814 

> <Gold.Protein.RotatedAtoms>
  151.7256  133.3316  159.3326 H   0  0  0  0  0  0  0  0  0  0  0  0  # atno 6907 bound_to 6896
  150.7634  134.6409  159.6246 H   0  0  0  0  0  0  0  0  0  0  0  0  # atno 6908 bound_to 6896
  152.3624  134.6855  160.0254 H   0  0  0  0  0  0  0  0  0  0  0  0  # atno 6909 bound_to 6896
  145.0817  140.8430  143.4035 H   0  0  0  0  0  0  0  0  0  0  0  0  # atno 7974 bound_to 7965
  154.4032  140.1570  156.2747 H   0  0  0  0  0  0  0  0  0  0  0  0  # atno 8008 bound_to 7997
  155.8922  140.3438  155.5942 H   0  0  0  0  0  0  0  0  0  0  0  0  # atno 8009 bound_to 7997
  155.7545  140.0809  157.2176 H   0  0  0  0  0  0  0  0  0  0  0  0  # atno 8010 bound_to 7997
  140.7124  143.5703  150.9100 H   0  0  0  0  0  0  0  0  0  0  0  0  # atno 10167 bound_to 10162
  156.0090  130.5206  150.6414 H   0  0  0  0  0  0  0  0  0  0  0  0  # atno 10718 bound_to 10713
  153.2079  135.4399  155.0345 H   0  0  0  0  0  0  0  0  0  0  0  0  # atno 10763 bound_to 10752
  154.8184  135.3326  154.7113 H   0  0  0  0  0  0  0  0  0  0  0  0  # atno 10764 bound_to 10752
  153.7553  135.6995  153.4992 H   0  0  0  0  0  0  0  0  0  0  0  0  # atno 10765 bound_to 10752
  139.8912  134.8443  156.2904 H   0  0  0  0  0  0  0  0  0  0  0  0  # atno 11005 bound_to 11000
  145.1170  139.2719  143.5608 LP  0  0  0  0  0  0  0  0  0  0  0  0  # atno 17320 bound_to 7965
  146.3531  140.0783  142.8619 LP  0  0  0  0  0  0  0  0  0  0  0  0  # atno 17321 bound_to 7965
  139.9429  143.6361  152.3049 LP  0  0  0  0  0  0  0  0  0  0  0  0  # atno 17342 bound_to 10162
  139.6852  144.7652  151.1536 LP  0  0  0  0  0  0  0  0  0  0  0  0  # atno 17343 bound_to 10162
  157.4193  131.0834  151.1146 LP  0  0  0  0  0  0  0  0  0  0  0  0  # atno 17370 bound_to 10713
  157.1753  130.6285  149.5654 LP  0  0  0  0  0  0  0  0  0  0  0  0  # atno 17371 bound_to 10713
  140.9980  133.7168  156.0916 LP  0  0  0  0  0  0  0  0  0  0  0  0  # atno 17394 bound_to 11000
  140.7536  134.4017  157.5537 LP  0  0  0  0  0  0  0  0  0  0  0  0  # atno 17395 bound_to 11000

$$$$
