AV-unprocessed.smi:1717|AV-procd|sdf|6919|dock8
  -GOLD-   22720 8123D 1   1.00000     0.00000
 Structure written by MMmdl.
 41 42  0  0  0  0  0  0  0  0  2 V2000
  148.0416  132.9873  152.9760 C   0  0  0  0  0  0  0  0  0  0  0  0
  148.8081  134.0240  153.6505 N   0  0  0  0  0  0  0  0  0  0  0  0
  149.5318  133.8232  154.7605 C   0  0  0  0  0  0  0  0  0  0  0  0
  149.6121  132.7320  155.3259 O   0  0  0  0  0  0  0  0  0  0  0  0
  150.2611  135.0460  155.3260 C   0  0  0  0  0  0  0  0  0  0  0  0
  149.8383  136.3190  154.6871 N   0  3  2  0  0  0  0  0  0  0  0  0
  150.9107  137.3463  154.7055 C   0  0  0  0  0  0  0  0  0  0  0  0
  150.4977  138.5988  153.9105 C   0  0  0  0  0  0  0  0  0  0  0  0
  149.1673  139.1890  154.4093 C   0  0  2  0  0  0  0  0  0  0  0  0
  149.3471  139.8223  155.7158 N   0  0  0  0  0  0  0  0  0  0  0  0
  150.3577  140.6382  156.0489 C   0  0  0  0  0  0  0  0  0  0  0  0
  151.2542  140.9619  155.2705 O   0  0  0  0  0  0  0  0  0  0  0  0
  150.2546  141.0477  157.3235 N   0  0  0  0  0  0  0  0  0  0  0  0
  151.1350  141.9134  158.0194 C   0  0  0  0  0  0  0  0  0  0  0  0
  151.9383  141.6514  159.1682 C   0  0  0  0  0  0  0  0  0  0  0  0
  152.6295  142.7248  159.5247 N   0  0  0  0  0  0  0  0  0  0  0  0
  152.2763  143.6654  158.6200 N   0  0  0  0  0  0  0  0  0  0  0  0
  151.3688  143.2145  157.6873 C   0  0  0  0  0  0  0  0  0  0  0  0
  148.0919  138.0846  154.4468 C   0  0  0  0  0  0  0  0  0  0  0  0
  148.5620  136.8503  155.2355 C   0  0  0  0  0  0  0  0  0  0  0  0
  152.6590  144.5998  158.6528 H   0  0  0  0  0  0  0  0  0  0  0  0
  147.5535  133.4001  152.0932 H   0  0  0  0  0  0  0  0  0  0  0  0
  147.2712  132.5832  153.6340 H   0  0  0  0  0  0  0  0  0  0  0  0
  148.6895  132.1701  152.6556 H   0  0  0  0  0  0  0  0  0  0  0  0
  148.7843  134.9499  153.2477 H   0  0  0  0  0  0  0  0  0  0  0  0
  150.1291  135.1079  156.4076 H   0  0  0  0  0  0  0  0  0  0  0  0
  151.3249  134.8816  155.1494 H   0  0  0  0  0  0  0  0  0  0  0  0
  151.1463  137.6098  155.7377 H   0  0  0  0  0  0  0  0  0  0  0  0
  151.8216  136.9343  154.2694 H   0  0  0  0  0  0  0  0  0  0  0  0
  151.2868  139.3505  153.9565 H   0  0  0  0  0  0  0  0  0  0  0  0
  150.3960  138.3320  152.8575 H   0  0  0  0  0  0  0  0  0  0  0  0
  148.8545  139.9613  153.7040 H   0  0  0  0  0  0  0  0  0  0  0  0
  148.6616  139.6079  156.4250 H   0  0  0  0  0  0  0  0  0  0  0  0
  149.4648  140.7069  157.8516 H   0  0  0  0  0  0  0  0  0  0  0  0
  152.0466  140.7465  159.7476 H   0  0  0  0  0  0  0  0  0  0  0  0
  150.9831  143.8403  156.8958 H   0  0  0  0  0  0  0  0  0  0  0  0
  147.1609  138.4656  154.8678 H   0  0  0  0  0  0  0  0  0  0  0  0
  147.8557  137.7826  153.4254 H   0  0  0  0  0  0  0  0  0  0  0  0
  147.7865  136.0852  155.1911 H   0  0  0  0  0  0  0  0  0  0  0  0
  148.6918  137.1022  156.2892 H   0  0  0  0  0  0  0  0  0  0  0  0
  149.6718  136.0999  153.7148 H   0  0  0  0  0  0  0  0  0  0  0  0
  1  2  1  0  0  0  0
  1 22  1  0  0  0  0
  1 23  1  0  0  0  0
  1 24  1  0  0  0  0
  2  3  1  0  0  0  0
  2 25  1  0  0  0  0
  3  4  2  0  0  0  0
  3  5  1  0  0  0  0
  5  6  1  0  0  0  0
  5 26  1  0  0  0  0
  5 27  1  0  0  0  0
  6 20  1  0  0  0  0
  6  7  1  0  0  0  0
  6 41  1  0  0  0  0
  7  8  1  0  0  0  0
  7 28  1  0  0  0  0
  7 29  1  0  0  0  0
  8  9  1  0  0  0  0
  8 30  1  0  0  0  0
  8 31  1  0  0  0  0
  9 10  1  0  0  0  0
  9 19  1  0  0  0  0
  9 32  1  0  0  0  0
 10 11  1  0  0  0  0
 10 33  1  0  0  0  0
 11 12  2  0  0  0  0
 11 13  1  0  0  0  0
 13 14  1  0  0  0  0
 13 34  1  0  0  0  0
 14 18  2  0  0  0  0
 14 15  1  0  0  0  0
 15 16  2  0  0  0  0
 15 35  1  0  0  0  0
 16 17  1  0  0  0  0
 17 21  1  0  0  0  0
 17 18  1  0  0  0  0
 18 36  1  0  0  0  0
 19 20  1  0  0  0  0
 19 37  1  0  0  0  0
 19 38  1  0  0  0  0
 20 39  1  0  0  0  0
 20 40  1  0  0  0  0
M  CHG  1   6   1
M  END
> <s_m_source_file>
AV-unprocessed.smi

> <i_m_source_file_index>
1717

> <i_lp_mmshare_version>
43012

> <i_f3d_flags>
0

> <s_epik_input>
W0NIM11bTkhdQyg9TylbQ0gyXU4xW0NIMl1bQ0gyXVtDSF0oW0NIMl1bQ0gyXTEpW05IXUMoPU8pW05IXWMyW2NIXW5bbkhdW2NIXTI=

> <s_epik_cmdline>
J2VwaWtfcHl0aG9uJywgJy1waCcsICc3LjAnLCAnLXRuJywgJzgnLCAnLW1hJywgJzIwMCcsICctbWV0YWxfYmluZGluZycsICctaW1hZScsICc8aW5maWxlLm1hZT4nLCAnLW9tYWUnLCAnPG91dGZpbGUubWFlPic=

> <r_lp_tautomer_probability>
0.5

> <r_epik_Ionization_Penalty>
0.838906

> <r_epik_Ionization_Penalty_Charging>
0.838844

> <r_epik_Ionization_Penalty_Neutral>
6.24243e-05

> <r_epik_State_Penalty>
0.8734

> <r_epik_Charging_Adjusted_Penalty>
1.71224

> <i_epik_Tot_Q>
1

> <i_epik_Tot_abs_Q>
1

> <r_epik_Metal_State_Penalty>
0.877921

> <b_epik_Metal_Only>
0

> <s_lp_Force_Field>
OPLS_2005

> <r_lp_Energy>
16.7427

> <b_lp_Chiralities_Consistent>
1

> <s_lp_Variant>
AV-unprocessed.smi:1717-3

> <Gold.Version>
5.8.1

> <Gold.Id.Protein>
6NUR|6NUR_protein|mol2

> <Gold.PLP.Fitness>
40.5176

> <Gold.PLP.PLP>
-28.7488

> <Gold.PLP.part.hbond>
-3.0000

> <Gold.PLP.part.metal>
0.0000

> <Gold.PLP.part.buried>
-3.8378

> <Gold.PLP.part.nonpolar>
-21.6945

> <Gold.PLP.part.repulsive>
0.1794

> <Gold.PLP.ligand.clash>
0.0000

> <Gold.PLP.ligand.torsion>
1.1373

> <Gold.PLP.Chemscore.Hbond>
3.6720

> <Gold.PLP.Chemscore.CHOScore>
1.0000

> <Gold.PLP.Chemscore.Metal>
0.0000

> <Gold.Chemscore.Hbonds>
donor molecule, donor type, donor heavy atom, donor atom, acceptor molecule, acceptor atom, score
      L1  H     2    25       P1  7948  1.00
      L1  H     6    41       P1  7948  2.00
      P1  H  7989  7998       L1    12  0.67
      L1  C    18    36       P1  8028  0.91

> <Gold.PLP.Chemscore.Internal.Correction>
0.0274

> <Gold.Rescore>
     Score         DG    S(hbond)    S(metal)    S(lipo)     H(rot)  DE(clash)    DE(int)     intcor
     14.01     -16.80       2.62        0.00      61.58       1.81       0.01       2.78       ----

> <Gold.Chemscore.Fitness>
14.0076

> <Gold.Chemscore.DG>
-16.7978

> <Gold.Chemscore.ZeroCoef>
-5.4800

> <Gold.Chemscore.Hbond>
2.6184

> <Gold.Chemscore.Metal>
0.0000

> <Gold.Chemscore.Lipo>
61.5801

> <Gold.Chemscore.Internal_Hbond>
0.0000

> <Gold.Chemscore.DEClash>
0.0106

> <Gold.Chemscore.DEInternal>
2.7796

> <Gold.Chemscore.Rot>
1.8096

> <Gold.Chemscore.Internal.Correction>
   9.000000E+99

> <Gold.Chemscore.Hbonds>
donor molecule, donor type, donor heavy atom, donor atom, acceptor molecule, acceptor atom, score
      L1  H     2    25       P1  7948  0.39
      L1  H     6    41       P1  7948  0.34
      P1  H  7989  7998       L1    12  0.66

> <Gold.Chemscore.Hbond.Weighted>
-8.7454

> <Gold.Chemscore.Metal.Weighted>
-0.0000

> <Gold.Chemscore.Lipo.Weighted>
-7.2049

> <Gold.Chemscore.Internal_Hbond.Weighted>
0.0000

> <Gold.Chemscore.DEClash.Weighted>
0.0106

> <Gold.Chemscore.DEInternal.Weighted>
2.7796

> <Gold.Chemscore.Rot.Weighted>
4.6325

> <Gold.Chemscore.Internal.Correction.Weighted>
   9.000000E+99

> <Gold.Protein.RotatedTorsions>
[ 6907 6896 6895 6894 ] final  158.71 input  -60.11 | X-H torsion
[ 7974 7965 7964 7962 ] final  -46.29 input  175.53 | X-H torsion
[ 8008 7997 7996 7995 ] final  -83.62 input   59.86 | X-H torsion
[ 10167 10162 10161 10158 ] final    0.22 input  -65.29 | X-H torsion
[ 10718 10713 10712 10709 ] final   81.18 input   66.30 | X-H torsion
[ 10763 10752 10751 10750 ] final  117.97 input  -60.55 | X-H torsion
[ 11005 11000 10999 10996 ] final    2.59 input  -57.11 | X-H torsion

> <Gold.Protein.ActiveResidues>
 VAL166  LYS551  ARG553  GLY616  TRP617  ASP618  TYR619  PRO620  LYS621  CYS622 
 ASP623  PHE694  ASN695  SER759  ASP760  ASP761  ALA762  ILE779  LEU786  VAL792 
 PHE793  MET794  SER795  GLU796  ALA797  LYS798  CYS799  TRP800  GLU811  SER814 

> <Gold.Protein.RotatedAtoms>
  151.9963  133.3809  159.4163 H   0  0  0  0  0  0  0  0  0  0  0  0  # atno 6907 bound_to 6896
  150.6915  134.3882  159.5074 H   0  0  0  0  0  0  0  0  0  0  0  0  # atno 6908 bound_to 6896
  152.1623  134.8902  160.0591 H   0  0  0  0  0  0  0  0  0  0  0  0  # atno 6909 bound_to 6896
  145.9734  140.7359  142.9399 H   0  0  0  0  0  0  0  0  0  0  0  0  # atno 7974 bound_to 7965
  154.6211  140.0616  156.9616 H   0  0  0  0  0  0  0  0  0  0  0  0  # atno 8008 bound_to 7997
  155.1816  140.3299  155.4355 H   0  0  0  0  0  0  0  0  0  0  0  0  # atno 8009 bound_to 7997
  156.2432  140.1896  156.6912 H   0  0  0  0  0  0  0  0  0  0  0  0  # atno 8010 bound_to 7997
  140.6738  143.6973  150.7980 H   0  0  0  0  0  0  0  0  0  0  0  0  # atno 10167 bound_to 10162
  157.6826  130.9992  150.2188 H   0  0  0  0  0  0  0  0  0  0  0  0  # atno 10718 bound_to 10713
  153.5604  135.3522  155.2797 H   0  0  0  0  0  0  0  0  0  0  0  0  # atno 10763 bound_to 10752
  154.8695  135.4135  154.2837 H   0  0  0  0  0  0  0  0  0  0  0  0  # atno 10764 bound_to 10752
  153.3581  135.7058  153.6803 H   0  0  0  0  0  0  0  0  0  0  0  0  # atno 10765 bound_to 10752
  140.6026  133.9822  155.8139 H   0  0  0  0  0  0  0  0  0  0  0  0  # atno 11005 bound_to 11000
  144.6842  140.2787  143.7295 LP  0  0  0  0  0  0  0  0  0  0  0  0  # atno 17320 bound_to 7965
  145.7873  139.1914  143.2123 LP  0  0  0  0  0  0  0  0  0  0  0  0  # atno 17321 bound_to 7965
  140.0663  143.5105  152.2603 LP  0  0  0  0  0  0  0  0  0  0  0  0  # atno 17342 bound_to 10162
  139.6020  144.7585  151.3149 LP  0  0  0  0  0  0  0  0  0  0  0  0  # atno 17343 bound_to 10162
  156.2844  130.3737  149.7903 LP  0  0  0  0  0  0  0  0  0  0  0  0  # atno 17370 bound_to 10713
  156.5582  130.8371  151.3320 LP  0  0  0  0  0  0  0  0  0  0  0  0  # atno 17371 bound_to 10713
  141.0862  133.9987  157.3309 LP  0  0  0  0  0  0  0  0  0  0  0  0  # atno 17394 bound_to 11000
  139.9226  135.0201  156.8119 LP  0  0  0  0  0  0  0  0  0  0  0  0  # atno 17395 bound_to 11000

$$$$
