AV-unprocessed.smi:1286|AV-procd|sdf|5375|dock1
  -GOLD-   22720 4523D 1   1.00000     0.00000
 Structure written by MMmdl.
 36 37  0  0  0  0  0  0  0  0  1 V2000
  147.5079  141.8268  154.5439 C   0  0  0  0  0  0  0  0  0  0  0  0
  148.9414  141.3148  154.7394 C   0  0  2  0  0  0  0  0  0  0  0  0
  149.0765  139.8383  154.3126 C   0  0  0  0  0  0  0  0  0  0  0  0
  150.4433  139.3521  154.3889 N   0  0  0  0  0  0  0  0  0  0  0  0
  150.9299  138.1092  154.0413 C   0  0  0  0  0  0  0  0  0  0  0  0
  152.2727  138.1150  154.2876 C   0  0  0  0  0  0  0  0  0  0  0  0
  152.5180  139.4235  154.7898 C   0  0  0  0  0  0  0  0  0  0  0  0
  151.4226  140.1636  154.8432 N   0  0  0  0  0  0  0  0  0  0  0  0
  149.3214  141.4736  156.1427 N   0  0  0  0  0  0  0  0  0  0  0  0
  150.4009  142.1307  156.5960 C   0  0  0  0  0  0  0  0  0  0  0  0
  151.1832  142.7388  155.8656 O   0  0  0  0  0  0  0  0  0  0  0  0
  150.6379  142.0781  158.1101 C   0  0  0  0  0  0  0  0  0  0  0  0
  151.8713  142.8817  158.5811 C   0  0  2  0  0  0  0  0  0  0  0  0
  152.0249  142.9372  160.0821 C   0  0  0  0  0  0  0  0  0  0  0  0
  152.1264  144.1806  160.5451 C   0  0  0  0  0  0  0  0  0  0  0  0
  152.0620  145.2087  159.4503 C   0  0  0  0  0  0  0  0  0  0  0  0
  151.8172  144.3763  158.1715 C   0  0  0  0  0  0  0  0  0  0  0  0
  147.2006  141.7409  153.5013 H   0  0  0  0  0  0  0  0  0  0  0  0
  147.4242  142.8769  154.8254 H   0  0  0  0  0  0  0  0  0  0  0  0
  146.7971  141.2612  155.1476 H   0  0  0  0  0  0  0  0  0  0  0  0
  149.5885  141.9179  154.1001 H   0  0  0  0  0  0  0  0  0  0  0  0
  148.4464  139.2025  154.9362 H   0  0  0  0  0  0  0  0  0  0  0  0
  148.7286  139.7097  153.2866 H   0  0  0  0  0  0  0  0  0  0  0  0
  150.2866  137.3319  153.6560 H   0  0  0  0  0  0  0  0  0  0  0  0
  152.9723  137.3066  154.1360 H   0  0  0  0  0  0  0  0  0  0  0  0
  153.4534  139.8556  155.1132 H   0  0  0  0  0  0  0  0  0  0  0  0
  148.7359  141.0114  156.8229 H   0  0  0  0  0  0  0  0  0  0  0  0
  149.7434  142.4566  158.6058 H   0  0  0  0  0  0  0  0  0  0  0  0
  150.7441  141.0367  158.4185 H   0  0  0  0  0  0  0  0  0  0  0  0
  152.7791  142.4318  158.1762 H   0  0  0  0  0  0  0  0  0  0  0  0
  152.0655  142.0460  160.6905 H   0  0  0  0  0  0  0  0  0  0  0  0
  152.2552  144.4504  161.5830 H   0  0  0  0  0  0  0  0  0  0  0  0
  151.2537  145.9164  159.6357 H   0  0  0  0  0  0  0  0  0  0  0  0
  153.0030  145.7577  159.4005 H   0  0  0  0  0  0  0  0  0  0  0  0
  152.5628  144.6002  157.4080 H   0  0  0  0  0  0  0  0  0  0  0  0
  150.8451  144.6317  157.7480 H   0  0  0  0  0  0  0  0  0  0  0  0
  1  2  1  0  0  0  0
  1 18  1  0  0  0  0
  1 19  1  0  0  0  0
  1 20  1  0  0  0  0
  2  3  1  0  0  0  0
  2  9  1  0  0  0  0
  2 21  1  0  0  0  0
  3  4  1  0  0  0  0
  3 22  1  0  0  0  0
  3 23  1  0  0  0  0
  4  8  1  0  0  0  0
  4  5  1  0  0  0  0
  5  6  2  0  0  0  0
  5 24  1  0  0  0  0
  6  7  1  0  0  0  0
  6 25  1  0  0  0  0
  7  8  2  0  0  0  0
  7 26  1  0  0  0  0
  9 10  1  0  0  0  0
  9 27  1  0  0  0  0
 10 11  2  0  0  0  0
 10 12  1  0  0  0  0
 12 13  1  0  0  0  0
 12 28  1  0  0  0  0
 12 29  1  0  0  0  0
 13 17  1  0  0  0  0
 13 14  1  0  0  0  0
 13 30  1  0  0  0  0
 14 15  2  0  0  0  0
 14 31  1  0  0  0  0
 15 16  1  0  0  0  0
 15 32  1  0  0  0  0
 16 17  1  0  0  0  0
 16 33  1  0  0  0  0
 16 34  1  0  0  0  0
 17 35  1  0  0  0  0
 17 36  1  0  0  0  0
M  END
> <s_m_source_file>
AV-unprocessed.smi

> <i_m_source_file_index>
1286

> <i_lp_mmshare_version>
43012

> <i_f3d_flags>
0

> <s_epik_input>
bjFbY0hdW2NIXVtjSF1uMVtDSDJdW0NAQEhdKFtDSDNdKVtOSF1DKD1PKVtDSDJdW0NAQEhdMltDSF09W0NIXVtDSDJdW0NIMl0y

> <s_epik_cmdline>
J2VwaWtfcHl0aG9uJywgJy1waCcsICc3LjAnLCAnLXRuJywgJzgnLCAnLW1hJywgJzIwMCcsICctbWV0YWxfYmluZGluZycsICctaW1hZScsICc8aW5maWxlLm1hZT4nLCAnLW9tYWUnLCAnPG91dGZpbGUubWFlPic=

> <r_lp_tautomer_probability>
1

> <r_epik_Ionization_Penalty>
0.000301761

> <r_epik_Ionization_Penalty_Charging>
0

> <r_epik_Ionization_Penalty_Neutral>
0.000301761

> <r_epik_State_Penalty>
-0

> <r_epik_Charging_Adjusted_Penalty>
0

> <i_epik_Tot_Q>
0

> <i_epik_Tot_abs_Q>
0

> <r_epik_Metal_State_Penalty>
-0

> <b_epik_Metal_Only>
0

> <s_lp_Force_Field>
OPLS_2005

> <r_lp_Energy>
16.2222

> <b_lp_Chiralities_Consistent>
1

> <s_lp_Variant>
AV-unprocessed.smi:1286-1

> <Gold.Version>
5.8.1

> <Gold.Id.Protein>
6NUR|6NUR_protein|mol2

> <Gold.PLP.Fitness>
45.4842

> <Gold.PLP.PLP>
-39.5894

> <Gold.PLP.part.hbond>
-1.6485

> <Gold.PLP.part.metal>
0.0000

> <Gold.PLP.part.buried>
2.2219

> <Gold.PLP.part.nonpolar>
-41.5065

> <Gold.PLP.part.repulsive>
0.2929

> <Gold.PLP.ligand.clash>
0.0000

> <Gold.PLP.ligand.torsion>
0.0672

> <Gold.PLP.Chemscore.Hbond>
1.0000

> <Gold.PLP.Chemscore.CHOScore>
1.0000

> <Gold.PLP.Chemscore.Metal>
0.0000

> <Gold.Chemscore.Hbonds>
donor molecule, donor type, donor heavy atom, donor atom, acceptor molecule, acceptor atom, score
      P1  H  7989  7998       L1     8  0.59
      L1  C     5    24       P1  7948  0.92
      L1  C     5    24       P1  7949  0.15

> <Gold.PLP.Chemscore.Internal.Correction>
0.0292

> <Gold.Rescore>
     Score         DG    S(hbond)    S(metal)    S(lipo)     H(rot)  DE(clash)    DE(int)     intcor
     10.09     -14.48       0.12        0.00     109.27       1.64       1.51       2.88       ----

> <Gold.Chemscore.Fitness>
10.0911

> <Gold.Chemscore.DG>
-14.4844

> <Gold.Chemscore.ZeroCoef>
-5.4800

> <Gold.Chemscore.Hbond>
0.1248

> <Gold.Chemscore.Metal>
0.0000

> <Gold.Chemscore.Lipo>
109.2678

> <Gold.Chemscore.Internal_Hbond>
0.0000

> <Gold.Chemscore.DEClash>
1.5115

> <Gold.Chemscore.DEInternal>
2.8818

> <Gold.Chemscore.Rot>
1.6394

> <Gold.Chemscore.Internal.Correction>
   9.000000E+99

> <Gold.Chemscore.Hbonds>
donor molecule, donor type, donor heavy atom, donor atom, acceptor molecule, acceptor atom, score
      P1  H  7989  7998       L1     8  0.01

> <Gold.Chemscore.Hbond.Weighted>
-0.4170

> <Gold.Chemscore.Metal.Weighted>
-0.0000

> <Gold.Chemscore.Lipo.Weighted>
-12.7843

> <Gold.Chemscore.Internal_Hbond.Weighted>
0.0000

> <Gold.Chemscore.DEClash.Weighted>
1.5115

> <Gold.Chemscore.DEInternal.Weighted>
2.8818

> <Gold.Chemscore.Rot.Weighted>
4.1969

> <Gold.Chemscore.Internal.Correction.Weighted>
   9.000000E+99

> <Gold.Protein.RotatedTorsions>
[ 6907 6896 6895 6894 ] final  -55.27 input  -60.11 | X-H torsion
[ 7974 7965 7964 7962 ] final  -21.09 input  175.53 | X-H torsion
[ 8008 7997 7996 7995 ] final  -49.74 input   59.86 | X-H torsion
[ 10167 10162 10161 10158 ] final   93.18 input  -65.29 | X-H torsion
[ 10718 10713 10712 10709 ] final  123.87 input   66.30 | X-H torsion
[ 10763 10752 10751 10750 ] final -148.73 input  -60.55 | X-H torsion
[ 11005 11000 10999 10996 ] final   59.69 input  -57.11 | X-H torsion

> <Gold.Protein.ActiveResidues>
 VAL166  LYS551  ARG553  GLY616  TRP617  ASP618  TYR619  PRO620  LYS621  CYS622 
 ASP623  PHE694  ASN695  SER759  ASP760  ASP761  ALA762  ILE779  LEU786  VAL792 
 PHE793  MET794  SER795  GLU796  ALA797  LYS798  CYS799  TRP800  GLU811  SER814 

> <Gold.Protein.RotatedAtoms>
  150.8266  134.7500  159.6817 H   0  0  0  0  0  0  0  0  0  0  0  0  # atno 6907 bound_to 6896
  152.4376  134.5652  159.9915 H   0  0  0  0  0  0  0  0  0  0  0  0  # atno 6908 bound_to 6896
  151.5822  133.3339  159.3046 H   0  0  0  0  0  0  0  0  0  0  0  0  # atno 6909 bound_to 6896
  146.1752  140.4293  142.8516 H   0  0  0  0  0  0  0  0  0  0  0  0  # atno 7974 bound_to 7965
  154.4049  140.1289  156.4553 H   0  0  0  0  0  0  0  0  0  0  0  0  # atno 8008 bound_to 7997
  155.7326  140.3491  155.5047 H   0  0  0  0  0  0  0  0  0  0  0  0  # atno 8009 bound_to 7997
  155.9113  140.1036  157.1267 H   0  0  0  0  0  0  0  0  0  0  0  0  # atno 8010 bound_to 7997
  139.8205  144.6733  150.9525 H   0  0  0  0  0  0  0  0  0  0  0  0  # atno 10167 bound_to 10162
  157.5631  131.1088  150.8503 H   0  0  0  0  0  0  0  0  0  0  0  0  # atno 10718 bound_to 10713
  154.8216  135.3327  154.7020 H   0  0  0  0  0  0  0  0  0  0  0  0  # atno 10763 bound_to 10752
  153.7652  135.6929  153.4922 H   0  0  0  0  0  0  0  0  0  0  0  0  # atno 10764 bound_to 10752
  153.2083  135.4491  155.0298 H   0  0  0  0  0  0  0  0  0  0  0  0  # atno 10765 bound_to 10752
  140.0285  134.6047  155.9539 H   0  0  0  0  0  0  0  0  0  0  0  0  # atno 11005 bound_to 11000
  144.8225  140.6573  143.6343 LP  0  0  0  0  0  0  0  0  0  0  0  0  # atno 17320 bound_to 7965
  145.4231  139.1561  143.4063 LP  0  0  0  0  0  0  0  0  0  0  0  0  # atno 17321 bound_to 7965
  140.7813  143.4096  151.1014 LP  0  0  0  0  0  0  0  0  0  0  0  0  # atno 17342 bound_to 10162
  139.7757  143.8428  152.3129 LP  0  0  0  0  0  0  0  0  0  0  0  0  # atno 17343 bound_to 10162
  156.8996  130.5242  149.5283 LP  0  0  0  0  0  0  0  0  0  0  0  0  # atno 17370 bound_to 10713
  156.0681  130.5720  150.9330 LP  0  0  0  0  0  0  0  0  0  0  0  0  # atno 17371 bound_to 10713
  141.1817  133.6548  156.5048 LP  0  0  0  0  0  0  0  0  0  0  0  0  # atno 17394 bound_to 11000
  140.4265  134.7140  157.4919 LP  0  0  0  0  0  0  0  0  0  0  0  0  # atno 17395 bound_to 11000

$$$$
