AV-unprocessed.smi:466|AV-procd|sdf|2642|dock9
  -GOLD-   2262023 53D 1   1.00000     0.00000
 Structure written by MMmdl.
 44 46  0  0  0  0  0  0  0  0  2 V2000
  153.6981  141.7185  161.5152 C   0  0  0  0  0  0  0  0  0  0  0  0
  152.9583  141.4241  160.3398 O   0  0  0  0  0  0  0  0  0  0  0  0
  152.5604  142.4734  159.5362 C   0  0  0  0  0  0  0  0  0  0  0  0
  152.8905  143.8286  159.7903 C   0  0  0  0  0  0  0  0  0  0  0  0
  152.4510  144.8445  158.9221 C   0  0  0  0  0  0  0  0  0  0  0  0
  151.6777  144.5204  157.7943 C   0  0  0  0  0  0  0  0  0  0  0  0
  151.3431  143.1792  157.5330 C   0  0  0  0  0  0  0  0  0  0  0  0
  151.7834  142.1488  158.4006 C   0  0  0  0  0  0  0  0  0  0  0  0
  151.4977  140.8149  158.2115 O   0  0  0  0  0  0  0  0  0  0  0  0
  150.5175  140.4464  157.2524 C   0  0  0  0  0  0  0  0  0  0  0  0
  151.2021  140.3097  155.8842 C   0  0  0  0  0  0  0  0  0  0  0  0
  150.3038  139.7277  154.8729 N   0  0  0  0  0  0  0  0  0  0  0  0
  150.3552  138.5223  154.2321 C   0  0  0  0  0  0  0  0  0  0  0  0
  151.3762  137.4420  154.4251 C   0  0  0  0  0  0  0  0  0  0  0  0
  150.9235  136.3728  155.4314 C   0  0  0  0  0  0  0  0  0  0  0  0
  152.0196  135.9733  156.2255 O   0  0  0  0  0  0  0  0  0  0  0  0
  149.2559  138.4513  153.4270 N   0  3  0  0  0  0  0  0  0  0  0  0
  148.5044  139.6205  153.5416 C   0  0  0  0  0  0  0  0  0  0  0  0
  147.3164  140.0028  152.9262 C   0  0  0  0  0  0  0  0  0  0  0  0
  146.7993  141.2667  153.2789 C   0  0  0  0  0  0  0  0  0  0  0  0
  147.4605  142.0967  154.2068 C   0  0  0  0  0  0  0  0  0  0  0  0
  148.6674  141.6999  154.8190 C   0  0  0  0  0  0  0  0  0  0  0  0
  149.1713  140.4470  154.4678 C   0  0  0  0  0  0  0  0  0  0  0  0
  153.9297  140.7885  162.0345 H   0  0  0  0  0  0  0  0  0  0  0  0
  153.1255  142.3449  162.2004 H   0  0  0  0  0  0  0  0  0  0  0  0
  154.6435  142.2088  161.2796 H   0  0  0  0  0  0  0  0  0  0  0  0
  153.4818  144.1155  160.6463 H   0  0  0  0  0  0  0  0  0  0  0  0
  152.7077  145.8742  159.1230 H   0  0  0  0  0  0  0  0  0  0  0  0
  151.3398  145.3014  157.1287 H   0  0  0  0  0  0  0  0  0  0  0  0
  150.7448  142.9656  156.6605 H   0  0  0  0  0  0  0  0  0  0  0  0
  150.0543  139.4989  157.5310 H   0  0  0  0  0  0  0  0  0  0  0  0
  149.7343  141.2044  157.1946 H   0  0  0  0  0  0  0  0  0  0  0  0
  151.5616  141.2763  155.5306 H   0  0  0  0  0  0  0  0  0  0  0  0
  152.0829  139.6737  155.9649 H   0  0  0  0  0  0  0  0  0  0  0  0
  151.5881  136.9673  153.4675 H   0  0  0  0  0  0  0  0  0  0  0  0
  152.3072  137.9020  154.7580 H   0  0  0  0  0  0  0  0  0  0  0  0
  150.1381  136.7551  156.0840 H   0  0  0  0  0  0  0  0  0  0  0  0
  150.5257  135.5000  154.9127 H   0  0  0  0  0  0  0  0  0  0  0  0
  152.0697  136.5402  156.9803 H   0  0  0  0  0  0  0  0  0  0  0  0
  146.8060  139.3664  152.2182 H   0  0  0  0  0  0  0  0  0  0  0  0
  145.8759  141.6047  152.8313 H   0  0  0  0  0  0  0  0  0  0  0  0
  147.0327  143.0563  154.4575 H   0  0  0  0  0  0  0  0  0  0  0  0
  149.1584  142.3408  155.5361 H   0  0  0  0  0  0  0  0  0  0  0  0
  149.0330  137.6528  152.8469 H   0  0  0  0  0  0  0  0  0  0  0  0
  1  2  1  0  0  0  0
  1 24  1  0  0  0  0
  1 25  1  0  0  0  0
  1 26  1  0  0  0  0
  2  3  1  0  0  0  0
  3  8  1  0  0  0  0
  3  4  2  0  0  0  0
  4  5  1  0  0  0  0
  4 27  1  0  0  0  0
  5  6  2  0  0  0  0
  5 28  1  0  0  0  0
  6  7  1  0  0  0  0
  6 29  1  0  0  0  0
  7  8  2  0  0  0  0
  7 30  1  0  0  0  0
  8  9  1  0  0  0  0
  9 10  1  0  0  0  0
 10 11  1  0  0  0  0
 10 31  1  0  0  0  0
 10 32  1  0  0  0  0
 11 12  1  0  0  0  0
 11 33  1  0  0  0  0
 11 34  1  0  0  0  0
 12 23  1  0  0  0  0
 12 13  1  0  0  0  0
 13 14  1  0  0  0  0
 13 17  2  0  0  0  0
 14 15  1  0  0  0  0
 14 35  1  0  0  0  0
 14 36  1  0  0  0  0
 15 16  1  0  0  0  0
 15 37  1  0  0  0  0
 15 38  1  0  0  0  0
 16 39  1  0  0  0  0
 17 18  1  0  0  0  0
 17 44  1  0  0  0  0
 18 23  2  0  0  0  0
 18 19  1  0  0  0  0
 19 20  2  0  0  0  0
 19 40  1  0  0  0  0
 20 21  1  0  0  0  0
 20 41  1  0  0  0  0
 21 22  2  0  0  0  0
 21 42  1  0  0  0  0
 22 23  1  0  0  0  0
 22 43  1  0  0  0  0
M  CHG  1  17   1
M  END
> <s_m_source_file>
AV-unprocessed.smi

> <i_m_source_file_index>
466

> <i_lp_mmshare_version>
43012

> <i_f3d_flags>
0

> <s_epik_input>
W0NIM11PYzFbY0hdW2NIXVtjSF1bY0hdYzFPW0NIMl1bQ0gyXW4oYyhuMilbQ0gyXVtDSDJdW09IXSljKGMyMylbY0hdW2NIXVtjSF1bY0hdMw==

> <s_epik_cmdline>
J2VwaWtfcHl0aG9uJywgJy1waCcsICc3LjAnLCAnLXRuJywgJzgnLCAnLW1hJywgJzIwMCcsICctbWV0YWxfYmluZGluZycsICctaW1hZScsICc8aW5maWxlLm1hZT4nLCAnLW9tYWUnLCAnPG91dGZpbGUubWFlPic=

> <r_lp_tautomer_probability>
1

> <r_epik_Ionization_Penalty>
0.720978

> <r_epik_Ionization_Penalty_Charging>
0.720978

> <r_epik_Ionization_Penalty_Neutral>
5.89567e-08

> <r_epik_State_Penalty>
0.7454

> <r_epik_Charging_Adjusted_Penalty>
1.46638

> <i_epik_Tot_Q>
1

> <i_epik_Tot_abs_Q>
1

> <r_epik_Metal_State_Penalty>
4.64029

> <b_epik_Metal_Only>
0

> <s_lp_Force_Field>
OPLS_2005

> <r_lp_Energy>
24.0837

> <b_lp_Chiralities_Consistent>
1

> <s_lp_Variant>
AV-unprocessed.smi:466-2

> <Gold.Version>
5.8.1

> <Gold.Id.Protein>
6NUR|6NUR_protein|mol2

> <Gold.PLP.Fitness>
62.0117

> <Gold.PLP.PLP>
-54.7608

> <Gold.PLP.part.hbond>
-3.0000

> <Gold.PLP.part.metal>
0.0000

> <Gold.PLP.part.buried>
0.2562

> <Gold.PLP.part.nonpolar>
-52.1868

> <Gold.PLP.part.repulsive>
0.0734

> <Gold.PLP.ligand.clash>
0.0000

> <Gold.PLP.ligand.torsion>
0.9579

> <Gold.PLP.Chemscore.Hbond>
3.0000

> <Gold.PLP.Chemscore.CHOScore>
0.0000

> <Gold.PLP.Chemscore.Metal>
0.0000

> <Gold.Chemscore.Hbonds>
donor molecule, donor type, donor heavy atom, donor atom, acceptor molecule, acceptor atom, score
      L1  H    17    44       P1  7948  2.00
      P1  H 10752 10764       L1    16  1.00

> <Gold.PLP.Chemscore.Internal.Correction>
0.1667

> <Gold.Rescore>
     Score         DG    S(hbond)    S(metal)    S(lipo)     H(rot)  DE(clash)    DE(int)     intcor
     20.06     -22.87       1.92        0.00     152.53       2.68       1.97       0.83       ----

> <Gold.Chemscore.Fitness>
20.0600

> <Gold.Chemscore.DG>
-22.8670

> <Gold.Chemscore.ZeroCoef>
-5.4800

> <Gold.Chemscore.Hbond>
1.9199

> <Gold.Chemscore.Metal>
0.0000

> <Gold.Chemscore.Lipo>
152.5269

> <Gold.Chemscore.Internal_Hbond>
0.0000

> <Gold.Chemscore.DEClash>
1.9735

> <Gold.Chemscore.DEInternal>
0.8335

> <Gold.Chemscore.Rot>
2.6840

> <Gold.Chemscore.Internal.Correction>
   9.000000E+99

> <Gold.Chemscore.Hbonds>
donor molecule, donor type, donor heavy atom, donor atom, acceptor molecule, acceptor atom, score
      L1  H    17    44       P1  7948  1.00
      P1  H 10752 10764       L1    16  0.60

> <Gold.Chemscore.Hbond.Weighted>
-6.4123

> <Gold.Chemscore.Metal.Weighted>
-0.0000

> <Gold.Chemscore.Lipo.Weighted>
-17.8456

> <Gold.Chemscore.Internal_Hbond.Weighted>
0.0000

> <Gold.Chemscore.DEClash.Weighted>
1.9735

> <Gold.Chemscore.DEInternal.Weighted>
0.8335

> <Gold.Chemscore.Rot.Weighted>
6.8710

> <Gold.Chemscore.Internal.Correction.Weighted>
   9.000000E+99

> <Gold.Protein.RotatedTorsions>
[ 6907 6896 6895 6894 ] final  120.33 input  -60.11 | X-H torsion
[ 7974 7965 7964 7962 ] final -108.24 input  175.53 | X-H torsion
[ 8008 7997 7996 7995 ] final  -72.63 input   59.86 | X-H torsion
[ 10167 10162 10161 10158 ] final  -11.36 input  -65.29 | X-H torsion
[ 10718 10713 10712 10709 ] final  104.81 input   66.30 | X-H torsion
[ 10763 10752 10751 10750 ] final  -20.37 input  -60.55 | X-H torsion
[ 11005 11000 10999 10996 ] final   78.37 input  -57.11 | X-H torsion

> <Gold.Protein.ActiveResidues>
 VAL166  LYS551  ARG553  GLY616  TRP617  ASP618  TYR619  PRO620  LYS621  CYS622 
 ASP623  PHE694  ASN695  SER759  ASP760  ASP761  ALA762  ILE779  LEU786  VAL792 
 PHE793  MET794  SER795  GLU796  ALA797  LYS798  CYS799  TRP800  GLU811  SER814 

> <Gold.Protein.RotatedAtoms>
  152.4406  133.7441  159.6656 H   0  0  0  0  0  0  0  0  0  0  0  0  # atno 6907 bound_to 6896
  150.8296  133.8103  159.3110 H   0  0  0  0  0  0  0  0  0  0  0  0  # atno 6908 bound_to 6896
  151.5761  135.1063  160.0058 H   0  0  0  0  0  0  0  0  0  0  0  0  # atno 6909 bound_to 6896
  145.1953  140.9033  143.3401 H   0  0  0  0  0  0  0  0  0  0  0  0  # atno 7974 bound_to 7965
  154.5182  140.0793  156.8121 H   0  0  0  0  0  0  0  0  0  0  0  0  # atno 8008 bound_to 7997
  155.3634  140.3419  155.4223 H   0  0  0  0  0  0  0  0  0  0  0  0  # atno 8009 bound_to 7997
  156.1651  140.1601  156.8532 H   0  0  0  0  0  0  0  0  0  0  0  0  # atno 8010 bound_to 7997
  140.7136  143.5647  150.9157 H   0  0  0  0  0  0  0  0  0  0  0  0  # atno 10167 bound_to 10162
  157.6727  131.0813  150.5762 H   0  0  0  0  0  0  0  0  0  0  0  0  # atno 10718 bound_to 10713
  153.6194  135.6993  153.5316 H   0  0  0  0  0  0  0  0  0  0  0  0  # atno 10763 bound_to 10752
  153.2950  135.4146  155.1201 H   0  0  0  0  0  0  0  0  0  0  0  0  # atno 10764 bound_to 10752
  154.8546  135.3634  154.5735 H   0  0  0  0  0  0  0  0  0  0  0  0  # atno 10765 bound_to 10752
  139.9215  134.7758  156.1641 H   0  0  0  0  0  0  0  0  0  0  0  0  # atno 11005 bound_to 11000
  145.0001  139.3607  143.6172 LP  0  0  0  0  0  0  0  0  0  0  0  0  # atno 17320 bound_to 7965
  146.3428  139.9220  142.8765 LP  0  0  0  0  0  0  0  0  0  0  0  0  # atno 17321 bound_to 7965
  139.9373  143.6423  152.3062 LP  0  0  0  0  0  0  0  0  0  0  0  0  # atno 17342 bound_to 10162
  139.6895  144.7648  151.1464 LP  0  0  0  0  0  0  0  0  0  0  0  0  # atno 17343 bound_to 10162
  156.6063  130.4368  149.5877 LP  0  0  0  0  0  0  0  0  0  0  0  0  # atno 17370 bound_to 10713
  156.2466  130.6882  151.1606 LP  0  0  0  0  0  0  0  0  0  0  0  0  # atno 17371 bound_to 10713
  141.0740  133.6784  156.2199 LP  0  0  0  0  0  0  0  0  0  0  0  0  # atno 17394 bound_to 11000
  140.6459  134.5117  157.5573 LP  0  0  0  0  0  0  0  0  0  0  0  0  # atno 17395 bound_to 11000

$$$$
