AV-unprocessed.smi:551|AV-procd|sdf|2901|dock6
  -GOLD-   2262023393D 1   1.00000     0.00000
 Structure written by MMmdl.
 38 39  0  0  0  0  0  0  0  0  1 V2000
  147.7259  141.4557  155.2254 C   0  0  0  0  0  0  0  0  0  0  0  0
  149.1047  140.9164  155.6288 C   0  0  1  0  0  0  0  0  0  0  0  0
  149.9180  140.4721  154.3948 C   0  0  0  0  0  0  0  0  0  0  0  0
  150.8561  139.4061  154.6958 N   0  0  0  0  0  0  0  0  0  0  0  0
  151.9228  139.4541  155.5843 C   0  0  0  0  0  0  0  0  0  0  0  0
  152.5214  138.2152  155.5468 C   0  0  0  0  0  0  0  0  0  0  0  0
  151.8480  137.3963  154.6433 N   0  0  0  0  0  0  0  0  0  0  0  0
  150.8755  138.1700  154.1786 C   0  0  0  0  0  0  0  0  0  0  0  0
  149.8202  141.9506  156.3749 N   0  0  0  0  0  0  0  0  0  0  0  0
  150.6595  141.7380  157.4014 C   0  0  0  0  0  0  0  0  0  0  0  0
  150.9002  140.6205  157.8593 O   0  0  0  0  0  0  0  0  0  0  0  0
  151.3467  142.9777  157.9880 C   0  0  0  0  0  0  0  0  0  0  0  0
  152.3585  142.5734  159.0813 C   0  0  0  0  0  0  0  0  0  0  0  0
  153.0464  143.8059  159.6904 C   0  0  0  0  0  0  0  0  0  0  0  0
  152.0153  144.8021  160.2440 C   0  0  0  0  0  0  0  0  0  0  0  0
  150.9987  145.2069  159.1645 C   0  0  0  0  0  0  0  0  0  0  0  0
  150.3119  143.9730  158.5561 C   0  0  0  0  0  0  0  0  0  0  0  0
  147.1505  140.6992  154.6911 H   0  0  0  0  0  0  0  0  0  0  0  0
  147.8139  142.3270  154.5754 H   0  0  0  0  0  0  0  0  0  0  0  0
  147.1471  141.7500  156.1016 H   0  0  0  0  0  0  0  0  0  0  0  0
  148.9350  140.0465  156.2662 H   0  0  0  0  0  0  0  0  0  0  0  0
  149.2476  140.1157  153.6117 H   0  0  0  0  0  0  0  0  0  0  0  0
  150.4683  141.3148  153.9741 H   0  0  0  0  0  0  0  0  0  0  0  0
  152.1569  140.3383  156.1585 H   0  0  0  0  0  0  0  0  0  0  0  0
  153.3783  137.8537  156.0958 H   0  0  0  0  0  0  0  0  0  0  0  0
  150.1566  137.8282  153.4483 H   0  0  0  0  0  0  0  0  0  0  0  0
  149.6870  142.9034  156.0686 H   0  0  0  0  0  0  0  0  0  0  0  0
  151.8937  143.4784  157.1869 H   0  0  0  0  0  0  0  0  0  0  0  0
  151.8557  142.0152  159.8729 H   0  0  0  0  0  0  0  0  0  0  0  0
  153.1131  141.9039  158.6659 H   0  0  0  0  0  0  0  0  0  0  0  0
  153.7282  143.4974  160.4833 H   0  0  0  0  0  0  0  0  0  0  0  0
  153.6569  144.2960  158.9312 H   0  0  0  0  0  0  0  0  0  0  0  0
  151.4917  144.3534  161.0891 H   0  0  0  0  0  0  0  0  0  0  0  0
  152.5227  145.6873  160.6287 H   0  0  0  0  0  0  0  0  0  0  0  0
  150.2508  145.8760  159.5908 H   0  0  0  0  0  0  0  0  0  0  0  0
  151.5041  145.7691  158.3783 H   0  0  0  0  0  0  0  0  0  0  0  0
  149.6246  144.2896  157.7706 H   0  0  0  0  0  0  0  0  0  0  0  0
  149.7035  143.4891  159.3220 H   0  0  0  0  0  0  0  0  0  0  0  0
  1  2  1  0  0  0  0
  1 18  1  0  0  0  0
  1 19  1  0  0  0  0
  1 20  1  0  0  0  0
  2  3  1  0  0  0  0
  2  9  1  0  0  0  0
  2 21  1  0  0  0  0
  3  4  1  0  0  0  0
  3 22  1  0  0  0  0
  3 23  1  0  0  0  0
  4  8  1  0  0  0  0
  4  5  1  0  0  0  0
  5  6  2  0  0  0  0
  5 24  1  0  0  0  0
  6  7  1  0  0  0  0
  6 25  1  0  0  0  0
  7  8  2  0  0  0  0
  8 26  1  0  0  0  0
  9 10  1  0  0  0  0
  9 27  1  0  0  0  0
 10 11  2  0  0  0  0
 10 12  1  0  0  0  0
 12 17  1  0  0  0  0
 12 13  1  0  0  0  0
 12 28  1  0  0  0  0
 13 14  1  0  0  0  0
 13 29  1  0  0  0  0
 13 30  1  0  0  0  0
 14 15  1  0  0  0  0
 14 31  1  0  0  0  0
 14 32  1  0  0  0  0
 15 16  1  0  0  0  0
 15 33  1  0  0  0  0
 15 34  1  0  0  0  0
 16 17  1  0  0  0  0
 16 35  1  0  0  0  0
 16 36  1  0  0  0  0
 17 37  1  0  0  0  0
 17 38  1  0  0  0  0
M  END
> <s_m_source_file>
AV-unprocessed.smi

> <i_m_source_file_index>
551

> <i_lp_mmshare_version>
43012

> <i_f3d_flags>
0

> <s_epik_input>
W2NIXTFuW2NIXVtjSF1uMVtDSDJdW0NAQEhdKFtDSDNdKVtOSF1DKD1PKVtDSF0yW0NIMl1bQ0gyXVtDSDJdW0NIMl1bQ0gyXTI=

> <s_epik_cmdline>
J2VwaWtfcHl0aG9uJywgJy1waCcsICc3LjAnLCAnLXRuJywgJzgnLCAnLW1hJywgJzIwMCcsICctbWV0YWxfYmluZGluZycsICctaW1hZScsICc8aW5maWxlLm1hZT4nLCAnLW9tYWUnLCAnPG91dGZpbGUubWFlPic=

> <r_lp_tautomer_probability>
1

> <r_epik_Ionization_Penalty>
0.642614

> <r_epik_Ionization_Penalty_Charging>
0.642614

> <r_epik_Ionization_Penalty_Neutral>
3.29891e-08

> <r_epik_State_Penalty>
0.660429

> <r_epik_Charging_Adjusted_Penalty>
1.30304

> <i_epik_Tot_Q>
0

> <i_epik_Tot_abs_Q>
0

> <r_epik_Metal_State_Penalty>
0.31224

> <b_epik_Metal_Only>
0

> <s_lp_Force_Field>
OPLS_2005

> <r_lp_Energy>
12.4308

> <b_lp_Chiralities_Consistent>
1

> <s_lp_Variant>
AV-unprocessed.smi:551-4

> <Gold.Version>
5.8.1

> <Gold.Id.Protein>
6NUR|6NUR_protein|mol2

> <Gold.PLP.Fitness>
45.5909

> <Gold.PLP.PLP>
-38.2557

> <Gold.PLP.part.hbond>
-1.9959

> <Gold.PLP.part.metal>
0.0000

> <Gold.PLP.part.buried>
-2.0059

> <Gold.PLP.part.nonpolar>
-34.4952

> <Gold.PLP.part.repulsive>
0.1903

> <Gold.PLP.ligand.clash>
0.0000

> <Gold.PLP.ligand.torsion>
0.7168

> <Gold.PLP.Chemscore.Hbond>
1.8792

> <Gold.PLP.Chemscore.CHOScore>
1.0356

> <Gold.PLP.Chemscore.Metal>
0.0000

> <Gold.Chemscore.Hbonds>
donor molecule, donor type, donor heavy atom, donor atom, acceptor molecule, acceptor atom, score
      L1  H     9    27       P1  8028  1.00
      P1  H 10752 10765       L1     7  0.87
      L1  C     8    26       P1  7948  1.00
      L1  C     8    26       P1  7949  0.03

> <Gold.PLP.Chemscore.Internal.Correction>
0.0244

> <Gold.Rescore>
     Score         DG    S(hbond)    S(metal)    S(lipo)     H(rot)  DE(clash)    DE(int)     intcor
     15.10     -17.58       1.63        0.00      94.72       1.73       0.43       2.05       ----

> <Gold.Chemscore.Fitness>
15.1023

> <Gold.Chemscore.DG>
-17.5795

> <Gold.Chemscore.ZeroCoef>
-5.4800

> <Gold.Chemscore.Hbond>
1.6319

> <Gold.Chemscore.Metal>
0.0000

> <Gold.Chemscore.Lipo>
94.7241

> <Gold.Chemscore.Internal_Hbond>
0.0000

> <Gold.Chemscore.DEClash>
0.4313

> <Gold.Chemscore.DEInternal>
2.0459

> <Gold.Chemscore.Rot>
1.7319

> <Gold.Chemscore.Internal.Correction>
   9.000000E+99

> <Gold.Chemscore.Hbonds>
donor molecule, donor type, donor heavy atom, donor atom, acceptor molecule, acceptor atom, score
      L1  H     9    27       P1  8028  0.93
      P1  H 10752 10765       L1     7  0.56

> <Gold.Chemscore.Hbond.Weighted>
-5.4506

> <Gold.Chemscore.Metal.Weighted>
-0.0000

> <Gold.Chemscore.Lipo.Weighted>
-11.0827

> <Gold.Chemscore.Internal_Hbond.Weighted>
0.0000

> <Gold.Chemscore.DEClash.Weighted>
0.4313

> <Gold.Chemscore.DEInternal.Weighted>
2.0459

> <Gold.Chemscore.Rot.Weighted>
4.4338

> <Gold.Chemscore.Internal.Correction.Weighted>
   9.000000E+99

> <Gold.Protein.RotatedTorsions>
[ 6907 6896 6895 6894 ] final  -25.77 input  -60.11 | X-H torsion
[ 7974 7965 7964 7962 ] final  129.31 input  175.53 | X-H torsion
[ 8008 7997 7996 7995 ] final   16.38 input   59.86 | X-H torsion
[ 10167 10162 10161 10158 ] final -121.64 input  -65.29 | X-H torsion
[ 10718 10713 10712 10709 ] final  123.56 input   66.30 | X-H torsion
[ 10763 10752 10751 10750 ] final  166.75 input  -60.55 | X-H torsion
[ 11005 11000 10999 10996 ] final -158.56 input  -57.11 | X-H torsion

> <Gold.Protein.ActiveResidues>
 VAL166  LYS551  ARG553  GLY616  TRP617  ASP618  TYR619  PRO620  LYS621  CYS622 
 ASP623  PHE694  ASN695  SER759  ASP760  ASP761  ALA762  ILE779  LEU786  VAL792 
 PHE793  MET794  SER795  GLU796  ALA797  LYS798  CYS799  TRP800  GLU811  SER814 

> <Gold.Protein.RotatedAtoms>
  151.1704  135.0315  159.8748 H   0  0  0  0  0  0  0  0  0  0  0  0  # atno 6907 bound_to 6896
  152.5449  134.1177  159.8395 H   0  0  0  0  0  0  0  0  0  0  0  0  # atno 6908 bound_to 6896
  151.1282  133.5009  159.2632 H   0  0  0  0  0  0  0  0  0  0  0  0  # atno 6909 bound_to 6896
  145.0300  139.4054  143.5154 H   0  0  0  0  0  0  0  0  0  0  0  0  # atno 7974 bound_to 7965
  154.8761  140.2966  155.5453 H   0  0  0  0  0  0  0  0  0  0  0  0  # atno 8008 bound_to 7997
  156.3022  140.2451  156.3690 H   0  0  0  0  0  0  0  0  0  0  0  0  # atno 8009 bound_to 7997
  154.8766  140.0399  157.1746 H   0  0  0  0  0  0  0  0  0  0  0  0  # atno 8010 bound_to 7997
  140.0229  143.5326  152.2212 H   0  0  0  0  0  0  0  0  0  0  0  0  # atno 10167 bound_to 10162
  157.5655  131.1087  150.8462 H   0  0  0  0  0  0  0  0  0  0  0  0  # atno 10718 bound_to 10713
  154.3437  135.2753  155.2409 H   0  0  0  0  0  0  0  0  0  0  0  0  # atno 10763 bound_to 10752
  154.4668  135.5893  153.6297 H   0  0  0  0  0  0  0  0  0  0  0  0  # atno 10764 bound_to 10752
  152.9855  135.6078  154.3641 H   0  0  0  0  0  0  0  0  0  0  0  0  # atno 10765 bound_to 10752
  140.6523  134.4438  157.5235 H   0  0  0  0  0  0  0  0  0  0  0  0  # atno 11005 bound_to 11000
  146.3497  139.9845  142.8692 LP  0  0  0  0  0  0  0  0  0  0  0  0  # atno 17320 bound_to 7965
  145.1783  140.9754  143.4281 LP  0  0  0  0  0  0  0  0  0  0  0  0  # atno 17321 bound_to 7965
  139.6128  144.7612  151.2914 LP  0  0  0  0  0  0  0  0  0  0  0  0  # atno 17342 bound_to 10162
  140.7335  143.6793  150.8014 LP  0  0  0  0  0  0  0  0  0  0  0  0  # atno 17343 bound_to 10162
  156.8948  130.5225  149.5285 LP  0  0  0  0  0  0  0  0  0  0  0  0  # atno 17370 bound_to 10713
  156.0704  130.5738  150.9371 LP  0  0  0  0  0  0  0  0  0  0  0  0  # atno 17371 bound_to 10713
  139.9041  134.8488  156.1774 LP  0  0  0  0  0  0  0  0  0  0  0  0  # atno 17394 bound_to 11000
  141.0528  133.6880  156.1803 LP  0  0  0  0  0  0  0  0  0  0  0  0  # atno 17395 bound_to 11000

$$$$
