AV-unprocessed.smi:37|AV-procd|sdf|324|dock7
  -GOLD-   2262016153D 1   1.00000     0.00000
 Structure written by MMmdl.
 43 44  0  0  0  0  0  0  0  0  2 V2000
  153.7112  142.5688  160.1162 C   0  0  0  0  0  0  0  0  0  0  0  0
  153.5108  143.6092  159.0042 C   0  0  0  0  0  0  0  0  0  0  0  0
  152.3298  143.3011  158.0810 C   0  0  0  0  0  0  0  0  0  0  0  0
  152.0179  144.0330  157.1395 O   0  0  0  0  0  0  0  0  0  0  0  0
  151.7056  142.1663  158.4289 O   0  0  0  0  0  0  0  0  0  0  0  0
  150.7376  141.6033  157.5596 C   0  0  0  0  0  0  0  0  0  0  0  0
  151.3909  140.4984  156.7170 C   0  0  1  0  0  0  0  0  0  0  0  0
  151.4090  139.2490  157.4080 O   0  0  0  0  0  0  0  0  0  0  0  0
  151.1949  138.1867  156.5214 C   0  0  1  0  0  0  0  0  0  0  0  0
  149.8809  137.5058  156.8582 N   0  0  0  0  0  0  0  0  0  0  0  0
  148.8330  137.4598  155.9517 C   0  0  0  0  0  0  0  0  0  0  0  0
  147.6768  136.8329  156.2483 C   0  0  0  0  0  0  0  0  0  0  0  0
  146.6841  136.7965  155.3426 F   0  0  0  0  0  0  0  0  0  0  0  0
  147.5144  136.1941  157.5524 C   0  0  0  0  0  0  0  0  0  0  0  0
  146.4589  135.6201  157.8159 O   0  0  0  0  0  0  0  0  0  0  0  0
  148.5560  136.2647  158.4307 N   0  5  0  0  0  0  0  0  0  0  0  0
  149.7295  136.8958  158.1338 C   0  0  0  0  0  0  0  0  0  0  0  0
  150.6758  136.9607  158.9187 O   0  0  0  0  0  0  0  0  0  0  0  0
  151.1400  138.7850  155.1073 C   0  0  2  0  0  0  0  0  0  0  0  0
  152.9687  138.7882  154.3166 Br  0  0  0  0  0  0  0  0  0  0  0  0
  150.7037  140.2149  155.3768 C   0  0  1  0  0  0  0  0  0  0  0  0
  149.2895  140.2804  155.5264 O   0  0  0  0  0  0  0  0  0  0  0  0
  148.5335  140.9762  154.6615 C   0  0  0  0  0  0  0  0  0  0  0  0
  148.9170  141.4680  153.6003 O   0  0  0  0  0  0  0  0  0  0  0  0
  147.0760  141.0783  155.1077 C   0  0  0  0  0  0  0  0  0  0  0  0
  146.2292  141.9477  154.1674 C   0  0  0  0  0  0  0  0  0  0  0  0
  154.5656  142.8342  160.7390 H   0  0  0  0  0  0  0  0  0  0  0  0
  153.8990  141.5762  159.7052 H   0  0  0  0  0  0  0  0  0  0  0  0
  152.8369  142.5068  160.7651 H   0  0  0  0  0  0  0  0  0  0  0  0
  153.3568  144.5937  159.4466 H   0  0  0  0  0  0  0  0  0  0  0  0
  154.4140  143.6744  158.3971 H   0  0  0  0  0  0  0  0  0  0  0  0
  149.8947  141.2111  158.1298 H   0  0  0  0  0  0  0  0  0  0  0  0
  150.3542  142.3860  156.9036 H   0  0  0  0  0  0  0  0  0  0  0  0
  152.4271  140.7699  156.5107 H   0  0  0  0  0  0  0  0  0  0  0  0
  151.9567  137.4169  156.6541 H   0  0  0  0  0  0  0  0  0  0  0  0
  148.9285  137.9193  154.9804 H   0  0  0  0  0  0  0  0  0  0  0  0
  150.4857  138.2308  154.4338 H   0  0  0  0  0  0  0  0  0  0  0  0
  151.0360  140.9078  154.6024 H   0  0  0  0  0  0  0  0  0  0  0  0
  146.6549  140.0740  155.1589 H   0  0  0  0  0  0  0  0  0  0  0  0
  147.0471  141.4853  156.1190 H   0  0  0  0  0  0  0  0  0  0  0  0
  145.1833  141.9347  154.4735 H   0  0  0  0  0  0  0  0  0  0  0  0
  146.2777  141.5867  153.1395 H   0  0  0  0  0  0  0  0  0  0  0  0
  146.5600  142.9873  154.1773 H   0  0  0  0  0  0  0  0  0  0  0  0
  1  2  1  0  0  0  0
  1 27  1  0  0  0  0
  1 28  1  0  0  0  0
  1 29  1  0  0  0  0
  2  3  1  0  0  0  0
  2 30  1  0  0  0  0
  2 31  1  0  0  0  0
  3  4  2  0  0  0  0
  3  5  1  0  0  0  0
  5  6  1  0  0  0  0
  6  7  1  0  0  0  0
  6 32  1  0  0  0  0
  6 33  1  0  0  0  0
  7 21  1  0  0  0  0
  7  8  1  0  0  0  0
  7 34  1  0  0  0  0
  8  9  1  0  0  0  0
  9 10  1  0  0  0  0
  9 19  1  0  0  0  0
  9 35  1  0  0  0  0
 10 17  1  0  0  0  0
 10 11  1  0  0  0  0
 11 12  2  0  0  0  0
 11 36  1  0  0  0  0
 12 13  1  0  0  0  0
 12 14  1  0  0  0  0
 14 15  2  0  0  0  0
 14 16  1  0  0  0  0
 16 17  1  0  0  0  0
 17 18  2  0  0  0  0
 19 20  1  0  0  0  0
 19 21  1  0  0  0  0
 19 37  1  0  0  0  0
 21 22  1  0  0  0  0
 21 38  1  0  0  0  0
 22 23  1  0  0  0  0
 23 24  2  0  0  0  0
 23 25  1  0  0  0  0
 25 26  1  0  0  0  0
 25 39  1  0  0  0  0
 25 40  1  0  0  0  0
 26 41  1  0  0  0  0
 26 42  1  0  0  0  0
 26 43  1  0  0  0  0
M  CHG  1  16  -1
M  END
> <s_m_source_file>
AV-unprocessed.smi

> <i_m_source_file_index>
37

> <i_lp_mmshare_version>
43012

> <i_f3d_flags>
0

> <s_epik_input>
W0NIM11bQ0gyXUMoPU8pT1tDSDJdW0NAQEhdMU9bQ0BASF0objJbY0hdYyhGKWMoPU8pW25IXWMyPU8pW0NAQEhdKEJyKVtDQEhdMU9DKD1PKVtDSDJdW0NIM10=

> <s_epik_cmdline>
J2VwaWtfcHl0aG9uJywgJy1waCcsICc3LjAnLCAnLXRuJywgJzgnLCAnLW1hJywgJzIwMCcsICctbWV0YWxfYmluZGluZycsICctaW1hZScsICc8aW5maWxlLm1hZT4nLCAnLW9tYWUnLCAnPG91dGZpbGUubWFlPic=

> <r_epik_Ionization_Penalty>
1.08158

> <r_epik_Ionization_Penalty_Charging>
9.05154e-09

> <r_epik_Ionization_Penalty_Neutral>
1.08158

> <r_epik_State_Penalty>
1.13706

> <r_epik_Charging_Adjusted_Penalty>
1.13706

> <i_epik_Tot_Q>
-1

> <i_epik_Tot_abs_Q>
1

> <r_epik_Metal_State_Penalty>
0.00343535

> <b_epik_Metal_Only>
0

> <s_epik_Chemistry_Notes>
This compound has an ester and may undergo hydrolysis at high or low pH. This compound contains an acetal/aminal-like group ( X-CH(R)-Y where X, Y are N, S, or O) that may be acid/base labile, releasing an aldehyde.

> <s_lp_Force_Field>
OPLS_2005

> <r_lp_Energy>
30.833

> <b_lp_Chiralities_Consistent>
1

> <s_lp_Variant>
AV-unprocessed.smi:37-22

> <Gold.Version>
5.8.1

> <Gold.Id.Protein>
6NUR|6NUR_protein|mol2

> <Gold.PLP.Fitness>
38.4263

> <Gold.PLP.PLP>
-36.2400

> <Gold.PLP.part.hbond>
-3.0000

> <Gold.PLP.part.metal>
0.0000

> <Gold.PLP.part.buried>
-5.2696

> <Gold.PLP.part.nonpolar>
-28.9672

> <Gold.PLP.part.repulsive>
0.3835

> <Gold.PLP.ligand.clash>
0.0000

> <Gold.PLP.ligand.torsion>
1.4487

> <Gold.PLP.Chemscore.Hbond>
1.6560

> <Gold.PLP.Chemscore.CHOScore>
0.0000

> <Gold.PLP.Chemscore.Metal>
0.0000

> <Gold.Chemscore.Hbonds>
donor molecule, donor type, donor heavy atom, donor atom, acceptor molecule, acceptor atom, score
      P1  H  6896  6907       L1    18  0.73
      P1  H  8011  8017       L1    24  0.80

> <Gold.PLP.Chemscore.Internal.Correction>
0.1157

> <Gold.Rescore>
     Score         DG    S(hbond)    S(metal)    S(lipo)     H(rot)  DE(clash)    DE(int)     intcor
      6.79     -11.36       1.77        0.00      71.25       3.27       0.25       4.32       ----

> <Gold.Chemscore.Fitness>
6.7871

> <Gold.Chemscore.DG>
-11.3615

> <Gold.Chemscore.ZeroCoef>
-5.4800

> <Gold.Chemscore.Hbond>
1.7692

> <Gold.Chemscore.Metal>
0.0000

> <Gold.Chemscore.Lipo>
71.2461

> <Gold.Chemscore.Internal_Hbond>
0.0000

> <Gold.Chemscore.DEClash>
0.2532

> <Gold.Chemscore.DEInternal>
4.3212

> <Gold.Chemscore.Rot>
3.2669

> <Gold.Chemscore.Internal.Correction>
   9.000000E+99

> <Gold.Chemscore.Hbonds>
donor molecule, donor type, donor heavy atom, donor atom, acceptor molecule, acceptor atom, score
      P1  H  6896  6907       L1    18  0.62
      P1  H  8011  8017       L1    24  0.80

> <Gold.Chemscore.Hbond.Weighted>
-5.9090

> <Gold.Chemscore.Metal.Weighted>
-0.0000

> <Gold.Chemscore.Lipo.Weighted>
-8.3358

> <Gold.Chemscore.Internal_Hbond.Weighted>
0.0000

> <Gold.Chemscore.DEClash.Weighted>
0.2532

> <Gold.Chemscore.DEInternal.Weighted>
4.3212

> <Gold.Chemscore.Rot.Weighted>
8.3634

> <Gold.Chemscore.Internal.Correction.Weighted>
   9.000000E+99

> <Gold.Protein.RotatedTorsions>
[ 6907 6896 6895 6894 ] final  -28.59 input  -60.11 | X-H torsion
[ 7974 7965 7964 7962 ] final -108.55 input  175.53 | X-H torsion
[ 8008 7997 7996 7995 ] final -174.99 input   59.86 | X-H torsion
[ 10167 10162 10161 10158 ] final  -64.02 input  -65.29 | X-H torsion
[ 10718 10713 10712 10709 ] final   41.55 input   66.30 | X-H torsion
[ 10763 10752 10751 10750 ] final -148.60 input  -60.55 | X-H torsion
[ 11005 11000 10999 10996 ] final -118.85 input  -57.11 | X-H torsion

> <Gold.Protein.ActiveResidues>
 VAL166  LYS551  ARG553  GLY616  TRP617  ASP618  TYR619  PRO620  LYS621  CYS622 
 ASP623  PHE694  ASN695  SER759  ASP760  ASP761  ALA762  ILE779  LEU786  VAL792 
 PHE793  MET794  SER795  GLU796  ALA797  LYS798  CYS799  TRP800  GLU811  SER814 

> <Gold.Protein.RotatedAtoms>
  151.1308  135.0129  159.8581 H   0  0  0  0  0  0  0  0  0  0  0  0  # atno 6907 bound_to 6896
  152.5451  134.1613  159.8569 H   0  0  0  0  0  0  0  0  0  0  0  0  # atno 6908 bound_to 6896
  151.1679  133.4758  159.2627 H   0  0  0  0  0  0  0  0  0  0  0  0  # atno 6909 bound_to 6896
  145.1914  140.9016  143.3422 H   0  0  0  0  0  0  0  0  0  0  0  0  # atno 7974 bound_to 7965
  155.9770  140.1174  157.0761 H   0  0  0  0  0  0  0  0  0  0  0  0  # atno 8008 bound_to 7997
  154.4172  140.1152  156.5452 H   0  0  0  0  0  0  0  0  0  0  0  0  # atno 8009 bound_to 7997
  155.6521  140.3473  155.4754 H   0  0  0  0  0  0  0  0  0  0  0  0  # atno 8010 bound_to 7997
  140.5830  143.2330  151.6302 H   0  0  0  0  0  0  0  0  0  0  0  0  # atno 10167 bound_to 10162
  157.3948  130.7827  149.7299 H   0  0  0  0  0  0  0  0  0  0  0  0  # atno 10718 bound_to 10713
  154.8224  135.3330  154.6999 H   0  0  0  0  0  0  0  0  0  0  0  0  # atno 10763 bound_to 10752
  153.7629  135.6931  153.4926 H   0  0  0  0  0  0  0  0  0  0  0  0  # atno 10764 bound_to 10752
  153.2097  135.4486  155.0314 H   0  0  0  0  0  0  0  0  0  0  0  0  # atno 10765 bound_to 10752
  141.0257  134.0057  157.3218 H   0  0  0  0  0  0  0  0  0  0  0  0  # atno 11005 bound_to 11000
  145.0037  139.3574  143.6154 LP  0  0  0  0  0  0  0  0  0  0  0  0  # atno 17320 bound_to 7965
  146.3435  139.9271  142.8758 LP  0  0  0  0  0  0  0  0  0  0  0  0  # atno 17321 bound_to 7965
  139.5181  144.3295  152.0839 LP  0  0  0  0  0  0  0  0  0  0  0  0  # atno 17342 bound_to 10162
  140.2448  144.4231  150.6245 LP  0  0  0  0  0  0  0  0  0  0  0  0  # atno 17343 bound_to 10162
  155.9807  130.4026  150.3511 LP  0  0  0  0  0  0  0  0  0  0  0  0  # atno 17370 bound_to 10713
  157.1631  131.0350  151.2831 LP  0  0  0  0  0  0  0  0  0  0  0  0  # atno 17371 bound_to 10713
  139.9174  135.0198  156.7935 LP  0  0  0  0  0  0  0  0  0  0  0  0  # atno 17394 bound_to 11000
  140.6495  133.9744  155.7748 LP  0  0  0  0  0  0  0  0  0  0  0  0  # atno 17395 bound_to 11000

$$$$
