AV-unprocessed.smi:3163|AV-procd|sdf|12078|dock3
  -GOLD-   2272017503D 1   1.00000     0.00000
 Structure written by MMmdl.
 37 38  0  0  0  0  0  0  0  0  3 V2000
  150.5048  126.5805  154.8799 C   0  0  0  0  0  0  0  0  0  0  0  0
  150.9450  127.9125  154.4155 N   0  3  2  0  0  0  0  0  0  0  0  0
  151.8034  128.6457  155.3756 C   0  0  0  0  0  0  0  0  0  0  0  0
  151.2410  130.0691  155.4731 C   0  0  0  0  0  0  0  0  0  0  0  0
  150.3908  130.2252  154.2118 C   0  0  2  0  0  0  0  0  0  0  0  0
  149.3001  131.3105  154.2964 C   0  0  0  0  0  0  0  0  0  0  0  0
  148.5884  131.4762  153.0331 N   0  0  0  0  0  0  0  0  0  0  0  0
  147.3530  131.9809  152.9060 C   0  0  0  0  0  0  0  0  0  0  0  0
  146.6781  132.3635  153.8612 O   0  0  0  0  0  0  0  0  0  0  0  0
  146.9733  132.0184  151.6167 N   0  0  0  0  0  0  0  0  0  0  0  0
  145.7472  132.4741  151.0574 C   0  0  0  0  0  0  0  0  0  0  0  0
  144.9903  133.3935  151.8176 C   0  0  0  0  0  0  0  0  0  0  0  0
  143.7738  133.8877  151.3048 C   0  0  0  0  0  0  0  0  0  0  0  0
  143.3442  133.4863  150.0895 N   0  3  0  0  0  0  0  0  0  0  0  0
  144.0375  132.6198  149.3204 C   0  0  0  0  0  0  0  0  0  0  0  0
  145.2616  132.0921  149.7801 C   0  0  0  0  0  0  0  0  0  0  0  0
  149.8427  128.8119  154.0171 C   0  0  0  0  0  0  0  0  0  0  0  0
  149.8980  126.6593  155.7828 H   0  0  0  0  0  0  0  0  0  0  0  0
  151.3674  125.9505  155.0999 H   0  0  0  0  0  0  0  0  0  0  0  0
  149.9126  126.0850  154.1099 H   0  0  0  0  0  0  0  0  0  0  0  0
  151.8317  128.1703  156.3574 H   0  0  0  0  0  0  0  0  0  0  0  0
  152.8217  128.6580  154.9861 H   0  0  0  0  0  0  0  0  0  0  0  0
  150.6106  130.1520  156.3598 H   0  0  0  0  0  0  0  0  0  0  0  0
  152.0243  130.8240  155.5508 H   0  0  0  0  0  0  0  0  0  0  0  0
  151.0561  130.4457  153.3750 H   0  0  0  0  0  0  0  0  0  0  0  0
  148.5920  131.0741  155.0924 H   0  0  0  0  0  0  0  0  0  0  0  0
  149.7461  132.2705  154.5586 H   0  0  0  0  0  0  0  0  0  0  0  0
  149.0774  131.1928  152.1963 H   0  0  0  0  0  0  0  0  0  0  0  0
  147.6698  131.7293  150.9454 H   0  0  0  0  0  0  0  0  0  0  0  0
  145.3337  133.7171  152.7899 H   0  0  0  0  0  0  0  0  0  0  0  0
  143.1372  134.5877  151.8261 H   0  0  0  0  0  0  0  0  0  0  0  0
  143.5982  132.3795  148.3632 H   0  0  0  0  0  0  0  0  0  0  0  0
  145.8031  131.4159  149.1372 H   0  0  0  0  0  0  0  0  0  0  0  0
  149.5243  128.6234  152.9913 H   0  0  0  0  0  0  0  0  0  0  0  0
  148.9832  128.6529  154.6708 H   0  0  0  0  0  0  0  0  0  0  0  0
  151.5088  127.7714  153.5891 H   0  0  0  0  0  0  0  0  0  0  0  0
  142.4615  133.8562  149.7355 H   0  0  0  0  0  0  0  0  0  0  0  0
  1  2  1  0  0  0  0
  1 18  1  0  0  0  0
  1 19  1  0  0  0  0
  1 20  1  0  0  0  0
  2 17  1  0  0  0  0
  2  3  1  0  0  0  0
  2 36  1  0  0  0  0
  3  4  1  0  0  0  0
  3 21  1  0  0  0  0
  3 22  1  0  0  0  0
  4  5  1  0  0  0  0
  4 23  1  0  0  0  0
  4 24  1  0  0  0  0
  5  6  1  0  0  0  0
  5 17  1  0  0  0  0
  5 25  1  0  0  0  0
  6  7  1  0  0  0  0
  6 26  1  0  0  0  0
  6 27  1  0  0  0  0
  7  8  1  0  0  0  0
  7 28  1  0  0  0  0
  8  9  2  0  0  0  0
  8 10  1  0  0  0  0
 10 11  1  0  0  0  0
 10 29  1  0  0  0  0
 11 16  1  0  0  0  0
 11 12  2  0  0  0  0
 12 13  1  0  0  0  0
 12 30  1  0  0  0  0
 13 14  2  0  0  0  0
 13 31  1  0  0  0  0
 14 15  1  0  0  0  0
 14 37  1  0  0  0  0
 15 16  2  0  0  0  0
 15 32  1  0  0  0  0
 16 33  1  0  0  0  0
 17 34  1  0  0  0  0
 17 35  1  0  0  0  0
M  CHG  1   2   1
M  CHG  1  14   1
M  END
> <s_m_source_file>
AV-unprocessed.smi

> <i_m_source_file_index>
3163

> <i_lp_mmshare_version>
43012

> <i_f3d_flags>
0

> <s_epik_input>
W0NIM11OMVtDSDJdW0NIMl1bQ0BIXShbQ0gyXTEpW0NIMl1bTkhdQyg9TylbTkhdYzJbY0hdW2NIXW5bY0hdW2NIXTI=

> <s_epik_cmdline>
J2VwaWtfcHl0aG9uJywgJy1waCcsICc3LjAnLCAnLXRuJywgJzgnLCAnLW1hJywgJzIwMCcsICctbWV0YWxfYmluZGluZycsICctaW1hZScsICc8aW5maWxlLm1hZT4nLCAnLW9tYWUnLCAnPG91dGZpbGUubWFlPic=

> <r_epik_Ionization_Penalty>
1.09034

> <r_epik_Ionization_Penalty_Charging>
1.09032

> <r_epik_Ionization_Penalty_Neutral>
1.86664e-05

> <r_epik_State_Penalty>
1.14521

> <r_epik_Charging_Adjusted_Penalty>
2.23553

> <i_epik_Tot_Q>
2

> <i_epik_Tot_abs_Q>
2

> <r_epik_Metal_State_Penalty>
1.23399

> <b_epik_Metal_Only>
0

> <s_lp_Force_Field>
OPLS_2005

> <r_lp_Energy>
38.5846

> <b_lp_Chiralities_Consistent>
1

> <s_lp_Variant>
AV-unprocessed.smi:3163-8

> <Gold.Version>
5.8.1

> <Gold.Id.Protein>
6NUR|6NUR_protein|mol2

> <Gold.PLP.Fitness>
44.9914

> <Gold.PLP.PLP>
-30.6410

> <Gold.PLP.part.hbond>
-4.0000

> <Gold.PLP.part.metal>
0.0000

> <Gold.PLP.part.buried>
-5.8422

> <Gold.PLP.part.nonpolar>
-21.2557

> <Gold.PLP.part.repulsive>
0.1983

> <Gold.PLP.ligand.clash>
0.0000

> <Gold.PLP.ligand.torsion>
0.2902

> <Gold.PLP.Chemscore.Hbond>
4.9760

> <Gold.PLP.Chemscore.CHOScore>
0.0000

> <Gold.PLP.Chemscore.Metal>
0.0000

> <Gold.Chemscore.Hbonds>
donor molecule, donor type, donor heavy atom, donor atom, acceptor molecule, acceptor atom, score
      L1  H     2    36       P1 10737  1.00
      L1  H     7    28       P1 10747  0.98
      L1  H    10    29       P1 10747  1.00
      L1  H    14    37       P1 10186  2.00

> <Gold.PLP.Chemscore.Internal.Correction>
0.0027

> <Gold.Rescore>
     Score         DG    S(hbond)    S(metal)    S(lipo)     H(rot)  DE(clash)    DE(int)     intcor
     20.19     -21.90       3.52        0.00      67.81       1.27       0.13       1.58       ----

> <Gold.Chemscore.Fitness>
20.1930

> <Gold.Chemscore.DG>
-21.9035

> <Gold.Chemscore.ZeroCoef>
-5.4800

> <Gold.Chemscore.Hbond>
3.5170

> <Gold.Chemscore.Metal>
0.0000

> <Gold.Chemscore.Lipo>
67.8053

> <Gold.Chemscore.Internal_Hbond>
0.0000

> <Gold.Chemscore.DEClash>
0.1268

> <Gold.Chemscore.DEInternal>
1.5837

> <Gold.Chemscore.Rot>
1.2721

> <Gold.Chemscore.Internal.Correction>
   9.000000E+99

> <Gold.Chemscore.Hbonds>
donor molecule, donor type, donor heavy atom, donor atom, acceptor molecule, acceptor atom, score
      L1  H     2    36       P1 10737  0.99
      L1  H     7    28       P1 10747  0.42
      L1  H    10    29       P1 10747  1.00
      L1  H    14    37       P1 10186  0.97

> <Gold.Chemscore.Hbond.Weighted>
-11.7468

> <Gold.Chemscore.Metal.Weighted>
-0.0000

> <Gold.Chemscore.Lipo.Weighted>
-7.9332

> <Gold.Chemscore.Internal_Hbond.Weighted>
0.0000

> <Gold.Chemscore.DEClash.Weighted>
0.1268

> <Gold.Chemscore.DEInternal.Weighted>
1.5837

> <Gold.Chemscore.Rot.Weighted>
3.2565

> <Gold.Chemscore.Internal.Correction.Weighted>
   9.000000E+99

> <Gold.Protein.RotatedTorsions>
[ 6907 6896 6895 6894 ] final  -58.46 input  -60.11 | X-H torsion
[ 7974 7965 7964 7962 ] final   16.11 input  175.53 | X-H torsion
[ 8008 7997 7996 7995 ] final   30.17 input   59.86 | X-H torsion
[ 10167 10162 10161 10158 ] final   -4.79 input  -65.29 | X-H torsion
[ 10718 10713 10712 10709 ] final  138.33 input   66.30 | X-H torsion
[ 10763 10752 10751 10750 ] final  150.93 input  -60.55 | X-H torsion
[ 11005 11000 10999 10996 ] final  115.45 input  -57.11 | X-H torsion

> <Gold.Protein.ActiveResidues>
 VAL166  LYS551  ARG553  GLY616  TRP617  ASP618  TYR619  PRO620  LYS621  CYS622 
 ASP623  PHE694  ASN695  SER759  ASP760  ASP761  ALA762  ILE779  LEU786  VAL792 
 PHE793  MET794  SER795  GLU796  ALA797  LYS798  CYS799  TRP800  GLU811  SER814 

> <Gold.Protein.RotatedAtoms>
  150.8005  134.7096  159.6595 H   0  0  0  0  0  0  0  0  0  0  0  0  # atno 6907 bound_to 6896
  152.4122  134.6102  160.0033 H   0  0  0  0  0  0  0  0  0  0  0  0  # atno 6908 bound_to 6896
  151.6341  133.3293  159.3151 H   0  0  0  0  0  0  0  0  0  0  0  0  # atno 6909 bound_to 6896
  146.2259  139.8795  142.8573 H   0  0  0  0  0  0  0  0  0  0  0  0  # atno 7974 bound_to 7965
  155.0861  140.3215  155.4587 H   0  0  0  0  0  0  0  0  0  0  0  0  # atno 8008 bound_to 7997
  156.2754  140.2086  156.5935 H   0  0  0  0  0  0  0  0  0  0  0  0  # atno 8009 bound_to 7997
  154.6940  140.0513  157.0379 H   0  0  0  0  0  0  0  0  0  0  0  0  # atno 8010 bound_to 7997
  140.6940  143.6383  150.8459 H   0  0  0  0  0  0  0  0  0  0  0  0  # atno 10167 bound_to 10162
  157.4264  131.1044  151.0298 H   0  0  0  0  0  0  0  0  0  0  0  0  # atno 10718 bound_to 10713
  154.0956  135.2849  155.3262 H   0  0  0  0  0  0  0  0  0  0  0  0  # atno 10763 bound_to 10752
  154.6590  135.5341  153.7998 H   0  0  0  0  0  0  0  0  0  0  0  0  # atno 10764 bound_to 10752
  153.0397  135.6529  154.1122 H   0  0  0  0  0  0  0  0  0  0  0  0  # atno 10765 bound_to 10752
  139.9010  134.9584  156.7047 H   0  0  0  0  0  0  0  0  0  0  0  0  # atno 11005 bound_to 11000
  145.2526  141.0049  143.3872 LP  0  0  0  0  0  0  0  0  0  0  0  0  # atno 17320 bound_to 7965
  144.9362  139.4241  143.6471 LP  0  0  0  0  0  0  0  0  0  0  0  0  # atno 17321 bound_to 7965
  140.0099  143.5654  152.2843 LP  0  0  0  0  0  0  0  0  0  0  0  0  # atno 17342 bound_to 10162
  139.6374  144.7651  151.2410 LP  0  0  0  0  0  0  0  0  0  0  0  0  # atno 17343 bound_to 10162
  157.1209  130.6061  149.5505 LP  0  0  0  0  0  0  0  0  0  0  0  0  # atno 17370 bound_to 10713
  155.9898  130.4947  150.7229 LP  0  0  0  0  0  0  0  0  0  0  0  0  # atno 17371 bound_to 10713
  140.7123  133.9213  155.8092 LP  0  0  0  0  0  0  0  0  0  0  0  0  # atno 17394 bound_to 11000
  141.0291  134.0782  157.4035 LP  0  0  0  0  0  0  0  0  0  0  0  0  # atno 17395 bound_to 11000

$$$$
