AV-unprocessed.smi:633|AV-procd|sdf|3130|dock9
  -GOLD-   22720 0 53D 1   1.00000     0.00000
 Structure written by MMmdl.
 53 56  0  0  0  0  0  0  0  0  1 V2000
  153.6185  142.0101  160.7304 C   0  0  0  0  0  0  0  0  0  0  0  0
  152.4261  142.1770  159.7827 C   0  0  2  0  0  0  0  0  0  0  0  0
  152.3420  141.0303  158.7595 C   0  0  0  0  0  0  0  0  0  0  0  0
  151.2751  141.2858  157.7961 N   0  0  0  0  0  0  0  0  0  0  0  0
  150.8574  140.2207  156.9701 C   0  0  0  0  0  0  0  0  0  0  0  0
  150.9867  140.3210  155.5650 C   0  0  0  0  0  0  0  0  0  0  0  0
  150.5686  139.2475  154.7555 C   0  0  0  0  0  0  0  0  0  0  0  0
  150.0219  138.0977  155.3714 C   0  0  0  0  0  0  0  0  0  0  0  0
  149.5877  136.9407  154.6695 N   0  0  0  0  0  0  0  0  0  0  0  0
  149.4723  135.6803  155.1216 C   0  0  0  0  0  0  0  0  0  0  0  0
  149.7781  135.3011  156.2517 O   0  0  0  0  0  0  0  0  0  0  0  0
  148.9935  134.8686  154.1662 N   0  0  0  0  0  0  0  0  0  0  0  0
  148.7427  133.4331  154.2825 C   0  0  0  0  0  0  0  0  0  0  0  0
  149.9001  132.6535  154.8897 C   0  0  0  0  0  0  0  0  0  0  0  0
  149.6880  131.2939  155.5119 C   0  0  0  0  0  0  0  0  0  0  0  0
  150.0274  132.4818  156.3842 C   0  0  0  0  0  0  0  0  0  0  0  0
  148.2704  132.7857  152.9889 C   0  0  0  0  0  0  0  0  0  0  0  0
  147.0188  133.2603  152.2904 C   0  0  0  0  0  0  0  0  0  0  0  0
  147.0454  131.9030  152.9570 C   0  0  0  0  0  0  0  0  0  0  0  0
  149.9410  138.0874  156.7780 C   0  0  0  0  0  0  0  0  0  0  0  0
  150.3376  139.1151  157.5572 N   0  0  0  0  0  0  0  0  0  0  0  0
  151.3962  142.5818  157.1347 C   0  0  0  0  0  0  0  0  0  0  0  0
  151.5343  143.7194  158.1658 C   0  0  1  0  0  0  0  0  0  0  0  0
  150.2104  144.0739  158.8663 C   0  0  0  0  0  0  0  0  0  0  0  0
  152.5762  143.4198  159.0976 O   0  0  0  0  0  0  0  0  0  0  0  0
  153.5460  141.0787  161.2923 H   0  0  0  0  0  0  0  0  0  0  0  0
  153.6624  142.8288  161.4489 H   0  0  0  0  0  0  0  0  0  0  0  0
  154.5605  141.9978  160.1813 H   0  0  0  0  0  0  0  0  0  0  0  0
  151.5177  142.1968  160.3851 H   0  0  0  0  0  0  0  0  0  0  0  0
  153.2890  140.9281  158.2274 H   0  0  0  0  0  0  0  0  0  0  0  0
  152.1590  140.0912  159.2835 H   0  0  0  0  0  0  0  0  0  0  0  0
  151.3914  141.2084  155.1013 H   0  0  0  0  0  0  0  0  0  0  0  0
  150.6880  139.3248  153.6862 H   0  0  0  0  0  0  0  0  0  0  0  0
  149.3812  137.0817  153.6914 H   0  0  0  0  0  0  0  0  0  0  0  0
  148.7796  135.2828  153.2708 H   0  0  0  0  0  0  0  0  0  0  0  0
  147.9139  133.3612  154.9880 H   0  0  0  0  0  0  0  0  0  0  0  0
  150.8376  132.7720  154.3495 H   0  0  0  0  0  0  0  0  0  0  0  0
  148.6716  130.9095  155.5661 H   0  0  0  0  0  0  0  0  0  0  0  0
  150.4619  130.5451  155.3563 H   0  0  0  0  0  0  0  0  0  0  0  0
  151.0278  132.5251  156.8101 H   0  0  0  0  0  0  0  0  0  0  0  0
  149.2356  132.8870  157.0112 H   0  0  0  0  0  0  0  0  0  0  0  0
  149.0825  132.4723  152.3355 H   0  0  0  0  0  0  0  0  0  0  0  0
  146.4369  134.0448  152.7701 H   0  0  0  0  0  0  0  0  0  0  0  0
  147.0313  133.2879  151.2028 H   0  0  0  0  0  0  0  0  0  0  0  0
  147.0751  131.0263  152.3135 H   0  0  0  0  0  0  0  0  0  0  0  0
  146.4750  131.7871  153.8762 H   0  0  0  0  0  0  0  0  0  0  0  0
  149.5413  137.2289  157.2979 H   0  0  0  0  0  0  0  0  0  0  0  0
  152.2825  142.5562  156.4995 H   0  0  0  0  0  0  0  0  0  0  0  0
  150.5505  142.7874  156.4794 H   0  0  0  0  0  0  0  0  0  0  0  0
  151.8552  144.6134  157.6304 H   0  0  0  0  0  0  0  0  0  0  0  0
  149.4756  144.4296  158.1438 H   0  0  0  0  0  0  0  0  0  0  0  0
  150.3586  144.8647  159.6018 H   0  0  0  0  0  0  0  0  0  0  0  0
  149.7706  143.2180  159.3776 H   0  0  0  0  0  0  0  0  0  0  0  0
  1  2  1  0  0  0  0
  1 26  1  0  0  0  0
  1 27  1  0  0  0  0
  1 28  1  0  0  0  0
  2 25  1  0  0  0  0
  2  3  1  0  0  0  0
  2 29  1  0  0  0  0
  3  4  1  0  0  0  0
  3 30  1  0  0  0  0
  3 31  1  0  0  0  0
  4  5  1  0  0  0  0
  4 22  1  0  0  0  0
  5 21  1  0  0  0  0
  5  6  2  0  0  0  0
  6  7  1  0  0  0  0
  6 32  1  0  0  0  0
  7  8  2  0  0  0  0
  7 33  1  0  0  0  0
  8  9  1  0  0  0  0
  8 20  1  0  0  0  0
  9 10  1  0  0  0  0
  9 34  1  0  0  0  0
 10 11  2  0  0  0  0
 10 12  1  0  0  0  0
 12 13  1  0  0  0  0
 12 35  1  0  0  0  0
 13 14  1  0  0  0  0
 13 17  1  0  0  0  0
 13 36  1  0  0  0  0
 14 16  1  0  0  0  0
 14 15  1  0  0  0  0
 14 37  1  0  0  0  0
 15 16  1  0  0  0  0
 15 38  1  0  0  0  0
 15 39  1  0  0  0  0
 16 40  1  0  0  0  0
 16 41  1  0  0  0  0
 17 19  1  0  0  0  0
 17 18  1  0  0  0  0
 17 42  1  0  0  0  0
 18 19  1  0  0  0  0
 18 43  1  0  0  0  0
 18 44  1  0  0  0  0
 19 45  1  0  0  0  0
 19 46  1  0  0  0  0
 20 21  2  0  0  0  0
 20 47  1  0  0  0  0
 22 23  1  0  0  0  0
 22 48  1  0  0  0  0
 22 49  1  0  0  0  0
 23 24  1  0  0  0  0
 23 25  1  0  0  0  0
 23 50  1  0  0  0  0
 24 51  1  0  0  0  0
 24 52  1  0  0  0  0
 24 53  1  0  0  0  0
M  END
> <s_m_source_file>
AV-unprocessed.smi

> <i_m_source_file_index>
633

> <i_lp_mmshare_version>
43012

> <i_f3d_flags>
0

> <s_epik_input>
W0NIM11bQ0BASF0xW0NIMl1OKFtDSDJdW0NASF0oTzEpW0NIM10pYzJbY0hdW2NIXWMoW2NIXW4yKVtOSF1DKD1PKVtOSF1bQ0hdKFtDSF0zW0NIMl1bQ0gyXTMpW0NIXTRbQ0gyXVtDSDJdNA==

> <s_epik_cmdline>
J2VwaWtfcHl0aG9uJywgJy1waCcsICc3LjAnLCAnLXRuJywgJzgnLCAnLW1hJywgJzIwMCcsICctbWV0YWxfYmluZGluZycsICctaW1hZScsICc8aW5maWxlLm1hZT4nLCAnLW9tYWUnLCAnPG91dGZpbGUubWFlPic=

> <r_lp_tautomer_probability>
1

> <r_epik_Ionization_Penalty>
0.00291159

> <r_epik_Ionization_Penalty_Charging>
0

> <r_epik_Ionization_Penalty_Neutral>
0.00291159

> <r_epik_State_Penalty>
0.00200877

> <r_epik_Charging_Adjusted_Penalty>
0.00200877

> <i_epik_Tot_Q>
0

> <i_epik_Tot_abs_Q>
0

> <r_epik_Metal_State_Penalty>
-0

> <b_epik_Metal_Only>
0

> <s_lp_Force_Field>
OPLS_2005

> <r_lp_Energy>
43.7528

> <b_lp_Chiralities_Consistent>
1

> <s_lp_Variant>
AV-unprocessed.smi:633-1

> <Gold.Version>
5.8.1

> <Gold.Id.Protein>
6NUR|6NUR_protein|mol2

> <Gold.PLP.Fitness>
49.6117

> <Gold.PLP.PLP>
-44.5533

> <Gold.PLP.part.hbond>
-2.0000

> <Gold.PLP.part.metal>
0.0000

> <Gold.PLP.part.buried>
-4.5547

> <Gold.PLP.part.nonpolar>
-37.5901

> <Gold.PLP.part.repulsive>
0.0729

> <Gold.PLP.ligand.clash>
0.0000

> <Gold.PLP.ligand.torsion>
1.6637

> <Gold.PLP.Chemscore.Hbond>
1.9600

> <Gold.PLP.Chemscore.CHOScore>
0.0000

> <Gold.PLP.Chemscore.Metal>
0.0000

> <Gold.Chemscore.Hbonds>
donor molecule, donor type, donor heavy atom, donor atom, acceptor molecule, acceptor atom, score
      L1  H     9    34       P1  7948  0.94
      L1  H    12    35       P1  7948  1.00

> <Gold.PLP.Chemscore.Internal.Correction>
2.5057

> <Gold.Rescore>
     Score         DG    S(hbond)    S(metal)    S(lipo)     H(rot)  DE(clash)    DE(int)     intcor
     16.82     -20.77       1.80        0.00     109.93       1.40       0.17       3.79       ----

> <Gold.Chemscore.Fitness>
16.8204

> <Gold.Chemscore.DG>
-20.7740

> <Gold.Chemscore.ZeroCoef>
-5.4800

> <Gold.Chemscore.Hbond>
1.8028

> <Gold.Chemscore.Metal>
0.0000

> <Gold.Chemscore.Lipo>
109.9346

> <Gold.Chemscore.Internal_Hbond>
0.0000

> <Gold.Chemscore.DEClash>
0.1652

> <Gold.Chemscore.DEInternal>
3.7884

> <Gold.Chemscore.Rot>
1.4022

> <Gold.Chemscore.Internal.Correction>
   9.000000E+99

> <Gold.Chemscore.Hbonds>
donor molecule, donor type, donor heavy atom, donor atom, acceptor molecule, acceptor atom, score
      L1  H     9    34       P1  7948  0.82
      L1  H    12    35       P1  7948  0.74

> <Gold.Chemscore.Hbond.Weighted>
-6.0214

> <Gold.Chemscore.Metal.Weighted>
-0.0000

> <Gold.Chemscore.Lipo.Weighted>
-12.8624

> <Gold.Chemscore.Internal_Hbond.Weighted>
0.0000

> <Gold.Chemscore.DEClash.Weighted>
0.1652

> <Gold.Chemscore.DEInternal.Weighted>
3.7884

> <Gold.Chemscore.Rot.Weighted>
3.5897

> <Gold.Chemscore.Internal.Correction.Weighted>
   9.000000E+99

> <Gold.Protein.RotatedTorsions>
[ 6907 6896 6895 6894 ] final   13.67 input  -60.11 | X-H torsion
[ 7974 7965 7964 7962 ] final -163.63 input  175.53 | X-H torsion
[ 8008 7997 7996 7995 ] final -153.06 input   59.86 | X-H torsion
[ 10167 10162 10161 10158 ] final  103.06 input  -65.29 | X-H torsion
[ 10718 10713 10712 10709 ] final   77.95 input   66.30 | X-H torsion
[ 10763 10752 10751 10750 ] final   86.77 input  -60.55 | X-H torsion
[ 11005 11000 10999 10996 ] final -123.73 input  -57.11 | X-H torsion

> <Gold.Protein.ActiveResidues>
 VAL166  LYS551  ARG553  GLY616  TRP617  ASP618  TYR619  PRO620  LYS621  CYS622 
 ASP623  PHE694  ASN695  SER759  ASP760  ASP761  ALA762  ILE779  LEU786  VAL792 
 PHE793  MET794  SER795  GLU796  ALA797  LYS798  CYS799  TRP800  GLU811  SER814 

> <Gold.Protein.RotatedAtoms>
  151.7900  135.0738  160.0385 H   0  0  0  0  0  0  0  0  0  0  0  0  # atno 6907 bound_to 6896
  152.3163  133.5801  159.5722 H   0  0  0  0  0  0  0  0  0  0  0  0  # atno 6908 bound_to 6896
  150.7346  133.9994  159.3675 H   0  0  0  0  0  0  0  0  0  0  0  0  # atno 6909 bound_to 6896
  144.7320  140.3079  143.6193 H   0  0  0  0  0  0  0  0  0  0  0  0  # atno 7974 bound_to 7965
  155.6649  140.0726  157.2541 H   0  0  0  0  0  0  0  0  0  0  0  0  # atno 8008 bound_to 7997
  154.4135  140.1709  156.1867 H   0  0  0  0  0  0  0  0  0  0  0  0  # atno 8009 bound_to 7997
  155.9666  140.3365  155.6541 H   0  0  0  0  0  0  0  0  0  0  0  0  # atno 8010 bound_to 7997
  139.7296  144.7039  151.0743 H   0  0  0  0  0  0  0  0  0  0  0  0  # atno 10167 bound_to 10162
  157.6728  130.9845  150.1715 H   0  0  0  0  0  0  0  0  0  0  0  0  # atno 10718 bound_to 10713
  153.1603  135.4568  154.9762 H   0  0  0  0  0  0  0  0  0  0  0  0  # atno 10763 bound_to 10752
  154.7892  135.3215  154.7818 H   0  0  0  0  0  0  0  0  0  0  0  0  # atno 10764 bound_to 10752
  153.8309  135.6938  153.4869 H   0  0  0  0  0  0  0  0  0  0  0  0  # atno 10765 bound_to 10752
  140.9896  134.0558  157.3670 H   0  0  0  0  0  0  0  0  0  0  0  0  # atno 11005 bound_to 11000
  145.7694  139.1852  143.2221 LP  0  0  0  0  0  0  0  0  0  0  0  0  # atno 17320 bound_to 7965
  146.0922  140.7642  142.9589 LP  0  0  0  0  0  0  0  0  0  0  0  0  # atno 17321 bound_to 7965
  140.7769  143.5061  150.9711 LP  0  0  0  0  0  0  0  0  0  0  0  0  # atno 17342 bound_to 10162
  139.8749  143.7146  152.3163 LP  0  0  0  0  0  0  0  0  0  0  0  0  # atno 17343 bound_to 10162
  156.2468  130.3696  149.8276 LP  0  0  0  0  0  0  0  0  0  0  0  0  # atno 17370 bound_to 10713
  156.6060  130.8567  151.3443 LP  0  0  0  0  0  0  0  0  0  0  0  0  # atno 17371 bound_to 10713
  139.8986  135.0155  156.7156 LP  0  0  0  0  0  0  0  0  0  0  0  0  # atno 17394 bound_to 11000
  140.7061  133.9264  155.8054 LP  0  0  0  0  0  0  0  0  0  0  0  0  # atno 17395 bound_to 11000

$$$$
