AV-unprocessed.smi:2986|AV-procd|sdf|11384|dock4
  -GOLD-   2272016303D 1   1.00000     0.00000
 Structure written by MMmdl.
 42 44  0  0  0  0  0  0  0  0  3 V2000
  148.0030  141.0925  153.8862 C   0  0  0  0  0  0  0  0  0  0  0  0
  149.3448  141.4413  154.1770 O   0  0  0  0  0  0  0  0  0  0  0  0
  149.7240  141.0912  155.4984 C   0  0  0  0  0  0  0  0  0  0  0  0
  151.0680  141.7457  155.8483 C   0  0  0  0  0  0  0  0  0  0  0  0
  151.4905  141.4485  157.2249 N   0  0  0  0  0  0  0  0  0  0  0  0
  151.6797  140.2510  157.8460 C   0  0  0  0  0  0  0  0  0  0  0  0
  151.4554  138.6563  157.1284 S   0  0  0  0  0  0  0  0  0  0  0  0
  151.2926  137.5174  158.5307 C   0  0  0  0  0  0  0  0  0  0  0  0
  149.8455  137.3845  159.0064 C   0  0  0  0  0  0  0  0  0  0  0  0
  149.0733  138.3300  158.8412 O   0  0  0  0  0  0  0  0  0  0  0  0
  149.6060  136.1770  159.5729 N   0  5  0  0  0  0  0  0  0  0  0  0
  148.5598  136.0251  160.3983 C   0  0  0  0  0  0  0  0  0  0  0  0
  148.0862  134.7943  160.9297 C   0  0  0  0  0  0  0  0  0  0  0  0
  147.0153  135.1735  161.6884 C   0  0  0  0  0  0  0  0  0  0  0  0
  146.0527  134.4143  162.5354 C   0  0  0  0  0  0  0  0  0  0  0  0
  146.8412  136.5207  161.6193 O   0  0  0  0  0  0  0  0  0  0  0  0
  147.8299  137.0576  160.7862 N   0  0  0  0  0  0  0  0  0  0  0  0
  152.0680  140.5057  159.1259 N   0  3  0  0  0  0  0  0  0  0  0  0
  152.1214  141.8851  159.3312 C   0  0  0  0  0  0  0  0  0  0  0  0
  152.4564  142.6245  160.4613 C   0  0  0  0  0  0  0  0  0  0  0  0
  152.4023  144.0285  160.3380 C   0  0  0  0  0  0  0  0  0  0  0  0
  152.0271  144.6452  159.1268 C   0  0  0  0  0  0  0  0  0  0  0  0
  151.6922  143.8855  157.9867 C   0  0  0  0  0  0  0  0  0  0  0  0
  151.7490  142.4977  158.1156 C   0  0  0  0  0  0  0  0  0  0  0  0
  147.7643  141.3790  152.8621 H   0  0  0  0  0  0  0  0  0  0  0  0
  147.3090  141.6091  154.5506 H   0  0  0  0  0  0  0  0  0  0  0  0
  147.8450  140.0174  153.9811 H   0  0  0  0  0  0  0  0  0  0  0  0
  148.9588  141.4170  156.2050 H   0  0  0  0  0  0  0  0  0  0  0  0
  149.8082  140.0071  155.5866 H   0  0  0  0  0  0  0  0  0  0  0  0
  151.8458  141.3802  155.1774 H   0  0  0  0  0  0  0  0  0  0  0  0
  151.0271  142.8257  155.7085 H   0  0  0  0  0  0  0  0  0  0  0  0
  151.7139  136.5494  158.2529 H   0  0  0  0  0  0  0  0  0  0  0  0
  151.8956  137.8945  159.3570 H   0  0  0  0  0  0  0  0  0  0  0  0
  148.4731  133.7972  160.7821 H   0  0  0  0  0  0  0  0  0  0  0  0
  146.0836  133.3502  162.3000 H   0  0  0  0  0  0  0  0  0  0  0  0
  145.0335  134.7659  162.3751 H   0  0  0  0  0  0  0  0  0  0  0  0
  146.2915  134.5348  163.5921 H   0  0  0  0  0  0  0  0  0  0  0  0
  152.7417  142.1537  161.3907 H   0  0  0  0  0  0  0  0  0  0  0  0
  152.6516  144.6449  161.1897 H   0  0  0  0  0  0  0  0  0  0  0  0
  151.9937  145.7238  159.0704 H   0  0  0  0  0  0  0  0  0  0  0  0
  151.4003  144.3693  157.0661 H   0  0  0  0  0  0  0  0  0  0  0  0
  152.2774  139.7858  159.8054 H   0  0  0  0  0  0  0  0  0  0  0  0
  1  2  1  0  0  0  0
  1 25  1  0  0  0  0
  1 26  1  0  0  0  0
  1 27  1  0  0  0  0
  2  3  1  0  0  0  0
  3  4  1  0  0  0  0
  3 28  1  0  0  0  0
  3 29  1  0  0  0  0
  4  5  1  0  0  0  0
  4 30  1  0  0  0  0
  4 31  1  0  0  0  0
  5 24  1  0  0  0  0
  5  6  1  0  0  0  0
  6  7  1  0  0  0  0
  6 18  2  0  0  0  0
  7  8  1  0  0  0  0
  8  9  1  0  0  0  0
  8 32  1  0  0  0  0
  8 33  1  0  0  0  0
  9 10  2  0  0  0  0
  9 11  1  0  0  0  0
 11 12  1  0  0  0  0
 12 17  2  0  0  0  0
 12 13  1  0  0  0  0
 13 14  2  0  0  0  0
 13 34  1  0  0  0  0
 14 15  1  0  0  0  0
 14 16  1  0  0  0  0
 15 35  1  0  0  0  0
 15 36  1  0  0  0  0
 15 37  1  0  0  0  0
 16 17  1  0  0  0  0
 18 19  1  0  0  0  0
 18 42  1  0  0  0  0
 19 24  2  0  0  0  0
 19 20  1  0  0  0  0
 20 21  2  0  0  0  0
 20 38  1  0  0  0  0
 21 22  1  0  0  0  0
 21 39  1  0  0  0  0
 22 23  2  0  0  0  0
 22 40  1  0  0  0  0
 23 24  1  0  0  0  0
 23 41  1  0  0  0  0
M  CHG  1  11  -1
M  CHG  1  18   1
M  END
> <s_m_source_file>
AV-unprocessed.smi

> <i_m_source_file_index>
2986

> <i_lp_mmshare_version>
43012

> <i_f3d_flags>
0

> <s_epik_input>
W2NIXTFbY0hdW2NIXVtjSF1jKGMxMiluKFtDSDJdW0NIMl1PW0NIM10pYyhuMilTW0NIMl1DKD1PKVtOSF1jM1tjSF1jKFtDSDNdKW9uMw==

> <s_epik_cmdline>
J2VwaWtfcHl0aG9uJywgJy1waCcsICc3LjAnLCAnLXRuJywgJzgnLCAnLW1hJywgJzIwMCcsICctbWV0YWxfYmluZGluZycsICctaW1hZScsICc8aW5maWxlLm1hZT4nLCAnLW9tYWUnLCAnPG91dGZpbGUubWFlPic=

> <r_epik_Ionization_Penalty>
5.85337

> <r_epik_Ionization_Penalty_Charging>
5.85335

> <r_epik_Ionization_Penalty_Neutral>
1.96301e-05

> <r_epik_State_Penalty>
6.06575

> <r_epik_Charging_Adjusted_Penalty>
11.9191

> <i_epik_Tot_Q>
0

> <i_epik_Tot_abs_Q>
2

> <r_epik_Metal_State_Penalty>
2.64129

> <b_epik_Metal_Only>
1

> <s_lp_Force_Field>
OPLS_2005

> <r_lp_Energy>
5.16942

> <b_lp_Chiralities_Consistent>
1

> <s_lp_Variant>
AV-unprocessed.smi:2986-4

> <Gold.Version>
5.8.1

> <Gold.Id.Protein>
6NUR|6NUR_protein|mol2

> <Gold.PLP.Fitness>
61.1879

> <Gold.PLP.PLP>
-50.5255

> <Gold.PLP.part.hbond>
-5.9086

> <Gold.PLP.part.metal>
0.0000

> <Gold.PLP.part.buried>
-7.2614

> <Gold.PLP.part.nonpolar>
-37.8490

> <Gold.PLP.part.repulsive>
0.3349

> <Gold.PLP.ligand.clash>
0.0000

> <Gold.PLP.ligand.torsion>
0.9526

> <Gold.PLP.Chemscore.Hbond>
4.0920

> <Gold.PLP.Chemscore.CHOScore>
0.0000

> <Gold.PLP.Chemscore.Metal>
0.0000

> <Gold.Chemscore.Hbonds>
donor molecule, donor type, donor heavy atom, donor atom, acceptor molecule, acceptor atom, score
      P1  H  6896  6908       L1    11  2.00
      P1  H  6931  6943       L1    17  0.90
      P1  H  6934  6947       L1    17  0.62
      P1  H  8011  8017       L1     2  0.44

> <Gold.PLP.Chemscore.Internal.Correction>
0.2915

> <Gold.Rescore>
     Score         DG    S(hbond)    S(metal)    S(lipo)     H(rot)  DE(clash)    DE(int)     intcor
     16.76     -19.78       1.93        0.00     117.00       2.27       0.46       2.56       ----

> <Gold.Chemscore.Fitness>
16.7567

> <Gold.Chemscore.DG>
-19.7802

> <Gold.Chemscore.ZeroCoef>
-5.4800

> <Gold.Chemscore.Hbond>
1.9258

> <Gold.Chemscore.Metal>
0.0000

> <Gold.Chemscore.Lipo>
116.9987

> <Gold.Chemscore.Internal_Hbond>
0.0000

> <Gold.Chemscore.DEClash>
0.4619

> <Gold.Chemscore.DEInternal>
2.5617

> <Gold.Chemscore.Rot>
2.2738

> <Gold.Chemscore.Internal.Correction>
   9.000000E+99

> <Gold.Chemscore.Hbonds>
donor molecule, donor type, donor heavy atom, donor atom, acceptor molecule, acceptor atom, score
      P1  H  6896  6908       L1    11  0.85
      P1  H  6931  6943       L1    17  0.35
      P1  H  6934  6947       L1    17  0.09
      P1  H  8011  8017       L1     2  0.09

> <Gold.Chemscore.Hbond.Weighted>
-6.4322

> <Gold.Chemscore.Metal.Weighted>
-0.0000

> <Gold.Chemscore.Lipo.Weighted>
-13.6888

> <Gold.Chemscore.Internal_Hbond.Weighted>
0.0000

> <Gold.Chemscore.DEClash.Weighted>
0.4619

> <Gold.Chemscore.DEInternal.Weighted>
2.5617

> <Gold.Chemscore.Rot.Weighted>
5.8209

> <Gold.Chemscore.Internal.Correction.Weighted>
   9.000000E+99

> <Gold.Protein.RotatedTorsions>
[ 6907 6896 6895 6894 ] final -174.01 input  -60.11 | X-H torsion
[ 7974 7965 7964 7962 ] final  128.68 input  175.53 | X-H torsion
[ 8008 7997 7996 7995 ] final  -65.58 input   59.86 | X-H torsion
[ 10167 10162 10161 10158 ] final -109.07 input  -65.29 | X-H torsion
[ 10718 10713 10712 10709 ] final -159.88 input   66.30 | X-H torsion
[ 10763 10752 10751 10750 ] final  -79.18 input  -60.55 | X-H torsion
[ 11005 11000 10999 10996 ] final -145.34 input  -57.11 | X-H torsion

> <Gold.Protein.ActiveResidues>
 VAL166  LYS551  ARG553  GLY616  TRP617  ASP618  TYR619  PRO620  LYS621  CYS622 
 ASP623  PHE694  ASN695  SER759  ASP760  ASP761  ALA762  ILE779  LEU786  VAL792 
 PHE793  MET794  SER795  GLU796  ALA797  LYS798  CYS799  TRP800  GLU811  SER814 

> <Gold.Protein.RotatedAtoms>
  151.5655  133.3397  159.2979 H   0  0  0  0  0  0  0  0  0  0  0  0  # atno 6907 bound_to 6896
  150.8398  134.7688  159.6934 H   0  0  0  0  0  0  0  0  0  0  0  0  # atno 6908 bound_to 6896
  152.4467  134.5486  159.9912 H   0  0  0  0  0  0  0  0  0  0  0  0  # atno 6909 bound_to 6896
  145.0368  139.3997  143.5122 H   0  0  0  0  0  0  0  0  0  0  0  0  # atno 7974 bound_to 7965
  154.4680  140.0930  156.7072 H   0  0  0  0  0  0  0  0  0  0  0  0  # atno 8008 bound_to 7997
  155.4802  140.3467  155.4320 H   0  0  0  0  0  0  0  0  0  0  0  0  # atno 8009 bound_to 7997
  156.0991  140.1417  156.9480 H   0  0  0  0  0  0  0  0  0  0  0  0  # atno 8010 bound_to 7997
  140.1593  143.4134  152.1438 H   0  0  0  0  0  0  0  0  0  0  0  0  # atno 10167 bound_to 10162
  156.5743  130.8702  151.2846 H   0  0  0  0  0  0  0  0  0  0  0  0  # atno 10718 bound_to 10713
  154.5353  135.5704  153.6793 H   0  0  0  0  0  0  0  0  0  0  0  0  # atno 10763 bound_to 10752
  152.9949  135.6215  154.2574 H   0  0  0  0  0  0  0  0  0  0  0  0  # atno 10764 bound_to 10752
  154.2502  135.2859  155.2799 H   0  0  0  0  0  0  0  0  0  0  0  0  # atno 10765 bound_to 10752
  140.7933  134.2943  157.5005 H   0  0  0  0  0  0  0  0  0  0  0  0  # atno 11005 bound_to 11000
  146.3505  139.9948  142.8682 LP  0  0  0  0  0  0  0  0  0  0  0  0  # atno 17320 bound_to 7965
  145.1698  140.9715  143.4328 LP  0  0  0  0  0  0  0  0  0  0  0  0  # atno 17321 bound_to 7965
  139.5389  144.7237  151.4801 LP  0  0  0  0  0  0  0  0  0  0  0  0  # atno 17342 bound_to 10162
  140.6653  143.8411  150.6935 LP  0  0  0  0  0  0  0  0  0  0  0  0  # atno 17343 bound_to 10162
  157.7341  130.9741  150.2012 LP  0  0  0  0  0  0  0  0  0  0  0  0  # atno 17370 bound_to 10713
  156.2687  130.3719  149.8054 LP  0  0  0  0  0  0  0  0  0  0  0  0  # atno 17371 bound_to 10713
  139.8729  134.9387  156.3722 LP  0  0  0  0  0  0  0  0  0  0  0  0  # atno 17394 bound_to 11000
  140.9368  133.7542  156.0095 LP  0  0  0  0  0  0  0  0  0  0  0  0  # atno 17395 bound_to 11000

$$$$
