AV-unprocessed.smi:3043|AV-procd|sdf|11603|dock1
  -GOLD-   2272016583D 1   1.00000     0.00000
 Structure written by MMmdl.
 44 45  0  0  0  0  0  0  0  0  2 V2000
  153.6341  141.7880  161.2787 C   0  0  0  0  0  0  0  0  0  0  0  0
  152.6970  142.9844  161.0981 C   0  0  0  0  0  0  0  0  0  0  0  0
  152.3857  143.6305  162.0984 O   0  0  0  0  0  0  0  0  0  0  0  0
  152.2480  143.2943  159.8578 N   0  0  0  0  0  0  0  0  0  0  0  0
  152.5663  142.4864  158.6745 C   0  0  0  0  0  0  0  0  0  0  0  0
  151.2871  141.7744  158.1989 C   0  0  0  0  0  0  0  0  0  0  0  0
  150.1552  142.7844  157.9061 C   0  0  0  0  0  0  0  0  0  0  0  0
  148.8535  142.0621  157.5141 C   0  0  0  0  0  0  0  0  0  0  0  0
  148.5493  142.2375  156.0774 N   0  3  0  0  0  0  0  0  0  0  0  0
  149.2142  141.2814  155.1641 C   0  0  2  0  0  0  0  0  0  0  0  0
  148.6636  141.4160  153.7307 C   0  0  0  0  0  0  0  0  0  0  0  0
  149.0598  139.8542  155.7291 C   0  0  0  0  0  0  0  0  0  0  0  0
  150.0812  138.9395  155.2505 N   0  0  0  0  0  0  0  0  0  0  0  0
  150.8457  139.0320  154.1064 C   0  0  0  0  0  0  0  0  0  0  0  0
  151.6669  137.9415  154.0778 C   0  0  0  0  0  0  0  0  0  0  0  0
  151.3298  137.2326  155.2648 C   0  0  0  0  0  0  0  0  0  0  0  0
  150.3814  137.8337  155.9652 N   0  0  0  0  0  0  0  0  0  0  0  0
  149.9621  143.7393  159.1081 C   0  0  0  0  0  0  0  0  0  0  0  0
  151.2986  144.3684  159.5410 C   0  0  0  0  0  0  0  0  0  0  0  0
  154.5382  141.9093  160.6815 H   0  0  0  0  0  0  0  0  0  0  0  0
  153.1381  140.8608  160.9902 H   0  0  0  0  0  0  0  0  0  0  0  0
  153.9367  141.6927  162.3219 H   0  0  0  0  0  0  0  0  0  0  0  0
  152.9518  143.1351  157.8865 H   0  0  0  0  0  0  0  0  0  0  0  0
  153.3502  141.7514  158.8622 H   0  0  0  0  0  0  0  0  0  0  0  0
  151.5056  141.1866  157.3067 H   0  0  0  0  0  0  0  0  0  0  0  0
  150.9634  141.0659  158.9631 H   0  0  0  0  0  0  0  0  0  0  0  0
  150.4756  143.3847  157.0525 H   0  0  0  0  0  0  0  0  0  0  0  0
  148.9521  140.9987  157.7314 H   0  0  0  0  0  0  0  0  0  0  0  0
  148.0213  142.4328  158.1145 H   0  0  0  0  0  0  0  0  0  0  0  0
  147.5520  142.1196  155.9698 H   0  0  0  0  0  0  0  0  0  0  0  0
  150.2799  141.5153  155.1487 H   0  0  0  0  0  0  0  0  0  0  0  0
  149.1825  140.7520  153.0390 H   0  0  0  0  0  0  0  0  0  0  0  0
  148.7839  142.4261  153.3409 H   0  0  0  0  0  0  0  0  0  0  0  0
  147.6022  141.1691  153.6916 H   0  0  0  0  0  0  0  0  0  0  0  0
  149.1124  139.8741  156.8186 H   0  0  0  0  0  0  0  0  0  0  0  0
  148.0782  139.4499  155.4748 H   0  0  0  0  0  0  0  0  0  0  0  0
  150.7419  139.8553  153.4149 H   0  0  0  0  0  0  0  0  0  0  0  0
  152.3985  137.6886  153.3245 H   0  0  0  0  0  0  0  0  0  0  0  0
  151.7431  136.3062  155.6357 H   0  0  0  0  0  0  0  0  0  0  0  0
  149.2547  144.5295  158.8556 H   0  0  0  0  0  0  0  0  0  0  0  0
  149.5307  143.1951  159.9498 H   0  0  0  0  0  0  0  0  0  0  0  0
  151.1315  145.0610  160.3646 H   0  0  0  0  0  0  0  0  0  0  0  0
  151.7041  144.9759  158.7306 H   0  0  0  0  0  0  0  0  0  0  0  0
  148.7917  143.1770  155.7966 H   0  0  0  0  0  0  0  0  0  0  0  0
  1  2  1  0  0  0  0
  1 20  1  0  0  0  0
  1 21  1  0  0  0  0
  1 22  1  0  0  0  0
  2  3  2  0  0  0  0
  2  4  1  0  0  0  0
  4 19  1  0  0  0  0
  4  5  1  0  0  0  0
  5  6  1  0  0  0  0
  5 23  1  0  0  0  0
  5 24  1  0  0  0  0
  6  7  1  0  0  0  0
  6 25  1  0  0  0  0
  6 26  1  0  0  0  0
  7  8  1  0  0  0  0
  7 18  1  0  0  0  0
  7 27  1  0  0  0  0
  8  9  1  0  0  0  0
  8 28  1  0  0  0  0
  8 29  1  0  0  0  0
  9 10  1  0  0  0  0
  9 30  1  0  0  0  0
  9 44  1  0  0  0  0
 10 11  1  0  0  0  0
 10 12  1  0  0  0  0
 10 31  1  0  0  0  0
 11 32  1  0  0  0  0
 11 33  1  0  0  0  0
 11 34  1  0  0  0  0
 12 13  1  0  0  0  0
 12 35  1  0  0  0  0
 12 36  1  0  0  0  0
 13 17  1  0  0  0  0
 13 14  1  0  0  0  0
 14 15  2  0  0  0  0
 14 37  1  0  0  0  0
 15 16  1  0  0  0  0
 15 38  1  0  0  0  0
 16 17  2  0  0  0  0
 16 39  1  0  0  0  0
 18 19  1  0  0  0  0
 18 40  1  0  0  0  0
 18 41  1  0  0  0  0
 19 42  1  0  0  0  0
 19 43  1  0  0  0  0
M  CHG  1   9   1
M  END
> <s_m_source_file>
AV-unprocessed.smi

> <i_m_source_file_index>
3043

> <i_lp_mmshare_version>
43012

> <i_f3d_flags>
0

> <s_epik_input>
W0NIM11DKD1PKU4xW0NIMl1bQ0gyXVtDSF0oW0NIMl1bQ0gyXTEpW0NIMl1bTkhdW0NASF0oW0NIM10pW0NIMl1uMltjSF1bY0hdW2NIXW4y

> <s_epik_cmdline>
J2VwaWtfcHl0aG9uJywgJy1waCcsICc3LjAnLCAnLXRuJywgJzgnLCAnLW1hJywgJzIwMCcsICctbWV0YWxfYmluZGluZycsICctaW1hZScsICc8aW5maWxlLm1hZT4nLCAnLW9tYWUnLCAnPG91dGZpbGUubWFlPic=

> <r_lp_tautomer_probability>
1

> <r_epik_Ionization_Penalty>
0.00300549

> <r_epik_Ionization_Penalty_Charging>
0.00299781

> <r_epik_Ionization_Penalty_Neutral>
7.6831e-06

> <r_epik_State_Penalty>
0.00210473

> <r_epik_Charging_Adjusted_Penalty>
0.00510254

> <i_epik_Tot_Q>
1

> <i_epik_Tot_abs_Q>
1

> <r_epik_Metal_State_Penalty>
-0

> <b_epik_Metal_Only>
0

> <s_lp_Force_Field>
OPLS_2005

> <r_lp_Energy>
29.3743

> <b_lp_Chiralities_Consistent>
1

> <s_lp_Variant>
AV-unprocessed.smi:3043-1

> <Gold.Version>
5.8.1

> <Gold.Id.Protein>
6NUR|6NUR_protein|mol2

> <Gold.PLP.Fitness>
45.2261

> <Gold.PLP.PLP>
-39.0864

> <Gold.PLP.part.hbond>
-1.0000

> <Gold.PLP.part.metal>
0.0000

> <Gold.PLP.part.buried>
-4.1870

> <Gold.PLP.part.nonpolar>
-33.3071

> <Gold.PLP.part.repulsive>
0.2098

> <Gold.PLP.ligand.clash>
0.0000

> <Gold.PLP.ligand.torsion>
1.4520

> <Gold.PLP.Chemscore.Hbond>
2.0000

> <Gold.PLP.Chemscore.CHOScore>
1.0000

> <Gold.PLP.Chemscore.Metal>
0.0000

> <Gold.Chemscore.Hbonds>
donor molecule, donor type, donor heavy atom, donor atom, acceptor molecule, acceptor atom, score
      L1  H     9    44       P1  8028  2.00
      L1  C    14    37       P1  7957  1.00

> <Gold.PLP.Chemscore.Internal.Correction>
0.0439

> <Gold.Rescore>
     Score         DG    S(hbond)    S(metal)    S(lipo)     H(rot)  DE(clash)    DE(int)     intcor
     13.19     -14.87       0.92        0.00      92.15       1.74       0.54       1.14       ----

> <Gold.Chemscore.Fitness>
13.1936

> <Gold.Chemscore.DG>
-14.8714

> <Gold.Chemscore.ZeroCoef>
-5.4800

> <Gold.Chemscore.Hbond>
0.9191

> <Gold.Chemscore.Metal>
0.0000

> <Gold.Chemscore.Lipo>
92.1502

> <Gold.Chemscore.Internal_Hbond>
0.0000

> <Gold.Chemscore.DEClash>
0.5389

> <Gold.Chemscore.DEInternal>
1.1389

> <Gold.Chemscore.Rot>
1.7422

> <Gold.Chemscore.Internal.Correction>
   9.000000E+99

> <Gold.Chemscore.Hbonds>
donor molecule, donor type, donor heavy atom, donor atom, acceptor molecule, acceptor atom, score
      L1  H     9    44       P1  8028  0.94

> <Gold.Chemscore.Hbond.Weighted>
-3.0698

> <Gold.Chemscore.Metal.Weighted>
-0.0000

> <Gold.Chemscore.Lipo.Weighted>
-10.7816

> <Gold.Chemscore.Internal_Hbond.Weighted>
0.0000

> <Gold.Chemscore.DEClash.Weighted>
0.5389

> <Gold.Chemscore.DEInternal.Weighted>
1.1389

> <Gold.Chemscore.Rot.Weighted>
4.4600

> <Gold.Chemscore.Internal.Correction.Weighted>
   9.000000E+99

> <Gold.Protein.RotatedTorsions>
[ 6907 6896 6895 6894 ] final   89.98 input  -60.11 | X-H torsion
[ 7974 7965 7964 7962 ] final   76.61 input  175.53 | X-H torsion
[ 8008 7997 7996 7995 ] final   -5.81 input   59.86 | X-H torsion
[ 10167 10162 10161 10158 ] final  -28.34 input  -65.29 | X-H torsion
[ 10718 10713 10712 10709 ] final -105.02 input   66.30 | X-H torsion
[ 10763 10752 10751 10750 ] final  155.52 input  -60.55 | X-H torsion
[ 11005 11000 10999 10996 ] final  -46.87 input  -57.11 | X-H torsion

> <Gold.Protein.ActiveResidues>
 VAL166  LYS551  ARG553  GLY616  TRP617  ASP618  TYR619  PRO620  LYS621  CYS622 
 ASP623  PHE694  ASN695  SER759  ASP760  ASP761  ALA762  ILE779  LEU786  VAL792 
 PHE793  MET794  SER795  GLU796  ALA797  LYS798  CYS799  TRP800  GLU811  SER814 

> <Gold.Protein.RotatedAtoms>
  152.5441  134.1883  159.8663 H   0  0  0  0  0  0  0  0  0  0  0  0  # atno 6907 bound_to 6896
  151.1880  133.4677  159.2602 H   0  0  0  0  0  0  0  0  0  0  0  0  # atno 6908 bound_to 6896
  151.1111  135.0039  159.8550 H   0  0  0  0  0  0  0  0  0  0  0  0  # atno 6909 bound_to 6896
  145.7007  139.2581  143.1707 H   0  0  0  0  0  0  0  0  0  0  0  0  # atno 7974 bound_to 7965
  154.6001  140.2449  155.7803 H   0  0  0  0  0  0  0  0  0  0  0  0  # atno 8008 bound_to 7997
  156.2305  140.2968  156.0129 H   0  0  0  0  0  0  0  0  0  0  0  0  # atno 8009 bound_to 7997
  155.2225  140.0401  157.2941 H   0  0  0  0  0  0  0  0  0  0  0  0  # atno 8010 bound_to 7997
  140.7270  143.4018  151.1252 H   0  0  0  0  0  0  0  0  0  0  0  0  # atno 10167 bound_to 10162
  156.0328  130.5543  150.7479 H   0  0  0  0  0  0  0  0  0  0  0  0  # atno 10718 bound_to 10713
  154.1696  135.2805  155.3085 H   0  0  0  0  0  0  0  0  0  0  0  0  # atno 10763 bound_to 10752
  154.6085  135.5506  153.7451 H   0  0  0  0  0  0  0  0  0  0  0  0  # atno 10764 bound_to 10752
  153.0168  135.6409  154.1837 H   0  0  0  0  0  0  0  0  0  0  0  0  # atno 10765 bound_to 10752
  141.0605  133.6710  156.3216 H   0  0  0  0  0  0  0  0  0  0  0  0  # atno 11005 bound_to 11000
  146.0801  140.7774  142.9646 LP  0  0  0  0  0  0  0  0  0  0  0  0  # atno 17320 bound_to 7965
  144.6969  140.3475  143.7188 LP  0  0  0  0  0  0  0  0  0  0  0  0  # atno 17321 bound_to 7965
  139.7639  143.8594  152.3106 LP  0  0  0  0  0  0  0  0  0  0  0  0  # atno 17342 bound_to 10162
  139.8490  144.7174  150.9238 LP  0  0  0  0  0  0  0  0  0  0  0  0  # atno 17343 bound_to 10162
  157.5031  131.0920  151.0290 LP  0  0  0  0  0  0  0  0  0  0  0  0  # atno 17370 bound_to 10713
  157.0665  130.5847  149.5395 LP  0  0  0  0  0  0  0  0  0  0  0  0  # atno 17371 bound_to 10713
  140.5877  134.5681  157.5493 LP  0  0  0  0  0  0  0  0  0  0  0  0  # atno 17394 bound_to 11000
  139.9429  134.7755  156.0634 LP  0  0  0  0  0  0  0  0  0  0  0  0  # atno 17395 bound_to 11000

$$$$
