AV-unprocessed.smi:625|AV-procd|sdf|3104|dock2
  -GOLD-   22720 0 23D 1   1.00000     0.00000
 Structure written by MMmdl.
 49 51  0  0  0  0  0  0  0  0  1 V2000
  148.5892  133.3823  154.9546 C   0  0  0  0  0  0  0  0  0  0  0  0
  149.4742  134.5373  154.9565 N   0  0  0  0  0  0  0  0  0  0  0  0
  150.0163  135.0803  156.0605 C   0  0  0  0  0  0  0  0  0  0  0  0
  149.7958  134.6182  157.1809 O   0  0  0  0  0  0  0  0  0  0  0  0
  150.8688  136.2449  155.8043 C   0  0  0  0  0  0  0  0  0  0  0  0
  150.6944  136.9914  154.5731 C   0  0  0  0  0  0  0  0  0  0  0  0
  151.4741  138.0540  154.2937 C   0  0  0  0  0  0  0  0  0  0  0  0
  152.5235  138.5016  155.2129 C   0  0  0  0  0  0  0  0  0  0  0  0
  153.2548  139.4574  154.9541 O   0  0  0  0  0  0  0  0  0  0  0  0
  152.6448  137.7834  156.3710 N   0  0  0  0  0  0  0  0  0  0  0  0
  153.6728  138.1301  157.3703 C   0  0  0  0  0  0  0  0  0  0  0  0
  153.1419  138.8802  158.6045 C   0  0  0  0  0  0  0  0  0  0  0  0
  153.0533  138.2830  159.6763 O   0  0  0  0  0  0  0  0  0  0  0  0
  152.7891  140.1682  158.4552 N   0  0  0  0  0  0  0  0  0  0  0  0
  152.2140  141.0304  159.4835 C   0  0  1  0  0  0  0  0  0  0  0  0
  153.1624  141.0669  160.6955 C   0  0  0  0  0  0  0  0  0  0  0  0
  151.9562  142.4322  158.8773 C   0  0  1  0  0  0  0  0  0  0  0  0
  150.7181  143.1506  159.4733 C   0  0  0  0  0  0  0  0  0  0  0  0
  151.2778  144.5126  159.9186 C   0  0  2  0  0  0  0  0  0  0  0  0
  151.6410  145.3524  158.6807 C   0  0  0  0  0  0  0  0  0  0  0  0
  152.9039  144.6468  158.1532 C   0  0  0  0  0  0  0  0  0  0  0  0
  153.0748  143.4731  159.1370 C   0  0  1  0  0  0  0  0  0  0  0  0
  152.6482  144.1184  160.4518 C   0  0  0  0  0  0  0  0  0  0  0  0
  151.8303  136.6688  156.6539 C   0  0  0  0  0  0  0  0  0  0  0  0
  148.3056  133.1331  153.9321 H   0  0  0  0  0  0  0  0  0  0  0  0
  147.6799  133.5901  155.5196 H   0  0  0  0  0  0  0  0  0  0  0  0
  149.0817  132.5138  155.3931 H   0  0  0  0  0  0  0  0  0  0  0  0
  149.6889  134.9551  154.0628 H   0  0  0  0  0  0  0  0  0  0  0  0
  149.9333  136.7031  153.8621 H   0  0  0  0  0  0  0  0  0  0  0  0
  151.3229  138.5910  153.3688 H   0  0  0  0  0  0  0  0  0  0  0  0
  154.1914  137.2311  157.7083 H   0  0  0  0  0  0  0  0  0  0  0  0
  154.4501  138.7434  156.9125 H   0  0  0  0  0  0  0  0  0  0  0  0
  152.8988  140.5778  157.5388 H   0  0  0  0  0  0  0  0  0  0  0  0
  151.2592  140.6095  159.8032 H   0  0  0  0  0  0  0  0  0  0  0  0
  152.7435  141.6404  161.5212 H   0  0  0  0  0  0  0  0  0  0  0  0
  154.1233  141.5114  160.4343 H   0  0  0  0  0  0  0  0  0  0  0  0
  153.3549  140.0624  161.0739 H   0  0  0  0  0  0  0  0  0  0  0  0
  151.8177  142.3098  157.8016 H   0  0  0  0  0  0  0  0  0  0  0  0
  149.9074  143.2494  158.7505 H   0  0  0  0  0  0  0  0  0  0  0  0
  150.3211  142.6185  160.3392 H   0  0  0  0  0  0  0  0  0  0  0  0
  150.6388  145.0356  160.6308 H   0  0  0  0  0  0  0  0  0  0  0  0
  150.8357  145.3725  157.9454 H   0  0  0  0  0  0  0  0  0  0  0  0
  151.8663  146.3822  158.9605 H   0  0  0  0  0  0  0  0  0  0  0  0
  152.7973  144.3161  157.1194 H   0  0  0  0  0  0  0  0  0  0  0  0
  153.7632  145.3173  158.1997 H   0  0  0  0  0  0  0  0  0  0  0  0
  154.0861  143.0685  159.1361 H   0  0  0  0  0  0  0  0  0  0  0  0
  153.2643  144.9738  160.7348 H   0  0  0  0  0  0  0  0  0  0  0  0
  152.6035  143.4194  161.2884 H   0  0  0  0  0  0  0  0  0  0  0  0
  152.0609  136.1913  157.5956 H   0  0  0  0  0  0  0  0  0  0  0  0
  1  2  1  0  0  0  0
  1 25  1  0  0  0  0
  1 26  1  0  0  0  0
  1 27  1  0  0  0  0
  2  3  1  0  0  0  0
  2 28  1  0  0  0  0
  3  4  2  0  0  0  0
  3  5  1  0  0  0  0
  5 24  2  0  0  0  0
  5  6  1  0  0  0  0
  6  7  2  0  0  0  0
  6 29  1  0  0  0  0
  7  8  1  0  0  0  0
  7 30  1  0  0  0  0
  8  9  2  0  0  0  0
  8 10  1  0  0  0  0
 10 11  1  0  0  0  0
 10 24  1  0  0  0  0
 11 12  1  0  0  0  0
 11 31  1  0  0  0  0
 11 32  1  0  0  0  0
 12 13  2  0  0  0  0
 12 14  1  0  0  0  0
 14 15  1  0  0  0  0
 14 33  1  0  0  0  0
 15 16  1  0  0  0  0
 15 17  1  0  0  0  0
 15 34  1  0  0  0  0
 16 35  1  0  0  0  0
 16 36  1  0  0  0  0
 16 37  1  0  0  0  0
 17 22  1  0  0  0  0
 17 18  1  0  0  0  0
 17 38  1  0  0  0  0
 18 19  1  0  0  0  0
 18 39  1  0  0  0  0
 18 40  1  0  0  0  0
 19 23  1  0  0  0  0
 19 20  1  0  0  0  0
 19 41  1  0  0  0  0
 20 21  1  0  0  0  0
 20 42  1  0  0  0  0
 20 43  1  0  0  0  0
 21 22  1  0  0  0  0
 21 44  1  0  0  0  0
 21 45  1  0  0  0  0
 22 23  1  0  0  0  0
 22 46  1  0  0  0  0
 23 47  1  0  0  0  0
 23 48  1  0  0  0  0
 24 49  1  0  0  0  0
M  END
> <s_m_source_file>
AV-unprocessed.smi

> <i_m_source_file_index>
625

> <i_lp_mmshare_version>
43012

> <i_f3d_flags>
0

> <s_epik_input>
W0NIM11bTkhdQyg9TyljMVtjSF1bY0hdYyg9TyluKFtjSF0xKVtDSDJdQyg9TylbTkhdW0NASF0oW0NIM10pW0NASF0oW0NIMl1bQ0BIXTIzKVtDQEhdKFtDSDJdMylbQ0gyXVtDSDJdMg==

> <s_epik_cmdline>
J2VwaWtfcHl0aG9uJywgJy1waCcsICc3LjAnLCAnLXRuJywgJzgnLCAnLW1hJywgJzIwMCcsICctbWV0YWxfYmluZGluZycsICctaW1hZScsICc8aW5maWxlLm1hZT4nLCAnLW9tYWUnLCAnPG91dGZpbGUubWFlPic=

> <r_lp_tautomer_probability>
1

> <r_epik_Ionization_Penalty>
3.7129e-07

> <r_epik_Ionization_Penalty_Charging>
5.04114e-08

> <r_epik_Ionization_Penalty_Neutral>
3.20879e-07

> <r_epik_State_Penalty>
-0

> <r_epik_Charging_Adjusted_Penalty>
5.04114e-08

> <i_epik_Tot_Q>
0

> <i_epik_Tot_abs_Q>
0

> <r_epik_Metal_State_Penalty>
-0

> <b_epik_Metal_Only>
0

> <s_lp_Force_Field>
OPLS_2005

> <r_lp_Energy>
63.0032

> <b_lp_Chiralities_Consistent>
1

> <s_lp_Variant>
AV-unprocessed.smi:625-4

> <Gold.Version>
5.8.1

> <Gold.Id.Protein>
6NUR|6NUR_protein|mol2

> <Gold.PLP.Fitness>
45.2635

> <Gold.PLP.PLP>
-42.6576

> <Gold.PLP.part.hbond>
-2.7408

> <Gold.PLP.part.metal>
0.0000

> <Gold.PLP.part.buried>
-3.3850

> <Gold.PLP.part.nonpolar>
-37.3477

> <Gold.PLP.part.repulsive>
0.1407

> <Gold.PLP.ligand.clash>
0.0000

> <Gold.PLP.ligand.torsion>
1.5171

> <Gold.PLP.Chemscore.Hbond>
1.8160

> <Gold.PLP.Chemscore.CHOScore>
0.0000

> <Gold.PLP.Chemscore.Metal>
0.0000

> <Gold.Chemscore.Hbonds>
donor molecule, donor type, donor heavy atom, donor atom, acceptor molecule, acceptor atom, score
      P1  H  6896  6909       L1     4  0.10
      P1  H  7997  8009       L1     9  1.00

> <Gold.PLP.Chemscore.Internal.Correction>
0.1922

> <Gold.Rescore>
     Score         DG    S(hbond)    S(metal)    S(lipo)     H(rot)  DE(clash)    DE(int)     intcor
     19.63     -22.51       1.98        0.00     125.48       1.67       0.27       2.61       ----

> <Gold.Chemscore.Fitness>
19.6323

> <Gold.Chemscore.DG>
-22.5078

> <Gold.Chemscore.ZeroCoef>
-5.4800

> <Gold.Chemscore.Hbond>
1.9833

> <Gold.Chemscore.Metal>
0.0000

> <Gold.Chemscore.Lipo>
125.4795

> <Gold.Chemscore.Internal_Hbond>
0.0000

> <Gold.Chemscore.DEClash>
0.2666

> <Gold.Chemscore.DEInternal>
2.6089

> <Gold.Chemscore.Rot>
1.6709

> <Gold.Chemscore.Internal.Correction>
   9.000000E+99

> <Gold.Chemscore.Hbonds>
donor molecule, donor type, donor heavy atom, donor atom, acceptor molecule, acceptor atom, score
      P1  H  6896  6909       L1     4  0.12
      P1  H  7997  8009       L1     9  1.00

> <Gold.Chemscore.Hbond.Weighted>
-6.6241

> <Gold.Chemscore.Metal.Weighted>
-0.0000

> <Gold.Chemscore.Lipo.Weighted>
-14.6811

> <Gold.Chemscore.Internal_Hbond.Weighted>
0.0000

> <Gold.Chemscore.DEClash.Weighted>
0.2666

> <Gold.Chemscore.DEInternal.Weighted>
2.6089

> <Gold.Chemscore.Rot.Weighted>
4.2774

> <Gold.Chemscore.Internal.Correction.Weighted>
   9.000000E+99

> <Gold.Protein.RotatedTorsions>
[ 6907 6896 6895 6894 ] final   20.90 input  -60.11 | X-H torsion
[ 7974 7965 7964 7962 ] final -169.23 input  175.53 | X-H torsion
[ 8008 7997 7996 7995 ] final -141.91 input   59.86 | X-H torsion
[ 10167 10162 10161 10158 ] final   58.00 input  -65.29 | X-H torsion
[ 10718 10713 10712 10709 ] final   -8.98 input   66.30 | X-H torsion
[ 10763 10752 10751 10750 ] final  -98.05 input  -60.55 | X-H torsion
[ 11005 11000 10999 10996 ] final  106.11 input  -57.11 | X-H torsion

> <Gold.Protein.ActiveResidues>
 VAL166  LYS551  ARG553  GLY616  TRP617  ASP618  TYR619  PRO620  LYS621  CYS622 
 ASP623  PHE694  ASN695  SER759  ASP760  ASP761  ALA762  ILE779  LEU786  VAL792 
 PHE793  MET794  SER795  GLU796  ALA797  LYS798  CYS799  TRP800  GLU811  SER814 

> <Gold.Protein.RotatedAtoms>
  151.9035  135.0368  160.0508 H   0  0  0  0  0  0  0  0  0  0  0  0  # atno 6907 bound_to 6896
  152.2338  133.5075  159.5239 H   0  0  0  0  0  0  0  0  0  0  0  0  # atno 6908 bound_to 6896
  150.7033  134.1097  159.4038 H   0  0  0  0  0  0  0  0  0  0  0  0  # atno 6909 bound_to 6896
  144.7189  140.2252  143.6311 H   0  0  0  0  0  0  0  0  0  0  0  0  # atno 7974 bound_to 7965
  155.4855  140.0563  157.2961 H   0  0  0  0  0  0  0  0  0  0  0  0  # atno 8008 bound_to 7997
  154.4643  140.2011  156.0111 H   0  0  0  0  0  0  0  0  0  0  0  0  # atno 8009 bound_to 7997
  156.0947  140.3228  155.7866 H   0  0  0  0  0  0  0  0  0  0  0  0  # atno 8010 bound_to 7997
  140.1919  144.4077  150.6567 H   0  0  0  0  0  0  0  0  0  0  0  0  # atno 10167 bound_to 10162
  156.6947  130.5075  149.5934 H   0  0  0  0  0  0  0  0  0  0  0  0  # atno 10718 bound_to 10713
  154.7381  135.5023  153.9076 H   0  0  0  0  0  0  0  0  0  0  0  0  # atno 10763 bound_to 10752
  153.1015  135.6686  153.9671 H   0  0  0  0  0  0  0  0  0  0  0  0  # atno 10764 bound_to 10752
  153.9456  135.3063  155.3420 H   0  0  0  0  0  0  0  0  0  0  0  0  # atno 10765 bound_to 10752
  139.8810  134.9358  156.5616 H   0  0  0  0  0  0  0  0  0  0  0  0  # atno 11005 bound_to 11000
  145.8463  139.2154  143.1798 LP  0  0  0  0  0  0  0  0  0  0  0  0  # atno 17320 bound_to 7965
  146.0301  140.8266  142.9880 LP  0  0  0  0  0  0  0  0  0  0  0  0  # atno 17321 bound_to 7965
  140.6450  143.2211  151.6206 LP  0  0  0  0  0  0  0  0  0  0  0  0  # atno 17342 bound_to 10162
  139.5252  144.3080  152.1017 LP  0  0  0  0  0  0  0  0  0  0  0  0  # atno 17343 bound_to 10162
  156.1772  130.6475  151.0908 LP  0  0  0  0  0  0  0  0  0  0  0  0  # atno 17370 bound_to 10713
  157.6996  131.0781  150.6863 LP  0  0  0  0  0  0  0  0  0  0  0  0  # atno 17371 bound_to 10713
  140.8165  133.8387  155.8857 LP  0  0  0  0  0  0  0  0  0  0  0  0  # atno 17394 bound_to 11000
  140.9458  134.1842  157.4764 LP  0  0  0  0  0  0  0  0  0  0  0  0  # atno 17395 bound_to 11000

$$$$
