AV-unprocessed.smi:1830|AV-procd|sdf|7444|dock9
  -GOLD-   22720 9133D 1   1.00000     0.00000
 Structure written by MMmdl.
 54 57  0  0  0  0  0  0  0  0  3 V2000
  145.9151  137.3130  154.3168 O   0  0  0  0  0  0  0  0  0  0  0  0
  145.1796  138.2400  153.9788 C   0  0  0  0  0  0  0  0  0  0  0  0
  143.8860  138.0826  153.6696 N   0  0  0  0  0  0  0  0  0  0  0  0
  143.1864  136.8033  153.6769 C   0  0  0  0  0  0  0  0  0  0  0  0
  143.4053  136.0501  152.3569 C   0  0  2  0  0  0  0  0  0  0  0  0
  143.1193  134.5366  152.5061 C   0  0  0  0  0  0  0  0  0  0  0  0
  143.4586  133.8740  151.2340 N   0  3  2  0  0  0  0  0  0  0  0  0
  143.2506  132.4201  151.1239 C   0  0  0  0  0  0  0  0  0  0  0  0
  144.2078  131.9707  150.0016 C   0  0  0  0  0  0  0  0  0  0  0  0
  145.0562  133.2081  149.6542 C   0  0  0  0  0  0  0  0  0  0  0  0
  144.8551  134.1147  150.8644 C   0  0  1  0  0  0  0  0  0  0  0  0
  145.0733  135.6228  150.6879 C   0  0  0  0  0  0  0  0  0  0  0  0
  144.7585  136.2532  151.9314 O   0  0  0  0  0  0  0  0  0  0  0  0
  145.5518  139.5278  153.8888 N   0  0  0  0  0  0  0  0  0  0  0  0
  146.8211  140.0925  154.2014 C   0  0  0  0  0  0  0  0  0  0  0  0
  148.0009  139.3051  154.1658 C   0  0  0  0  0  0  0  0  0  0  0  0
  149.2522  139.9007  154.4112 C   0  0  0  0  0  0  0  0  0  0  0  0
  149.3089  141.2800  154.6721 C   0  0  0  0  0  0  0  0  0  0  0  0
  148.1715  142.0049  154.6853 N   0  3  0  0  0  0  0  0  0  0  0  0
  146.9355  141.4877  154.4718 C   0  0  0  0  0  0  0  0  0  0  0  0
  145.8336  142.3720  154.5267 N   0  0  0  0  0  0  0  0  0  0  0  0
  145.7422  143.4968  153.6029 C   0  0  0  0  0  0  0  0  0  0  0  0
  144.6484  144.3924  154.1774 C   0  0  0  0  0  0  0  0  0  0  0  0
  144.8417  144.2223  155.6812 C   0  0  0  0  0  0  0  0  0  0  0  0
  145.2997  142.7672  155.8264 C   0  0  0  0  0  0  0  0  0  0  0  0
  143.3517  138.8949  153.3979 H   0  0  0  0  0  0  0  0  0  0  0  0
  143.5387  136.2066  154.5195 H   0  0  0  0  0  0  0  0  0  0  0  0
  142.1178  136.9679  153.8259 H   0  0  0  0  0  0  0  0  0  0  0  0
  142.7364  136.4649  151.6001 H   0  0  0  0  0  0  0  0  0  0  0  0
  143.7102  134.1089  153.3179 H   0  0  0  0  0  0  0  0  0  0  0  0
  142.0681  134.3645  152.7407 H   0  0  0  0  0  0  0  0  0  0  0  0
  143.5178  131.9320  152.0627 H   0  0  0  0  0  0  0  0  0  0  0  0
  142.2080  132.1890  150.9044 H   0  0  0  0  0  0  0  0  0  0  0  0
  144.8383  131.1524  150.3511 H   0  0  0  0  0  0  0  0  0  0  0  0
  143.6634  131.6142  149.1265 H   0  0  0  0  0  0  0  0  0  0  0  0
  146.1049  132.9666  149.4774 H   0  0  0  0  0  0  0  0  0  0  0  0
  144.6641  133.6860  148.7553 H   0  0  0  0  0  0  0  0  0  0  0  0
  145.4971  133.7553  151.6723 H   0  0  0  0  0  0  0  0  0  0  0  0
  146.1118  135.8324  150.4315 H   0  0  0  0  0  0  0  0  0  0  0  0
  144.4505  136.0273  149.8882 H   0  0  0  0  0  0  0  0  0  0  0  0
  144.8186  140.1907  153.6839 H   0  0  0  0  0  0  0  0  0  0  0  0
  147.9687  138.2521  153.9303 H   0  0  0  0  0  0  0  0  0  0  0  0
  150.1559  139.3093  154.3862 H   0  0  0  0  0  0  0  0  0  0  0  0
  150.2226  141.8238  154.8639 H   0  0  0  0  0  0  0  0  0  0  0  0
  146.6855  144.0441  153.5738 H   0  0  0  0  0  0  0  0  0  0  0  0
  145.5044  143.1651  152.5919 H   0  0  0  0  0  0  0  0  0  0  0  0
  144.7307  145.4291  153.8493 H   0  0  0  0  0  0  0  0  0  0  0  0
  143.6661  144.0192  153.8834 H   0  0  0  0  0  0  0  0  0  0  0  0
  145.6308  144.8919  156.0260 H   0  0  0  0  0  0  0  0  0  0  0  0
  143.9406  144.4422  156.2543 H   0  0  0  0  0  0  0  0  0  0  0  0
  144.4459  142.1314  156.0620 H   0  0  0  0  0  0  0  0  0  0  0  0
  146.0349  142.6603  156.6250 H   0  0  0  0  0  0  0  0  0  0  0  0
  142.8939  134.2988  150.5123 H   0  0  0  0  0  0  0  0  0  0  0  0
  148.2463  143.0043  154.8752 H   0  0  0  0  0  0  0  0  0  0  0  0
  1  2  2  0  0  0  0
  2  3  1  0  0  0  0
  2 14  1  0  0  0  0
  3  4  1  0  0  0  0
  3 26  1  0  0  0  0
  4  5  1  0  0  0  0
  4 27  1  0  0  0  0
  4 28  1  0  0  0  0
  5 13  1  0  0  0  0
  5  6  1  0  0  0  0
  5 29  1  0  0  0  0
  6  7  1  0  0  0  0
  6 30  1  0  0  0  0
  6 31  1  0  0  0  0
  7 11  1  0  0  0  0
  7  8  1  0  0  0  0
  7 53  1  0  0  0  0
  8  9  1  0  0  0  0
  8 32  1  0  0  0  0
  8 33  1  0  0  0  0
  9 10  1  0  0  0  0
  9 34  1  0  0  0  0
  9 35  1  0  0  0  0
 10 11  1  0  0  0  0
 10 36  1  0  0  0  0
 10 37  1  0  0  0  0
 11 12  1  0  0  0  0
 11 38  1  0  0  0  0
 12 13  1  0  0  0  0
 12 39  1  0  0  0  0
 12 40  1  0  0  0  0
 14 15  1  0  0  0  0
 14 41  1  0  0  0  0
 15 20  1  0  0  0  0
 15 16  2  0  0  0  0
 16 17  1  0  0  0  0
 16 42  1  0  0  0  0
 17 18  2  0  0  0  0
 17 43  1  0  0  0  0
 18 19  1  0  0  0  0
 18 44  1  0  0  0  0
 19 20  2  0  0  0  0
 19 54  1  0  0  0  0
 20 21  1  0  0  0  0
 21 25  1  0  0  0  0
 21 22  1  0  0  0  0
 22 23  1  0  0  0  0
 22 45  1  0  0  0  0
 22 46  1  0  0  0  0
 23 24  1  0  0  0  0
 23 47  1  0  0  0  0
 23 48  1  0  0  0  0
 24 25  1  0  0  0  0
 24 49  1  0  0  0  0
 24 50  1  0  0  0  0
 25 51  1  0  0  0  0
 25 52  1  0  0  0  0
M  CHG  1   7   1
M  CHG  1  19   1
M  END
> <s_m_source_file>
AV-unprocessed.smi

> <i_m_source_file_index>
1830

> <i_lp_mmshare_version>
43012

> <i_f3d_flags>
0

> <s_epik_input>
W0NIMl0xW0NIMl1bQ0gyXVtDQEhdKE4xMilbQ0gyXU9bQ0BASF0oW0NIMl0yKVtDSDJdW05IXUMoPU8pW05IXWMzW2NIXVtjSF1bY0hdbmMzTjRbQ0gyXVtDSDJdW0NIMl1bQ0gyXTQ=

> <s_epik_cmdline>
J2VwaWtfcHl0aG9uJywgJy1waCcsICc3LjAnLCAnLXRuJywgJzgnLCAnLW1hJywgJzIwMCcsICctbWV0YWxfYmluZGluZycsICctaW1hZScsICc8aW5maWxlLm1hZT4nLCAnLW9tYWUnLCAnPG91dGZpbGUubWFlPic=

> <r_lp_tautomer_probability>
0.999994

> <r_epik_Ionization_Penalty>
1.29113

> <r_epik_Ionization_Penalty_Charging>
1.29111

> <r_epik_Ionization_Penalty_Neutral>
1.88144e-05

> <r_epik_State_Penalty>
1.32676

> <r_epik_Charging_Adjusted_Penalty>
2.61787

> <i_epik_Tot_Q>
2

> <i_epik_Tot_abs_Q>
2

> <r_epik_Metal_State_Penalty>
1.40425

> <b_epik_Metal_Only>
0

> <s_lp_Force_Field>
OPLS_2005

> <r_lp_Energy>
74.3766

> <b_lp_Chiralities_Consistent>
1

> <s_lp_Variant>
AV-unprocessed.smi:1830-13

> <Gold.Version>
5.8.1

> <Gold.Id.Protein>
6NUR|6NUR_protein|mol2

> <Gold.PLP.Fitness>
56.2866

> <Gold.PLP.PLP>
-41.3252

> <Gold.PLP.part.hbond>
-4.0000

> <Gold.PLP.part.metal>
0.0000

> <Gold.PLP.part.buried>
-3.8691

> <Gold.PLP.part.nonpolar>
-34.6167

> <Gold.PLP.part.repulsive>
0.6277

> <Gold.PLP.ligand.clash>
0.0000

> <Gold.PLP.ligand.torsion>
0.7580

> <Gold.PLP.Chemscore.Hbond>
5.3589

> <Gold.PLP.Chemscore.CHOScore>
0.0000

> <Gold.PLP.Chemscore.Metal>
0.0000

> <Gold.Chemscore.Hbonds>
donor molecule, donor type, donor heavy atom, donor atom, acceptor molecule, acceptor atom, score
      L1  H     3    26       P1 10175  0.77
      L1  H     7    53       P1 10186  1.53
      L1  H    14    41       P1 10175  0.78
      L1  H    19    54       P1  8028  2.00

> <Gold.PLP.Chemscore.Internal.Correction>
0.4006

> <Gold.Rescore>
     Score         DG    S(hbond)    S(metal)    S(lipo)     H(rot)  DE(clash)    DE(int)     intcor
     18.33     -23.12       2.95        0.00      97.78       1.43       0.24       4.55       ----

> <Gold.Chemscore.Fitness>
18.3329

> <Gold.Chemscore.DG>
-23.1211

> <Gold.Chemscore.ZeroCoef>
-5.4800

> <Gold.Chemscore.Hbond>
2.9508

> <Gold.Chemscore.Metal>
0.0000

> <Gold.Chemscore.Lipo>
97.7816

> <Gold.Chemscore.Internal_Hbond>
0.0000

> <Gold.Chemscore.DEClash>
0.2406

> <Gold.Chemscore.DEInternal>
4.5476

> <Gold.Chemscore.Rot>
1.4278

> <Gold.Chemscore.Internal.Correction>
   9.000000E+99

> <Gold.Chemscore.Hbonds>
donor molecule, donor type, donor heavy atom, donor atom, acceptor molecule, acceptor atom, score
      L1  H     3    26       P1 10175  0.76
      L1  H     7    53       P1 10186  0.51
      L1  H    14    41       P1 10175  0.78
      L1  H    19    54       P1  8028  0.97

> <Gold.Chemscore.Hbond.Weighted>
-9.8557

> <Gold.Chemscore.Metal.Weighted>
-0.0000

> <Gold.Chemscore.Lipo.Weighted>
-11.4404

> <Gold.Chemscore.Internal_Hbond.Weighted>
0.0000

> <Gold.Chemscore.DEClash.Weighted>
0.2406

> <Gold.Chemscore.DEInternal.Weighted>
4.5476

> <Gold.Chemscore.Rot.Weighted>
3.6551

> <Gold.Chemscore.Internal.Correction.Weighted>
   9.000000E+99

> <Gold.Protein.RotatedTorsions>
[ 6907 6896 6895 6894 ] final -126.70 input  -60.11 | X-H torsion
[ 7974 7965 7964 7962 ] final   49.21 input  175.53 | X-H torsion
[ 8008 7997 7996 7995 ] final    2.88 input   59.86 | X-H torsion
[ 10167 10162 10161 10158 ] final -101.25 input  -65.29 | X-H torsion
[ 10718 10713 10712 10709 ] final  103.70 input   66.30 | X-H torsion
[ 10763 10752 10751 10750 ] final  113.53 input  -60.55 | X-H torsion
[ 11005 11000 10999 10996 ] final -141.64 input  -57.11 | X-H torsion

> <Gold.Protein.ActiveResidues>
 VAL166  LYS551  ARG553  GLY616  TRP617  ASP618  TYR619  PRO620  LYS621  CYS622 
 ASP623  PHE694  ASN695  SER759  ASP760  ASP761  ALA762  ILE779  LEU786  VAL792 
 PHE793  MET794  SER795  GLU796  ALA797  LYS798  CYS799  TRP800  GLU811  SER814 

> <Gold.Protein.RotatedAtoms>
  150.8996  133.7135  159.2882 H   0  0  0  0  0  0  0  0  0  0  0  0  # atno 6907 bound_to 6896
  151.4658  135.1040  159.9747 H   0  0  0  0  0  0  0  0  0  0  0  0  # atno 6908 bound_to 6896
  152.4869  133.8349  159.7177 H   0  0  0  0  0  0  0  0  0  0  0  0  # atno 6909 bound_to 6896
  146.0131  139.4565  142.9944 H   0  0  0  0  0  0  0  0  0  0  0  0  # atno 7974 bound_to 7965
  154.6969  140.2665  155.6757 H   0  0  0  0  0  0  0  0  0  0  0  0  # atno 8008 bound_to 7997
  156.2752  140.2780  156.1490 H   0  0  0  0  0  0  0  0  0  0  0  0  # atno 8009 bound_to 7997
  155.0818  140.0372  157.2631 H   0  0  0  0  0  0  0  0  0  0  0  0  # atno 8010 bound_to 7997
  140.2433  143.3523  152.0782 H   0  0  0  0  0  0  0  0  0  0  0  0  # atno 10167 bound_to 10162
  157.6764  131.0785  150.5594 H   0  0  0  0  0  0  0  0  0  0  0  0  # atno 10718 bound_to 10713
  153.4939  135.3652  155.2506 H   0  0  0  0  0  0  0  0  0  0  0  0  # atno 10763 bound_to 10752
  154.8751  135.3983  154.3557 H   0  0  0  0  0  0  0  0  0  0  0  0  # atno 10764 bound_to 10752
  153.4181  135.7079  153.6378 H   0  0  0  0  0  0  0  0  0  0  0  0  # atno 10765 bound_to 10752
  140.8304  134.2524  157.4859 H   0  0  0  0  0  0  0  0  0  0  0  0  # atno 11005 bound_to 11000
  145.7311  141.0042  143.1351 LP  0  0  0  0  0  0  0  0  0  0  0  0  # atno 17320 bound_to 7965
  144.6960  139.8986  143.7457 LP  0  0  0  0  0  0  0  0  0  0  0  0  # atno 17321 bound_to 7965
  139.5070  144.6824  151.5975 LP  0  0  0  0  0  0  0  0  0  0  0  0  # atno 17342 bound_to 10162
  140.6097  143.9459  150.6444 LP  0  0  0  0  0  0  0  0  0  0  0  0  # atno 17343 bound_to 10162
  156.5897  130.4326  149.5942 LP  0  0  0  0  0  0  0  0  0  0  0  0  # atno 17370 bound_to 10713
  156.2593  130.6953  151.1716 LP  0  0  0  0  0  0  0  0  0  0  0  0  # atno 17371 bound_to 10713
  139.8705  134.9583  156.4296 LP  0  0  0  0  0  0  0  0  0  0  0  0  # atno 17394 bound_to 11000
  140.9004  133.7783  155.9674 LP  0  0  0  0  0  0  0  0  0  0  0  0  # atno 17395 bound_to 11000

$$$$
