AV-unprocessed.smi:258|AV-procd|sdf|1972|dock6
  -GOLD-   2262021133D 1   1.00000     0.00000
 Structure written by MMmdl.
 57 60  0  0  0  0  0  0  0  0  1 V2000
  157.0652  139.2704  158.6242 O   0  0  0  0  0  0  0  0  0  0  0  0
  156.7074  140.2100  159.6156 C   0  0  0  0  0  0  0  0  0  0  0  0
  155.4043  139.7853  160.3047 C   0  0  0  0  0  0  0  0  0  0  0  0
  154.3457  139.8191  159.3580 O   0  0  0  0  0  0  0  0  0  0  0  0
  153.2331  140.6165  159.7433 C   0  0  1  0  0  0  0  0  0  0  0  0
  153.6968  141.9829  160.2879 C   0  0  0  0  0  0  0  0  0  0  0  0
  152.4875  142.8942  160.5454 C   0  0  0  0  0  0  0  0  0  0  0  0
  151.6227  143.0325  159.2827 C   0  0  0  0  0  0  0  0  0  0  0  0
  151.2374  141.7166  158.7701 N   0  0  0  0  0  0  0  0  0  0  0  0
  150.2364  141.6681  157.8549 C   0  0  0  0  0  0  0  0  0  0  0  0
  150.4033  140.9679  156.7005 N   0  0  0  0  0  0  0  0  0  0  0  0
  149.4178  140.9040  155.8001 C   0  0  0  0  0  0  0  0  0  0  0  0
  148.2054  141.4590  155.8490 N   0  0  0  0  0  0  0  0  0  0  0  0
  148.0360  142.1712  156.9995 C   0  0  0  0  0  0  0  0  0  0  0  0
  148.9884  142.3260  158.0459 C   0  0  0  0  0  0  0  0  0  0  0  0
  148.4592  143.1285  159.0508 N   0  0  0  0  0  0  0  0  0  0  0  0
  147.2603  143.4231  158.6264 C   0  0  0  0  0  0  0  0  0  0  0  0
  146.9255  142.8892  157.4032 N   0  0  0  0  0  0  0  0  0  0  0  0
  145.6684  143.0450  156.6962 C   0  0  0  0  0  0  0  0  0  0  0  0
  145.8598  143.7259  155.3169 C   0  0  1  0  0  0  0  0  0  0  0  0
  146.3556  142.7195  154.2519 C   0  0  0  0  0  0  0  0  0  0  0  0
  147.7029  142.9769  153.9165 O   0  0  0  0  0  0  0  0  0  0  0  0
  144.5855  144.5035  154.8984 C   0  0  1  0  0  0  0  0  0  0  0  0
  144.1410  145.6116  155.8541 C   0  0  0  0  0  0  0  0  0  0  0  0
  143.8113  146.7901  154.9356 C   0  0  0  0  0  0  0  0  0  0  0  0
  143.6423  146.2064  153.6535 O   0  0  0  0  0  0  0  0  0  0  0  0
  144.6315  145.1986  153.5328 C   0  0  0  0  0  0  0  0  0  0  0  0
  152.3515  140.8092  158.4959 C   0  0  0  0  0  0  0  0  0  0  0  0
  156.4415  138.5608  158.6434 H   0  0  0  0  0  0  0  0  0  0  0  0
  157.5165  140.3337  160.3362 H   0  0  0  0  0  0  0  0  0  0  0  0
  156.5658  141.1710  159.1208 H   0  0  0  0  0  0  0  0  0  0  0  0
  155.5124  138.7611  160.6643 H   0  0  0  0  0  0  0  0  0  0  0  0
  155.2029  140.4123  161.1737 H   0  0  0  0  0  0  0  0  0  0  0  0
  152.6433  140.0958  160.5004 H   0  0  0  0  0  0  0  0  0  0  0  0
  154.2641  141.8637  161.2105 H   0  0  0  0  0  0  0  0  0  0  0  0
  154.3654  142.4577  159.5689 H   0  0  0  0  0  0  0  0  0  0  0  0
  151.8856  142.4802  161.3554 H   0  0  0  0  0  0  0  0  0  0  0  0
  152.8220  143.8773  160.8779 H   0  0  0  0  0  0  0  0  0  0  0  0
  150.7331  143.6197  159.5153 H   0  0  0  0  0  0  0  0  0  0  0  0
  152.1746  143.5727  158.5121 H   0  0  0  0  0  0  0  0  0  0  0  0
  149.6316  140.3253  154.9135 H   0  0  0  0  0  0  0  0  0  0  0  0
  146.5825  144.0401  159.1980 H   0  0  0  0  0  0  0  0  0  0  0  0
  145.2054  142.0625  156.5945 H   0  0  0  0  0  0  0  0  0  0  0  0
  144.9963  143.6191  157.3353 H   0  0  0  0  0  0  0  0  0  0  0  0
  146.6370  144.4864  155.4170 H   0  0  0  0  0  0  0  0  0  0  0  0
  146.2757  141.6926  154.6088 H   0  0  0  0  0  0  0  0  0  0  0  0
  145.7685  142.7840  153.3368 H   0  0  0  0  0  0  0  0  0  0  0  0
  148.1149  143.4183  154.6437 H   0  0  0  0  0  0  0  0  0  0  0  0
  143.7594  143.7907  154.8643 H   0  0  0  0  0  0  0  0  0  0  0  0
  143.2551  145.2929  156.4050 H   0  0  0  0  0  0  0  0  0  0  0  0
  144.8948  145.8868  156.5914 H   0  0  0  0  0  0  0  0  0  0  0  0
  142.9194  147.3327  155.2497 H   0  0  0  0  0  0  0  0  0  0  0  0
  144.6445  147.4938  154.9010 H   0  0  0  0  0  0  0  0  0  0  0  0
  145.5930  145.6733  153.3379 H   0  0  0  0  0  0  0  0  0  0  0  0
  144.4113  144.5208  152.7078 H   0  0  0  0  0  0  0  0  0  0  0  0
  152.9464  141.2273  157.6826 H   0  0  0  0  0  0  0  0  0  0  0  0
  151.9967  139.8375  158.1531 H   0  0  0  0  0  0  0  0  0  0  0  0
  1  2  1  0  0  0  0
  1 29  1  0  0  0  0
  2  3  1  0  0  0  0
  2 30  1  0  0  0  0
  2 31  1  0  0  0  0
  3  4  1  0  0  0  0
  3 32  1  0  0  0  0
  3 33  1  0  0  0  0
  4  5  1  0  0  0  0
  5 28  1  0  0  0  0
  5  6  1  0  0  0  0
  5 34  1  0  0  0  0
  6  7  1  0  0  0  0
  6 35  1  0  0  0  0
  6 36  1  0  0  0  0
  7  8  1  0  0  0  0
  7 37  1  0  0  0  0
  7 38  1  0  0  0  0
  8  9  1  0  0  0  0
  8 39  1  0  0  0  0
  8 40  1  0  0  0  0
  9 10  1  0  0  0  0
  9 28  1  0  0  0  0
 10 15  1  0  0  0  0
 10 11  2  0  0  0  0
 11 12  1  0  0  0  0
 12 13  2  0  0  0  0
 12 41  1  0  0  0  0
 13 14  1  0  0  0  0
 14 18  1  0  0  0  0
 14 15  2  0  0  0  0
 15 16  1  0  0  0  0
 16 17  2  0  0  0  0
 17 18  1  0  0  0  0
 17 42  1  0  0  0  0
 18 19  1  0  0  0  0
 19 20  1  0  0  0  0
 19 43  1  0  0  0  0
 19 44  1  0  0  0  0
 20 21  1  0  0  0  0
 20 23  1  0  0  0  0
 20 45  1  0  0  0  0
 21 22  1  0  0  0  0
 21 46  1  0  0  0  0
 21 47  1  0  0  0  0
 22 48  1  0  0  0  0
 23 27  1  0  0  0  0
 23 24  1  0  0  0  0
 23 49  1  0  0  0  0
 24 25  1  0  0  0  0
 24 50  1  0  0  0  0
 24 51  1  0  0  0  0
 25 26  1  0  0  0  0
 25 52  1  0  0  0  0
 25 53  1  0  0  0  0
 26 27  1  0  0  0  0
 27 54  1  0  0  0  0
 27 55  1  0  0  0  0
 28 56  1  0  0  0  0
 28 57  1  0  0  0  0
M  END
> <s_m_source_file>
AV-unprocessed.smi

> <i_m_source_file_index>
258

> <i_lp_mmshare_version>
43012

> <i_f3d_flags>
0

> <s_epik_input>
W09IXVtDSDJdW0NIMl1PW0NAQEhdMVtDSDJdW0NIMl1bQ0gyXU4oW0NIMl0xKWMobltjSF1uMiljKGMyMyluW2NIXW4zW0NIMl1bQ0BIXShbQ0gyXVtPSF0pW0NAQEhdNFtDSDJdW0NIMl1PW0NIMl00

> <s_epik_cmdline>
J2VwaWtfcHl0aG9uJywgJy1waCcsICc3LjAnLCAnLXRuJywgJzgnLCAnLW1hJywgJzIwMCcsICctbWV0YWxfYmluZGluZycsICctaW1hZScsICc8aW5maWxlLm1hZT4nLCAnLW9tYWUnLCAnPG91dGZpbGUubWFlPic=

> <r_lp_tautomer_probability>
1

> <r_epik_Ionization_Penalty>
0.00349036

> <r_epik_Ionization_Penalty_Charging>
0

> <r_epik_Ionization_Penalty_Neutral>
0.00349036

> <r_epik_State_Penalty>
0.00229798

> <r_epik_Charging_Adjusted_Penalty>
0.00229798

> <i_epik_Tot_Q>
0

> <i_epik_Tot_abs_Q>
0

> <r_epik_Metal_State_Penalty>
-0

> <b_epik_Metal_Only>
0

> <s_lp_Force_Field>
OPLS_2005

> <r_lp_Energy>
51.0481

> <b_lp_Chiralities_Consistent>
1

> <s_lp_Variant>
AV-unprocessed.smi:258-8

> <Gold.Version>
5.8.1

> <Gold.Id.Protein>
6NUR|6NUR_protein|mol2

> <Gold.PLP.Fitness>
50.9983

> <Gold.PLP.PLP>
-47.2725

> <Gold.PLP.part.hbond>
-6.6945

> <Gold.PLP.part.metal>
0.0000

> <Gold.PLP.part.buried>
-7.3377

> <Gold.PLP.part.nonpolar>
-33.8264

> <Gold.PLP.part.repulsive>
0.3200

> <Gold.PLP.ligand.clash>
0.0071

> <Gold.PLP.ligand.torsion>
1.6436

> <Gold.PLP.Chemscore.Hbond>
2.1404

> <Gold.PLP.Chemscore.CHOScore>
0.0000

> <Gold.PLP.Chemscore.Metal>
0.0000

> <Gold.Chemscore.Hbonds>
donor molecule, donor type, donor heavy atom, donor atom, acceptor molecule, acceptor atom, score
      L1  H    22    48       P1  8028  1.00
      P1  H  7997  8010       L1     4  0.65

> <Gold.PLP.Chemscore.Internal.Correction>
0.5989

> <Gold.Rescore>
     Score         DG    S(hbond)    S(metal)    S(lipo)     H(rot)  DE(clash)    DE(int)     intcor
      9.19     -12.39       1.79        0.00     100.42       4.22       0.03       3.17       ----

> <Gold.Chemscore.Fitness>
9.1870

> <Gold.Chemscore.DG>
-12.3887

> <Gold.Chemscore.ZeroCoef>
-5.4800

> <Gold.Chemscore.Hbond>
1.7888

> <Gold.Chemscore.Metal>
0.0000

> <Gold.Chemscore.Lipo>
100.4181

> <Gold.Chemscore.Internal_Hbond>
0.0000

> <Gold.Chemscore.DEClash>
0.0340

> <Gold.Chemscore.DEInternal>
3.1676

> <Gold.Chemscore.Rot>
4.2246

> <Gold.Chemscore.Internal.Correction>
   9.000000E+99

> <Gold.Chemscore.Hbonds>
donor molecule, donor type, donor heavy atom, donor atom, acceptor molecule, acceptor atom, score
      L1  H    22    48       P1  8028  0.90
      P1  H  6933  6944       L1    16  0.01
      P1  H  7997  8010       L1     4  0.46

> <Gold.Chemscore.Hbond.Weighted>
-5.9746

> <Gold.Chemscore.Metal.Weighted>
-0.0000

> <Gold.Chemscore.Lipo.Weighted>
-11.7489

> <Gold.Chemscore.Internal_Hbond.Weighted>
0.0000

> <Gold.Chemscore.DEClash.Weighted>
0.0340

> <Gold.Chemscore.DEInternal.Weighted>
3.1676

> <Gold.Chemscore.Rot.Weighted>
10.8149

> <Gold.Chemscore.Internal.Correction.Weighted>
   9.000000E+99

> <Gold.Protein.RotatedTorsions>
[ 6907 6896 6895 6894 ] final  106.63 input  -60.11 | X-H torsion
[ 7974 7965 7964 7962 ] final  -41.23 input  175.53 | X-H torsion
[ 8008 7997 7996 7995 ] final   -2.52 input   59.86 | X-H torsion
[ 10167 10162 10161 10158 ] final  -73.44 input  -65.29 | X-H torsion
[ 10718 10713 10712 10709 ] final   98.74 input   66.30 | X-H torsion
[ 10763 10752 10751 10750 ] final   -6.22 input  -60.55 | X-H torsion
[ 11005 11000 10999 10996 ] final   31.87 input  -57.11 | X-H torsion

> <Gold.Protein.ActiveResidues>
 VAL166  LYS551  ARG553  GLY616  TRP617  ASP618  TYR619  PRO620  LYS621  CYS622 
 ASP623  PHE694  ASN695  SER759  ASP760  ASP761  ALA762  ILE779  LEU786  VAL792 
 PHE793  MET794  SER795  GLU796  ALA797  LYS798  CYS799  TRP800  GLU811  SER814 

> <Gold.Protein.RotatedAtoms>
  152.5186  133.9353  159.7599 H   0  0  0  0  0  0  0  0  0  0  0  0  # atno 6907 bound_to 6896
  150.9695  133.6351  159.2747 H   0  0  0  0  0  0  0  0  0  0  0  0  # atno 6908 bound_to 6896
  151.3568  135.0901  159.9474 H   0  0  0  0  0  0  0  0  0  0  0  0  # atno 6909 bound_to 6896
  146.0230  140.6826  142.9169 H   0  0  0  0  0  0  0  0  0  0  0  0  # atno 7974 bound_to 7965
  154.6348  140.2532  155.7390 H   0  0  0  0  0  0  0  0  0  0  0  0  # atno 8008 bound_to 7997
  156.2499  140.2899  156.0636 H   0  0  0  0  0  0  0  0  0  0  0  0  # atno 8009 bound_to 7997
  155.1688  140.0386  157.2848 H   0  0  0  0  0  0  0  0  0  0  0  0  # atno 8010 bound_to 7997
  140.5110  143.2345  151.7593 H   0  0  0  0  0  0  0  0  0  0  0  0  # atno 10167 bound_to 10162
  157.6890  131.0649  150.4842 H   0  0  0  0  0  0  0  0  0  0  0  0  # atno 10718 bound_to 10713
  153.4094  135.7007  153.6370 H   0  0  0  0  0  0  0  0  0  0  0  0  # atno 10763 bound_to 10752
  153.4870  135.3681  155.2472 H   0  0  0  0  0  0  0  0  0  0  0  0  # atno 10764 bound_to 10752
  154.8716  135.4080  154.3443 H   0  0  0  0  0  0  0  0  0  0  0  0  # atno 10765 bound_to 10752
  140.2793  134.2991  155.7805 H   0  0  0  0  0  0  0  0  0  0  0  0  # atno 11005 bound_to 11000
  144.6998  140.3600  143.7165 LP  0  0  0  0  0  0  0  0  0  0  0  0  # atno 17320 bound_to 7965
  145.7163  139.1698  143.2510 LP  0  0  0  0  0  0  0  0  0  0  0  0  # atno 17321 bound_to 7965
  139.4896  144.4390  151.9786 LP  0  0  0  0  0  0  0  0  0  0  0  0  # atno 17342 bound_to 10162
  140.3482  144.3121  150.5954 LP  0  0  0  0  0  0  0  0  0  0  0  0  # atno 17343 bound_to 10162
  156.5172  130.4153  149.6270 LP  0  0  0  0  0  0  0  0  0  0  0  0  # atno 17370 bound_to 10713
  156.3187  130.7268  151.2176 LP  0  0  0  0  0  0  0  0  0  0  0  0  # atno 17371 bound_to 10713
  141.2165  133.7515  156.9456 LP  0  0  0  0  0  0  0  0  0  0  0  0  # atno 17394 bound_to 11000
  140.1298  134.9363  157.2321 LP  0  0  0  0  0  0  0  0  0  0  0  0  # atno 17395 bound_to 11000

$$$$
