AV-unprocessed.smi:1768|AV-procd|sdf|7145|dock7
  -GOLD-   22720 8383D 1   1.00000     0.00000
 Structure written by MMmdl.
 33 34  0  0  0  0  0  0  0  0  1 V2000
  150.6894  141.9400  156.4504 C   0  0  0  0  0  0  0  0  0  0  0  0
  150.3334  140.7998  155.5586 C   0  0  0  0  0  0  0  0  0  0  0  0
  151.2449  139.9573  155.0573 N   0  0  0  0  0  0  0  0  0  0  0  0
  150.6726  138.9781  154.2574 N   0  0  0  0  0  0  0  0  0  0  0  0
  149.3415  139.1120  154.1783 C   0  0  0  0  0  0  0  0  0  0  0  0
  148.5034  138.2464  153.4270 N   0  0  0  0  0  0  0  0  0  0  0  0
  147.1600  138.2173  153.3823 C   0  0  0  0  0  0  0  0  0  0  0  0
  146.4118  138.9667  154.0104 O   0  0  0  0  0  0  0  0  0  0  0  0
  146.7272  137.2553  152.5539 N   0  0  0  0  0  0  0  0  0  0  0  0
  145.3310  136.9548  152.2442 C   0  0  2  0  0  0  0  0  0  0  0  0
  144.5676  136.7370  153.5596 C   0  0  0  0  0  0  0  0  0  0  0  0
  145.2685  135.7256  151.3171 C   0  0  1  0  0  0  0  0  0  0  0  0
  146.0971  134.5275  151.7850 C   0  0  0  0  0  0  0  0  0  0  0  0
  145.3822  133.3295  151.1773 C   0  0  0  0  0  0  0  0  0  0  0  0
  144.0418  133.8948  150.7013 C   0  0  0  0  0  0  0  0  0  0  0  0
  143.9570  135.1828  151.2925 O   0  0  0  0  0  0  0  0  0  0  0  0
  148.6740  140.4601  155.0833 S   0  0  0  0  0  0  0  0  0  0  0  0
  151.7616  141.9541  156.6496 H   0  0  0  0  0  0  0  0  0  0  0  0
  150.1596  141.8501  157.3989 H   0  0  0  0  0  0  0  0  0  0  0  0
  150.4089  142.8824  155.9795 H   0  0  0  0  0  0  0  0  0  0  0  0
  148.9843  137.5707  152.8523 H   0  0  0  0  0  0  0  0  0  0  0  0
  147.4207  136.6925  152.0838 H   0  0  0  0  0  0  0  0  0  0  0  0
  144.8689  137.7970  151.7263 H   0  0  0  0  0  0  0  0  0  0  0  0
  143.5092  136.5495  153.3784 H   0  0  0  0  0  0  0  0  0  0  0  0
  144.6357  137.6162  154.2014 H   0  0  0  0  0  0  0  0  0  0  0  0
  144.9664  135.8873  154.1147 H   0  0  0  0  0  0  0  0  0  0  0  0
  145.5544  135.9986  150.2990 H   0  0  0  0  0  0  0  0  0  0  0  0
  147.1413  134.5956  151.4787 H   0  0  0  0  0  0  0  0  0  0  0  0
  146.0706  134.4513  152.8730 H   0  0  0  0  0  0  0  0  0  0  0  0
  145.9419  132.9059  150.3428 H   0  0  0  0  0  0  0  0  0  0  0  0
  145.2443  132.5450  151.9222 H   0  0  0  0  0  0  0  0  0  0  0  0
  144.0325  133.9981  149.6151 H   0  0  0  0  0  0  0  0  0  0  0  0
  143.1958  133.2717  150.9914 H   0  0  0  0  0  0  0  0  0  0  0  0
  1  2  1  0  0  0  0
  1 18  1  0  0  0  0
  1 19  1  0  0  0  0
  1 20  1  0  0  0  0
  2 17  1  0  0  0  0
  2  3  2  0  0  0  0
  3  4  1  0  0  0  0
  4  5  2  0  0  0  0
  5  6  1  0  0  0  0
  5 17  1  0  0  0  0
  6  7  1  0  0  0  0
  6 21  1  0  0  0  0
  7  8  2  0  0  0  0
  7  9  1  0  0  0  0
  9 10  1  0  0  0  0
  9 22  1  0  0  0  0
 10 11  1  0  0  0  0
 10 12  1  0  0  0  0
 10 23  1  0  0  0  0
 11 24  1  0  0  0  0
 11 25  1  0  0  0  0
 11 26  1  0  0  0  0
 12 16  1  0  0  0  0
 12 13  1  0  0  0  0
 12 27  1  0  0  0  0
 13 14  1  0  0  0  0
 13 28  1  0  0  0  0
 13 29  1  0  0  0  0
 14 15  1  0  0  0  0
 14 30  1  0  0  0  0
 14 31  1  0  0  0  0
 15 16  1  0  0  0  0
 15 32  1  0  0  0  0
 15 33  1  0  0  0  0
M  END
> <s_m_source_file>
AV-unprocessed.smi

> <i_m_source_file_index>
1768

> <i_lp_mmshare_version>
43012

> <i_f3d_flags>
0

> <s_epik_input>
W0NIM11jMW5uYyhzMSlbTkhdQyg9TylbTkhdW0NASF0oW0NIM10pW0NAQEhdMltDSDJdW0NIMl1bQ0gyXU8y

> <s_epik_cmdline>
J2VwaWtfcHl0aG9uJywgJy1waCcsICc3LjAnLCAnLXRuJywgJzgnLCAnLW1hJywgJzIwMCcsICctbWV0YWxfYmluZGluZycsICctaW1hZScsICc8aW5maWxlLm1hZT4nLCAnLW9tYWUnLCAnPG91dGZpbGUubWFlPic=

> <r_lp_tautomer_probability>
1

> <r_epik_Ionization_Penalty>
0.000523083

> <r_epik_Ionization_Penalty_Charging>
0

> <r_epik_Ionization_Penalty_Neutral>
0.000523083

> <r_epik_State_Penalty>
-0

> <r_epik_Charging_Adjusted_Penalty>
0

> <i_epik_Tot_Q>
0

> <i_epik_Tot_abs_Q>
0

> <r_epik_Metal_State_Penalty>
0.223408

> <b_epik_Metal_Only>
0

> <s_lp_Force_Field>
OPLS_2005

> <r_lp_Energy>
16.8898

> <b_lp_Chiralities_Consistent>
1

> <s_lp_Variant>
AV-unprocessed.smi:1768-3

> <Gold.Version>
5.8.1

> <Gold.Id.Protein>
6NUR|6NUR_protein|mol2

> <Gold.PLP.Fitness>
32.4154

> <Gold.PLP.PLP>
-25.6617

> <Gold.PLP.part.hbond>
-4.6906

> <Gold.PLP.part.metal>
0.0000

> <Gold.PLP.part.buried>
-1.8635

> <Gold.PLP.part.nonpolar>
-20.2156

> <Gold.PLP.part.repulsive>
0.6744

> <Gold.PLP.ligand.clash>
0.0000

> <Gold.PLP.ligand.torsion>
0.2337

> <Gold.PLP.Chemscore.Hbond>
2.4000

> <Gold.PLP.Chemscore.CHOScore>
0.0000

> <Gold.PLP.Chemscore.Metal>
0.0000

> <Gold.Chemscore.Hbonds>
donor molecule, donor type, donor heavy atom, donor atom, acceptor molecule, acceptor atom, score
      L1  H     6    21       P1  7948  1.00
      L1  H     9    22       P1  7948  1.00
      P1  H  7989  7998       L1     3  0.33

> <Gold.PLP.Chemscore.Internal.Correction>
0.0210

> <Gold.Rescore>
     Score         DG    S(hbond)    S(metal)    S(lipo)     H(rot)  DE(clash)    DE(int)     intcor
     12.52     -14.85       1.92        0.00      53.62       1.29       0.10       2.23       ----

> <Gold.Chemscore.Fitness>
12.5245

> <Gold.Chemscore.DG>
-14.8521

> <Gold.Chemscore.ZeroCoef>
-5.4800

> <Gold.Chemscore.Hbond>
1.9180

> <Gold.Chemscore.Metal>
0.0000

> <Gold.Chemscore.Lipo>
53.6162

> <Gold.Chemscore.Internal_Hbond>
0.0000

> <Gold.Chemscore.DEClash>
0.0973

> <Gold.Chemscore.DEInternal>
2.2304

> <Gold.Chemscore.Rot>
1.2919

> <Gold.Chemscore.Internal.Correction>
   9.000000E+99

> <Gold.Chemscore.Hbonds>
donor molecule, donor type, donor heavy atom, donor atom, acceptor molecule, acceptor atom, score
      L1  H     6    21       P1  7948  0.96
      L1  H     9    22       P1  7948  0.95

> <Gold.Chemscore.Hbond.Weighted>
-6.4062

> <Gold.Chemscore.Metal.Weighted>
-0.0000

> <Gold.Chemscore.Lipo.Weighted>
-6.2731

> <Gold.Chemscore.Internal_Hbond.Weighted>
0.0000

> <Gold.Chemscore.DEClash.Weighted>
0.0973

> <Gold.Chemscore.DEInternal.Weighted>
2.2304

> <Gold.Chemscore.Rot.Weighted>
3.3072

> <Gold.Chemscore.Internal.Correction.Weighted>
   9.000000E+99

> <Gold.Protein.RotatedTorsions>
[ 6907 6896 6895 6894 ] final  -19.45 input  -60.11 | X-H torsion
[ 7974 7965 7964 7962 ] final   80.18 input  175.53 | X-H torsion
[ 8008 7997 7996 7995 ] final    0.65 input   59.86 | X-H torsion
[ 10167 10162 10161 10158 ] final  -69.55 input  -65.29 | X-H torsion
[ 10718 10713 10712 10709 ] final   31.85 input   66.30 | X-H torsion
[ 10763 10752 10751 10750 ] final   69.75 input  -60.55 | X-H torsion
[ 11005 11000 10999 10996 ] final -120.68 input  -57.11 | X-H torsion

> <Gold.Protein.ActiveResidues>
 VAL166  LYS551  ARG553  GLY616  TRP617  ASP618  TYR619  PRO620  LYS621  CYS622 
 ASP623  PHE694  ASN695  SER759  ASP760  ASP761  ALA762  ILE779  LEU786  VAL792 
 PHE793  MET794  SER795  GLU796  ALA797  LYS798  CYS799  TRP800  GLU811  SER814 

> <Gold.Protein.RotatedAtoms>
  151.2629  135.0660  159.9104 H   0  0  0  0  0  0  0  0  0  0  0  0  # atno 6907 bound_to 6896
  152.5363  134.0211  159.7992 H   0  0  0  0  0  0  0  0  0  0  0  0  # atno 6908 bound_to 6896
  151.0437  133.5634  159.2679 H   0  0  0  0  0  0  0  0  0  0  0  0  # atno 6909 bound_to 6896
  145.6545  139.2456  143.1958 H   0  0  0  0  0  0  0  0  0  0  0  0  # atno 7974 bound_to 7965
  154.6705  140.2611  155.7012 H   0  0  0  0  0  0  0  0  0  0  0  0  # atno 8008 bound_to 7997
  156.2657  140.2830  156.1134 H   0  0  0  0  0  0  0  0  0  0  0  0  # atno 8009 bound_to 7997
  155.1175  140.0376  157.2731 H   0  0  0  0  0  0  0  0  0  0  0  0  # atno 8010 bound_to 7997
  140.5422  143.2314  151.7069 H   0  0  0  0  0  0  0  0  0  0  0  0  # atno 10167 bound_to 10162
  157.2778  130.7240  149.6539 H   0  0  0  0  0  0  0  0  0  0  0  0  # atno 10718 bound_to 10713
  153.0304  135.5199  154.7336 H   0  0  0  0  0  0  0  0  0  0  0  0  # atno 10763 bound_to 10752
  154.6357  135.2906  155.0166 H   0  0  0  0  0  0  0  0  0  0  0  0  # atno 10764 bound_to 10752
  154.1102  135.6623  153.4936 H   0  0  0  0  0  0  0  0  0  0  0  0  # atno 10765 bound_to 10752
  141.0126  134.0242  157.3393 H   0  0  0  0  0  0  0  0  0  0  0  0  # atno 11005 bound_to 11000
  146.1176  140.7349  142.9473 LP  0  0  0  0  0  0  0  0  0  0  0  0  # atno 17320 bound_to 7965
  144.7111  140.4040  143.7080 LP  0  0  0  0  0  0  0  0  0  0  0  0  # atno 17321 bound_to 7965
  139.4993  144.3951  152.0239 LP  0  0  0  0  0  0  0  0  0  0  0  0  # atno 17342 bound_to 10162
  140.3061  144.3591  150.6046 LP  0  0  0  0  0  0  0  0  0  0  0  0  # atno 17343 bound_to 10162
  155.9664  130.4347  150.5062 LP  0  0  0  0  0  0  0  0  0  0  0  0  # atno 17370 bound_to 10713
  157.3000  131.0643  151.2075 LP  0  0  0  0  0  0  0  0  0  0  0  0  # atno 17371 bound_to 10713
  139.9098  135.0188  156.7645 LP  0  0  0  0  0  0  0  0  0  0  0  0  # atno 17394 bound_to 11000
  140.6708  133.9561  155.7855 LP  0  0  0  0  0  0  0  0  0  0  0  0  # atno 17395 bound_to 11000

$$$$
