AV-unprocessed.smi:1906|AV-procd|sdf|7728|dock2
  -GOLD-   22720 9473D 1   1.00000     0.00000
 Structure written by MMmdl.
 35 37  0  0  0  0  0  0  0  0  1 V2000
  153.3396  138.9151  159.4435 C   0  0  0  0  0  0  0  0  0  0  0  0
  152.9070  140.3357  159.2658 C   0  0  0  0  0  0  0  0  0  0  0  0
  153.3410  141.3120  160.0629 N   0  0  0  0  0  0  0  0  0  0  0  0
  152.7083  142.4271  159.5487 C   0  0  0  0  0  0  0  0  0  0  0  0
  152.7557  143.7796  159.9553 C   0  0  0  0  0  0  0  0  0  0  0  0
  152.0130  144.7592  159.2639 C   0  0  0  0  0  0  0  0  0  0  0  0
  151.2142  144.4014  158.1585 C   0  0  0  0  0  0  0  0  0  0  0  0
  151.1523  143.0593  157.7372 C   0  0  0  0  0  0  0  0  0  0  0  0
  151.8944  142.0854  158.4316 C   0  0  0  0  0  0  0  0  0  0  0  0
  152.0467  140.7102  158.2860 N   0  0  0  0  0  0  0  0  0  0  0  0
  151.4008  139.8781  157.2793 C   0  0  0  0  0  0  0  0  0  0  0  0
  151.4611  140.5069  155.8724 C   0  0  1  0  0  0  0  0  0  0  0  0
  152.5641  139.9504  155.1863 O   0  0  0  0  0  0  0  0  0  0  0  0
  150.1561  140.3408  155.1057 C   0  0  0  0  0  0  0  0  0  0  0  0
  149.8285  139.1110  154.4928 C   0  0  0  0  0  0  0  0  0  0  0  0
  148.6078  138.9634  153.8059 C   0  0  0  0  0  0  0  0  0  0  0  0
  147.7073  140.0431  153.7286 C   0  0  0  0  0  0  0  0  0  0  0  0
  148.0280  141.2710  154.3381 C   0  0  0  0  0  0  0  0  0  0  0  0
  147.1613  142.3087  154.2670 F   0  0  0  0  0  0  0  0  0  0  0  0
  149.2488  141.4193  155.0240 C   0  0  0  0  0  0  0  0  0  0  0  0
  154.0094  138.8235  160.2991 H   0  0  0  0  0  0  0  0  0  0  0  0
  153.8682  138.5673  158.5557 H   0  0  0  0  0  0  0  0  0  0  0  0
  152.4756  138.2744  159.6169 H   0  0  0  0  0  0  0  0  0  0  0  0
  153.3647  144.0637  160.8006 H   0  0  0  0  0  0  0  0  0  0  0  0
  152.0574  145.7902  159.5830 H   0  0  0  0  0  0  0  0  0  0  0  0
  150.6486  145.1576  157.6336 H   0  0  0  0  0  0  0  0  0  0  0  0
  150.5417  142.7814  156.8910 H   0  0  0  0  0  0  0  0  0  0  0  0
  151.9107  138.9137  157.2766 H   0  0  0  0  0  0  0  0  0  0  0  0
  150.3694  139.6746  157.5674 H   0  0  0  0  0  0  0  0  0  0  0  0
  151.6705  141.5731  155.9660 H   0  0  0  0  0  0  0  0  0  0  0  0
  152.2705  139.6559  154.3377 H   0  0  0  0  0  0  0  0  0  0  0  0
  150.5080  138.2735  154.5544 H   0  0  0  0  0  0  0  0  0  0  0  0
  148.3605  138.0206  153.3409 H   0  0  0  0  0  0  0  0  0  0  0  0
  146.7705  139.9289  153.2037 H   0  0  0  0  0  0  0  0  0  0  0  0
  149.4828  142.3624  155.4965 H   0  0  0  0  0  0  0  0  0  0  0  0
  1  2  1  0  0  0  0
  1 21  1  0  0  0  0
  1 22  1  0  0  0  0
  1 23  1  0  0  0  0
  2 10  1  0  0  0  0
  2  3  2  0  0  0  0
  3  4  1  0  0  0  0
  4  9  2  0  0  0  0
  4  5  1  0  0  0  0
  5  6  2  0  0  0  0
  5 24  1  0  0  0  0
  6  7  1  0  0  0  0
  6 25  1  0  0  0  0
  7  8  2  0  0  0  0
  7 26  1  0  0  0  0
  8  9  1  0  0  0  0
  8 27  1  0  0  0  0
  9 10  1  0  0  0  0
 10 11  1  0  0  0  0
 11 12  1  0  0  0  0
 11 28  1  0  0  0  0
 11 29  1  0  0  0  0
 12 13  1  0  0  0  0
 12 14  1  0  0  0  0
 12 30  1  0  0  0  0
 13 31  1  0  0  0  0
 14 20  1  0  0  0  0
 14 15  2  0  0  0  0
 15 16  1  0  0  0  0
 15 32  1  0  0  0  0
 16 17  2  0  0  0  0
 16 33  1  0  0  0  0
 17 18  1  0  0  0  0
 17 34  1  0  0  0  0
 18 19  1  0  0  0  0
 18 20  2  0  0  0  0
 20 35  1  0  0  0  0
M  END
> <s_m_source_file>
AV-unprocessed.smi

> <i_m_source_file_index>
1906

> <i_lp_mmshare_version>
43012

> <i_f3d_flags>
0

> <s_epik_input>
W2NIXTFbY0hdW2NIXVtjSF1jKGMxMiluKGMobjIpW0NIM10pW0NIMl1bQ0BIXShbT0hdKWMzW2NIXVtjSF1bY0hdYyhGKVtjSF0z

> <s_epik_cmdline>
J2VwaWtfcHl0aG9uJywgJy1waCcsICc3LjAnLCAnLXRuJywgJzgnLCAnLW1hJywgJzIwMCcsICctbWV0YWxfYmluZGluZycsICctaW1hZScsICc8aW5maWxlLm1hZT4nLCAnLW9tYWUnLCAnPG91dGZpbGUubWFlPic=

> <r_epik_Ionization_Penalty>
0.129664

> <r_epik_Ionization_Penalty_Charging>
0

> <r_epik_Ionization_Penalty_Neutral>
0.129664

> <r_epik_State_Penalty>
0.119073

> <r_epik_Charging_Adjusted_Penalty>
0.119073

> <i_epik_Tot_Q>
0

> <i_epik_Tot_abs_Q>
0

> <r_epik_Metal_State_Penalty>
0.000131867

> <b_epik_Metal_Only>
0

> <s_lp_Force_Field>
OPLS_2005

> <r_lp_Energy>
11.7028

> <b_lp_Chiralities_Consistent>
1

> <s_lp_Variant>
AV-unprocessed.smi:1906-2

> <Gold.Version>
5.8.1

> <Gold.Id.Protein>
6NUR|6NUR_protein|mol2

> <Gold.PLP.Fitness>
49.9943

> <Gold.PLP.PLP>
-49.3576

> <Gold.PLP.part.hbond>
-1.7072

> <Gold.PLP.part.metal>
0.0000

> <Gold.PLP.part.buried>
-3.5001

> <Gold.PLP.part.nonpolar>
-44.3989

> <Gold.PLP.part.repulsive>
0.0000

> <Gold.PLP.ligand.clash>
0.0000

> <Gold.PLP.ligand.torsion>
1.1904

> <Gold.PLP.Chemscore.Hbond>
1.0000

> <Gold.PLP.Chemscore.CHOScore>
0.0000

> <Gold.PLP.Chemscore.Metal>
0.0000

> <Gold.Chemscore.Hbonds>
donor molecule, donor type, donor heavy atom, donor atom, acceptor molecule, acceptor atom, score
      P1  H  7997  8009       L1    13  1.00

> <Gold.PLP.Chemscore.Internal.Correction>
0.0175

> <Gold.Rescore>
     Score         DG    S(hbond)    S(metal)    S(lipo)     H(rot)  DE(clash)    DE(int)     intcor
     18.18     -19.40       0.97        0.00     130.54       1.79       0.04       1.18       ----

> <Gold.Chemscore.Fitness>
18.1766

> <Gold.Chemscore.DG>
-19.3993

> <Gold.Chemscore.ZeroCoef>
-5.4800

> <Gold.Chemscore.Hbond>
0.9686

> <Gold.Chemscore.Metal>
0.0000

> <Gold.Chemscore.Lipo>
130.5400

> <Gold.Chemscore.Internal_Hbond>
0.0000

> <Gold.Chemscore.DEClash>
0.0441

> <Gold.Chemscore.DEInternal>
1.1785

> <Gold.Chemscore.Rot>
1.7926

> <Gold.Chemscore.Internal.Correction>
   9.000000E+99

> <Gold.Chemscore.Hbonds>
donor molecule, donor type, donor heavy atom, donor atom, acceptor molecule, acceptor atom, score
      P1  H  7997  8009       L1    13  0.90

> <Gold.Chemscore.Hbond.Weighted>
-3.2351

> <Gold.Chemscore.Metal.Weighted>
-0.0000

> <Gold.Chemscore.Lipo.Weighted>
-15.2732

> <Gold.Chemscore.Internal_Hbond.Weighted>
0.0000

> <Gold.Chemscore.DEClash.Weighted>
0.0441

> <Gold.Chemscore.DEInternal.Weighted>
1.1785

> <Gold.Chemscore.Rot.Weighted>
4.5890

> <Gold.Chemscore.Internal.Correction.Weighted>
   9.000000E+99

> <Gold.Protein.RotatedTorsions>
[ 6907 6896 6895 6894 ] final -109.57 input  -60.11 | X-H torsion
[ 7974 7965 7964 7962 ] final  -60.28 input  175.53 | X-H torsion
[ 8008 7997 7996 7995 ] final -141.49 input   59.86 | X-H torsion
[ 10167 10162 10161 10158 ] final   30.73 input  -65.29 | X-H torsion
[ 10718 10713 10712 10709 ] final -169.17 input   66.30 | X-H torsion
[ 10763 10752 10751 10750 ] final  -14.14 input  -60.55 | X-H torsion
[ 11005 11000 10999 10996 ] final -170.30 input  -57.11 | X-H torsion

> <Gold.Protein.ActiveResidues>
 VAL166  LYS551  ARG553  GLY616  TRP617  ASP618  TYR619  PRO620  LYS621  CYS622 
 ASP623  PHE694  ASN695  SER759  ASP760  ASP761  ALA762  ILE779  LEU786  VAL792 
 PHE793  MET794  SER795  GLU796  ALA797  LYS798  CYS799  TRP800  GLU811  SER814 

> <Gold.Protein.RotatedAtoms>
  150.7570  133.9509  159.3485 H   0  0  0  0  0  0  0  0  0  0  0  0  # atno 6907 bound_to 6896
  151.7426  135.0849  160.0327 H   0  0  0  0  0  0  0  0  0  0  0  0  # atno 6908 bound_to 6896
  152.3518  133.6152  159.5986 H   0  0  0  0  0  0  0  0  0  0  0  0  # atno 6909 bound_to 6896
  145.8174  140.8561  143.0150 H   0  0  0  0  0  0  0  0  0  0  0  0  # atno 7974 bound_to 7965
  155.4786  140.0558  157.2970 H   0  0  0  0  0  0  0  0  0  0  0  0  # atno 8008 bound_to 7997
  154.4669  140.2022  156.0047 H   0  0  0  0  0  0  0  0  0  0  0  0  # atno 8009 bound_to 7997
  156.0990  140.3222  155.7921 H   0  0  0  0  0  0  0  0  0  0  0  0  # atno 8010 bound_to 7997
  140.4652  144.0847  150.6222 H   0  0  0  0  0  0  0  0  0  0  0  0  # atno 10167 bound_to 10162
  156.7076  130.9221  151.3086 H   0  0  0  0  0  0  0  0  0  0  0  0  # atno 10718 bound_to 10713
  153.5239  135.7015  153.5717 H   0  0  0  0  0  0  0  0  0  0  0  0  # atno 10763 bound_to 10752
  153.3754  135.3934  155.1819 H   0  0  0  0  0  0  0  0  0  0  0  0  # atno 10764 bound_to 10752
  154.8692  135.3822  154.4730 H   0  0  0  0  0  0  0  0  0  0  0  0  # atno 10765 bound_to 10752
  140.5210  134.5709  157.5048 H   0  0  0  0  0  0  0  0  0  0  0  0  # atno 11005 bound_to 11000
  144.6751  140.0484  143.7479 LP  0  0  0  0  0  0  0  0  0  0  0  0  # atno 17320 bound_to 7965
  145.9712  139.2871  143.1098 LP  0  0  0  0  0  0  0  0  0  0  0  0  # atno 17321 bound_to 7965
  140.4045  143.2687  151.9907 LP  0  0  0  0  0  0  0  0  0  0  0  0  # atno 17342 bound_to 10162
  139.4811  144.5969  151.7675 LP  0  0  0  0  0  0  0  0  0  0  0  0  # atno 17343 bound_to 10162
  157.6948  130.9271  150.0615 LP  0  0  0  0  0  0  0  0  0  0  0  0  # atno 17370 bound_to 10713
  156.1684  130.3645  149.9200 LP  0  0  0  0  0  0  0  0  0  0  0  0  # atno 17371 bound_to 10713
  139.9606  134.7459  156.0246 LP  0  0  0  0  0  0  0  0  0  0  0  0  # atno 17394 bound_to 11000
  141.1334  133.6581  156.3527 LP  0  0  0  0  0  0  0  0  0  0  0  0  # atno 17395 bound_to 11000

$$$$
