AV-unprocessed.smi:276|AV-procd|sdf|2081|dock3
  -GOLD-   2262021353D 1   1.00000     0.00000
 Structure written by MMmdl.
 57 61  0  0  0  0  0  0  0  0  1 V2000
  144.8915  133.1113  162.2206 C   0  0  0  0  0  0  0  0  0  0  0  0
  145.8184  134.1389  162.5233 O   0  0  0  0  0  0  0  0  0  0  0  0
  146.5692  134.5459  161.3901 C   0  0  1  0  0  0  0  0  0  0  0  0
  145.7441  134.7229  160.1096 C   0  0  0  0  0  0  0  0  0  0  0  0
  146.5623  135.9947  159.8097 C   0  0  2  0  0  0  0  0  0  0  0  0
  147.7221  135.7013  158.9552 N   0  0  0  0  0  0  0  0  0  0  0  0
  147.4280  135.1101  157.6533 C   0  0  0  0  0  0  0  0  0  0  0  0
  148.6224  136.6996  158.8135 C   0  0  0  0  0  0  0  0  0  0  0  0
  149.8371  136.5166  159.3882 N   0  0  0  0  0  0  0  0  0  0  0  0
  150.7729  137.4656  159.2910 C   0  0  0  0  0  0  0  0  0  0  0  0
  150.7047  138.6454  158.6706 N   0  0  0  0  0  0  0  0  0  0  0  0
  149.4884  138.8255  158.0806 C   0  0  0  0  0  0  0  0  0  0  0  0
  148.3983  137.9106  158.0971 C   0  0  0  0  0  0  0  0  0  0  0  0
  147.3295  138.4375  157.3810 N   0  0  0  0  0  0  0  0  0  0  0  0
  147.7593  139.6007  156.9743 C   0  0  0  0  0  0  0  0  0  0  0  0
  149.0455  139.9133  157.3505 N   0  0  0  0  0  0  0  0  0  0  0  0
  149.7773  141.1275  157.0363 C   0  0  0  0  0  0  0  0  0  0  0  0
  149.9569  142.0428  158.2635 C   0  0  2  0  0  0  0  0  0  0  0  0
  149.2059  143.2269  158.0719 O   0  0  0  0  0  0  0  0  0  0  0  0
  151.4320  142.4182  158.4985 C   0  0  1  0  0  0  0  0  0  0  0  0
  151.6547  143.4506  159.6053 C   0  0  0  0  0  0  0  0  0  0  0  0
  153.0843  143.1667  160.0044 C   0  0  0  0  0  0  0  0  0  0  0  0
  153.1337  141.6451  159.9147 C   0  0  0  0  0  0  0  0  0  0  0  0
  152.1762  141.2781  158.9245 O   0  0  0  0  0  0  0  0  0  0  0  0
  146.8496  136.0584  161.3348 C   0  0  0  0  0  0  0  0  0  0  0  0
  146.0340  137.0230  162.2153 C   0  0  0  0  0  0  0  0  0  0  0  0
  147.2279  137.0751  163.1723 C   0  0  0  0  0  0  0  0  0  0  0  0
  148.1081  136.6573  161.9918 C   0  0  0  0  0  0  0  0  0  0  0  0
  144.3479  132.8320  163.1230 H   0  0  0  0  0  0  0  0  0  0  0  0
  145.3998  132.2223  161.8447 H   0  0  0  0  0  0  0  0  0  0  0  0
  144.1632  133.4386  161.4776 H   0  0  0  0  0  0  0  0  0  0  0  0
  147.4775  133.9597  161.2336 H   0  0  0  0  0  0  0  0  0  0  0  0
  145.8373  133.9011  159.4002 H   0  0  0  0  0  0  0  0  0  0  0  0
  144.6956  134.9448  160.3150 H   0  0  0  0  0  0  0  0  0  0  0  0
  145.9351  136.8088  159.4468 H   0  0  0  0  0  0  0  0  0  0  0  0
  148.2556  135.2194  156.9500 H   0  0  0  0  0  0  0  0  0  0  0  0
  146.5469  135.5756  157.2104 H   0  0  0  0  0  0  0  0  0  0  0  0
  147.2340  134.0431  157.7577 H   0  0  0  0  0  0  0  0  0  0  0  0
  151.7106  137.2485  159.7809 H   0  0  0  0  0  0  0  0  0  0  0  0
  147.1452  140.2664  156.3856 H   0  0  0  0  0  0  0  0  0  0  0  0
  150.7484  140.8382  156.6332 H   0  0  0  0  0  0  0  0  0  0  0  0
  149.2538  141.6558  156.2383 H   0  0  0  0  0  0  0  0  0  0  0  0
  149.5697  141.5387  159.1500 H   0  0  0  0  0  0  0  0  0  0  0  0
  149.2504  143.4659  157.1589 H   0  0  0  0  0  0  0  0  0  0  0  0
  151.8836  142.7816  157.5737 H   0  0  0  0  0  0  0  0  0  0  0  0
  151.5016  144.4763  159.2685 H   0  0  0  0  0  0  0  0  0  0  0  0
  150.9879  143.2636  160.4484 H   0  0  0  0  0  0  0  0  0  0  0  0
  153.7697  143.6092  159.2800 H   0  0  0  0  0  0  0  0  0  0  0  0
  153.3392  143.5456  160.9944 H   0  0  0  0  0  0  0  0  0  0  0  0
  154.1284  141.2770  159.6627 H   0  0  0  0  0  0  0  0  0  0  0  0
  152.8374  141.1966  160.8636 H   0  0  0  0  0  0  0  0  0  0  0  0
  145.8490  137.9811  161.7267 H   0  0  0  0  0  0  0  0  0  0  0  0
  145.1192  136.6127  162.6433 H   0  0  0  0  0  0  0  0  0  0  0  0
  147.4459  138.0628  163.5791 H   0  0  0  0  0  0  0  0  0  0  0  0
  147.1780  136.3146  163.9533 H   0  0  0  0  0  0  0  0  0  0  0  0
  148.8882  135.9355  162.2352 H   0  0  0  0  0  0  0  0  0  0  0  0
  148.5110  137.5277  161.4747 H   0  0  0  0  0  0  0  0  0  0  0  0
  1  2  1  0  0  0  0
  1 29  1  0  0  0  0
  1 30  1  0  0  0  0
  1 31  1  0  0  0  0
  2  3  1  0  0  0  0
  3 25  1  0  0  0  0
  3  4  1  0  0  0  0
  3 32  1  0  0  0  0
  4  5  1  0  0  0  0
  4 33  1  0  0  0  0
  4 34  1  0  0  0  0
  5  6  1  0  0  0  0
  5 25  1  0  0  0  0
  5 35  1  0  0  0  0
  6  7  1  0  0  0  0
  6  8  1  0  0  0  0
  7 36  1  0  0  0  0
  7 37  1  0  0  0  0
  7 38  1  0  0  0  0
  8 13  1  0  0  0  0
  8  9  2  0  0  0  0
  9 10  1  0  0  0  0
 10 11  2  0  0  0  0
 10 39  1  0  0  0  0
 11 12  1  0  0  0  0
 12 16  1  0  0  0  0
 12 13  2  0  0  0  0
 13 14  1  0  0  0  0
 14 15  2  0  0  0  0
 15 16  1  0  0  0  0
 15 40  1  0  0  0  0
 16 17  1  0  0  0  0
 17 18  1  0  0  0  0
 17 41  1  0  0  0  0
 17 42  1  0  0  0  0
 18 19  1  0  0  0  0
 18 20  1  0  0  0  0
 18 43  1  0  0  0  0
 19 44  1  0  0  0  0
 20 24  1  0  0  0  0
 20 21  1  0  0  0  0
 20 45  1  0  0  0  0
 21 22  1  0  0  0  0
 21 46  1  0  0  0  0
 21 47  1  0  0  0  0
 22 23  1  0  0  0  0
 22 48  1  0  0  0  0
 22 49  1  0  0  0  0
 23 24  1  0  0  0  0
 23 50  1  0  0  0  0
 23 51  1  0  0  0  0
 25 28  1  0  0  0  0
 25 26  1  0  0  0  0
 26 27  1  0  0  0  0
 26 52  1  0  0  0  0
 26 53  1  0  0  0  0
 27 28  1  0  0  0  0
 27 54  1  0  0  0  0
 27 55  1  0  0  0  0
 28 56  1  0  0  0  0
 28 57  1  0  0  0  0
M  END
> <s_m_source_file>
AV-unprocessed.smi

> <i_m_source_file_index>
276

> <i_lp_mmshare_version>
43012

> <i_f3d_flags>
0

> <s_epik_input>
W0NIMl0xW0NIMl1bQ0gyXUMxMltDQEhdKE9bQ0gzXSlbQ0gyXVtDQEhdMk4oW0NIM10pYyhuW2NIXW4zKWMoYzM0KW5bY0hdbjRbQ0gyXVtDQEhdKFtPSF0pW0NAQEhdNVtDSDJdW0NIMl1bQ0gyXU81

> <s_epik_cmdline>
J2VwaWtfcHl0aG9uJywgJy1waCcsICc3LjAnLCAnLXRuJywgJzgnLCAnLW1hJywgJzIwMCcsICctbWV0YWxfYmluZGluZycsICctaW1hZScsICc8aW5maWxlLm1hZT4nLCAnLW9tYWUnLCAnPG91dGZpbGUubWFlPic=

> <r_lp_tautomer_probability>
1

> <r_epik_Ionization_Penalty>
0.00204117

> <r_epik_Ionization_Penalty_Charging>
0

> <r_epik_Ionization_Penalty_Neutral>
0.00204117

> <r_epik_State_Penalty>
0.00127401

> <r_epik_Charging_Adjusted_Penalty>
0.00127401

> <i_epik_Tot_Q>
0

> <i_epik_Tot_abs_Q>
0

> <r_epik_Metal_State_Penalty>
-0

> <b_epik_Metal_Only>
0

> <s_lp_Force_Field>
OPLS_2005

> <r_lp_Energy>
57.2167

> <b_lp_Chiralities_Consistent>
1

> <s_lp_Variant>
AV-unprocessed.smi:276-12

> <Gold.Version>
5.8.1

> <Gold.Id.Protein>
6NUR|6NUR_protein|mol2

> <Gold.PLP.Fitness>
45.2109

> <Gold.PLP.PLP>
-41.5063

> <Gold.PLP.part.hbond>
-3.1500

> <Gold.PLP.part.metal>
0.0000

> <Gold.PLP.part.buried>
-3.4943

> <Gold.PLP.part.nonpolar>
-35.4574

> <Gold.PLP.part.repulsive>
0.0169

> <Gold.PLP.ligand.clash>
0.0000

> <Gold.PLP.ligand.torsion>
1.5551

> <Gold.PLP.Chemscore.Hbond>
1.9920

> <Gold.PLP.Chemscore.CHOScore>
0.0000

> <Gold.PLP.Chemscore.Metal>
0.0000

> <Gold.Chemscore.Hbonds>
donor molecule, donor type, donor heavy atom, donor atom, acceptor molecule, acceptor atom, score
      L1  H    19    44       P1  8028  1.00
      P1  H  6896  6909       L1     9  0.80

> <Gold.PLP.Chemscore.Internal.Correction>
0.8387

> <Gold.Rescore>
     Score         DG    S(hbond)    S(metal)    S(lipo)     H(rot)  DE(clash)    DE(int)     intcor
     14.54     -16.19       1.62        0.00     104.89       2.72       0.04       1.61       ----

> <Gold.Chemscore.Fitness>
14.5423

> <Gold.Chemscore.DG>
-16.1942

> <Gold.Chemscore.ZeroCoef>
-5.4800

> <Gold.Chemscore.Hbond>
1.6162

> <Gold.Chemscore.Metal>
0.0000

> <Gold.Chemscore.Lipo>
104.8884

> <Gold.Chemscore.Internal_Hbond>
0.0000

> <Gold.Chemscore.DEClash>
0.0397

> <Gold.Chemscore.DEInternal>
1.6122

> <Gold.Chemscore.Rot>
2.7172

> <Gold.Chemscore.Internal.Correction>
   9.000000E+99

> <Gold.Chemscore.Hbonds>
donor molecule, donor type, donor heavy atom, donor atom, acceptor molecule, acceptor atom, score
      L1  H    19    44       P1  8028  0.69
      P1  H  6896  6909       L1     9  0.12

> <Gold.Chemscore.Hbond.Weighted>
-5.3982

> <Gold.Chemscore.Metal.Weighted>
-0.0000

> <Gold.Chemscore.Lipo.Weighted>
-12.2719

> <Gold.Chemscore.Internal_Hbond.Weighted>
0.0000

> <Gold.Chemscore.DEClash.Weighted>
0.0397

> <Gold.Chemscore.DEInternal.Weighted>
1.6122

> <Gold.Chemscore.Rot.Weighted>
6.9560

> <Gold.Chemscore.Internal.Correction.Weighted>
   9.000000E+99

> <Gold.Protein.RotatedTorsions>
[ 6907 6896 6895 6894 ] final   89.47 input  -60.11 | X-H torsion
[ 7974 7965 7964 7962 ] final   65.34 input  175.53 | X-H torsion
[ 8008 7997 7996 7995 ] final   86.73 input   59.86 | X-H torsion
[ 10167 10162 10161 10158 ] final  -71.13 input  -65.29 | X-H torsion
[ 10718 10713 10712 10709 ] final  138.34 input   66.30 | X-H torsion
[ 10763 10752 10751 10750 ] final   33.92 input  -60.55 | X-H torsion
[ 11005 11000 10999 10996 ] final -143.77 input  -57.11 | X-H torsion

> <Gold.Protein.ActiveResidues>
 VAL166  LYS551  ARG553  GLY616  TRP617  ASP618  TYR619  PRO620  LYS621  CYS622 
 ASP623  PHE694  ASN695  SER759  ASP760  ASP761  ALA762  ILE779  LEU786  VAL792 
 PHE793  MET794  SER795  GLU796  ALA797  LYS798  CYS799  TRP800  GLU811  SER814 

> <Gold.Protein.RotatedAtoms>
  152.5436  134.1962  159.8693 H   0  0  0  0  0  0  0  0  0  0  0  0  # atno 6907 bound_to 6896
  151.1954  133.4635  159.2603 H   0  0  0  0  0  0  0  0  0  0  0  0  # atno 6908 bound_to 6896
  151.1042  135.0002  159.8518 H   0  0  0  0  0  0  0  0  0  0  0  0  # atno 6909 bound_to 6896
  145.8396  139.3187  143.0939 H   0  0  0  0  0  0  0  0  0  0  0  0  # atno 7974 bound_to 7965
  155.9664  140.3389  155.6536 H   0  0  0  0  0  0  0  0  0  0  0  0  # atno 8008 bound_to 7997
  155.6731  140.0729  157.2531 H   0  0  0  0  0  0  0  0  0  0  0  0  # atno 8009 bound_to 7997
  154.4155  140.1688  156.1888 H   0  0  0  0  0  0  0  0  0  0  0  0  # atno 8010 bound_to 7997
  140.5298  143.2323  151.7283 H   0  0  0  0  0  0  0  0  0  0  0  0  # atno 10167 bound_to 10162
  157.4264  131.1044  151.0298 H   0  0  0  0  0  0  0  0  0  0  0  0  # atno 10718 bound_to 10713
  153.0189  135.6374  154.1587 H   0  0  0  0  0  0  0  0  0  0  0  0  # atno 10763 bound_to 10752
  154.1323  135.2840  155.3183 H   0  0  0  0  0  0  0  0  0  0  0  0  # atno 10764 bound_to 10752
  154.6185  135.5532  153.7611 H   0  0  0  0  0  0  0  0  0  0  0  0  # atno 10765 bound_to 10752
  140.8092  134.2765  157.4948 H   0  0  0  0  0  0  0  0  0  0  0  0  # atno 11005 bound_to 11000
  145.9480  140.8930  143.0273 LP  0  0  0  0  0  0  0  0  0  0  0  0  # atno 17320 bound_to 7965
  144.6734  140.1641  143.7420 LP  0  0  0  0  0  0  0  0  0  0  0  0  # atno 17321 bound_to 7965
  139.4950  144.4132  152.0058 LP  0  0  0  0  0  0  0  0  0  0  0  0  # atno 17342 bound_to 10162
  140.3233  144.3402  150.6004 LP  0  0  0  0  0  0  0  0  0  0  0  0  # atno 17343 bound_to 10162
  157.1210  130.6062  149.5505 LP  0  0  0  0  0  0  0  0  0  0  0  0  # atno 17370 bound_to 10713
  155.9898  130.4946  150.7229 LP  0  0  0  0  0  0  0  0  0  0  0  0  # atno 17371 bound_to 10713
  139.8715  134.9473  156.3964 LP  0  0  0  0  0  0  0  0  0  0  0  0  # atno 17394 bound_to 11000
  140.9215  133.7641  155.9912 LP  0  0  0  0  0  0  0  0  0  0  0  0  # atno 17395 bound_to 11000

$$$$
