AV-unprocessed.smi:1483|AV-procd|sdf|5990|dock2
  -GOLD-   22720 6 83D 1   1.00000     0.00000
 Structure written by MMmdl.
 49 50  0  0  0  0  0  0  0  0  2 V2000
  153.0502  142.1193  159.9465 C   0  0  0  0  0  0  0  0  0  0  0  0
  152.3518  141.6312  158.6946 C   0  0  0  0  0  0  0  0  0  0  0  0
  151.5576  142.5054  157.9232 C   0  0  0  0  0  0  0  0  0  0  0  0
  150.9472  142.0053  156.7568 C   0  0  0  0  0  0  0  0  0  0  0  0
  151.1555  140.6552  156.4058 C   0  0  0  0  0  0  0  0  0  0  0  0
  150.5876  140.0884  155.1130 C   0  0  0  0  0  0  0  0  0  0  0  0
  149.0974  140.4257  155.0194 C   0  0  0  0  0  0  0  0  0  0  0  0
  148.4858  140.8315  156.0066 O   0  0  0  0  0  0  0  0  0  0  0  0
  148.5467  140.3009  153.8022 N   0  0  0  0  0  0  0  0  0  0  0  0
  147.2541  140.8253  153.3703 C   0  0  2  0  0  0  0  0  0  0  0  0
  146.1813  140.4528  154.4063 C   0  0  0  0  0  0  0  0  0  0  0  0
  145.9567  138.9278  154.4695 C   0  0  0  0  0  0  0  0  0  0  0  0
  145.6092  138.3578  153.1401 N   0  3  2  0  0  0  0  0  0  0  0  0
  145.3519  136.8957  153.2228 C   0  0  0  0  0  0  0  0  0  0  0  0
  144.6085  136.3306  151.9932 C   0  0  0  0  0  0  0  0  0  0  0  0
  143.7465  135.1103  152.3567 C   0  0  0  0  0  0  0  0  0  0  0  0
  145.6050  135.9722  150.8809 C   0  0  0  0  0  0  0  0  0  0  0  0
  146.6094  138.7124  152.0959 C   0  0  0  0  0  0  0  0  0  0  0  0
  146.8283  140.2347  152.0110 C   0  0  0  0  0  0  0  0  0  0  0  0
  151.9536  139.8605  157.2574 C   0  0  0  0  0  0  0  0  0  0  0  0
  152.5512  140.3344  158.3712 N   0  0  0  0  0  0  0  0  0  0  0  0
  152.5954  143.0391  160.3153 H   0  0  0  0  0  0  0  0  0  0  0  0
  154.1016  142.3168  159.7367 H   0  0  0  0  0  0  0  0  0  0  0  0
  152.9911  141.3722  160.7388 H   0  0  0  0  0  0  0  0  0  0  0  0
  151.4245  143.5379  158.2119 H   0  0  0  0  0  0  0  0  0  0  0  0
  150.3483  142.6526  156.1328 H   0  0  0  0  0  0  0  0  0  0  0  0
  151.1141  140.5044  154.2532 H   0  0  0  0  0  0  0  0  0  0  0  0
  150.7313  139.0074  155.0875 H   0  0  0  0  0  0  0  0  0  0  0  0
  149.1353  139.9202  153.0756 H   0  0  0  0  0  0  0  0  0  0  0  0
  147.3261  141.9116  153.2961 H   0  0  0  0  0  0  0  0  0  0  0  0
  146.4625  140.8279  155.3912 H   0  0  0  0  0  0  0  0  0  0  0  0
  145.2425  140.9463  154.1508 H   0  0  0  0  0  0  0  0  0  0  0  0
  146.8469  138.4280  154.8552 H   0  0  0  0  0  0  0  0  0  0  0  0
  145.1521  138.7177  155.1752 H   0  0  0  0  0  0  0  0  0  0  0  0
  146.3004  136.3760  153.3699 H   0  0  0  0  0  0  0  0  0  0  0  0
  144.7523  136.6818  154.1089 H   0  0  0  0  0  0  0  0  0  0  0  0
  143.9507  137.0964  151.5840 H   0  0  0  0  0  0  0  0  0  0  0  0
  144.3540  134.3039  152.7682 H   0  0  0  0  0  0  0  0  0  0  0  0
  143.2296  134.7204  151.4792 H   0  0  0  0  0  0  0  0  0  0  0  0
  142.9850  135.3638  153.0944 H   0  0  0  0  0  0  0  0  0  0  0  0
  146.3035  135.2003  151.2055 H   0  0  0  0  0  0  0  0  0  0  0  0
  146.1881  136.8430  150.5799 H   0  0  0  0  0  0  0  0  0  0  0  0
  145.0897  135.6024  149.9940 H   0  0  0  0  0  0  0  0  0  0  0  0
  147.5520  138.2056  152.3066 H   0  0  0  0  0  0  0  0  0  0  0  0
  146.2790  138.3572  151.1209 H   0  0  0  0  0  0  0  0  0  0  0  0
  145.9045  140.7132  151.6829 H   0  0  0  0  0  0  0  0  0  0  0  0
  147.5678  140.4601  151.2420 H   0  0  0  0  0  0  0  0  0  0  0  0
  152.1485  138.8252  157.0185 H   0  0  0  0  0  0  0  0  0  0  0  0
  144.7370  138.7899  152.8703 H   0  0  0  0  0  0  0  0  0  0  0  0
  1  2  1  0  0  0  0
  1 22  1  0  0  0  0
  1 23  1  0  0  0  0
  1 24  1  0  0  0  0
  2 21  1  0  0  0  0
  2  3  2  0  0  0  0
  3  4  1  0  0  0  0
  3 25  1  0  0  0  0
  4  5  2  0  0  0  0
  4 26  1  0  0  0  0
  5  6  1  0  0  0  0
  5 20  1  0  0  0  0
  6  7  1  0  0  0  0
  6 27  1  0  0  0  0
  6 28  1  0  0  0  0
  7  8  2  0  0  0  0
  7  9  1  0  0  0  0
  9 10  1  0  0  0  0
  9 29  1  0  0  0  0
 10 19  1  0  0  0  0
 10 11  1  0  0  0  0
 10 30  1  0  0  0  0
 11 12  1  0  0  0  0
 11 31  1  0  0  0  0
 11 32  1  0  0  0  0
 12 13  1  0  0  0  0
 12 33  1  0  0  0  0
 12 34  1  0  0  0  0
 13 14  1  0  0  0  0
 13 18  1  0  0  0  0
 13 49  1  0  0  0  0
 14 15  1  0  0  0  0
 14 35  1  0  0  0  0
 14 36  1  0  0  0  0
 15 16  1  0  0  0  0
 15 17  1  0  0  0  0
 15 37  1  0  0  0  0
 16 38  1  0  0  0  0
 16 39  1  0  0  0  0
 16 40  1  0  0  0  0
 17 41  1  0  0  0  0
 17 42  1  0  0  0  0
 17 43  1  0  0  0  0
 18 19  1  0  0  0  0
 18 44  1  0  0  0  0
 18 45  1  0  0  0  0
 19 46  1  0  0  0  0
 19 47  1  0  0  0  0
 20 21  2  0  0  0  0
 20 48  1  0  0  0  0
M  CHG  1  13   1
M  END
> <s_m_source_file>
AV-unprocessed.smi

> <i_m_source_file_index>
1483

> <i_lp_mmshare_version>
43012

> <i_f3d_flags>
0

> <s_epik_input>
W0NIM11jMVtjSF1bY0hdYyhbY0hdbjEpW0NIMl1DKD1PKVtOSF1bQ0hdMltDSDJdW0NIMl1OKFtDSDJdW0NIMl0yKVtDSDJdW0NIXShbQ0gzXSlbQ0gzXQ==

> <s_epik_cmdline>
J2VwaWtfcHl0aG9uJywgJy1waCcsICc3LjAnLCAnLXRuJywgJzgnLCAnLW1hJywgJzIwMCcsICctbWV0YWxfYmluZGluZycsICctaW1hZScsICc8aW5maWxlLm1hZT4nLCAnLW9tYWUnLCAnPG91dGZpbGUubWFlPic=

> <r_epik_Ionization_Penalty>
0.0186701

> <r_epik_Ionization_Penalty_Charging>
0.00405837

> <r_epik_Ionization_Penalty_Neutral>
0.0146117

> <r_epik_State_Penalty>
0.0114383

> <r_epik_Charging_Adjusted_Penalty>
0.0154967

> <i_epik_Tot_Q>
1

> <i_epik_Tot_abs_Q>
1

> <r_epik_Metal_State_Penalty>
0.0111573

> <b_epik_Metal_Only>
0

> <s_lp_Force_Field>
OPLS_2005

> <r_lp_Energy>
15.6664

> <b_lp_Chiralities_Consistent>
1

> <s_lp_Variant>
AV-unprocessed.smi:1483-2

> <Gold.Version>
5.8.1

> <Gold.Id.Protein>
6NUR|6NUR_protein|mol2

> <Gold.PLP.Fitness>
44.2768

> <Gold.PLP.PLP>
-37.1634

> <Gold.PLP.part.hbond>
-2.1978

> <Gold.PLP.part.metal>
0.0000

> <Gold.PLP.part.buried>
-0.1520

> <Gold.PLP.part.nonpolar>
-35.0251

> <Gold.PLP.part.repulsive>
0.1900

> <Gold.PLP.ligand.clash>
0.0000

> <Gold.PLP.ligand.torsion>
0.8339

> <Gold.PLP.Chemscore.Hbond>
2.8800

> <Gold.PLP.Chemscore.CHOScore>
0.0000

> <Gold.PLP.Chemscore.Metal>
0.0000

> <Gold.Chemscore.Hbonds>
donor molecule, donor type, donor heavy atom, donor atom, acceptor molecule, acceptor atom, score
      L1  H     9    29       P1  7957  0.90
      L1  H    13    49       P1 10175  2.00

> <Gold.PLP.Chemscore.Internal.Correction>
0.1412

> <Gold.Rescore>
     Score         DG    S(hbond)    S(metal)    S(lipo)     H(rot)  DE(clash)    DE(int)     intcor
     15.98     -20.64       1.82        0.00     109.75       1.47       1.27       3.40       ----

> <Gold.Chemscore.Fitness>
15.9753

> <Gold.Chemscore.DG>
-20.6365

> <Gold.Chemscore.ZeroCoef>
-5.4800

> <Gold.Chemscore.Hbond>
1.8220

> <Gold.Chemscore.Metal>
0.0000

> <Gold.Chemscore.Lipo>
109.7458

> <Gold.Chemscore.Internal_Hbond>
0.0000

> <Gold.Chemscore.DEClash>
1.2656

> <Gold.Chemscore.DEInternal>
3.3957

> <Gold.Chemscore.Rot>
1.4723

> <Gold.Chemscore.Internal.Correction>
   9.000000E+99

> <Gold.Chemscore.Hbonds>
donor molecule, donor type, donor heavy atom, donor atom, acceptor molecule, acceptor atom, score
      L1  H     9    29       P1  7957  0.86
      L1  H    13    49       P1 10175  0.89

> <Gold.Chemscore.Hbond.Weighted>
-6.0854

> <Gold.Chemscore.Metal.Weighted>
-0.0000

> <Gold.Chemscore.Lipo.Weighted>
-12.8403

> <Gold.Chemscore.Internal_Hbond.Weighted>
0.0000

> <Gold.Chemscore.DEClash.Weighted>
1.2656

> <Gold.Chemscore.DEInternal.Weighted>
3.3957

> <Gold.Chemscore.Rot.Weighted>
3.7691

> <Gold.Chemscore.Internal.Correction.Weighted>
   9.000000E+99

> <Gold.Protein.RotatedTorsions>
[ 6907 6896 6895 6894 ] final   -0.12 input  -60.11 | X-H torsion
[ 7974 7965 7964 7962 ] final -172.03 input  175.53 | X-H torsion
[ 8008 7997 7996 7995 ] final  178.93 input   59.86 | X-H torsion
[ 10167 10162 10161 10158 ] final  131.27 input  -65.29 | X-H torsion
[ 10718 10713 10712 10709 ] final   36.35 input   66.30 | X-H torsion
[ 10763 10752 10751 10750 ] final  -89.53 input  -60.55 | X-H torsion
[ 11005 11000 10999 10996 ] final   50.22 input  -57.11 | X-H torsion

> <Gold.Protein.ActiveResidues>
 VAL166  LYS551  ARG553  GLY616  TRP617  ASP618  TYR619  PRO620  LYS621  CYS622 
 ASP623  PHE694  ASN695  SER759  ASP760  ASP761  ALA762  ILE779  LEU786  VAL792 
 PHE793  MET794  SER795  GLU796  ALA797  LYS798  CYS799  TRP800  GLU811  SER814 

> <Gold.Protein.RotatedAtoms>
  151.5675  135.1063  159.9986 H   0  0  0  0  0  0  0  0  0  0  0  0  # atno 6907 bound_to 6896
  152.4417  133.7456  159.6676 H   0  0  0  0  0  0  0  0  0  0  0  0  # atno 6908 bound_to 6896
  150.8324  133.8001  159.3117 H   0  0  0  0  0  0  0  0  0  0  0  0  # atno 6909 bound_to 6896
  144.7150  140.1834  143.6356 H   0  0  0  0  0  0  0  0  0  0  0  0  # atno 7974 bound_to 7965
  156.0492  140.1321  157.0070 H   0  0  0  0  0  0  0  0  0  0  0  0  # atno 8008 bound_to 7997
  154.4426  140.1014  156.6421 H   0  0  0  0  0  0  0  0  0  0  0  0  # atno 8009 bound_to 7997
  155.5550  140.3463  155.4480 H   0  0  0  0  0  0  0  0  0  0  0  0  # atno 8010 bound_to 7997
  139.5391  144.6713  151.4684 H   0  0  0  0  0  0  0  0  0  0  0  0  # atno 10167 bound_to 10162
  157.3338  130.7511  149.6865 H   0  0  0  0  0  0  0  0  0  0  0  0  # atno 10718 bound_to 10713
  154.6563  135.5337  153.7962 H   0  0  0  0  0  0  0  0  0  0  0  0  # atno 10763 bound_to 10752
  153.0415  135.6494  154.0941 H   0  0  0  0  0  0  0  0  0  0  0  0  # atno 10764 bound_to 10752
  154.0853  135.2944  155.3262 H   0  0  0  0  0  0  0  0  0  0  0  0  # atno 10765 bound_to 10752
  140.1036  134.5048  155.8740 H   0  0  0  0  0  0  0  0  0  0  0  0  # atno 11005 bound_to 11000
  145.8835  139.2336  143.1591 LP  0  0  0  0  0  0  0  0  0  0  0  0  # atno 17320 bound_to 7965
  145.9972  140.8552  143.0037 LP  0  0  0  0  0  0  0  0  0  0  0  0  # atno 17321 bound_to 7965
  140.6613  143.8493  150.6891 LP  0  0  0  0  0  0  0  0  0  0  0  0  # atno 17342 bound_to 10162
  140.1888  143.4053  152.1878 LP  0  0  0  0  0  0  0  0  0  0  0  0  # atno 17343 bound_to 10162
  155.9699  130.4187  150.4342 LP  0  0  0  0  0  0  0  0  0  0  0  0  # atno 17370 bound_to 10713
  157.2379  131.0519  151.2454 LP  0  0  0  0  0  0  0  0  0  0  0  0  # atno 17371 bound_to 10713
  141.2112  133.6704  156.6567 LP  0  0  0  0  0  0  0  0  0  0  0  0  # atno 17394 bound_to 11000
  140.3186  134.8027  157.4234 LP  0  0  0  0  0  0  0  0  0  0  0  0  # atno 17395 bound_to 11000

$$$$
