AV-unprocessed.smi:104|AV-procd|sdf|1006|dock1
  -GOLD-   2262018 03D 1   1.00000     0.00000
 Structure written by MMmdl.
 47 49  0  0  0  0  0  0  0  0  1 V2000
  151.8404  138.8994  154.9393 C   0  0  0  0  0  0  0  0  0  0  0  0
  151.3052  137.4818  155.0922 C   0  0  0  0  0  0  0  0  0  0  0  0
  151.7895  136.5399  154.4650 O   0  0  0  0  0  0  0  0  0  0  0  0
  150.2870  137.4103  155.9599 O   0  0  0  0  0  0  0  0  0  0  0  0
  149.4830  136.2419  156.0103 C   0  0  0  0  0  0  0  0  0  0  0  0
  148.9961  135.9756  157.4430 C   0  0  1  0  0  0  0  0  0  0  0  0
  150.0925  135.7342  158.3254 O   0  0  0  0  0  0  0  0  0  0  0  0
  150.1086  136.6771  159.3549 C   0  0  1  0  0  0  0  0  0  0  0  0
  151.0480  137.7782  158.9214 N   0  0  0  0  0  0  0  0  0  0  0  0
  152.3834  137.6256  158.6183 C   0  0  0  0  0  0  0  0  0  0  0  0
  153.2549  135.9343  158.7042 Br  0  0  0  0  0  0  0  0  0  0  0  0
  153.0492  138.6842  158.2584 N   0  0  0  0  0  0  0  0  0  0  0  0
  152.0894  139.6818  158.3266 C   0  0  0  0  0  0  0  0  0  0  0  0
  152.1134  141.0744  158.0630 C   0  0  0  0  0  0  0  0  0  0  0  0
  153.2129  141.7208  157.6523 N   0  0  0  0  0  0  0  0  0  0  0  0
  150.9761  141.7863  158.2283 N   0  0  0  0  0  0  0  0  0  0  0  0
  149.8676  141.1642  158.6363 C   0  0  0  0  0  0  0  0  0  0  0  0
  149.6948  139.8719  158.9205 N   0  0  0  0  0  0  0  0  0  0  0  0
  150.8367  139.1414  158.7495 C   0  0  0  0  0  0  0  0  0  0  0  0
  148.6436  137.0989  159.5210 C   0  0  2  0  0  0  0  0  0  0  0  0
  147.9576  136.1133  160.2882 O   0  0  0  0  0  0  0  0  0  0  0  0
  148.0403  136.1152  161.6297 C   0  0  0  0  0  0  0  0  0  0  0  0
  147.4069  134.8774  162.2505 C   0  0  0  0  0  0  0  0  0  0  0  0
  148.5614  136.9887  162.3230 O   0  0  0  0  0  0  0  0  0  0  0  0
  148.1627  137.1002  158.0721 C   0  0  2  0  0  0  0  0  0  0  0  0
  146.7633  136.8713  157.9573 O   0  0  0  0  0  0  0  0  0  0  0  0
  146.2014  136.7370  156.7431 C   0  0  0  0  0  0  0  0  0  0  0  0
  144.6905  136.5632  156.8187 C   0  0  0  0  0  0  0  0  0  0  0  0
  146.7945  136.7529  155.6643 O   0  0  0  0  0  0  0  0  0  0  0  0
  151.0188  139.6149  154.8965 H   0  0  0  0  0  0  0  0  0  0  0  0
  152.4252  138.9914  154.0240 H   0  0  0  0  0  0  0  0  0  0  0  0
  152.4790  139.1546  155.7849 H   0  0  0  0  0  0  0  0  0  0  0  0
  148.6249  136.3713  155.3497 H   0  0  0  0  0  0  0  0  0  0  0  0
  150.0484  135.3832  155.6456 H   0  0  0  0  0  0  0  0  0  0  0  0
  148.4118  135.0546  157.4433 H   0  0  0  0  0  0  0  0  0  0  0  0
  150.5691  136.2851  160.2625 H   0  0  0  0  0  0  0  0  0  0  0  0
  154.0750  141.2125  157.5177 H   0  0  0  0  0  0  0  0  0  0  0  0
  153.1780  142.7153  157.4819 H   0  0  0  0  0  0  0  0  0  0  0  0
  148.9939  141.7891  158.7504 H   0  0  0  0  0  0  0  0  0  0  0  0
  148.5435  138.0675  160.0064 H   0  0  0  0  0  0  0  0  0  0  0  0
  146.3365  134.8576  162.0454 H   0  0  0  0  0  0  0  0  0  0  0  0
  147.5521  134.8728  163.3311 H   0  0  0  0  0  0  0  0  0  0  0  0
  147.8559  133.9739  161.8379 H   0  0  0  0  0  0  0  0  0  0  0  0
  148.4248  138.0448  157.5969 H   0  0  0  0  0  0  0  0  0  0  0  0
  144.4403  135.6580  157.3719 H   0  0  0  0  0  0  0  0  0  0  0  0
  144.2629  136.4869  155.8187 H   0  0  0  0  0  0  0  0  0  0  0  0
  144.2365  137.4159  157.3238 H   0  0  0  0  0  0  0  0  0  0  0  0
  1  2  1  0  0  0  0
  1 30  1  0  0  0  0
  1 31  1  0  0  0  0
  1 32  1  0  0  0  0
  2  3  2  0  0  0  0
  2  4  1  0  0  0  0
  4  5  1  0  0  0  0
  5  6  1  0  0  0  0
  5 33  1  0  0  0  0
  5 34  1  0  0  0  0
  6 25  1  0  0  0  0
  6  7  1  0  0  0  0
  6 35  1  0  0  0  0
  7  8  1  0  0  0  0
  8  9  1  0  0  0  0
  8 20  1  0  0  0  0
  8 36  1  0  0  0  0
  9 19  1  0  0  0  0
  9 10  1  0  0  0  0
 10 11  1  0  0  0  0
 10 12  2  0  0  0  0
 12 13  1  0  0  0  0
 13 19  2  0  0  0  0
 13 14  1  0  0  0  0
 14 15  1  0  0  0  0
 14 16  2  0  0  0  0
 15 37  1  0  0  0  0
 15 38  1  0  0  0  0
 16 17  1  0  0  0  0
 17 18  2  0  0  0  0
 17 39  1  0  0  0  0
 18 19  1  0  0  0  0
 20 21  1  0  0  0  0
 20 25  1  0  0  0  0
 20 40  1  0  0  0  0
 21 22  1  0  0  0  0
 22 23  1  0  0  0  0
 22 24  2  0  0  0  0
 23 41  1  0  0  0  0
 23 42  1  0  0  0  0
 23 43  1  0  0  0  0
 25 26  1  0  0  0  0
 25 44  1  0  0  0  0
 26 27  1  0  0  0  0
 27 28  1  0  0  0  0
 27 29  2  0  0  0  0
 28 45  1  0  0  0  0
 28 46  1  0  0  0  0
 28 47  1  0  0  0  0
M  END
> <s_m_source_file>
AV-unprocessed.smi

> <i_m_source_file_index>
104

> <i_lp_mmshare_version>
43012

> <i_f3d_flags>
0

> <s_epik_input>
W0NIM11DKD1PKU9bQ0gyXVtDQEBIXTFPW0NASF0oW0NAQEhdKE9DKD1PKVtDSDNdKVtDQEhdMU9DKD1PKVtDSDNdKW4oYyhCciluMiljKGMyMyluW2NIXW5jM1tOSDJd

> <s_epik_cmdline>
J2VwaWtfcHl0aG9uJywgJy1waCcsICc3LjAnLCAnLXRuJywgJzgnLCAnLW1hJywgJzIwMCcsICctbWV0YWxfYmluZGluZycsICctaW1hZScsICc8aW5maWxlLm1hZT4nLCAnLW9tYWUnLCAnPG91dGZpbGUubWFlPic=

> <r_lp_tautomer_probability>
1

> <r_epik_Ionization_Penalty>
7.36622e-05

> <r_epik_Ionization_Penalty_Charging>
0

> <r_epik_Ionization_Penalty_Neutral>
7.36622e-05

> <r_epik_State_Penalty>
-0

> <r_epik_Charging_Adjusted_Penalty>
0

> <i_epik_Tot_Q>
0

> <i_epik_Tot_abs_Q>
0

> <r_epik_Metal_State_Penalty>
-0

> <b_epik_Metal_Only>
0

> <s_epik_Chemistry_Notes>
This compound has an ester and may undergo hydrolysis at high or low pH. This compound contains an acetal/aminal-like group ( X-CH(R)-Y where X, Y are N, S, or O) that may be acid/base labile, releasing an aldehyde.

> <s_lp_Force_Field>
OPLS_2005

> <r_lp_Energy>
17.7308

> <b_lp_Chiralities_Consistent>
1

> <s_lp_Variant>
AV-unprocessed.smi:104-14

> <Gold.Version>
5.8.1

> <Gold.Id.Protein>
6NUR|6NUR_protein|mol2

> <Gold.PLP.Fitness>
46.1437

> <Gold.PLP.PLP>
-33.4374

> <Gold.PLP.part.hbond>
-5.8315

> <Gold.PLP.part.metal>
0.0000

> <Gold.PLP.part.buried>
-7.6475

> <Gold.PLP.part.nonpolar>
-20.6893

> <Gold.PLP.part.repulsive>
0.8284

> <Gold.PLP.ligand.clash>
0.0000

> <Gold.PLP.ligand.torsion>
0.6367

> <Gold.PLP.Chemscore.Hbond>
4.5606

> <Gold.PLP.Chemscore.CHOScore>
0.0000

> <Gold.PLP.Chemscore.Metal>
0.0000

> <Gold.Chemscore.Hbonds>
donor molecule, donor type, donor heavy atom, donor atom, acceptor molecule, acceptor atom, score
      P1  H  6896  6907       L1     7  0.05
      P1  H  6931  6943       L1    24  0.65
      P1  H  7997  8010       L1    12  0.02
      P1  H 10752 10763       L1     3  0.89

> <Gold.PLP.Chemscore.Internal.Correction>
0.2980

> <Gold.Rescore>
     Score         DG    S(hbond)    S(metal)    S(lipo)     H(rot)  DE(clash)    DE(int)     intcor
     11.98     -13.35       4.44        0.00      34.75       4.31       0.06       1.32       ----

> <Gold.Chemscore.Fitness>
11.9794

> <Gold.Chemscore.DG>
-13.3548

> <Gold.Chemscore.ZeroCoef>
-5.4800

> <Gold.Chemscore.Hbond>
4.4415

> <Gold.Chemscore.Metal>
0.0000

> <Gold.Chemscore.Lipo>
34.7538

> <Gold.Chemscore.Internal_Hbond>
0.0000

> <Gold.Chemscore.DEClash>
0.0580

> <Gold.Chemscore.DEInternal>
1.3174

> <Gold.Chemscore.Rot>
4.3070

> <Gold.Chemscore.Internal.Correction>
   9.000000E+99

> <Gold.Chemscore.Hbonds>
donor molecule, donor type, donor heavy atom, donor atom, acceptor molecule, acceptor atom, score
      P1  H  6931  6943       L1    24  0.64
      P1  H 10752 10763       L1     3  0.85

> <Gold.Chemscore.Hbond.Weighted>
-14.8345

> <Gold.Chemscore.Metal.Weighted>
-0.0000

> <Gold.Chemscore.Lipo.Weighted>
-4.0662

> <Gold.Chemscore.Internal_Hbond.Weighted>
0.0000

> <Gold.Chemscore.DEClash.Weighted>
0.0580

> <Gold.Chemscore.DEInternal.Weighted>
1.3174

> <Gold.Chemscore.Rot.Weighted>
11.0259

> <Gold.Chemscore.Internal.Correction.Weighted>
   9.000000E+99

> <Gold.Protein.RotatedTorsions>
[ 6907 6896 6895 6894 ] final  -59.29 input  -60.11 | X-H torsion
[ 7974 7965 7964 7962 ] final  164.51 input  175.53 | X-H torsion
[ 8008 7997 7996 7995 ] final   46.73 input   59.86 | X-H torsion
[ 10167 10162 10161 10158 ] final -134.27 input  -65.29 | X-H torsion
[ 10718 10713 10712 10709 ] final  101.82 input   66.30 | X-H torsion
[ 10763 10752 10751 10750 ] final   59.57 input  -60.55 | X-H torsion
[ 11005 11000 10999 10996 ] final  -21.36 input  -57.11 | X-H torsion

> <Gold.Protein.ActiveResidues>
 VAL166  LYS551  ARG553  GLY616  TRP617  ASP618  TYR619  PRO620  LYS621  CYS622 
 ASP623  PHE694  ASN695  SER759  ASP760  ASP761  ALA762  ILE779  LEU786  VAL792 
 PHE793  MET794  SER795  GLU796  ALA797  LYS798  CYS799  TRP800  GLU811  SER814 

> <Gold.Protein.RotatedAtoms>
  150.7941  134.6987  159.6537 H   0  0  0  0  0  0  0  0  0  0  0  0  # atno 6907 bound_to 6896
  152.4051  134.6217  160.0062 H   0  0  0  0  0  0  0  0  0  0  0  0  # atno 6908 bound_to 6896
  151.6477  133.3285  159.3181 H   0  0  0  0  0  0  0  0  0  0  0  0  # atno 6909 bound_to 6896
  144.7542  139.8337  143.6356 H   0  0  0  0  0  0  0  0  0  0  0  0  # atno 7974 bound_to 7965
  155.3572  140.3417  155.4240 H   0  0  0  0  0  0  0  0  0  0  0  0  # atno 8008 bound_to 7997
  156.1732  140.1639  156.8444 H   0  0  0  0  0  0  0  0  0  0  0  0  # atno 8009 bound_to 7997
  154.5255  140.0757  156.8233 H   0  0  0  0  0  0  0  0  0  0  0  0  # atno 8010 bound_to 7997
  139.8898  143.6737  152.2614 H   0  0  0  0  0  0  0  0  0  0  0  0  # atno 10167 bound_to 10162
  157.6819  131.0736  150.5310 H   0  0  0  0  0  0  0  0  0  0  0  0  # atno 10718 bound_to 10713
  152.9898  135.5567  154.5735 H   0  0  0  0  0  0  0  0  0  0  0  0  # atno 10763 bound_to 10752
  154.5131  135.2803  155.1328 H   0  0  0  0  0  0  0  0  0  0  0  0  # atno 10764 bound_to 10752
  154.2712  135.6362  153.5364 H   0  0  0  0  0  0  0  0  0  0  0  0  # atno 10765 bound_to 10752
  140.8554  133.7826  156.0013 H   0  0  0  0  0  0  0  0  0  0  0  0  # atno 11005 bound_to 11000
  146.1531  139.4620  143.0036 LP  0  0  0  0  0  0  0  0  0  0  0  0  # atno 17320 bound_to 7965
  145.6838  141.0184  143.1592 LP  0  0  0  0  0  0  0  0  0  0  0  0  # atno 17321 bound_to 7965
  139.7120  144.7618  151.1096 LP  0  0  0  0  0  0  0  0  0  0  0  0  # atno 17342 bound_to 10162
  140.7729  143.5318  150.9414 LP  0  0  0  0  0  0  0  0  0  0  0  0  # atno 17343 bound_to 10162
  156.5620  130.4258  149.6058 LP  0  0  0  0  0  0  0  0  0  0  0  0  # atno 17370 bound_to 10713
  156.2813  130.7072  151.1897 LP  0  0  0  0  0  0  0  0  0  0  0  0  # atno 17371 bound_to 10713
  140.8743  134.2688  157.5175 LP  0  0  0  0  0  0  0  0  0  0  0  0  # atno 17394 bound_to 11000
  139.8705  134.9583  156.4296 LP  0  0  0  0  0  0  0  0  0  0  0  0  # atno 17395 bound_to 11000

$$$$
