AV-unprocessed.smi:767|AV-procd|sdf|3657|dock5
  -GOLD-   22720 1 63D 1   1.00000     0.00000
 Structure written by MMmdl.
 47 49  0  0  0  0  0  0  0  0  1 V2000
  151.0037  141.8311  156.6884 C   0  0  0  0  0  0  0  0  0  0  0  0
  150.9448  140.3426  156.4147 C   0  0  0  0  0  0  0  0  0  0  0  0
  150.6397  139.4299  157.4465 C   0  0  0  0  0  0  0  0  0  0  0  0
  150.5965  138.0570  157.1361 C   0  0  0  0  0  0  0  0  0  0  0  0
  150.8563  137.6508  155.8112 C   0  0  0  0  0  0  0  0  0  0  0  0
  150.8160  136.1860  155.4239 C   0  0  0  0  0  0  0  0  0  0  0  0
  149.4386  135.5568  155.6872 C   0  0  0  0  0  0  0  0  0  0  0  0
  148.6875  135.3749  154.4512 N   0  0  0  0  0  0  0  0  0  0  0  0
  147.4764  134.8080  154.3647 C   0  0  0  0  0  0  0  0  0  0  0  0
  146.8498  134.3657  155.3279 O   0  0  0  0  0  0  0  0  0  0  0  0
  147.0265  134.7876  153.1038 N   0  0  0  0  0  0  0  0  0  0  0  0
  145.7297  134.2562  152.7023 C   0  0  2  0  0  0  0  0  0  0  0  0
  145.8126  133.4074  151.4335 C   0  0  1  0  0  0  0  0  0  0  0  0
  145.6076  131.9672  151.1242 C   0  0  0  0  0  0  0  0  0  0  0  0
  144.7258  132.1462  149.8591 C   0  0  0  0  0  0  0  0  0  0  0  0
  144.3665  133.5493  149.8201 O   0  0  0  0  0  0  0  0  0  0  0  0
  144.4197  133.9474  151.1747 C   0  0  2  0  0  0  0  0  0  0  0  0
  144.8760  135.2612  151.8405 C   0  0  0  0  0  0  0  0  0  0  0  0
  143.7887  136.0166  152.6053 C   0  0  0  0  0  0  0  0  0  0  0  0
  145.5870  136.3053  150.9557 C   0  0  0  0  0  0  0  0  0  0  0  0
  151.1480  138.6444  154.8528 C   0  0  0  0  0  0  0  0  0  0  0  0
  151.1929  139.9629  155.1417 N   0  0  0  0  0  0  0  0  0  0  0  0
  151.1013  142.0303  157.7559 H   0  0  0  0  0  0  0  0  0  0  0  0
  150.0949  142.3156  156.3311 H   0  0  0  0  0  0  0  0  0  0  0  0
  151.8569  142.2830  156.1813 H   0  0  0  0  0  0  0  0  0  0  0  0
  150.4430  139.7709  158.4524 H   0  0  0  0  0  0  0  0  0  0  0  0
  150.3659  137.3313  157.9025 H   0  0  0  0  0  0  0  0  0  0  0  0
  151.0786  136.0954  154.3691 H   0  0  0  0  0  0  0  0  0  0  0  0
  151.5858  135.6488  155.9796 H   0  0  0  0  0  0  0  0  0  0  0  0
  149.5604  134.5787  156.1535 H   0  0  0  0  0  0  0  0  0  0  0  0
  148.8649  136.1666  156.3875 H   0  0  0  0  0  0  0  0  0  0  0  0
  149.1195  135.7090  153.6021 H   0  0  0  0  0  0  0  0  0  0  0  0
  147.6106  135.1749  152.3770 H   0  0  0  0  0  0  0  0  0  0  0  0
  145.1737  133.7690  153.5088 H   0  0  0  0  0  0  0  0  0  0  0  0
  146.5632  133.8155  150.7522 H   0  0  0  0  0  0  0  0  0  0  0  0
  146.5390  131.4405  150.9147 H   0  0  0  0  0  0  0  0  0  0  0  0
  145.0765  131.4497  151.9244 H   0  0  0  0  0  0  0  0  0  0  0  0
  145.2634  131.8827  148.9479 H   0  0  0  0  0  0  0  0  0  0  0  0
  143.8315  131.5246  149.9174 H   0  0  0  0  0  0  0  0  0  0  0  0
  143.6358  133.4465  151.7547 H   0  0  0  0  0  0  0  0  0  0  0  0
  143.0591  136.4623  151.9285 H   0  0  0  0  0  0  0  0  0  0  0  0
  144.2096  136.8182  153.2132 H   0  0  0  0  0  0  0  0  0  0  0  0
  143.2420  135.3573  153.2800 H   0  0  0  0  0  0  0  0  0  0  0  0
  144.8947  136.7467  150.2384 H   0  0  0  0  0  0  0  0  0  0  0  0
  146.4158  135.9002  150.3780 H   0  0  0  0  0  0  0  0  0  0  0  0
  145.9939  137.1208  151.5545 H   0  0  0  0  0  0  0  0  0  0  0  0
  151.3479  138.3754  153.8261 H   0  0  0  0  0  0  0  0  0  0  0  0
  1  2  1  0  0  0  0
  1 23  1  0  0  0  0
  1 24  1  0  0  0  0
  1 25  1  0  0  0  0
  2 22  1  0  0  0  0
  2  3  2  0  0  0  0
  3  4  1  0  0  0  0
  3 26  1  0  0  0  0
  4  5  2  0  0  0  0
  4 27  1  0  0  0  0
  5  6  1  0  0  0  0
  5 21  1  0  0  0  0
  6  7  1  0  0  0  0
  6 28  1  0  0  0  0
  6 29  1  0  0  0  0
  7  8  1  0  0  0  0
  7 30  1  0  0  0  0
  7 31  1  0  0  0  0
  8  9  1  0  0  0  0
  8 32  1  0  0  0  0
  9 10  2  0  0  0  0
  9 11  1  0  0  0  0
 11 12  1  0  0  0  0
 11 33  1  0  0  0  0
 12 18  1  0  0  0  0
 12 13  1  0  0  0  0
 12 34  1  0  0  0  0
 13 17  1  0  0  0  0
 13 14  1  0  0  0  0
 13 35  1  0  0  0  0
 14 15  1  0  0  0  0
 14 36  1  0  0  0  0
 14 37  1  0  0  0  0
 15 16  1  0  0  0  0
 15 38  1  0  0  0  0
 15 39  1  0  0  0  0
 16 17  1  0  0  0  0
 17 18  1  0  0  0  0
 17 40  1  0  0  0  0
 18 19  1  0  0  0  0
 18 20  1  0  0  0  0
 19 41  1  0  0  0  0
 19 42  1  0  0  0  0
 19 43  1  0  0  0  0
 20 44  1  0  0  0  0
 20 45  1  0  0  0  0
 20 46  1  0  0  0  0
 21 22  2  0  0  0  0
 21 47  1  0  0  0  0
M  END
> <s_m_source_file>
AV-unprocessed.smi

> <i_m_source_file_index>
767

> <i_lp_mmshare_version>
43012

> <i_f3d_flags>
0

> <s_epik_input>
W0NIM11jMVtjSF1bY0hdYyhbY0hdbjEpW0NIMl1bQ0gyXVtOSF1DKD1PKVtOSF1bQ0BIXTJDKFtDSDNdKShbQ0gzXSlbQ0BIXShbQ0BASF0yMylPW0NIMl1bQ0gyXTM=

> <s_epik_cmdline>
J2VwaWtfcHl0aG9uJywgJy1waCcsICc3LjAnLCAnLXRuJywgJzgnLCAnLW1hJywgJzIwMCcsICctbWV0YWxfYmluZGluZycsICctaW1hZScsICc8aW5maWxlLm1hZT4nLCAnLW9tYWUnLCAnPG91dGZpbGUubWFlPic=

> <r_epik_Ionization_Penalty>
0.0567523

> <r_epik_Ionization_Penalty_Charging>
0

> <r_epik_Ionization_Penalty_Neutral>
0.0567523

> <r_epik_State_Penalty>
0.0489186

> <r_epik_Charging_Adjusted_Penalty>
0.0489186

> <i_epik_Tot_Q>
0

> <i_epik_Tot_abs_Q>
0

> <r_epik_Metal_State_Penalty>
0.044622

> <b_epik_Metal_Only>
0

> <s_lp_Force_Field>
OPLS_2005

> <r_lp_Energy>
54.5337

> <b_lp_Chiralities_Consistent>
1

> <s_lp_Variant>
AV-unprocessed.smi:767-1

> <Gold.Version>
5.8.1

> <Gold.Id.Protein>
6NUR|6NUR_protein|mol2

> <Gold.PLP.Fitness>
43.6227

> <Gold.PLP.PLP>
-35.2899

> <Gold.PLP.part.hbond>
-3.0000

> <Gold.PLP.part.metal>
0.0000

> <Gold.PLP.part.buried>
-5.7912

> <Gold.PLP.part.nonpolar>
-26.8595

> <Gold.PLP.part.repulsive>
0.6109

> <Gold.PLP.ligand.clash>
0.0000

> <Gold.PLP.ligand.torsion>
0.4576

> <Gold.PLP.Chemscore.Hbond>
2.9920

> <Gold.PLP.Chemscore.CHOScore>
0.0000

> <Gold.PLP.Chemscore.Metal>
0.0000

> <Gold.Chemscore.Hbonds>
donor molecule, donor type, donor heavy atom, donor atom, acceptor molecule, acceptor atom, score
      L1  H     8    32       P1  7948  1.00
      L1  H    11    33       P1  7948  1.00
      P1  H  7989  7998       L1    22  1.00

> <Gold.PLP.Chemscore.Internal.Correction>
0.2721

> <Gold.Rescore>
     Score         DG    S(hbond)    S(metal)    S(lipo)     H(rot)  DE(clash)    DE(int)     intcor
     20.95     -21.43       2.69        0.00      91.33       1.45       0.01       0.47       ----

> <Gold.Chemscore.Fitness>
20.9474

> <Gold.Chemscore.DG>
-21.4300

> <Gold.Chemscore.ZeroCoef>
-5.4800

> <Gold.Chemscore.Hbond>
2.6873

> <Gold.Chemscore.Metal>
0.0000

> <Gold.Chemscore.Lipo>
91.3319

> <Gold.Chemscore.Internal_Hbond>
0.0000

> <Gold.Chemscore.DEClash>
0.0108

> <Gold.Chemscore.DEInternal>
0.4719

> <Gold.Chemscore.Rot>
1.4497

> <Gold.Chemscore.Internal.Correction>
   9.000000E+99

> <Gold.Chemscore.Hbonds>
donor molecule, donor type, donor heavy atom, donor atom, acceptor molecule, acceptor atom, score
      L1  H     8    32       P1  7948  0.70
      L1  H    11    33       P1  7948  0.96
      P1  H  7989  7998       L1    22  0.60

> <Gold.Chemscore.Hbond.Weighted>
-8.9754

> <Gold.Chemscore.Metal.Weighted>
-0.0000

> <Gold.Chemscore.Lipo.Weighted>
-10.6858

> <Gold.Chemscore.Internal_Hbond.Weighted>
0.0000

> <Gold.Chemscore.DEClash.Weighted>
0.0108

> <Gold.Chemscore.DEInternal.Weighted>
0.4719

> <Gold.Chemscore.Rot.Weighted>
3.7112

> <Gold.Chemscore.Internal.Correction.Weighted>
   9.000000E+99

> <Gold.Protein.RotatedTorsions>
[ 6907 6896 6895 6894 ] final -115.34 input  -60.11 | X-H torsion
[ 7974 7965 7964 7962 ] final   72.25 input  175.53 | X-H torsion
[ 8008 7997 7996 7995 ] final   49.02 input   59.86 | X-H torsion
[ 10167 10162 10161 10158 ] final  140.64 input  -65.29 | X-H torsion
[ 10718 10713 10712 10709 ] final  170.07 input   66.30 | X-H torsion
[ 10763 10752 10751 10750 ] final -157.50 input  -60.55 | X-H torsion
[ 11005 11000 10999 10996 ] final  -34.84 input  -57.11 | X-H torsion

> <Gold.Protein.ActiveResidues>
 VAL166  LYS551  ARG553  GLY616  TRP617  ASP618  TYR619  PRO620  LYS621  CYS622 
 ASP623  PHE694  ASN695  SER759  ASP760  ASP761  ALA762  ILE779  LEU786  VAL792 
 PHE793  MET794  SER795  GLU796  ALA797  LYS798  CYS799  TRP800  GLU811  SER814 

> <Gold.Protein.RotatedAtoms>
  150.7970  133.8672  159.3248 H   0  0  0  0  0  0  0  0  0  0  0  0  # atno 6907 bound_to 6896
  151.6495  135.1001  160.0167 H   0  0  0  0  0  0  0  0  0  0  0  0  # atno 6908 bound_to 6896
  152.4053  133.6840  159.6386 H   0  0  0  0  0  0  0  0  0  0  0  0  # atno 6909 bound_to 6896
  145.7558  139.2779  143.1405 H   0  0  0  0  0  0  0  0  0  0  0  0  # atno 7974 bound_to 7965
  155.3953  140.3435  155.4253 H   0  0  0  0  0  0  0  0  0  0  0  0  # atno 8008 bound_to 7997
  156.1534  140.1578  156.8764 H   0  0  0  0  0  0  0  0  0  0  0  0  # atno 8009 bound_to 7997
  154.5073  140.0799  156.7901 H   0  0  0  0  0  0  0  0  0  0  0  0  # atno 8010 bound_to 7997
  139.5043  144.6221  151.6025 H   0  0  0  0  0  0  0  0  0  0  0  0  # atno 10167 bound_to 10162
  157.0134  131.0211  151.2796 H   0  0  0  0  0  0  0  0  0  0  0  0  # atno 10718 bound_to 10713
  154.7631  135.3123  154.8339 H   0  0  0  0  0  0  0  0  0  0  0  0  # atno 10763 bound_to 10752
  153.9095  135.6807  153.4756 H   0  0  0  0  0  0  0  0  0  0  0  0  # atno 10764 bound_to 10752
  153.1234  135.4812  154.9164 H   0  0  0  0  0  0  0  0  0  0  0  0  # atno 10765 bound_to 10752
  140.9749  133.7089  156.1585 H   0  0  0  0  0  0  0  0  0  0  0  0  # atno 11005 bound_to 11000
  146.0313  140.8255  142.9875 LP  0  0  0  0  0  0  0  0  0  0  0  0  # atno 17320 bound_to 7965
  144.6840  140.2772  143.7297 LP  0  0  0  0  0  0  0  0  0  0  0  0  # atno 17321 bound_to 7965
  140.5927  143.9751  150.6334 LP  0  0  0  0  0  0  0  0  0  0  0  0  # atno 17342 bound_to 10162
  140.2937  143.3307  152.1038 LP  0  0  0  0  0  0  0  0  0  0  0  0  # atno 17343 bound_to 10162
  157.5303  130.8054  149.7909 LP  0  0  0  0  0  0  0  0  0  0  0  0  # atno 17370 bound_to 10713
  156.0128  130.3826  150.2209 LP  0  0  0  0  0  0  0  0  0  0  0  0  # atno 17371 bound_to 10713
  140.7274  134.4292  157.5569 LP  0  0  0  0  0  0  0  0  0  0  0  0  # atno 17394 bound_to 11000
  139.8926  134.8750  156.2261 LP  0  0  0  0  0  0  0  0  0  0  0  0  # atno 17395 bound_to 11000

$$$$
