AV-unprocessed.smi:1560|AV-procd|sdf|6282|dock1
  -GOLD-   22720 6483D 1   1.00000     0.00000
 Structure written by MMmdl.
 47 48  0  0  0  0  0  0  0  0  3 V2000
  147.8598  131.2855  155.3489 C   0  0  0  0  0  0  0  0  0  0  0  0
  146.6428  131.4534  154.4216 C   0  0  0  0  0  0  0  0  0  0  0  0
  146.1708  132.9217  154.1871 C   0  0  2  0  0  0  0  0  0  0  0  0
  147.3842  133.7081  153.6224 C   0  0  0  0  0  0  0  0  0  0  0  0
  145.7298  133.5401  155.5519 C   0  0  0  0  0  0  0  0  0  0  0  0
  146.8497  134.0301  156.3525 N   0  0  0  0  0  0  0  0  0  0  0  0
  146.7507  134.6758  157.5239 C   0  0  0  0  0  0  0  0  0  0  0  0
  145.6832  134.8678  158.1066 O   0  0  0  0  0  0  0  0  0  0  0  0
  148.0622  135.1878  158.1275 C   0  0  0  0  0  0  0  0  0  0  0  0
  147.8728  135.6454  159.5122 N   0  0  0  0  0  0  0  0  0  0  0  0
  147.6078  134.6752  160.4946 C   0  0  0  0  0  0  0  0  0  0  0  0
  147.4054  135.0072  161.7838 C   0  0  0  0  0  0  0  0  0  0  0  0
  147.4670  136.4164  162.1519 C   0  0  0  0  0  0  0  0  0  0  0  0
  147.2874  136.7378  163.3250 O   0  0  0  0  0  0  0  0  0  0  0  0
  147.7236  137.3206  161.1617 N   0  5  0  0  0  0  0  0  0  0  0  0
  147.9243  136.9689  159.8542 C   0  0  0  0  0  0  0  0  0  0  0  0
  148.1461  137.8023  158.9741 O   0  0  0  0  0  0  0  0  0  0  0  0
  145.0325  132.9516  153.1973 N   0  3  0  0  0  0  0  0  0  0  0  0
  144.4195  134.2873  152.9501 C   0  0  0  0  0  0  0  0  0  0  0  0
  143.1483  134.1465  152.0974 C   0  0  0  0  0  0  0  0  0  0  0  0
  143.4709  133.5155  150.8664 O   0  0  0  0  0  0  0  0  0  0  0  0
  143.9839  132.2059  151.0657 C   0  0  0  0  0  0  0  0  0  0  0  0
  145.2786  132.2703  151.8942 C   0  0  0  0  0  0  0  0  0  0  0  0
  148.1151  130.2308  155.4527 H   0  0  0  0  0  0  0  0  0  0  0  0
  147.6618  131.6675  156.3502 H   0  0  0  0  0  0  0  0  0  0  0  0
  148.7415  131.7951  154.9605 H   0  0  0  0  0  0  0  0  0  0  0  0
  146.8527  130.9627  153.4716 H   0  0  0  0  0  0  0  0  0  0  0  0
  145.8252  130.8716  154.8497 H   0  0  0  0  0  0  0  0  0  0  0  0
  148.2954  133.5080  154.1866 H   0  0  0  0  0  0  0  0  0  0  0  0
  147.2296  134.7862  153.6656 H   0  0  0  0  0  0  0  0  0  0  0  0
  147.5909  133.4465  152.5844 H   0  0  0  0  0  0  0  0  0  0  0  0
  145.0028  134.3391  155.4043 H   0  0  0  0  0  0  0  0  0  0  0  0
  145.2292  132.7932  156.1669 H   0  0  0  0  0  0  0  0  0  0  0  0
  147.7725  133.9246  155.9557 H   0  0  0  0  0  0  0  0  0  0  0  0
  148.7973  134.3834  158.0831 H   0  0  0  0  0  0  0  0  0  0  0  0
  148.4776  135.9919  157.5168 H   0  0  0  0  0  0  0  0  0  0  0  0
  147.5716  133.6564  160.1377 H   0  0  0  0  0  0  0  0  0  0  0  0
  147.1987  134.2503  162.5261 H   0  0  0  0  0  0  0  0  0  0  0  0
  144.1498  134.7834  153.8803 H   0  0  0  0  0  0  0  0  0  0  0  0
  145.1241  134.9370  152.4307 H   0  0  0  0  0  0  0  0  0  0  0  0
  142.3821  133.5777  152.6269 H   0  0  0  0  0  0  0  0  0  0  0  0
  142.7268  135.1297  151.8873 H   0  0  0  0  0  0  0  0  0  0  0  0
  143.2376  131.5808  151.5589 H   0  0  0  0  0  0  0  0  0  0  0  0
  144.1835  131.7542  150.0937 H   0  0  0  0  0  0  0  0  0  0  0  0
  146.0464  132.8001  151.3300 H   0  0  0  0  0  0  0  0  0  0  0  0
  145.6287  131.2490  152.0320 H   0  0  0  0  0  0  0  0  0  0  0  0
  144.3067  132.4061  153.6400 H   0  0  0  0  0  0  0  0  0  0  0  0
  1  2  1  0  0  0  0
  1 24  1  0  0  0  0
  1 25  1  0  0  0  0
  1 26  1  0  0  0  0
  2  3  1  0  0  0  0
  2 27  1  0  0  0  0
  2 28  1  0  0  0  0
  3  4  1  0  0  0  0
  3  5  1  0  0  0  0
  3 18  1  0  0  0  0
  4 29  1  0  0  0  0
  4 30  1  0  0  0  0
  4 31  1  0  0  0  0
  5  6  1  0  0  0  0
  5 32  1  0  0  0  0
  5 33  1  0  0  0  0
  6  7  1  0  0  0  0
  6 34  1  0  0  0  0
  7  8  2  0  0  0  0
  7  9  1  0  0  0  0
  9 10  1  0  0  0  0
  9 35  1  0  0  0  0
  9 36  1  0  0  0  0
 10 16  1  0  0  0  0
 10 11  1  0  0  0  0
 11 12  2  0  0  0  0
 11 37  1  0  0  0  0
 12 13  1  0  0  0  0
 12 38  1  0  0  0  0
 13 14  2  0  0  0  0
 13 15  1  0  0  0  0
 15 16  1  0  0  0  0
 16 17  2  0  0  0  0
 18 23  1  0  0  0  0
 18 19  1  0  0  0  0
 18 47  1  0  0  0  0
 19 20  1  0  0  0  0
 19 39  1  0  0  0  0
 19 40  1  0  0  0  0
 20 21  1  0  0  0  0
 20 41  1  0  0  0  0
 20 42  1  0  0  0  0
 21 22  1  0  0  0  0
 22 23  1  0  0  0  0
 22 43  1  0  0  0  0
 22 44  1  0  0  0  0
 23 45  1  0  0  0  0
 23 46  1  0  0  0  0
M  CHG  1  15  -1
M  CHG  1  18   1
M  END
> <s_m_source_file>
AV-unprocessed.smi

> <i_m_source_file_index>
1560

> <i_lp_mmshare_version>
43012

> <i_f3d_flags>
0

> <s_epik_input>
W0NIMl0xW0NIMl1PW0NIMl1bQ0gyXU4xW0NAQF0oW0NIM10pKFtDSDJdW0NIM10pW0NIMl1bTkhdQyg9TylbQ0gyXW4yW2NIXVtjSF1jKD1PKVtuSF1jMj1P

> <s_epik_cmdline>
J2VwaWtfcHl0aG9uJywgJy1waCcsICc3LjAnLCAnLXRuJywgJzgnLCAnLW1hJywgJzIwMCcsICctbWV0YWxfYmluZGluZycsICctaW1hZScsICc8aW5maWxlLm1hZT4nLCAnLW9tYWUnLCAnPG91dGZpbGUubWFlPic=

> <r_lp_tautomer_probability>
0.999537

> <r_epik_Ionization_Penalty>
3.51944

> <r_epik_Ionization_Penalty_Charging>
0.588852

> <r_epik_Ionization_Penalty_Neutral>
2.93059

> <r_epik_State_Penalty>
3.4987

> <r_epik_Charging_Adjusted_Penalty>
4.08755

> <i_epik_Tot_Q>
0

> <i_epik_Tot_abs_Q>
2

> <r_epik_Metal_State_Penalty>
1.01204

> <b_epik_Metal_Only>
1

> <s_lp_Force_Field>
OPLS_2005

> <r_lp_Energy>
35.7671

> <b_lp_Chiralities_Consistent>
1

> <s_lp_Variant>
AV-unprocessed.smi:1560-8

> <Gold.Version>
5.8.1

> <Gold.Id.Protein>
6NUR|6NUR_protein|mol2

> <Gold.PLP.Fitness>
41.2332

> <Gold.PLP.PLP>
-25.8414

> <Gold.PLP.part.hbond>
-3.1584

> <Gold.PLP.part.metal>
0.0000

> <Gold.PLP.part.buried>
-4.6493

> <Gold.PLP.part.nonpolar>
-19.7093

> <Gold.PLP.part.repulsive>
0.9935

> <Gold.PLP.ligand.clash>
0.0000

> <Gold.PLP.ligand.torsion>
0.6223

> <Gold.PLP.Chemscore.Hbond>
5.4545

> <Gold.PLP.Chemscore.CHOScore>
0.0000

> <Gold.PLP.Chemscore.Metal>
0.0000

> <Gold.Chemscore.Hbonds>
donor molecule, donor type, donor heavy atom, donor atom, acceptor molecule, acceptor atom, score
      L1  H    18    47       P1 10957  1.72
      P1  H  6931  6943       L1    15  1.76
      P1  H  6934  6947       L1    15  1.63

> <Gold.PLP.Chemscore.Internal.Correction>
0.2729

> <Gold.Rescore>
     Score         DG    S(hbond)    S(metal)    S(lipo)     H(rot)  DE(clash)    DE(int)     intcor
      8.31     -10.84       1.79        0.00      49.28       2.50       1.74       0.80       ----

> <Gold.Chemscore.Fitness>
8.3079

> <Gold.Chemscore.DG>
-10.8449

> <Gold.Chemscore.ZeroCoef>
-5.4800

> <Gold.Chemscore.Hbond>
1.7942

> <Gold.Chemscore.Metal>
0.0000

> <Gold.Chemscore.Lipo>
49.2768

> <Gold.Chemscore.Internal_Hbond>
0.0000

> <Gold.Chemscore.DEClash>
1.7401

> <Gold.Chemscore.DEInternal>
0.7969

> <Gold.Chemscore.Rot>
2.4973

> <Gold.Chemscore.Internal.Correction>
   9.000000E+99

> <Gold.Chemscore.Hbonds>
donor molecule, donor type, donor heavy atom, donor atom, acceptor molecule, acceptor atom, score
      L1  H    18    47       P1 10957  0.21
      P1  H  6931  6943       L1    15  0.24
      P1  H  6934  6947       L1    15  0.21

> <Gold.Chemscore.Hbond.Weighted>
-5.9925

> <Gold.Chemscore.Metal.Weighted>
-0.0000

> <Gold.Chemscore.Lipo.Weighted>
-5.7654

> <Gold.Chemscore.Internal_Hbond.Weighted>
0.0000

> <Gold.Chemscore.DEClash.Weighted>
1.7401

> <Gold.Chemscore.DEInternal.Weighted>
0.7969

> <Gold.Chemscore.Rot.Weighted>
6.3930

> <Gold.Chemscore.Internal.Correction.Weighted>
   9.000000E+99

> <Gold.Protein.RotatedTorsions>
[ 6907 6896 6895 6894 ] final -136.10 input  -60.11 | X-H torsion
[ 7974 7965 7964 7962 ] final  -36.00 input  175.53 | X-H torsion
[ 8008 7997 7996 7995 ] final  105.15 input   59.86 | X-H torsion
[ 10167 10162 10161 10158 ] final -132.60 input  -65.29 | X-H torsion
[ 10718 10713 10712 10709 ] final  177.81 input   66.30 | X-H torsion
[ 10763 10752 10751 10750 ] final -128.56 input  -60.55 | X-H torsion
[ 11005 11000 10999 10996 ] final  -21.04 input  -57.11 | X-H torsion

> <Gold.Protein.ActiveResidues>
 VAL166  LYS551  ARG553  GLY616  TRP617  ASP618  TYR619  PRO620  LYS621  CYS622 
 ASP623  PHE694  ASN695  SER759  ASP760  ASP761  ALA762  ILE779  LEU786  VAL792 
 PHE793  MET794  SER795  GLU796  ALA797  LYS798  CYS799  TRP800  GLU811  SER814 

> <Gold.Protein.RotatedAtoms>
  151.0059  133.6011  159.2688 H   0  0  0  0  0  0  0  0  0  0  0  0  # atno 6907 bound_to 6896
  151.3180  135.0810  159.9305 H   0  0  0  0  0  0  0  0  0  0  0  0  # atno 6908 bound_to 6896
  152.5287  133.9712  159.7817 H   0  0  0  0  0  0  0  0  0  0  0  0  # atno 6909 bound_to 6896
  146.0699  140.6226  142.8957 H   0  0  0  0  0  0  0  0  0  0  0  0  # atno 7974 bound_to 7965
  156.1635  140.3135  155.8848 H   0  0  0  0  0  0  0  0  0  0  0  0  # atno 8008 bound_to 7997
  155.3734  140.0483  157.3062 H   0  0  0  0  0  0  0  0  0  0  0  0  # atno 8009 bound_to 7997
  154.5169  140.2184  155.9059 H   0  0  0  0  0  0  0  0  0  0  0  0  # atno 8010 bound_to 7997
  139.9069  143.6540  152.2583 H   0  0  0  0  0  0  0  0  0  0  0  0  # atno 10167 bound_to 10162
  156.8999  130.9875  151.3037 H   0  0  0  0  0  0  0  0  0  0  0  0  # atno 10718 bound_to 10713
  154.8756  135.3924  154.3777 H   0  0  0  0  0  0  0  0  0  0  0  0  # atno 10763 bound_to 10752
  153.4529  135.7028  153.6103 H   0  0  0  0  0  0  0  0  0  0  0  0  # atno 10764 bound_to 10752
  153.4635  135.3806  155.2320 H   0  0  0  0  0  0  0  0  0  0  0  0  # atno 10765 bound_to 10752
  140.8523  133.7848  155.9980 H   0  0  0  0  0  0  0  0  0  0  0  0  # atno 11005 bound_to 11000
  144.7225  140.4420  143.6997 LP  0  0  0  0  0  0  0  0  0  0  0  0  # atno 17320 bound_to 7965
  145.6410  139.1550  143.2915 LP  0  0  0  0  0  0  0  0  0  0  0  0  # atno 17321 bound_to 7965
  139.6976  144.7639  151.1329 LP  0  0  0  0  0  0  0  0  0  0  0  0  # atno 17342 bound_to 10162
  140.7694  143.5502  150.9213 LP  0  0  0  0  0  0  0  0  0  0  0  0  # atno 17343 bound_to 10162
  157.6032  130.8528  149.8835 LP  0  0  0  0  0  0  0  0  0  0  0  0  # atno 17370 bound_to 10713
  156.0587  130.3703  150.1031 LP  0  0  0  0  0  0  0  0  0  0  0  0  # atno 17371 bound_to 10713
  140.8776  134.2650  157.5160 LP  0  0  0  0  0  0  0  0  0  0  0  0  # atno 17394 bound_to 11000
  139.8704  134.9599  156.4346 LP  0  0  0  0  0  0  0  0  0  0  0  0  # atno 17395 bound_to 11000

$$$$
