AV-unprocessed.smi:1492|AV-procd|sdf|6038|dock7
  -GOLD-   22720 6143D 1   1.00000     0.00000
 Structure written by MMmdl.
 53 54  0  0  0  0  0  0  0  0  2 V2000
  147.2509  134.1083  155.3863 C   0  0  0  0  0  0  0  0  0  0  0  0
  147.5887  135.4762  154.7660 C   0  0  0  0  0  0  0  0  0  0  0  0
  146.4021  136.2130  154.0709 C   0  0  1  0  0  0  0  0  0  0  0  0
  145.1538  136.0275  154.9732 C   0  0  0  0  0  0  0  0  0  0  0  0
  146.7412  137.7319  153.9551 C   0  0  0  0  0  0  0  0  0  0  0  0
  148.1705  138.0041  153.8133 N   0  0  0  0  0  0  0  0  0  0  0  0
  148.8511  138.9774  154.4387 C   0  0  0  0  0  0  0  0  0  0  0  0
  148.3381  139.7637  155.2338 O   0  0  0  0  0  0  0  0  0  0  0  0
  150.3451  139.0648  154.1270 C   0  0  0  0  0  0  0  0  0  0  0  0
  151.2780  138.7376  155.2915 C   0  0  0  0  0  0  0  0  0  0  0  0
  151.7654  139.6866  156.1433 C   0  0  0  0  0  0  0  0  0  0  0  0
  151.4268  141.1615  156.0140 C   0  0  0  0  0  0  0  0  0  0  0  0
  152.6145  139.3521  157.2076 N   0  0  0  0  0  0  0  0  0  0  0  0
  152.9390  138.1128  157.3783 C   0  0  0  0  0  0  0  0  0  0  0  0
  153.8425  137.6217  158.4895 C   0  0  0  0  0  0  0  0  0  0  0  0
  152.4813  137.0968  156.5411 N   0  0  0  0  0  0  0  0  0  0  0  0
  151.6646  137.3270  155.4889 C   0  0  0  0  0  0  0  0  0  0  0  0
  151.3039  136.3991  154.7661 O   0  0  0  0  0  0  0  0  0  0  0  0
  146.1444  135.6203  152.7071 N   0  3  0  0  0  0  0  0  0  0  0  0
  145.9668  134.1408  152.6593 C   0  0  0  0  0  0  0  0  0  0  0  0
  145.9065  133.6497  151.2027 C   0  0  0  0  0  0  0  0  0  0  0  0
  144.8543  134.3103  150.5140 O   0  0  0  0  0  0  0  0  0  0  0  0
  145.0553  135.7157  150.4725 C   0  0  0  0  0  0  0  0  0  0  0  0
  145.0724  136.2748  151.9041 C   0  0  0  0  0  0  0  0  0  0  0  0
  152.7735  136.1469  156.7192 H   0  0  0  0  0  0  0  0  0  0  0  0
  148.1387  133.6682  155.8407 H   0  0  0  0  0  0  0  0  0  0  0  0
  146.8853  133.4013  154.6417 H   0  0  0  0  0  0  0  0  0  0  0  0
  146.4979  134.1932  156.1693 H   0  0  0  0  0  0  0  0  0  0  0  0
  147.9924  136.1040  155.5614 H   0  0  0  0  0  0  0  0  0  0  0  0
  148.4213  135.3542  154.0736 H   0  0  0  0  0  0  0  0  0  0  0  0
  145.3799  136.2241  156.0216 H   0  0  0  0  0  0  0  0  0  0  0  0
  144.7591  135.0128  154.9166 H   0  0  0  0  0  0  0  0  0  0  0  0
  144.3476  136.7094  154.7026 H   0  0  0  0  0  0  0  0  0  0  0  0
  146.2676  138.1622  153.0733 H   0  0  0  0  0  0  0  0  0  0  0  0
  146.3439  138.2878  154.8046 H   0  0  0  0  0  0  0  0  0  0  0  0
  148.6853  137.4067  153.1820 H   0  0  0  0  0  0  0  0  0  0  0  0
  150.5623  138.3928  153.2965 H   0  0  0  0  0  0  0  0  0  0  0  0
  150.5623  140.0593  153.7350 H   0  0  0  0  0  0  0  0  0  0  0  0
  151.6957  141.5337  155.0255 H   0  0  0  0  0  0  0  0  0  0  0  0
  151.9653  141.7580  156.7514 H   0  0  0  0  0  0  0  0  0  0  0  0
  150.3600  141.3242  156.1688 H   0  0  0  0  0  0  0  0  0  0  0  0
  153.4027  137.8526  159.4599 H   0  0  0  0  0  0  0  0  0  0  0  0
  154.8143  138.1121  158.4282 H   0  0  0  0  0  0  0  0  0  0  0  0
  154.0002  136.5437  158.4344 H   0  0  0  0  0  0  0  0  0  0  0  0
  146.7885  133.6197  153.1469 H   0  0  0  0  0  0  0  0  0  0  0  0
  145.0509  133.8526  153.1753 H   0  0  0  0  0  0  0  0  0  0  0  0
  146.8560  133.8223  150.6934 H   0  0  0  0  0  0  0  0  0  0  0  0
  145.7234  132.5754  151.1769 H   0  0  0  0  0  0  0  0  0  0  0  0
  145.9839  135.9506  149.9496 H   0  0  0  0  0  0  0  0  0  0  0  0
  144.2448  136.1698  149.9020 H   0  0  0  0  0  0  0  0  0  0  0  0
  144.0979  136.1072  152.3632 H   0  0  0  0  0  0  0  0  0  0  0  0
  145.2173  137.3513  151.8413 H   0  0  0  0  0  0  0  0  0  0  0  0
  146.9981  135.7948  152.1961 H   0  0  0  0  0  0  0  0  0  0  0  0
  1  2  1  0  0  0  0
  1 26  1  0  0  0  0
  1 27  1  0  0  0  0
  1 28  1  0  0  0  0
  2  3  1  0  0  0  0
  2 29  1  0  0  0  0
  2 30  1  0  0  0  0
  3  4  1  0  0  0  0
  3  5  1  0  0  0  0
  3 19  1  0  0  0  0
  4 31  1  0  0  0  0
  4 32  1  0  0  0  0
  4 33  1  0  0  0  0
  5  6  1  0  0  0  0
  5 34  1  0  0  0  0
  5 35  1  0  0  0  0
  6  7  1  0  0  0  0
  6 36  1  0  0  0  0
  7  8  2  0  0  0  0
  7  9  1  0  0  0  0
  9 10  1  0  0  0  0
  9 37  1  0  0  0  0
  9 38  1  0  0  0  0
 10 17  1  0  0  0  0
 10 11  2  0  0  0  0
 11 12  1  0  0  0  0
 11 13  1  0  0  0  0
 12 39  1  0  0  0  0
 12 40  1  0  0  0  0
 12 41  1  0  0  0  0
 13 14  2  0  0  0  0
 14 15  1  0  0  0  0
 14 16  1  0  0  0  0
 15 42  1  0  0  0  0
 15 43  1  0  0  0  0
 15 44  1  0  0  0  0
 16 25  1  0  0  0  0
 16 17  1  0  0  0  0
 17 18  2  0  0  0  0
 19 24  1  0  0  0  0
 19 20  1  0  0  0  0
 19 53  1  0  0  0  0
 20 21  1  0  0  0  0
 20 45  1  0  0  0  0
 20 46  1  0  0  0  0
 21 22  1  0  0  0  0
 21 47  1  0  0  0  0
 21 48  1  0  0  0  0
 22 23  1  0  0  0  0
 23 24  1  0  0  0  0
 23 49  1  0  0  0  0
 23 50  1  0  0  0  0
 24 51  1  0  0  0  0
 24 52  1  0  0  0  0
M  CHG  1  19   1
M  END
> <s_m_source_file>
AV-unprocessed.smi

> <i_m_source_file_index>
1492

> <i_lp_mmshare_version>
43012

> <i_f3d_flags>
0

> <s_epik_input>
W0NIMl0xW0NIMl1PW0NIMl1bQ0gyXU4xW0NAQF0oW0NIM10pKFtDSDJdW0NIM10pW0NIMl1bTkhdQyg9TylbQ0gyXWMyYyhbQ0gzXSluYyhbQ0gzXSlbbkhdYzI9Tw==

> <s_epik_cmdline>
J2VwaWtfcHl0aG9uJywgJy1waCcsICc3LjAnLCAnLXRuJywgJzgnLCAnLW1hJywgJzIwMCcsICctbWV0YWxfYmluZGluZycsICctaW1hZScsICc8aW5maWxlLm1hZT4nLCAnLW9tYWUnLCAnPG91dGZpbGUubWFlPic=

> <r_lp_tautomer_probability>
0.839158

> <r_epik_Ionization_Penalty>
0.506959

> <r_epik_Ionization_Penalty_Charging>
0.506936

> <r_epik_Ionization_Penalty_Neutral>
2.27768e-05

> <r_epik_State_Penalty>
0.6046

> <r_epik_Charging_Adjusted_Penalty>
1.11154

> <i_epik_Tot_Q>
1

> <i_epik_Tot_abs_Q>
1

> <r_epik_Metal_State_Penalty>
0.783136

> <b_epik_Metal_Only>
0

> <s_lp_Force_Field>
OPLS_2005

> <r_lp_Energy>
29.8272

> <b_lp_Chiralities_Consistent>
1

> <s_lp_Variant>
AV-unprocessed.smi:1492-3

> <Gold.Version>
5.8.1

> <Gold.Id.Protein>
6NUR|6NUR_protein|mol2

> <Gold.PLP.Fitness>
39.5498

> <Gold.PLP.PLP>
-27.2140

> <Gold.PLP.part.hbond>
-4.0000

> <Gold.PLP.part.metal>
0.0000

> <Gold.PLP.part.buried>
-3.4154

> <Gold.PLP.part.nonpolar>
-20.8427

> <Gold.PLP.part.repulsive>
0.5332

> <Gold.PLP.ligand.clash>
0.0000

> <Gold.PLP.ligand.torsion>
1.4084

> <Gold.PLP.Chemscore.Hbond>
5.0000

> <Gold.PLP.Chemscore.CHOScore>
0.0000

> <Gold.PLP.Chemscore.Metal>
0.0000

> <Gold.Chemscore.Hbonds>
donor molecule, donor type, donor heavy atom, donor atom, acceptor molecule, acceptor atom, score
      L1  H     6    36       P1  7948  1.00
      L1  H    19    53       P1  7948  2.00
      P1  H  7997  8008       L1    13  0.95
      P1  H 10752 10763       L1    18  1.00

> <Gold.PLP.Chemscore.Internal.Correction>
0.1527

> <Gold.Rescore>
     Score         DG    S(hbond)    S(metal)    S(lipo)     H(rot)  DE(clash)    DE(int)     intcor
     15.59     -17.22       2.94        0.00      64.54       2.19       0.05       1.58       ----

> <Gold.Chemscore.Fitness>
15.5899

> <Gold.Chemscore.DG>
-17.2219

> <Gold.Chemscore.ZeroCoef>
-5.4800

> <Gold.Chemscore.Hbond>
2.9351

> <Gold.Chemscore.Metal>
0.0000

> <Gold.Chemscore.Lipo>
64.5449

> <Gold.Chemscore.Internal_Hbond>
0.0000

> <Gold.Chemscore.DEClash>
0.0534

> <Gold.Chemscore.DEInternal>
1.5786

> <Gold.Chemscore.Rot>
2.1926

> <Gold.Chemscore.Internal.Correction>
   9.000000E+99

> <Gold.Chemscore.Hbonds>
donor molecule, donor type, donor heavy atom, donor atom, acceptor molecule, acceptor atom, score
      L1  H     6    36       P1  7948  0.99
      L1  H    19    53       P1  7948  0.95
      P1  H  7997  8008       L1    13  0.12
      P1  H 10752 10763       L1    18  0.26

> <Gold.Chemscore.Hbond.Weighted>
-9.8031

> <Gold.Chemscore.Metal.Weighted>
-0.0000

> <Gold.Chemscore.Lipo.Weighted>
-7.5517

> <Gold.Chemscore.Internal_Hbond.Weighted>
0.0000

> <Gold.Chemscore.DEClash.Weighted>
0.0534

> <Gold.Chemscore.DEInternal.Weighted>
1.5786

> <Gold.Chemscore.Rot.Weighted>
5.6129

> <Gold.Chemscore.Internal.Correction.Weighted>
   9.000000E+99

> <Gold.Protein.RotatedTorsions>
[ 6907 6896 6895 6894 ] final  120.96 input  -60.11 | X-H torsion
[ 7974 7965 7964 7962 ] final -112.48 input  175.53 | X-H torsion
[ 8008 7997 7996 7995 ] final  -65.37 input   59.86 | X-H torsion
[ 10167 10162 10161 10158 ] final  -25.67 input  -65.29 | X-H torsion
[ 10718 10713 10712 10709 ] final  -42.52 input   66.30 | X-H torsion
[ 10763 10752 10751 10750 ] final   50.11 input  -60.55 | X-H torsion
[ 11005 11000 10999 10996 ] final  -62.41 input  -57.11 | X-H torsion

> <Gold.Protein.ActiveResidues>
 VAL166  LYS551  ARG553  GLY616  TRP617  ASP618  TYR619  PRO620  LYS621  CYS622 
 ASP623  PHE694  ASN695  SER759  ASP760  ASP761  ALA762  ILE779  LEU786  VAL792 
 PHE793  MET794  SER795  GLU796  ALA797  LYS798  CYS799  TRP800  GLU811  SER814 

> <Gold.Protein.RotatedAtoms>
  152.4359  133.7359  159.6613 H   0  0  0  0  0  0  0  0  0  0  0  0  # atno 6907 bound_to 6896
  150.8242  133.8189  159.3132 H   0  0  0  0  0  0  0  0  0  0  0  0  # atno 6908 bound_to 6896
  151.5862  135.1058  160.0080 H   0  0  0  0  0  0  0  0  0  0  0  0  # atno 6909 bound_to 6896
  145.1434  140.8790  143.3688 H   0  0  0  0  0  0  0  0  0  0  0  0  # atno 7974 bound_to 7965
  154.4668  140.0934  156.7041 H   0  0  0  0  0  0  0  0  0  0  0  0  # atno 8008 bound_to 7997
  155.4836  140.3468  155.4325 H   0  0  0  0  0  0  0  0  0  0  0  0  # atno 8009 bound_to 7997
  156.0970  140.1412  156.9506 H   0  0  0  0  0  0  0  0  0  0  0  0  # atno 8010 bound_to 7997
  140.7285  143.4244  151.0900 H   0  0  0  0  0  0  0  0  0  0  0  0  # atno 10167 bound_to 10162
  156.2587  130.4195  149.8567 H   0  0  0  0  0  0  0  0  0  0  0  0  # atno 10718 bound_to 10713
  152.9785  135.5890  154.4198 H   0  0  0  0  0  0  0  0  0  0  0  0  # atno 10763 bound_to 10752
  154.3824  135.2767  155.2205 H   0  0  0  0  0  0  0  0  0  0  0  0  # atno 10764 bound_to 10752
  154.4113  135.6081  153.6009 H   0  0  0  0  0  0  0  0  0  0  0  0  # atno 10765 bound_to 10752
  141.1359  133.6640  156.5524 H   0  0  0  0  0  0  0  0  0  0  0  0  # atno 11005 bound_to 11000
  145.0507  139.3184  143.5930 LP  0  0  0  0  0  0  0  0  0  0  0  0  # atno 17320 bound_to 7965
  146.3502  139.9914  142.8685 LP  0  0  0  0  0  0  0  0  0  0  0  0  # atno 17321 bound_to 7965
  139.7894  143.8241  152.3149 LP  0  0  0  0  0  0  0  0  0  0  0  0  # atno 17342 bound_to 10162
  139.8219  144.7292  150.9561 LP  0  0  0  0  0  0  0  0  0  0  0  0  # atno 17343 bound_to 10162
  156.6090  130.8578  151.3450 LP  0  0  0  0  0  0  0  0  0  0  0  0  # atno 17370 bound_to 10713
  157.7242  130.9600  150.1565 LP  0  0  0  0  0  0  0  0  0  0  0  0  # atno 17371 bound_to 10713
  140.4053  134.7320  157.4804 LP  0  0  0  0  0  0  0  0  0  0  0  0  # atno 17394 bound_to 11000
  140.0466  134.6191  155.8913 LP  0  0  0  0  0  0  0  0  0  0  0  0  # atno 17395 bound_to 11000

$$$$
