AV-unprocessed.smi:1695|AV-procd|sdf|6794|dock1
  -GOLD-   22720 7553D 1   1.00000     0.00000
 Structure written by MMmdl.
 52 54  0  0  0  0  0  0  0  0  3 V2000
  152.2814  143.8570  160.9412 C   0  0  0  0  0  0  0  0  0  0  0  0
  152.0387  142.9780  159.7261 C   0  0  0  0  0  0  0  0  0  0  0  0
  151.0099  143.3391  158.8270 C   0  0  0  0  0  0  0  0  0  0  0  0
  150.8111  142.5143  157.7262 C   0  0  0  0  0  0  0  0  0  0  0  0
  149.8956  142.5948  156.6744 N   0  3  0  0  0  0  0  0  0  0  0  0
  150.0852  141.5473  155.8250 C   0  0  0  0  0  0  0  0  0  0  0  0
  151.1047  140.7953  156.3230 N   0  0  0  0  0  0  0  0  0  0  0  0
  151.7125  139.5627  155.8038 C   0  0  0  0  0  0  0  0  0  0  0  0
  150.7116  138.6758  155.0366 C   0  0  1  0  0  0  0  0  0  0  0  0
  150.5466  139.1867  153.7279 O   0  0  0  0  0  0  0  0  0  0  0  0
  151.1993  137.2166  154.9415 C   0  0  0  0  0  0  0  0  0  0  0  0
  150.1038  136.2674  154.6157 N   0  3  1  0  0  0  0  0  0  0  0  0
  150.5552  134.8533  154.6577 C   0  0  0  0  0  0  0  0  0  0  0  0
  149.4488  133.8973  154.1714 C   0  0  0  0  0  0  0  0  0  0  0  0
  148.1180  134.0667  154.9339 C   0  0  1  0  0  0  0  0  0  0  0  0
  148.1476  133.4262  156.3342 C   0  0  0  0  0  0  0  0  0  0  0  0
  147.2795  132.4386  156.5668 N   0  0  0  0  0  0  0  0  0  0  0  0
  148.9354  133.8097  157.1962 O   0  0  0  0  0  0  0  0  0  0  0  0
  147.7324  135.5609  154.9667 C   0  0  0  0  0  0  0  0  0  0  0  0
  148.8800  136.4772  155.4338 C   0  0  0  0  0  0  0  0  0  0  0  0
  151.5929  141.3641  157.5042 C   0  0  0  0  0  0  0  0  0  0  0  0
  152.6127  140.9952  158.3782 C   0  0  0  0  0  0  0  0  0  0  0  0
  152.8301  141.8211  159.5041 C   0  0  0  0  0  0  0  0  0  0  0  0
  153.9335  141.4433  160.4776 C   0  0  0  0  0  0  0  0  0  0  0  0
  151.6007  144.7087  160.9604 H   0  0  0  0  0  0  0  0  0  0  0  0
  153.3003  144.2452  160.9366 H   0  0  0  0  0  0  0  0  0  0  0  0
  152.1307  143.2897  161.8599 H   0  0  0  0  0  0  0  0  0  0  0  0
  150.4043  144.2191  158.9894 H   0  0  0  0  0  0  0  0  0  0  0  0
  149.5261  141.3482  154.9216 H   0  0  0  0  0  0  0  0  0  0  0  0
  152.5383  139.8544  155.1530 H   0  0  0  0  0  0  0  0  0  0  0  0
  152.1546  139.0200  156.6405 H   0  0  0  0  0  0  0  0  0  0  0  0
  149.7469  138.7220  155.5397 H   0  0  0  0  0  0  0  0  0  0  0  0
  150.3204  138.4717  153.1523 H   0  0  0  0  0  0  0  0  0  0  0  0
  151.9746  137.1637  154.1749 H   0  0  0  0  0  0  0  0  0  0  0  0
  151.6757  136.9087  155.8738 H   0  0  0  0  0  0  0  0  0  0  0  0
  151.4278  134.7312  154.0151 H   0  0  0  0  0  0  0  0  0  0  0  0
  150.8779  134.5994  155.6676 H   0  0  0  0  0  0  0  0  0  0  0  0
  149.2704  134.0762  153.1102 H   0  0  0  0  0  0  0  0  0  0  0  0
  149.7969  132.8659  154.2426 H   0  0  0  0  0  0  0  0  0  0  0  0
  147.3476  133.5440  154.3642 H   0  0  0  0  0  0  0  0  0  0  0  0
  147.2570  131.9843  157.4685 H   0  0  0  0  0  0  0  0  0  0  0  0
  146.6451  132.1478  155.8367 H   0  0  0  0  0  0  0  0  0  0  0  0
  147.4245  135.8663  153.9657 H   0  0  0  0  0  0  0  0  0  0  0  0
  146.8597  135.7121  155.6037 H   0  0  0  0  0  0  0  0  0  0  0  0
  149.1077  136.3096  156.4866 H   0  0  0  0  0  0  0  0  0  0  0  0
  148.5476  137.5112  155.3564 H   0  0  0  0  0  0  0  0  0  0  0  0
  153.2157  140.1154  158.2088 H   0  0  0  0  0  0  0  0  0  0  0  0
  154.4429  140.5298  160.1692 H   0  0  0  0  0  0  0  0  0  0  0  0
  153.5244  141.2756  161.4741 H   0  0  0  0  0  0  0  0  0  0  0  0
  154.6793  142.2363  160.5377 H   0  0  0  0  0  0  0  0  0  0  0  0
  149.8524  136.4503  153.6546 H   0  0  0  0  0  0  0  0  0  0  0  0
  149.1943  143.3126  156.5420 H   0  0  0  0  0  0  0  0  0  0  0  0
  1  2  1  0  0  0  0
  1 25  1  0  0  0  0
  1 26  1  0  0  0  0
  1 27  1  0  0  0  0
  2 23  1  0  0  0  0
  2  3  2  0  0  0  0
  3  4  1  0  0  0  0
  3 28  1  0  0  0  0
  4 21  2  0  0  0  0
  4  5  1  0  0  0  0
  5  6  2  0  0  0  0
  5 52  1  0  0  0  0
  6  7  1  0  0  0  0
  6 29  1  0  0  0  0
  7  8  1  0  0  0  0
  7 21  1  0  0  0  0
  8  9  1  0  0  0  0
  8 30  1  0  0  0  0
  8 31  1  0  0  0  0
  9 10  1  0  0  0  0
  9 11  1  0  0  0  0
  9 32  1  0  0  0  0
 10 33  1  0  0  0  0
 11 12  1  0  0  0  0
 11 34  1  0  0  0  0
 11 35  1  0  0  0  0
 12 20  1  0  0  0  0
 12 13  1  0  0  0  0
 12 51  1  0  0  0  0
 13 14  1  0  0  0  0
 13 36  1  0  0  0  0
 13 37  1  0  0  0  0
 14 15  1  0  0  0  0
 14 38  1  0  0  0  0
 14 39  1  0  0  0  0
 15 16  1  0  0  0  0
 15 19  1  0  0  0  0
 15 40  1  0  0  0  0
 16 17  1  0  0  0  0
 16 18  2  0  0  0  0
 17 41  1  0  0  0  0
 17 42  1  0  0  0  0
 19 20  1  0  0  0  0
 19 43  1  0  0  0  0
 19 44  1  0  0  0  0
 20 45  1  0  0  0  0
 20 46  1  0  0  0  0
 21 22  1  0  0  0  0
 22 23  2  0  0  0  0
 22 47  1  0  0  0  0
 23 24  1  0  0  0  0
 24 48  1  0  0  0  0
 24 49  1  0  0  0  0
 24 50  1  0  0  0  0
M  CHG  1   5   1
M  CHG  1  12   1
M  END
> <s_m_source_file>
AV-unprocessed.smi

> <i_m_source_file_index>
1695

> <i_lp_mmshare_version>
43012

> <i_f3d_flags>
0

> <s_epik_input>
W0NIM11jKFtjSF0xKWMoW0NIM10pW2NIXWMoYzEyKW4oW2NIXW4yKVtDSDJdW0NASF0oW09IXSlbQ0gyXU4zW0NIMl1bQ0gyXVtDSF0oQyg9TylbTkgyXSlbQ0gyXVtDSDJdMw==

> <s_epik_cmdline>
J2VwaWtfcHl0aG9uJywgJy1waCcsICc3LjAnLCAnLXRuJywgJzgnLCAnLW1hJywgJzIwMCcsICctbWV0YWxfYmluZGluZycsICctaW1hZScsICc8aW5maWxlLm1hZT4nLCAnLW9tYWUnLCAnPG91dGZpbGUubWFlPic=

> <r_epik_Ionization_Penalty>
1.20173

> <r_epik_Ionization_Penalty_Charging>
1.20172

> <r_epik_Ionization_Penalty_Neutral>
1.7852e-06

> <r_epik_State_Penalty>
1.28089

> <r_epik_Charging_Adjusted_Penalty>
2.48261

> <i_epik_Tot_Q>
2

> <i_epik_Tot_abs_Q>
2

> <r_epik_Metal_State_Penalty>
1.35652

> <b_epik_Metal_Only>
0

> <s_lp_Force_Field>
OPLS_2005

> <r_lp_Energy>
25.0715

> <b_lp_Chiralities_Consistent>
1

> <s_lp_Variant>
AV-unprocessed.smi:1695-6

> <Gold.Version>
5.8.1

> <Gold.Id.Protein>
6NUR|6NUR_protein|mol2

> <Gold.PLP.Fitness>
56.5663

> <Gold.PLP.PLP>
-42.8727

> <Gold.PLP.part.hbond>
-3.7693

> <Gold.PLP.part.metal>
0.0000

> <Gold.PLP.part.buried>
-3.7081

> <Gold.PLP.part.nonpolar>
-36.0536

> <Gold.PLP.part.repulsive>
0.1140

> <Gold.PLP.ligand.clash>
0.0000

> <Gold.PLP.ligand.torsion>
0.7860

> <Gold.PLP.Chemscore.Hbond>
4.9600

> <Gold.PLP.Chemscore.CHOScore>
0.0000

> <Gold.PLP.Chemscore.Metal>
0.0000

> <Gold.Chemscore.Hbonds>
donor molecule, donor type, donor heavy atom, donor atom, acceptor molecule, acceptor atom, score
      L1  H     5    52       P1  8028  1.70
      L1  H    12    51       P1  7948  2.00
      P1  H  7989  7998       L1    10  0.98

> <Gold.PLP.Chemscore.Internal.Correction>
0.3857

> <Gold.Rescore>
     Score         DG    S(hbond)    S(metal)    S(lipo)     H(rot)  DE(clash)    DE(int)     intcor
     18.11     -20.26       2.73        0.00     112.08       2.91       1.31       0.84       ----

> <Gold.Chemscore.Fitness>
18.1112

> <Gold.Chemscore.DG>
-20.2629

> <Gold.Chemscore.ZeroCoef>
-5.4800

> <Gold.Chemscore.Hbond>
2.7324

> <Gold.Chemscore.Metal>
0.0000

> <Gold.Chemscore.Lipo>
112.0795

> <Gold.Chemscore.Internal_Hbond>
0.0000

> <Gold.Chemscore.DEClash>
1.3083

> <Gold.Chemscore.DEInternal>
0.8433

> <Gold.Chemscore.Rot>
2.9127

> <Gold.Chemscore.Internal.Correction>
   9.000000E+99

> <Gold.Chemscore.Hbonds>
donor molecule, donor type, donor heavy atom, donor atom, acceptor molecule, acceptor atom, score
      L1  H     5    52       P1  8028  0.83
      L1  H    12    51       P1  7948  0.29
      P1  H  7989  7998       L1    10  0.70

> <Gold.Chemscore.Hbond.Weighted>
-9.1261

> <Gold.Chemscore.Metal.Weighted>
-0.0000

> <Gold.Chemscore.Lipo.Weighted>
-13.1133

> <Gold.Chemscore.Internal_Hbond.Weighted>
0.0000

> <Gold.Chemscore.DEClash.Weighted>
1.3083

> <Gold.Chemscore.DEInternal.Weighted>
0.8433

> <Gold.Chemscore.Rot.Weighted>
7.4565

> <Gold.Chemscore.Internal.Correction.Weighted>
   9.000000E+99

> <Gold.Protein.RotatedTorsions>
[ 6907 6896 6895 6894 ] final -163.56 input  -60.11 | X-H torsion
[ 7974 7965 7964 7962 ] final   15.52 input  175.53 | X-H torsion
[ 8008 7997 7996 7995 ] final -159.93 input   59.86 | X-H torsion
[ 10167 10162 10161 10158 ] final -143.43 input  -65.29 | X-H torsion
[ 10718 10713 10712 10709 ] final  147.38 input   66.30 | X-H torsion
[ 10763 10752 10751 10750 ] final    9.71 input  -60.55 | X-H torsion
[ 11005 11000 10999 10996 ] final   12.54 input  -57.11 | X-H torsion

> <Gold.Protein.ActiveResidues>
 VAL166  LYS551  ARG553  GLY616  TRP617  ASP618  TYR619  PRO620  LYS621  CYS622 
 ASP623  PHE694  ASN695  SER759  ASP760  ASP761  ALA762  ILE779  LEU786  VAL792 
 PHE793  MET794  SER795  GLU796  ALA797  LYS798  CYS799  TRP800  GLU811  SER814 

> <Gold.Protein.RotatedAtoms>
  151.3980  133.3767  159.2728 H   0  0  0  0  0  0  0  0  0  0  0  0  # atno 6907 bound_to 6896
  150.9455  134.8861  159.7649 H   0  0  0  0  0  0  0  0  0  0  0  0  # atno 6908 bound_to 6896
  152.5089  134.3933  159.9443 H   0  0  0  0  0  0  0  0  0  0  0  0  # atno 6909 bound_to 6896
  146.2276  139.8882  142.8559 H   0  0  0  0  0  0  0  0  0  0  0  0  # atno 7974 bound_to 7965
  155.7699  140.0850  157.2113 H   0  0  0  0  0  0  0  0  0  0  0  0  # atno 8008 bound_to 7997
  154.3997  140.1527  156.2986 H   0  0  0  0  0  0  0  0  0  0  0  0  # atno 8009 bound_to 7997
  155.8757  140.3423  155.5855 H   0  0  0  0  0  0  0  0  0  0  0  0  # atno 8010 bound_to 7997
  139.7994  143.7854  152.2657 H   0  0  0  0  0  0  0  0  0  0  0  0  # atno 10167 bound_to 10162
  157.3217  131.0905  151.1235 H   0  0  0  0  0  0  0  0  0  0  0  0  # atno 10718 bound_to 10713
  153.2111  135.6869  153.8113 H   0  0  0  0  0  0  0  0  0  0  0  0  # atno 10763 bound_to 10752
  153.7346  135.3247  155.3293 H   0  0  0  0  0  0  0  0  0  0  0  0  # atno 10764 bound_to 10752
  154.8222  135.4644  154.0918 H   0  0  0  0  0  0  0  0  0  0  0  0  # atno 10765 bound_to 10752
  140.4909  134.0842  155.7771 H   0  0  0  0  0  0  0  0  0  0  0  0  # atno 11005 bound_to 11000
  145.2444  141.0021  143.3917 LP  0  0  0  0  0  0  0  0  0  0  0  0  # atno 17320 bound_to 7965
  144.9425  139.4173  143.6442 LP  0  0  0  0  0  0  0  0  0  0  0  0  # atno 17321 bound_to 7965
  139.7970  144.7389  150.9877 LP  0  0  0  0  0  0  0  0  0  0  0  0  # atno 17342 bound_to 10162
  140.7820  143.4384  151.0589 LP  0  0  0  0  0  0  0  0  0  0  0  0  # atno 17343 bound_to 10162
  157.2517  130.6617  149.5934 LP  0  0  0  0  0  0  0  0  0  0  0  0  # atno 17370 bound_to 10713
  155.9686  130.4536  150.5819 LP  0  0  0  0  0  0  0  0  0  0  0  0  # atno 17371 bound_to 10713
  141.1485  133.9012  157.2157 LP  0  0  0  0  0  0  0  0  0  0  0  0  # atno 17394 bound_to 11000
  139.9770  135.0110  156.9656 LP  0  0  0  0  0  0  0  0  0  0  0  0  # atno 17395 bound_to 11000

$$$$
