AV-unprocessed.smi:1936|AV-procd|sdf|7832|dock7
  -GOLD-   22720 9583D 1   1.00000     0.00000
 Structure written by MMmdl.
 39 40  0  0  0  0  0  0  0  0  2 V2000
  146.3811  134.6206  155.5613 C   0  0  0  0  0  0  0  0  0  0  0  0
  147.1295  135.7062  154.7764 C   0  0  1  0  0  0  0  0  0  0  0  0
  148.6221  135.7690  155.1748 C   0  0  0  0  0  0  0  0  0  0  0  0
  149.3378  136.9087  154.5461 N   0  3  0  0  0  0  0  0  0  0  0  0
  148.6897  138.2199  154.7866 C   0  0  0  0  0  0  0  0  0  0  0  0
  149.4373  139.3258  154.0246 C   0  0  0  0  0  0  0  0  0  0  0  0
  150.8004  139.3438  154.4318 O   0  0  0  0  0  0  0  0  0  0  0  0
  151.4598  138.1175  154.1412 C   0  0  0  0  0  0  0  0  0  0  0  0
  150.7750  136.9668  154.8983 C   0  0  0  0  0  0  0  0  0  0  0  0
  146.9941  135.4483  153.3433 N   0  0  0  0  0  0  0  0  0  0  0  0
  145.8660  135.0899  152.7095 C   0  0  0  0  0  0  0  0  0  0  0  0
  144.8096  134.8335  153.2864 O   0  0  0  0  0  0  0  0  0  0  0  0
  145.9239  135.0838  151.1834 C   0  0  0  0  0  0  0  0  0  0  0  0
  145.4373  133.8169  150.6653 N   0  0  0  0  0  0  0  0  0  0  0  0
  146.1618  132.6876  150.3458 C   0  0  0  0  0  0  0  0  0  0  0  0
  145.2751  131.7456  149.9091 C   0  0  0  0  0  0  0  0  0  0  0  0
  144.0146  132.3993  149.9981 C   0  0  0  0  0  0  0  0  0  0  0  0
  144.1138  133.6363  150.4570 N   0  0  0  0  0  0  0  0  0  0  0  0
  146.4435  134.8010  156.6349 H   0  0  0  0  0  0  0  0  0  0  0  0
  146.7940  133.6302  155.3661 H   0  0  0  0  0  0  0  0  0  0  0  0
  145.3242  134.5995  155.2927 H   0  0  0  0  0  0  0  0  0  0  0  0
  146.6565  136.6580  155.0218 H   0  0  0  0  0  0  0  0  0  0  0  0
  148.7359  135.8097  156.2590 H   0  0  0  0  0  0  0  0  0  0  0  0
  149.0942  134.8384  154.8554 H   0  0  0  0  0  0  0  0  0  0  0  0
  147.6493  138.1947  154.4635 H   0  0  0  0  0  0  0  0  0  0  0  0
  148.6871  138.4389  155.8555 H   0  0  0  0  0  0  0  0  0  0  0  0
  149.3669  139.1716  152.9464 H   0  0  0  0  0  0  0  0  0  0  0  0
  148.9910  140.2973  154.2383 H   0  0  0  0  0  0  0  0  0  0  0  0
  151.4502  137.9357  153.0658 H   0  0  0  0  0  0  0  0  0  0  0  0
  152.5048  138.1968  154.4415 H   0  0  0  0  0  0  0  0  0  0  0  0
  150.8849  137.1043  155.9752 H   0  0  0  0  0  0  0  0  0  0  0  0
  151.2589  136.0237  154.6409 H   0  0  0  0  0  0  0  0  0  0  0  0
  147.8089  135.6307  152.7744 H   0  0  0  0  0  0  0  0  0  0  0  0
  145.3269  135.8979  150.7688 H   0  0  0  0  0  0  0  0  0  0  0  0
  146.9518  135.2340  150.8504 H   0  0  0  0  0  0  0  0  0  0  0  0
  147.2358  132.6491  150.4553 H   0  0  0  0  0  0  0  0  0  0  0  0
  145.4934  130.7420  149.5751 H   0  0  0  0  0  0  0  0  0  0  0  0
  143.0373  132.0125  149.7501 H   0  0  0  0  0  0  0  0  0  0  0  0
  149.3035  136.7440  153.5497 H   0  0  0  0  0  0  0  0  0  0  0  0
  1  2  1  0  0  0  0
  1 19  1  0  0  0  0
  1 20  1  0  0  0  0
  1 21  1  0  0  0  0
  2  3  1  0  0  0  0
  2 10  1  0  0  0  0
  2 22  1  0  0  0  0
  3  4  1  0  0  0  0
  3 23  1  0  0  0  0
  3 24  1  0  0  0  0
  4  9  1  0  0  0  0
  4  5  1  0  0  0  0
  4 39  1  0  0  0  0
  5  6  1  0  0  0  0
  5 25  1  0  0  0  0
  5 26  1  0  0  0  0
  6  7  1  0  0  0  0
  6 27  1  0  0  0  0
  6 28  1  0  0  0  0
  7  8  1  0  0  0  0
  8  9  1  0  0  0  0
  8 29  1  0  0  0  0
  8 30  1  0  0  0  0
  9 31  1  0  0  0  0
  9 32  1  0  0  0  0
 10 11  1  0  0  0  0
 10 33  1  0  0  0  0
 11 12  2  0  0  0  0
 11 13  1  0  0  0  0
 13 14  1  0  0  0  0
 13 34  1  0  0  0  0
 13 35  1  0  0  0  0
 14 18  1  0  0  0  0
 14 15  1  0  0  0  0
 15 16  2  0  0  0  0
 15 36  1  0  0  0  0
 16 17  1  0  0  0  0
 16 37  1  0  0  0  0
 17 18  2  0  0  0  0
 17 38  1  0  0  0  0
M  CHG  1   4   1
M  END
> <s_m_source_file>
AV-unprocessed.smi

> <i_m_source_file_index>
1936

> <i_lp_mmshare_version>
43012

> <i_f3d_flags>
0

> <s_epik_input>
W0NIMl0xW0NIMl1PW0NIMl1bQ0gyXU4xW0NIMl1bQ0BASF0oW0NIM10pW05IXUMoPU8pW0NIMl1uMltjSF1bY0hdW2NIXW4y

> <s_epik_cmdline>
J2VwaWtfcHl0aG9uJywgJy1waCcsICc3LjAnLCAnLXRuJywgJzgnLCAnLW1hJywgJzIwMCcsICctbWV0YWxfYmluZGluZycsICctaW1hZScsICc8aW5maWxlLm1hZT4nLCAnLW9tYWUnLCAnPG91dGZpbGUubWFlPic=

> <r_lp_tautomer_probability>
1

> <r_epik_Ionization_Penalty>
0.748405

> <r_epik_Ionization_Penalty_Charging>
0.748396

> <r_epik_Ionization_Penalty_Neutral>
9.02181e-06

> <r_epik_State_Penalty>
0.775162

> <r_epik_Charging_Adjusted_Penalty>
1.52356

> <i_epik_Tot_Q>
1

> <i_epik_Tot_abs_Q>
1

> <r_epik_Metal_State_Penalty>
0.775167

> <b_epik_Metal_Only>
0

> <s_lp_Force_Field>
OPLS_2005

> <r_lp_Energy>
20.1582

> <b_lp_Chiralities_Consistent>
1

> <s_lp_Variant>
AV-unprocessed.smi:1936-4

> <Gold.Version>
5.8.1

> <Gold.Id.Protein>
6NUR|6NUR_protein|mol2

> <Gold.PLP.Fitness>
42.9945

> <Gold.PLP.PLP>
-27.8942

> <Gold.PLP.part.hbond>
-3.0000

> <Gold.PLP.part.metal>
0.0000

> <Gold.PLP.part.buried>
-4.4977

> <Gold.PLP.part.nonpolar>
-21.4665

> <Gold.PLP.part.repulsive>
0.3876

> <Gold.PLP.ligand.clash>
0.0000

> <Gold.PLP.ligand.torsion>
0.6254

> <Gold.PLP.Chemscore.Hbond>
4.0000

> <Gold.PLP.Chemscore.CHOScore>
1.4324

> <Gold.PLP.Chemscore.Metal>
0.0000

> <Gold.Chemscore.Hbonds>
donor molecule, donor type, donor heavy atom, donor atom, acceptor molecule, acceptor atom, score
      L1  H     4    39       P1  7948  2.00
      L1  H    10    33       P1  7948  1.00
      P1  H  7989  7998       L1     7  1.00
      L1  C    15    36       P1 10747  1.00
      L1  C    17    38       P1 10952  0.38

> <Gold.PLP.Chemscore.Internal.Correction>
0.0539

> <Gold.Rescore>
     Score         DG    S(hbond)    S(metal)    S(lipo)     H(rot)  DE(clash)    DE(int)     intcor
     14.47     -16.44       2.47        0.00      65.43       1.93       0.04       1.93       ----

> <Gold.Chemscore.Fitness>
14.4655

> <Gold.Chemscore.DG>
-16.4367

> <Gold.Chemscore.ZeroCoef>
-5.4800

> <Gold.Chemscore.Hbond>
2.4706

> <Gold.Chemscore.Metal>
0.0000

> <Gold.Chemscore.Lipo>
65.4343

> <Gold.Chemscore.Internal_Hbond>
0.0000

> <Gold.Chemscore.DEClash>
0.0436

> <Gold.Chemscore.DEInternal>
1.9275

> <Gold.Chemscore.Rot>
1.9340

> <Gold.Chemscore.Internal.Correction>
   9.000000E+99

> <Gold.Chemscore.Hbonds>
donor molecule, donor type, donor heavy atom, donor atom, acceptor molecule, acceptor atom, score
      L1  H     4    39       P1  7948  0.96
      L1  H    10    33       P1  7948  0.97
      P1  H  7989  7998       L1     7  0.43

> <Gold.Chemscore.Hbond.Weighted>
-8.2519

> <Gold.Chemscore.Metal.Weighted>
-0.0000

> <Gold.Chemscore.Lipo.Weighted>
-7.6558

> <Gold.Chemscore.Internal_Hbond.Weighted>
0.0000

> <Gold.Chemscore.DEClash.Weighted>
0.0436

> <Gold.Chemscore.DEInternal.Weighted>
1.9275

> <Gold.Chemscore.Rot.Weighted>
4.9510

> <Gold.Chemscore.Internal.Correction.Weighted>
   9.000000E+99

> <Gold.Protein.RotatedTorsions>
[ 6907 6896 6895 6894 ] final -135.57 input  -60.11 | X-H torsion
[ 7974 7965 7964 7962 ] final   90.85 input  175.53 | X-H torsion
[ 8008 7997 7996 7995 ] final   26.73 input   59.86 | X-H torsion
[ 10167 10162 10161 10158 ] final   54.65 input  -65.29 | X-H torsion
[ 10718 10713 10712 10709 ] final  -64.76 input   66.30 | X-H torsion
[ 10763 10752 10751 10750 ] final  -21.88 input  -60.55 | X-H torsion
[ 11005 11000 10999 10996 ] final  175.04 input  -57.11 | X-H torsion

> <Gold.Protein.ActiveResidues>
 VAL166  LYS551  ARG553  GLY616  TRP617  ASP618  TYR619  PRO620  LYS621  CYS622 
 ASP623  PHE694  ASN695  SER759  ASP760  ASP761  ALA762  ILE779  LEU786  VAL792 
 PHE793  MET794  SER795  GLU796  ALA797  LYS798  CYS799  TRP800  GLU811  SER814 

> <Gold.Protein.RotatedAtoms>
  150.9994  133.6071  159.2696 H   0  0  0  0  0  0  0  0  0  0  0  0  # atno 6907 bound_to 6896
  151.3262  135.0830  159.9333 H   0  0  0  0  0  0  0  0  0  0  0  0  # atno 6908 bound_to 6896
  152.5269  133.9632  159.7781 H   0  0  0  0  0  0  0  0  0  0  0  0  # atno 6909 bound_to 6896
  145.5136  139.2277  143.2711 H   0  0  0  0  0  0  0  0  0  0  0  0  # atno 7974 bound_to 7965
  155.0318  140.3159  155.4756 H   0  0  0  0  0  0  0  0  0  0  0  0  # atno 8008 bound_to 7997
  156.2872  140.2179  156.5382 H   0  0  0  0  0  0  0  0  0  0  0  0  # atno 8009 bound_to 7997
  154.7364  140.0477  157.0760 H   0  0  0  0  0  0  0  0  0  0  0  0  # atno 8010 bound_to 7997
  140.2278  144.3719  150.6426 H   0  0  0  0  0  0  0  0  0  0  0  0  # atno 10167 bound_to 10162
  156.0710  130.4238  150.1466 H   0  0  0  0  0  0  0  0  0  0  0  0  # atno 10718 bound_to 10713
  153.6430  135.6984  153.5235 H   0  0  0  0  0  0  0  0  0  0  0  0  # atno 10763 bound_to 10752
  153.2767  135.4198  155.1039 H   0  0  0  0  0  0  0  0  0  0  0  0  # atno 10764 bound_to 10752
  154.8495  135.3592  154.5975 H   0  0  0  0  0  0  0  0  0  0  0  0  # atno 10765 bound_to 10752
  140.3579  134.7139  157.4311 H   0  0  0  0  0  0  0  0  0  0  0  0  # atno 11005 bound_to 11000
  146.2151  140.5944  142.9042 LP  0  0  0  0  0  0  0  0  0  0  0  0  # atno 17320 bound_to 7965
  144.7714  140.5646  143.6667 LP  0  0  0  0  0  0  0  0  0  0  0  0  # atno 17321 bound_to 7965
  140.6207  143.2176  151.6699 LP  0  0  0  0  0  0  0  0  0  0  0  0  # atno 17342 bound_to 10162
  139.5121  144.3488  152.0672 LP  0  0  0  0  0  0  0  0  0  0  0  0  # atno 17343 bound_to 10162
  156.9517  130.9777  151.3497 LP  0  0  0  0  0  0  0  0  0  0  0  0  # atno 17370 bound_to 10713
  157.5780  130.8357  149.8483 LP  0  0  0  0  0  0  0  0  0  0  0  0  # atno 17371 bound_to 10713
  140.0650  134.5942  155.8705 LP  0  0  0  0  0  0  0  0  0  0  0  0  # atno 17394 bound_to 11000
  141.1993  133.6606  156.5836 LP  0  0  0  0  0  0  0  0  0  0  0  0  # atno 17395 bound_to 11000

$$$$
