AV-unprocessed.smi:3104|AV-procd|sdf|11816|dock2
  -GOLD-   2272017183D 1   1.00000     0.00000
 Structure written by MMmdl.
 37 38  0  0  0  0  0  0  0  0  2 V2000
  150.5835  136.2390  155.7496 C   0  0  0  0  0  0  0  0  0  0  0  0
  150.4350  137.6894  155.3904 C   0  0  0  0  0  0  0  0  0  0  0  0
  150.6328  138.3011  154.1204 C   0  0  0  0  0  0  0  0  0  0  0  0
  150.4290  139.6082  154.1429 N   0  0  0  0  0  0  0  0  0  0  0  0
  150.0773  139.8773  155.4187 N   0  0  0  0  0  0  0  0  0  0  0  0
  149.8041  141.2540  155.8172 C   0  0  1  0  0  0  0  0  0  0  0  0
  148.4896  141.3124  156.6184 C   0  0  0  0  0  0  0  0  0  0  0  0
  151.0194  141.8565  156.5699 C   0  0  2  0  0  0  0  0  0  0  0  0
  151.5969  140.8977  157.6287 C   0  0  0  0  0  0  0  0  0  0  0  0
  150.6280  143.1350  157.2100 N   0  3  0  0  0  0  0  0  0  0  0  0
  151.7327  143.8986  157.8244 C   0  0  0  0  0  0  0  0  0  0  0  0
  151.5435  144.0084  159.3227 C   0  0  0  0  0  0  0  0  0  0  0  0
  150.4697  144.9095  159.8874 C   0  0  0  0  0  0  0  0  0  0  0  0
  151.9237  145.2678  160.0675 C   0  0  0  0  0  0  0  0  0  0  0  0
  150.0841  138.7356  156.1955 C   0  0  0  0  0  0  0  0  0  0  0  0
  150.6409  135.6056  154.8642 H   0  0  0  0  0  0  0  0  0  0  0  0
  149.7418  135.8827  156.3437 H   0  0  0  0  0  0  0  0  0  0  0  0
  151.4874  136.0601  156.3321 H   0  0  0  0  0  0  0  0  0  0  0  0
  150.9228  137.8371  153.1889 H   0  0  0  0  0  0  0  0  0  0  0  0
  149.6476  141.8347  154.9057 H   0  0  0  0  0  0  0  0  0  0  0  0
  148.1592  142.3388  156.7752 H   0  0  0  0  0  0  0  0  0  0  0  0
  148.5930  140.8416  157.5965 H   0  0  0  0  0  0  0  0  0  0  0  0
  147.6863  140.8009  156.0869 H   0  0  0  0  0  0  0  0  0  0  0  0
  151.7973  142.0679  155.8343 H   0  0  0  0  0  0  0  0  0  0  0  0
  151.9802  139.9836  157.1764 H   0  0  0  0  0  0  0  0  0  0  0  0
  150.8412  140.6159  158.3627 H   0  0  0  0  0  0  0  0  0  0  0  0
  152.4302  141.3472  158.1685 H   0  0  0  0  0  0  0  0  0  0  0  0
  150.2257  143.7207  156.4913 H   0  0  0  0  0  0  0  0  0  0  0  0
  152.6928  143.4293  157.6091 H   0  0  0  0  0  0  0  0  0  0  0  0
  151.7567  144.9042  157.4028 H   0  0  0  0  0  0  0  0  0  0  0  0
  151.6849  143.0690  159.8545 H   0  0  0  0  0  0  0  0  0  0  0  0
  149.8892  145.5089  159.1888 H   0  0  0  0  0  0  0  0  0  0  0  0
  149.9268  144.5577  160.7623 H   0  0  0  0  0  0  0  0  0  0  0  0
  152.3505  145.1533  161.0619 H   0  0  0  0  0  0  0  0  0  0  0  0
  152.3092  146.1049  159.4889 H   0  0  0  0  0  0  0  0  0  0  0  0
  149.8431  138.7604  157.2481 H   0  0  0  0  0  0  0  0  0  0  0  0
  149.9168  142.9517  157.9034 H   0  0  0  0  0  0  0  0  0  0  0  0
  1  2  1  0  0  0  0
  1 16  1  0  0  0  0
  1 17  1  0  0  0  0
  1 18  1  0  0  0  0
  2 15  2  0  0  0  0
  2  3  1  0  0  0  0
  3  4  2  0  0  0  0
  3 19  1  0  0  0  0
  4  5  1  0  0  0  0
  5  6  1  0  0  0  0
  5 15  1  0  0  0  0
  6  7  1  0  0  0  0
  6  8  1  0  0  0  0
  6 20  1  0  0  0  0
  7 21  1  0  0  0  0
  7 22  1  0  0  0  0
  7 23  1  0  0  0  0
  8  9  1  0  0  0  0
  8 10  1  0  0  0  0
  8 24  1  0  0  0  0
  9 25  1  0  0  0  0
  9 26  1  0  0  0  0
  9 27  1  0  0  0  0
 10 11  1  0  0  0  0
 10 28  1  0  0  0  0
 10 37  1  0  0  0  0
 11 12  1  0  0  0  0
 11 29  1  0  0  0  0
 11 30  1  0  0  0  0
 12 14  1  0  0  0  0
 12 13  1  0  0  0  0
 12 31  1  0  0  0  0
 13 14  1  0  0  0  0
 13 32  1  0  0  0  0
 13 33  1  0  0  0  0
 14 34  1  0  0  0  0
 14 35  1  0  0  0  0
 15 36  1  0  0  0  0
M  CHG  1  10   1
M  END
> <s_m_source_file>
AV-unprocessed.smi

> <i_m_source_file_index>
3104

> <i_lp_mmshare_version>
43012

> <i_f3d_flags>
0

> <s_epik_input>
W0NIM11jMVtjSF1ubihbY0hdMSlbQ0BIXShbQ0gzXSlbQ0BIXShbQ0gzXSlbTkhdW0NIMl1bQ0hdMltDSDJdW0NIMl0y

> <s_epik_cmdline>
J2VwaWtfcHl0aG9uJywgJy1waCcsICc3LjAnLCAnLXRuJywgJzgnLCAnLW1hJywgJzIwMCcsICctbWV0YWxfYmluZGluZycsICctaW1hZScsICc8aW5maWxlLm1hZT4nLCAnLW9tYWUnLCAnPG91dGZpbGUubWFlPic=

> <r_lp_tautomer_probability>
1

> <r_epik_Ionization_Penalty>
0.00120445

> <r_epik_Ionization_Penalty_Charging>
0.00118273

> <r_epik_Ionization_Penalty_Neutral>
2.17265e-05

> <r_epik_State_Penalty>
-0

> <r_epik_Charging_Adjusted_Penalty>
0.00118273

> <i_epik_Tot_Q>
1

> <i_epik_Tot_abs_Q>
1

> <r_epik_Metal_State_Penalty>
-0

> <b_epik_Metal_Only>
0

> <s_lp_Force_Field>
OPLS_2005

> <r_lp_Energy>
20.526

> <b_lp_Chiralities_Consistent>
1

> <s_lp_Variant>
AV-unprocessed.smi:3104-2

> <Gold.Version>
5.8.1

> <Gold.Id.Protein>
6NUR|6NUR_protein|mol2

> <Gold.PLP.Fitness>
44.6131

> <Gold.PLP.PLP>
-34.2394

> <Gold.PLP.part.hbond>
-2.0000

> <Gold.PLP.part.metal>
0.0000

> <Gold.PLP.part.buried>
-6.5060

> <Gold.PLP.part.nonpolar>
-26.8644

> <Gold.PLP.part.repulsive>
0.6053

> <Gold.PLP.ligand.clash>
0.0000

> <Gold.PLP.ligand.torsion>
1.2582

> <Gold.PLP.Chemscore.Hbond>
3.0000

> <Gold.PLP.Chemscore.CHOScore>
1.0491

> <Gold.PLP.Chemscore.Metal>
0.0000

> <Gold.Chemscore.Hbonds>
donor molecule, donor type, donor heavy atom, donor atom, acceptor molecule, acceptor atom, score
      L1  H    10    28       P1  8028  2.00
      P1  H  7989  7998       L1     4  1.00
      L1  C     3    19       P1  7948  0.08
      L1  C     3    19       P1  7949  0.98

> <Gold.PLP.Chemscore.Internal.Correction>
0.7428

> <Gold.Rescore>
     Score         DG    S(hbond)    S(metal)    S(lipo)     H(rot)  DE(clash)    DE(int)     intcor
     16.75     -19.10       1.90        0.00      94.84       1.49       0.03       2.32       ----

> <Gold.Chemscore.Fitness>
16.7549

> <Gold.Chemscore.DG>
-19.1032

> <Gold.Chemscore.ZeroCoef>
-5.4800

> <Gold.Chemscore.Hbond>
1.9005

> <Gold.Chemscore.Metal>
0.0000

> <Gold.Chemscore.Lipo>
94.8363

> <Gold.Chemscore.Internal_Hbond>
0.0000

> <Gold.Chemscore.DEClash>
0.0287

> <Gold.Chemscore.DEInternal>
2.3196

> <Gold.Chemscore.Rot>
1.4923

> <Gold.Chemscore.Internal.Correction>
   9.000000E+99

> <Gold.Chemscore.Hbonds>
donor molecule, donor type, donor heavy atom, donor atom, acceptor molecule, acceptor atom, score
      L1  H    10    28       P1  8028  0.98
      P1  H  7989  7998       L1     4  0.81

> <Gold.Chemscore.Hbond.Weighted>
-6.3477

> <Gold.Chemscore.Metal.Weighted>
-0.0000

> <Gold.Chemscore.Lipo.Weighted>
-11.0958

> <Gold.Chemscore.Internal_Hbond.Weighted>
0.0000

> <Gold.Chemscore.DEClash.Weighted>
0.0287

> <Gold.Chemscore.DEInternal.Weighted>
2.3196

> <Gold.Chemscore.Rot.Weighted>
3.8204

> <Gold.Chemscore.Internal.Correction.Weighted>
   9.000000E+99

> <Gold.Protein.RotatedTorsions>
[ 6907 6896 6895 6894 ] final -120.39 input  -60.11 | X-H torsion
[ 7974 7965 7964 7962 ] final  109.97 input  175.53 | X-H torsion
[ 8008 7997 7996 7995 ] final   17.22 input   59.86 | X-H torsion
[ 10167 10162 10161 10158 ] final   25.80 input  -65.29 | X-H torsion
[ 10718 10713 10712 10709 ] final  -59.95 input   66.30 | X-H torsion
[ 10763 10752 10751 10750 ] final -137.07 input  -60.55 | X-H torsion
[ 11005 11000 10999 10996 ] final   45.16 input  -57.11 | X-H torsion

> <Gold.Protein.ActiveResidues>
 VAL166  LYS551  ARG553  GLY616  TRP617  ASP618  TYR619  PRO620  LYS621  CYS622 
 ASP623  PHE694  ASN695  SER759  ASP760  ASP761  ALA762  ILE779  LEU786  VAL792 
 PHE793  MET794  SER795  GLU796  ALA797  LYS798  CYS799  TRP800  GLU811  SER814 

> <Gold.Protein.RotatedAtoms>
  150.8389  133.7969  159.3068 H   0  0  0  0  0  0  0  0  0  0  0  0  # atno 6907 bound_to 6896
  151.5676  135.1062  159.9997 H   0  0  0  0  0  0  0  0  0  0  0  0  # atno 6908 bound_to 6896
  152.4456  133.7488  159.6738 H   0  0  0  0  0  0  0  0  0  0  0  0  # atno 6909 bound_to 6896
  145.2610  139.2702  143.4017 H   0  0  0  0  0  0  0  0  0  0  0  0  # atno 7974 bound_to 7965
  154.8882  140.2983  155.5385 H   0  0  0  0  0  0  0  0  0  0  0  0  # atno 8008 bound_to 7997
  156.3021  140.2429  156.3829 H   0  0  0  0  0  0  0  0  0  0  0  0  # atno 8009 bound_to 7997
  154.8645  140.0404  157.1675 H   0  0  0  0  0  0  0  0  0  0  0  0  # atno 8010 bound_to 7997
  140.5076  144.0213  150.6359 H   0  0  0  0  0  0  0  0  0  0  0  0  # atno 10167 bound_to 10162
  156.1025  130.4184  150.0786 H   0  0  0  0  0  0  0  0  0  0  0  0  # atno 10718 bound_to 10713
  154.8670  135.3653  154.5163 H   0  0  0  0  0  0  0  0  0  0  0  0  # atno 10763 bound_to 10752
  153.5796  135.7018  153.5474 H   0  0  0  0  0  0  0  0  0  0  0  0  # atno 10764 bound_to 10752
  153.3469  135.4082  155.1578 H   0  0  0  0  0  0  0  0  0  0  0  0  # atno 10765 bound_to 10752
  140.1485  134.4492  155.8398 H   0  0  0  0  0  0  0  0  0  0  0  0  # atno 11005 bound_to 11000
  146.3275  140.3026  142.8621 LP  0  0  0  0  0  0  0  0  0  0  0  0  # atno 17320 bound_to 7965
  144.9419  140.8087  143.5625 LP  0  0  0  0  0  0  0  0  0  0  0  0  # atno 17321 bound_to 7965
  140.3526  143.2954  152.0470 LP  0  0  0  0  0  0  0  0  0  0  0  0  # atno 17342 bound_to 10162
  139.4887  144.6362  151.6970 LP  0  0  0  0  0  0  0  0  0  0  0  0  # atno 17343 bound_to 10162
  156.8769  130.9543  151.3603 LP  0  0  0  0  0  0  0  0  0  0  0  0  # atno 17370 bound_to 10713
  157.6197  130.8646  149.9088 LP  0  0  0  0  0  0  0  0  0  0  0  0  # atno 17371 bound_to 10713
  141.2196  133.6862  156.7378 LP  0  0  0  0  0  0  0  0  0  0  0  0  # atno 17394 bound_to 11000
  140.2634  134.8449  157.3780 LP  0  0  0  0  0  0  0  0  0  0  0  0  # atno 17395 bound_to 11000

$$$$
