AV-unprocessed.smi:3338|AV-procd|sdf|12871|dock2
  -GOLD-   2272019273D 1   1.00000     0.00000
 Structure written by MMmdl.
 44 45  0  0  0  0  0  0  0  0  2 V2000
  147.7257  133.5416  152.9236 C   0  0  0  0  0  0  0  0  0  0  0  0
  146.2127  133.7750  153.0805 C   0  0  2  0  0  0  0  0  0  0  0  0
  145.4291  133.5075  151.7822 C   0  0  0  0  0  0  0  0  0  0  0  0
  145.6439  134.6329  150.7605 C   0  0  0  0  0  0  0  0  0  0  0  0
  145.3305  136.0055  151.3764 C   0  0  0  0  0  0  0  0  0  0  0  0
  146.1354  136.2379  152.6034 N   0  3  1  0  0  0  0  0  0  0  0  0
  145.9703  137.6143  153.1340 C   0  0  0  0  0  0  0  0  0  0  0  0
  146.5899  138.6758  152.2046 C   0  0  0  0  0  0  0  0  0  0  0  0
  147.9283  139.0558  152.6399 N   0  0  0  0  0  0  0  0  0  0  0  0
  148.2646  139.3785  153.8990 C   0  0  0  0  0  0  0  0  0  0  0  0
  147.4599  139.3561  154.8314 O   0  0  0  0  0  0  0  0  0  0  0  0
  149.7308  139.7807  154.1313 C   0  0  2  0  0  0  0  0  0  0  0  0
  150.7286  138.6791  153.7213 C   0  0  0  0  0  0  0  0  0  0  0  0
  149.9321  140.2077  155.5112 N   0  0  0  0  0  0  0  0  0  0  0  0
  150.1627  141.4851  155.9800 C   0  0  0  0  0  0  0  0  0  0  0  0
  150.2606  141.4121  157.3400 C   0  0  0  0  0  0  0  0  0  0  0  0
  150.0677  140.0306  157.6189 C   0  0  0  0  0  0  0  0  0  0  0  0
  149.8657  139.3141  156.5256 N   0  0  0  0  0  0  0  0  0  0  0  0
  145.8932  135.1828  153.6246 C   0  0  0  0  0  0  0  0  0  0  0  0
  148.1758  134.2385  152.2165 H   0  0  0  0  0  0  0  0  0  0  0  0
  147.9310  132.5311  152.5693 H   0  0  0  0  0  0  0  0  0  0  0  0
  148.2401  133.6643  153.8771 H   0  0  0  0  0  0  0  0  0  0  0  0
  145.8674  133.0525  153.8214 H   0  0  0  0  0  0  0  0  0  0  0  0
  145.7128  132.5459  151.3528 H   0  0  0  0  0  0  0  0  0  0  0  0
  144.3655  133.4358  152.0135 H   0  0  0  0  0  0  0  0  0  0  0  0
  146.6726  134.6176  150.3992 H   0  0  0  0  0  0  0  0  0  0  0  0
  145.0125  134.4657  149.8873 H   0  0  0  0  0  0  0  0  0  0  0  0
  145.5451  136.7807  150.6396 H   0  0  0  0  0  0  0  0  0  0  0  0
  144.2684  136.0799  151.6154 H   0  0  0  0  0  0  0  0  0  0  0  0
  144.9056  137.8286  153.2365 H   0  0  0  0  0  0  0  0  0  0  0  0
  146.3936  137.6801  154.1376 H   0  0  0  0  0  0  0  0  0  0  0  0
  146.6764  138.2996  151.1860 H   0  0  0  0  0  0  0  0  0  0  0  0
  145.9520  139.5600  152.1552 H   0  0  0  0  0  0  0  0  0  0  0  0
  148.6462  139.1017  151.9311 H   0  0  0  0  0  0  0  0  0  0  0  0
  149.9277  140.6454  153.4951 H   0  0  0  0  0  0  0  0  0  0  0  0
  150.6152  138.4169  152.6688 H   0  0  0  0  0  0  0  0  0  0  0  0
  150.5956  137.7679  154.3060 H   0  0  0  0  0  0  0  0  0  0  0  0
  151.7564  139.0138  153.8643 H   0  0  0  0  0  0  0  0  0  0  0  0
  150.2373  142.3319  155.3139 H   0  0  0  0  0  0  0  0  0  0  0  0
  150.4406  142.2222  158.0309 H   0  0  0  0  0  0  0  0  0  0  0  0
  150.0650  139.5310  158.5765 H   0  0  0  0  0  0  0  0  0  0  0  0
  144.8487  135.2270  153.9378 H   0  0  0  0  0  0  0  0  0  0  0  0
  146.4897  135.3666  154.5175 H   0  0  0  0  0  0  0  0  0  0  0  0
  147.1016  136.1578  152.3202 H   0  0  0  0  0  0  0  0  0  0  0  0
  1  2  1  0  0  0  0
  1 20  1  0  0  0  0
  1 21  1  0  0  0  0
  1 22  1  0  0  0  0
  2 19  1  0  0  0  0
  2  3  1  0  0  0  0
  2 23  1  0  0  0  0
  3  4  1  0  0  0  0
  3 24  1  0  0  0  0
  3 25  1  0  0  0  0
  4  5  1  0  0  0  0
  4 26  1  0  0  0  0
  4 27  1  0  0  0  0
  5  6  1  0  0  0  0
  5 28  1  0  0  0  0
  5 29  1  0  0  0  0
  6  7  1  0  0  0  0
  6 19  1  0  0  0  0
  6 44  1  0  0  0  0
  7  8  1  0  0  0  0
  7 30  1  0  0  0  0
  7 31  1  0  0  0  0
  8  9  1  0  0  0  0
  8 32  1  0  0  0  0
  8 33  1  0  0  0  0
  9 10  1  0  0  0  0
  9 34  1  0  0  0  0
 10 11  2  0  0  0  0
 10 12  1  0  0  0  0
 12 13  1  0  0  0  0
 12 14  1  0  0  0  0
 12 35  1  0  0  0  0
 13 36  1  0  0  0  0
 13 37  1  0  0  0  0
 13 38  1  0  0  0  0
 14 18  1  0  0  0  0
 14 15  1  0  0  0  0
 15 16  2  0  0  0  0
 15 39  1  0  0  0  0
 16 17  1  0  0  0  0
 16 40  1  0  0  0  0
 17 18  2  0  0  0  0
 17 41  1  0  0  0  0
 19 42  1  0  0  0  0
 19 43  1  0  0  0  0
M  CHG  1   6   1
M  END
> <s_m_source_file>
AV-unprocessed.smi

> <i_m_source_file_index>
3338

> <i_lp_mmshare_version>
43012

> <i_f3d_flags>
0

> <s_epik_input>
W0NIM11bQ0BASF0xW0NIMl1bQ0gyXVtDSDJdTihbQ0gyXTEpW0NIMl1bQ0gyXVtOSF1DKD1PKVtDQEhdKFtDSDNdKW4yW2NIXVtjSF1bY0hdbjI=

> <s_epik_cmdline>
J2VwaWtfcHl0aG9uJywgJy1waCcsICc3LjAnLCAnLXRuJywgJzgnLCAnLW1hJywgJzIwMCcsICctbWV0YWxfYmluZGluZycsICctaW1hZScsICc8aW5maWxlLm1hZT4nLCAnLW9tYWUnLCAnPG91dGZpbGUubWFlPic=

> <r_lp_tautomer_probability>
1

> <r_epik_Ionization_Penalty>
0.00225707

> <r_epik_Ionization_Penalty_Charging>
0.00223709

> <r_epik_Ionization_Penalty_Neutral>
1.99775e-05

> <r_epik_State_Penalty>
0.00153978

> <r_epik_Charging_Adjusted_Penalty>
0.00377687

> <i_epik_Tot_Q>
1

> <i_epik_Tot_abs_Q>
1

> <r_epik_Metal_State_Penalty>
-0

> <b_epik_Metal_Only>
0

> <s_lp_Force_Field>
OPLS_2005

> <r_lp_Energy>
22.4515

> <b_lp_Chiralities_Consistent>
1

> <s_lp_Variant>
AV-unprocessed.smi:3338-3

> <Gold.Version>
5.8.1

> <Gold.Id.Protein>
6NUR|6NUR_protein|mol2

> <Gold.PLP.Fitness>
41.4102

> <Gold.PLP.PLP>
-30.4619

> <Gold.PLP.part.hbond>
-2.5868

> <Gold.PLP.part.metal>
0.0000

> <Gold.PLP.part.buried>
-3.5545

> <Gold.PLP.part.nonpolar>
-24.4644

> <Gold.PLP.part.repulsive>
0.1473

> <Gold.PLP.ligand.clash>
0.0000

> <Gold.PLP.ligand.torsion>
0.5337

> <Gold.PLP.Chemscore.Hbond>
2.9600

> <Gold.PLP.Chemscore.CHOScore>
0.9924

> <Gold.PLP.Chemscore.Metal>
0.0000

> <Gold.Chemscore.Hbonds>
donor molecule, donor type, donor heavy atom, donor atom, acceptor molecule, acceptor atom, score
      L1  H     6    44       P1  7948  2.00
      L1  H     9    34       P1  7957  0.92
      L1  C    15    39       P1  8028  0.38

> <Gold.PLP.Chemscore.Internal.Correction>
0.1585

> <Gold.Rescore>
     Score         DG    S(hbond)    S(metal)    S(lipo)     H(rot)  DE(clash)    DE(int)     intcor
     13.31     -15.62       1.94        0.00      69.89       1.76       0.13       2.18       ----

> <Gold.Chemscore.Fitness>
13.3119

> <Gold.Chemscore.DG>
-15.6225

> <Gold.Chemscore.ZeroCoef>
-5.4800

> <Gold.Chemscore.Hbond>
1.9352

> <Gold.Chemscore.Metal>
0.0000

> <Gold.Chemscore.Lipo>
69.8875

> <Gold.Chemscore.Internal_Hbond>
0.0000

> <Gold.Chemscore.DEClash>
0.1262

> <Gold.Chemscore.DEInternal>
2.1843

> <Gold.Chemscore.Rot>
1.7570

> <Gold.Chemscore.Internal.Correction>
   9.000000E+99

> <Gold.Chemscore.Hbonds>
donor molecule, donor type, donor heavy atom, donor atom, acceptor molecule, acceptor atom, score
      L1  H     6    44       P1  7948  1.00
      L1  H     9    34       P1  7957  0.80

> <Gold.Chemscore.Hbond.Weighted>
-6.4635

> <Gold.Chemscore.Metal.Weighted>
-0.0000

> <Gold.Chemscore.Lipo.Weighted>
-8.1768

> <Gold.Chemscore.Internal_Hbond.Weighted>
0.0000

> <Gold.Chemscore.DEClash.Weighted>
0.1262

> <Gold.Chemscore.DEInternal.Weighted>
2.1843

> <Gold.Chemscore.Rot.Weighted>
4.4979

> <Gold.Chemscore.Internal.Correction.Weighted>
   9.000000E+99

> <Gold.Protein.RotatedTorsions>
[ 6907 6896 6895 6894 ] final  -44.75 input  -60.11 | X-H torsion
[ 7974 7965 7964 7962 ] final   97.78 input  175.53 | X-H torsion
[ 8008 7997 7996 7995 ] final -171.05 input   59.86 | X-H torsion
[ 10167 10162 10161 10158 ] final  160.39 input  -65.29 | X-H torsion
[ 10718 10713 10712 10709 ] final  118.24 input   66.30 | X-H torsion
[ 10763 10752 10751 10750 ] final   89.91 input  -60.55 | X-H torsion
[ 11005 11000 10999 10996 ] final  -12.77 input  -57.11 | X-H torsion

> <Gold.Protein.ActiveResidues>
 VAL166  LYS551  ARG553  GLY616  TRP617  ASP618  TYR619  PRO620  LYS621  CYS622 
 ASP623  PHE694  ASN695  SER759  ASP760  ASP761  ALA762  ILE779  LEU786  VAL792 
 PHE793  MET794  SER795  GLU796  ALA797  LYS798  CYS799  TRP800  GLU811  SER814 

> <Gold.Protein.RotatedAtoms>
  150.9294  134.8710  159.7541 H   0  0  0  0  0  0  0  0  0  0  0  0  # atno 6907 bound_to 6896
  152.5031  134.4101  159.9456 H   0  0  0  0  0  0  0  0  0  0  0  0  # atno 6908 bound_to 6896
  151.4129  133.3682  159.2781 H   0  0  0  0  0  0  0  0  0  0  0  0  # atno 6909 bound_to 6896
  145.4209  139.2321  143.3196 H   0  0  0  0  0  0  0  0  0  0  0  0  # atno 7974 bound_to 7965
  155.9265  140.1083  157.1166 H   0  0  0  0  0  0  0  0  0  0  0  0  # atno 8008 bound_to 7997
  154.4063  140.1246  156.4812 H   0  0  0  0  0  0  0  0  0  0  0  0  # atno 8009 bound_to 7997
  155.7132  140.3470  155.4985 H   0  0  0  0  0  0  0  0  0  0  0  0  # atno 8010 bound_to 7997
  139.4839  144.4639  151.8668 H   0  0  0  0  0  0  0  0  0  0  0  0  # atno 10167 bound_to 10162
  157.6043  131.1046  150.7728 H   0  0  0  0  0  0  0  0  0  0  0  0  # atno 10718 bound_to 10713
  153.1920  135.4453  155.0161 H   0  0  0  0  0  0  0  0  0  0  0  0  # atno 10763 bound_to 10752
  154.8096  135.3288  154.7343 H   0  0  0  0  0  0  0  0  0  0  0  0  # atno 10764 bound_to 10752
  153.7797  135.6978  153.4946 H   0  0  0  0  0  0  0  0  0  0  0  0  # atno 10765 bound_to 10752
  140.7691  133.8453  155.9191 H   0  0  0  0  0  0  0  0  0  0  0  0  # atno 11005 bound_to 11000
  146.2657  140.4933  142.8835 LP  0  0  0  0  0  0  0  0  0  0  0  0  # atno 17320 bound_to 7965
  144.8246  140.6607  143.6331 LP  0  0  0  0  0  0  0  0  0  0  0  0  # atno 17321 bound_to 7965
  140.4103  144.2378  150.5889 LP  0  0  0  0  0  0  0  0  0  0  0  0  # atno 17342 bound_to 10162
  140.4973  143.2329  151.8731 LP  0  0  0  0  0  0  0  0  0  0  0  0  # atno 17343 bound_to 10162
  156.8120  130.4955  149.5354 LP  0  0  0  0  0  0  0  0  0  0  0  0  # atno 17370 bound_to 10713
  156.1125  130.6051  151.0070 LP  0  0  0  0  0  0  0  0  0  0  0  0  # atno 17371 bound_to 10713
  140.9590  134.1680  157.4669 LP  0  0  0  0  0  0  0  0  0  0  0  0  # atno 17394 bound_to 11000
  139.8758  134.9938  156.5661 LP  0  0  0  0  0  0  0  0  0  0  0  0  # atno 17395 bound_to 11000

$$$$
