AV-unprocessed.smi:1695|AV-procd|sdf|6794|dock8
  -GOLD-   22720 7563D 1   1.00000     0.00000
 Structure written by MMmdl.
 52 54  0  0  0  0  0  0  0  0  3 V2000
  152.5037  143.9976  159.8775 C   0  0  0  0  0  0  0  0  0  0  0  0
  152.1308  142.8936  158.9026 C   0  0  0  0  0  0  0  0  0  0  0  0
  151.2254  143.1925  157.8594 C   0  0  0  0  0  0  0  0  0  0  0  0
  150.9025  142.1615  156.9852 C   0  0  0  0  0  0  0  0  0  0  0  0
  150.0571  142.1338  155.8736 N   0  3  0  0  0  0  0  0  0  0  0  0
  150.0617  140.8852  155.3295 C   0  0  0  0  0  0  0  0  0  0  0  0
  150.8932  140.1135  156.0818 N   0  0  0  0  0  0  0  0  0  0  0  0
  151.2594  138.6981  155.9373 C   0  0  0  0  0  0  0  0  0  0  0  0
  150.2295  137.8910  155.1217 C   0  0  1  0  0  0  0  0  0  0  0  0
  150.6652  137.8051  153.7787 O   0  0  0  0  0  0  0  0  0  0  0  0
  150.0534  136.4644  155.6783 C   0  0  0  0  0  0  0  0  0  0  0  0
  149.3302  135.5691  154.7387 N   0  3  1  0  0  0  0  0  0  0  0  0
  149.8933  134.1950  154.7270 C   0  0  0  0  0  0  0  0  0  0  0  0
  149.2299  133.3270  153.6403 C   0  0  0  0  0  0  0  0  0  0  0  0
  147.6913  133.2838  153.7494 C   0  0  1  0  0  0  0  0  0  0  0  0
  147.1995  132.3609  154.8802 C   0  0  0  0  0  0  0  0  0  0  0  0
  145.8790  132.2073  155.0054 N   0  0  0  0  0  0  0  0  0  0  0  0
  147.9896  131.7939  155.6319 O   0  0  0  0  0  0  0  0  0  0  0  0
  147.1452  134.7224  153.8702 C   0  0  0  0  0  0  0  0  0  0  0  0
  147.8587  135.5572  154.9513 C   0  0  0  0  0  0  0  0  0  0  0  0
  151.4457  140.8693  157.1214 C   0  0  0  0  0  0  0  0  0  0  0  0
  152.3415  140.5582  158.1416 C   0  0  0  0  0  0  0  0  0  0  0  0
  152.6820  141.5933  159.0415 C   0  0  0  0  0  0  0  0  0  0  0  0
  153.6546  141.2843  160.1669 C   0  0  0  0  0  0  0  0  0  0  0  0
  152.0067  144.9356  159.6279 H   0  0  0  0  0  0  0  0  0  0  0  0
  153.5793  144.1762  159.8618 H   0  0  0  0  0  0  0  0  0  0  0  0
  152.2122  143.7262  160.8924 H   0  0  0  0  0  0  0  0  0  0  0  0
  150.8028  144.1805  157.7473 H   0  0  0  0  0  0  0  0  0  0  0  0
  149.5045  140.5652  154.4605 H   0  0  0  0  0  0  0  0  0  0  0  0
  152.2382  138.6611  155.4566 H   0  0  0  0  0  0  0  0  0  0  0  0
  151.3879  138.2740  156.9341 H   0  0  0  0  0  0  0  0  0  0  0  0
  149.2797  138.4235  155.1337 H   0  0  0  0  0  0  0  0  0  0  0  0
  150.0397  137.2896  153.2922 H   0  0  0  0  0  0  0  0  0  0  0  0
  151.0426  136.0553  155.8915 H   0  0  0  0  0  0  0  0  0  0  0  0
  149.5241  136.4863  156.6324 H   0  0  0  0  0  0  0  0  0  0  0  0
  150.9645  134.2430  154.5282 H   0  0  0  0  0  0  0  0  0  0  0  0
  149.7825  133.7431  155.7129 H   0  0  0  0  0  0  0  0  0  0  0  0
  149.5012  133.7216  152.6602 H   0  0  0  0  0  0  0  0  0  0  0  0
  149.6401  132.3167  153.6758 H   0  0  0  0  0  0  0  0  0  0  0  0
  147.3103  132.8682  152.8149 H   0  0  0  0  0  0  0  0  0  0  0  0
  145.5035  131.6132  155.7305 H   0  0  0  0  0  0  0  0  0  0  0  0
  145.2571  132.6883  154.3713 H   0  0  0  0  0  0  0  0  0  0  0  0
  147.2590  135.2232  152.9078 H   0  0  0  0  0  0  0  0  0  0  0  0
  146.0727  134.7041  154.0691 H   0  0  0  0  0  0  0  0  0  0  0  0
  147.6337  135.1771  155.9479 H   0  0  0  0  0  0  0  0  0  0  0  0
  147.4648  136.5719  154.9177 H   0  0  0  0  0  0  0  0  0  0  0  0
  152.7618  139.5690  158.2468 H   0  0  0  0  0  0  0  0  0  0  0  0
  153.9812  140.2443  160.1384 H   0  0  0  0  0  0  0  0  0  0  0  0
  153.1873  141.4596  161.1361 H   0  0  0  0  0  0  0  0  0  0  0  0
  154.5414  141.9138  160.0903 H   0  0  0  0  0  0  0  0  0  0  0  0
  149.4930  135.9439  153.8148 H   0  0  0  0  0  0  0  0  0  0  0  0
  149.5182  142.9092  155.5092 H   0  0  0  0  0  0  0  0  0  0  0  0
  1  2  1  0  0  0  0
  1 25  1  0  0  0  0
  1 26  1  0  0  0  0
  1 27  1  0  0  0  0
  2 23  1  0  0  0  0
  2  3  2  0  0  0  0
  3  4  1  0  0  0  0
  3 28  1  0  0  0  0
  4 21  2  0  0  0  0
  4  5  1  0  0  0  0
  5  6  2  0  0  0  0
  5 52  1  0  0  0  0
  6  7  1  0  0  0  0
  6 29  1  0  0  0  0
  7  8  1  0  0  0  0
  7 21  1  0  0  0  0
  8  9  1  0  0  0  0
  8 30  1  0  0  0  0
  8 31  1  0  0  0  0
  9 10  1  0  0  0  0
  9 11  1  0  0  0  0
  9 32  1  0  0  0  0
 10 33  1  0  0  0  0
 11 12  1  0  0  0  0
 11 34  1  0  0  0  0
 11 35  1  0  0  0  0
 12 20  1  0  0  0  0
 12 13  1  0  0  0  0
 12 51  1  0  0  0  0
 13 14  1  0  0  0  0
 13 36  1  0  0  0  0
 13 37  1  0  0  0  0
 14 15  1  0  0  0  0
 14 38  1  0  0  0  0
 14 39  1  0  0  0  0
 15 16  1  0  0  0  0
 15 19  1  0  0  0  0
 15 40  1  0  0  0  0
 16 17  1  0  0  0  0
 16 18  2  0  0  0  0
 17 41  1  0  0  0  0
 17 42  1  0  0  0  0
 19 20  1  0  0  0  0
 19 43  1  0  0  0  0
 19 44  1  0  0  0  0
 20 45  1  0  0  0  0
 20 46  1  0  0  0  0
 21 22  1  0  0  0  0
 22 23  2  0  0  0  0
 22 47  1  0  0  0  0
 23 24  1  0  0  0  0
 24 48  1  0  0  0  0
 24 49  1  0  0  0  0
 24 50  1  0  0  0  0
M  CHG  1   5   1
M  CHG  1  12   1
M  END
> <s_m_source_file>
AV-unprocessed.smi

> <i_m_source_file_index>
1695

> <i_lp_mmshare_version>
43012

> <i_f3d_flags>
0

> <s_epik_input>
W0NIM11jKFtjSF0xKWMoW0NIM10pW2NIXWMoYzEyKW4oW2NIXW4yKVtDSDJdW0NASF0oW09IXSlbQ0gyXU4zW0NIMl1bQ0gyXVtDSF0oQyg9TylbTkgyXSlbQ0gyXVtDSDJdMw==

> <s_epik_cmdline>
J2VwaWtfcHl0aG9uJywgJy1waCcsICc3LjAnLCAnLXRuJywgJzgnLCAnLW1hJywgJzIwMCcsICctbWV0YWxfYmluZGluZycsICctaW1hZScsICc8aW5maWxlLm1hZT4nLCAnLW9tYWUnLCAnPG91dGZpbGUubWFlPic=

> <r_epik_Ionization_Penalty>
1.20173

> <r_epik_Ionization_Penalty_Charging>
1.20172

> <r_epik_Ionization_Penalty_Neutral>
1.7852e-06

> <r_epik_State_Penalty>
1.28089

> <r_epik_Charging_Adjusted_Penalty>
2.48261

> <i_epik_Tot_Q>
2

> <i_epik_Tot_abs_Q>
2

> <r_epik_Metal_State_Penalty>
1.35652

> <b_epik_Metal_Only>
0

> <s_lp_Force_Field>
OPLS_2005

> <r_lp_Energy>
25.0715

> <b_lp_Chiralities_Consistent>
1

> <s_lp_Variant>
AV-unprocessed.smi:1695-6

> <Gold.Version>
5.8.1

> <Gold.Id.Protein>
6NUR|6NUR_protein|mol2

> <Gold.PLP.Fitness>
55.8368

> <Gold.PLP.PLP>
-43.6199

> <Gold.PLP.part.hbond>
-4.6211

> <Gold.PLP.part.metal>
0.0000

> <Gold.PLP.part.buried>
-4.2814

> <Gold.PLP.part.nonpolar>
-35.7329

> <Gold.PLP.part.repulsive>
0.1643

> <Gold.PLP.ligand.clash>
0.0000

> <Gold.PLP.ligand.torsion>
1.3923

> <Gold.PLP.Chemscore.Hbond>
4.9840

> <Gold.PLP.Chemscore.CHOScore>
0.0000

> <Gold.PLP.Chemscore.Metal>
0.0000

> <Gold.Chemscore.Hbonds>
donor molecule, donor type, donor heavy atom, donor atom, acceptor molecule, acceptor atom, score
      L1  H     5    52       P1  8028  2.00
      L1  H    10    33       P1  7948  0.98
      L1  H    12    51       P1  7948  2.00

> <Gold.PLP.Chemscore.Internal.Correction>
0.0495

> <Gold.Rescore>
     Score         DG    S(hbond)    S(metal)    S(lipo)     H(rot)  DE(clash)    DE(int)     intcor
     18.10     -19.58       2.68        0.00     107.86       2.91       0.02       1.46       ----

> <Gold.Chemscore.Fitness>
18.1030

> <Gold.Chemscore.DG>
-19.5793

> <Gold.Chemscore.ZeroCoef>
-5.4800

> <Gold.Chemscore.Hbond>
2.6756

> <Gold.Chemscore.Metal>
0.0000

> <Gold.Chemscore.Lipo>
107.8572

> <Gold.Chemscore.Internal_Hbond>
0.0000

> <Gold.Chemscore.DEClash>
0.0189

> <Gold.Chemscore.DEInternal>
1.4575

> <Gold.Chemscore.Rot>
2.9127

> <Gold.Chemscore.Internal.Correction>
   9.000000E+99

> <Gold.Chemscore.Hbonds>
donor molecule, donor type, donor heavy atom, donor atom, acceptor molecule, acceptor atom, score
      L1  H     5    52       P1  8028  0.95
      L1  H    10    33       P1  7948  0.24
      L1  H    12    51       P1  7948  0.46

> <Gold.Chemscore.Hbond.Weighted>
-8.9366

> <Gold.Chemscore.Metal.Weighted>
-0.0000

> <Gold.Chemscore.Lipo.Weighted>
-12.6193

> <Gold.Chemscore.Internal_Hbond.Weighted>
0.0000

> <Gold.Chemscore.DEClash.Weighted>
0.0189

> <Gold.Chemscore.DEInternal.Weighted>
1.4575

> <Gold.Chemscore.Rot.Weighted>
7.4565

> <Gold.Chemscore.Internal.Correction.Weighted>
   9.000000E+99

> <Gold.Protein.RotatedTorsions>
[ 6907 6896 6895 6894 ] final  129.99 input  -60.11 | X-H torsion
[ 7974 7965 7964 7962 ] final  -23.58 input  175.53 | X-H torsion
[ 8008 7997 7996 7995 ] final -135.24 input   59.86 | X-H torsion
[ 10167 10162 10161 10158 ] final   40.88 input  -65.29 | X-H torsion
[ 10718 10713 10712 10709 ] final  -39.92 input   66.30 | X-H torsion
[ 10763 10752 10751 10750 ] final  -78.35 input  -60.55 | X-H torsion
[ 11005 11000 10999 10996 ] final -156.88 input  -57.11 | X-H torsion

> <Gold.Protein.ActiveResidues>
 VAL166  LYS551  ARG553  GLY616  TRP617  ASP618  TYR619  PRO620  LYS621  CYS622 
 ASP623  PHE694  ASN695  SER759  ASP760  ASP761  ALA762  ILE779  LEU786  VAL792 
 PHE793  MET794  SER795  GLU796  ALA797  LYS798  CYS799  TRP800  GLU811  SER814 

> <Gold.Protein.RotatedAtoms>
  152.3570  133.6249  159.5986 H   0  0  0  0  0  0  0  0  0  0  0  0  # atno 6907 bound_to 6896
  150.7575  133.9484  159.3487 H   0  0  0  0  0  0  0  0  0  0  0  0  # atno 6908 bound_to 6896
  151.7328  135.0872  160.0354 H   0  0  0  0  0  0  0  0  0  0  0  0  # atno 6909 bound_to 6896
  146.1607  140.4635  142.8572 H   0  0  0  0  0  0  0  0  0  0  0  0  # atno 7974 bound_to 7965
  155.3754  140.0491  157.3045 H   0  0  0  0  0  0  0  0  0  0  0  0  # atno 8008 bound_to 7997
  154.5109  140.2191  155.9121 H   0  0  0  0  0  0  0  0  0  0  0  0  # atno 8009 bound_to 7997
  156.1581  140.3122  155.8766 H   0  0  0  0  0  0  0  0  0  0  0  0  # atno 8010 bound_to 7997
  140.3698  144.2119  150.6133 H   0  0  0  0  0  0  0  0  0  0  0  0  # atno 10167 bound_to 10162
  156.2871  130.4224  149.8276 H   0  0  0  0  0  0  0  0  0  0  0  0  # atno 10718 bound_to 10713
  154.5248  135.5733  153.6710 H   0  0  0  0  0  0  0  0  0  0  0  0  # atno 10763 bound_to 10752
  152.9925  135.6190  154.2707 H   0  0  0  0  0  0  0  0  0  0  0  0  # atno 10764 bound_to 10752
  154.2630  135.2855  155.2750 H   0  0  0  0  0  0  0  0  0  0  0  0  # atno 10765 bound_to 10752
  140.6707  134.4250  157.5231 H   0  0  0  0  0  0  0  0  0  0  0  0  # atno 11005 bound_to 11000
  144.8023  140.6237  143.6469 LP  0  0  0  0  0  0  0  0  0  0  0  0  # atno 17320 bound_to 7965
  145.4595  139.1514  143.3874 LP  0  0  0  0  0  0  0  0  0  0  0  0  # atno 17321 bound_to 7965
  140.5044  143.2308  151.8630 LP  0  0  0  0  0  0  0  0  0  0  0  0  # atno 17342 bound_to 10162
  139.4805  144.5022  151.9045 LP  0  0  0  0  0  0  0  0  0  0  0  0  # atno 17343 bound_to 10162
  156.5703  130.8422  151.3354 LP  0  0  0  0  0  0  0  0  0  0  0  0  # atno 17370 bound_to 10713
  157.7332  130.9726  150.1964 LP  0  0  0  0  0  0  0  0  0  0  0  0  # atno 17371 bound_to 10713
  139.8982  134.8618  156.2009 LP  0  0  0  0  0  0  0  0  0  0  0  0  # atno 17394 bound_to 11000
  141.0394  133.6946  156.1571 LP  0  0  0  0  0  0  0  0  0  0  0  0  # atno 17395 bound_to 11000

$$$$
