AV-unprocessed.smi:3124|AV-procd|sdf|11905|dock5
  -GOLD-   2272017293D 1   1.00000     0.00000
 Structure written by MMmdl.
 24 24  0  0  0  0  0  0  0  0  2 V2000
  152.1567  141.0725  158.7005 C   0  0  0  0  0  0  0  0  0  0  0  0
  152.0294  140.3904  157.3699 C   0  0  0  0  0  0  0  0  0  0  0  0
  150.8815  140.3102  156.5284 C   0  0  0  0  0  0  0  0  0  0  0  0
  151.2997  139.5800  155.4490 C   0  0  0  0  0  0  0  0  0  0  0  0
  150.6046  139.1378  154.1977 C   0  0  0  0  0  0  0  0  0  0  0  0
  149.0707  139.2917  154.2152 C   0  0  1  0  0  0  0  0  0  0  0  0
  148.6508  140.7558  154.4039 C   0  0  0  0  0  0  0  0  0  0  0  0
  148.4722  138.7488  152.9812 N   0  3  0  0  0  0  0  0  0  0  0  0
  152.6230  139.2827  155.6838 N   0  0  0  0  0  0  0  0  0  0  0  0
  153.0766  139.7651  156.8551 N   0  0  0  0  0  0  0  0  0  0  0  0
  153.2218  138.7568  155.0628 H   0  0  0  0  0  0  0  0  0  0  0  0
  151.3766  141.8221  158.8343 H   0  0  0  0  0  0  0  0  0  0  0  0
  153.1185  141.5768  158.7987 H   0  0  0  0  0  0  0  0  0  0  0  0
  152.0714  140.3548  159.5168 H   0  0  0  0  0  0  0  0  0  0  0  0
  149.9012  140.7305  156.6976 H   0  0  0  0  0  0  0  0  0  0  0  0
  151.0081  139.7130  153.3636 H   0  0  0  0  0  0  0  0  0  0  0  0
  150.8620  138.0978  153.9913 H   0  0  0  0  0  0  0  0  0  0  0  0
  148.6692  138.7197  155.0525 H   0  0  0  0  0  0  0  0  0  0  0  0
  149.0485  141.1613  155.3348 H   0  0  0  0  0  0  0  0  0  0  0  0
  147.5652  140.8528  154.4426 H   0  0  0  0  0  0  0  0  0  0  0  0
  149.0125  141.3825  153.5878 H   0  0  0  0  0  0  0  0  0  0  0  0
  148.7433  139.3197  152.1934 H   0  0  0  0  0  0  0  0  0  0  0  0
  147.4656  138.7480  153.0655 H   0  0  0  0  0  0  0  0  0  0  0  0
  148.7983  137.8033  152.8379 H   0  0  0  0  0  0  0  0  0  0  0  0
  1  2  1  0  0  0  0
  1 12  1  0  0  0  0
  1 13  1  0  0  0  0
  1 14  1  0  0  0  0
  2 10  2  0  0  0  0
  2  3  1  0  0  0  0
  3  4  2  0  0  0  0
  3 15  1  0  0  0  0
  4  5  1  0  0  0  0
  4  9  1  0  0  0  0
  5  6  1  0  0  0  0
  5 16  1  0  0  0  0
  5 17  1  0  0  0  0
  6  7  1  0  0  0  0
  6  8  1  0  0  0  0
  6 18  1  0  0  0  0
  7 19  1  0  0  0  0
  7 20  1  0  0  0  0
  7 21  1  0  0  0  0
  8 22  1  0  0  0  0
  8 23  1  0  0  0  0
  8 24  1  0  0  0  0
  9 11  1  0  0  0  0
  9 10  1  0  0  0  0
M  CHG  1   8   1
M  END
> <s_m_source_file>
AV-unprocessed.smi

> <i_m_source_file_index>
3124

> <i_lp_mmshare_version>
43012

> <i_f3d_flags>
0

> <s_epik_input>
W0NIM11jMVtjSF1jKFtuSF1uMSlbQ0gyXVtDQEhdKFtDSDNdKVtOSDJd

> <s_epik_cmdline>
J2VwaWtfcHl0aG9uJywgJy1waCcsICc3LjAnLCAnLXRuJywgJzgnLCAnLW1hJywgJzIwMCcsICctbWV0YWxfYmluZGluZycsICctaW1hZScsICc8aW5maWxlLm1hZT4nLCAnLW9tYWUnLCAnPG91dGZpbGUubWFlPic=

> <r_lp_tautomer_probability>
0.5

> <r_epik_Ionization_Penalty>
0.00227197

> <r_epik_Ionization_Penalty_Charging>
0.00223142

> <r_epik_Ionization_Penalty_Neutral>
4.05538e-05

> <r_epik_State_Penalty>
0.446108

> <r_epik_Charging_Adjusted_Penalty>
0.448339

> <i_epik_Tot_Q>
1

> <i_epik_Tot_abs_Q>
1

> <r_epik_Metal_State_Penalty>
0.444886

> <b_epik_Metal_Only>
0

> <s_lp_Force_Field>
OPLS_2005

> <r_lp_Energy>
4.61405

> <b_lp_Chiralities_Consistent>
1

> <s_lp_Variant>
AV-unprocessed.smi:3124-4

> <Gold.Version>
5.8.1

> <Gold.Id.Protein>
6NUR|6NUR_protein|mol2

> <Gold.PLP.Fitness>
30.9836

> <Gold.PLP.PLP>
-19.2703

> <Gold.PLP.part.hbond>
-3.0000

> <Gold.PLP.part.metal>
0.0000

> <Gold.PLP.part.buried>
-2.7445

> <Gold.PLP.part.nonpolar>
-14.3006

> <Gold.PLP.part.repulsive>
0.2641

> <Gold.PLP.ligand.clash>
0.0000

> <Gold.PLP.ligand.torsion>
0.1450

> <Gold.PLP.Chemscore.Hbond>
4.0000

> <Gold.PLP.Chemscore.CHOScore>
0.0000

> <Gold.PLP.Chemscore.Metal>
0.0000

> <Gold.Chemscore.Hbonds>
donor molecule, donor type, donor heavy atom, donor atom, acceptor molecule, acceptor atom, score
      L1  H     8    22       P1  7957  0.96
      L1  H     8    24       P1  7948  2.00
      P1  H  7997  8009       L1    10  0.59

> <Gold.PLP.Chemscore.Internal.Correction>
0.0033

> <Gold.Rescore>
     Score         DG    S(hbond)    S(metal)    S(lipo)     H(rot)  DE(clash)    DE(int)     intcor
     16.87     -17.27       2.85        0.00      47.70       1.30       0.04       0.36       ----

> <Gold.Chemscore.Fitness>
16.8666

> <Gold.Chemscore.DG>
-17.2658

> <Gold.Chemscore.ZeroCoef>
-5.4800

> <Gold.Chemscore.Hbond>
2.8532

> <Gold.Chemscore.Metal>
0.0000

> <Gold.Chemscore.Lipo>
47.6987

> <Gold.Chemscore.Internal_Hbond>
0.0000

> <Gold.Chemscore.DEClash>
0.0431

> <Gold.Chemscore.DEInternal>
0.3560

> <Gold.Chemscore.Rot>
1.2987

> <Gold.Chemscore.Internal.Correction>
   9.000000E+99

> <Gold.Chemscore.Hbonds>
donor molecule, donor type, donor heavy atom, donor atom, acceptor molecule, acceptor atom, score
      L1  H     8    22       P1  7957  0.91
      L1  H     8    24       P1  7948  0.97
      P1  H  7997  8009       L1    10  0.38

> <Gold.Chemscore.Hbond.Weighted>
-9.5296

> <Gold.Chemscore.Metal.Weighted>
-0.0000

> <Gold.Chemscore.Lipo.Weighted>
-5.5808

> <Gold.Chemscore.Internal_Hbond.Weighted>
0.0000

> <Gold.Chemscore.DEClash.Weighted>
0.0431

> <Gold.Chemscore.DEInternal.Weighted>
0.3560

> <Gold.Chemscore.Rot.Weighted>
3.3246

> <Gold.Chemscore.Internal.Correction.Weighted>
   9.000000E+99

> <Gold.Protein.RotatedTorsions>
[ 6907 6896 6895 6894 ] final -176.65 input  -60.11 | X-H torsion
[ 7974 7965 7964 7962 ] final  -38.99 input  175.53 | X-H torsion
[ 8008 7997 7996 7995 ] final  175.59 input   59.86 | X-H torsion
[ 10167 10162 10161 10158 ] final  172.11 input  -65.29 | X-H torsion
[ 10718 10713 10712 10709 ] final  -74.34 input   66.30 | X-H torsion
[ 10763 10752 10751 10750 ] final  -66.98 input  -60.55 | X-H torsion
[ 11005 11000 10999 10996 ] final  107.31 input  -57.11 | X-H torsion

> <Gold.Protein.ActiveResidues>
 VAL166  LYS551  ARG553  GLY616  TRP617  ASP618  TYR619  PRO620  LYS621  CYS622 
 ASP623  PHE694  ASN695  SER759  ASP760  ASP761  ALA762  ILE779  LEU786  VAL792 
 PHE793  MET794  SER795  GLU796  ALA797  LYS798  CYS799  TRP800  GLU811  SER814 

> <Gold.Protein.RotatedAtoms>
  151.6082  133.3349  159.3061 H   0  0  0  0  0  0  0  0  0  0  0  0  # atno 6907 bound_to 6896
  150.8170  134.7361  159.6750 H   0  0  0  0  0  0  0  0  0  0  0  0  # atno 6908 bound_to 6896
  152.4266  134.5862  160.0013 H   0  0  0  0  0  0  0  0  0  0  0  0  # atno 6909 bound_to 6896
  146.0436  140.6575  142.9075 H   0  0  0  0  0  0  0  0  0  0  0  0  # atno 7974 bound_to 7965
  156.0854  140.1405  156.9659 H   0  0  0  0  0  0  0  0  0  0  0  0  # atno 8008 bound_to 7997
  154.4610  140.0943  156.6940 H   0  0  0  0  0  0  0  0  0  0  0  0  # atno 8009 bound_to 7997
  155.5007  140.3451  155.4373 H   0  0  0  0  0  0  0  0  0  0  0  0  # atno 8010 bound_to 7997
  139.5067  144.3410  152.0018 H   0  0  0  0  0  0  0  0  0  0  0  0  # atno 10167 bound_to 10162
  156.0246  130.4415  150.2878 H   0  0  0  0  0  0  0  0  0  0  0  0  # atno 10718 bound_to 10713
  154.3678  135.6102  153.5724 H   0  0  0  0  0  0  0  0  0  0  0  0  # atno 10763 bound_to 10752
  152.9791  135.5830  154.4558 H   0  0  0  0  0  0  0  0  0  0  0  0  # atno 10764 bound_to 10752
  154.4306  135.2848  155.1892 H   0  0  0  0  0  0  0  0  0  0  0  0  # atno 10765 bound_to 10752
  139.8826  134.9397  156.5800 H   0  0  0  0  0  0  0  0  0  0  0  0  # atno 11005 bound_to 11000
  144.7087  140.3954  143.7098 LP  0  0  0  0  0  0  0  0  0  0  0  0  # atno 17320 bound_to 7965
  145.6842  139.1625  143.2683 LP  0  0  0  0  0  0  0  0  0  0  0  0  # atno 17321 bound_to 7965
  140.2848  144.3819  150.6107 LP  0  0  0  0  0  0  0  0  0  0  0  0  # atno 17342 bound_to 10162
  140.5991  143.2167  151.7107 LP  0  0  0  0  0  0  0  0  0  0  0  0  # atno 17343 bound_to 10162
  157.0981  131.0188  151.3096 LP  0  0  0  0  0  0  0  0  0  0  0  0  # atno 17370 bound_to 10713
  157.4801  130.7760  149.7406 LP  0  0  0  0  0  0  0  0  0  0  0  0  # atno 17371 bound_to 10713
  140.8034  133.8487  155.8746 LP  0  0  0  0  0  0  0  0  0  0  0  0  # atno 17394 bound_to 11000
  140.9572  134.1703  157.4682 LP  0  0  0  0  0  0  0  0  0  0  0  0  # atno 17395 bound_to 11000

$$$$
