AV-unprocessed.smi:76|AV-procd|sdf|769|dock8
  -GOLD-   2262017113D 1   1.00000     0.00000
 Structure written by MMmdl.
 55 58  0  0  0  0  0  0  0  0  1 V2000
  150.3610  141.5068  155.4385 C   0  0  0  0  0  0  0  0  0  0  0  0
  150.9986  141.2729  156.8244 C   0  0  2  0  0  0  0  0  0  0  0  0
  151.3288  142.6304  157.4806 C   0  0  0  0  0  0  0  0  0  0  0  0
  151.9975  142.4630  158.8595 C   0  0  2  0  0  0  0  0  0  0  0  0
  152.3337  143.8183  159.5141 C   0  0  0  0  0  0  0  0  0  0  0  0
  153.1203  144.5472  158.7217 F   0  0  0  0  0  0  0  0  0  0  0  0
  151.2132  144.4991  159.7535 F   0  0  0  0  0  0  0  0  0  0  0  0
  152.9569  143.6204  160.6758 F   0  0  0  0  0  0  0  0  0  0  0  0
  153.2389  141.5644  158.7082 C   0  0  0  0  0  0  0  0  0  0  0  0
  152.8687  140.2265  158.0536 C   0  0  0  0  0  0  0  0  0  0  0  0
  152.2042  140.4342  156.7676 N   0  0  0  0  0  0  0  0  0  0  0  0
  152.0662  139.2739  156.0870 C   0  0  0  0  0  0  0  0  0  0  0  0
  152.1705  139.2624  154.7315 N   0  0  0  0  0  0  0  0  0  0  0  0
  152.0474  138.1103  154.0652 C   0  0  0  0  0  0  0  0  0  0  0  0
  151.8252  136.8854  154.5484 N   0  0  0  0  0  0  0  0  0  0  0  0
  151.7201  136.8988  155.9087 C   0  0  0  0  0  0  0  0  0  0  0  0
  151.8288  138.0413  156.7484 C   0  0  0  0  0  0  0  0  0  0  0  0
  151.6802  137.6740  158.0790 N   0  0  0  0  0  0  0  0  0  0  0  0
  151.4957  136.3827  158.0295 C   0  0  0  0  0  0  0  0  0  0  0  0
  151.4888  135.8355  156.7652 N   0  0  0  0  0  0  0  0  0  0  0  0
  151.3137  134.4312  156.4219 C   0  0  0  0  0  0  0  0  0  0  0  0
  149.9709  134.0859  155.7039 C   0  0  0  0  0  0  0  0  0  0  0  0
  149.9744  134.7505  154.2989 C   0  0  0  0  0  0  0  0  0  0  0  0
  148.8755  134.3706  153.4939 O   0  0  0  0  0  0  0  0  0  0  0  0
  149.8565  132.5455  155.5676 C   0  0  0  0  0  0  0  0  0  0  0  0
  149.5903  131.8472  156.9151 C   0  0  0  0  0  0  0  0  0  0  0  0
  148.4287  132.3916  157.5299 O   0  0  0  0  0  0  0  0  0  0  0  0
  148.5471  133.7795  157.8180 C   0  0  0  0  0  0  0  0  0  0  0  0
  148.7389  134.5706  156.5118 C   0  0  0  0  0  0  0  0  0  0  0  0
  149.5020  142.1739  155.5133 H   0  0  0  0  0  0  0  0  0  0  0  0
  150.0024  140.5796  154.9908 H   0  0  0  0  0  0  0  0  0  0  0  0
  151.0722  141.9591  154.7465 H   0  0  0  0  0  0  0  0  0  0  0  0
  150.2672  140.7621  157.4528 H   0  0  0  0  0  0  0  0  0  0  0  0
  151.9871  143.2007  156.8237 H   0  0  0  0  0  0  0  0  0  0  0  0
  150.4157  143.2174  157.5829 H   0  0  0  0  0  0  0  0  0  0  0  0
  151.2903  141.9489  159.5124 H   0  0  0  0  0  0  0  0  0  0  0  0
  153.9936  142.0686  158.1035 H   0  0  0  0  0  0  0  0  0  0  0  0
  153.6940  141.3798  159.6814 H   0  0  0  0  0  0  0  0  0  0  0  0
  153.7692  139.6266  157.9128 H   0  0  0  0  0  0  0  0  0  0  0  0
  152.2117  139.6633  158.7186 H   0  0  0  0  0  0  0  0  0  0  0  0
  152.1418  138.1793  152.9915 H   0  0  0  0  0  0  0  0  0  0  0  0
  151.3539  135.7901  158.9215 H   0  0  0  0  0  0  0  0  0  0  0  0
  152.1532  134.1378  155.7900 H   0  0  0  0  0  0  0  0  0  0  0  0
  151.4347  133.8592  157.3403 H   0  0  0  0  0  0  0  0  0  0  0  0
  149.9487  135.8368  154.3839 H   0  0  0  0  0  0  0  0  0  0  0  0
  150.8887  134.4963  153.7618 H   0  0  0  0  0  0  0  0  0  0  0  0
  148.6766  135.0805  152.9027 H   0  0  0  0  0  0  0  0  0  0  0  0
  149.0339  132.2858  154.9009 H   0  0  0  0  0  0  0  0  0  0  0  0
  150.7557  132.1358  155.1063 H   0  0  0  0  0  0  0  0  0  0  0  0
  149.4257  130.7821  156.7503 H   0  0  0  0  0  0  0  0  0  0  0  0
  150.4443  131.9247  157.5880 H   0  0  0  0  0  0  0  0  0  0  0  0
  147.6352  134.1072  158.3174 H   0  0  0  0  0  0  0  0  0  0  0  0
  149.3641  133.9523  158.5188 H   0  0  0  0  0  0  0  0  0  0  0  0
  148.7975  135.6381  156.7203 H   0  0  0  0  0  0  0  0  0  0  0  0
  147.8335  134.4417  155.9180 H   0  0  0  0  0  0  0  0  0  0  0  0
  1  2  1  0  0  0  0
  1 30  1  0  0  0  0
  1 31  1  0  0  0  0
  1 32  1  0  0  0  0
  2 11  1  0  0  0  0
  2  3  1  0  0  0  0
  2 33  1  0  0  0  0
  3  4  1  0  0  0  0
  3 34  1  0  0  0  0
  3 35  1  0  0  0  0
  4  5  1  0  0  0  0
  4  9  1  0  0  0  0
  4 36  1  0  0  0  0
  5  6  1  0  0  0  0
  5  7  1  0  0  0  0
  5  8  1  0  0  0  0
  9 10  1  0  0  0  0
  9 37  1  0  0  0  0
  9 38  1  0  0  0  0
 10 11  1  0  0  0  0
 10 39  1  0  0  0  0
 10 40  1  0  0  0  0
 11 12  1  0  0  0  0
 12 17  1  0  0  0  0
 12 13  2  0  0  0  0
 13 14  1  0  0  0  0
 14 15  2  0  0  0  0
 14 41  1  0  0  0  0
 15 16  1  0  0  0  0
 16 20  1  0  0  0  0
 16 17  2  0  0  0  0
 17 18  1  0  0  0  0
 18 19  2  0  0  0  0
 19 20  1  0  0  0  0
 19 42  1  0  0  0  0
 20 21  1  0  0  0  0
 21 22  1  0  0  0  0
 21 43  1  0  0  0  0
 21 44  1  0  0  0  0
 22 29  1  0  0  0  0
 22 23  1  0  0  0  0
 22 25  1  0  0  0  0
 23 24  1  0  0  0  0
 23 45  1  0  0  0  0
 23 46  1  0  0  0  0
 24 47  1  0  0  0  0
 25 26  1  0  0  0  0
 25 48  1  0  0  0  0
 25 49  1  0  0  0  0
 26 27  1  0  0  0  0
 26 50  1  0  0  0  0
 26 51  1  0  0  0  0
 27 28  1  0  0  0  0
 28 29  1  0  0  0  0
 28 52  1  0  0  0  0
 28 53  1  0  0  0  0
 29 54  1  0  0  0  0
 29 55  1  0  0  0  0
M  END
> <s_m_source_file>
AV-unprocessed.smi

> <i_m_source_file_index>
76

> <i_lp_mmshare_version>
43012

> <i_f3d_flags>
0

> <s_epik_input>
W0NIM11bQ0BASF0xW0NIMl1bQ0BASF0oQyhGKShGKUYpW0NIMl1bQ0gyXU4xYyhuW2NIXW4yKWMoYzIzKW5bY0hdbjNbQ0gyXUM0KFtDSDJdW09IXSlbQ0gyXVtDSDJdT1tDSDJdW0NIMl00

> <s_epik_cmdline>
J2VwaWtfcHl0aG9uJywgJy1waCcsICc3LjAnLCAnLXRuJywgJzgnLCAnLW1hJywgJzIwMCcsICctbWV0YWxfYmluZGluZycsICctaW1hZScsICc8aW5maWxlLm1hZT4nLCAnLW9tYWUnLCAnPG91dGZpbGUubWFlPic=

> <r_lp_tautomer_probability>
1

> <r_epik_Ionization_Penalty>
0.00244097

> <r_epik_Ionization_Penalty_Charging>
0

> <r_epik_Ionization_Penalty_Neutral>
0.00244097

> <r_epik_State_Penalty>
0.00151846

> <r_epik_Charging_Adjusted_Penalty>
0.00151846

> <i_epik_Tot_Q>
0

> <i_epik_Tot_abs_Q>
0

> <r_epik_Metal_State_Penalty>
-0

> <b_epik_Metal_Only>
0

> <s_lp_Force_Field>
OPLS_2005

> <r_lp_Energy>
38.0325

> <b_lp_Chiralities_Consistent>
1

> <s_lp_Variant>
AV-unprocessed.smi:76-3

> <Gold.Version>
5.8.1

> <Gold.Id.Protein>
6NUR|6NUR_protein|mol2

> <Gold.PLP.Fitness>
50.4740

> <Gold.PLP.PLP>
-43.2712

> <Gold.PLP.part.hbond>
-3.0000

> <Gold.PLP.part.metal>
0.0000

> <Gold.PLP.part.buried>
-3.1975

> <Gold.PLP.part.nonpolar>
-36.8039

> <Gold.PLP.part.repulsive>
0.2168

> <Gold.PLP.ligand.clash>
0.0161

> <Gold.PLP.ligand.torsion>
0.8535

> <Gold.PLP.Chemscore.Hbond>
2.3672

> <Gold.PLP.Chemscore.CHOScore>
0.5409

> <Gold.PLP.Chemscore.Metal>
0.0000

> <Gold.Chemscore.Hbonds>
donor molecule, donor type, donor heavy atom, donor atom, acceptor molecule, acceptor atom, score
      L1  H    24    47       P1  7948  1.00
      P1  H  7989  7998       L1    13  0.74
      P1  H 10752 10765       L1    15  0.18
      L1  C    14    41       P1  7949  0.21

> <Gold.PLP.Chemscore.Internal.Correction>
0.2015

> <Gold.Rescore>
     Score         DG    S(hbond)    S(metal)    S(lipo)     H(rot)  DE(clash)    DE(int)     intcor
      8.34     -10.22       1.00        0.00      66.01       2.47       0.06       1.82       ----

> <Gold.Chemscore.Fitness>
8.3399

> <Gold.Chemscore.DG>
-10.2163

> <Gold.Chemscore.ZeroCoef>
-5.4800

> <Gold.Chemscore.Hbond>
0.9962

> <Gold.Chemscore.Metal>
0.0000

> <Gold.Chemscore.Lipo>
66.0106

> <Gold.Chemscore.Internal_Hbond>
0.0000

> <Gold.Chemscore.DEClash>
0.0601

> <Gold.Chemscore.DEInternal>
1.8163

> <Gold.Chemscore.Rot>
2.4665

> <Gold.Chemscore.Internal.Correction>
   9.000000E+99

> <Gold.Chemscore.Hbonds>
donor molecule, donor type, donor heavy atom, donor atom, acceptor molecule, acceptor atom, score
      L1  H    24    47       P1  7948  0.42
      P1  H  7989  7998       L1    13  0.53

> <Gold.Chemscore.Hbond.Weighted>
-3.3272

> <Gold.Chemscore.Metal.Weighted>
-0.0000

> <Gold.Chemscore.Lipo.Weighted>
-7.7232

> <Gold.Chemscore.Internal_Hbond.Weighted>
0.0000

> <Gold.Chemscore.DEClash.Weighted>
0.0601

> <Gold.Chemscore.DEInternal.Weighted>
1.8163

> <Gold.Chemscore.Rot.Weighted>
6.3142

> <Gold.Chemscore.Internal.Correction.Weighted>
   9.000000E+99

> <Gold.Protein.RotatedTorsions>
[ 6907 6896 6895 6894 ] final  -54.91 input  -60.11 | X-H torsion
[ 7974 7965 7964 7962 ] final  -64.56 input  175.53 | X-H torsion
[ 8008 7997 7996 7995 ] final   93.84 input   59.86 | X-H torsion
[ 10167 10162 10161 10158 ] final  -77.68 input  -65.29 | X-H torsion
[ 10718 10713 10712 10709 ] final   44.22 input   66.30 | X-H torsion
[ 10763 10752 10751 10750 ] final -163.35 input  -60.55 | X-H torsion
[ 11005 11000 10999 10996 ] final  156.68 input  -57.11 | X-H torsion

> <Gold.Protein.ActiveResidues>
 VAL166  LYS551  ARG553  GLY616  TRP617  ASP618  TYR619  PRO620  LYS621  CYS622 
 ASP623  PHE694  ASN695  SER759  ASP760  ASP761  ALA762  ILE779  LEU786  VAL792 
 PHE793  MET794  SER795  GLU796  ALA797  LYS798  CYS799  TRP800  GLU811  SER814 

> <Gold.Protein.RotatedAtoms>
  150.8297  134.7544  159.6842 H   0  0  0  0  0  0  0  0  0  0  0  0  # atno 6907 bound_to 6896
  152.4403  134.5601  159.9901 H   0  0  0  0  0  0  0  0  0  0  0  0  # atno 6908 bound_to 6896
  151.5765  133.3345  159.3035 H   0  0  0  0  0  0  0  0  0  0  0  0  # atno 6909 bound_to 6896
  145.7652  140.8841  143.0409 H   0  0  0  0  0  0  0  0  0  0  0  0  # atno 7974 bound_to 7965
  156.0512  140.3307  155.7354 H   0  0  0  0  0  0  0  0  0  0  0  0  # atno 8008 bound_to 7997
  155.5597  140.0618  157.2849 H   0  0  0  0  0  0  0  0  0  0  0  0  # atno 8009 bound_to 7997
  154.4437  140.1879  156.0758 H   0  0  0  0  0  0  0  0  0  0  0  0  # atno 8010 bound_to 7997
  140.4749  143.2417  151.8149 H   0  0  0  0  0  0  0  0  0  0  0  0  # atno 10167 bound_to 10162
  157.4244  130.7988  149.7545 H   0  0  0  0  0  0  0  0  0  0  0  0  # atno 10718 bound_to 10713
  154.7130  135.3010  154.9167 H   0  0  0  0  0  0  0  0  0  0  0  0  # atno 10763 bound_to 10752
  154.0063  135.6700  153.4766 H   0  0  0  0  0  0  0  0  0  0  0  0  # atno 10764 bound_to 10752
  153.0770  135.5029  154.8340 H   0  0  0  0  0  0  0  0  0  0  0  0  # atno 10765 bound_to 10752
  140.1698  134.8551  157.2676 H   0  0  0  0  0  0  0  0  0  0  0  0  # atno 11005 bound_to 11000
  144.6823  139.9778  143.7483 LP  0  0  0  0  0  0  0  0  0  0  0  0  # atno 17320 bound_to 7965
  146.0225  139.3263  143.0804 LP  0  0  0  0  0  0  0  0  0  0  0  0  # atno 17321 bound_to 7965
  139.4824  144.4846  151.9263 LP  0  0  0  0  0  0  0  0  0  0  0  0  # atno 17342 bound_to 10162
  140.3931  144.2590  150.5898 LP  0  0  0  0  0  0  0  0  0  0  0  0  # atno 17343 bound_to 10162
  155.9891  130.3954  150.3086 LP  0  0  0  0  0  0  0  0  0  0  0  0  # atno 17370 bound_to 10713
  157.1237  131.0253  151.2998 LP  0  0  0  0  0  0  0  0  0  0  0  0  # atno 17371 bound_to 10713
  140.2391  134.3817  155.7488 LP  0  0  0  0  0  0  0  0  0  0  0  0  # atno 17394 bound_to 11000
  141.2216  133.7255  156.8761 LP  0  0  0  0  0  0  0  0  0  0  0  0  # atno 17395 bound_to 11000

$$$$
