AV-unprocessed.smi:1547|AV-procd|sdf|6220|dock9
  -GOLD-   22720 6393D 1   1.00000     0.00000
 Structure written by MMmdl.
 40 41  0  0  0  0  0  0  0  0  2 V2000
  149.9047  142.2694  155.7746 C   0  0  0  0  0  0  0  0  0  0  0  0
  149.7361  140.9578  155.0662 C   0  0  0  0  0  0  0  0  0  0  0  0
  148.5937  140.4838  154.3581 C   0  0  0  0  0  0  0  0  0  0  0  0
  148.9976  139.2500  153.9261 C   0  0  0  0  0  0  0  0  0  0  0  0
  148.3126  138.3356  153.1888 N   0  0  0  0  0  0  0  0  0  0  0  0
  146.9827  138.1644  153.0892 C   0  0  0  0  0  0  0  0  0  0  0  0
  146.1298  138.8154  153.6934 O   0  0  0  0  0  0  0  0  0  0  0  0
  146.6812  137.1773  152.2332 N   0  0  0  0  0  0  0  0  0  0  0  0
  145.3267  136.7440  151.9100 C   0  0  0  0  0  0  0  0  0  0  0  0
  145.3130  135.7590  150.7259 C   0  0  0  0  0  0  0  0  0  0  0  0
  145.1819  134.3535  151.1746 N   0  3  0  0  0  0  0  0  0  0  0  0
  143.7885  133.8820  151.3700 C   0  0  0  0  0  0  0  0  0  0  0  0
  143.6952  132.4875  150.7371 C   0  0  0  0  0  0  0  0  0  0  0  0
  145.1454  132.0542  150.5505 C   0  0  0  0  0  0  0  0  0  0  0  0
  145.8617  133.3767  150.2994 C   0  0  0  0  0  0  0  0  0  0  0  0
  150.2876  139.0291  154.3546 N   0  0  0  0  0  0  0  0  0  0  0  0
  151.1420  137.8756  154.1499 C   0  0  0  0  0  0  0  0  0  0  0  0
  150.7396  140.0876  155.0613 N   0  0  0  0  0  0  0  0  0  0  0  0
  149.0174  142.8932  155.6653 H   0  0  0  0  0  0  0  0  0  0  0  0
  150.7524  142.8262  155.3745 H   0  0  0  0  0  0  0  0  0  0  0  0
  150.0755  142.1201  156.8410 H   0  0  0  0  0  0  0  0  0  0  0  0
  147.6488  140.9830  154.2048 H   0  0  0  0  0  0  0  0  0  0  0  0
  148.8854  137.7095  152.6422 H   0  0  0  0  0  0  0  0  0  0  0  0
  147.4398  136.6886  151.7797 H   0  0  0  0  0  0  0  0  0  0  0  0
  144.9024  136.2677  152.7943 H   0  0  0  0  0  0  0  0  0  0  0  0
  144.7079  137.6185  151.7025 H   0  0  0  0  0  0  0  0  0  0  0  0
  144.5059  135.9915  150.0293 H   0  0  0  0  0  0  0  0  0  0  0  0
  146.2456  135.8624  150.1691 H   0  0  0  0  0  0  0  0  0  0  0  0
  143.5815  133.8412  152.4398 H   0  0  0  0  0  0  0  0  0  0  0  0
  143.0568  134.5538  150.9183 H   0  0  0  0  0  0  0  0  0  0  0  0
  143.1210  131.7864  151.3438 H   0  0  0  0  0  0  0  0  0  0  0  0
  143.2084  132.5596  149.7636 H   0  0  0  0  0  0  0  0  0  0  0  0
  145.5187  131.5955  151.4671 H   0  0  0  0  0  0  0  0  0  0  0  0
  145.2745  131.3397  149.7368 H   0  0  0  0  0  0  0  0  0  0  0  0
  145.7367  133.6667  149.2545 H   0  0  0  0  0  0  0  0  0  0  0  0
  146.9304  133.3228  150.5094 H   0  0  0  0  0  0  0  0  0  0  0  0
  151.1797  137.6299  153.0884 H   0  0  0  0  0  0  0  0  0  0  0  0
  150.7427  137.0233  154.6999 H   0  0  0  0  0  0  0  0  0  0  0  0
  152.1548  138.0805  154.4996 H   0  0  0  0  0  0  0  0  0  0  0  0
  145.6349  134.2809  152.0742 H   0  0  0  0  0  0  0  0  0  0  0  0
  1  2  1  0  0  0  0
  1 19  1  0  0  0  0
  1 20  1  0  0  0  0
  1 21  1  0  0  0  0
  2 18  2  0  0  0  0
  2  3  1  0  0  0  0
  3  4  2  0  0  0  0
  3 22  1  0  0  0  0
  4  5  1  0  0  0  0
  4 16  1  0  0  0  0
  5  6  1  0  0  0  0
  5 23  1  0  0  0  0
  6  7  2  0  0  0  0
  6  8  1  0  0  0  0
  8  9  1  0  0  0  0
  8 24  1  0  0  0  0
  9 10  1  0  0  0  0
  9 25  1  0  0  0  0
  9 26  1  0  0  0  0
 10 11  1  0  0  0  0
 10 27  1  0  0  0  0
 10 28  1  0  0  0  0
 11 15  1  0  0  0  0
 11 12  1  0  0  0  0
 11 40  1  0  0  0  0
 12 13  1  0  0  0  0
 12 29  1  0  0  0  0
 12 30  1  0  0  0  0
 13 14  1  0  0  0  0
 13 31  1  0  0  0  0
 13 32  1  0  0  0  0
 14 15  1  0  0  0  0
 14 33  1  0  0  0  0
 14 34  1  0  0  0  0
 15 35  1  0  0  0  0
 15 36  1  0  0  0  0
 16 17  1  0  0  0  0
 16 18  1  0  0  0  0
 17 37  1  0  0  0  0
 17 38  1  0  0  0  0
 17 39  1  0  0  0  0
M  CHG  1  11   1
M  END
> <s_m_source_file>
AV-unprocessed.smi

> <i_m_source_file_index>
1547

> <i_lp_mmshare_version>
43012

> <i_f3d_flags>
0

> <s_epik_input>
W0NIM11jMVtjSF1jKG4objEpW0NIM10pW05IXUMoPU8pW05IXVtDSDJdW0NIMl1OMltDSDJdW0NIMl1bQ0gyXVtDSDJdMg==

> <s_epik_cmdline>
J2VwaWtfcHl0aG9uJywgJy1waCcsICc3LjAnLCAnLXRuJywgJzgnLCAnLW1hJywgJzIwMCcsICctbWV0YWxfYmluZGluZycsICctaW1hZScsICc8aW5maWxlLm1hZT4nLCAnLW9tYWUnLCAnPG91dGZpbGUubWFlPic=

> <r_lp_tautomer_probability>
1

> <r_epik_Ionization_Penalty>
0.00226577

> <r_epik_Ionization_Penalty_Charging>
0.00218899

> <r_epik_Ionization_Penalty_Neutral>
7.67743e-05

> <r_epik_State_Penalty>
0.00150446

> <r_epik_Charging_Adjusted_Penalty>
0.00369345

> <i_epik_Tot_Q>
1

> <i_epik_Tot_abs_Q>
1

> <r_epik_Metal_State_Penalty>
-0

> <b_epik_Metal_Only>
0

> <s_lp_Force_Field>
OPLS_2005

> <r_lp_Energy>
27.1917

> <b_lp_Chiralities_Consistent>
1

> <s_lp_Variant>
AV-unprocessed.smi:1547-1

> <Gold.Version>
5.8.1

> <Gold.Id.Protein>
6NUR|6NUR_protein|mol2

> <Gold.PLP.Fitness>
38.9907

> <Gold.PLP.PLP>
-32.8590

> <Gold.PLP.part.hbond>
-4.0000

> <Gold.PLP.part.metal>
0.0000

> <Gold.PLP.part.buried>
1.0519

> <Gold.PLP.part.nonpolar>
-30.8499

> <Gold.PLP.part.repulsive>
0.3162

> <Gold.PLP.ligand.clash>
0.0000

> <Gold.PLP.ligand.torsion>
0.8277

> <Gold.PLP.Chemscore.Hbond>
2.5920

> <Gold.PLP.Chemscore.CHOScore>
0.0000

> <Gold.PLP.Chemscore.Metal>
0.0000

> <Gold.Chemscore.Hbonds>
donor molecule, donor type, donor heavy atom, donor atom, acceptor molecule, acceptor atom, score
      L1  H     5    23       P1  7948  0.94
      L1  H     8    24       P1  7948  0.96
      P1  H  7989  7998       L1    18  0.49

> <Gold.PLP.Chemscore.Internal.Correction>
0.0110

> <Gold.Rescore>
     Score         DG    S(hbond)    S(metal)    S(lipo)     H(rot)  DE(clash)    DE(int)     intcor
     15.21     -16.42       1.91        0.00      72.05       1.52       0.24       0.97       ----

> <Gold.Chemscore.Fitness>
15.2100

> <Gold.Chemscore.DG>
-16.4231

> <Gold.Chemscore.ZeroCoef>
-5.4800

> <Gold.Chemscore.Hbond>
1.9145

> <Gold.Chemscore.Metal>
0.0000

> <Gold.Chemscore.Lipo>
72.0467

> <Gold.Chemscore.Internal_Hbond>
0.0000

> <Gold.Chemscore.DEClash>
0.2433

> <Gold.Chemscore.DEInternal>
0.9698

> <Gold.Chemscore.Rot>
1.5160

> <Gold.Chemscore.Internal.Correction>
   9.000000E+99

> <Gold.Chemscore.Hbonds>
donor molecule, donor type, donor heavy atom, donor atom, acceptor molecule, acceptor atom, score
      L1  H     5    23       P1  7948  0.91
      L1  H     8    24       P1  7948  0.89
      P1  H  7989  7998       L1    18  0.01

> <Gold.Chemscore.Hbond.Weighted>
-6.3946

> <Gold.Chemscore.Metal.Weighted>
-0.0000

> <Gold.Chemscore.Lipo.Weighted>
-8.4295

> <Gold.Chemscore.Internal_Hbond.Weighted>
0.0000

> <Gold.Chemscore.DEClash.Weighted>
0.2433

> <Gold.Chemscore.DEInternal.Weighted>
0.9698

> <Gold.Chemscore.Rot.Weighted>
3.8809

> <Gold.Chemscore.Internal.Correction.Weighted>
   9.000000E+99

> <Gold.Protein.RotatedTorsions>
[ 6907 6896 6895 6894 ] final   37.31 input  -60.11 | X-H torsion
[ 7974 7965 7964 7962 ] final  128.30 input  175.53 | X-H torsion
[ 8008 7997 7996 7995 ] final  119.76 input   59.86 | X-H torsion
[ 10167 10162 10161 10158 ] final    5.07 input  -65.29 | X-H torsion
[ 10718 10713 10712 10709 ] final  -27.08 input   66.30 | X-H torsion
[ 10763 10752 10751 10750 ] final   29.95 input  -60.55 | X-H torsion
[ 11005 11000 10999 10996 ] final  135.82 input  -57.11 | X-H torsion

> <Gold.Protein.ActiveResidues>
 VAL166  LYS551  ARG553  GLY616  TRP617  ASP618  TYR619  PRO620  LYS621  CYS622 
 ASP623  PHE694  ASN695  SER759  ASP760  ASP761  ALA762  ILE779  LEU786  VAL792 
 PHE793  MET794  SER795  GLU796  ALA797  LYS798  CYS799  TRP800  GLU811  SER814 

> <Gold.Protein.RotatedAtoms>
  152.1415  134.9059  160.0553 H   0  0  0  0  0  0  0  0  0  0  0  0  # atno 6907 bound_to 6896
  152.0125  133.3862  159.4233 H   0  0  0  0  0  0  0  0  0  0  0  0  # atno 6908 bound_to 6896
  150.6865  134.3637  159.5005 H   0  0  0  0  0  0  0  0  0  0  0  0  # atno 6909 bound_to 6896
  145.0411  139.3963  143.5102 H   0  0  0  0  0  0  0  0  0  0  0  0  # atno 7974 bound_to 7965
  156.2611  140.2846  156.1043 H   0  0  0  0  0  0  0  0  0  0  0  0  # atno 8008 bound_to 7997
  155.1326  140.0394  157.2796 H   0  0  0  0  0  0  0  0  0  0  0  0  # atno 8009 bound_to 7997
  154.6588  140.2562  155.7138 H   0  0  0  0  0  0  0  0  0  0  0  0  # atno 8010 bound_to 7997
  140.6501  143.7565  150.7562 H   0  0  0  0  0  0  0  0  0  0  0  0  # atno 10167 bound_to 10162
  156.4429  130.4468  149.7041 H   0  0  0  0  0  0  0  0  0  0  0  0  # atno 10718 bound_to 10713
  153.0400  135.6476  154.0969 H   0  0  0  0  0  0  0  0  0  0  0  0  # atno 10763 bound_to 10752
  154.0677  135.2883  155.3315 H   0  0  0  0  0  0  0  0  0  0  0  0  # atno 10764 bound_to 10752
  154.6615  135.5390  153.8089 H   0  0  0  0  0  0  0  0  0  0  0  0  # atno 10765 bound_to 10752
  140.0005  134.9480  157.0061 H   0  0  0  0  0  0  0  0  0  0  0  0  # atno 11005 bound_to 11000
  146.3509  140.0011  142.8676 LP  0  0  0  0  0  0  0  0  0  0  0  0  # atno 17320 bound_to 7965
  145.1647  140.9691  143.4356 LP  0  0  0  0  0  0  0  0  0  0  0  0  # atno 17321 bound_to 7965
  140.1214  143.4608  152.2311 LP  0  0  0  0  0  0  0  0  0  0  0  0  # atno 17342 bound_to 10162
  139.5716  144.7465  151.3877 LP  0  0  0  0  0  0  0  0  0  0  0  0  # atno 17343 bound_to 10162
  156.3899  130.7621  151.2621 LP  0  0  0  0  0  0  0  0  0  0  0  0  # atno 17370 bound_to 10713
  157.7506  131.0271  150.3991 LP  0  0  0  0  0  0  0  0  0  0  0  0  # atno 17371 bound_to 10713
  140.4737  134.1360  155.7206 LP  0  0  0  0  0  0  0  0  0  0  0  0  # atno 17394 bound_to 11000
  141.1638  133.8742  157.1773 LP  0  0  0  0  0  0  0  0  0  0  0  0  # atno 17395 bound_to 11000

$$$$
