AV-unprocessed.smi:3183|AV-procd|sdf|12156|dock5
  -GOLD-   2272017593D 1   1.00000     0.00000
 Structure written by MMmdl.
 43 44  0  0  0  0  0  0  0  0  2 V2000
  153.0931  142.9204  161.7140 C   0  0  0  0  0  0  0  0  0  0  0  0
  152.7627  142.8804  160.2129 C   0  0  1  0  0  0  0  0  0  0  0  0
  151.8624  141.6814  159.8567 C   0  0  0  0  0  0  0  0  0  0  0  0
  151.6099  141.6003  158.3433 C   0  0  0  0  0  0  0  0  0  0  0  0
  151.0103  142.9064  157.7924 C   0  0  2  0  0  0  0  0  0  0  0  0
  150.8226  142.7884  156.3291 N   0  3  0  0  0  0  0  0  0  0  0  0
  150.3826  141.4603  155.8521 C   0  0  0  0  0  0  0  0  0  0  0  0
  151.5882  140.5681  155.5221 C   0  0  0  0  0  0  0  0  0  0  0  0
  151.2261  139.1792  155.0912 C   0  0  0  0  0  0  0  0  0  0  0  0
  150.0111  138.5635  154.9586 C   0  0  0  0  0  0  0  0  0  0  0  0
  150.3319  137.2510  154.5151 C   0  0  0  0  0  0  0  0  0  0  0  0
  151.6332  137.0650  154.3829 N   0  0  0  0  0  0  0  0  0  0  0  0
  152.1833  138.2465  154.7341 N   0  0  0  0  0  0  0  0  0  0  0  0
  153.6259  138.3924  154.7047 C   0  0  0  0  0  0  0  0  0  0  0  0
  151.9147  144.1055  158.1578 C   0  0  0  0  0  0  0  0  0  0  0  0
  152.1769  144.2113  159.6755 C   0  0  1  0  0  0  0  0  0  0  0  0
  150.9286  144.7051  160.4350 C   0  0  0  0  0  0  0  0  0  0  0  0
  152.1929  142.9829  162.3258 H   0  0  0  0  0  0  0  0  0  0  0  0
  153.7245  143.7759  161.9560 H   0  0  0  0  0  0  0  0  0  0  0  0
  153.6296  142.0209  162.0172 H   0  0  0  0  0  0  0  0  0  0  0  0
  153.7128  142.7263  159.6981 H   0  0  0  0  0  0  0  0  0  0  0  0
  152.3291  140.7551  160.1940 H   0  0  0  0  0  0  0  0  0  0  0  0
  150.9120  141.7521  160.3866 H   0  0  0  0  0  0  0  0  0  0  0  0
  152.5498  141.3817  157.8340 H   0  0  0  0  0  0  0  0  0  0  0  0
  150.9432  140.7635  158.1308 H   0  0  0  0  0  0  0  0  0  0  0  0
  150.0266  143.0417  158.2441 H   0  0  0  0  0  0  0  0  0  0  0  0
  150.1600  143.4881  156.0263 H   0  0  0  0  0  0  0  0  0  0  0  0
  149.7717  140.9860  156.6215 H   0  0  0  0  0  0  0  0  0  0  0  0
  149.7589  141.5772  154.9659 H   0  0  0  0  0  0  0  0  0  0  0  0
  152.1774  141.0398  154.7348 H   0  0  0  0  0  0  0  0  0  0  0  0
  152.2395  140.5090  156.3951 H   0  0  0  0  0  0  0  0  0  0  0  0
  149.0348  138.9838  155.1495 H   0  0  0  0  0  0  0  0  0  0  0  0
  149.6629  136.4342  154.2877 H   0  0  0  0  0  0  0  0  0  0  0  0
  153.8954  139.2924  154.1515 H   0  0  0  0  0  0  0  0  0  0  0  0
  154.0905  137.5322  154.2201 H   0  0  0  0  0  0  0  0  0  0  0  0
  154.0060  138.4718  155.7234 H   0  0  0  0  0  0  0  0  0  0  0  0
  152.8695  144.0048  157.6396 H   0  0  0  0  0  0  0  0  0  0  0  0
  151.4803  145.0406  157.8045 H   0  0  0  0  0  0  0  0  0  0  0  0
  152.9391  144.9798  159.8113 H   0  0  0  0  0  0  0  0  0  0  0  0
  150.1189  143.9765  160.4178 H   0  0  0  0  0  0  0  0  0  0  0  0
  150.5477  145.6283  159.9976 H   0  0  0  0  0  0  0  0  0  0  0  0
  151.1556  144.9213  161.4787 H   0  0  0  0  0  0  0  0  0  0  0  0
  151.7131  142.9823  155.8937 H   0  0  0  0  0  0  0  0  0  0  0  0
  1  2  1  0  0  0  0
  1 18  1  0  0  0  0
  1 19  1  0  0  0  0
  1 20  1  0  0  0  0
  2 16  1  0  0  0  0
  2  3  1  0  0  0  0
  2 21  1  0  0  0  0
  3  4  1  0  0  0  0
  3 22  1  0  0  0  0
  3 23  1  0  0  0  0
  4  5  1  0  0  0  0
  4 24  1  0  0  0  0
  4 25  1  0  0  0  0
  5  6  1  0  0  0  0
  5 15  1  0  0  0  0
  5 26  1  0  0  0  0
  6  7  1  0  0  0  0
  6 27  1  0  0  0  0
  6 43  1  0  0  0  0
  7  8  1  0  0  0  0
  7 28  1  0  0  0  0
  7 29  1  0  0  0  0
  8  9  1  0  0  0  0
  8 30  1  0  0  0  0
  8 31  1  0  0  0  0
  9 13  1  0  0  0  0
  9 10  2  0  0  0  0
 10 11  1  0  0  0  0
 10 32  1  0  0  0  0
 11 12  2  0  0  0  0
 11 33  1  0  0  0  0
 12 13  1  0  0  0  0
 13 14  1  0  0  0  0
 14 34  1  0  0  0  0
 14 35  1  0  0  0  0
 14 36  1  0  0  0  0
 15 16  1  0  0  0  0
 15 37  1  0  0  0  0
 15 38  1  0  0  0  0
 16 17  1  0  0  0  0
 16 39  1  0  0  0  0
 17 40  1  0  0  0  0
 17 41  1  0  0  0  0
 17 42  1  0  0  0  0
M  CHG  1   6   1
M  END
> <s_m_source_file>
AV-unprocessed.smi

> <i_m_source_file_index>
3183

> <i_lp_mmshare_version>
43012

> <i_f3d_flags>
0

> <s_epik_input>
W0NIM11bQ0BASF0xW0NIMl1bQ0gyXVtDQEhdKFtDSDJdW0NASF0xW0NIM10pW05IXVtDSDJdW0NIMl1jMltjSF1bY0hdbm4yW0NIM10=

> <s_epik_cmdline>
J2VwaWtfcHl0aG9uJywgJy1waCcsICc3LjAnLCAnLXRuJywgJzgnLCAnLW1hJywgJzIwMCcsICctbWV0YWxfYmluZGluZycsICctaW1hZScsICc8aW5maWxlLm1hZT4nLCAnLW9tYWUnLCAnPG91dGZpbGUubWFlPic=

> <r_lp_tautomer_probability>
1

> <r_epik_Ionization_Penalty>
0.000327718

> <r_epik_Ionization_Penalty_Charging>
0.000294043

> <r_epik_Ionization_Penalty_Neutral>
3.36755e-05

> <r_epik_State_Penalty>
-0

> <r_epik_Charging_Adjusted_Penalty>
0.000294043

> <i_epik_Tot_Q>
1

> <i_epik_Tot_abs_Q>
1

> <r_epik_Metal_State_Penalty>
-0

> <b_epik_Metal_Only>
0

> <s_lp_Force_Field>
OPLS_2005

> <r_lp_Energy>
13.9595

> <b_lp_Chiralities_Consistent>
1

> <s_lp_Variant>
AV-unprocessed.smi:3183-4

> <Gold.Version>
5.8.1

> <Gold.Id.Protein>
6NUR|6NUR_protein|mol2

> <Gold.PLP.Fitness>
52.3868

> <Gold.PLP.PLP>
-42.0976

> <Gold.PLP.part.hbond>
-2.0000

> <Gold.PLP.part.metal>
0.0000

> <Gold.PLP.part.buried>
-0.8941

> <Gold.PLP.part.nonpolar>
-40.0727

> <Gold.PLP.part.repulsive>
0.2896

> <Gold.PLP.ligand.clash>
0.0000

> <Gold.PLP.ligand.torsion>
0.4044

> <Gold.PLP.Chemscore.Hbond>
3.0000

> <Gold.PLP.Chemscore.CHOScore>
0.6950

> <Gold.PLP.Chemscore.Metal>
0.0000

> <Gold.Chemscore.Hbonds>
donor molecule, donor type, donor heavy atom, donor atom, acceptor molecule, acceptor atom, score
      L1  H     6    27       P1  8028  2.00
      P1  H 10752 10764       L1    12  1.00
      L1  C    11    33       P1  7948  0.71

> <Gold.PLP.Chemscore.Internal.Correction>
0.0130

> <Gold.Rescore>
     Score         DG    S(hbond)    S(metal)    S(lipo)     H(rot)  DE(clash)    DE(int)     intcor
     21.23     -23.35       1.86        0.00     129.60       1.38       1.56       0.55       ----

> <Gold.Chemscore.Fitness>
21.2303

> <Gold.Chemscore.DG>
-23.3460

> <Gold.Chemscore.ZeroCoef>
-5.4800

> <Gold.Chemscore.Hbond>
1.8643

> <Gold.Chemscore.Metal>
0.0000

> <Gold.Chemscore.Lipo>
129.6047

> <Gold.Chemscore.Internal_Hbond>
0.0000

> <Gold.Chemscore.DEClash>
1.5630

> <Gold.Chemscore.DEInternal>
0.5527

> <Gold.Chemscore.Rot>
1.3768

> <Gold.Chemscore.Internal.Correction>
   9.000000E+99

> <Gold.Chemscore.Hbonds>
donor molecule, donor type, donor heavy atom, donor atom, acceptor molecule, acceptor atom, score
      L1  H     6    27       P1  8028  1.00
      P1  H 10752 10764       L1    12  0.73

> <Gold.Chemscore.Hbond.Weighted>
-6.2269

> <Gold.Chemscore.Metal.Weighted>
-0.0000

> <Gold.Chemscore.Lipo.Weighted>
-15.1637

> <Gold.Chemscore.Internal_Hbond.Weighted>
0.0000

> <Gold.Chemscore.DEClash.Weighted>
1.5630

> <Gold.Chemscore.DEInternal.Weighted>
0.5527

> <Gold.Chemscore.Rot.Weighted>
3.5247

> <Gold.Chemscore.Internal.Correction.Weighted>
   9.000000E+99

> <Gold.Protein.RotatedTorsions>
[ 6907 6896 6895 6894 ] final  153.88 input  -60.11 | X-H torsion
[ 7974 7965 7964 7962 ] final -107.42 input  175.53 | X-H torsion
[ 8008 7997 7996 7995 ] final   69.05 input   59.86 | X-H torsion
[ 10167 10162 10161 10158 ] final  -91.34 input  -65.29 | X-H torsion
[ 10718 10713 10712 10709 ] final  -30.98 input   66.30 | X-H torsion
[ 10763 10752 10751 10750 ] final  -60.44 input  -60.55 | X-H torsion
[ 11005 11000 10999 10996 ] final  -91.87 input  -57.11 | X-H torsion

> <Gold.Protein.ActiveResidues>
 VAL166  LYS551  ARG553  GLY616  TRP617  ASP618  TYR619  PRO620  LYS621  CYS622 
 ASP623  PHE694  ASN695  SER759  ASP760  ASP761  ALA762  ILE779  LEU786  VAL792 
 PHE793  MET794  SER795  GLU796  ALA797  LYS798  CYS799  TRP800  GLU811  SER814 

> <Gold.Protein.RotatedAtoms>
  152.0664  133.4086  159.4439 H   0  0  0  0  0  0  0  0  0  0  0  0  # atno 6907 bound_to 6896
  150.6864  134.3142  159.4768 H   0  0  0  0  0  0  0  0  0  0  0  0  # atno 6908 bound_to 6896
  152.0969  134.9368  160.0621 H   0  0  0  0  0  0  0  0  0  0  0  0  # atno 6909 bound_to 6896
  145.2056  140.9075  143.3344 H   0  0  0  0  0  0  0  0  0  0  0  0  # atno 7974 bound_to 7965
  155.7177  140.3493  155.5002 H   0  0  0  0  0  0  0  0  0  0  0  0  # atno 8008 bound_to 7997
  155.9298  140.1082  157.1163 H   0  0  0  0  0  0  0  0  0  0  0  0  # atno 8009 bound_to 7997
  154.4083  140.1233  156.4775 H   0  0  0  0  0  0  0  0  0  0  0  0  # atno 8010 bound_to 7997
  140.3459  143.2917  151.9782 H   0  0  0  0  0  0  0  0  0  0  0  0  # atno 10167 bound_to 10162
  156.3930  130.4376  149.7380 H   0  0  0  0  0  0  0  0  0  0  0  0  # atno 10718 bound_to 10713
  154.2693  135.6293  153.5304 H   0  0  0  0  0  0  0  0  0  0  0  0  # atno 10763 bound_to 10752
  152.9883  135.5606  154.5618 H   0  0  0  0  0  0  0  0  0  0  0  0  # atno 10764 bound_to 10752
  154.5184  135.2881  155.1259 H   0  0  0  0  0  0  0  0  0  0  0  0  # atno 10765 bound_to 10752
  141.1535  133.7784  156.9941 H   0  0  0  0  0  0  0  0  0  0  0  0  # atno 11005 bound_to 11000
  144.9905  139.3694  143.6217 LP  0  0  0  0  0  0  0  0  0  0  0  0  # atno 17320 bound_to 7965
  146.3408  139.9086  142.8783 LP  0  0  0  0  0  0  0  0  0  0  0  0  # atno 17321 bound_to 7965
  139.4833  144.6117  151.7421 LP  0  0  0  0  0  0  0  0  0  0  0  0  # atno 17342 bound_to 10162
  140.5265  144.0797  150.6039 LP  0  0  0  0  0  0  0  0  0  0  0  0  # atno 17343 bound_to 10162
  156.4426  130.7868  151.2889 LP  0  0  0  0  0  0  0  0  0  0  0  0  # atno 17370 bound_to 10713
  157.7500  131.0120  150.3368 LP  0  0  0  0  0  0  0  0  0  0  0  0  # atno 17371 bound_to 10713
  140.0983  134.9550  157.1884 LP  0  0  0  0  0  0  0  0  0  0  0  0  # atno 17394 bound_to 11000
  140.3352  134.2765  155.7221 LP  0  0  0  0  0  0  0  0  0  0  0  0  # atno 17395 bound_to 11000

$$$$
