AV-unprocessed.smi:2154|AV-procd|sdf|8772|dock7
  -GOLD-   2272011553D 1   1.00000     0.00000
 Structure written by MMmdl.
 32 33  0  0  0  0  0  0  0  0  1 V2000
  152.3156  143.0977  160.9383 C   0  0  0  0  0  0  0  0  0  0  0  0
  152.5904  144.0252  159.7712 C   0  0  2  0  0  0  0  0  0  0  0  0
  151.9387  145.3866  159.6978 C   0  0  0  0  0  0  0  0  0  0  0  0
  151.5562  144.3166  158.7016 C   0  0  2  0  0  0  0  0  0  0  0  0
  150.1729  143.6883  158.7220 C   0  0  0  0  0  0  0  0  0  0  0  0
  149.7722  143.0524  157.4738 N   0  0  0  0  0  0  0  0  0  0  0  0
  149.9830  141.7648  157.1621 C   0  0  0  0  0  0  0  0  0  0  0  0
  150.5243  140.9658  157.9274 O   0  0  0  0  0  0  0  0  0  0  0  0
  149.4851  141.3129  155.7819 C   0  0  0  0  0  0  0  0  0  0  0  0
  150.1943  140.1280  155.2772 N   0  0  0  0  0  0  0  0  0  0  0  0
  151.5306  139.9236  155.5901 C   0  0  0  0  0  0  0  0  0  0  0  0
  152.2441  138.8588  155.1533 C   0  0  0  0  0  0  0  0  0  0  0  0
  151.6192  137.8478  154.3069 C   0  0  0  0  0  0  0  0  0  0  0  0
  152.1806  136.8483  153.8636 O   0  0  0  0  0  0  0  0  0  0  0  0
  150.2752  138.0906  154.0116 N   0  0  0  0  0  0  0  0  0  0  0  0
  149.5346  139.1863  154.4573 C   0  0  0  0  0  0  0  0  0  0  0  0
  148.3533  139.3064  154.1350 O   0  0  0  0  0  0  0  0  0  0  0  0
  149.8005  137.4186  153.4262 H   0  0  0  0  0  0  0  0  0  0  0  0
  151.3184  143.2584  161.3472 H   0  0  0  0  0  0  0  0  0  0  0  0
  153.0414  143.2752  161.7318 H   0  0  0  0  0  0  0  0  0  0  0  0
  152.3993  142.0590  160.6183 H   0  0  0  0  0  0  0  0  0  0  0  0
  153.6176  143.9694  159.4163 H   0  0  0  0  0  0  0  0  0  0  0  0
  151.2139  145.6441  160.4679 H   0  0  0  0  0  0  0  0  0  0  0  0
  152.5438  146.2152  159.3353 H   0  0  0  0  0  0  0  0  0  0  0  0
  151.9650  144.4255  157.6985 H   0  0  0  0  0  0  0  0  0  0  0  0
  150.1319  142.9598  159.5333 H   0  0  0  0  0  0  0  0  0  0  0  0
  149.4292  144.4495  158.9558 H   0  0  0  0  0  0  0  0  0  0  0  0
  149.3157  143.6379  156.7896 H   0  0  0  0  0  0  0  0  0  0  0  0
  148.4158  141.1114  155.8584 H   0  0  0  0  0  0  0  0  0  0  0  0
  149.5729  142.1331  155.0663 H   0  0  0  0  0  0  0  0  0  0  0  0
  152.0359  140.6493  156.2116 H   0  0  0  0  0  0  0  0  0  0  0  0
  153.2831  138.7548  155.4308 H   0  0  0  0  0  0  0  0  0  0  0  0
  1  2  1  0  0  0  0
  1 19  1  0  0  0  0
  1 20  1  0  0  0  0
  1 21  1  0  0  0  0
  2  4  1  0  0  0  0
  2  3  1  0  0  0  0
  2 22  1  0  0  0  0
  3  4  1  0  0  0  0
  3 23  1  0  0  0  0
  3 24  1  0  0  0  0
  4  5  1  0  0  0  0
  4 25  1  0  0  0  0
  5  6  1  0  0  0  0
  5 26  1  0  0  0  0
  5 27  1  0  0  0  0
  6  7  1  0  0  0  0
  6 28  1  0  0  0  0
  7  8  2  0  0  0  0
  7  9  1  0  0  0  0
  9 10  1  0  0  0  0
  9 29  1  0  0  0  0
  9 30  1  0  0  0  0
 10 16  1  0  0  0  0
 10 11  1  0  0  0  0
 11 12  2  0  0  0  0
 11 31  1  0  0  0  0
 12 13  1  0  0  0  0
 12 32  1  0  0  0  0
 13 14  2  0  0  0  0
 13 15  1  0  0  0  0
 15 18  1  0  0  0  0
 15 16  1  0  0  0  0
 16 17  2  0  0  0  0
M  END
> <s_m_source_file>
AV-unprocessed.smi

> <i_m_source_file_index>
2154

> <i_lp_mmshare_version>
43012

> <i_f3d_flags>
0

> <s_epik_input>
W0NIM11bQ0BASF0xW0NIMl1bQ0BIXTFbQ0gyXVtOSF1DKD1PKVtDSDJdbjJbY0hdW2NIXWMoPU8pW25IXWMyPU8=

> <s_epik_cmdline>
J2VwaWtfcHl0aG9uJywgJy1waCcsICc3LjAnLCAnLXRuJywgJzgnLCAnLW1hJywgJzIwMCcsICctbWV0YWxfYmluZGluZycsICctaW1hZScsICc8aW5maWxlLm1hZT4nLCAnLW9tYWUnLCAnPG91dGZpbGUubWFlPic=

> <r_lp_tautomer_probability>
0.999537

> <r_epik_Ionization_Penalty>
0.00305319

> <r_epik_Ionization_Penalty_Charging>
0.00305317

> <r_epik_Ionization_Penalty_Neutral>
2.06703e-08

> <r_epik_State_Penalty>
0.00214626

> <r_epik_Charging_Adjusted_Penalty>
0.00519944

> <i_epik_Tot_Q>
0

> <i_epik_Tot_abs_Q>
0

> <r_epik_Metal_State_Penalty>
0.361976

> <b_epik_Metal_Only>
0

> <s_lp_Force_Field>
OPLS_2005

> <r_lp_Energy>
15.9584

> <b_lp_Chiralities_Consistent>
1

> <s_lp_Variant>
AV-unprocessed.smi:2154-3

> <Gold.Version>
5.8.1

> <Gold.Id.Protein>
6NUR|6NUR_protein|mol2

> <Gold.PLP.Fitness>
43.7701

> <Gold.PLP.PLP>
-37.6997

> <Gold.PLP.part.hbond>
-2.4254

> <Gold.PLP.part.metal>
0.0000

> <Gold.PLP.part.buried>
-5.7150

> <Gold.PLP.part.nonpolar>
-33.8702

> <Gold.PLP.part.repulsive>
2.9645

> <Gold.PLP.ligand.clash>
0.0034

> <Gold.PLP.ligand.torsion>
1.3509

> <Gold.PLP.Chemscore.Hbond>
2.7475

> <Gold.PLP.Chemscore.CHOScore>
0.0000

> <Gold.PLP.Chemscore.Metal>
0.0000

> <Gold.Chemscore.Hbonds>
donor molecule, donor type, donor heavy atom, donor atom, acceptor molecule, acceptor atom, score
      L1  H     6    28       P1  8028  1.00
      L1  H    15    18       P1  7948  0.83
      P1  H 10752 10763       L1    14  0.78

> <Gold.PLP.Chemscore.Internal.Correction>
0.5332

> <Gold.Rescore>
     Score         DG    S(hbond)    S(metal)    S(lipo)     H(rot)  DE(clash)    DE(int)     intcor
     15.00     -19.26       2.93        0.00      78.09       2.01       1.54       2.72       ----

> <Gold.Chemscore.Fitness>
14.9967

> <Gold.Chemscore.DG>
-19.2633

> <Gold.Chemscore.ZeroCoef>
-5.4800

> <Gold.Chemscore.Hbond>
2.9291

> <Gold.Chemscore.Metal>
0.0000

> <Gold.Chemscore.Lipo>
78.0909

> <Gold.Chemscore.Internal_Hbond>
0.0000

> <Gold.Chemscore.DEClash>
1.5450

> <Gold.Chemscore.DEInternal>
2.7216

> <Gold.Chemscore.Rot>
2.0065

> <Gold.Chemscore.Internal.Correction>
   9.000000E+99

> <Gold.Chemscore.Hbonds>
donor molecule, donor type, donor heavy atom, donor atom, acceptor molecule, acceptor atom, score
      L1  H     6    28       P1  8028  0.92
      L1  H    15    18       P1  7948  0.53
      P1  H 10752 10763       L1    14  0.73

> <Gold.Chemscore.Hbond.Weighted>
-9.7833

> <Gold.Chemscore.Metal.Weighted>
-0.0000

> <Gold.Chemscore.Lipo.Weighted>
-9.1366

> <Gold.Chemscore.Internal_Hbond.Weighted>
0.0000

> <Gold.Chemscore.DEClash.Weighted>
1.5450

> <Gold.Chemscore.DEInternal.Weighted>
2.7216

> <Gold.Chemscore.Rot.Weighted>
5.1366

> <Gold.Chemscore.Internal.Correction.Weighted>
   9.000000E+99

> <Gold.Protein.RotatedTorsions>
[ 6907 6896 6895 6894 ] final   56.61 input  -60.11 | X-H torsion
[ 7974 7965 7964 7962 ] final  -25.21 input  175.53 | X-H torsion
[ 8008 7997 7996 7995 ] final -136.10 input   59.86 | X-H torsion
[ 10167 10162 10161 10158 ] final  -72.74 input  -65.29 | X-H torsion
[ 10718 10713 10712 10709 ] final  135.37 input   66.30 | X-H torsion
[ 10763 10752 10751 10750 ] final   17.24 input  -60.55 | X-H torsion
[ 11005 11000 10999 10996 ] final  163.75 input  -57.11 | X-H torsion

> <Gold.Protein.ActiveResidues>
 VAL166  LYS551  ARG553  GLY616  TRP617  ASP618  TYR619  PRO620  LYS621  CYS622 
 ASP623  PHE694  ASN695  SER759  ASP760  ASP761  ALA762  ILE779  LEU786  VAL792 
 PHE793  MET794  SER795  GLU796  ALA797  LYS798  CYS799  TRP800  GLU811  SER814 

> <Gold.Protein.RotatedAtoms>
  152.3652  134.6814  160.0193 H   0  0  0  0  0  0  0  0  0  0  0  0  # atno 6907 bound_to 6896
  151.7125  133.3307  159.3302 H   0  0  0  0  0  0  0  0  0  0  0  0  # atno 6908 bound_to 6896
  150.7633  134.6454  159.6304 H   0  0  0  0  0  0  0  0  0  0  0  0  # atno 6909 bound_to 6896
  146.1506  140.4855  142.8613 H   0  0  0  0  0  0  0  0  0  0  0  0  # atno 7974 bound_to 7965
  155.3896  140.0499  157.3041 H   0  0  0  0  0  0  0  0  0  0  0  0  # atno 8008 bound_to 7997
  154.5042  140.2168  155.9245 H   0  0  0  0  0  0  0  0  0  0  0  0  # atno 8009 bound_to 7997
  156.1505  140.3137  155.8646 H   0  0  0  0  0  0  0  0  0  0  0  0  # atno 8010 bound_to 7997
  140.5167  143.2337  151.7500 H   0  0  0  0  0  0  0  0  0  0  0  0  # atno 10167 bound_to 10162
  157.4578  131.1071  150.9957 H   0  0  0  0  0  0  0  0  0  0  0  0  # atno 10718 bound_to 10713
  153.1357  135.6749  153.9107 H   0  0  0  0  0  0  0  0  0  0  0  0  # atno 10763 bound_to 10752
  153.8580  135.3085  155.3437 H   0  0  0  0  0  0  0  0  0  0  0  0  # atno 10764 bound_to 10752
  154.7745  135.4921  153.9799 H   0  0  0  0  0  0  0  0  0  0  0  0  # atno 10765 bound_to 10752
  140.2390  134.8066  157.3392 H   0  0  0  0  0  0  0  0  0  0  0  0  # atno 11005 bound_to 11000
  144.7899  140.6011  143.6548 LP  0  0  0  0  0  0  0  0  0  0  0  0  # atno 17320 bound_to 7965
  145.4833  139.1494  143.3750 LP  0  0  0  0  0  0  0  0  0  0  0  0  # atno 17321 bound_to 7965
  139.4911  144.4313  151.9869 LP  0  0  0  0  0  0  0  0  0  0  0  0  # atno 17342 bound_to 10162
  140.3408  144.3206  150.5968 LP  0  0  0  0  0  0  0  0  0  0  0  0  # atno 17343 bound_to 10162
  157.0765  130.5885  149.5412 LP  0  0  0  0  0  0  0  0  0  0  0  0  # atno 17370 bound_to 10713
  156.0015  130.5095  150.7679 LP  0  0  0  0  0  0  0  0  0  0  0  0  # atno 17371 bound_to 10713
  140.1673  134.4653  155.7855 LP  0  0  0  0  0  0  0  0  0  0  0  0  # atno 17394 bound_to 11000
  141.2212  133.6926  156.7647 LP  0  0  0  0  0  0  0  0  0  0  0  0  # atno 17395 bound_to 11000

$$$$
