AV-unprocessed.smi:2353|AV-procd|sdf|9380|dock8
  -GOLD-   2272013 13D 1   1.00000     0.00000
 Structure written by MMmdl.
 45 47  0  0  0  0  0  0  0  0  1 V2000
  153.9676  140.7317  161.9094 C   0  0  0  0  0  0  0  0  0  0  0  0
  153.1882  141.9010  161.3437 C   0  0  0  0  0  0  0  0  0  0  0  0
  152.9622  143.0502  162.1256 C   0  0  0  0  0  0  0  0  0  0  0  0
  152.2416  144.1330  161.5908 C   0  0  0  0  0  0  0  0  0  0  0  0
  151.7421  144.0740  160.2734 C   0  0  0  0  0  0  0  0  0  0  0  0
  150.9669  145.2512  159.7122 C   0  0  0  0  0  0  0  0  0  0  0  0
  151.9579  142.9246  159.4784 C   0  0  0  0  0  0  0  0  0  0  0  0
  151.4380  142.9306  158.2004 O   0  0  0  0  0  0  0  0  0  0  0  0
  151.5421  141.7495  157.4168 C   0  0  0  0  0  0  0  0  0  0  0  0
  150.2005  141.5143  156.7029 C   0  0  2  0  0  0  0  0  0  0  0  0
  150.1518  142.3996  155.6006 O   0  0  0  0  0  0  0  0  0  0  0  0
  148.9976  141.8304  157.6195 C   0  0  0  0  0  0  0  0  0  0  0  0
  147.7155  141.5715  156.9534 N   0  0  0  0  0  0  0  0  0  0  0  0
  146.9736  142.7116  156.7028 N   0  0  0  0  0  0  0  0  0  0  0  0
  145.8324  142.6454  156.0990 C   0  0  0  0  0  0  0  0  0  0  0  0
  145.0723  143.8537  155.8333 N   0  0  0  0  0  0  0  0  0  0  0  0
  145.2443  145.0282  156.5672 C   0  0  0  0  0  0  0  0  0  0  0  0
  144.3587  145.9387  156.0340 C   0  0  0  0  0  0  0  0  0  0  0  0
  143.6422  145.3554  154.9907 N   0  0  0  0  0  0  0  0  0  0  0  0
  144.1169  144.1182  154.9313 C   0  0  0  0  0  0  0  0  0  0  0  0
  145.3075  141.3478  155.6877 C   0  0  0  0  0  0  0  0  0  0  0  0
  146.0385  140.2407  155.9410 C   0  0  0  0  0  0  0  0  0  0  0  0
  147.3358  140.3055  156.6109 C   0  0  0  0  0  0  0  0  0  0  0  0
  148.0253  139.3130  156.8428 O   0  0  0  0  0  0  0  0  0  0  0  0
  152.6891  141.8398  160.0267 C   0  0  0  0  0  0  0  0  0  0  0  0
  154.1539  140.8565  162.9765 H   0  0  0  0  0  0  0  0  0  0  0  0
  154.9287  140.6399  161.4032 H   0  0  0  0  0  0  0  0  0  0  0  0
  153.4146  139.8028  161.7686 H   0  0  0  0  0  0  0  0  0  0  0  0
  153.3404  143.1072  163.1359 H   0  0  0  0  0  0  0  0  0  0  0  0
  152.0739  145.0106  162.1978 H   0  0  0  0  0  0  0  0  0  0  0  0
  149.9394  144.9580  159.4945 H   0  0  0  0  0  0  0  0  0  0  0  0
  151.4276  145.6022  158.7884 H   0  0  0  0  0  0  0  0  0  0  0  0
  150.9419  146.0848  160.4147 H   0  0  0  0  0  0  0  0  0  0  0  0
  152.3272  141.9027  156.6748 H   0  0  0  0  0  0  0  0  0  0  0  0
  151.8177  140.8841  158.0224 H   0  0  0  0  0  0  0  0  0  0  0  0
  150.1520  140.4823  156.3530 H   0  0  0  0  0  0  0  0  0  0  0  0
  149.7469  143.2064  155.8798 H   0  0  0  0  0  0  0  0  0  0  0  0
  149.0479  141.2199  158.5228 H   0  0  0  0  0  0  0  0  0  0  0  0
  149.0496  142.8609  157.9773 H   0  0  0  0  0  0  0  0  0  0  0  0
  145.9370  145.1578  157.3827 H   0  0  0  0  0  0  0  0  0  0  0  0
  144.1810  146.9643  156.3219 H   0  0  0  0  0  0  0  0  0  0  0  0
  143.7616  143.3919  154.2150 H   0  0  0  0  0  0  0  0  0  0  0  0
  144.3564  141.2362  155.1950 H   0  0  0  0  0  0  0  0  0  0  0  0
  145.6547  139.2765  155.6411 H   0  0  0  0  0  0  0  0  0  0  0  0
  152.8827  140.9464  159.4528 H   0  0  0  0  0  0  0  0  0  0  0  0
  1  2  1  0  0  0  0
  1 26  1  0  0  0  0
  1 27  1  0  0  0  0
  1 28  1  0  0  0  0
  2 25  1  0  0  0  0
  2  3  2  0  0  0  0
  3  4  1  0  0  0  0
  3 29  1  0  0  0  0
  4  5  2  0  0  0  0
  4 30  1  0  0  0  0
  5  6  1  0  0  0  0
  5  7  1  0  0  0  0
  6 31  1  0  0  0  0
  6 32  1  0  0  0  0
  6 33  1  0  0  0  0
  7  8  1  0  0  0  0
  7 25  2  0  0  0  0
  8  9  1  0  0  0  0
  9 10  1  0  0  0  0
  9 34  1  0  0  0  0
  9 35  1  0  0  0  0
 10 11  1  0  0  0  0
 10 12  1  0  0  0  0
 10 36  1  0  0  0  0
 11 37  1  0  0  0  0
 12 13  1  0  0  0  0
 12 38  1  0  0  0  0
 12 39  1  0  0  0  0
 13 23  1  0  0  0  0
 13 14  1  0  0  0  0
 14 15  2  0  0  0  0
 15 16  1  0  0  0  0
 15 21  1  0  0  0  0
 16 20  1  0  0  0  0
 16 17  1  0  0  0  0
 17 18  2  0  0  0  0
 17 40  1  0  0  0  0
 18 19  1  0  0  0  0
 18 41  1  0  0  0  0
 19 20  2  0  0  0  0
 20 42  1  0  0  0  0
 21 22  2  0  0  0  0
 21 43  1  0  0  0  0
 22 23  1  0  0  0  0
 22 44  1  0  0  0  0
 23 24  2  0  0  0  0
 25 45  1  0  0  0  0
M  END
> <s_m_source_file>
AV-unprocessed.smi

> <i_m_source_file_index>
2353

> <i_lp_mmshare_version>
43012

> <i_f3d_flags>
0

> <s_epik_input>
W0NIM11jMVtjSF1bY0hdYyhbQ0gzXSljKFtjSF0xKU9bQ0gyXVtDQEhdKFtPSF0pW0NIMl1uMm5jKFtjSF1bY0hdYzI9TyktbjNbY0hdW2NIXW5bY0hdMw==

> <s_epik_cmdline>
J2VwaWtfcHl0aG9uJywgJy1waCcsICc3LjAnLCAnLXRuJywgJzgnLCAnLW1hJywgJzIwMCcsICctbWV0YWxfYmluZGluZycsICctaW1hZScsICc8aW5maWxlLm1hZT4nLCAnLW9tYWUnLCAnPG91dGZpbGUubWFlPic=

> <r_lp_tautomer_probability>
1

> <r_epik_Ionization_Penalty>
0.03707

> <r_epik_Ionization_Penalty_Charging>
0.0370699

> <r_epik_Ionization_Penalty_Neutral>
1.17174e-07

> <r_epik_State_Penalty>
0.0310055

> <r_epik_Charging_Adjusted_Penalty>
0.0680754

> <i_epik_Tot_Q>
0

> <i_epik_Tot_abs_Q>
0

> <r_epik_Metal_State_Penalty>
0.0291724

> <b_epik_Metal_Only>
0

> <s_lp_Force_Field>
OPLS_2005

> <r_lp_Energy>
36.9493

> <b_lp_Chiralities_Consistent>
1

> <s_lp_Variant>
AV-unprocessed.smi:2353-1

> <Gold.Version>
5.8.1

> <Gold.Id.Protein>
6NUR|6NUR_protein|mol2

> <Gold.PLP.Fitness>
49.6816

> <Gold.PLP.PLP>
-42.8918

> <Gold.PLP.part.hbond>
-1.0000

> <Gold.PLP.part.metal>
0.0000

> <Gold.PLP.part.buried>
-6.0931

> <Gold.PLP.part.nonpolar>
-33.8731

> <Gold.PLP.part.repulsive>
0.2859

> <Gold.PLP.ligand.clash>
0.0000

> <Gold.PLP.ligand.torsion>
0.7798

> <Gold.PLP.Chemscore.Hbond>
1.0000

> <Gold.PLP.Chemscore.CHOScore>
1.7657

> <Gold.PLP.Chemscore.Metal>
0.0000

> <Gold.Chemscore.Hbonds>
donor molecule, donor type, donor heavy atom, donor atom, acceptor molecule, acceptor atom, score
      L1  H    11    37       P1  8028  1.00
      L1  C    17    40       P1  8029  0.73
      L1  C    20    42       P1 10174  1.00

> <Gold.PLP.Chemscore.Internal.Correction>
0.0524

> <Gold.Rescore>
     Score         DG    S(hbond)    S(metal)    S(lipo)     H(rot)  DE(clash)    DE(int)     intcor
     14.56     -15.37       0.96        0.00     113.86       2.60       0.06       0.74       ----

> <Gold.Chemscore.Fitness>
14.5620

> <Gold.Chemscore.DG>
-15.3687

> <Gold.Chemscore.ZeroCoef>
-5.4800

> <Gold.Chemscore.Hbond>
0.9637

> <Gold.Chemscore.Metal>
0.0000

> <Gold.Chemscore.Lipo>
113.8647

> <Gold.Chemscore.Internal_Hbond>
0.0000

> <Gold.Chemscore.DEClash>
0.0646

> <Gold.Chemscore.DEInternal>
0.7421

> <Gold.Chemscore.Rot>
2.5986

> <Gold.Chemscore.Internal.Correction>
   9.000000E+99

> <Gold.Chemscore.Hbonds>
donor molecule, donor type, donor heavy atom, donor atom, acceptor molecule, acceptor atom, score
      L1  H    11    37       P1  8028  0.98

> <Gold.Chemscore.Hbond.Weighted>
-3.2189

> <Gold.Chemscore.Metal.Weighted>
-0.0000

> <Gold.Chemscore.Lipo.Weighted>
-13.3222

> <Gold.Chemscore.Internal_Hbond.Weighted>
0.0000

> <Gold.Chemscore.DEClash.Weighted>
0.0646

> <Gold.Chemscore.DEInternal.Weighted>
0.7421

> <Gold.Chemscore.Rot.Weighted>
6.6524

> <Gold.Chemscore.Internal.Correction.Weighted>
   9.000000E+99

> <Gold.Protein.RotatedTorsions>
[ 6907 6896 6895 6894 ] final  127.75 input  -60.11 | X-H torsion
[ 7974 7965 7964 7962 ] final   64.73 input  175.53 | X-H torsion
[ 8008 7997 7996 7995 ] final -156.99 input   59.86 | X-H torsion
[ 10167 10162 10161 10158 ] final  126.65 input  -65.29 | X-H torsion
[ 10718 10713 10712 10709 ] final  156.02 input   66.30 | X-H torsion
[ 10763 10752 10751 10750 ] final  111.97 input  -60.55 | X-H torsion
[ 11005 11000 10999 10996 ] final  154.67 input  -57.11 | X-H torsion

> <Gold.Protein.ActiveResidues>
 VAL166  LYS551  ARG553  GLY616  TRP617  ASP618  TYR619  PRO620  LYS621  CYS622 
 ASP623  PHE694  ASN695  SER759  ASP760  ASP761  ALA762  ILE779  LEU786  VAL792 
 PHE793  MET794  SER795  GLU796  ALA797  LYS798  CYS799  TRP800  GLU811  SER814 

> <Gold.Protein.RotatedAtoms>
  152.3783  133.6511  159.6140 H   0  0  0  0  0  0  0  0  0  0  0  0  # atno 6907 bound_to 6896
  150.7721  133.9156  159.3391 H   0  0  0  0  0  0  0  0  0  0  0  0  # atno 6908 bound_to 6896
  151.6966  135.0938  160.0294 H   0  0  0  0  0  0  0  0  0  0  0  0  # atno 6909 bound_to 6896
  145.8468  139.3229  143.0899 H   0  0  0  0  0  0  0  0  0  0  0  0  # atno 7974 bound_to 7965
  155.7256  140.0795  157.2312 H   0  0  0  0  0  0  0  0  0  0  0  0  # atno 8008 bound_to 7997
  154.4039  140.1605  156.2505 H   0  0  0  0  0  0  0  0  0  0  0  0  # atno 8009 bound_to 7997
  155.9157  140.3401  155.6136 H   0  0  0  0  0  0  0  0  0  0  0  0  # atno 8010 bound_to 7997
  139.5620  144.6887  151.4017 H   0  0  0  0  0  0  0  0  0  0  0  0  # atno 10167 bound_to 10162
  157.2106  131.0696  151.1972 H   0  0  0  0  0  0  0  0  0  0  0  0  # atno 10718 bound_to 10713
  153.4710  135.3701  155.2391 H   0  0  0  0  0  0  0  0  0  0  0  0  # atno 10763 bound_to 10752
  154.8757  135.3931  154.3812 H   0  0  0  0  0  0  0  0  0  0  0  0  # atno 10764 bound_to 10752
  153.4401  135.7084  153.6239 H   0  0  0  0  0  0  0  0  0  0  0  0  # atno 10765 bound_to 10752
  140.1510  134.8674  157.2454 H   0  0  0  0  0  0  0  0  0  0  0  0  # atno 11005 bound_to 11000
  145.9403  140.8985  143.0311 LP  0  0  0  0  0  0  0  0  0  0  0  0  # atno 17320 bound_to 7965
  144.6731  140.1539  143.7428 LP  0  0  0  0  0  0  0  0  0  0  0  0  # atno 17321 bound_to 7965
  140.6900  143.7883  150.7242 LP  0  0  0  0  0  0  0  0  0  0  0  0  # atno 17342 bound_to 10162
  140.1363  143.4481  152.2222 LP  0  0  0  0  0  0  0  0  0  0  0  0  # atno 17343 bound_to 10162
  157.3676  130.7164  149.6543 LP  0  0  0  0  0  0  0  0  0  0  0  0  # atno 17370 bound_to 10713
  155.9691  130.4208  150.4438 LP  0  0  0  0  0  0  0  0  0  0  0  0  # atno 17371 bound_to 10713
  140.2604  134.3577  155.7408 LP  0  0  0  0  0  0  0  0  0  0  0  0  # atno 17394 bound_to 11000
  141.2199  133.7366  156.9072 LP  0  0  0  0  0  0  0  0  0  0  0  0  # atno 17395 bound_to 11000

$$$$
