AV-unprocessed.smi:48|AV-procd|sdf|453|dock3
  -GOLD-   2262016323D 1   1.00000     0.00000
 Structure written by MMmdl.
 30 32  0  0  0  0  0  0  0  0  1 V2000
  146.8511  140.9299  158.0127 O   0  0  0  0  0  0  0  0  0  0  0  0
  146.8221  140.0593  156.9018 C   0  0  0  0  0  0  0  0  0  0  0  0
  148.2134  139.9871  156.2552 C   0  0  1  0  0  0  0  0  0  0  0  0
  148.2319  138.9768  155.2553 O   0  0  0  0  0  0  0  0  0  0  0  0
  149.3048  139.2020  154.3945 C   0  0  2  0  0  0  0  0  0  0  0  0
  150.5030  138.4617  154.9092 N   0  0  0  0  0  0  0  0  0  0  0  0
  151.0505  137.3047  154.4764 C   0  0  0  0  0  0  0  0  0  0  0  0
  152.1445  136.8714  155.1025 N   0  0  0  0  0  0  0  0  0  0  0  0
  152.3429  137.8727  156.0383 C   0  0  0  0  0  0  0  0  0  0  0  0
  153.3248  138.0749  157.0386 C   0  0  0  0  0  0  0  0  0  0  0  0
  154.5987  136.9356  157.2778 Cl  0  0  0  0  0  0  0  0  0  0  0  0
  153.2436  139.1887  157.8054 N   0  0  0  0  0  0  0  0  0  0  0  0
  152.2476  140.0588  157.5961 C   0  0  0  0  0  0  0  0  0  0  0  0
  151.2566  140.0029  156.6984 N   0  0  0  0  0  0  0  0  0  0  0  0
  151.3398  138.8765  155.9302 C   0  0  0  0  0  0  0  0  0  0  0  0
  149.5675  140.7198  154.4037 C   0  0  1  0  0  0  0  0  0  0  0  0
  149.2986  141.2988  153.1438 O   0  0  0  0  0  0  0  0  0  0  0  0
  148.5840  141.2382  155.4529 C   0  0  2  0  0  0  0  0  0  0  0  0
  149.2075  142.1897  156.2916 O   0  0  0  0  0  0  0  0  0  0  0  0
  148.9830  139.7841  157.0028 H   0  0  0  0  0  0  0  0  0  0  0  0
  149.1271  138.7717  153.4079 H   0  0  0  0  0  0  0  0  0  0  0  0
  150.6030  140.9217  154.6835 H   0  0  0  0  0  0  0  0  0  0  0  0
  147.6952  141.6644  154.9836 H   0  0  0  0  0  0  0  0  0  0  0  0
  145.9739  141.0094  158.3548 H   0  0  0  0  0  0  0  0  0  0  0  0
  146.4700  139.0714  157.2006 H   0  0  0  0  0  0  0  0  0  0  0  0
  146.0991  140.4601  156.1908 H   0  0  0  0  0  0  0  0  0  0  0  0
  150.6269  136.7446  153.6556 H   0  0  0  0  0  0  0  0  0  0  0  0
  152.2433  140.9256  158.2404 H   0  0  0  0  0  0  0  0  0  0  0  0
  149.3537  140.6222  152.4861 H   0  0  0  0  0  0  0  0  0  0  0  0
  148.9841  143.0535  155.9796 H   0  0  0  0  0  0  0  0  0  0  0  0
  1  2  1  0  0  0  0
  1 24  1  0  0  0  0
  2  3  1  0  0  0  0
  2 25  1  0  0  0  0
  2 26  1  0  0  0  0
  3 20  1  0  0  0  0
  3 18  1  0  0  0  0
  3  4  1  0  0  0  0
  4  5  1  0  0  0  0
  5 21  1  0  0  0  0
  5  6  1  0  0  0  0
  5 16  1  0  0  0  0
  6 15  1  0  0  0  0
  6  7  1  0  0  0  0
  7  8  2  0  0  0  0
  7 27  1  0  0  0  0
  8  9  1  0  0  0  0
  9 15  2  0  0  0  0
  9 10  1  0  0  0  0
 10 11  1  0  0  0  0
 10 12  2  0  0  0  0
 12 13  1  0  0  0  0
 13 14  2  0  0  0  0
 13 28  1  0  0  0  0
 14 15  1  0  0  0  0
 16 22  1  0  0  0  0
 16 17  1  0  0  0  0
 16 18  1  0  0  0  0
 17 29  1  0  0  0  0
 18 23  1  0  0  0  0
 18 19  1  0  0  0  0
 19 30  1  0  0  0  0
M  END
> <s_m_source_file>
AV-unprocessed.smi

> <i_m_source_file_index>
48

> <i_lp_mmshare_version>
43012

> <i_f3d_flags>
0

> <s_epik_input>
W09IXVtDSDJdW0NASF0xT1tDQEhdKFtDQEhdKFtPSF0pW0NAQEhdMVtPSF0pbihbY0hdbjIpYyhjMjMpbltjSF1uYzNDbA==

> <s_epik_cmdline>
J2VwaWtfcHl0aG9uJywgJy1waCcsICc3LjAnLCAnLXRuJywgJzgnLCAnLW1hJywgJzIwMCcsICctbWV0YWxfYmluZGluZycsICctaW1hZScsICc8aW5maWxlLm1hZT4nLCAnLW9tYWUnLCAnPG91dGZpbGUubWFlPic=

> <r_lp_tautomer_probability>
1

> <r_epik_Ionization_Penalty>
3.45505e-06

> <r_epik_Ionization_Penalty_Charging>
0

> <r_epik_Ionization_Penalty_Neutral>
3.45505e-06

> <r_epik_State_Penalty>
-0

> <r_epik_Charging_Adjusted_Penalty>
0

> <i_epik_Tot_Q>
0

> <i_epik_Tot_abs_Q>
0

> <r_epik_Metal_State_Penalty>
-0

> <b_epik_Metal_Only>
0

> <s_epik_Chemistry_Notes>
This compound contains an acetal/aminal-like group ( X-CH(R)-Y where X, Y are N, S, or O) that may be acid/base labile, releasing an aldehyde.

> <s_lp_Force_Field>
OPLS_2005

> <r_lp_Energy>
31.0033

> <b_lp_Chiralities_Consistent>
1

> <s_lp_Variant>
AV-unprocessed.smi:48-7

> <Gold.Version>
5.8.1

> <Gold.Id.Protein>
6NUR|6NUR_protein|mol2

> <Gold.PLP.Fitness>
40.5674

> <Gold.PLP.PLP>
-23.9546

> <Gold.PLP.part.hbond>
-6.5142

> <Gold.PLP.part.metal>
0.0000

> <Gold.PLP.part.buried>
-1.5963

> <Gold.PLP.part.nonpolar>
-16.1246

> <Gold.PLP.part.repulsive>
0.1214

> <Gold.PLP.ligand.clash>
0.0000

> <Gold.PLP.ligand.torsion>
0.6258

> <Gold.PLP.Chemscore.Hbond>
4.9420

> <Gold.PLP.Chemscore.CHOScore>
1.0024

> <Gold.PLP.Chemscore.Metal>
0.0000

> <Gold.Chemscore.Hbonds>
donor molecule, donor type, donor heavy atom, donor atom, acceptor molecule, acceptor atom, score
      L1  H    17    29       P1  7957  0.83
      L1  H    19    30       P1  8028  1.00
      P1  H  7997  8010       L1    12  0.85
      P1  H  8011  8017       L1    17  0.75
      P1  H 10752 10765       L1     8  0.96
      L1  C     7    27       P1  7948  0.37
      L1  C     7    27       P1  7949  0.59

> <Gold.PLP.Chemscore.Internal.Correction>
0.0313

> <Gold.Rescore>
     Score         DG    S(hbond)    S(metal)    S(lipo)     H(rot)  DE(clash)    DE(int)     intcor
      9.43     -11.76       3.74        0.00      30.10       3.80       0.45       1.87       ----

> <Gold.Chemscore.Fitness>
9.4344

> <Gold.Chemscore.DG>
-11.7583

> <Gold.Chemscore.ZeroCoef>
-5.4800

> <Gold.Chemscore.Hbond>
3.7393

> <Gold.Chemscore.Metal>
0.0000

> <Gold.Chemscore.Lipo>
30.0969

> <Gold.Chemscore.Internal_Hbond>
0.0000

> <Gold.Chemscore.DEClash>
0.4524

> <Gold.Chemscore.DEInternal>
1.8714

> <Gold.Chemscore.Rot>
3.8017

> <Gold.Chemscore.Internal.Correction>
   9.000000E+99

> <Gold.Chemscore.Hbonds>
donor molecule, donor type, donor heavy atom, donor atom, acceptor molecule, acceptor atom, score
      L1  H    17    29       P1  7957  0.81
      L1  H    19    30       P1  8028  1.00
      P1  H  7997  8010       L1    12  0.07
      P1  H  8011  8017       L1    17  0.15
      P1  H 10752 10765       L1     8  0.89

> <Gold.Chemscore.Hbond.Weighted>
-12.4893

> <Gold.Chemscore.Metal.Weighted>
-0.0000

> <Gold.Chemscore.Lipo.Weighted>
-3.5213

> <Gold.Chemscore.Internal_Hbond.Weighted>
0.0000

> <Gold.Chemscore.DEClash.Weighted>
0.4524

> <Gold.Chemscore.DEInternal.Weighted>
1.8714

> <Gold.Chemscore.Rot.Weighted>
9.7324

> <Gold.Chemscore.Internal.Correction.Weighted>
   9.000000E+99

> <Gold.Protein.RotatedTorsions>
[ 6907 6896 6895 6894 ] final   91.12 input  -60.11 | X-H torsion
[ 7974 7965 7964 7962 ] final -154.25 input  175.53 | X-H torsion
[ 8008 7997 7996 7995 ] final   23.37 input   59.86 | X-H torsion
[ 10167 10162 10161 10158 ] final -136.86 input  -65.29 | X-H torsion
[ 10718 10713 10712 10709 ] final -150.08 input   66.30 | X-H torsion
[ 10763 10752 10751 10750 ] final -179.73 input  -60.55 | X-H torsion
[ 11005 11000 10999 10996 ] final -154.03 input  -57.11 | X-H torsion

> <Gold.Protein.ActiveResidues>
 VAL166  LYS551  ARG553  GLY616  TRP617  ASP618  TYR619  PRO620  LYS621  CYS622 
 ASP623  PHE694  ASN695  SER759  ASP760  ASP761  ALA762  ILE779  LEU786  VAL792 
 PHE793  MET794  SER795  GLU796  ALA797  LYS798  CYS799  TRP800  GLU811  SER814 

> <Gold.Protein.RotatedAtoms>
  152.5448  134.1706  159.8594 H   0  0  0  0  0  0  0  0  0  0  0  0  # atno 6907 bound_to 6896
  151.1716  133.4773  159.2601 H   0  0  0  0  0  0  0  0  0  0  0  0  # atno 6908 bound_to 6896
  151.1269  135.0121  159.8619 H   0  0  0  0  0  0  0  0  0  0  0  0  # atno 6909 bound_to 6896
  144.7699  140.4414  143.5915 H   0  0  0  0  0  0  0  0  0  0  0  0  # atno 7974 bound_to 7965
  154.9799  140.3100  155.4951 H   0  0  0  0  0  0  0  0  0  0  0  0  # atno 8008 bound_to 7997
  156.2955  140.2268  156.4836 H   0  0  0  0  0  0  0  0  0  0  0  0  # atno 8009 bound_to 7997
  154.7799  140.0446  157.1107 H   0  0  0  0  0  0  0  0  0  0  0  0  # atno 8010 bound_to 7997
  139.8635  143.7047  152.2647 H   0  0  0  0  0  0  0  0  0  0  0  0  # atno 10167 bound_to 10162
  156.4415  130.8124  151.2353 H   0  0  0  0  0  0  0  0  0  0  0  0  # atno 10718 bound_to 10713
  154.5314  135.2800  155.1177 H   0  0  0  0  0  0  0  0  0  0  0  0  # atno 10763 bound_to 10752
  154.2695  135.6306  153.5308 H   0  0  0  0  0  0  0  0  0  0  0  0  # atno 10764 bound_to 10752
  152.9958  135.5625  154.5829 H   0  0  0  0  0  0  0  0  0  0  0  0  # atno 10765 bound_to 10752
  140.7017  134.3930  157.5209 H   0  0  0  0  0  0  0  0  0  0  0  0  # atno 11005 bound_to 11000
  145.6356  139.1542  143.2945 LP  0  0  0  0  0  0  0  0  0  0  0  0  # atno 17320 bound_to 7965
  146.1837  140.6456  142.9177 LP  0  0  0  0  0  0  0  0  0  0  0  0  # atno 17321 bound_to 7965
  139.7351  144.7573  151.0740 LP  0  0  0  0  0  0  0  0  0  0  0  0  # atno 17342 bound_to 10162
  140.7771  143.5040  150.9735 LP  0  0  0  0  0  0  0  0  0  0  0  0  # atno 17343 bound_to 10162
  157.7506  131.0167  150.3554 LP  0  0  0  0  0  0  0  0  0  0  0  0  # atno 17370 bound_to 10713
  156.3913  130.3898  149.7028 LP  0  0  0  0  0  0  0  0  0  0  0  0  # atno 17371 bound_to 10713
  139.8895  134.8829  156.2418 LP  0  0  0  0  0  0  0  0  0  0  0  0  # atno 17394 bound_to 11000
  141.0158  133.7069  156.1186 LP  0  0  0  0  0  0  0  0  0  0  0  0  # atno 17395 bound_to 11000

$$$$
