AV-unprocessed.smi:2253|AV-procd|sdf|9117|dock10
  -GOLD-   2272012323D 1   1.00000     0.00000
 Structure written by MMmdl.
 52 54  0  0  0  0  0  0  0  0  3 V2000
  143.5423  133.3589  147.8849 C   0  0  0  0  0  0  0  0  0  0  0  0
  143.6717  133.3726  149.3583 N   0  3  2  0  0  0  0  0  0  0  0  0
  144.4296  134.5461  149.8492 C   0  0  0  0  0  0  0  0  0  0  0  0
  144.4385  134.5994  151.3867 C   0  0  0  0  0  0  0  0  0  0  0  0
  145.0078  133.3058  152.0245 C   0  0  1  0  0  0  0  0  0  0  0  0
  144.9372  133.3122  153.5266 N   0  3  2  0  0  0  0  0  0  0  0  0
  144.6082  134.6216  154.1608 C   0  0  0  0  0  0  0  0  0  0  0  0
  145.7833  135.6131  154.0665 C   0  0  0  0  0  0  0  0  0  0  0  0
  147.0397  135.0307  154.7364 C   0  0  2  0  0  0  0  0  0  0  0  0
  148.1666  135.9434  154.5644 N   0  0  0  0  0  0  0  0  0  0  0  0
  148.9771  136.3584  155.5495 C   0  0  0  0  0  0  0  0  0  0  0  0
  148.8676  135.9777  156.7143 O   0  0  0  0  0  0  0  0  0  0  0  0
  149.8974  137.2229  155.0872 N   0  0  0  0  0  0  0  0  0  0  0  0
  150.9254  137.9201  155.7837 C   0  0  0  0  0  0  0  0  0  0  0  0
  151.7224  137.3698  156.8181 C   0  0  0  0  0  0  0  0  0  0  0  0
  152.7023  138.1835  157.4218 C   0  0  0  0  0  0  0  0  0  0  0  0
  152.9263  139.4667  157.0689 N   0  0  0  0  0  0  0  0  0  0  0  0
  152.1653  139.9887  156.0844 C   0  0  0  0  0  0  0  0  0  0  0  0
  151.1593  139.2625  155.4161 C   0  0  0  0  0  0  0  0  0  0  0  0
  150.4303  139.8503  154.4365 F   0  0  0  0  0  0  0  0  0  0  0  0
  147.3552  133.6383  154.1545 C   0  0  0  0  0  0  0  0  0  0  0  0
  146.1206  132.7162  154.2136 C   0  0  0  0  0  0  0  0  0  0  0  0
  144.2331  132.1043  151.4263 C   0  0  0  0  0  0  0  0  0  0  0  0
  144.2323  132.1087  149.8883 C   0  0  0  0  0  0  0  0  0  0  0  0
  144.5185  133.2735  147.4057 H   0  0  0  0  0  0  0  0  0  0  0  0
  143.0665  134.2743  147.5314 H   0  0  0  0  0  0  0  0  0  0  0  0
  142.9271  132.5192  147.5602 H   0  0  0  0  0  0  0  0  0  0  0  0
  145.4517  134.5077  149.4685 H   0  0  0  0  0  0  0  0  0  0  0  0
  143.9802  135.4594  149.4571 H   0  0  0  0  0  0  0  0  0  0  0  0
  145.0343  135.4667  151.6693 H   0  0  0  0  0  0  0  0  0  0  0  0
  143.4255  134.7790  151.7501 H   0  0  0  0  0  0  0  0  0  0  0  0
  146.0525  133.2260  151.7236 H   0  0  0  0  0  0  0  0  0  0  0  0
  143.6918  135.0549  153.7649 H   0  0  0  0  0  0  0  0  0  0  0  0
  144.3871  134.4392  155.2135 H   0  0  0  0  0  0  0  0  0  0  0  0
  145.9862  135.8542  153.0222 H   0  0  0  0  0  0  0  0  0  0  0  0
  145.5094  136.5521  154.5494 H   0  0  0  0  0  0  0  0  0  0  0  0
  146.8324  134.9257  155.8035 H   0  0  0  0  0  0  0  0  0  0  0  0
  148.3268  136.3043  153.6349 H   0  0  0  0  0  0  0  0  0  0  0  0
  149.8552  137.4187  154.0978 H   0  0  0  0  0  0  0  0  0  0  0  0
  151.6113  136.3559  157.1666 H   0  0  0  0  0  0  0  0  0  0  0  0
  153.3237  137.7911  158.2132 H   0  0  0  0  0  0  0  0  0  0  0  0
  152.3634  141.0174  155.8221 H   0  0  0  0  0  0  0  0  0  0  0  0
  147.7069  133.7301  153.1266 H   0  0  0  0  0  0  0  0  0  0  0  0
  148.1734  133.1797  154.7110 H   0  0  0  0  0  0  0  0  0  0  0  0
  145.8551  132.5530  155.2592 H   0  0  0  0  0  0  0  0  0  0  0  0
  146.3649  131.7273  153.8329 H   0  0  0  0  0  0  0  0  0  0  0  0
  144.6658  131.1569  151.7424 H   0  0  0  0  0  0  0  0  0  0  0  0
  143.2042  132.1113  151.7893 H   0  0  0  0  0  0  0  0  0  0  0  0
  143.6414  131.2674  149.5235 H   0  0  0  0  0  0  0  0  0  0  0  0
  145.2469  131.9703  149.5107 H   0  0  0  0  0  0  0  0  0  0  0  0
  144.1587  132.7087  153.7511 H   0  0  0  0  0  0  0  0  0  0  0  0
  142.7339  133.4542  149.7253 H   0  0  0  0  0  0  0  0  0  0  0  0
  1  2  1  0  0  0  0
  1 25  1  0  0  0  0
  1 26  1  0  0  0  0
  1 27  1  0  0  0  0
  2 24  1  0  0  0  0
  2  3  1  0  0  0  0
  2 52  1  0  0  0  0
  3  4  1  0  0  0  0
  3 28  1  0  0  0  0
  3 29  1  0  0  0  0
  4  5  1  0  0  0  0
  4 30  1  0  0  0  0
  4 31  1  0  0  0  0
  5  6  1  0  0  0  0
  5 23  1  0  0  0  0
  5 32  1  0  0  0  0
  6 22  1  0  0  0  0
  6  7  1  0  0  0  0
  6 51  1  0  0  0  0
  7  8  1  0  0  0  0
  7 33  1  0  0  0  0
  7 34  1  0  0  0  0
  8  9  1  0  0  0  0
  8 35  1  0  0  0  0
  8 36  1  0  0  0  0
  9 10  1  0  0  0  0
  9 21  1  0  0  0  0
  9 37  1  0  0  0  0
 10 11  1  0  0  0  0
 10 38  1  0  0  0  0
 11 12  2  0  0  0  0
 11 13  1  0  0  0  0
 13 14  1  0  0  0  0
 13 39  1  0  0  0  0
 14 19  1  0  0  0  0
 14 15  2  0  0  0  0
 15 16  1  0  0  0  0
 15 40  1  0  0  0  0
 16 17  2  0  0  0  0
 16 41  1  0  0  0  0
 17 18  1  0  0  0  0
 18 19  2  0  0  0  0
 18 42  1  0  0  0  0
 19 20  1  0  0  0  0
 21 22  1  0  0  0  0
 21 43  1  0  0  0  0
 21 44  1  0  0  0  0
 22 45  1  0  0  0  0
 22 46  1  0  0  0  0
 23 24  1  0  0  0  0
 23 47  1  0  0  0  0
 23 48  1  0  0  0  0
 24 49  1  0  0  0  0
 24 50  1  0  0  0  0
M  CHG  1   2   1
M  CHG  1   6   1
M  END
> <s_m_source_file>
AV-unprocessed.smi

> <i_m_source_file_index>
2253

> <i_lp_mmshare_version>
43012

> <i_f3d_flags>
0

> <s_epik_input>
W0NIM11OMVtDSDJdW0NIMl1bQ0hdKFtDSDJdW0NIMl0xKU4yW0NIMl1bQ0gyXVtDSF0oW0NIMl1bQ0gyXTIpW05IXUMoPU8pW05IXWMzW2NIXVtjSF1uW2NIXWMzRg==

> <s_epik_cmdline>
J2VwaWtfcHl0aG9uJywgJy1waCcsICc3LjAnLCAnLXRuJywgJzgnLCAnLW1hJywgJzIwMCcsICctbWV0YWxfYmluZGluZycsICctaW1hZScsICc8aW5maWxlLm1hZT4nLCAnLW9tYWUnLCAnPG91dGZpbGUubWFlPic=

> <r_epik_Ionization_Penalty>
0.183544

> <r_epik_Ionization_Penalty_Charging>
0.180787

> <r_epik_Ionization_Penalty_Neutral>
0.00275649

> <r_epik_State_Penalty>
0.153592

> <r_epik_Charging_Adjusted_Penalty>
0.334379

> <i_epik_Tot_Q>
2

> <i_epik_Tot_abs_Q>
2

> <r_epik_Metal_State_Penalty>
0.153693

> <b_epik_Metal_Only>
0

> <s_lp_Force_Field>
OPLS_2005

> <r_lp_Energy>
48.1083

> <b_lp_Chiralities_Consistent>
1

> <s_lp_Variant>
AV-unprocessed.smi:2253-3

> <Gold.Version>
5.8.1

> <Gold.Id.Protein>
6NUR|6NUR_protein|mol2

> <Gold.PLP.Fitness>
40.8378

> <Gold.PLP.PLP>
-26.7862

> <Gold.PLP.part.hbond>
-4.0000

> <Gold.PLP.part.metal>
0.0000

> <Gold.PLP.part.buried>
5.2479

> <Gold.PLP.part.nonpolar>
-27.7196

> <Gold.PLP.part.repulsive>
0.1388

> <Gold.PLP.ligand.clash>
0.0000

> <Gold.PLP.ligand.torsion>
1.6382

> <Gold.PLP.Chemscore.Hbond>
5.7600

> <Gold.PLP.Chemscore.CHOScore>
0.0000

> <Gold.PLP.Chemscore.Metal>
0.0000

> <Gold.Chemscore.Hbonds>
donor molecule, donor type, donor heavy atom, donor atom, acceptor molecule, acceptor atom, score
      L1  H     2    52       P1 10186  1.76
      L1  H     6    51       P1 10957  1.98
      L1  H    10    38       P1  7948  1.00
      P1  H  7997  8010       L1    17  1.00

> <Gold.PLP.Chemscore.Internal.Correction>
0.0479

> <Gold.Rescore>
     Score         DG    S(hbond)    S(metal)    S(lipo)     H(rot)  DE(clash)    DE(int)     intcor
     21.05     -23.88       3.33        0.00      89.54       1.26       1.23       1.59       ----

> <Gold.Chemscore.Fitness>
21.0513

> <Gold.Chemscore.DG>
-23.8768

> <Gold.Chemscore.ZeroCoef>
-5.4800

> <Gold.Chemscore.Hbond>
3.3341

> <Gold.Chemscore.Metal>
0.0000

> <Gold.Chemscore.Lipo>
89.5394

> <Gold.Chemscore.Internal_Hbond>
0.0000

> <Gold.Chemscore.DEClash>
1.2325

> <Gold.Chemscore.DEInternal>
1.5931

> <Gold.Chemscore.Rot>
1.2559

> <Gold.Chemscore.Internal.Correction>
   9.000000E+99

> <Gold.Chemscore.Hbonds>
donor molecule, donor type, donor heavy atom, donor atom, acceptor molecule, acceptor atom, score
      L1  H     2    52       P1 10186  0.84
      L1  H     6    51       P1 10957  0.65
      L1  H    10    38       P1  7948  0.98
      P1  H  7997  8010       L1    17  0.25

> <Gold.Chemscore.Hbond.Weighted>
-11.1358

> <Gold.Chemscore.Metal.Weighted>
-0.0000

> <Gold.Chemscore.Lipo.Weighted>
-10.4761

> <Gold.Chemscore.Internal_Hbond.Weighted>
0.0000

> <Gold.Chemscore.DEClash.Weighted>
1.2325

> <Gold.Chemscore.DEInternal.Weighted>
1.5931

> <Gold.Chemscore.Rot.Weighted>
3.2151

> <Gold.Chemscore.Internal.Correction.Weighted>
   9.000000E+99

> <Gold.Protein.RotatedTorsions>
[ 6907 6896 6895 6894 ] final -154.29 input  -60.11 | X-H torsion
[ 7974 7965 7964 7962 ] final  165.41 input  175.53 | X-H torsion
[ 8008 7997 7996 7995 ] final   58.86 input   59.86 | X-H torsion
[ 10167 10162 10161 10158 ] final -132.10 input  -65.29 | X-H torsion
[ 10718 10713 10712 10709 ] final   34.48 input   66.30 | X-H torsion
[ 10763 10752 10751 10750 ] final   79.05 input  -60.55 | X-H torsion
[ 11005 11000 10999 10996 ] final  -32.87 input  -57.11 | X-H torsion

> <Gold.Protein.ActiveResidues>
 VAL166  LYS551  ARG553  GLY616  TRP617  ASP618  TYR619  PRO620  LYS621  CYS622 
 ASP623  PHE694  ASN695  SER759  ASP760  ASP761  ALA762  ILE779  LEU786  VAL792 
 PHE793  MET794  SER795  GLU796  ALA797  LYS798  CYS799  TRP800  GLU811  SER814 

> <Gold.Protein.RotatedAtoms>
  151.2552  133.4329  159.2613 H   0  0  0  0  0  0  0  0  0  0  0  0  # atno 6907 bound_to 6896
  151.0580  134.9718  159.8256 H   0  0  0  0  0  0  0  0  0  0  0  0  # atno 6908 bound_to 6896
  152.5394  134.2504  159.8949 H   0  0  0  0  0  0  0  0  0  0  0  0  # atno 6909 bound_to 6896
  144.7504  139.8466  143.6368 H   0  0  0  0  0  0  0  0  0  0  0  0  # atno 7974 bound_to 7965
  155.5569  140.3487  155.4482 H   0  0  0  0  0  0  0  0  0  0  0  0  # atno 8008 bound_to 7997
  156.0543  140.1325  157.0040 H   0  0  0  0  0  0  0  0  0  0  0  0  # atno 8009 bound_to 7997
  154.4449  140.0998  156.6407 H   0  0  0  0  0  0  0  0  0  0  0  0  # atno 8010 bound_to 7997
  139.9120  143.6483  152.2573 H   0  0  0  0  0  0  0  0  0  0  0  0  # atno 10167 bound_to 10162
  157.3108  130.7398  149.6724 H   0  0  0  0  0  0  0  0  0  0  0  0  # atno 10718 bound_to 10713
  153.0922  135.4854  154.8711 H   0  0  0  0  0  0  0  0  0  0  0  0  # atno 10763 bound_to 10752
  154.7282  135.3054  154.8937 H   0  0  0  0  0  0  0  0  0  0  0  0  # atno 10764 bound_to 10752
  153.9581  135.6815  153.4798 H   0  0  0  0  0  0  0  0  0  0  0  0  # atno 10765 bound_to 10752
  140.9588  133.7177  156.1336 H   0  0  0  0  0  0  0  0  0  0  0  0  # atno 11005 bound_to 11000
  146.1445  139.4511  143.0088 LP  0  0  0  0  0  0  0  0  0  0  0  0  # atno 17320 bound_to 7965
  145.6966  141.0148  143.1526 LP  0  0  0  0  0  0  0  0  0  0  0  0  # atno 17321 bound_to 7965
  139.6934  144.7644  151.1398 LP  0  0  0  0  0  0  0  0  0  0  0  0  # atno 17342 bound_to 10162
  140.7683  143.5557  150.9155 LP  0  0  0  0  0  0  0  0  0  0  0  0  # atno 17343 bound_to 10162
  155.9678  130.4252  150.4642 LP  0  0  0  0  0  0  0  0  0  0  0  0  # atno 17370 bound_to 10713
  157.2640  131.0573  151.2302 LP  0  0  0  0  0  0  0  0  0  0  0  0  # atno 17371 bound_to 10713
  140.7498  134.4058  157.5543 LP  0  0  0  0  0  0  0  0  0  0  0  0  # atno 17394 bound_to 11000
  139.8871  134.8892  156.2548 LP  0  0  0  0  0  0  0  0  0  0  0  0  # atno 17395 bound_to 11000

$$$$
