AV-unprocessed.smi:1899|AV-procd|sdf|7708|dock8
  -GOLD-   22720 9443D 1   1.00000     0.00000
 Structure written by MMmdl.
 33 34  0  0  0  0  0  0  0  0  1 V2000
  152.9635  140.0071  157.9911 O   0  0  0  0  0  0  0  0  0  0  0  0
  152.0990  140.7960  158.3740 C   0  0  0  0  0  0  0  0  0  0  0  0
  151.0510  141.1598  157.6196 N   0  0  0  0  0  0  0  0  0  0  0  0
  150.7608  140.6541  156.2814 C   0  0  0  0  0  0  0  0  0  0  0  0
  150.1159  141.7211  155.3755 C   0  0  0  0  0  0  0  0  0  0  0  0
  148.7330  141.4146  155.0623 N   0  0  0  0  0  0  0  0  0  0  0  0
  148.1660  141.2941  153.8007 C   0  0  0  0  0  0  0  0  0  0  0  0
  146.8344  141.0038  153.9950 C   0  0  0  0  0  0  0  0  0  0  0  0
  146.5617  140.9414  155.3597 N   0  0  0  0  0  0  0  0  0  0  0  0
  147.7339  141.1927  155.9279 C   0  0  0  0  0  0  0  0  0  0  0  0
  152.1775  141.4085  159.7783 C   0  0  1  0  0  0  0  0  0  0  0  0
  153.4383  140.9172  160.5261 C   0  0  0  0  0  0  0  0  0  0  0  0
  153.6920  141.7004  161.8021 C   0  0  0  0  0  0  0  0  0  0  0  0
  153.1049  142.8779  162.0764 C   0  0  0  0  0  0  0  0  0  0  0  0
  152.1237  143.5606  161.1401 C   0  0  0  0  0  0  0  0  0  0  0  0
  152.1451  142.9494  159.7263 C   0  0  0  0  0  0  0  0  0  0  0  0
  150.3903  141.8154  158.0117 H   0  0  0  0  0  0  0  0  0  0  0  0
  151.6932  140.3035  155.8381 H   0  0  0  0  0  0  0  0  0  0  0  0
  150.1087  139.7823  156.3544 H   0  0  0  0  0  0  0  0  0  0  0  0
  150.1459  142.6929  155.8690 H   0  0  0  0  0  0  0  0  0  0  0  0
  150.6725  141.8307  154.4436 H   0  0  0  0  0  0  0  0  0  0  0  0
  148.7403  141.4229  152.8950 H   0  0  0  0  0  0  0  0  0  0  0  0
  146.0577  140.8370  153.2633 H   0  0  0  0  0  0  0  0  0  0  0  0
  147.8682  141.2230  156.9994 H   0  0  0  0  0  0  0  0  0  0  0  0
  151.3017  141.0811  160.3422 H   0  0  0  0  0  0  0  0  0  0  0  0
  153.3267  139.8631  160.7825 H   0  0  0  0  0  0  0  0  0  0  0  0
  154.3285  140.9982  159.9006 H   0  0  0  0  0  0  0  0  0  0  0  0
  154.3938  141.2743  162.5040 H   0  0  0  0  0  0  0  0  0  0  0  0
  153.3184  143.3802  163.0086 H   0  0  0  0  0  0  0  0  0  0  0  0
  151.1273  143.4728  161.5739 H   0  0  0  0  0  0  0  0  0  0  0  0
  152.3553  144.6247  161.0879 H   0  0  0  0  0  0  0  0  0  0  0  0
  153.0255  143.3146  159.1948 H   0  0  0  0  0  0  0  0  0  0  0  0
  151.2794  143.3001  159.1626 H   0  0  0  0  0  0  0  0  0  0  0  0
  1  2  2  0  0  0  0
  2  3  1  0  0  0  0
  2 11  1  0  0  0  0
  3  4  1  0  0  0  0
  3 17  1  0  0  0  0
  4  5  1  0  0  0  0
  4 18  1  0  0  0  0
  4 19  1  0  0  0  0
  5  6  1  0  0  0  0
  5 20  1  0  0  0  0
  5 21  1  0  0  0  0
  6 10  1  0  0  0  0
  6  7  1  0  0  0  0
  7  8  2  0  0  0  0
  7 22  1  0  0  0  0
  8  9  1  0  0  0  0
  8 23  1  0  0  0  0
  9 10  2  0  0  0  0
 10 24  1  0  0  0  0
 11 16  1  0  0  0  0
 11 12  1  0  0  0  0
 11 25  1  0  0  0  0
 12 13  1  0  0  0  0
 12 26  1  0  0  0  0
 12 27  1  0  0  0  0
 13 14  2  0  0  0  0
 13 28  1  0  0  0  0
 14 15  1  0  0  0  0
 14 29  1  0  0  0  0
 15 16  1  0  0  0  0
 15 30  1  0  0  0  0
 15 31  1  0  0  0  0
 16 32  1  0  0  0  0
 16 33  1  0  0  0  0
M  END
> <s_m_source_file>
AV-unprocessed.smi

> <i_m_source_file_index>
1899

> <i_lp_mmshare_version>
43012

> <i_f3d_flags>
0

> <s_epik_input>
W0NIMl0xW0NIMl1bQ0hdPVtDSF1bQ0gyXVtDQEhdMUMoPU8pW05IXVtDSDJdW0NIMl1uMltjSF1bY0hdbltjSF0y

> <s_epik_cmdline>
J2VwaWtfcHl0aG9uJywgJy1waCcsICc3LjAnLCAnLXRuJywgJzgnLCAnLW1hJywgJzIwMCcsICctbWV0YWxfYmluZGluZycsICctaW1hZScsICc8aW5maWxlLm1hZT4nLCAnLW9tYWUnLCAnPG91dGZpbGUubWFlPic=

> <r_lp_tautomer_probability>
1

> <r_epik_Ionization_Penalty>
0.598506

> <r_epik_Ionization_Penalty_Charging>
0.598506

> <r_epik_Ionization_Penalty_Neutral>
1.57027e-08

> <r_epik_State_Penalty>
0.612686

> <r_epik_Charging_Adjusted_Penalty>
1.21119

> <i_epik_Tot_Q>
0

> <i_epik_Tot_abs_Q>
0

> <r_epik_Metal_State_Penalty>
0.300712

> <b_epik_Metal_Only>
0

> <s_lp_Force_Field>
OPLS_2005

> <r_lp_Energy>
10.0214

> <b_lp_Chiralities_Consistent>
1

> <s_lp_Variant>
AV-unprocessed.smi:1899-4

> <Gold.Version>
5.8.1

> <Gold.Id.Protein>
6NUR|6NUR_protein|mol2

> <Gold.PLP.Fitness>
43.7986

> <Gold.PLP.PLP>
-35.9269

> <Gold.PLP.part.hbond>
-1.0000

> <Gold.PLP.part.metal>
0.0000

> <Gold.PLP.part.buried>
-2.6752

> <Gold.PLP.part.nonpolar>
-31.1113

> <Gold.PLP.part.repulsive>
0.1268

> <Gold.PLP.ligand.clash>
0.0000

> <Gold.PLP.ligand.torsion>
0.5767

> <Gold.PLP.Chemscore.Hbond>
1.0000

> <Gold.PLP.Chemscore.CHOScore>
2.0000

> <Gold.PLP.Chemscore.Metal>
0.0000

> <Gold.Chemscore.Hbonds>
donor molecule, donor type, donor heavy atom, donor atom, acceptor molecule, acceptor atom, score
      P1  H  7997  8009       L1     1  1.00
      L1  C     7    22       P1  7957  1.00
      L1  C     8    23       P1 10175  1.00

> <Gold.PLP.Chemscore.Internal.Correction>
0.0251

> <Gold.Rescore>
     Score         DG    S(hbond)    S(metal)    S(lipo)     H(rot)  DE(clash)    DE(int)     intcor
     14.24     -14.81       0.95        0.00      92.15       1.80       0.03       0.54       ----

> <Gold.Chemscore.Fitness>
14.2372

> <Gold.Chemscore.DG>
-14.8072

> <Gold.Chemscore.ZeroCoef>
-5.4800

> <Gold.Chemscore.Hbond>
0.9478

> <Gold.Chemscore.Metal>
0.0000

> <Gold.Chemscore.Lipo>
92.1533

> <Gold.Chemscore.Internal_Hbond>
0.0000

> <Gold.Chemscore.DEClash>
0.0260

> <Gold.Chemscore.DEInternal>
0.5440

> <Gold.Chemscore.Rot>
1.8048

> <Gold.Chemscore.Internal.Correction>
   9.000000E+99

> <Gold.Chemscore.Hbonds>
donor molecule, donor type, donor heavy atom, donor atom, acceptor molecule, acceptor atom, score
      P1  H  7997  8009       L1     1  0.95

> <Gold.Chemscore.Hbond.Weighted>
-3.1655

> <Gold.Chemscore.Metal.Weighted>
-0.0000

> <Gold.Chemscore.Lipo.Weighted>
-10.7819

> <Gold.Chemscore.Internal_Hbond.Weighted>
0.0000

> <Gold.Chemscore.DEClash.Weighted>
0.0260

> <Gold.Chemscore.DEInternal.Weighted>
0.5440

> <Gold.Chemscore.Rot.Weighted>
4.6203

> <Gold.Chemscore.Internal.Correction.Weighted>
   9.000000E+99

> <Gold.Protein.RotatedTorsions>
[ 6907 6896 6895 6894 ] final  -11.54 input  -60.11 | X-H torsion
[ 7974 7965 7964 7962 ] final   48.43 input  175.53 | X-H torsion
[ 8008 7997 7996 7995 ] final  152.44 input   59.86 | X-H torsion
[ 10167 10162 10161 10158 ] final   50.56 input  -65.29 | X-H torsion
[ 10718 10713 10712 10709 ] final -111.95 input   66.30 | X-H torsion
[ 10763 10752 10751 10750 ] final  100.08 input  -60.55 | X-H torsion
[ 11005 11000 10999 10996 ] final  112.72 input  -57.11 | X-H torsion

> <Gold.Protein.ActiveResidues>
 VAL166  LYS551  ARG553  GLY616  TRP617  ASP618  TYR619  PRO620  LYS621  CYS622 
 ASP623  PHE694  ASN695  SER759  ASP760  ASP761  ALA762  ILE779  LEU786  VAL792 
 PHE793  MET794  SER795  GLU796  ALA797  LYS798  CYS799  TRP800  GLU811  SER814 

> <Gold.Protein.RotatedAtoms>
  151.3846  135.0946  159.9506 H   0  0  0  0  0  0  0  0  0  0  0  0  # atno 6907 bound_to 6896
  152.5098  133.9038  159.7465 H   0  0  0  0  0  0  0  0  0  0  0  0  # atno 6908 bound_to 6896
  150.9479  133.6527  159.2806 H   0  0  0  0  0  0  0  0  0  0  0  0  # atno 6909 bound_to 6896
  146.0205  139.4645  142.9900 H   0  0  0  0  0  0  0  0  0  0  0  0  # atno 7974 bound_to 7965
  156.2629  140.2020  156.6334 H   0  0  0  0  0  0  0  0  0  0  0  0  # atno 8008 bound_to 7997
  154.6665  140.0555  157.0144 H   0  0  0  0  0  0  0  0  0  0  0  0  # atno 8009 bound_to 7997
  155.1199  140.3223  155.4503 H   0  0  0  0  0  0  0  0  0  0  0  0  # atno 8010 bound_to 7997
  140.2712  144.3264  150.6290 H   0  0  0  0  0  0  0  0  0  0  0  0  # atno 10167 bound_to 10162
  156.0677  130.5894  150.8443 H   0  0  0  0  0  0  0  0  0  0  0  0  # atno 10718 bound_to 10713
  153.3095  135.4091  155.1323 H   0  0  0  0  0  0  0  0  0  0  0  0  # atno 10763 bound_to 10752
  154.8572  135.3561  154.5743 H   0  0  0  0  0  0  0  0  0  0  0  0  # atno 10764 bound_to 10752
  153.6171  135.7066  153.5383 H   0  0  0  0  0  0  0  0  0  0  0  0  # atno 10765 bound_to 10752
  139.8934  134.9535  156.6629 H   0  0  0  0  0  0  0  0  0  0  0  0  # atno 11005 bound_to 11000
  145.7201  141.0078  143.1407 LP  0  0  0  0  0  0  0  0  0  0  0  0  # atno 17320 bound_to 7965
  144.6988  139.8860  143.7450 LP  0  0  0  0  0  0  0  0  0  0  0  0  # atno 17321 bound_to 7965
  140.5888  143.2169  151.7291 LP  0  0  0  0  0  0  0  0  0  0  0  0  # atno 17342 bound_to 10162
  139.4988  144.3970  152.0221 LP  0  0  0  0  0  0  0  0  0  0  0  0  # atno 17343 bound_to 10162
  157.5729  131.0946  150.9390 LP  0  0  0  0  0  0  0  0  0  0  0  0  # atno 17370 bound_to 10713
  156.9603  130.5452  149.5285 LP  0  0  0  0  0  0  0  0  0  0  0  0  # atno 17371 bound_to 10713
  140.7433  133.8959  155.8294 LP  0  0  0  0  0  0  0  0  0  0  0  0  # atno 17394 bound_to 11000
  141.0060  134.1086  157.4270 LP  0  0  0  0  0  0  0  0  0  0  0  0  # atno 17395 bound_to 11000

$$$$
