AV-unprocessed.smi:2252|AV-procd|sdf|9110|dock2
  -GOLD-   2272012313D 1   1.00000     0.00000
 Structure written by MMmdl.
 45 47  0  0  0  0  0  0  0  0  4 V2000
  152.6334  142.3369  160.1538 C   0  0  0  0  0  0  0  0  0  0  0  0
  151.8799  143.3589  159.4259 N   0  0  0  0  0  0  0  0  0  0  0  0
  151.7720  144.6830  159.7662 C   0  0  0  0  0  0  0  0  0  0  0  0
  150.9950  145.2743  158.8054 C   0  0  0  0  0  0  0  0  0  0  0  0
  150.6613  144.2879  157.9186 N   0  3  0  0  0  0  0  0  0  0  0  0
  151.1901  143.1151  158.2970 C   0  0  0  0  0  0  0  0  0  0  0  0
  151.0386  141.8052  157.5674 C   0  0  0  0  0  0  0  0  0  0  0  0
  150.1956  141.8663  156.2742 C   0  0  0  0  0  0  0  0  0  0  0  0
  149.4891  140.6078  156.0347 N   0  5  0  0  0  0  0  0  0  0  0  0
  149.8185  139.7262  155.0466 C   0  0  0  0  0  0  0  0  0  0  0  0
  150.9087  139.5041  154.5113 O   0  0  0  0  0  0  0  0  0  0  0  0
  148.5942  138.9242  154.5592 C   0  0  1  0  0  0  0  0  0  0  0  0
  148.0912  139.4848  153.2087 C   0  0  0  0  0  0  0  0  0  0  0  0
  146.9816  140.5137  153.1619 C   0  0  0  0  0  0  0  0  0  0  0  0
  146.7268  139.1151  152.6659 C   0  0  0  0  0  0  0  0  0  0  0  0
  148.8655  137.4583  154.4889 N   0  3  0  0  0  0  0  0  0  0  0  0
  149.9666  136.9715  155.3468 C   0  0  0  0  0  0  0  0  0  0  0  0
  149.7869  135.4578  155.3837 C   0  0  0  0  0  0  0  0  0  0  0  0
  148.2721  135.2607  155.3239 C   0  0  0  0  0  0  0  0  0  0  0  0
  147.7081  136.5788  154.7733 C   0  0  0  0  0  0  0  0  0  0  0  0
  152.9446  142.7311  161.1215 H   0  0  0  0  0  0  0  0  0  0  0  0
  153.5135  142.0594  159.5730 H   0  0  0  0  0  0  0  0  0  0  0  0
  152.0040  141.4619  160.3077 H   0  0  0  0  0  0  0  0  0  0  0  0
  152.2473  145.0973  160.6435 H   0  0  0  0  0  0  0  0  0  0  0  0
  150.6648  146.2960  158.6875 H   0  0  0  0  0  0  0  0  0  0  0  0
  152.0505  141.4770  157.3287 H   0  0  0  0  0  0  0  0  0  0  0  0
  150.6344  141.0687  158.2617 H   0  0  0  0  0  0  0  0  0  0  0  0
  149.4923  142.6954  156.3558 H   0  0  0  0  0  0  0  0  0  0  0  0
  150.8490  142.1284  155.4414 H   0  0  0  0  0  0  0  0  0  0  0  0
  147.8031  139.0666  155.2979 H   0  0  0  0  0  0  0  0  0  0  0  0
  148.8786  139.6177  152.4684 H   0  0  0  0  0  0  0  0  0  0  0  0
  146.5208  140.8050  154.1040 H   0  0  0  0  0  0  0  0  0  0  0  0
  147.0555  141.3020  152.4158 H   0  0  0  0  0  0  0  0  0  0  0  0
  146.6378  138.9703  151.5912 H   0  0  0  0  0  0  0  0  0  0  0  0
  146.0864  138.4809  153.2758 H   0  0  0  0  0  0  0  0  0  0  0  0
  150.9474  137.2559  154.9644 H   0  0  0  0  0  0  0  0  0  0  0  0
  149.8607  137.3842  156.3514 H   0  0  0  0  0  0  0  0  0  0  0  0
  150.2492  135.0135  154.5010 H   0  0  0  0  0  0  0  0  0  0  0  0
  150.2403  135.0006  156.2635 H   0  0  0  0  0  0  0  0  0  0  0  0
  148.0073  134.4097  154.6954 H   0  0  0  0  0  0  0  0  0  0  0  0
  147.8718  135.0713  156.3207 H   0  0  0  0  0  0  0  0  0  0  0  0
  147.0660  137.0327  155.5290 H   0  0  0  0  0  0  0  0  0  0  0  0
  147.1117  136.4256  153.8735 H   0  0  0  0  0  0  0  0  0  0  0  0
  149.1494  137.2659  153.5385 H   0  0  0  0  0  0  0  0  0  0  0  0
  150.0863  144.4175  157.0957 H   0  0  0  0  0  0  0  0  0  0  0  0
  1  2  1  0  0  0  0
  1 21  1  0  0  0  0
  1 22  1  0  0  0  0
  1 23  1  0  0  0  0
  2  6  1  0  0  0  0
  2  3  1  0  0  0  0
  3  4  2  0  0  0  0
  3 24  1  0  0  0  0
  4  5  1  0  0  0  0
  4 25  1  0  0  0  0
  5  6  2  0  0  0  0
  5 45  1  0  0  0  0
  6  7  1  0  0  0  0
  7  8  1  0  0  0  0
  7 26  1  0  0  0  0
  7 27  1  0  0  0  0
  8  9  1  0  0  0  0
  8 28  1  0  0  0  0
  8 29  1  0  0  0  0
  9 10  1  0  0  0  0
 10 11  2  0  0  0  0
 10 12  1  0  0  0  0
 12 13  1  0  0  0  0
 12 16  1  0  0  0  0
 12 30  1  0  0  0  0
 13 15  1  0  0  0  0
 13 14  1  0  0  0  0
 13 31  1  0  0  0  0
 14 15  1  0  0  0  0
 14 32  1  0  0  0  0
 14 33  1  0  0  0  0
 15 34  1  0  0  0  0
 15 35  1  0  0  0  0
 16 20  1  0  0  0  0
 16 17  1  0  0  0  0
 16 44  1  0  0  0  0
 17 18  1  0  0  0  0
 17 36  1  0  0  0  0
 17 37  1  0  0  0  0
 18 19  1  0  0  0  0
 18 38  1  0  0  0  0
 18 39  1  0  0  0  0
 19 20  1  0  0  0  0
 19 40  1  0  0  0  0
 19 41  1  0  0  0  0
 20 42  1  0  0  0  0
 20 43  1  0  0  0  0
M  CHG  1   5   1
M  CHG  1   9  -1
M  CHG  1  16   1
M  END
> <s_m_source_file>
AV-unprocessed.smi

> <i_m_source_file_index>
2252

> <i_lp_mmshare_version>
43012

> <i_f3d_flags>
0

> <s_epik_input>
W0NIM11uMVtjSF1bY0hdbmMxW0NIMl1bQ0gyXVtOSF1DKD1PKVtDQEhdKFtDSF0yW0NIMl1bQ0gyXTIpTjNbQ0gyXVtDSDJdW0NIMl1bQ0gyXTM=

> <s_epik_cmdline>
J2VwaWtfcHl0aG9uJywgJy1waCcsICc3LjAnLCAnLXRuJywgJzgnLCAnLW1hJywgJzIwMCcsICctbWV0YWxfYmluZGluZycsICctaW1hZScsICc8aW5maWxlLm1hZT4nLCAnLW9tYWUnLCAnPG91dGZpbGUubWFlPic=

> <r_lp_tautomer_probability>
1

> <r_epik_Ionization_Penalty>
5.88052

> <r_epik_Ionization_Penalty_Charging>
5.85424

> <r_epik_Ionization_Penalty_Neutral>
0.026272

> <r_epik_State_Penalty>
5.94961

> <r_epik_Charging_Adjusted_Penalty>
11.8039

> <i_epik_Tot_Q>
1

> <i_epik_Tot_abs_Q>
3

> <r_epik_Metal_State_Penalty>
2.20001

> <b_epik_Metal_Only>
1

> <s_lp_Force_Field>
OPLS_2005

> <r_lp_Energy>
30.4817

> <b_lp_Chiralities_Consistent>
1

> <s_lp_Variant>
AV-unprocessed.smi:2252-8

> <Gold.Version>
5.8.1

> <Gold.Id.Protein>
6NUR|6NUR_protein|mol2

> <Gold.PLP.Fitness>
51.0321

> <Gold.PLP.PLP>
-39.1195

> <Gold.PLP.part.hbond>
-3.0000

> <Gold.PLP.part.metal>
0.0000

> <Gold.PLP.part.buried>
-0.2413

> <Gold.PLP.part.nonpolar>
-35.5879

> <Gold.PLP.part.repulsive>
0.2119

> <Gold.PLP.ligand.clash>
0.0000

> <Gold.PLP.ligand.torsion>
2.2146

> <Gold.PLP.Chemscore.Hbond>
5.0000

> <Gold.PLP.Chemscore.CHOScore>
0.0000

> <Gold.PLP.Chemscore.Metal>
0.0000

> <Gold.Chemscore.Hbonds>
donor molecule, donor type, donor heavy atom, donor atom, acceptor molecule, acceptor atom, score
      L1  H     5    45       P1  8028  2.00
      L1  H    16    44       P1  7948  2.00
      P1  H  7989  7998       L1    11  1.00

> <Gold.PLP.Chemscore.Internal.Correction>
1.3417

> <Gold.Rescore>
     Score         DG    S(hbond)    S(metal)    S(lipo)     H(rot)  DE(clash)    DE(int)     intcor
     16.36     -19.63       2.81        0.00      84.22       1.98       0.09       3.18       ----

> <Gold.Chemscore.Fitness>
16.3561

> <Gold.Chemscore.DG>
-19.6328

> <Gold.Chemscore.ZeroCoef>
-5.4800

> <Gold.Chemscore.Hbond>
2.8054

> <Gold.Chemscore.Metal>
0.0000

> <Gold.Chemscore.Lipo>
84.2217

> <Gold.Chemscore.Internal_Hbond>
0.0000

> <Gold.Chemscore.DEClash>
0.0927

> <Gold.Chemscore.DEInternal>
3.1841

> <Gold.Chemscore.Rot>
1.9809

> <Gold.Chemscore.Internal.Correction>
   9.000000E+99

> <Gold.Chemscore.Hbonds>
donor molecule, donor type, donor heavy atom, donor atom, acceptor molecule, acceptor atom, score
      L1  H     5    45       P1  8028  0.65
      L1  H    16    44       P1  7948  0.95
      P1  H  7989  7998       L1    11  0.94

> <Gold.Chemscore.Hbond.Weighted>
-9.3700

> <Gold.Chemscore.Metal.Weighted>
-0.0000

> <Gold.Chemscore.Lipo.Weighted>
-9.8539

> <Gold.Chemscore.Internal_Hbond.Weighted>
0.0000

> <Gold.Chemscore.DEClash.Weighted>
0.0927

> <Gold.Chemscore.DEInternal.Weighted>
3.1841

> <Gold.Chemscore.Rot.Weighted>
5.0711

> <Gold.Chemscore.Internal.Correction.Weighted>
   9.000000E+99

> <Gold.Protein.RotatedTorsions>
[ 6907 6896 6895 6894 ] final -167.43 input  -60.11 | X-H torsion
[ 7974 7965 7964 7962 ] final -111.45 input  175.53 | X-H torsion
[ 8008 7997 7996 7995 ] final -139.66 input   59.86 | X-H torsion
[ 10167 10162 10161 10158 ] final  103.81 input  -65.29 | X-H torsion
[ 10718 10713 10712 10709 ] final  -66.68 input   66.30 | X-H torsion
[ 10763 10752 10751 10750 ] final -158.84 input  -60.55 | X-H torsion
[ 11005 11000 10999 10996 ] final   39.79 input  -57.11 | X-H torsion

> <Gold.Protein.ActiveResidues>
 VAL166  LYS551  ARG553  GLY616  TRP617  ASP618  TYR619  PRO620  LYS621  CYS622 
 ASP623  PHE694  ASN695  SER759  ASP760  ASP761  ALA762  ILE779  LEU786  VAL792 
 PHE793  MET794  SER795  GLU796  ALA797  LYS798  CYS799  TRP800  GLU811  SER814 

> <Gold.Protein.RotatedAtoms>
  151.4594  133.3597  159.2806 H   0  0  0  0  0  0  0  0  0  0  0  0  # atno 6907 bound_to 6896
  150.9036  134.8451  159.7388 H   0  0  0  0  0  0  0  0  0  0  0  0  # atno 6908 bound_to 6896
  152.4893  134.4517  159.9628 H   0  0  0  0  0  0  0  0  0  0  0  0  # atno 6909 bound_to 6896
  145.1559  140.8853  143.3619 H   0  0  0  0  0  0  0  0  0  0  0  0  # atno 7974 bound_to 7965
  155.4486  140.0537  157.3003 H   0  0  0  0  0  0  0  0  0  0  0  0  # atno 8008 bound_to 7997
  154.4787  140.2072  155.9772 H   0  0  0  0  0  0  0  0  0  0  0  0  # atno 8009 bound_to 7997
  156.1172  140.3194  155.8161 H   0  0  0  0  0  0  0  0  0  0  0  0  # atno 8010 bound_to 7997
  139.7231  144.7053  151.0841 H   0  0  0  0  0  0  0  0  0  0  0  0  # atno 10167 bound_to 10162
  156.0599  130.4266  150.1744 H   0  0  0  0  0  0  0  0  0  0  0  0  # atno 10718 bound_to 10713
  154.7524  135.3096  154.8533 H   0  0  0  0  0  0  0  0  0  0  0  0  # atno 10763 bound_to 10752
  153.9317  135.6784  153.4749 H   0  0  0  0  0  0  0  0  0  0  0  0  # atno 10764 bound_to 10752
  153.1120  135.4862  154.8980 H   0  0  0  0  0  0  0  0  0  0  0  0  # atno 10765 bound_to 10752
  140.1993  134.3890  155.8104 H   0  0  0  0  0  0  0  0  0  0  0  0  # atno 11005 bound_to 11000
  145.0382  139.3283  143.5990 LP  0  0  0  0  0  0  0  0  0  0  0  0  # atno 17320 bound_to 7965
  146.3489  139.9745  142.8702 LP  0  0  0  0  0  0  0  0  0  0  0  0  # atno 17321 bound_to 7965
  140.7757  143.5140  150.9617 LP  0  0  0  0  0  0  0  0  0  0  0  0  # atno 17342 bound_to 10162
  139.8827  143.7051  152.3155 LP  0  0  0  0  0  0  0  0  0  0  0  0  # atno 17343 bound_to 10162
  156.9814  130.9865  151.3436 LP  0  0  0  0  0  0  0  0  0  0  0  0  # atno 17370 bound_to 10713
  157.5599  130.8239  149.8253 LP  0  0  0  0  0  0  0  0  0  0  0  0  # atno 17371 bound_to 10713
  141.2227  133.7086  156.8230 LP  0  0  0  0  0  0  0  0  0  0  0  0  # atno 17394 bound_to 11000
  140.2072  134.8854  157.3234 LP  0  0  0  0  0  0  0  0  0  0  0  0  # atno 17395 bound_to 11000

$$$$
