AV-unprocessed.smi:752|AV-procd|sdf|3596|dock4
  -GOLD-   22720 0593D 1   1.00000     0.00000
 Structure written by MMmdl.
 41 42  0  0  0  0  0  0  0  0  1 V2000
  151.4531  143.8407  157.9450 C   0  0  0  0  0  0  0  0  0  0  0  0
  152.1934  144.6165  159.0394 C   0  0  0  0  0  0  0  0  0  0  0  0
  152.6121  143.7459  160.1763 C   0  0  0  0  0  0  0  0  0  0  0  0
  153.1081  142.5163  160.0174 N   0  0  0  0  0  0  0  0  0  0  0  0
  153.4010  141.8907  161.2336 C   0  0  0  0  0  0  0  0  0  0  0  0
  153.9792  140.5043  161.2418 C   0  0  0  0  0  0  0  0  0  0  0  0
  153.8919  139.8630  159.8530 C   0  0  0  0  0  0  0  0  0  0  0  0
  154.9147  139.6289  159.2079 O   0  0  0  0  0  0  0  0  0  0  0  0
  152.6571  139.5966  159.3988 N   0  0  0  0  0  0  0  0  0  0  0  0
  152.3370  138.9902  158.1094 C   0  0  0  0  0  0  0  0  0  0  0  0
  150.9803  139.4693  157.5494 C   0  0  1  0  0  0  0  0  0  0  0  0
  150.6724  140.9446  157.8938 C   0  0  0  0  0  0  0  0  0  0  0  0
  149.3322  141.4068  157.2988 C   0  0  0  0  0  0  0  0  0  0  0  0
  149.2877  141.1852  155.7802 C   0  0  0  0  0  0  0  0  0  0  0  0
  149.5738  139.7149  155.4351 C   0  0  1  0  0  0  0  0  0  0  0  0
  149.5927  139.5548  154.0323 O   0  0  0  0  0  0  0  0  0  0  0  0
  150.9215  139.2602  156.0220 C   0  0  0  0  0  0  0  0  0  0  0  0
  153.0927  142.6639  162.3261 C   0  0  0  0  0  0  0  0  0  0  0  0
  152.4366  144.2102  161.8643 S   0  0  0  0  0  0  0  0  0  0  0  0
  151.1568  144.5036  157.1320 H   0  0  0  0  0  0  0  0  0  0  0  0
  150.5511  143.3708  158.3383 H   0  0  0  0  0  0  0  0  0  0  0  0
  152.0834  143.0574  157.5230 H   0  0  0  0  0  0  0  0  0  0  0  0
  153.0774  145.0990  158.6206 H   0  0  0  0  0  0  0  0  0  0  0  0
  151.5569  145.4129  159.4258 H   0  0  0  0  0  0  0  0  0  0  0  0
  155.0175  140.5337  161.5752 H   0  0  0  0  0  0  0  0  0  0  0  0
  153.4481  139.8652  161.9482 H   0  0  0  0  0  0  0  0  0  0  0  0
  151.8761  139.8281  159.9957 H   0  0  0  0  0  0  0  0  0  0  0  0
  153.1325  139.1673  157.3836 H   0  0  0  0  0  0  0  0  0  0  0  0
  152.3066  137.9111  158.2626 H   0  0  0  0  0  0  0  0  0  0  0  0
  150.1998  138.8517  157.9970 H   0  0  0  0  0  0  0  0  0  0  0  0
  150.6401  141.0856  158.9738 H   0  0  0  0  0  0  0  0  0  0  0  0
  151.4756  141.5835  157.5238 H   0  0  0  0  0  0  0  0  0  0  0  0
  148.5154  140.8605  157.7720 H   0  0  0  0  0  0  0  0  0  0  0  0
  149.1705  142.4612  157.5247 H   0  0  0  0  0  0  0  0  0  0  0  0
  148.3124  141.4808  155.3918 H   0  0  0  0  0  0  0  0  0  0  0  0
  150.0236  141.8310  155.2984 H   0  0  0  0  0  0  0  0  0  0  0  0
  148.7755  139.0873  155.8335 H   0  0  0  0  0  0  0  0  0  0  0  0
  149.0461  138.8177  153.8062 H   0  0  0  0  0  0  0  0  0  0  0  0
  151.7347  139.8119  155.5474 H   0  0  0  0  0  0  0  0  0  0  0  0
  151.0850  138.2077  155.7866 H   0  0  0  0  0  0  0  0  0  0  0  0
  153.2136  142.4187  163.3707 H   0  0  0  0  0  0  0  0  0  0  0  0
  1  2  1  0  0  0  0
  1 20  1  0  0  0  0
  1 21  1  0  0  0  0
  1 22  1  0  0  0  0
  2  3  1  0  0  0  0
  2 23  1  0  0  0  0
  2 24  1  0  0  0  0
  3 19  1  0  0  0  0
  3  4  2  0  0  0  0
  4  5  1  0  0  0  0
  5  6  1  0  0  0  0
  5 18  2  0  0  0  0
  6  7  1  0  0  0  0
  6 25  1  0  0  0  0
  6 26  1  0  0  0  0
  7  8  2  0  0  0  0
  7  9  1  0  0  0  0
  9 10  1  0  0  0  0
  9 27  1  0  0  0  0
 10 11  1  0  0  0  0
 10 28  1  0  0  0  0
 10 29  1  0  0  0  0
 11 17  1  0  0  0  0
 11 12  1  0  0  0  0
 11 30  1  0  0  0  0
 12 13  1  0  0  0  0
 12 31  1  0  0  0  0
 12 32  1  0  0  0  0
 13 14  1  0  0  0  0
 13 33  1  0  0  0  0
 13 34  1  0  0  0  0
 14 15  1  0  0  0  0
 14 35  1  0  0  0  0
 14 36  1  0  0  0  0
 15 16  1  0  0  0  0
 15 17  1  0  0  0  0
 15 37  1  0  0  0  0
 16 38  1  0  0  0  0
 17 39  1  0  0  0  0
 17 40  1  0  0  0  0
 18 19  1  0  0  0  0
 18 41  1  0  0  0  0
M  END
> <s_m_source_file>
AV-unprocessed.smi

> <i_m_source_file_index>
752

> <i_lp_mmshare_version>
43012

> <i_f3d_flags>
0

> <s_epik_input>
W0NIM11bQ0gyXWMxbmMoW2NIXXMxKVtDSDJdQyg9TylbTkhdW0NIMl1bQ0BASF0yW0NIMl1bQ0gyXVtDSDJdW0NAQEhdKFtPSF0pW0NIMl0y

> <s_epik_cmdline>
J2VwaWtfcHl0aG9uJywgJy1waCcsICc3LjAnLCAnLXRuJywgJzgnLCAnLW1hJywgJzIwMCcsICctbWV0YWxfYmluZGluZycsICctaW1hZScsICc8aW5maWxlLm1hZT4nLCAnLW9tYWUnLCAnPG91dGZpbGUubWFlPic=

> <r_lp_tautomer_probability>
1

> <r_epik_Ionization_Penalty>
5.44903e-05

> <r_epik_Ionization_Penalty_Charging>
0

> <r_epik_Ionization_Penalty_Neutral>
5.44903e-05

> <r_epik_State_Penalty>
-0

> <r_epik_Charging_Adjusted_Penalty>
0

> <i_epik_Tot_Q>
0

> <i_epik_Tot_abs_Q>
0

> <r_epik_Metal_State_Penalty>
-0

> <b_epik_Metal_Only>
0

> <s_lp_Force_Field>
OPLS_2005

> <r_lp_Energy>
4.53549

> <b_lp_Chiralities_Consistent>
1

> <s_lp_Variant>
AV-unprocessed.smi:752-2

> <Gold.Version>
5.8.1

> <Gold.Id.Protein>
6NUR|6NUR_protein|mol2

> <Gold.PLP.Fitness>
49.5248

> <Gold.PLP.PLP>
-45.8568

> <Gold.PLP.part.hbond>
-3.0000

> <Gold.PLP.part.metal>
0.0000

> <Gold.PLP.part.buried>
-5.7649

> <Gold.PLP.part.nonpolar>
-37.8318

> <Gold.PLP.part.repulsive>
0.1028

> <Gold.PLP.ligand.clash>
0.0017

> <Gold.PLP.ligand.torsion>
0.8569

> <Gold.PLP.Chemscore.Hbond>
1.7752

> <Gold.PLP.Chemscore.CHOScore>
0.0000

> <Gold.PLP.Chemscore.Metal>
0.0000

> <Gold.Chemscore.Hbonds>
donor molecule, donor type, donor heavy atom, donor atom, acceptor molecule, acceptor atom, score
      P1  H  7997  8009       L1     8  1.00

> <Gold.PLP.Chemscore.Internal.Correction>
0.0580

> <Gold.Rescore>
     Score         DG    S(hbond)    S(metal)    S(lipo)     H(rot)  DE(clash)    DE(int)     intcor
     19.09     -20.27       1.81        0.00     120.48       2.08       0.17       1.01       ----

> <Gold.Chemscore.Fitness>
19.0909

> <Gold.Chemscore.DG>
-20.2715

> <Gold.Chemscore.ZeroCoef>
-5.4800

> <Gold.Chemscore.Hbond>
1.8054

> <Gold.Chemscore.Metal>
0.0000

> <Gold.Chemscore.Lipo>
120.4818

> <Gold.Chemscore.Internal_Hbond>
0.0000

> <Gold.Chemscore.DEClash>
0.1734

> <Gold.Chemscore.DEInternal>
1.0073

> <Gold.Chemscore.Rot>
2.0840

> <Gold.Chemscore.Internal.Correction>
   9.000000E+99

> <Gold.Chemscore.Hbonds>
donor molecule, donor type, donor heavy atom, donor atom, acceptor molecule, acceptor atom, score
      P1  H  7989  7998       L1    16  0.01
      P1  H  7997  8009       L1     8  0.95

> <Gold.Chemscore.Hbond.Weighted>
-6.0301

> <Gold.Chemscore.Metal.Weighted>
-0.0000

> <Gold.Chemscore.Lipo.Weighted>
-14.0964

> <Gold.Chemscore.Internal_Hbond.Weighted>
0.0000

> <Gold.Chemscore.DEClash.Weighted>
0.1734

> <Gold.Chemscore.DEInternal.Weighted>
1.0073

> <Gold.Chemscore.Rot.Weighted>
5.3350

> <Gold.Chemscore.Internal.Correction.Weighted>
   9.000000E+99

> <Gold.Protein.RotatedTorsions>
[ 6907 6896 6895 6894 ] final   45.82 input  -60.11 | X-H torsion
[ 7974 7965 7964 7962 ] final  124.97 input  175.53 | X-H torsion
[ 8008 7997 7996 7995 ] final   99.48 input   59.86 | X-H torsion
[ 10167 10162 10161 10158 ] final  -50.97 input  -65.29 | X-H torsion
[ 10718 10713 10712 10709 ] final  -17.39 input   66.30 | X-H torsion
[ 10763 10752 10751 10750 ] final  171.73 input  -60.55 | X-H torsion
[ 11005 11000 10999 10996 ] final  138.57 input  -57.11 | X-H torsion

> <Gold.Protein.ActiveResidues>
 VAL166  LYS551  ARG553  GLY616  TRP617  ASP618  TYR619  PRO620  LYS621  CYS622 
 ASP623  PHE694  ASN695  SER759  ASP760  ASP761  ALA762  ILE779  LEU786  VAL792 
 PHE793  MET794  SER795  GLU796  ALA797  LYS798  CYS799  TRP800  GLU811  SER814 

> <Gold.Protein.RotatedAtoms>
  152.2490  134.8151  160.0448 H   0  0  0  0  0  0  0  0  0  0  0  0  # atno 6907 bound_to 6896
  151.8838  133.3496  159.3783 H   0  0  0  0  0  0  0  0  0  0  0  0  # atno 6908 bound_to 6896
  150.7078  134.4918  159.5563 H   0  0  0  0  0  0  0  0  0  0  0  0  # atno 6909 bound_to 6896
  145.0783  139.3677  143.4922 H   0  0  0  0  0  0  0  0  0  0  0  0  # atno 7974 bound_to 7965
  156.1109  140.3228  155.8071 H   0  0  0  0  0  0  0  0  0  0  0  0  # atno 8008 bound_to 7997
  155.4674  140.0544  157.3001 H   0  0  0  0  0  0  0  0  0  0  0  0  # atno 8009 bound_to 7997
  154.4759  140.2032  155.9893 H   0  0  0  0  0  0  0  0  0  0  0  0  # atno 8010 bound_to 7997
  140.6611  143.2637  151.4437 H   0  0  0  0  0  0  0  0  0  0  0  0  # atno 10167 bound_to 10162
  156.5742  130.4757  149.6349 H   0  0  0  0  0  0  0  0  0  0  0  0  # atno 10718 bound_to 10713
  154.4161  135.2757  155.2006 H   0  0  0  0  0  0  0  0  0  0  0  0  # atno 10763 bound_to 10752
  154.3971  135.6053  153.5879 H   0  0  0  0  0  0  0  0  0  0  0  0  # atno 10764 bound_to 10752
  152.9832  135.5917  154.4450 H   0  0  0  0  0  0  0  0  0  0  0  0  # atno 10765 bound_to 10752
  140.0193  134.9404  157.0440 H   0  0  0  0  0  0  0  0  0  0  0  0  # atno 11005 bound_to 11000
  146.3530  140.0561  142.8632 LP  0  0  0  0  0  0  0  0  0  0  0  0  # atno 17320 bound_to 7965
  145.1209  140.9462  143.4601 LP  0  0  0  0  0  0  0  0  0  0  0  0  # atno 17321 bound_to 7965
  139.5846  144.1634  152.2012 LP  0  0  0  0  0  0  0  0  0  0  0  0  # atno 17342 bound_to 10162
  140.0970  144.5572  150.7015 LP  0  0  0  0  0  0  0  0  0  0  0  0  # atno 17343 bound_to 10162
  156.2688  130.7005  151.1796 LP  0  0  0  0  0  0  0  0  0  0  0  0  # atno 17370 bound_to 10713
  157.7341  131.0584  150.5540 LP  0  0  0  0  0  0  0  0  0  0  0  0  # atno 17371 bound_to 10713
  140.4416  134.1675  155.7174 LP  0  0  0  0  0  0  0  0  0  0  0  0  # atno 17394 bound_to 11000
  141.1763  133.8507  157.1409 LP  0  0  0  0  0  0  0  0  0  0  0  0  # atno 17395 bound_to 11000

$$$$
