AV-unprocessed.smi:1550|AV-procd|sdf|6225|dock6
  -GOLD-   22720 6403D 1   1.00000     0.00000
 Structure written by MMmdl.
 43 44  0  0  0  0  0  0  0  0  1 V2000
  151.2060  138.3887  156.2700 C   0  0  0  0  0  0  0  0  0  0  0  0
  151.0706  138.7466  157.7575 C   0  0  1  0  0  0  0  0  0  0  0  0
  150.2699  139.9220  157.8445 O   0  0  0  0  0  0  0  0  0  0  0  0
  150.8351  141.0931  157.2657 C   0  0  0  0  0  0  0  0  0  0  0  0
  151.0579  142.1292  158.3748 C   0  0  2  0  0  0  0  0  0  0  0  0
  151.5145  143.4892  157.8113 C   0  0  0  0  0  0  0  0  0  0  0  0
  151.8115  144.4721  158.9498 C   0  0  0  0  0  0  0  0  0  0  0  0
  152.7996  143.8387  159.9350 C   0  0  0  0  0  0  0  0  0  0  0  0
  152.2944  142.4589  160.3850 C   0  0  0  0  0  0  0  0  0  0  0  0
  152.0695  141.6309  159.2483 O   0  0  0  0  0  0  0  0  0  0  0  0
  150.4239  137.6005  158.5523 C   0  0  0  0  0  0  0  0  0  0  0  0
  151.0380  137.0916  159.4898 O   0  0  0  0  0  0  0  0  0  0  0  0
  149.1906  137.2389  158.1467 N   0  0  0  0  0  0  0  0  0  0  0  0
  148.3602  136.2160  158.6335 C   0  0  0  0  0  0  0  0  0  0  0  0
  147.9906  136.0720  159.9330 C   0  0  0  0  0  0  0  0  0  0  0  0
  147.1378  134.9821  160.3761 C   0  0  0  0  0  0  0  0  0  0  0  0
  146.6637  134.8798  161.8175 C   0  0  0  0  0  0  0  0  0  0  0  0
  145.3321  134.8988  161.8927 F   0  0  0  0  0  0  0  0  0  0  0  0
  147.0938  133.7390  162.3550 F   0  0  0  0  0  0  0  0  0  0  0  0
  147.1389  135.8878  162.5492 F   0  0  0  0  0  0  0  0  0  0  0  0
  146.7235  134.1208  159.4284 C   0  0  0  0  0  0  0  0  0  0  0  0
  147.1191  134.2474  158.0949 N   0  0  0  0  0  0  0  0  0  0  0  0
  147.9147  135.2361  157.6290 C   0  0  0  0  0  0  0  0  0  0  0  0
  148.2210  135.2775  156.4379 O   0  0  0  0  0  0  0  0  0  0  0  0
  146.7813  133.5497  157.4475 H   0  0  0  0  0  0  0  0  0  0  0  0
  151.7950  137.4813  156.1326 H   0  0  0  0  0  0  0  0  0  0  0  0
  151.7046  139.1902  155.7244 H   0  0  0  0  0  0  0  0  0  0  0  0
  150.2325  138.2314  155.8037 H   0  0  0  0  0  0  0  0  0  0  0  0
  152.0673  138.9574  158.1505 H   0  0  0  0  0  0  0  0  0  0  0  0
  151.7753  140.8844  156.7537 H   0  0  0  0  0  0  0  0  0  0  0  0
  150.1399  141.4895  156.5241 H   0  0  0  0  0  0  0  0  0  0  0  0
  150.1260  142.2621  158.9277 H   0  0  0  0  0  0  0  0  0  0  0  0
  152.4099  143.3540  157.2029 H   0  0  0  0  0  0  0  0  0  0  0  0
  150.7492  143.9034  157.1542 H   0  0  0  0  0  0  0  0  0  0  0  0
  152.2132  145.4052  158.5539 H   0  0  0  0  0  0  0  0  0  0  0  0
  150.8859  144.7237  159.4690 H   0  0  0  0  0  0  0  0  0  0  0  0
  153.7746  143.7307  159.4581 H   0  0  0  0  0  0  0  0  0  0  0  0
  152.9423  144.4892  160.7982 H   0  0  0  0  0  0  0  0  0  0  0  0
  153.0335  141.9813  161.0284 H   0  0  0  0  0  0  0  0  0  0  0  0
  151.3769  142.5508  160.9684 H   0  0  0  0  0  0  0  0  0  0  0  0
  148.7805  137.7996  157.4135 H   0  0  0  0  0  0  0  0  0  0  0  0
  148.3413  136.7566  160.6881 H   0  0  0  0  0  0  0  0  0  0  0  0
  146.0645  133.2849  159.6117 H   0  0  0  0  0  0  0  0  0  0  0  0
  1  2  1  0  0  0  0
  1 26  1  0  0  0  0
  1 27  1  0  0  0  0
  1 28  1  0  0  0  0
  2  3  1  0  0  0  0
  2 11  1  0  0  0  0
  2 29  1  0  0  0  0
  3  4  1  0  0  0  0
  4  5  1  0  0  0  0
  4 30  1  0  0  0  0
  4 31  1  0  0  0  0
  5 10  1  0  0  0  0
  5  6  1  0  0  0  0
  5 32  1  0  0  0  0
  6  7  1  0  0  0  0
  6 33  1  0  0  0  0
  6 34  1  0  0  0  0
  7  8  1  0  0  0  0
  7 35  1  0  0  0  0
  7 36  1  0  0  0  0
  8  9  1  0  0  0  0
  8 37  1  0  0  0  0
  8 38  1  0  0  0  0
  9 10  1  0  0  0  0
  9 39  1  0  0  0  0
  9 40  1  0  0  0  0
 11 12  2  0  0  0  0
 11 13  1  0  0  0  0
 13 14  1  0  0  0  0
 13 41  1  0  0  0  0
 14 23  1  0  0  0  0
 14 15  2  0  0  0  0
 15 16  1  0  0  0  0
 15 42  1  0  0  0  0
 16 17  1  0  0  0  0
 16 21  2  0  0  0  0
 17 18  1  0  0  0  0
 17 19  1  0  0  0  0
 17 20  1  0  0  0  0
 21 22  1  0  0  0  0
 21 43  1  0  0  0  0
 22 25  1  0  0  0  0
 22 23  1  0  0  0  0
 23 24  2  0  0  0  0
M  END
> <s_m_source_file>
AV-unprocessed.smi

> <i_m_source_file_index>
1550

> <i_lp_mmshare_version>
43012

> <i_f3d_flags>
0

> <s_epik_input>
TzFbQ0gyXVtDSDJdW0NIMl1bQ0gyXVtDQEhdMVtDSDJdT1tDQEBIXShbQ0gzXSlDKD1PKVtOSF1jMltjSF1jKEMoRikoRilGKVtjSF1bbkhdYzI9Tw==

> <s_epik_cmdline>
J2VwaWtfcHl0aG9uJywgJy1waCcsICc3LjAnLCAnLXRuJywgJzgnLCAnLW1hJywgJzIwMCcsICctbWV0YWxfYmluZGluZycsICctaW1hZScsICc8aW5maWxlLm1hZT4nLCAnLW9tYWUnLCAnPG91dGZpbGUubWFlPic=

> <r_lp_tautomer_probability>
0.999

> <r_epik_Ionization_Penalty>
0.00891333

> <r_epik_Ionization_Penalty_Charging>
0.00891323

> <r_epik_Ionization_Penalty_Neutral>
1.00146e-07

> <r_epik_State_Penalty>
0.00674197

> <r_epik_Charging_Adjusted_Penalty>
0.0156552

> <i_epik_Tot_Q>
0

> <i_epik_Tot_abs_Q>
0

> <r_epik_Metal_State_Penalty>
0.321024

> <b_epik_Metal_Only>
0

> <s_lp_Force_Field>
OPLS_2005

> <r_lp_Energy>
24.7831

> <b_lp_Chiralities_Consistent>
1

> <s_lp_Variant>
AV-unprocessed.smi:1550-2

> <Gold.Version>
5.8.1

> <Gold.Id.Protein>
6NUR|6NUR_protein|mol2

> <Gold.PLP.Fitness>
44.7080

> <Gold.PLP.PLP>
-43.5000

> <Gold.PLP.part.hbond>
-1.0000

> <Gold.PLP.part.metal>
0.0000

> <Gold.PLP.part.buried>
-6.8133

> <Gold.PLP.part.nonpolar>
-36.4043

> <Gold.PLP.part.repulsive>
0.1497

> <Gold.PLP.ligand.clash>
0.0000

> <Gold.PLP.ligand.torsion>
0.9470

> <Gold.PLP.Chemscore.Hbond>
1.0000

> <Gold.PLP.Chemscore.CHOScore>
0.0000

> <Gold.PLP.Chemscore.Metal>
0.0000

> <Gold.Chemscore.Hbonds>
donor molecule, donor type, donor heavy atom, donor atom, acceptor molecule, acceptor atom, score
      P1  H  6896  6908       L1    12  1.00

> <Gold.PLP.Chemscore.Internal.Correction>
0.1020

> <Gold.Rescore>
     Score         DG    S(hbond)    S(metal)    S(lipo)     H(rot)  DE(clash)    DE(int)     intcor
     14.63     -15.64       1.00        0.00      98.99       1.86       0.07       0.94       ----

> <Gold.Chemscore.Fitness>
14.6321

> <Gold.Chemscore.DG>
-15.6418

> <Gold.Chemscore.ZeroCoef>
-5.4800

> <Gold.Chemscore.Hbond>
0.9982

> <Gold.Chemscore.Metal>
0.0000

> <Gold.Chemscore.Lipo>
98.9903

> <Gold.Chemscore.Internal_Hbond>
0.0000

> <Gold.Chemscore.DEClash>
0.0655

> <Gold.Chemscore.DEInternal>
0.9441

> <Gold.Chemscore.Rot>
1.8571

> <Gold.Chemscore.Internal.Correction>
   9.000000E+99

> <Gold.Chemscore.Hbonds>
donor molecule, donor type, donor heavy atom, donor atom, acceptor molecule, acceptor atom, score
      P1  H  6896  6908       L1    12  0.94

> <Gold.Chemscore.Hbond.Weighted>
-3.3340

> <Gold.Chemscore.Metal.Weighted>
-0.0000

> <Gold.Chemscore.Lipo.Weighted>
-11.5819

> <Gold.Chemscore.Internal_Hbond.Weighted>
0.0000

> <Gold.Chemscore.DEClash.Weighted>
0.0655

> <Gold.Chemscore.DEInternal.Weighted>
0.9441

> <Gold.Chemscore.Rot.Weighted>
4.7541

> <Gold.Chemscore.Internal.Correction.Weighted>
   9.000000E+99

> <Gold.Protein.RotatedTorsions>
[ 6907 6896 6895 6894 ] final -126.80 input  -60.11 | X-H torsion
[ 7974 7965 7964 7962 ] final   16.41 input  175.53 | X-H torsion
[ 8008 7997 7996 7995 ] final  -44.15 input   59.86 | X-H torsion
[ 10167 10162 10161 10158 ] final  118.93 input  -65.29 | X-H torsion
[ 10718 10713 10712 10709 ] final   80.66 input   66.30 | X-H torsion
[ 10763 10752 10751 10750 ] final  122.06 input  -60.55 | X-H torsion
[ 11005 11000 10999 10996 ] final -146.06 input  -57.11 | X-H torsion

> <Gold.Protein.ActiveResidues>
 VAL166  LYS551  ARG553  GLY616  TRP617  ASP618  TYR619  PRO620  LYS621  CYS622 
 ASP623  PHE694  ASN695  SER759  ASP760  ASP761  ALA762  ILE779  LEU786  VAL792 
 PHE793  MET794  SER795  GLU796  ALA797  LYS798  CYS799  TRP800  GLU811  SER814 

> <Gold.Protein.RotatedAtoms>
  150.9007  133.7122  159.2879 H   0  0  0  0  0  0  0  0  0  0  0  0  # atno 6907 bound_to 6896
  151.4642  135.1039  159.9743 H   0  0  0  0  0  0  0  0  0  0  0  0  # atno 6908 bound_to 6896
  152.4875  133.8363  159.7184 H   0  0  0  0  0  0  0  0  0  0  0  0  # atno 6909 bound_to 6896
  146.2250  139.8752  142.8580 H   0  0  0  0  0  0  0  0  0  0  0  0  # atno 7974 bound_to 7965
  154.3997  140.1429  156.3636 H   0  0  0  0  0  0  0  0  0  0  0  0  # atno 8008 bound_to 7997
  155.8158  140.3471  155.5464 H   0  0  0  0  0  0  0  0  0  0  0  0  # atno 8009 bound_to 7997
  155.8339  140.0916  157.1766 H   0  0  0  0  0  0  0  0  0  0  0  0  # atno 8010 bound_to 7997
  139.6079  144.7074  151.2911 H   0  0  0  0  0  0  0  0  0  0  0  0  # atno 10167 bound_to 10162
  157.6812  130.9969  150.2112 H   0  0  0  0  0  0  0  0  0  0  0  0  # atno 10718 bound_to 10713
  153.6239  135.3408  155.3020 H   0  0  0  0  0  0  0  0  0  0  0  0  # atno 10763 bound_to 10752
  154.8594  135.4279  154.2178 H   0  0  0  0  0  0  0  0  0  0  0  0  # atno 10764 bound_to 10752
  153.3057  135.7028  153.7234 H   0  0  0  0  0  0  0  0  0  0  0  0  # atno 10765 bound_to 10752
  140.7859  134.3025  157.5030 H   0  0  0  0  0  0  0  0  0  0  0  0  # atno 11005 bound_to 11000
  145.2567  141.0063  143.3850 LP  0  0  0  0  0  0  0  0  0  0  0  0  # atno 17320 bound_to 7965
  144.9331  139.4276  143.6485 LP  0  0  0  0  0  0  0  0  0  0  0  0  # atno 17321 bound_to 7965
  140.7298  143.6898  150.7932 LP  0  0  0  0  0  0  0  0  0  0  0  0  # atno 17342 bound_to 10162
  140.0487  143.5272  152.2684 LP  0  0  0  0  0  0  0  0  0  0  0  0  # atno 17343 bound_to 10162
  156.2783  130.3730  149.7961 LP  0  0  0  0  0  0  0  0  0  0  0  0  # atno 17370 bound_to 10713
  156.5657  130.8403  151.3342 LP  0  0  0  0  0  0  0  0  0  0  0  0  # atno 17371 bound_to 10713
  139.8737  134.9346  156.3611 LP  0  0  0  0  0  0  0  0  0  0  0  0  # atno 17394 bound_to 11000
  140.9437  133.7497  156.0180 LP  0  0  0  0  0  0  0  0  0  0  0  0  # atno 17395 bound_to 11000

$$$$
