AV-unprocessed.smi:1601|AV-procd|sdf|6432|dock2
  -GOLD-   22720 7 73D 1   1.00000     0.00000
 Structure written by MMmdl.
 41 42  0  0  0  0  0  0  0  0  1 V2000
  149.7480  134.7755  156.1085 C   0  0  0  0  0  0  0  0  0  0  0  0
  149.1771  135.7644  155.0602 C   0  0  1  0  0  0  0  0  0  0  0  0
  147.6262  135.6289  155.0412 C   0  0  0  0  0  0  0  0  0  0  0  0
  147.0642  135.6211  153.6934 N   0  0  0  0  0  0  0  0  0  0  0  0
  145.8123  135.2478  153.3832 C   0  0  0  0  0  0  0  0  0  0  0  0
  145.0020  134.8579  154.2251 O   0  0  0  0  0  0  0  0  0  0  0  0
  145.4211  135.3451  151.8991 C   0  0  2  0  0  0  0  0  0  0  0  0
  144.2790  136.3494  151.6438 C   0  0  0  0  0  0  0  0  0  0  0  0
  145.1169  134.0251  151.3584 N   0  0  0  0  0  0  0  0  0  0  0  0
  143.9878  133.6293  150.6703 C   0  0  0  0  0  0  0  0  0  0  0  0
  144.1495  132.3151  150.3372 C   0  0  0  0  0  0  0  0  0  0  0  0
  145.4311  131.9890  150.8606 C   0  0  0  0  0  0  0  0  0  0  0  0
  146.0092  133.0130  151.4662 N   0  0  0  0  0  0  0  0  0  0  0  0
  149.6452  137.1551  155.2665 N   0  0  0  0  0  0  0  0  0  0  0  0
  151.0855  137.3017  155.0232 C   0  0  0  0  0  0  0  0  0  0  0  0
  151.5801  138.7484  155.1925 C   0  0  0  0  0  0  0  0  0  0  0  0
  150.8515  139.6067  154.3263 O   0  0  0  0  0  0  0  0  0  0  0  0
  149.4550  139.5595  154.5822 C   0  0  0  0  0  0  0  0  0  0  0  0
  148.9430  138.1190  154.4107 C   0  0  0  0  0  0  0  0  0  0  0  0
  149.3649  133.7643  155.9770 H   0  0  0  0  0  0  0  0  0  0  0  0
  149.5000  135.0894  157.1228 H   0  0  0  0  0  0  0  0  0  0  0  0
  150.8305  134.6781  156.0399 H   0  0  0  0  0  0  0  0  0  0  0  0
  149.5405  135.4358  154.0853 H   0  0  0  0  0  0  0  0  0  0  0  0
  147.3284  134.7052  155.5386 H   0  0  0  0  0  0  0  0  0  0  0  0
  147.1337  136.4384  155.5778 H   0  0  0  0  0  0  0  0  0  0  0  0
  147.6691  135.9260  152.9449 H   0  0  0  0  0  0  0  0  0  0  0  0
  146.2978  135.7162  151.3659 H   0  0  0  0  0  0  0  0  0  0  0  0
  144.5419  137.3439  152.0058 H   0  0  0  0  0  0  0  0  0  0  0  0
  143.3532  136.0518  152.1380 H   0  0  0  0  0  0  0  0  0  0  0  0
  144.0703  136.4367  150.5773 H   0  0  0  0  0  0  0  0  0  0  0  0
  143.1704  134.3085  150.4773 H   0  0  0  0  0  0  0  0  0  0  0  0
  143.4592  131.6831  149.7985 H   0  0  0  0  0  0  0  0  0  0  0  0
  145.9556  131.0460  150.8167 H   0  0  0  0  0  0  0  0  0  0  0  0
  151.6562  136.6878  155.7175 H   0  0  0  0  0  0  0  0  0  0  0  0
  151.3279  136.9533  154.0180 H   0  0  0  0  0  0  0  0  0  0  0  0
  151.4667  139.0780  156.2263 H   0  0  0  0  0  0  0  0  0  0  0  0
  152.6406  138.8161  154.9497 H   0  0  0  0  0  0  0  0  0  0  0  0
  149.2486  139.9255  155.5891 H   0  0  0  0  0  0  0  0  0  0  0  0
  148.9442  140.2272  153.8884 H   0  0  0  0  0  0  0  0  0  0  0  0
  149.0382  137.8231  153.3648 H   0  0  0  0  0  0  0  0  0  0  0  0
  147.8799  138.1364  154.6405 H   0  0  0  0  0  0  0  0  0  0  0  0
  1  2  1  0  0  0  0
  1 20  1  0  0  0  0
  1 21  1  0  0  0  0
  1 22  1  0  0  0  0
  2  3  1  0  0  0  0
  2 14  1  0  0  0  0
  2 23  1  0  0  0  0
  3  4  1  0  0  0  0
  3 24  1  0  0  0  0
  3 25  1  0  0  0  0
  4  5  1  0  0  0  0
  4 26  1  0  0  0  0
  5  6  2  0  0  0  0
  5  7  1  0  0  0  0
  7  8  1  0  0  0  0
  7  9  1  0  0  0  0
  7 27  1  0  0  0  0
  8 28  1  0  0  0  0
  8 29  1  0  0  0  0
  8 30  1  0  0  0  0
  9 13  1  0  0  0  0
  9 10  1  0  0  0  0
 10 11  2  0  0  0  0
 10 31  1  0  0  0  0
 11 12  1  0  0  0  0
 11 32  1  0  0  0  0
 12 13  2  0  0  0  0
 12 33  1  0  0  0  0
 14 19  1  0  0  0  0
 14 15  1  0  0  0  0
 15 16  1  0  0  0  0
 15 34  1  0  0  0  0
 15 35  1  0  0  0  0
 16 17  1  0  0  0  0
 16 36  1  0  0  0  0
 16 37  1  0  0  0  0
 17 18  1  0  0  0  0
 18 19  1  0  0  0  0
 18 38  1  0  0  0  0
 18 39  1  0  0  0  0
 19 40  1  0  0  0  0
 19 41  1  0  0  0  0
M  END
> <s_m_source_file>
AV-unprocessed.smi

> <i_m_source_file_index>
1601

> <i_lp_mmshare_version>
43012

> <i_f3d_flags>
0

> <s_epik_input>
W0NIMl0xW0NIMl1PW0NIMl1bQ0gyXU4xW0NASF0oW0NIM10pW0NIMl1bTkhdQyg9TylbQ0BIXShbQ0gzXSluMltjSF1bY0hdW2NIXW4y

> <s_epik_cmdline>
J2VwaWtfcHl0aG9uJywgJy1waCcsICc3LjAnLCAnLXRuJywgJzgnLCAnLW1hJywgJzIwMCcsICctbWV0YWxfYmluZGluZycsICctaW1hZScsICc8aW5maWxlLm1hZT4nLCAnLW9tYWUnLCAnPG91dGZpbGUubWFlPic=

> <r_lp_tautomer_probability>
1

> <r_epik_Ionization_Penalty>
0.203323

> <r_epik_Ionization_Penalty_Charging>
0

> <r_epik_Ionization_Penalty_Neutral>
0.203323

> <r_epik_State_Penalty>
0.193192

> <r_epik_Charging_Adjusted_Penalty>
0.193192

> <i_epik_Tot_Q>
0

> <i_epik_Tot_abs_Q>
0

> <r_epik_Metal_State_Penalty>
0.193187

> <b_epik_Metal_Only>
0

> <s_lp_Force_Field>
OPLS_2005

> <r_lp_Energy>
32.6682

> <b_lp_Chiralities_Consistent>
1

> <s_lp_Variant>
AV-unprocessed.smi:1601-2

> <Gold.Version>
5.8.1

> <Gold.Id.Protein>
6NUR|6NUR_protein|mol2

> <Gold.PLP.Fitness>
39.4023

> <Gold.PLP.PLP>
-28.9156

> <Gold.PLP.part.hbond>
-1.9226

> <Gold.PLP.part.metal>
0.0000

> <Gold.PLP.part.buried>
-3.4104

> <Gold.PLP.part.nonpolar>
-24.9583

> <Gold.PLP.part.repulsive>
0.5166

> <Gold.PLP.ligand.clash>
0.0000

> <Gold.PLP.ligand.torsion>
0.8235

> <Gold.PLP.Chemscore.Hbond>
2.0000

> <Gold.PLP.Chemscore.CHOScore>
2.0000

> <Gold.PLP.Chemscore.Metal>
0.0000

> <Gold.Chemscore.Hbonds>
donor molecule, donor type, donor heavy atom, donor atom, acceptor molecule, acceptor atom, score
      L1  H     4    26       P1  7948  1.00
      P1  H  7989  7998       L1    17  1.00
      L1  C    10    31       P1 10186  1.00

> <Gold.PLP.Chemscore.Internal.Correction>
0.1337

> <Gold.Rescore>
     Score         DG    S(hbond)    S(metal)    S(lipo)     H(rot)  DE(clash)    DE(int)     intcor
     14.81     -15.58       1.96        0.00      69.42       1.79       0.10       0.67       ----

> <Gold.Chemscore.Fitness>
14.8113

> <Gold.Chemscore.DG>
-15.5811

> <Gold.Chemscore.ZeroCoef>
-5.4800

> <Gold.Chemscore.Hbond>
1.9625

> <Gold.Chemscore.Metal>
0.0000

> <Gold.Chemscore.Lipo>
69.4159

> <Gold.Chemscore.Internal_Hbond>
0.0000

> <Gold.Chemscore.DEClash>
0.1012

> <Gold.Chemscore.DEInternal>
0.6686

> <Gold.Chemscore.Rot>
1.7872

> <Gold.Chemscore.Internal.Correction>
   9.000000E+99

> <Gold.Chemscore.Hbonds>
donor molecule, donor type, donor heavy atom, donor atom, acceptor molecule, acceptor atom, score
      L1  H     4    26       P1  7948  1.00
      P1  H  7989  7998       L1    17  0.98

> <Gold.Chemscore.Hbond.Weighted>
-6.5547

> <Gold.Chemscore.Metal.Weighted>
-0.0000

> <Gold.Chemscore.Lipo.Weighted>
-8.1217

> <Gold.Chemscore.Internal_Hbond.Weighted>
0.0000

> <Gold.Chemscore.DEClash.Weighted>
0.1012

> <Gold.Chemscore.DEInternal.Weighted>
0.6686

> <Gold.Chemscore.Rot.Weighted>
4.5752

> <Gold.Chemscore.Internal.Correction.Weighted>
   9.000000E+99

> <Gold.Protein.RotatedTorsions>
[ 6907 6896 6895 6894 ] final -100.07 input  -60.11 | X-H torsion
[ 7974 7965 7964 7962 ] final   25.45 input  175.53 | X-H torsion
[ 8008 7997 7996 7995 ] final   64.85 input   59.86 | X-H torsion
[ 10167 10162 10161 10158 ] final  108.03 input  -65.29 | X-H torsion
[ 10718 10713 10712 10709 ] final   42.23 input   66.30 | X-H torsion
[ 10763 10752 10751 10750 ] final -129.79 input  -60.55 | X-H torsion
[ 11005 11000 10999 10996 ] final -167.99 input  -57.11 | X-H torsion

> <Gold.Protein.ActiveResidues>
 VAL166  LYS551  ARG553  GLY616  TRP617  ASP618  TYR619  PRO620  LYS621  CYS622 
 ASP623  PHE694  ASN695  SER759  ASP760  ASP761  ALA762  ILE779  LEU786  VAL792 
 PHE793  MET794  SER795  GLU796  ALA797  LYS798  CYS799  TRP800  GLU811  SER814 

> <Gold.Protein.RotatedAtoms>
  150.7102  134.0943  159.3942 H   0  0  0  0  0  0  0  0  0  0  0  0  # atno 6907 bound_to 6896
  151.8929  135.0407  160.0509 H   0  0  0  0  0  0  0  0  0  0  0  0  # atno 6908 bound_to 6896
  152.2477  133.5153  159.5343 H   0  0  0  0  0  0  0  0  0  0  0  0  # atno 6909 bound_to 6896
  146.1888  139.7464  142.8847 H   0  0  0  0  0  0  0  0  0  0  0  0  # atno 7974 bound_to 7965
  155.6525  140.3497  155.4753 H   0  0  0  0  0  0  0  0  0  0  0  0  # atno 8008 bound_to 7997
  155.9836  140.1179  157.0727 H   0  0  0  0  0  0  0  0  0  0  0  0  # atno 8009 bound_to 7997
  154.4198  140.1133  156.5455 H   0  0  0  0  0  0  0  0  0  0  0  0  # atno 8010 bound_to 7997
  139.6879  144.7111  151.1400 H   0  0  0  0  0  0  0  0  0  0  0  0  # atno 10167 bound_to 10162
  157.4025  130.7868  149.7361 H   0  0  0  0  0  0  0  0  0  0  0  0  # atno 10718 bound_to 10713
  154.8757  135.3884  154.3977 H   0  0  0  0  0  0  0  0  0  0  0  0  # atno 10763 bound_to 10752
  153.4705  135.7030  153.6001 H   0  0  0  0  0  0  0  0  0  0  0  0  # atno 10764 bound_to 10752
  153.4461  135.3845  155.2224 H   0  0  0  0  0  0  0  0  0  0  0  0  # atno 10765 bound_to 10752
  140.5470  134.5466  157.5113 H   0  0  0  0  0  0  0  0  0  0  0  0  # atno 11005 bound_to 11000
  145.3858  141.0365  143.3152 LP  0  0  0  0  0  0  0  0  0  0  0  0  # atno 17320 bound_to 7965
  144.8446  139.5417  143.6884 LP  0  0  0  0  0  0  0  0  0  0  0  0  # atno 17321 bound_to 7965
  140.7673  143.5602  150.9107 LP  0  0  0  0  0  0  0  0  0  0  0  0  # atno 17342 bound_to 10162
  139.9278  143.6529  152.3083 LP  0  0  0  0  0  0  0  0  0  0  0  0  # atno 17343 bound_to 10162
  155.9827  130.4007  150.3402 LP  0  0  0  0  0  0  0  0  0  0  0  0  # atno 17370 bound_to 10713
  157.1531  131.0326  151.2876 LP  0  0  0  0  0  0  0  0  0  0  0  0  # atno 17371 bound_to 10713
  139.9474  134.7677  156.0528 LP  0  0  0  0  0  0  0  0  0  0  0  0  # atno 17394 bound_to 11000
  141.1194  133.6617  156.3176 LP  0  0  0  0  0  0  0  0  0  0  0  0  # atno 17395 bound_to 11000

$$$$
