AV-unprocessed.smi:227|AV-procd|sdf|1740|dock4
  -GOLD-   2262020243D 1   1.00000     0.00000
 Structure written by MMmdl.
 54 58  0  0  0  0  0  0  0  0  1 V2000
  150.9474  135.8262  154.2882 O   0  0  0  0  0  0  0  0  0  0  0  0
  151.0395  137.0911  154.9099 C   0  0  0  0  0  0  0  0  0  0  0  0
  149.8962  137.2945  155.9366 C   0  0  1  0  0  0  0  0  0  0  0  0
  150.2219  136.5644  157.2733 C   0  0  0  0  0  0  0  0  0  0  0  0
  149.1288  136.5564  158.2360 N   0  0  0  0  0  0  0  0  0  0  0  0
  148.4372  137.6475  158.7114 C   0  0  0  0  0  0  0  0  0  0  0  0
  147.4993  137.3788  159.5765 N   0  0  0  0  0  0  0  0  0  0  0  0
  147.5319  135.9952  159.7016 C   0  0  0  0  0  0  0  0  0  0  0  0
  146.8003  135.0460  160.4732 C   0  0  0  0  0  0  0  0  0  0  0  0
  145.8233  135.3826  161.3582 N   0  0  0  0  0  0  0  0  0  0  0  0
  145.2915  136.7355  161.4180 C   0  0  2  0  0  0  0  0  0  0  0  0
  144.4214  136.6856  162.6858 C   0  0  0  0  0  0  0  0  0  0  0  0
  143.8889  135.2441  162.6285 C   0  0  0  0  0  0  0  0  0  0  0  0
  144.5171  134.7403  161.3162 C   0  0  1  0  0  0  0  0  0  0  0  0
  143.7756  135.4073  160.1300 C   0  0  2  0  0  0  0  0  0  0  0  0
  143.9657  134.6884  158.7799 C   0  0  0  0  0  0  0  0  0  0  0  0
  142.8410  133.8845  158.4946 O   0  0  0  0  0  0  0  0  0  0  0  0
  144.3764  136.8270  160.1791 C   0  0  0  0  0  0  0  0  0  0  0  0
  147.1008  133.7327  160.2910 N   0  0  0  0  0  0  0  0  0  0  0  0
  148.0653  133.3691  159.4420 C   0  0  0  0  0  0  0  0  0  0  0  0
  148.8413  134.1426  158.6826 N   0  0  0  0  0  0  0  0  0  0  0  0
  148.5375  135.4618  158.8452 C   0  0  0  0  0  0  0  0  0  0  0  0
  149.5626  138.8082  156.1239 C   0  0  1  0  0  0  0  0  0  0  0  0
  150.6793  139.6355  156.7566 C   0  0  0  0  0  0  0  0  0  0  0  0
  151.5705  140.0149  155.5743 C   0  0  0  0  0  0  0  0  0  0  0  0
  150.7445  139.9260  154.4196 O   0  0  0  0  0  0  0  0  0  0  0  0
  149.4200  139.5969  154.8133 C   0  0  0  0  0  0  0  0  0  0  0  0
  150.8669  135.9550  153.3553 H   0  0  0  0  0  0  0  0  0  0  0  0
  152.0169  137.1965  155.3805 H   0  0  0  0  0  0  0  0  0  0  0  0
  151.0042  137.8241  154.1078 H   0  0  0  0  0  0  0  0  0  0  0  0
  149.0069  136.8133  155.5268 H   0  0  0  0  0  0  0  0  0  0  0  0
  150.5241  135.5339  157.0929 H   0  0  0  0  0  0  0  0  0  0  0  0
  151.0894  137.0204  157.7510 H   0  0  0  0  0  0  0  0  0  0  0  0
  148.6513  138.6592  158.4014 H   0  0  0  0  0  0  0  0  0  0  0  0
  146.0437  137.5241  161.4602 H   0  0  0  0  0  0  0  0  0  0  0  0
  145.0255  136.8360  163.5814 H   0  0  0  0  0  0  0  0  0  0  0  0
  143.6278  137.4337  162.6801 H   0  0  0  0  0  0  0  0  0  0  0  0
  144.2572  134.6678  163.4784 H   0  0  0  0  0  0  0  0  0  0  0  0
  142.7996  135.1903  162.6319 H   0  0  0  0  0  0  0  0  0  0  0  0
  144.5218  133.6528  161.2671 H   0  0  0  0  0  0  0  0  0  0  0  0
  142.7060  135.4396  160.3440 H   0  0  0  0  0  0  0  0  0  0  0  0
  144.1078  135.3925  157.9609 H   0  0  0  0  0  0  0  0  0  0  0  0
  144.8488  134.0497  158.8122 H   0  0  0  0  0  0  0  0  0  0  0  0
  143.1183  132.9819  158.4551 H   0  0  0  0  0  0  0  0  0  0  0  0
  143.6156  137.6024  160.2743 H   0  0  0  0  0  0  0  0  0  0  0  0
  144.9596  137.0441  159.2833 H   0  0  0  0  0  0  0  0  0  0  0  0
  148.2434  132.3068  159.3635 H   0  0  0  0  0  0  0  0  0  0  0  0
  148.6528  138.8964  156.7183 H   0  0  0  0  0  0  0  0  0  0  0  0
  150.2494  140.5433  157.1830 H   0  0  0  0  0  0  0  0  0  0  0  0
  151.2355  139.1508  157.5556 H   0  0  0  0  0  0  0  0  0  0  0  0
  151.9870  141.0164  155.6846 H   0  0  0  0  0  0  0  0  0  0  0  0
  152.3980  139.3128  155.4674 H   0  0  0  0  0  0  0  0  0  0  0  0
  148.8912  139.0808  154.0155 H   0  0  0  0  0  0  0  0  0  0  0  0
  148.8796  140.5264  155.0002 H   0  0  0  0  0  0  0  0  0  0  0  0
  1  2  1  0  0  0  0
  1 28  1  0  0  0  0
  2  3  1  0  0  0  0
  2 29  1  0  0  0  0
  2 30  1  0  0  0  0
  3  4  1  0  0  0  0
  3 23  1  0  0  0  0
  3 31  1  0  0  0  0
  4  5  1  0  0  0  0
  4 32  1  0  0  0  0
  4 33  1  0  0  0  0
  5 22  1  0  0  0  0
  5  6  1  0  0  0  0
  6  7  2  0  0  0  0
  6 34  1  0  0  0  0
  7  8  1  0  0  0  0
  8 22  2  0  0  0  0
  8  9  1  0  0  0  0
  9 10  1  0  0  0  0
  9 19  2  0  0  0  0
 10 14  1  0  0  0  0
 10 11  1  0  0  0  0
 11 18  1  0  0  0  0
 11 12  1  0  0  0  0
 11 35  1  0  0  0  0
 12 13  1  0  0  0  0
 12 36  1  0  0  0  0
 12 37  1  0  0  0  0
 13 14  1  0  0  0  0
 13 38  1  0  0  0  0
 13 39  1  0  0  0  0
 14 15  1  0  0  0  0
 14 40  1  0  0  0  0
 15 16  1  0  0  0  0
 15 18  1  0  0  0  0
 15 41  1  0  0  0  0
 16 17  1  0  0  0  0
 16 42  1  0  0  0  0
 16 43  1  0  0  0  0
 17 44  1  0  0  0  0
 18 45  1  0  0  0  0
 18 46  1  0  0  0  0
 19 20  1  0  0  0  0
 20 21  2  0  0  0  0
 20 47  1  0  0  0  0
 21 22  1  0  0  0  0
 23 27  1  0  0  0  0
 23 24  1  0  0  0  0
 23 48  1  0  0  0  0
 24 25  1  0  0  0  0
 24 49  1  0  0  0  0
 24 50  1  0  0  0  0
 25 26  1  0  0  0  0
 25 51  1  0  0  0  0
 25 52  1  0  0  0  0
 26 27  1  0  0  0  0
 27 53  1  0  0  0  0
 27 54  1  0  0  0  0
M  END
> <s_m_source_file>
AV-unprocessed.smi

> <i_m_source_file_index>
227

> <i_lp_mmshare_version>
43012

> <i_f3d_flags>
0

> <s_epik_input>
W0NIMl0xT1tDSDJdW0NIMl1bQ0BIXTFbQ0BIXShbQ0gyXVtPSF0pW0NIMl1uKFtjSF1uMiljKGMyMyluW2NIXW5jM04oW0NASF00NSlbQ0BASF0oW0NIMl1bQ0gyXTQpW0NASF0oW0NIMl01KVtDSDJdW09IXQ==

> <s_epik_cmdline>
J2VwaWtfcHl0aG9uJywgJy1waCcsICc3LjAnLCAnLXRuJywgJzgnLCAnLW1hJywgJzIwMCcsICctbWV0YWxfYmluZGluZycsICctaW1hZScsICc8aW5maWxlLm1hZT4nLCAnLW9tYWUnLCAnPG91dGZpbGUubWFlPic=

> <r_lp_tautomer_probability>
1

> <r_epik_Ionization_Penalty>
0.0055791

> <r_epik_Ionization_Penalty_Charging>
0

> <r_epik_Ionization_Penalty_Neutral>
0.0055791

> <r_epik_State_Penalty>
0.00401299

> <r_epik_Charging_Adjusted_Penalty>
0.00401299

> <i_epik_Tot_Q>
0

> <i_epik_Tot_abs_Q>
0

> <r_epik_Metal_State_Penalty>
-0

> <b_epik_Metal_Only>
0

> <s_lp_Force_Field>
OPLS_2005

> <r_lp_Energy>
90.2099

> <b_lp_Chiralities_Consistent>
1

> <s_lp_Variant>
AV-unprocessed.smi:227-14

> <Gold.Version>
5.8.1

> <Gold.Id.Protein>
6NUR|6NUR_protein|mol2

> <Gold.PLP.Fitness>
43.9386

> <Gold.PLP.PLP>
-28.5321

> <Gold.PLP.part.hbond>
-6.2297

> <Gold.PLP.part.metal>
0.0000

> <Gold.PLP.part.buried>
-5.8333

> <Gold.PLP.part.nonpolar>
-17.3372

> <Gold.PLP.part.repulsive>
0.0806

> <Gold.PLP.ligand.clash>
0.0000

> <Gold.PLP.ligand.torsion>
1.0761

> <Gold.PLP.Chemscore.Hbond>
5.7912

> <Gold.PLP.Chemscore.CHOScore>
0.0000

> <Gold.PLP.Chemscore.Metal>
0.0000

> <Gold.Chemscore.Hbonds>
donor molecule, donor type, donor heavy atom, donor atom, acceptor molecule, acceptor atom, score
      L1  H     1    28       P1  7949  0.70
      P1  H  6896  6908       L1    21  1.00
      P1  H  6934  6947       L1     7  0.59
      P1  H  7989  7998       L1    26  0.85
      P1  H 10752 10763       L1     1  0.50
      P1  H 11000 11005       L1    17  0.83

> <Gold.PLP.Chemscore.Internal.Correction>
0.1848

> <Gold.Rescore>
     Score         DG    S(hbond)    S(metal)    S(lipo)     H(rot)  DE(clash)    DE(int)     intcor
     10.63     -15.56       4.04        0.00      49.76       3.61       0.01       4.93       ----

> <Gold.Chemscore.Fitness>
10.6277

> <Gold.Chemscore.DG>
-15.5615

> <Gold.Chemscore.ZeroCoef>
-5.4800

> <Gold.Chemscore.Hbond>
4.0399

> <Gold.Chemscore.Metal>
0.0000

> <Gold.Chemscore.Lipo>
49.7634

> <Gold.Chemscore.Internal_Hbond>
0.0000

> <Gold.Chemscore.DEClash>
0.0060

> <Gold.Chemscore.DEInternal>
4.9278

> <Gold.Chemscore.Rot>
3.6071

> <Gold.Chemscore.Internal.Correction>
   9.000000E+99

> <Gold.Chemscore.Hbonds>
donor molecule, donor type, donor heavy atom, donor atom, acceptor molecule, acceptor atom, score
      L1  H     1    28       P1  7949  0.07
      P1  H  6896  6908       L1    21  0.32
      P1  H  6934  6947       L1     7  0.45
      P1  H  7989  7998       L1    26  0.14
      P1  H 10752 10763       L1     1  0.01
      P1  H 11000 11005       L1    17  0.33

> <Gold.Chemscore.Hbond.Weighted>
-13.4934

> <Gold.Chemscore.Metal.Weighted>
-0.0000

> <Gold.Chemscore.Lipo.Weighted>
-5.8223

> <Gold.Chemscore.Internal_Hbond.Weighted>
0.0000

> <Gold.Chemscore.DEClash.Weighted>
0.0060

> <Gold.Chemscore.DEInternal.Weighted>
4.9278

> <Gold.Chemscore.Rot.Weighted>
9.2342

> <Gold.Chemscore.Internal.Correction.Weighted>
   9.000000E+99

> <Gold.Protein.RotatedTorsions>
[ 6907 6896 6895 6894 ] final  131.20 input  -60.11 | X-H torsion
[ 7974 7965 7964 7962 ] final  -23.40 input  175.53 | X-H torsion
[ 8008 7997 7996 7995 ] final -109.23 input   59.86 | X-H torsion
[ 10167 10162 10161 10158 ] final   62.62 input  -65.29 | X-H torsion
[ 10718 10713 10712 10709 ] final   48.86 input   66.30 | X-H torsion
[ 10763 10752 10751 10750 ] final   57.02 input  -60.55 | X-H torsion
[ 11005 11000 10999 10996 ] final -110.00 input  -57.11 | X-H torsion

> <Gold.Protein.ActiveResidues>
 VAL166  LYS551  ARG553  GLY616  TRP617  ASP618  TYR619  PRO620  LYS621  CYS622 
 ASP623  PHE694  ASN695  SER759  ASP760  ASP761  ALA762  ILE779  LEU786  VAL792 
 PHE793  MET794  SER795  GLU796  ALA797  LYS798  CYS799  TRP800  GLU811  SER814 

> <Gold.Protein.RotatedAtoms>
  152.3449  133.6111  159.5902 H   0  0  0  0  0  0  0  0  0  0  0  0  # atno 6907 bound_to 6896
  150.7501  133.9664  159.3540 H   0  0  0  0  0  0  0  0  0  0  0  0  # atno 6908 bound_to 6896
  151.7523  135.0830  160.0384 H   0  0  0  0  0  0  0  0  0  0  0  0  # atno 6909 bound_to 6896
  146.1618  140.4611  142.8568 H   0  0  0  0  0  0  0  0  0  0  0  0  # atno 7974 bound_to 7965
  154.9562  140.0400  157.2168 H   0  0  0  0  0  0  0  0  0  0  0  0  # atno 8008 bound_to 7997
  154.7931  140.2839  155.5954 H   0  0  0  0  0  0  0  0  0  0  0  0  # atno 8009 bound_to 7997
  156.2952  140.2569  156.2783 H   0  0  0  0  0  0  0  0  0  0  0  0  # atno 8010 bound_to 7997
  140.1419  144.4545  150.6806 H   0  0  0  0  0  0  0  0  0  0  0  0  # atno 10167 bound_to 10162
  157.4729  130.8267  149.8008 H   0  0  0  0  0  0  0  0  0  0  0  0  # atno 10718 bound_to 10713
  152.9842  135.5656  154.5323 H   0  0  0  0  0  0  0  0  0  0  0  0  # atno 10763 bound_to 10752
  154.4792  135.2788  155.1585 H   0  0  0  0  0  0  0  0  0  0  0  0  # atno 10764 bound_to 10752
  154.3101  135.6290  153.5515 H   0  0  0  0  0  0  0  0  0  0  0  0  # atno 10765 bound_to 10752
  141.0816  133.9210  157.2276 H   0  0  0  0  0  0  0  0  0  0  0  0  # atno 11005 bound_to 11000
  144.8037  140.6261  143.6461 LP  0  0  0  0  0  0  0  0  0  0  0  0  # atno 17320 bound_to 7965
  145.4568  139.1517  143.3888 LP  0  0  0  0  0  0  0  0  0  0  0  0  # atno 17321 bound_to 7965
  140.6755  143.2303  151.5518 LP  0  0  0  0  0  0  0  0  0  0  0  0  # atno 17342 bound_to 10162
  139.5468  144.2501  152.1456 LP  0  0  0  0  0  0  0  0  0  0  0  0  # atno 17343 bound_to 10162
  156.0082  130.3845  150.2355 LP  0  0  0  0  0  0  0  0  0  0  0  0  # atno 17370 bound_to 10713
  157.0538  131.0070  151.3245 LP  0  0  0  0  0  0  0  0  0  0  0  0  # atno 17371 bound_to 10713
  139.9631  135.0149  156.9313 LP  0  0  0  0  0  0  0  0  0  0  0  0  # atno 17394 bound_to 11000
  140.5455  134.0678  155.7354 LP  0  0  0  0  0  0  0  0  0  0  0  0  # atno 17395 bound_to 11000

$$$$
