AV-unprocessed.smi:34|AV-procd|sdf|228|dock1
  -GOLD-   2262015553D 1   1.00000     0.00000
 Structure written by MMmdl.
 55 59  0  0  0  0  0  0  0  0  1 V2000
  149.1009  133.8728  153.9219 O   0  0  0  0  0  0  0  0  0  0  0  0
  148.1799  133.0928  153.6776 C   0  0  0  0  0  0  0  0  0  0  0  0
  146.8490  133.5547  153.3262 N   0  0  0  0  0  0  0  0  0  0  0  0
  146.4339  134.8246  153.1095 C   0  0  0  0  0  0  0  0  0  0  0  0
  145.5081  135.1399  152.1660 N   0  0  0  0  0  0  0  0  0  0  0  0
  145.1266  136.4090  151.9974 C   0  0  0  0  0  0  0  0  0  0  0  0
  145.5351  137.4951  152.6558 N   0  0  0  0  0  0  0  0  0  0  0  0
  146.4676  137.1901  153.6024 C   0  0  0  0  0  0  0  0  0  0  0  0
  146.9663  135.8876  153.8846 C   0  0  0  0  0  0  0  0  0  0  0  0
  147.9028  135.9532  154.9076 N   0  0  0  0  0  0  0  0  0  0  0  0
  147.9493  137.2224  155.2103 C   0  0  0  0  0  0  0  0  0  0  0  0
  147.1153  138.0383  154.4785 N   0  0  0  0  0  0  0  0  0  0  0  0
  146.9533  139.5174  154.6204 C   0  0  1  0  0  0  0  0  0  0  0  0
  147.6894  139.9470  155.7265 O   0  0  0  0  0  0  0  0  0  0  0  0
  148.3685  141.1744  155.4373 C   0  0  1  0  0  0  0  0  0  0  0  0
  149.8856  140.9436  155.4569 C   0  0  0  0  0  0  0  0  0  0  0  0
  150.3975  141.3095  156.7282 O   0  0  0  0  0  0  0  0  0  0  0  0
  151.6231  140.8998  157.1102 C   0  0  0  0  0  0  0  0  0  0  0  0
  152.2848  140.0587  156.4980 O   0  0  0  0  0  0  0  0  0  0  0  0
  152.0950  141.5680  158.3568 C   0  0  0  0  0  0  0  0  0  0  0  0
  152.9109  140.8492  159.2614 C   0  0  0  0  0  0  0  0  0  0  0  0
  153.3710  141.4531  160.4476 C   0  0  0  0  0  0  0  0  0  0  0  0
  153.0218  142.7834  160.7435 C   0  0  0  0  0  0  0  0  0  0  0  0
  152.2107  143.5094  159.8517 C   0  0  0  0  0  0  0  0  0  0  0  0
  151.7490  142.9069  158.6652 C   0  0  0  0  0  0  0  0  0  0  0  0
  147.8660  141.5893  154.0514 C   0  0  2  0  0  0  0  0  0  0  0  0
  146.7695  142.3339  154.2213 F   0  0  0  0  0  0  0  0  0  0  0  0
  147.5168  140.2566  153.4103 C   0  0  2  0  0  0  0  0  0  0  0  0
  146.5829  140.4397  152.3651 O   0  0  0  0  0  0  0  0  0  0  0  0
  148.3487  131.6064  153.8065 C   0  0  0  0  0  0  0  0  0  0  0  0
  149.5582  131.0722  154.3049 C   0  0  0  0  0  0  0  0  0  0  0  0
  149.7332  129.6782  154.4082 C   0  0  0  0  0  0  0  0  0  0  0  0
  148.7029  128.8066  154.0081 C   0  0  0  0  0  0  0  0  0  0  0  0
  147.4987  129.3295  153.5010 C   0  0  0  0  0  0  0  0  0  0  0  0
  147.3228  130.7231  153.3962 C   0  0  0  0  0  0  0  0  0  0  0  0
  146.1547  132.8349  153.1890 H   0  0  0  0  0  0  0  0  0  0  0  0
  144.3897  136.5788  151.2261 H   0  0  0  0  0  0  0  0  0  0  0  0
  148.5947  137.6017  155.9892 H   0  0  0  0  0  0  0  0  0  0  0  0
  145.8886  139.6889  154.7881 H   0  0  0  0  0  0  0  0  0  0  0  0
  148.1088  141.9271  156.1829 H   0  0  0  0  0  0  0  0  0  0  0  0
  150.1146  139.9061  155.2159 H   0  0  0  0  0  0  0  0  0  0  0  0
  150.3681  141.5596  154.6976 H   0  0  0  0  0  0  0  0  0  0  0  0
  153.1918  139.8263  159.0562 H   0  0  0  0  0  0  0  0  0  0  0  0
  153.9923  140.8939  161.1314 H   0  0  0  0  0  0  0  0  0  0  0  0
  153.3747  143.2461  161.6532 H   0  0  0  0  0  0  0  0  0  0  0  0
  151.9417  144.5305  160.0780 H   0  0  0  0  0  0  0  0  0  0  0  0
  151.1285  143.4924  158.0027 H   0  0  0  0  0  0  0  0  0  0  0  0
  148.5810  142.1795  153.4774 H   0  0  0  0  0  0  0  0  0  0  0  0
  148.4157  139.7547  153.0493 H   0  0  0  0  0  0  0  0  0  0  0  0
  145.7144  140.4454  152.7379 H   0  0  0  0  0  0  0  0  0  0  0  0
  150.3599  131.7274  154.6143 H   0  0  0  0  0  0  0  0  0  0  0  0
  150.6594  129.2774  154.7930 H   0  0  0  0  0  0  0  0  0  0  0  0
  148.8378  127.7378  154.0863 H   0  0  0  0  0  0  0  0  0  0  0  0
  146.7098  128.6616  153.1879 H   0  0  0  0  0  0  0  0  0  0  0  0
  146.3944  131.1015  152.9937 H   0  0  0  0  0  0  0  0  0  0  0  0
  1  2  2  0  0  0  0
  2  3  1  0  0  0  0
  2 30  1  0  0  0  0
  3  4  1  0  0  0  0
  3 36  1  0  0  0  0
  4  9  1  0  0  0  0
  4  5  2  0  0  0  0
  5  6  1  0  0  0  0
  6  7  2  0  0  0  0
  6 37  1  0  0  0  0
  7  8  1  0  0  0  0
  8 12  1  0  0  0  0
  8  9  2  0  0  0  0
  9 10  1  0  0  0  0
 10 11  2  0  0  0  0
 11 12  1  0  0  0  0
 11 38  1  0  0  0  0
 12 13  1  0  0  0  0
 13 28  1  0  0  0  0
 13 14  1  0  0  0  0
 13 39  1  0  0  0  0
 14 15  1  0  0  0  0
 15 16  1  0  0  0  0
 15 26  1  0  0  0  0
 15 40  1  0  0  0  0
 16 17  1  0  0  0  0
 16 41  1  0  0  0  0
 16 42  1  0  0  0  0
 17 18  1  0  0  0  0
 18 19  2  0  0  0  0
 18 20  1  0  0  0  0
 20 25  1  0  0  0  0
 20 21  2  0  0  0  0
 21 22  1  0  0  0  0
 21 43  1  0  0  0  0
 22 23  2  0  0  0  0
 22 44  1  0  0  0  0
 23 24  1  0  0  0  0
 23 45  1  0  0  0  0
 24 25  2  0  0  0  0
 24 46  1  0  0  0  0
 25 47  1  0  0  0  0
 26 27  1  0  0  0  0
 26 28  1  0  0  0  0
 26 48  1  0  0  0  0
 28 29  1  0  0  0  0
 28 49  1  0  0  0  0
 29 50  1  0  0  0  0
 30 35  1  0  0  0  0
 30 31  2  0  0  0  0
 31 32  1  0  0  0  0
 31 51  1  0  0  0  0
 32 33  2  0  0  0  0
 32 52  1  0  0  0  0
 33 34  1  0  0  0  0
 33 53  1  0  0  0  0
 34 35  2  0  0  0  0
 34 54  1  0  0  0  0
 35 55  1  0  0  0  0
M  END
> <s_m_source_file>
AV-unprocessed.smi

> <i_m_source_file_index>
34

> <i_lp_mmshare_version>
43012

> <i_f3d_flags>
0

> <s_epik_input>
W2NIXTFbY0hdW2NIXVtjSF1bY0hdYzFDKD1PKVtOSF1jKG5bY0hdbjIpYyhjMjMpbltjSF1uM1tDQEBIXTRPW0NASF0oW0NAQEhdKEYpW0NASF00W09IXSlbQ0gyXU9DKD1PKWM1W2NIXVtjSF1bY0hdW2NIXVtjSF01

> <s_epik_cmdline>
J2VwaWtfcHl0aG9uJywgJy1waCcsICc3LjAnLCAnLXRuJywgJzgnLCAnLW1hJywgJzIwMCcsICctbWV0YWxfYmluZGluZycsICctaW1hZScsICc8aW5maWxlLm1hZT4nLCAnLW9tYWUnLCAnPG91dGZpbGUubWFlPic=

> <r_lp_tautomer_probability>
1

> <r_epik_Ionization_Penalty>
0.00257489

> <r_epik_Ionization_Penalty_Charging>
0

> <r_epik_Ionization_Penalty_Neutral>
0.00257489

> <r_epik_State_Penalty>
0.00519398

> <r_epik_Charging_Adjusted_Penalty>
0.00519398

> <i_epik_Tot_Q>
0

> <i_epik_Tot_abs_Q>
0

> <r_epik_Metal_State_Penalty>
0.335891

> <b_epik_Metal_Only>
0

> <s_epik_Chemistry_Notes>
This compound has an ester and may undergo hydrolysis at high or low pH. This compound contains an acetal/aminal-like group ( X-CH(R)-Y where X, Y are N, S, or O) that may be acid/base labile, releasing an aldehyde.

> <s_lp_Force_Field>
OPLS_2005

> <r_lp_Energy>
45.4832

> <b_lp_Chiralities_Consistent>
1

> <s_lp_Variant>
AV-unprocessed.smi:34-14

> <Gold.Version>
5.8.1

> <Gold.Id.Protein>
6NUR|6NUR_protein|mol2

> <Gold.PLP.Fitness>
58.0399

> <Gold.PLP.PLP>
-51.5666

> <Gold.PLP.part.hbond>
-2.2383

> <Gold.PLP.part.metal>
0.0000

> <Gold.PLP.part.buried>
-2.6679

> <Gold.PLP.part.nonpolar>
-47.3616

> <Gold.PLP.part.repulsive>
1.1847

> <Gold.PLP.ligand.clash>
0.0000

> <Gold.PLP.ligand.torsion>
1.4922

> <Gold.PLP.Chemscore.Hbond>
1.9673

> <Gold.PLP.Chemscore.CHOScore>
1.0000

> <Gold.PLP.Chemscore.Metal>
0.0000

> <Gold.Chemscore.Hbonds>
donor molecule, donor type, donor heavy atom, donor atom, acceptor molecule, acceptor atom, score
      L1  H    29    50       P1 10175  0.95
      P1  H  7997  8009       L1    19  0.94
      L1  C     6    37       P1 10171  1.00

> <Gold.PLP.Chemscore.Internal.Correction>
0.5560

> <Gold.Rescore>
     Score         DG    S(hbond)    S(metal)    S(lipo)     H(rot)  DE(clash)    DE(int)     intcor
     13.40     -17.34       1.69        0.00     112.81       2.72       0.08       3.86       ----

> <Gold.Chemscore.Fitness>
13.4039

> <Gold.Chemscore.DG>
-17.3443

> <Gold.Chemscore.ZeroCoef>
-5.4800

> <Gold.Chemscore.Hbond>
1.6863

> <Gold.Chemscore.Metal>
0.0000

> <Gold.Chemscore.Lipo>
112.8122

> <Gold.Chemscore.Internal_Hbond>
0.0000

> <Gold.Chemscore.DEClash>
0.0843

> <Gold.Chemscore.DEInternal>
3.8561

> <Gold.Chemscore.Rot>
2.7215

> <Gold.Chemscore.Internal.Correction>
   9.000000E+99

> <Gold.Chemscore.Hbonds>
donor molecule, donor type, donor heavy atom, donor atom, acceptor molecule, acceptor atom, score
      L1  H    29    50       P1 10175  0.63
      P1  H  7997  8009       L1    19  0.88

> <Gold.Chemscore.Hbond.Weighted>
-5.6323

> <Gold.Chemscore.Metal.Weighted>
-0.0000

> <Gold.Chemscore.Lipo.Weighted>
-13.1990

> <Gold.Chemscore.Internal_Hbond.Weighted>
0.0000

> <Gold.Chemscore.DEClash.Weighted>
0.0843

> <Gold.Chemscore.DEInternal.Weighted>
3.8561

> <Gold.Chemscore.Rot.Weighted>
6.9670

> <Gold.Chemscore.Internal.Correction.Weighted>
   9.000000E+99

> <Gold.Protein.RotatedTorsions>
[ 6907 6896 6895 6894 ] final   72.84 input  -60.11 | X-H torsion
[ 7974 7965 7964 7962 ] final  133.84 input  175.53 | X-H torsion
[ 8008 7997 7996 7995 ] final -170.76 input   59.86 | X-H torsion
[ 10167 10162 10161 10158 ] final   99.40 input  -65.29 | X-H torsion
[ 10718 10713 10712 10709 ] final  162.87 input   66.30 | X-H torsion
[ 10763 10752 10751 10750 ] final -124.49 input  -60.55 | X-H torsion
[ 11005 11000 10999 10996 ] final  -82.52 input  -57.11 | X-H torsion

> <Gold.Protein.ActiveResidues>
 VAL166  LYS551  ARG553  GLY616  TRP617  ASP618  TYR619  PRO620  LYS621  CYS622 
 ASP623  PHE694  ASN695  SER759  ASP760  ASP761  ALA762  ILE779  LEU786  VAL792 
 PHE793  MET794  SER795  GLU796  ALA797  LYS798  CYS799  TRP800  GLU811  SER814 

> <Gold.Protein.RotatedAtoms>
  152.4890  134.4512  159.9574 H   0  0  0  0  0  0  0  0  0  0  0  0  # atno 6907 bound_to 6896
  151.4502  133.3613  159.2802 H   0  0  0  0  0  0  0  0  0  0  0  0  # atno 6908 bound_to 6896
  150.9026  134.8464  159.7431 H   0  0  0  0  0  0  0  0  0  0  0  0  # atno 6909 bound_to 6896
  144.9824  139.4490  143.5379 H   0  0  0  0  0  0  0  0  0  0  0  0  # atno 7974 bound_to 7965
  155.9226  140.1077  157.1195 H   0  0  0  0  0  0  0  0  0  0  0  0  # atno 8008 bound_to 7997
  154.4057  140.1253  156.4765 H   0  0  0  0  0  0  0  0  0  0  0  0  # atno 8009 bound_to 7997
  155.7177  140.3470  155.5004 H   0  0  0  0  0  0  0  0  0  0  0  0  # atno 8010 bound_to 7997
  139.7621  144.6951  151.0278 H   0  0  0  0  0  0  0  0  0  0  0  0  # atno 10167 bound_to 10162
  157.1165  131.0481  151.2434 H   0  0  0  0  0  0  0  0  0  0  0  0  # atno 10718 bound_to 10713
  154.8724  135.4062  154.3113 H   0  0  0  0  0  0  0  0  0  0  0  0  # atno 10763 bound_to 10752
  153.3956  135.7016  153.6468 H   0  0  0  0  0  0  0  0  0  0  0  0  # atno 10764 bound_to 10752
  153.5232  135.3683  155.2613 H   0  0  0  0  0  0  0  0  0  0  0  0  # atno 10765 bound_to 10752
  141.1662  133.7248  156.8584 H   0  0  0  0  0  0  0  0  0  0  0  0  # atno 11005 bound_to 11000
  146.3411  139.9106  142.8781 LP  0  0  0  0  0  0  0  0  0  0  0  0  # atno 17320 bound_to 7965
  145.2401  141.0006  143.3940 LP  0  0  0  0  0  0  0  0  0  0  0  0  # atno 17321 bound_to 7965
  140.7808  143.4685  151.0178 LP  0  0  0  0  0  0  0  0  0  0  0  0  # atno 17342 bound_to 10162
  139.8371  143.7613  152.3180 LP  0  0  0  0  0  0  0  0  0  0  0  0  # atno 17343 bound_to 10162
  157.4514  130.7600  149.7154 LP  0  0  0  0  0  0  0  0  0  0  0  0  # atno 17370 bound_to 10713
  155.9838  130.3997  150.3344 LP  0  0  0  0  0  0  0  0  0  0  0  0  # atno 17371 bound_to 10713
  140.1866  134.8995  157.3011 LP  0  0  0  0  0  0  0  0  0  0  0  0  # atno 17394 bound_to 11000
  140.2336  134.3879  155.7511 LP  0  0  0  0  0  0  0  0  0  0  0  0  # atno 17395 bound_to 11000

$$$$
