AV-unprocessed.smi:2799|AV-procd|sdf|10792|dock5
  -GOLD-   2272015223D 1   1.00000     0.00000
 Structure written by MMmdl.
 52 53  0  0  0  0  0  0  0  0  2 V2000
  144.6505  133.8180  150.7425 C   0  0  0  0  0  0  0  0  0  0  0  0
  145.9647  134.2357  151.4203 C   0  0  0  0  0  0  0  0  0  0  0  0
  146.8417  133.0011  151.6904 C   0  0  0  0  0  0  0  0  0  0  0  0
  145.6731  135.0341  152.7137 C   0  0  0  0  0  0  0  0  0  0  0  0
  146.4715  136.2897  152.8619 N   0  3  1  0  0  0  0  0  0  0  0  0
  145.8419  137.4270  152.1270 C   0  0  0  0  0  0  0  0  0  0  0  0
  146.7206  138.6839  152.1371 C   0  0  0  0  0  0  0  0  0  0  0  0
  147.0207  139.1120  153.5705 C   0  0  0  0  0  0  0  0  0  0  0  0
  147.6651  137.9456  154.3202 C   0  0  0  0  0  0  0  0  0  0  0  0
  146.7916  136.6639  154.2836 C   0  0  2  0  0  0  0  0  0  0  0  0
  147.4925  135.5265  155.0833 C   0  0  0  0  0  0  0  0  0  0  0  0
  147.8310  135.9092  156.4520 N   0  0  0  0  0  0  0  0  0  0  0  0
  147.7031  135.1169  157.5262 C   0  0  0  0  0  0  0  0  0  0  0  0
  147.2884  133.9602  157.4597 O   0  0  0  0  0  0  0  0  0  0  0  0
  148.0890  135.7584  158.6445 N   0  0  0  0  0  0  0  0  0  0  0  0
  148.0857  135.3179  159.9802 C   0  0  0  0  0  0  0  0  0  0  0  0
  147.8899  134.0339  160.3739 C   0  0  0  0  0  0  0  0  0  0  0  0
  147.8935  133.6779  161.7725 C   0  0  0  0  0  0  0  0  0  0  0  0
  148.0867  134.6478  162.6769 C   0  0  0  0  0  0  0  0  0  0  0  0
  148.2825  135.9852  162.2931 N   0  0  0  0  0  0  0  0  0  0  0  0
  148.4853  136.9727  163.3562 C   0  0  0  0  0  0  0  0  0  0  0  0
  148.2935  136.3795  160.9850 C   0  0  0  0  0  0  0  0  0  0  0  0
  148.4688  137.5610  160.6764 O   0  0  0  0  0  0  0  0  0  0  0  0
  144.0650  133.1554  151.3811 H   0  0  0  0  0  0  0  0  0  0  0  0
  144.8403  133.2933  149.8057 H   0  0  0  0  0  0  0  0  0  0  0  0
  144.0338  134.6871  150.5111 H   0  0  0  0  0  0  0  0  0  0  0  0
  146.4808  134.8680  150.7002 H   0  0  0  0  0  0  0  0  0  0  0  0
  146.3653  132.3232  152.3995 H   0  0  0  0  0  0  0  0  0  0  0  0
  147.8132  133.2809  152.0983 H   0  0  0  0  0  0  0  0  0  0  0  0
  147.0259  132.4434  150.7717 H   0  0  0  0  0  0  0  0  0  0  0  0
  144.6117  135.2788  152.7790 H   0  0  0  0  0  0  0  0  0  0  0  0
  145.8761  134.3432  153.5259 H   0  0  0  0  0  0  0  0  0  0  0  0
  145.6648  137.1709  151.0850 H   0  0  0  0  0  0  0  0  0  0  0  0
  144.8673  137.6481  152.5653 H   0  0  0  0  0  0  0  0  0  0  0  0
  147.6519  138.4896  151.6033 H   0  0  0  0  0  0  0  0  0  0  0  0
  146.2202  139.4933  151.6048 H   0  0  0  0  0  0  0  0  0  0  0  0
  147.6836  139.9778  153.5761 H   0  0  0  0  0  0  0  0  0  0  0  0
  146.1010  139.4157  154.0723 H   0  0  0  0  0  0  0  0  0  0  0  0
  148.6448  137.7339  153.8891 H   0  0  0  0  0  0  0  0  0  0  0  0
  147.8461  138.2656  155.3463 H   0  0  0  0  0  0  0  0  0  0  0  0
  145.8421  136.8874  154.7731 H   0  0  0  0  0  0  0  0  0  0  0  0
  146.8727  134.6356  155.1675 H   0  0  0  0  0  0  0  0  0  0  0  0
  148.4106  135.2244  154.5787 H   0  0  0  0  0  0  0  0  0  0  0  0
  148.1849  136.8449  156.5905 H   0  0  0  0  0  0  0  0  0  0  0  0
  148.4552  136.6912  158.5186 H   0  0  0  0  0  0  0  0  0  0  0  0
  147.7132  133.2386  159.6691 H   0  0  0  0  0  0  0  0  0  0  0  0
  147.7441  132.6542  162.0827 H   0  0  0  0  0  0  0  0  0  0  0  0
  148.1033  134.4617  163.7408 H   0  0  0  0  0  0  0  0  0  0  0  0
  147.7517  137.7768  163.2815 H   0  0  0  0  0  0  0  0  0  0  0  0
  149.4810  137.4120  163.2817 H   0  0  0  0  0  0  0  0  0  0  0  0
  148.3917  136.5431  164.3542 H   0  0  0  0  0  0  0  0  0  0  0  0
  147.3596  136.1119  152.4149 H   0  0  0  0  0  0  0  0  0  0  0  0
  1  2  1  0  0  0  0
  1 24  1  0  0  0  0
  1 25  1  0  0  0  0
  1 26  1  0  0  0  0
  2  3  1  0  0  0  0
  2  4  1  0  0  0  0
  2 27  1  0  0  0  0
  3 28  1  0  0  0  0
  3 29  1  0  0  0  0
  3 30  1  0  0  0  0
  4  5  1  0  0  0  0
  4 31  1  0  0  0  0
  4 32  1  0  0  0  0
  5 10  1  0  0  0  0
  5  6  1  0  0  0  0
  5 52  1  0  0  0  0
  6  7  1  0  0  0  0
  6 33  1  0  0  0  0
  6 34  1  0  0  0  0
  7  8  1  0  0  0  0
  7 35  1  0  0  0  0
  7 36  1  0  0  0  0
  8  9  1  0  0  0  0
  8 37  1  0  0  0  0
  8 38  1  0  0  0  0
  9 10  1  0  0  0  0
  9 39  1  0  0  0  0
  9 40  1  0  0  0  0
 10 11  1  0  0  0  0
 10 41  1  0  0  0  0
 11 12  1  0  0  0  0
 11 42  1  0  0  0  0
 11 43  1  0  0  0  0
 12 13  1  0  0  0  0
 12 44  1  0  0  0  0
 13 14  2  0  0  0  0
 13 15  1  0  0  0  0
 15 16  1  0  0  0  0
 15 45  1  0  0  0  0
 16 22  1  0  0  0  0
 16 17  2  0  0  0  0
 17 18  1  0  0  0  0
 17 46  1  0  0  0  0
 18 19  2  0  0  0  0
 18 47  1  0  0  0  0
 19 20  1  0  0  0  0
 19 48  1  0  0  0  0
 20 21  1  0  0  0  0
 20 22  1  0  0  0  0
 21 49  1  0  0  0  0
 21 50  1  0  0  0  0
 21 51  1  0  0  0  0
 22 23  2  0  0  0  0
M  CHG  1   5   1
M  END
> <s_m_source_file>
AV-unprocessed.smi

> <i_m_source_file_index>
2799

> <i_lp_mmshare_version>
43012

> <i_f3d_flags>
0

> <s_epik_input>
W0NIM11bQ0hdKFtDSDNdKVtDSDJdTjFbQ0gyXVtDSDJdW0NIMl1bQ0gyXVtDQEhdMVtDSDJdW05IXUMoPU8pW05IXWMyW2NIXVtjSF1bY0hdbihbQ0gzXSljMj1P

> <s_epik_cmdline>
J2VwaWtfcHl0aG9uJywgJy1waCcsICc3LjAnLCAnLXRuJywgJzgnLCAnLW1hJywgJzIwMCcsICctbWV0YWxfYmluZGluZycsICctaW1hZScsICc8aW5maWxlLm1hZT4nLCAnLW9tYWUnLCAnPG91dGZpbGUubWFlPic=

> <r_lp_tautomer_probability>
1

> <r_epik_Ionization_Penalty>
0.0010885

> <r_epik_Ionization_Penalty_Charging>
0.00106921

> <r_epik_Ionization_Penalty_Neutral>
1.92865e-05

> <r_epik_State_Penalty>
0.000697184

> <r_epik_Charging_Adjusted_Penalty>
0.0017664

> <i_epik_Tot_Q>
1

> <i_epik_Tot_abs_Q>
1

> <r_epik_Metal_State_Penalty>
-0

> <b_epik_Metal_Only>
0

> <s_lp_Force_Field>
OPLS_2005

> <r_lp_Energy>
36.993

> <b_lp_Chiralities_Consistent>
1

> <s_lp_Variant>
AV-unprocessed.smi:2799-4

> <Gold.Version>
5.8.1

> <Gold.Id.Protein>
6NUR|6NUR_protein|mol2

> <Gold.PLP.Fitness>
47.8582

> <Gold.PLP.PLP>
-39.1751

> <Gold.PLP.part.hbond>
-3.0000

> <Gold.PLP.part.metal>
0.0000

> <Gold.PLP.part.buried>
-1.7121

> <Gold.PLP.part.nonpolar>
-34.6436

> <Gold.PLP.part.repulsive>
0.0517

> <Gold.PLP.ligand.clash>
0.0000

> <Gold.PLP.ligand.torsion>
1.1531

> <Gold.PLP.Chemscore.Hbond>
3.6320

> <Gold.PLP.Chemscore.CHOScore>
0.0000

> <Gold.PLP.Chemscore.Metal>
0.0000

> <Gold.Chemscore.Hbonds>
donor molecule, donor type, donor heavy atom, donor atom, acceptor molecule, acceptor atom, score
      L1  H     5    52       P1  7948  2.00
      P1  H  6931  6943       L1    23  0.57
      P1  H  6934  6947       L1    23  0.43

> <Gold.PLP.Chemscore.Internal.Correction>
0.0932

> <Gold.Rescore>
     Score         DG    S(hbond)    S(metal)    S(lipo)     H(rot)  DE(clash)    DE(int)     intcor
     17.95     -20.38       2.70        0.00      84.69       1.57       0.13       2.30       ----

> <Gold.Chemscore.Fitness>
17.9518

> <Gold.Chemscore.DG>
-20.3765

> <Gold.Chemscore.ZeroCoef>
-5.4800

> <Gold.Chemscore.Hbond>
2.6957

> <Gold.Chemscore.Metal>
0.0000

> <Gold.Chemscore.Lipo>
84.6918

> <Gold.Chemscore.Internal_Hbond>
0.0000

> <Gold.Chemscore.DEClash>
0.1258

> <Gold.Chemscore.DEInternal>
2.2989

> <Gold.Chemscore.Rot>
1.5688

> <Gold.Chemscore.Internal.Correction>
   9.000000E+99

> <Gold.Chemscore.Hbonds>
donor molecule, donor type, donor heavy atom, donor atom, acceptor molecule, acceptor atom, score
      L1  H     5    52       P1  7948  1.00
      P1  H  6931  6943       L1    23  0.36
      P1  H  6934  6947       L1    23  0.42

> <Gold.Chemscore.Hbond.Weighted>
-9.0036

> <Gold.Chemscore.Metal.Weighted>
-0.0000

> <Gold.Chemscore.Lipo.Weighted>
-9.9089

> <Gold.Chemscore.Internal_Hbond.Weighted>
0.0000

> <Gold.Chemscore.DEClash.Weighted>
0.1258

> <Gold.Chemscore.DEInternal.Weighted>
2.2989

> <Gold.Chemscore.Rot.Weighted>
4.0161

> <Gold.Chemscore.Internal.Correction.Weighted>
   9.000000E+99

> <Gold.Protein.RotatedTorsions>
[ 6907 6896 6895 6894 ] final  153.95 input  -60.11 | X-H torsion
[ 7974 7965 7964 7962 ] final  132.37 input  175.53 | X-H torsion
[ 8008 7997 7996 7995 ] final   70.24 input   59.86 | X-H torsion
[ 10167 10162 10161 10158 ] final  134.30 input  -65.29 | X-H torsion
[ 10718 10713 10712 10709 ] final -125.33 input   66.30 | X-H torsion
[ 10763 10752 10751 10750 ] final   61.70 input  -60.55 | X-H torsion
[ 11005 11000 10999 10996 ] final   11.00 input  -57.11 | X-H torsion

> <Gold.Protein.ActiveResidues>
 VAL166  LYS551  ARG553  GLY616  TRP617  ASP618  TYR619  PRO620  LYS621  CYS622 
 ASP623  PHE694  ASN695  SER759  ASP760  ASP761  ALA762  ILE779  LEU786  VAL792 
 PHE793  MET794  SER795  GLU796  ALA797  LYS798  CYS799  TRP800  GLU811  SER814 

> <Gold.Protein.RotatedAtoms>
  152.0655  133.4082  159.4435 H   0  0  0  0  0  0  0  0  0  0  0  0  # atno 6907 bound_to 6896
  150.6865  134.3152  159.4772 H   0  0  0  0  0  0  0  0  0  0  0  0  # atno 6908 bound_to 6896
  152.0978  134.9362  160.0621 H   0  0  0  0  0  0  0  0  0  0  0  0  # atno 6909 bound_to 6896
  144.9976  139.4344  143.5308 H   0  0  0  0  0  0  0  0  0  0  0  0  # atno 7974 bound_to 7965
  155.7359  140.3491  155.5081 H   0  0  0  0  0  0  0  0  0  0  0  0  # atno 8008 bound_to 7997
  155.9140  140.1055  157.1279 H   0  0  0  0  0  0  0  0  0  0  0  0  # atno 8009 bound_to 7997
  154.4060  140.1262  156.4580 H   0  0  0  0  0  0  0  0  0  0  0  0  # atno 8010 bound_to 7997
  139.5262  144.6574  151.5119 H   0  0  0  0  0  0  0  0  0  0  0  0  # atno 10167 bound_to 10162
  156.1666  130.6639  151.0123 H   0  0  0  0  0  0  0  0  0  0  0  0  # atno 10718 bound_to 10713
  152.9958  135.5491  154.6075 H   0  0  0  0  0  0  0  0  0  0  0  0  # atno 10763 bound_to 10752
  154.5403  135.2819  155.1104 H   0  0  0  0  0  0  0  0  0  0  0  0  # atno 10764 bound_to 10752
  154.2384  135.6421  153.5251 H   0  0  0  0  0  0  0  0  0  0  0  0  # atno 10765 bound_to 10752
  140.5081  134.0679  155.7811 H   0  0  0  0  0  0  0  0  0  0  0  0  # atno 11005 bound_to 11000
  146.3445  139.9345  142.8749 LP  0  0  0  0  0  0  0  0  0  0  0  0  # atno 17320 bound_to 7965
  145.2198  140.9930  143.4052 LP  0  0  0  0  0  0  0  0  0  0  0  0  # atno 17321 bound_to 7965
  140.6406  143.8896  150.6688 LP  0  0  0  0  0  0  0  0  0  0  0  0  # atno 17342 bound_to 10162
  140.2230  143.3794  152.1628 LP  0  0  0  0  0  0  0  0  0  0  0  0  # atno 17343 bound_to 10162
  157.6772  131.0847  150.7463 LP  0  0  0  0  0  0  0  0  0  0  0  0  # atno 17370 bound_to 10713
  156.7524  130.4773  149.5454 LP  0  0  0  0  0  0  0  0  0  0  0  0  # atno 17371 bound_to 10713
  141.1400  133.9155  157.2348 LP  0  0  0  0  0  0  0  0  0  0  0  0  # atno 17394 bound_to 11000
  139.9674  135.0138  156.9423 LP  0  0  0  0  0  0  0  0  0  0  0  0  # atno 17395 bound_to 11000

$$$$
