AV-unprocessed.smi:3149|AV-procd|sdf|12001|dock3
  -GOLD-   2272017403D 1   1.00000     0.00000
 Structure written by MMmdl.
 38 39  0  0  0  0  0  0  0  0  2 V2000
  152.6400  139.5714  158.7000 C   0  0  0  0  0  0  0  0  0  0  0  0
  151.7386  140.8013  158.9408 C   0  0  2  0  0  0  0  0  0  0  0  0
  151.2982  141.3756  157.6486 N   0  3  0  0  0  0  0  0  0  0  0  0
  149.9593  140.9509  157.1870 C   0  0  0  0  0  0  0  0  0  0  0  0
  149.8653  140.9538  155.6582 C   0  0  0  0  0  0  0  0  0  0  0  0
  150.7433  140.4250  154.9753 O   0  0  0  0  0  0  0  0  0  0  0  0
  148.8093  141.6614  155.0800 N   0  0  0  0  0  0  0  0  0  0  0  0
  148.1650  141.2063  153.8568 C   0  0  0  0  0  0  0  0  0  0  0  0
  146.8986  141.8721  154.4049 C   0  0  0  0  0  0  0  0  0  0  0  0
  147.5532  141.8505  155.7900 C   0  0  0  0  0  0  0  0  0  0  0  0
  152.4294  141.9005  159.7922 C   0  0  1  0  0  0  0  0  0  0  0  0
  153.9599  141.9140  159.6089 C   0  0  0  0  0  0  0  0  0  0  0  0
  151.8838  143.2266  159.5308 N   0  0  0  0  0  0  0  0  0  0  0  0
  152.5565  144.3638  159.1327 C   0  0  0  0  0  0  0  0  0  0  0  0
  151.6352  145.3649  159.0190 C   0  0  0  0  0  0  0  0  0  0  0  0
  150.4076  144.7367  159.3680 C   0  0  0  0  0  0  0  0  0  0  0  0
  150.5586  143.4579  159.6727 N   0  0  0  0  0  0  0  0  0  0  0  0
  152.9213  139.0860  159.6345 H   0  0  0  0  0  0  0  0  0  0  0  0
  153.5585  139.8504  158.1829 H   0  0  0  0  0  0  0  0  0  0  0  0
  152.1390  138.8125  158.0998 H   0  0  0  0  0  0  0  0  0  0  0  0
  150.8512  140.4697  159.4827 H   0  0  0  0  0  0  0  0  0  0  0  0
  151.2620  142.3792  157.7582 H   0  0  0  0  0  0  0  0  0  0  0  0
  149.7413  139.9519  157.5645 H   0  0  0  0  0  0  0  0  0  0  0  0
  149.2022  141.6285  157.5830 H   0  0  0  0  0  0  0  0  0  0  0  0
  148.5601  141.6626  152.9485 H   0  0  0  0  0  0  0  0  0  0  0  0
  148.0801  140.1204  153.7827 H   0  0  0  0  0  0  0  0  0  0  0  0
  146.7375  142.8801  154.0182 H   0  0  0  0  0  0  0  0  0  0  0  0
  146.0003  141.2591  154.3246 H   0  0  0  0  0  0  0  0  0  0  0  0
  147.2547  140.9899  156.3924 H   0  0  0  0  0  0  0  0  0  0  0  0
  147.4901  142.7914  156.3378 H   0  0  0  0  0  0  0  0  0  0  0  0
  152.2274  141.6858  160.8432 H   0  0  0  0  0  0  0  0  0  0  0  0
  154.4114  140.9737  159.9254 H   0  0  0  0  0  0  0  0  0  0  0  0
  154.4170  142.7064  160.2026 H   0  0  0  0  0  0  0  0  0  0  0  0
  154.2373  142.0797  158.5673 H   0  0  0  0  0  0  0  0  0  0  0  0
  153.6240  144.3678  158.9675 H   0  0  0  0  0  0  0  0  0  0  0  0
  151.8110  146.3903  158.7293 H   0  0  0  0  0  0  0  0  0  0  0  0
  149.4185  145.1686  159.4091 H   0  0  0  0  0  0  0  0  0  0  0  0
  151.9818  141.1600  156.9371 H   0  0  0  0  0  0  0  0  0  0  0  0
  1  2  1  0  0  0  0
  1 18  1  0  0  0  0
  1 19  1  0  0  0  0
  1 20  1  0  0  0  0
  2  3  1  0  0  0  0
  2 11  1  0  0  0  0
  2 21  1  0  0  0  0
  3  4  1  0  0  0  0
  3 22  1  0  0  0  0
  3 38  1  0  0  0  0
  4  5  1  0  0  0  0
  4 23  1  0  0  0  0
  4 24  1  0  0  0  0
  5  6  2  0  0  0  0
  5  7  1  0  0  0  0
  7 10  1  0  0  0  0
  7  8  1  0  0  0  0
  8  9  1  0  0  0  0
  8 25  1  0  0  0  0
  8 26  1  0  0  0  0
  9 10  1  0  0  0  0
  9 27  1  0  0  0  0
  9 28  1  0  0  0  0
 10 29  1  0  0  0  0
 10 30  1  0  0  0  0
 11 12  1  0  0  0  0
 11 13  1  0  0  0  0
 11 31  1  0  0  0  0
 12 32  1  0  0  0  0
 12 33  1  0  0  0  0
 12 34  1  0  0  0  0
 13 17  1  0  0  0  0
 13 14  1  0  0  0  0
 14 15  2  0  0  0  0
 14 35  1  0  0  0  0
 15 16  1  0  0  0  0
 15 36  1  0  0  0  0
 16 17  2  0  0  0  0
 16 37  1  0  0  0  0
M  CHG  1   3   1
M  END
> <s_m_source_file>
AV-unprocessed.smi

> <i_m_source_file_index>
3149

> <i_lp_mmshare_version>
43012

> <i_f3d_flags>
0

> <s_epik_input>
bjFbY0hdW2NIXVtjSF1uMVtDQEBIXShbQ0gzXSlbQ0BIXShbQ0gzXSlbTkhdW0NIMl1DKD1PKU4yW0NIMl1bQ0gyXVtDSDJdMg==

> <s_epik_cmdline>
J2VwaWtfcHl0aG9uJywgJy1waCcsICc3LjAnLCAnLXRuJywgJzgnLCAnLW1hJywgJzIwMCcsICctbWV0YWxfYmluZGluZycsICctaW1hZScsICc8aW5maWxlLm1hZT4nLCAnLW9tYWUnLCAnPG91dGZpbGUubWFlPic=

> <r_lp_tautomer_probability>
1

> <r_epik_Ionization_Penalty>
0.141739

> <r_epik_Ionization_Penalty_Charging>
0.141731

> <r_epik_Ionization_Penalty_Neutral>
8.82171e-06

> <r_epik_State_Penalty>
0.131043

> <r_epik_Charging_Adjusted_Penalty>
0.272773

> <i_epik_Tot_Q>
1

> <i_epik_Tot_abs_Q>
1

> <r_epik_Metal_State_Penalty>
0.131384

> <b_epik_Metal_Only>
0

> <s_lp_Force_Field>
OPLS_2005

> <r_lp_Energy>
21.3939

> <b_lp_Chiralities_Consistent>
1

> <s_lp_Variant>
AV-unprocessed.smi:3149-3

> <Gold.Version>
5.8.1

> <Gold.Id.Protein>
6NUR|6NUR_protein|mol2

> <Gold.PLP.Fitness>
42.7346

> <Gold.PLP.PLP>
-39.7860

> <Gold.PLP.part.hbond>
-1.4784

> <Gold.PLP.part.metal>
0.0000

> <Gold.PLP.part.buried>
-2.4887

> <Gold.PLP.part.nonpolar>
-36.3083

> <Gold.PLP.part.repulsive>
0.1901

> <Gold.PLP.ligand.clash>
0.0000

> <Gold.PLP.ligand.torsion>
1.9948

> <Gold.PLP.Chemscore.Hbond>
1.0000

> <Gold.PLP.Chemscore.CHOScore>
1.0000

> <Gold.PLP.Chemscore.Metal>
0.0000

> <Gold.Chemscore.Hbonds>
donor molecule, donor type, donor heavy atom, donor atom, acceptor molecule, acceptor atom, score
      P1  H  7989  7998       L1     6  1.00
      L1  C    16    37       P1  8029  0.47

> <Gold.PLP.Chemscore.Internal.Correction>
0.9381

> <Gold.Rescore>
     Score         DG    S(hbond)    S(metal)    S(lipo)     H(rot)  DE(clash)    DE(int)     intcor
     12.55     -14.48       0.98        0.00      89.47       1.85       0.10       1.83       ----

> <Gold.Chemscore.Fitness>
12.5526

> <Gold.Chemscore.DG>
-14.4760

> <Gold.Chemscore.ZeroCoef>
-5.4800

> <Gold.Chemscore.Hbond>
0.9807

> <Gold.Chemscore.Metal>
0.0000

> <Gold.Chemscore.Lipo>
89.4668

> <Gold.Chemscore.Internal_Hbond>
0.0000

> <Gold.Chemscore.DEClash>
0.0978

> <Gold.Chemscore.DEInternal>
1.8256

> <Gold.Chemscore.Rot>
1.8544

> <Gold.Chemscore.Internal.Correction>
   9.000000E+99

> <Gold.Chemscore.Hbonds>
donor molecule, donor type, donor heavy atom, donor atom, acceptor molecule, acceptor atom, score
      P1  H  7989  7998       L1     6  0.98

> <Gold.Chemscore.Hbond.Weighted>
-3.2755

> <Gold.Chemscore.Metal.Weighted>
-0.0000

> <Gold.Chemscore.Lipo.Weighted>
-10.4676

> <Gold.Chemscore.Internal_Hbond.Weighted>
0.0000

> <Gold.Chemscore.DEClash.Weighted>
0.0978

> <Gold.Chemscore.DEInternal.Weighted>
1.8256

> <Gold.Chemscore.Rot.Weighted>
4.7472

> <Gold.Chemscore.Internal.Correction.Weighted>
   9.000000E+99

> <Gold.Protein.RotatedTorsions>
[ 6907 6896 6895 6894 ] final    2.52 input  -60.11 | X-H torsion
[ 7974 7965 7964 7962 ] final  -25.16 input  175.53 | X-H torsion
[ 8008 7997 7996 7995 ] final  160.30 input   59.86 | X-H torsion
[ 10167 10162 10161 10158 ] final   11.72 input  -65.29 | X-H torsion
[ 10718 10713 10712 10709 ] final   47.04 input   66.30 | X-H torsion
[ 10763 10752 10751 10750 ] final -178.16 input  -60.55 | X-H torsion
[ 11005 11000 10999 10996 ] final   44.69 input  -57.11 | X-H torsion

> <Gold.Protein.ActiveResidues>
 VAL166  LYS551  ARG553  GLY616  TRP617  ASP618  TYR619  PRO620  LYS621  CYS622 
 ASP623  PHE694  ASN695  SER759  ASP760  ASP761  ALA762  ILE779  LEU786  VAL792 
 PHE793  MET794  SER795  GLU796  ALA797  LYS798  CYS799  TRP800  GLU811  SER814 

> <Gold.Protein.RotatedAtoms>
  151.6102  135.1041  160.0079 H   0  0  0  0  0  0  0  0  0  0  0  0  # atno 6907 bound_to 6896
  152.4212  133.7115  159.6492 H   0  0  0  0  0  0  0  0  0  0  0  0  # atno 6908 bound_to 6896
  150.8100  133.8367  159.3209 H   0  0  0  0  0  0  0  0  0  0  0  0  # atno 6909 bound_to 6896
  146.1509  140.4849  142.8612 H   0  0  0  0  0  0  0  0  0  0  0  0  # atno 7974 bound_to 7965
  156.2181  140.1808  156.7541 H   0  0  0  0  0  0  0  0  0  0  0  0  # atno 8008 bound_to 7997
  154.5823  140.0664  156.9150 H   0  0  0  0  0  0  0  0  0  0  0  0  # atno 8009 bound_to 7997
  155.2481  140.3327  155.4287 H   0  0  0  0  0  0  0  0  0  0  0  0  # atno 8010 bound_to 7997
  140.6114  143.8400  150.7069 H   0  0  0  0  0  0  0  0  0  0  0  0  # atno 10167 bound_to 10162
  157.4544  130.8158  149.7821 H   0  0  0  0  0  0  0  0  0  0  0  0  # atno 10718 bound_to 10713
  154.5512  135.2813  155.1007 H   0  0  0  0  0  0  0  0  0  0  0  0  # atno 10763 bound_to 10752
  154.2452  135.6349  153.5225 H   0  0  0  0  0  0  0  0  0  0  0  0  # atno 10764 bound_to 10752
  153.0003  135.5569  154.6078 H   0  0  0  0  0  0  0  0  0  0  0  0  # atno 10765 bound_to 10752
  140.1528  134.4439  155.8370 H   0  0  0  0  0  0  0  0  0  0  0  0  # atno 11005 bound_to 11000
  144.7903  140.6018  143.6546 LP  0  0  0  0  0  0  0  0  0  0  0  0  # atno 17320 bound_to 7965
  145.4826  139.1494  143.3754 LP  0  0  0  0  0  0  0  0  0  0  0  0  # atno 17321 bound_to 7965
  140.1969  143.3990  152.1821 LP  0  0  0  0  0  0  0  0  0  0  0  0  # atno 17342 bound_to 10162
  139.5364  144.7213  151.4879 LP  0  0  0  0  0  0  0  0  0  0  0  0  # atno 17343 bound_to 10162
  156.0001  130.3885  150.2640 LP  0  0  0  0  0  0  0  0  0  0  0  0  # atno 17370 bound_to 10713
  157.0814  131.0144  151.3155 LP  0  0  0  0  0  0  0  0  0  0  0  0  # atno 17371 bound_to 10713
  141.2201  133.6880  156.7453 LP  0  0  0  0  0  0  0  0  0  0  0  0  # atno 17394 bound_to 11000
  140.2583  134.8486  157.3734 LP  0  0  0  0  0  0  0  0  0  0  0  0  # atno 17395 bound_to 11000

$$$$
