AV-unprocessed.smi:2104|AV-procd|sdf|8587|dock9
  -GOLD-   2272011323D 1   1.00000     0.00000
 Structure written by MMmdl.
 42 43  0  0  0  0  0  0  0  0  2 V2000
  158.1118  138.0351  151.4165 C   0  0  0  0  0  0  0  0  0  0  0  0
  156.8798  138.2195  152.2346 C   0  0  0  0  0  0  0  0  0  0  0  0
  156.3148  139.3132  152.8260 C   0  0  0  0  0  0  0  0  0  0  0  0
  155.1458  138.7845  153.4379 C   0  0  0  0  0  0  0  0  0  0  0  0
  154.2541  139.4805  154.1597 N   0  5  0  0  0  0  0  0  0  0  0  0
  153.0953  138.9023  154.5527 C   0  0  0  0  0  0  0  0  0  0  0  0
  152.7020  137.7732  154.2512 O   0  0  0  0  0  0  0  0  0  0  0  0
  152.3433  139.6830  155.3392 N   0  0  0  0  0  0  0  0  0  0  0  0
  151.0348  139.3335  155.8785 C   0  0  0  0  0  0  0  0  0  0  0  0
  150.5963  140.3645  156.9237 C   0  0  0  0  0  0  0  0  0  0  0  0
  151.7578  140.9070  157.5343 O   0  0  0  0  0  0  0  0  0  0  0  0
  151.5225  142.0271  158.3766 C   0  0  2  0  0  0  0  0  0  0  0  0
  151.1245  143.2457  157.5179 C   0  0  0  0  0  0  0  0  0  0  0  0
  151.0077  144.5208  158.3658 C   0  0  0  0  0  0  0  0  0  0  0  0
  152.3085  144.7925  159.1343 C   0  0  0  0  0  0  0  0  0  0  0  0
  152.6986  143.5856  160.0010 C   0  0  0  0  0  0  0  0  0  0  0  0
  152.8250  142.2977  159.1630 C   0  0  1  0  0  0  0  0  0  0  0  0
  153.2083  141.1039  160.0537 C   0  0  0  0  0  0  0  0  0  0  0  0
  155.0223  137.4810  153.2507 N   0  0  0  0  0  0  0  0  0  0  0  0
  156.1266  137.1122  152.4728 O   0  0  0  0  0  0  0  0  0  0  0  0
  158.9236  138.6563  151.7954 H   0  0  0  0  0  0  0  0  0  0  0  0
  157.9288  138.3128  150.3787 H   0  0  0  0  0  0  0  0  0  0  0  0
  158.4442  136.9970  151.4365 H   0  0  0  0  0  0  0  0  0  0  0  0
  156.6752  140.3308  152.8188 H   0  0  0  0  0  0  0  0  0  0  0  0
  152.6982  140.6020  155.5589 H   0  0  0  0  0  0  0  0  0  0  0  0
  150.2928  139.2788  155.0803 H   0  0  0  0  0  0  0  0  0  0  0  0
  151.0956  138.3438  156.3322 H   0  0  0  0  0  0  0  0  0  0  0  0
  150.0178  141.1543  156.4441 H   0  0  0  0  0  0  0  0  0  0  0  0
  149.9533  139.8914  157.6676 H   0  0  0  0  0  0  0  0  0  0  0  0
  150.7277  141.8056  159.0919 H   0  0  0  0  0  0  0  0  0  0  0  0
  151.8685  143.3986  156.7350 H   0  0  0  0  0  0  0  0  0  0  0  0
  150.1773  143.0627  157.0110 H   0  0  0  0  0  0  0  0  0  0  0  0
  150.7682  145.3718  157.7275 H   0  0  0  0  0  0  0  0  0  0  0  0
  150.1807  144.4184  159.0694 H   0  0  0  0  0  0  0  0  0  0  0  0
  153.1119  145.0130  158.4301 H   0  0  0  0  0  0  0  0  0  0  0  0
  152.1933  145.6780  159.7599 H   0  0  0  0  0  0  0  0  0  0  0  0
  153.6406  143.7928  160.5101 H   0  0  0  0  0  0  0  0  0  0  0  0
  151.9507  143.4450  160.7826 H   0  0  0  0  0  0  0  0  0  0  0  0
  153.6313  142.4452  158.4428 H   0  0  0  0  0  0  0  0  0  0  0  0
  152.4300  140.8901  160.7867 H   0  0  0  0  0  0  0  0  0  0  0  0
  154.1330  141.2997  160.5966 H   0  0  0  0  0  0  0  0  0  0  0  0
  153.3638  140.2005  159.4630 H   0  0  0  0  0  0  0  0  0  0  0  0
  1  2  1  0  0  0  0
  1 21  1  0  0  0  0
  1 22  1  0  0  0  0
  1 23  1  0  0  0  0
  2 20  1  0  0  0  0
  2  3  2  0  0  0  0
  3  4  1  0  0  0  0
  3 24  1  0  0  0  0
  4  5  1  0  0  0  0
  4 19  2  0  0  0  0
  5  6  1  0  0  0  0
  6  7  2  0  0  0  0
  6  8  1  0  0  0  0
  8  9  1  0  0  0  0
  8 25  1  0  0  0  0
  9 10  1  0  0  0  0
  9 26  1  0  0  0  0
  9 27  1  0  0  0  0
 10 11  1  0  0  0  0
 10 28  1  0  0  0  0
 10 29  1  0  0  0  0
 11 12  1  0  0  0  0
 12 17  1  0  0  0  0
 12 13  1  0  0  0  0
 12 30  1  0  0  0  0
 13 14  1  0  0  0  0
 13 31  1  0  0  0  0
 13 32  1  0  0  0  0
 14 15  1  0  0  0  0
 14 33  1  0  0  0  0
 14 34  1  0  0  0  0
 15 16  1  0  0  0  0
 15 35  1  0  0  0  0
 15 36  1  0  0  0  0
 16 17  1  0  0  0  0
 16 37  1  0  0  0  0
 16 38  1  0  0  0  0
 17 18  1  0  0  0  0
 17 39  1  0  0  0  0
 18 40  1  0  0  0  0
 18 41  1  0  0  0  0
 18 42  1  0  0  0  0
 19 20  1  0  0  0  0
M  CHG  1   5  -1
M  END
> <s_m_source_file>
AV-unprocessed.smi

> <i_m_source_file_index>
2104

> <i_lp_mmshare_version>
43012

> <i_f3d_flags>
0

> <s_epik_input>
W0NIM11jMVtjSF1jKG5vMSlbTkhdQyg9TylbTkhdW0NIMl1bQ0gyXU9bQ0BASF0yW0NIMl1bQ0gyXVtDSDJdW0NIMl1bQ0BIXTJbQ0gzXQ==

> <s_epik_cmdline>
J2VwaWtfcHl0aG9uJywgJy1waCcsICc3LjAnLCAnLXRuJywgJzgnLCAnLW1hJywgJzIwMCcsICctbWV0YWxfYmluZGluZycsICctaW1hZScsICc8aW5maWxlLm1hZT4nLCAnLW9tYWUnLCAnPG91dGZpbGUubWFlPic=

> <r_lp_tautomer_probability>
1

> <r_epik_Ionization_Penalty>
6.47137

> <r_epik_Ionization_Penalty_Charging>
6.47125

> <r_epik_Ionization_Penalty_Neutral>
0.000118933

> <r_epik_State_Penalty>
6.47124

> <r_epik_Charging_Adjusted_Penalty>
12.9425

> <i_epik_Tot_Q>
-1

> <i_epik_Tot_abs_Q>
1

> <r_epik_Metal_State_Penalty>
2.3995

> <b_epik_Metal_Only>
1

> <s_lp_Force_Field>
OPLS_2005

> <r_lp_Energy>
5.464

> <b_lp_Chiralities_Consistent>
1

> <s_lp_Variant>
AV-unprocessed.smi:2104-5

> <Gold.Version>
5.8.1

> <Gold.Id.Protein>
6NUR|6NUR_protein|mol2

> <Gold.PLP.Fitness>
50.9908

> <Gold.PLP.PLP>
-43.4521

> <Gold.PLP.part.hbond>
-3.2892

> <Gold.PLP.part.metal>
0.0000

> <Gold.PLP.part.buried>
-2.8328

> <Gold.PLP.part.nonpolar>
-37.8474

> <Gold.PLP.part.repulsive>
0.3685

> <Gold.PLP.ligand.clash>
0.0000

> <Gold.PLP.ligand.torsion>
0.3464

> <Gold.PLP.Chemscore.Hbond>
2.7200

> <Gold.PLP.Chemscore.CHOScore>
0.0000

> <Gold.PLP.Chemscore.Metal>
0.0000

> <Gold.Chemscore.Hbonds>
donor molecule, donor type, donor heavy atom, donor atom, acceptor molecule, acceptor atom, score
      P1  H  7997  8009       L1     5  2.00
      P1  H 10752 10763       L1     7  0.22
      P1  H 10752 10765       L1    19  0.56

> <Gold.PLP.Chemscore.Internal.Correction>
0.0715

> <Gold.Rescore>
     Score         DG    S(hbond)    S(metal)    S(lipo)     H(rot)  DE(clash)    DE(int)     intcor
     16.25     -18.87       0.88        0.00     126.78       1.71       0.44       2.18       ----

> <Gold.Chemscore.Fitness>
16.2520

> <Gold.Chemscore.DG>
-18.8664

> <Gold.Chemscore.ZeroCoef>
-5.4800

> <Gold.Chemscore.Hbond>
0.8777

> <Gold.Chemscore.Metal>
0.0000

> <Gold.Chemscore.Lipo>
126.7799

> <Gold.Chemscore.Internal_Hbond>
0.0000

> <Gold.Chemscore.DEClash>
0.4365

> <Gold.Chemscore.DEInternal>
2.1780

> <Gold.Chemscore.Rot>
1.7103

> <Gold.Chemscore.Internal.Correction>
   9.000000E+99

> <Gold.Chemscore.Hbonds>
donor molecule, donor type, donor heavy atom, donor atom, acceptor molecule, acceptor atom, score
      P1  H  7997  8009       L1     5  0.59
      P1  H 10752 10763       L1     7  0.22
      P1  H 10752 10765       L1    19  0.10

> <Gold.Chemscore.Hbond.Weighted>
-2.9315

> <Gold.Chemscore.Metal.Weighted>
-0.0000

> <Gold.Chemscore.Lipo.Weighted>
-14.8333

> <Gold.Chemscore.Internal_Hbond.Weighted>
0.0000

> <Gold.Chemscore.DEClash.Weighted>
0.4365

> <Gold.Chemscore.DEInternal.Weighted>
2.1780

> <Gold.Chemscore.Rot.Weighted>
4.3784

> <Gold.Chemscore.Internal.Correction.Weighted>
   9.000000E+99

> <Gold.Protein.RotatedTorsions>
[ 6907 6896 6895 6894 ] final  176.33 input  -60.11 | X-H torsion
[ 7974 7965 7964 7962 ] final -143.27 input  175.53 | X-H torsion
[ 8008 7997 7996 7995 ] final -100.37 input   59.86 | X-H torsion
[ 10167 10162 10161 10158 ] final   46.15 input  -65.29 | X-H torsion
[ 10718 10713 10712 10709 ] final   -3.67 input   66.30 | X-H torsion
[ 10763 10752 10751 10750 ] final   59.18 input  -60.55 | X-H torsion
[ 11005 11000 10999 10996 ] final  125.83 input  -57.11 | X-H torsion

> <Gold.Protein.ActiveResidues>
 VAL166  LYS551  ARG553  GLY616  TRP617  ASP618  TYR619  PRO620  LYS621  CYS622 
 ASP623  PHE694  ASN695  SER759  ASP760  ASP761  ALA762  ILE779  LEU786  VAL792 
 PHE793  MET794  SER795  GLU796  ALA797  LYS798  CYS799  TRP800  GLU811  SER814 

> <Gold.Protein.RotatedAtoms>
  151.7219  133.3315  159.3317 H   0  0  0  0  0  0  0  0  0  0  0  0  # atno 6907 bound_to 6896
  150.7649  134.6441  159.6262 H   0  0  0  0  0  0  0  0  0  0  0  0  # atno 6908 bound_to 6896
  152.3647  134.6824  160.0247 H   0  0  0  0  0  0  0  0  0  0  0  0  # atno 6909 bound_to 6896
  144.8382  140.5856  143.5470 H   0  0  0  0  0  0  0  0  0  0  0  0  # atno 7974 bound_to 7965
  154.8276  140.0441  157.1455 H   0  0  0  0  0  0  0  0  0  0  0  0  # atno 8008 bound_to 7997
  154.9188  140.3024  155.5207 H   0  0  0  0  0  0  0  0  0  0  0  0  # atno 8009 bound_to 7997
  156.2985  140.2344  156.4236 H   0  0  0  0  0  0  0  0  0  0  0  0  # atno 8010 bound_to 7997
  140.3169  144.2753  150.6189 H   0  0  0  0  0  0  0  0  0  0  0  0  # atno 10167 bound_to 10162
  156.7726  130.5305  149.5765 H   0  0  0  0  0  0  0  0  0  0  0  0  # atno 10718 bound_to 10713
  152.9888  135.5581  154.5671 H   0  0  0  0  0  0  0  0  0  0  0  0  # atno 10763 bound_to 10752
  154.5079  135.2800  155.1369 H   0  0  0  0  0  0  0  0  0  0  0  0  # atno 10764 bound_to 10752
  154.2773  135.6351  153.5386 H   0  0  0  0  0  0  0  0  0  0  0  0  # atno 10765 bound_to 10752
  139.9426  134.9634  156.8617 H   0  0  0  0  0  0  0  0  0  0  0  0  # atno 11005 bound_to 11000
  145.4750  139.1500  143.3793 LP  0  0  0  0  0  0  0  0  0  0  0  0  # atno 17320 bound_to 7965
  146.2678  140.4884  142.8827 LP  0  0  0  0  0  0  0  0  0  0  0  0  # atno 17321 bound_to 7965
  140.5519  143.2205  151.7913 LP  0  0  0  0  0  0  0  0  0  0  0  0  # atno 17342 bound_to 10162
  139.4882  144.4465  151.9703 LP  0  0  0  0  0  0  0  0  0  0  0  0  # atno 17343 bound_to 10162
  156.1269  130.6150  151.0276 LP  0  0  0  0  0  0  0  0  0  0  0  0  # atno 17370 bound_to 10713
  157.6684  131.0867  150.7672 LP  0  0  0  0  0  0  0  0  0  0  0  0  # atno 17371 bound_to 10713
  140.5914  134.0258  155.7501 LP  0  0  0  0  0  0  0  0  0  0  0  0  # atno 17394 bound_to 11000
  141.1065  133.9684  157.2987 LP  0  0  0  0  0  0  0  0  0  0  0  0  # atno 17395 bound_to 11000

$$$$
