AV-unprocessed.smi:680|AV-procd|sdf|3323|dock1
  -GOLD-   22720 0293D 1   1.00000     0.00000
 Structure written by MMmdl.
 32 33  0  0  0  0  0  0  0  0  1 V2000
  146.8431  138.8885  151.9544 C   0  0  0  0  0  0  0  0  0  0  0  0
  147.2279  140.0454  152.8285 C   0  0  0  0  0  0  0  0  0  0  0  0
  148.3931  140.1963  153.6307 C   0  0  0  0  0  0  0  0  0  0  0  0
  148.2138  141.4303  154.1967 C   0  0  0  0  0  0  0  0  0  0  0  0
  149.0312  142.0925  155.0565 N   0  0  0  0  0  0  0  0  0  0  0  0
  150.2069  141.6984  155.5771 C   0  0  0  0  0  0  0  0  0  0  0  0
  150.7647  140.6248  155.3496 O   0  0  0  0  0  0  0  0  0  0  0  0
  150.7076  142.6341  156.3971 N   0  0  0  0  0  0  0  0  0  0  0  0
  151.9551  142.5271  157.1498 C   0  0  0  0  0  0  0  0  0  0  0  0
  151.7512  142.8533  158.6419 C   0  0  2  0  0  0  0  0  0  0  0  0
  151.6562  144.3737  158.8648 C   0  0  0  0  0  0  0  0  0  0  0  0
  151.0587  144.7907  160.5273 S   0  0  0  0  0  0  0  0  0  0  0  0
  152.3864  144.0655  161.5270 C   0  0  0  0  0  0  0  0  0  0  0  0
  152.4984  142.5510  161.3148 C   0  0  0  0  0  0  0  0  0  0  0  0
  153.0917  142.1429  159.6498 S   0  0  0  0  0  0  0  0  0  0  0  0
  147.0527  141.9952  153.7853 O   0  0  0  0  0  0  0  0  0  0  0  0
  146.4279  141.0984  152.9107 N   0  0  0  0  0  0  0  0  0  0  0  0
  147.5965  138.1013  151.9900 H   0  0  0  0  0  0  0  0  0  0  0  0
  146.7383  139.1997  150.9149 H   0  0  0  0  0  0  0  0  0  0  0  0
  145.8944  138.4543  152.2711 H   0  0  0  0  0  0  0  0  0  0  0  0
  149.2119  139.5038  153.7540 H   0  0  0  0  0  0  0  0  0  0  0  0
  148.6981  142.9988  155.3506 H   0  0  0  0  0  0  0  0  0  0  0  0
  150.1777  143.4843  156.5226 H   0  0  0  0  0  0  0  0  0  0  0  0
  152.4135  141.5428  157.0393 H   0  0  0  0  0  0  0  0  0  0  0  0
  152.6555  143.2375  156.7099 H   0  0  0  0  0  0  0  0  0  0  0  0
  150.8145  142.3968  158.9647 H   0  0  0  0  0  0  0  0  0  0  0  0
  152.6217  144.8515  158.6947 H   0  0  0  0  0  0  0  0  0  0  0  0
  150.9578  144.8135  158.1524 H   0  0  0  0  0  0  0  0  0  0  0  0
  153.3298  144.5584  161.2899 H   0  0  0  0  0  0  0  0  0  0  0  0
  152.1730  144.2755  162.5752 H   0  0  0  0  0  0  0  0  0  0  0  0
  153.2009  142.1309  162.0346 H   0  0  0  0  0  0  0  0  0  0  0  0
  151.5380  142.0644  161.4879 H   0  0  0  0  0  0  0  0  0  0  0  0
  1  2  1  0  0  0  0
  1 18  1  0  0  0  0
  1 19  1  0  0  0  0
  1 20  1  0  0  0  0
  2 17  2  0  0  0  0
  2  3  1  0  0  0  0
  3  4  2  0  0  0  0
  3 21  1  0  0  0  0
  4  5  1  0  0  0  0
  4 16  1  0  0  0  0
  5  6  1  0  0  0  0
  5 22  1  0  0  0  0
  6  7  2  0  0  0  0
  6  8  1  0  0  0  0
  8  9  1  0  0  0  0
  8 23  1  0  0  0  0
  9 10  1  0  0  0  0
  9 24  1  0  0  0  0
  9 25  1  0  0  0  0
 10 15  1  0  0  0  0
 10 11  1  0  0  0  0
 10 26  1  0  0  0  0
 11 12  1  0  0  0  0
 11 27  1  0  0  0  0
 11 28  1  0  0  0  0
 12 13  1  0  0  0  0
 13 14  1  0  0  0  0
 13 29  1  0  0  0  0
 13 30  1  0  0  0  0
 14 15  1  0  0  0  0
 14 31  1  0  0  0  0
 14 32  1  0  0  0  0
 16 17  1  0  0  0  0
M  END
> <s_m_source_file>
AV-unprocessed.smi

> <i_m_source_file_index>
680

> <i_lp_mmshare_version>
43012

> <i_f3d_flags>
0

> <s_epik_input>
W0NIM11jMVtjSF1jKG9uMSlbTkhdQyg9TylbTkhdW0NIMl1bQ0BASF0yW0NIMl1TW0NIMl1bQ0gyXVMy

> <s_epik_cmdline>
J2VwaWtfcHl0aG9uJywgJy1waCcsICc3LjAnLCAnLXRuJywgJzgnLCAnLW1hJywgJzIwMCcsICctbWV0YWxfYmluZGluZycsICctaW1hZScsICc8aW5maWxlLm1hZT4nLCAnLW9tYWUnLCAnPG91dGZpbGUubWFlPic=

> <r_epik_Ionization_Penalty>
0.000554698

> <r_epik_Ionization_Penalty_Charging>
0

> <r_epik_Ionization_Penalty_Neutral>
0.000554698

> <r_epik_State_Penalty>
0.000333438

> <r_epik_Charging_Adjusted_Penalty>
0.000333438

> <i_epik_Tot_Q>
0

> <i_epik_Tot_abs_Q>
0

> <r_epik_Metal_State_Penalty>
-0

> <b_epik_Metal_Only>
0

> <s_lp_Force_Field>
OPLS_2005

> <r_lp_Energy>
4.32293

> <b_lp_Chiralities_Consistent>
1

> <s_lp_Variant>
AV-unprocessed.smi:680-1

> <Gold.Version>
5.8.1

> <Gold.Id.Protein>
6NUR|6NUR_protein|mol2

> <Gold.PLP.Fitness>
40.4521

> <Gold.PLP.PLP>
-32.8830

> <Gold.PLP.part.hbond>
-3.0000

> <Gold.PLP.part.metal>
0.0000

> <Gold.PLP.part.buried>
-0.4412

> <Gold.PLP.part.nonpolar>
-30.6457

> <Gold.PLP.part.repulsive>
2.8472

> <Gold.PLP.ligand.clash>
0.0000

> <Gold.PLP.ligand.torsion>
0.2177

> <Gold.PLP.Chemscore.Hbond>
2.6651

> <Gold.PLP.Chemscore.CHOScore>
0.0000

> <Gold.PLP.Chemscore.Metal>
0.0000

> <Gold.Chemscore.Hbonds>
donor molecule, donor type, donor heavy atom, donor atom, acceptor molecule, acceptor atom, score
      L1  H     5    22       P1  8028  1.00
      L1  H     8    23       P1  8028  0.90
      P1  H  7989  7998       L1     7  0.86

> <Gold.PLP.Chemscore.Internal.Correction>
0.0092

> <Gold.Rescore>
     Score         DG    S(hbond)    S(metal)    S(lipo)     H(rot)  DE(clash)    DE(int)     intcor
     16.65     -20.46       1.93        0.00     100.47       1.26       2.50       1.31       ----

> <Gold.Chemscore.Fitness>
16.6479

> <Gold.Chemscore.DG>
-20.4592

> <Gold.Chemscore.ZeroCoef>
-5.4800

> <Gold.Chemscore.Hbond>
1.9303

> <Gold.Chemscore.Metal>
0.0000

> <Gold.Chemscore.Lipo>
100.4729

> <Gold.Chemscore.Internal_Hbond>
0.0000

> <Gold.Chemscore.DEClash>
2.5030

> <Gold.Chemscore.DEInternal>
1.3084

> <Gold.Chemscore.Rot>
1.2590

> <Gold.Chemscore.Internal.Correction>
   9.000000E+99

> <Gold.Chemscore.Hbonds>
donor molecule, donor type, donor heavy atom, donor atom, acceptor molecule, acceptor atom, score
      L1  H     5    22       P1  8028  0.98
      L1  H     8    23       P1  8028  0.86
      P1  H  7989  7998       L1     7  0.36

> <Gold.Chemscore.Hbond.Weighted>
-6.4471

> <Gold.Chemscore.Metal.Weighted>
-0.0000

> <Gold.Chemscore.Lipo.Weighted>
-11.7553

> <Gold.Chemscore.Internal_Hbond.Weighted>
0.0000

> <Gold.Chemscore.DEClash.Weighted>
2.5030

> <Gold.Chemscore.DEInternal.Weighted>
1.3084

> <Gold.Chemscore.Rot.Weighted>
3.2232

> <Gold.Chemscore.Internal.Correction.Weighted>
   9.000000E+99

> <Gold.Protein.RotatedTorsions>
[ 6907 6896 6895 6894 ] final  -77.06 input  -60.11 | X-H torsion
[ 7974 7965 7964 7962 ] final -177.95 input  175.53 | X-H torsion
[ 8008 7997 7996 7995 ] final -173.76 input   59.86 | X-H torsion
[ 10167 10162 10161 10158 ] final  161.27 input  -65.29 | X-H torsion
[ 10718 10713 10712 10709 ] final   93.44 input   66.30 | X-H torsion
[ 10763 10752 10751 10750 ] final   39.05 input  -60.55 | X-H torsion
[ 11005 11000 10999 10996 ] final   29.20 input  -57.11 | X-H torsion

> <Gold.Protein.ActiveResidues>
 VAL166  LYS551  ARG553  GLY616  TRP617  ASP618  TYR619  PRO620  LYS621  CYS622 
 ASP623  PHE694  ASN695  SER759  ASP760  ASP761  ALA762  ILE779  LEU786  VAL792 
 PHE793  MET794  SER795  GLU796  ALA797  LYS798  CYS799  TRP800  GLU811  SER814 

> <Gold.Protein.RotatedAtoms>
  150.7009  134.4480  159.5322 H   0  0  0  0  0  0  0  0  0  0  0  0  # atno 6907 bound_to 6896
  152.2177  134.8439  160.0499 H   0  0  0  0  0  0  0  0  0  0  0  0  # atno 6908 bound_to 6896
  151.9301  133.3574  159.3964 H   0  0  0  0  0  0  0  0  0  0  0  0  # atno 6909 bound_to 6896
  144.7129  140.0943  143.6420 H   0  0  0  0  0  0  0  0  0  0  0  0  # atno 7974 bound_to 7965
  155.9615  140.1145  157.0892 H   0  0  0  0  0  0  0  0  0  0  0  0  # atno 8008 bound_to 7997
  154.4133  140.1181  156.5252 H   0  0  0  0  0  0  0  0  0  0  0  0  # atno 8009 bound_to 7997
  155.6714  140.3473  155.4822 H   0  0  0  0  0  0  0  0  0  0  0  0  # atno 8010 bound_to 7997
  139.4847  144.4553  151.8776 H   0  0  0  0  0  0  0  0  0  0  0  0  # atno 10167 bound_to 10162
  157.6954  131.0478  150.4035 H   0  0  0  0  0  0  0  0  0  0  0  0  # atno 10718 bound_to 10713
  152.9980  135.6232  154.2403 H   0  0  0  0  0  0  0  0  0  0  0  0  # atno 10763 bound_to 10752
  154.2144  135.2798  155.2949 H   0  0  0  0  0  0  0  0  0  0  0  0  # atno 10764 bound_to 10752
  154.5580  135.5713  153.7040 H   0  0  0  0  0  0  0  0  0  0  0  0  # atno 10765 bound_to 10752
  140.3075  134.2687  155.7741 H   0  0  0  0  0  0  0  0  0  0  0  0  # atno 11005 bound_to 11000
  145.9593  139.2789  143.1165 LP  0  0  0  0  0  0  0  0  0  0  0  0  # atno 17320 bound_to 7965
  145.9238  140.9097  143.0391 LP  0  0  0  0  0  0  0  0  0  0  0  0  # atno 17321 bound_to 7965
  140.4012  144.2490  150.5893 LP  0  0  0  0  0  0  0  0  0  0  0  0  # atno 17342 bound_to 10162
  140.5055  143.2305  151.8614 LP  0  0  0  0  0  0  0  0  0  0  0  0  # atno 17343 bound_to 10162
  156.4426  130.3995  149.6687 LP  0  0  0  0  0  0  0  0  0  0  0  0  # atno 17370 bound_to 10713
  156.3865  130.7606  151.2603 LP  0  0  0  0  0  0  0  0  0  0  0  0  # atno 17371 bound_to 10713
  141.2115  133.7686  156.9858 LP  0  0  0  0  0  0  0  0  0  0  0  0  # atno 17394 bound_to 11000
  140.1054  134.9509  157.1986 LP  0  0  0  0  0  0  0  0  0  0  0  0  # atno 17395 bound_to 11000

$$$$
