AV-unprocessed.smi:3305|AV-procd|sdf|12699|dock5
  -GOLD-   2272019 33D 1   1.00000     0.00000
 Structure written by MMmdl.
 32 33  0  0  0  0  0  0  0  0  1 V2000
  152.5261  143.7690  161.9042 C   0  0  0  0  0  0  0  0  0  0  0  0
  152.1824  143.8825  160.4525 C   0  0  0  0  0  0  0  0  0  0  0  0
  152.2144  145.0152  159.6778 C   0  0  0  0  0  0  0  0  0  0  0  0
  151.7113  144.6968  158.0397 S   0  0  0  0  0  0  0  0  0  0  0  0
  151.4856  143.0061  158.4705 C   0  0  0  0  0  0  0  0  0  0  0  0
  150.9619  141.9772  157.5190 C   0  0  0  0  0  0  0  0  0  0  0  0
  151.9032  140.7701  157.3217 C   0  0  0  0  0  0  0  0  0  0  0  0
  151.3131  139.7162  156.5016 N   0  0  0  0  0  0  0  0  0  0  0  0
  151.8039  139.2817  155.3311 C   0  0  0  0  0  0  0  0  0  0  0  0
  152.7762  139.7945  154.7758 O   0  0  0  0  0  0  0  0  0  0  0  0
  151.1007  138.0636  154.7120 C   0  0  2  0  0  0  0  0  0  0  0  0
  149.6198  138.3440  154.4342 C   0  0  0  0  0  0  0  0  0  0  0  0
  148.8608  137.3947  155.3642 C   0  0  0  0  0  0  0  0  0  0  0  0
  149.8109  137.0233  156.3489 O   0  0  0  0  0  0  0  0  0  0  0  0
  151.0516  136.8728  155.6791 C   0  0  0  0  0  0  0  0  0  0  0  0
  151.7693  142.7480  159.7505 N   0  0  0  0  0  0  0  0  0  0  0  0
  152.8435  144.7270  162.3161 H   0  0  0  0  0  0  0  0  0  0  0  0
  153.3362  143.0569  162.0625 H   0  0  0  0  0  0  0  0  0  0  0  0
  151.6681  143.4286  162.4845 H   0  0  0  0  0  0  0  0  0  0  0  0
  152.4955  146.0156  159.9719 H   0  0  0  0  0  0  0  0  0  0  0  0
  149.9912  141.6331  157.8762 H   0  0  0  0  0  0  0  0  0  0  0  0
  150.7767  142.4609  156.5589 H   0  0  0  0  0  0  0  0  0  0  0  0
  152.8092  141.1014  156.8138 H   0  0  0  0  0  0  0  0  0  0  0  0
  152.2189  140.3691  158.2860 H   0  0  0  0  0  0  0  0  0  0  0  0
  150.5101  139.2383  156.8842 H   0  0  0  0  0  0  0  0  0  0  0  0
  151.6191  137.7747  153.7964 H   0  0  0  0  0  0  0  0  0  0  0  0
  149.3485  139.3791  154.6501 H   0  0  0  0  0  0  0  0  0  0  0  0
  149.3626  138.1591  153.3909 H   0  0  0  0  0  0  0  0  0  0  0  0
  147.9819  137.8586  155.8121 H   0  0  0  0  0  0  0  0  0  0  0  0
  148.5379  136.5037  154.8236 H   0  0  0  0  0  0  0  0  0  0  0  0
  151.0588  135.9303  155.1294 H   0  0  0  0  0  0  0  0  0  0  0  0
  151.8800  136.8498  156.3884 H   0  0  0  0  0  0  0  0  0  0  0  0
  1  2  1  0  0  0  0
  1 17  1  0  0  0  0
  1 18  1  0  0  0  0
  1 19  1  0  0  0  0
  2 16  1  0  0  0  0
  2  3  2  0  0  0  0
  3  4  1  0  0  0  0
  3 20  1  0  0  0  0
  4  5  1  0  0  0  0
  5  6  1  0  0  0  0
  5 16  2  0  0  0  0
  6  7  1  0  0  0  0
  6 21  1  0  0  0  0
  6 22  1  0  0  0  0
  7  8  1  0  0  0  0
  7 23  1  0  0  0  0
  7 24  1  0  0  0  0
  8  9  1  0  0  0  0
  8 25  1  0  0  0  0
  9 10  2  0  0  0  0
  9 11  1  0  0  0  0
 11 15  1  0  0  0  0
 11 12  1  0  0  0  0
 11 26  1  0  0  0  0
 12 13  1  0  0  0  0
 12 27  1  0  0  0  0
 12 28  1  0  0  0  0
 13 14  1  0  0  0  0
 13 29  1  0  0  0  0
 13 30  1  0  0  0  0
 14 15  1  0  0  0  0
 15 31  1  0  0  0  0
 15 32  1  0  0  0  0
M  END
> <s_m_source_file>
AV-unprocessed.smi

> <i_m_source_file_index>
3305

> <i_lp_mmshare_version>
43012

> <i_f3d_flags>
0

> <s_epik_input>
W0NIM11jMVtjSF1zYyhuMSlbQ0gyXVtDSDJdW05IXUMoPU8pW0NAQEhdMltDSDJdW0NIMl1PW0NIMl0y

> <s_epik_cmdline>
J2VwaWtfcHl0aG9uJywgJy1waCcsICc3LjAnLCAnLXRuJywgJzgnLCAnLW1hJywgJzIwMCcsICctbWV0YWxfYmluZGluZycsICctaW1hZScsICc8aW5maWxlLm1hZT4nLCAnLW9tYWUnLCAnPG91dGZpbGUubWFlPic=

> <r_epik_Ionization_Penalty>
0.00102754

> <r_epik_Ionization_Penalty_Charging>
0

> <r_epik_Ionization_Penalty_Neutral>
0.00102754

> <r_epik_State_Penalty>
0.000671034

> <r_epik_Charging_Adjusted_Penalty>
0.000671034

> <i_epik_Tot_Q>
0

> <i_epik_Tot_abs_Q>
0

> <r_epik_Metal_State_Penalty>
-0

> <b_epik_Metal_Only>
0

> <s_lp_Force_Field>
OPLS_2005

> <r_lp_Energy>
8.47785

> <b_lp_Chiralities_Consistent>
1

> <s_lp_Variant>
AV-unprocessed.smi:3305-1

> <Gold.Version>
5.8.1

> <Gold.Id.Protein>
6NUR|6NUR_protein|mol2

> <Gold.PLP.Fitness>
39.7839

> <Gold.PLP.PLP>
-35.8928

> <Gold.PLP.part.hbond>
-1.9558

> <Gold.PLP.part.metal>
0.0000

> <Gold.PLP.part.buried>
-4.9267

> <Gold.PLP.part.nonpolar>
-27.9687

> <Gold.PLP.part.repulsive>
0.1551

> <Gold.PLP.ligand.clash>
0.0000

> <Gold.PLP.ligand.torsion>
0.0344

> <Gold.PLP.Chemscore.Hbond>
1.3049

> <Gold.PLP.Chemscore.CHOScore>
0.0000

> <Gold.PLP.Chemscore.Metal>
0.0000

> <Gold.Chemscore.Hbonds>
donor molecule, donor type, donor heavy atom, donor atom, acceptor molecule, acceptor atom, score
      P1  H  7989  7998       L1    10  0.35
      P1  H  7997  8009       L1    10  0.96

> <Gold.PLP.Chemscore.Internal.Correction>
0.0454

> <Gold.Rescore>
     Score         DG    S(hbond)    S(metal)    S(lipo)     H(rot)  DE(clash)    DE(int)     intcor
     15.65     -16.25       1.00        0.00      96.70       1.52       0.05       0.56       ----

> <Gold.Chemscore.Fitness>
15.6454

> <Gold.Chemscore.DG>
-16.2526

> <Gold.Chemscore.ZeroCoef>
-5.4800

> <Gold.Chemscore.Hbond>
0.9997

> <Gold.Chemscore.Metal>
0.0000

> <Gold.Chemscore.Lipo>
96.7045

> <Gold.Chemscore.Internal_Hbond>
0.0000

> <Gold.Chemscore.DEClash>
0.0456

> <Gold.Chemscore.DEInternal>
0.5616

> <Gold.Chemscore.Rot>
1.5159

> <Gold.Chemscore.Internal.Correction>
   9.000000E+99

> <Gold.Chemscore.Hbonds>
donor molecule, donor type, donor heavy atom, donor atom, acceptor molecule, acceptor atom, score
      P1  H  7989  7998       L1    10  0.04
      P1  H  7997  8009       L1    10  0.89

> <Gold.Chemscore.Hbond.Weighted>
-3.3388

> <Gold.Chemscore.Metal.Weighted>
-0.0000

> <Gold.Chemscore.Lipo.Weighted>
-11.3144

> <Gold.Chemscore.Internal_Hbond.Weighted>
0.0000

> <Gold.Chemscore.DEClash.Weighted>
0.0456

> <Gold.Chemscore.DEInternal.Weighted>
0.5616

> <Gold.Chemscore.Rot.Weighted>
3.8807

> <Gold.Chemscore.Internal.Correction.Weighted>
   9.000000E+99

> <Gold.Protein.RotatedTorsions>
[ 6907 6896 6895 6894 ] final  141.65 input  -60.11 | X-H torsion
[ 7974 7965 7964 7962 ] final  -89.83 input  175.53 | X-H torsion
[ 8008 7997 7996 7995 ] final -133.68 input   59.86 | X-H torsion
[ 10167 10162 10161 10158 ] final  -52.53 input  -65.29 | X-H torsion
[ 10718 10713 10712 10709 ] final   -5.53 input   66.30 | X-H torsion
[ 10763 10752 10751 10750 ] final -162.02 input  -60.55 | X-H torsion
[ 11005 11000 10999 10996 ] final -125.78 input  -57.11 | X-H torsion

> <Gold.Protein.ActiveResidues>
 VAL166  LYS551  ARG553  GLY616  TRP617  ASP618  TYR619  PRO620  LYS621  CYS622 
 ASP623  PHE694  ASN695  SER759  ASP760  ASP761  ALA762  ILE779  LEU786  VAL792 
 PHE793  MET794  SER795  GLU796  ALA797  LYS798  CYS799  TRP800  GLU811  SER814 

> <Gold.Protein.RotatedAtoms>
  152.2284  133.5039  159.5201 H   0  0  0  0  0  0  0  0  0  0  0  0  # atno 6907 bound_to 6896
  150.7031  134.1249  159.4057 H   0  0  0  0  0  0  0  0  0  0  0  0  # atno 6908 bound_to 6896
  151.9170  135.0314  160.0570 H   0  0  0  0  0  0  0  0  0  0  0  0  # atno 6909 bound_to 6896
  145.4346  140.9557  143.2109 H   0  0  0  0  0  0  0  0  0  0  0  0  # atno 7974 bound_to 7965
  155.3495  140.0476  157.3046 H   0  0  0  0  0  0  0  0  0  0  0  0  # atno 8008 bound_to 7997
  154.5234  140.2233  155.8898 H   0  0  0  0  0  0  0  0  0  0  0  0  # atno 8009 bound_to 7997
  156.1714  140.3095  155.8987 H   0  0  0  0  0  0  0  0  0  0  0  0  # atno 8010 bound_to 7997
  140.6532  143.2580  151.4662 H   0  0  0  0  0  0  0  0  0  0  0  0  # atno 10167 bound_to 10162
  156.7453  130.5222  149.5815 H   0  0  0  0  0  0  0  0  0  0  0  0  # atno 10718 bound_to 10713
  154.7251  135.3034  154.8984 H   0  0  0  0  0  0  0  0  0  0  0  0  # atno 10763 bound_to 10752
  153.9843  135.6726  153.4755 H   0  0  0  0  0  0  0  0  0  0  0  0  # atno 10764 bound_to 10752
  153.0868  135.4980  154.8531 H   0  0  0  0  0  0  0  0  0  0  0  0  # atno 10765 bound_to 10752
  140.9735  134.0773  157.3844 H   0  0  0  0  0  0  0  0  0  0  0  0  # atno 11005 bound_to 11000
  144.8161  139.5875  143.7008 LP  0  0  0  0  0  0  0  0  0  0  0  0  # atno 17320 bound_to 7965
  146.2589  139.6365  142.9376 LP  0  0  0  0  0  0  0  0  0  0  0  0  # atno 17321 bound_to 7965
  139.5750  144.1839  152.1891 LP  0  0  0  0  0  0  0  0  0  0  0  0  # atno 17342 bound_to 10162
  140.1147  144.5426  150.6902 LP  0  0  0  0  0  0  0  0  0  0  0  0  # atno 17343 bound_to 10162
  156.1437  130.6262  151.0503 LP  0  0  0  0  0  0  0  0  0  0  0  0  # atno 17370 bound_to 10713
  157.6801  131.0840  150.7393 LP  0  0  0  0  0  0  0  0  0  0  0  0  # atno 17371 bound_to 10713
  139.8921  135.0123  156.6829 LP  0  0  0  0  0  0  0  0  0  0  0  0  # atno 17394 bound_to 11000
  140.7294  133.9072  155.8201 LP  0  0  0  0  0  0  0  0  0  0  0  0  # atno 17395 bound_to 11000

$$$$
