AV-unprocessed.smi:269|AV-procd|sdf|2042|dock9
  -GOLD-   2262021263D 1   1.00000     0.00000
 Structure written by MMmdl.
 62 65  0  0  0  0  0  0  0  0  2 V2000
  143.1917  128.7792  158.1619 C   0  0  0  0  0  0  0  0  0  0  0  0
  142.0356  129.7775  158.0159 C   0  0  0  0  0  0  0  0  0  0  0  0
  142.5158  131.1127  157.6785 N   0  0  0  0  0  0  0  0  0  0  0  0
  143.2669  131.8858  158.4773 C   0  0  0  0  0  0  0  0  0  0  0  0
  143.6501  131.5347  159.5938 O   0  0  0  0  0  0  0  0  0  0  0  0
  143.6553  133.2599  157.9213 C   0  0  0  0  0  0  0  0  0  0  0  0
  144.3744  133.1791  156.6240 N   0  3  0  0  0  0  0  0  0  0  0  0
  145.6166  132.3627  156.6915 C   0  0  0  0  0  0  0  0  0  0  0  0
  146.2730  132.2393  155.3056 C   0  0  0  0  0  0  0  0  0  0  0  0
  146.5120  133.5591  154.7276 N   0  0  0  0  0  0  0  0  0  0  0  0
  147.7144  134.1310  155.0068 C   0  0  0  0  0  0  0  0  0  0  0  0
  148.8592  133.4189  154.8290 N   0  0  0  0  0  0  0  0  0  0  0  0
  150.0482  133.9716  155.0839 C   0  0  0  0  0  0  0  0  0  0  0  0
  150.3179  135.2019  155.5215 N   0  0  0  0  0  0  0  0  0  0  0  0
  149.1765  135.9201  155.7200 C   0  0  0  0  0  0  0  0  0  0  0  0
  147.8467  135.4664  155.4864 C   0  0  0  0  0  0  0  0  0  0  0  0
  146.9447  136.4750  155.8024 N   0  0  0  0  0  0  0  0  0  0  0  0
  147.6969  137.4704  156.1831 C   0  0  0  0  0  0  0  0  0  0  0  0
  149.0512  137.2197  156.1827 N   0  0  0  0  0  0  0  0  0  0  0  0
  150.1113  138.1478  156.5561 C   0  0  0  0  0  0  0  0  0  0  0  0
  150.2964  139.3660  155.5954 C   0  0  0  0  0  0  0  0  0  0  0  0
  150.4823  138.8960  154.1279 C   0  0  0  0  0  0  0  0  0  0  0  0
  149.2658  138.4770  153.5416 O   0  0  0  0  0  0  0  0  0  0  0  0
  149.0744  140.3184  155.6331 C   0  0  0  0  0  0  0  0  0  0  0  0
  148.9659  141.0997  156.9557 C   0  0  0  0  0  0  0  0  0  0  0  0
  150.1621  141.8330  157.1832 O   0  0  0  0  0  0  0  0  0  0  0  0
  151.3017  140.9943  157.3200 C   0  0  0  0  0  0  0  0  0  0  0  0
  151.5309  140.2008  156.0206 C   0  0  0  0  0  0  0  0  0  0  0  0
  145.3171  134.4006  154.6572 C   0  0  0  0  0  0  0  0  0  0  0  0
  144.6246  134.5175  156.0301 C   0  0  0  0  0  0  0  0  0  0  0  0
  142.8138  127.7811  158.3847 H   0  0  0  0  0  0  0  0  0  0  0  0
  143.8648  129.0648  158.9710 H   0  0  0  0  0  0  0  0  0  0  0  0
  143.7769  128.7154  157.2438 H   0  0  0  0  0  0  0  0  0  0  0  0
  141.3635  129.4475  157.2233 H   0  0  0  0  0  0  0  0  0  0  0  0
  141.4429  129.8087  158.9317 H   0  0  0  0  0  0  0  0  0  0  0  0
  142.2513  131.4753  156.7736 H   0  0  0  0  0  0  0  0  0  0  0  0
  142.7274  133.8183  157.7903 H   0  0  0  0  0  0  0  0  0  0  0  0
  144.2552  133.8133  158.6461 H   0  0  0  0  0  0  0  0  0  0  0  0
  146.3143  132.8218  157.3939 H   0  0  0  0  0  0  0  0  0  0  0  0
  145.3957  131.3656  157.0727 H   0  0  0  0  0  0  0  0  0  0  0  0
  147.1872  131.6536  155.3879 H   0  0  0  0  0  0  0  0  0  0  0  0
  145.6171  131.6847  154.6334 H   0  0  0  0  0  0  0  0  0  0  0  0
  150.9063  133.3382  154.9125 H   0  0  0  0  0  0  0  0  0  0  0  0
  147.2779  138.4196  156.4839 H   0  0  0  0  0  0  0  0  0  0  0  0
  149.9149  138.4786  157.5750 H   0  0  0  0  0  0  0  0  0  0  0  0
  151.0396  137.5786  156.6177 H   0  0  0  0  0  0  0  0  0  0  0  0
  150.9182  139.6833  153.5133 H   0  0  0  0  0  0  0  0  0  0  0  0
  151.1784  138.0576  154.0795 H   0  0  0  0  0  0  0  0  0  0  0  0
  149.2850  138.6911  152.6217 H   0  0  0  0  0  0  0  0  0  0  0  0
  149.1590  141.0471  154.8257 H   0  0  0  0  0  0  0  0  0  0  0  0
  148.1491  139.7770  155.4389 H   0  0  0  0  0  0  0  0  0  0  0  0
  148.1333  141.8012  156.9033 H   0  0  0  0  0  0  0  0  0  0  0  0
  148.7651  140.4414  157.8007 H   0  0  0  0  0  0  0  0  0  0  0  0
  152.1695  141.6208  157.5274 H   0  0  0  0  0  0  0  0  0  0  0  0
  151.1838  140.3337  158.1795 H   0  0  0  0  0  0  0  0  0  0  0  0
  152.4062  139.5601  156.1338 H   0  0  0  0  0  0  0  0  0  0  0  0
  151.7796  140.9120  155.2315 H   0  0  0  0  0  0  0  0  0  0  0  0
  145.5533  135.3877  154.2576 H   0  0  0  0  0  0  0  0  0  0  0  0
  144.6302  133.9457  153.9427 H   0  0  0  0  0  0  0  0  0  0  0  0
  143.6813  135.0524  155.9138 H   0  0  0  0  0  0  0  0  0  0  0  0
  145.2370  135.1046  156.7158 H   0  0  0  0  0  0  0  0  0  0  0  0
  143.7509  132.7027  155.9875 H   0  0  0  0  0  0  0  0  0  0  0  0
  1  2  1  0  0  0  0
  1 31  1  0  0  0  0
  1 32  1  0  0  0  0
  1 33  1  0  0  0  0
  2  3  1  0  0  0  0
  2 34  1  0  0  0  0
  2 35  1  0  0  0  0
  3  4  1  0  0  0  0
  3 36  1  0  0  0  0
  4  5  2  0  0  0  0
  4  6  1  0  0  0  0
  6  7  1  0  0  0  0
  6 37  1  0  0  0  0
  6 38  1  0  0  0  0
  7 30  1  0  0  0  0
  7  8  1  0  0  0  0
  7 62  1  0  0  0  0
  8  9  1  0  0  0  0
  8 39  1  0  0  0  0
  8 40  1  0  0  0  0
  9 10  1  0  0  0  0
  9 41  1  0  0  0  0
  9 42  1  0  0  0  0
 10 11  1  0  0  0  0
 10 29  1  0  0  0  0
 11 16  1  0  0  0  0
 11 12  2  0  0  0  0
 12 13  1  0  0  0  0
 13 14  2  0  0  0  0
 13 43  1  0  0  0  0
 14 15  1  0  0  0  0
 15 19  1  0  0  0  0
 15 16  2  0  0  0  0
 16 17  1  0  0  0  0
 17 18  2  0  0  0  0
 18 19  1  0  0  0  0
 18 44  1  0  0  0  0
 19 20  1  0  0  0  0
 20 21  1  0  0  0  0
 20 45  1  0  0  0  0
 20 46  1  0  0  0  0
 21 28  1  0  0  0  0
 21 22  1  0  0  0  0
 21 24  1  0  0  0  0
 22 23  1  0  0  0  0
 22 47  1  0  0  0  0
 22 48  1  0  0  0  0
 23 49  1  0  0  0  0
 24 25  1  0  0  0  0
 24 50  1  0  0  0  0
 24 51  1  0  0  0  0
 25 26  1  0  0  0  0
 25 52  1  0  0  0  0
 25 53  1  0  0  0  0
 26 27  1  0  0  0  0
 27 28  1  0  0  0  0
 27 54  1  0  0  0  0
 27 55  1  0  0  0  0
 28 56  1  0  0  0  0
 28 57  1  0  0  0  0
 29 30  1  0  0  0  0
 29 58  1  0  0  0  0
 29 59  1  0  0  0  0
 30 60  1  0  0  0  0
 30 61  1  0  0  0  0
M  CHG  1   7   1
M  END
> <s_m_source_file>
AV-unprocessed.smi

> <i_m_source_file_index>
269

> <i_lp_mmshare_version>
43012

> <i_f3d_flags>
0

> <s_epik_input>
W0NIM11bQ0gyXVtOSF1DKD1PKVtDSDJdTjFbQ0gyXVtDSDJdTihbQ0gyXVtDSDJdMSljKG5bY0hdbjIpYyhjMjMpbltjSF1uM1tDSDJdQzQoW0NIMl1bT0hdKVtDSDJdW0NIMl1PW0NIMl1bQ0gyXTQ=

> <s_epik_cmdline>
J2VwaWtfcHl0aG9uJywgJy1waCcsICc3LjAnLCAnLXRuJywgJzgnLCAnLW1hJywgJzIwMCcsICctbWV0YWxfYmluZGluZycsICctaW1hZScsICc8aW5maWxlLm1hZT4nLCAnLW9tYWUnLCAnPG91dGZpbGUubWFlPic=

> <r_lp_tautomer_probability>
1

> <r_epik_Ionization_Penalty>
0.146524

> <r_epik_Ionization_Penalty_Charging>
0.146459

> <r_epik_Ionization_Penalty_Neutral>
6.45448e-05

> <r_epik_State_Penalty>
0.136576

> <r_epik_Charging_Adjusted_Penalty>
0.283035

> <i_epik_Tot_Q>
1

> <i_epik_Tot_abs_Q>
1

> <r_epik_Metal_State_Penalty>
0.148847

> <b_epik_Metal_Only>
0

> <s_lp_Force_Field>
OPLS_2005

> <r_lp_Energy>
42.6281

> <b_lp_Chiralities_Consistent>
1

> <s_lp_Variant>
AV-unprocessed.smi:269-1

> <Gold.Version>
5.8.1

> <Gold.Id.Protein>
6NUR|6NUR_protein|mol2

> <Gold.PLP.Fitness>
41.5520

> <Gold.PLP.PLP>
-30.0793

> <Gold.PLP.part.hbond>
-4.1232

> <Gold.PLP.part.metal>
0.0000

> <Gold.PLP.part.buried>
-7.0455

> <Gold.PLP.part.nonpolar>
-19.2716

> <Gold.PLP.part.repulsive>
0.3585

> <Gold.PLP.ligand.clash>
0.0000

> <Gold.PLP.ligand.torsion>
0.5384

> <Gold.PLP.Chemscore.Hbond>
4.0000

> <Gold.PLP.Chemscore.CHOScore>
0.0000

> <Gold.PLP.Chemscore.Metal>
0.0000

> <Gold.Chemscore.Hbonds>
donor molecule, donor type, donor heavy atom, donor atom, acceptor molecule, acceptor atom, score
      L1  H     3    36       P1 10957  0.99
      L1  H     7    62       P1 10957  2.00
      L1  H    23    49       P1  7957  1.00

> <Gold.PLP.Chemscore.Internal.Correction>
0.5495

> <Gold.Rescore>
     Score         DG    S(hbond)    S(metal)    S(lipo)     H(rot)  DE(clash)    DE(int)     intcor
      9.58     -12.66       2.73        0.00      57.25       3.37       0.01       3.07       ----

> <Gold.Chemscore.Fitness>
9.5841

> <Gold.Chemscore.DG>
-12.6648

> <Gold.Chemscore.ZeroCoef>
-5.4800

> <Gold.Chemscore.Hbond>
2.7316

> <Gold.Chemscore.Metal>
0.0000

> <Gold.Chemscore.Lipo>
57.2489

> <Gold.Chemscore.Internal_Hbond>
0.0000

> <Gold.Chemscore.DEClash>
0.0141

> <Gold.Chemscore.DEInternal>
3.0665

> <Gold.Chemscore.Rot>
3.3738

> <Gold.Chemscore.Internal.Correction>
   9.000000E+99

> <Gold.Chemscore.Hbonds>
donor molecule, donor type, donor heavy atom, donor atom, acceptor molecule, acceptor atom, score
      L1  H     3    36       P1 10957  0.37
      L1  H     7    62       P1 10957  1.00
      L1  H    23    49       P1  7957  0.81

> <Gold.Chemscore.Hbond.Weighted>
-9.1235

> <Gold.Chemscore.Metal.Weighted>
-0.0000

> <Gold.Chemscore.Lipo.Weighted>
-6.6981

> <Gold.Chemscore.Internal_Hbond.Weighted>
0.0000

> <Gold.Chemscore.DEClash.Weighted>
0.0141

> <Gold.Chemscore.DEInternal.Weighted>
3.0665

> <Gold.Chemscore.Rot.Weighted>
8.6369

> <Gold.Chemscore.Internal.Correction.Weighted>
   9.000000E+99

> <Gold.Protein.RotatedTorsions>
[ 6907 6896 6895 6894 ] final -120.10 input  -60.11 | X-H torsion
[ 7974 7965 7964 7962 ] final -161.89 input  175.53 | X-H torsion
[ 8008 7997 7996 7995 ] final  -50.14 input   59.86 | X-H torsion
[ 10167 10162 10161 10158 ] final   54.49 input  -65.29 | X-H torsion
[ 10718 10713 10712 10709 ] final   88.82 input   66.30 | X-H torsion
[ 10763 10752 10751 10750 ] final   14.05 input  -60.55 | X-H torsion
[ 11005 11000 10999 10996 ] final  147.70 input  -57.11 | X-H torsion

> <Gold.Protein.ActiveResidues>
 VAL166  LYS551  ARG553  GLY616  TRP617  ASP618  TYR619  PRO620  LYS621  CYS622 
 ASP623  PHE694  ASN695  SER759  ASP760  ASP761  ALA762  ILE779  LEU786  VAL792 
 PHE793  MET794  SER795  GLU796  ALA797  LYS798  CYS799  TRP800  GLU811  SER814 

> <Gold.Protein.RotatedAtoms>
  150.8363  133.8008  159.3077 H   0  0  0  0  0  0  0  0  0  0  0  0  # atno 6907 bound_to 6896
  151.5722  135.1060  160.0007 H   0  0  0  0  0  0  0  0  0  0  0  0  # atno 6908 bound_to 6896
  152.4435  133.7450  159.6718 H   0  0  0  0  0  0  0  0  0  0  0  0  # atno 6909 bound_to 6896
  144.7376  140.3332  143.6149 H   0  0  0  0  0  0  0  0  0  0  0  0  # atno 7974 bound_to 7965
  154.4056  140.1279  156.4617 H   0  0  0  0  0  0  0  0  0  0  0  0  # atno 8008 bound_to 7997
  155.7266  140.3492  155.5020 H   0  0  0  0  0  0  0  0  0  0  0  0  # atno 8009 bound_to 7997
  155.9165  140.1045  157.1229 H   0  0  0  0  0  0  0  0  0  0  0  0  # atno 8010 bound_to 7997
  140.2295  144.3702  150.6420 H   0  0  0  0  0  0  0  0  0  0  0  0  # atno 10167 bound_to 10162
  157.6951  131.0309  150.3332 H   0  0  0  0  0  0  0  0  0  0  0  0  # atno 10718 bound_to 10713
  153.1661  135.6804  153.8674 H   0  0  0  0  0  0  0  0  0  0  0  0  # atno 10763 bound_to 10752
  153.8053  135.3150  155.3396 H   0  0  0  0  0  0  0  0  0  0  0  0  # atno 10764 bound_to 10752
  154.7966  135.4803  154.0266 H   0  0  0  0  0  0  0  0  0  0  0  0  # atno 10765 bound_to 10752
  140.0898  134.9048  157.1633 H   0  0  0  0  0  0  0  0  0  0  0  0  # atno 11005 bound_to 11000
  145.7450  139.1776  143.2354 LP  0  0  0  0  0  0  0  0  0  0  0  0  # atno 17320 bound_to 7965
  146.1105  140.7434  142.9505 LP  0  0  0  0  0  0  0  0  0  0  0  0  # atno 17321 bound_to 7965
  140.6195  143.2175  151.6722 LP  0  0  0  0  0  0  0  0  0  0  0  0  # atno 17342 bound_to 10162
  139.5115  144.3507  152.0655 LP  0  0  0  0  0  0  0  0  0  0  0  0  # atno 17343 bound_to 10162
  156.3803  130.3879  149.7106 LP  0  0  0  0  0  0  0  0  0  0  0  0  # atno 17370 bound_to 10713
  156.4491  130.7898  151.2919 LP  0  0  0  0  0  0  0  0  0  0  0  0  # atno 17371 bound_to 10713
  140.3368  134.2748  155.7218 LP  0  0  0  0  0  0  0  0  0  0  0  0  # atno 17394 bound_to 11000
  141.2074  133.7806  157.0120 LP  0  0  0  0  0  0  0  0  0  0  0  0  # atno 17395 bound_to 11000

$$$$
