AV-unprocessed.smi:1929|AV-procd|sdf|7806|dock5
  -GOLD-   22720 9543D 1   1.00000     0.00000
 Structure written by MMmdl.
 42 43  0  0  0  0  0  0  0  0  3 V2000
  143.7903  146.1269  155.4858 C   0  0  0  0  0  0  0  0  0  0  0  0
  143.6912  144.7128  155.1437 N   0  5  0  0  0  0  0  0  0  0  0  0
  144.3644  143.7319  155.8029 C   0  0  0  0  0  0  0  0  0  0  0  0
  145.1799  143.7952  156.7289 O   0  0  0  0  0  0  0  0  0  0  0  0
  144.0227  142.3500  155.2337 C   0  0  0  0  0  0  0  0  0  0  0  0
  145.2332  141.7144  154.6550 N   0  3  2  0  0  0  0  0  0  0  0  0
  146.0383  140.9638  155.6567 C   0  0  0  0  0  0  0  0  0  0  0  0
  147.2120  140.2267  154.9886 C   0  0  0  0  0  0  0  0  0  0  0  0
  148.1115  141.1862  154.1853 C   0  0  2  0  0  0  0  0  0  0  0  0
  148.8640  142.0847  155.0610 N   0  0  0  0  0  0  0  0  0  0  0  0
  149.8028  141.7049  155.9404 C   0  0  0  0  0  0  0  0  0  0  0  0
  150.1467  140.5339  156.0982 O   0  0  0  0  0  0  0  0  0  0  0  0
  150.2827  142.7596  156.6221 N   0  0  0  0  0  0  0  0  0  0  0  0
  151.2563  142.7830  157.6577 C   0  0  0  0  0  0  0  0  0  0  0  0
  151.6007  141.5550  158.2597 C   0  0  0  0  0  0  0  0  0  0  0  0
  152.5530  141.5507  159.2984 C   0  0  0  0  0  0  0  0  0  0  0  0
  153.1531  142.6683  159.7589 N   0  0  0  0  0  0  0  0  0  0  0  0
  152.8122  143.8445  159.1913 C   0  0  0  0  0  0  0  0  0  0  0  0
  151.8727  143.9599  158.1471 C   0  0  0  0  0  0  0  0  0  0  0  0
  147.2483  141.9923  153.1997 C   0  0  0  0  0  0  0  0  0  0  0  0
  146.0650  142.6860  153.8998 C   0  0  0  0  0  0  0  0  0  0  0  0
  143.2618  146.7547  154.7683 H   0  0  0  0  0  0  0  0  0  0  0  0
  144.8217  146.4813  155.5031 H   0  0  0  0  0  0  0  0  0  0  0  0
  143.3637  146.3479  156.4647 H   0  0  0  0  0  0  0  0  0  0  0  0
  143.6509  141.7503  156.0656 H   0  0  0  0  0  0  0  0  0  0  0  0
  143.2182  142.3824  154.4953 H   0  0  0  0  0  0  0  0  0  0  0  0
  146.4065  141.6511  156.4197 H   0  0  0  0  0  0  0  0  0  0  0  0
  145.4159  140.2318  156.1715 H   0  0  0  0  0  0  0  0  0  0  0  0
  147.7926  139.6915  155.7405 H   0  0  0  0  0  0  0  0  0  0  0  0
  146.8153  139.4632  154.3180 H   0  0  0  0  0  0  0  0  0  0  0  0
  148.8284  140.5994  153.6079 H   0  0  0  0  0  0  0  0  0  0  0  0
  148.6468  143.0684  154.9978 H   0  0  0  0  0  0  0  0  0  0  0  0
  149.8485  143.6485  156.4225 H   0  0  0  0  0  0  0  0  0  0  0  0
  151.1505  140.6294  157.9320 H   0  0  0  0  0  0  0  0  0  0  0  0
  152.8392  140.6236  159.7728 H   0  0  0  0  0  0  0  0  0  0  0  0
  153.2989  144.7242  159.5856 H   0  0  0  0  0  0  0  0  0  0  0  0
  151.6405  144.9391  157.7584 H   0  0  0  0  0  0  0  0  0  0  0  0
  147.8589  142.7293  152.6763 H   0  0  0  0  0  0  0  0  0  0  0  0
  146.8614  141.3206  152.4321 H   0  0  0  0  0  0  0  0  0  0  0  0
  145.4528  143.1866  153.1485 H   0  0  0  0  0  0  0  0  0  0  0  0
  146.4256  143.4601  154.5788 H   0  0  0  0  0  0  0  0  0  0  0  0
  144.8970  141.0400  153.9823 H   0  0  0  0  0  0  0  0  0  0  0  0
  1  2  1  0  0  0  0
  1 22  1  0  0  0  0
  1 23  1  0  0  0  0
  1 24  1  0  0  0  0
  2  3  1  0  0  0  0
  3  4  2  0  0  0  0
  3  5  1  0  0  0  0
  5  6  1  0  0  0  0
  5 25  1  0  0  0  0
  5 26  1  0  0  0  0
  6 21  1  0  0  0  0
  6  7  1  0  0  0  0
  6 42  1  0  0  0  0
  7  8  1  0  0  0  0
  7 27  1  0  0  0  0
  7 28  1  0  0  0  0
  8  9  1  0  0  0  0
  8 29  1  0  0  0  0
  8 30  1  0  0  0  0
  9 10  1  0  0  0  0
  9 20  1  0  0  0  0
  9 31  1  0  0  0  0
 10 11  1  0  0  0  0
 10 32  1  0  0  0  0
 11 12  2  0  0  0  0
 11 13  1  0  0  0  0
 13 14  1  0  0  0  0
 13 33  1  0  0  0  0
 14 19  1  0  0  0  0
 14 15  2  0  0  0  0
 15 16  1  0  0  0  0
 15 34  1  0  0  0  0
 16 17  2  0  0  0  0
 16 35  1  0  0  0  0
 17 18  1  0  0  0  0
 18 19  2  0  0  0  0
 18 36  1  0  0  0  0
 19 37  1  0  0  0  0
 20 21  1  0  0  0  0
 20 38  1  0  0  0  0
 20 39  1  0  0  0  0
 21 40  1  0  0  0  0
 21 41  1  0  0  0  0
M  CHG  1   2  -1
M  CHG  1   6   1
M  END
> <s_m_source_file>
AV-unprocessed.smi

> <i_m_source_file_index>
1929

> <i_lp_mmshare_version>
43012

> <i_f3d_flags>
0

> <s_epik_input>
W0NIM11bTkhdQyg9TylbQ0gyXU4xW0NIMl1bQ0gyXVtDSF0oW0NIMl1bQ0gyXTEpW05IXUMoPU8pW05IXWMyW2NIXVtjSF1uW2NIXVtjSF0y

> <s_epik_cmdline>
J2VwaWtfcHl0aG9uJywgJy1waCcsICc3LjAnLCAnLXRuJywgJzgnLCAnLW1hJywgJzIwMCcsICctbWV0YWxfYmluZGluZycsICctaW1hZScsICc8aW5maWxlLm1hZT4nLCAnLW9tYWUnLCAnPG91dGZpbGUubWFlPic=

> <r_epik_Ionization_Penalty>
6.23856

> <r_epik_Ionization_Penalty_Charging>
6.13946

> <r_epik_Ionization_Penalty_Neutral>
0.0990993

> <r_epik_State_Penalty>
7.04382

> <r_epik_Charging_Adjusted_Penalty>
13.1833

> <i_epik_Tot_Q>
0

> <i_epik_Tot_abs_Q>
2

> <r_epik_Metal_State_Penalty>
3.07449

> <b_epik_Metal_Only>
1

> <s_lp_Force_Field>
OPLS_2005

> <r_lp_Energy>
14.5033

> <b_lp_Chiralities_Consistent>
1

> <s_lp_Variant>
AV-unprocessed.smi:1929-8

> <Gold.Version>
5.8.1

> <Gold.Id.Protein>
6NUR|6NUR_protein|mol2

> <Gold.PLP.Fitness>
46.8005

> <Gold.PLP.PLP>
-35.4127

> <Gold.PLP.part.hbond>
-3.0000

> <Gold.PLP.part.metal>
0.0000

> <Gold.PLP.part.buried>
-7.2998

> <Gold.PLP.part.nonpolar>
-26.3525

> <Gold.PLP.part.repulsive>
0.4890

> <Gold.PLP.ligand.clash>
0.0000

> <Gold.PLP.ligand.torsion>
0.3170

> <Gold.PLP.Chemscore.Hbond>
3.9920

> <Gold.PLP.Chemscore.CHOScore>
0.0000

> <Gold.PLP.Chemscore.Metal>
0.0000

> <Gold.Chemscore.Hbonds>
donor molecule, donor type, donor heavy atom, donor atom, acceptor molecule, acceptor atom, score
      L1  H     6    42       P1 10175  2.00
      L1  H    10    32       P1  8028  0.98
      L1  H    13    33       P1  8028  1.00

> <Gold.PLP.Chemscore.Internal.Correction>
0.0457

> <Gold.Rescore>
     Score         DG    S(hbond)    S(metal)    S(lipo)     H(rot)  DE(clash)    DE(int)     intcor
     17.71     -21.05       2.74        0.00      90.54       1.63       1.59       1.76       ----

> <Gold.Chemscore.Fitness>
17.7073

> <Gold.Chemscore.DG>
-21.0522

> <Gold.Chemscore.ZeroCoef>
-5.4800

> <Gold.Chemscore.Hbond>
2.7418

> <Gold.Chemscore.Metal>
0.0000

> <Gold.Chemscore.Lipo>
90.5404

> <Gold.Chemscore.Internal_Hbond>
0.0000

> <Gold.Chemscore.DEClash>
1.5873

> <Gold.Chemscore.DEInternal>
1.7577

> <Gold.Chemscore.Rot>
1.6323

> <Gold.Chemscore.Internal.Correction>
   9.000000E+99

> <Gold.Chemscore.Hbonds>
donor molecule, donor type, donor heavy atom, donor atom, acceptor molecule, acceptor atom, score
      L1  H     6    42       P1 10175  0.75
      L1  H    10    32       P1  8028  0.93
      L1  H    13    33       P1  8028  0.99

> <Gold.Chemscore.Hbond.Weighted>
-9.1576

> <Gold.Chemscore.Metal.Weighted>
-0.0000

> <Gold.Chemscore.Lipo.Weighted>
-10.5932

> <Gold.Chemscore.Internal_Hbond.Weighted>
0.0000

> <Gold.Chemscore.DEClash.Weighted>
1.5873

> <Gold.Chemscore.DEInternal.Weighted>
1.7577

> <Gold.Chemscore.Rot.Weighted>
4.1786

> <Gold.Chemscore.Internal.Correction.Weighted>
   9.000000E+99

> <Gold.Protein.RotatedTorsions>
[ 6907 6896 6895 6894 ] final   83.21 input  -60.11 | X-H torsion
[ 7974 7965 7964 7962 ] final -170.43 input  175.53 | X-H torsion
[ 8008 7997 7996 7995 ] final   91.07 input   59.86 | X-H torsion
[ 10167 10162 10161 10158 ] final  -99.58 input  -65.29 | X-H torsion
[ 10718 10713 10712 10709 ] final   -6.61 input   66.30 | X-H torsion
[ 10763 10752 10751 10750 ] final  152.77 input  -60.55 | X-H torsion
[ 11005 11000 10999 10996 ] final   94.24 input  -57.11 | X-H torsion

> <Gold.Protein.ActiveResidues>
 VAL166  LYS551  ARG553  GLY616  TRP617  ASP618  TYR619  PRO620  LYS621  CYS622 
 ASP623  PHE694  ASN695  SER759  ASP760  ASP761  ALA762  ILE779  LEU786  VAL792 
 PHE793  MET794  SER795  GLU796  ALA797  LYS798  CYS799  TRP800  GLU811  SER814 

> <Gold.Protein.RotatedAtoms>
  152.5321  134.2930  159.9050 H   0  0  0  0  0  0  0  0  0  0  0  0  # atno 6907 bound_to 6896
  151.2882  133.4171  159.2639 H   0  0  0  0  0  0  0  0  0  0  0  0  # atno 6908 bound_to 6896
  151.0224  134.9494  159.8123 H   0  0  0  0  0  0  0  0  0  0  0  0  # atno 6909 bound_to 6896
  144.7170  140.2072  143.6331 H   0  0  0  0  0  0  0  0  0  0  0  0  # atno 7974 bound_to 7965
  156.0195  140.3342  155.7023 H   0  0  0  0  0  0  0  0  0  0  0  0  # atno 8008 bound_to 7997
  155.6043  140.0659  157.2742 H   0  0  0  0  0  0  0  0  0  0  0  0  # atno 8009 bound_to 7997
  154.4310  140.1805  156.1194 H   0  0  0  0  0  0  0  0  0  0  0  0  # atno 8010 bound_to 7997
  140.2610  143.3407  152.0626 H   0  0  0  0  0  0  0  0  0  0  0  0  # atno 10167 bound_to 10162
  156.7293  130.5175  149.5849 H   0  0  0  0  0  0  0  0  0  0  0  0  # atno 10718 bound_to 10713
  154.1253  135.2830  155.3198 H   0  0  0  0  0  0  0  0  0  0  0  0  # atno 10763 bound_to 10752
  154.6394  135.5408  153.7775 H   0  0  0  0  0  0  0  0  0  0  0  0  # atno 10764 bound_to 10752
  153.0299  135.6482  154.1406 H   0  0  0  0  0  0  0  0  0  0  0  0  # atno 10765 bound_to 10752
  139.8801  134.8834  156.3836 H   0  0  0  0  0  0  0  0  0  0  0  0  # atno 11005 bound_to 11000
  145.8624  139.2230  143.1708 LP  0  0  0  0  0  0  0  0  0  0  0  0  # atno 17320 bound_to 7965
  146.0161  140.8391  142.9947 LP  0  0  0  0  0  0  0  0  0  0  0  0  # atno 17321 bound_to 7965
  139.5017  144.6719  151.6223 LP  0  0  0  0  0  0  0  0  0  0  0  0  # atno 17342 bound_to 10162
  140.5966  143.9685  150.6358 LP  0  0  0  0  0  0  0  0  0  0  0  0  # atno 17343 bound_to 10162
  156.1540  130.6329  151.0633 LP  0  0  0  0  0  0  0  0  0  0  0  0  # atno 17370 bound_to 10713
  157.6865  131.0823  150.7227 LP  0  0  0  0  0  0  0  0  0  0  0  0  # atno 17371 bound_to 10713
  140.9382  133.7533  156.0112 LP  0  0  0  0  0  0  0  0  0  0  0  0  # atno 17394 bound_to 11000
  140.8251  134.3244  157.5368 LP  0  0  0  0  0  0  0  0  0  0  0  0  # atno 17395 bound_to 11000

$$$$
