AV-unprocessed.smi:1493|AV-procd|sdf|6049|dock2
  -GOLD-   22720 6163D 1   1.00000     0.00000
 Structure written by MMmdl.
 33 33  0  0  0  0  0  0  0  0  2 V2000
  152.2416  145.1874  158.8708 C   0  0  0  0  0  0  0  0  0  0  0  0
  151.4291  144.5767  160.0178 C   0  0  0  0  0  0  0  0  0  0  0  0
  152.2119  143.4971  160.7855 C   0  0  0  0  0  0  0  0  0  0  0  0
  152.8039  142.3972  159.8830 C   0  0  1  0  0  0  0  0  0  0  0  0
  153.4671  141.2840  160.7061 C   0  0  0  0  0  0  0  0  0  0  0  0
  151.7638  141.8153  159.0364 N   0  0  0  0  0  0  0  0  0  0  0  0
  151.9236  140.8042  158.1680 C   0  0  0  0  0  0  0  0  0  0  0  0
  153.0003  140.2339  157.9841 O   0  0  0  0  0  0  0  0  0  0  0  0
  150.6592  140.3937  157.3965 C   0  0  0  0  0  0  0  0  0  0  0  0
  150.8741  139.3259  156.4093 N   0  0  0  0  0  0  0  0  0  0  0  0
  151.3518  138.0741  156.9903 N   0  5  0  0  0  0  0  0  0  0  0  0
  151.5669  137.0062  156.1772 C   0  0  0  0  0  0  0  0  0  0  0  0
  151.9524  135.9170  156.5956 O   0  0  0  0  0  0  0  0  0  0  0  0
  151.3320  137.1724  154.7525 C   0  0  0  0  0  0  0  0  0  0  0  0
  150.9113  138.3461  154.2411 C   0  0  0  0  0  0  0  0  0  0  0  0
  150.6614  139.5152  155.0757 C   0  0  0  0  0  0  0  0  0  0  0  0
  150.2829  140.5922  154.6145 O   0  0  0  0  0  0  0  0  0  0  0  0
  151.6623  145.9486  158.3479 H   0  0  0  0  0  0  0  0  0  0  0  0
  152.5272  144.4283  158.1423 H   0  0  0  0  0  0  0  0  0  0  0  0
  153.1528  145.6583  159.2405 H   0  0  0  0  0  0  0  0  0  0  0  0
  151.1248  145.3734  160.6975 H   0  0  0  0  0  0  0  0  0  0  0  0
  150.5099  144.1474  159.6174 H   0  0  0  0  0  0  0  0  0  0  0  0
  153.0238  143.9767  161.3337 H   0  0  0  0  0  0  0  0  0  0  0  0
  151.5642  143.0447  161.5379 H   0  0  0  0  0  0  0  0  0  0  0  0
  153.5801  142.8547  159.2674 H   0  0  0  0  0  0  0  0  0  0  0  0
  154.2605  141.6839  161.3379 H   0  0  0  0  0  0  0  0  0  0  0  0
  153.9128  140.5291  160.0576 H   0  0  0  0  0  0  0  0  0  0  0  0
  152.7461  140.7841  161.3540 H   0  0  0  0  0  0  0  0  0  0  0  0
  150.8419  142.2197  159.1123 H   0  0  0  0  0  0  0  0  0  0  0  0
  149.8954  140.0860  158.1126 H   0  0  0  0  0  0  0  0  0  0  0  0
  150.2551  141.2814  156.9061 H   0  0  0  0  0  0  0  0  0  0  0  0
  151.5009  136.3365  154.0897 H   0  0  0  0  0  0  0  0  0  0  0  0
  150.7506  138.4249  153.1764 H   0  0  0  0  0  0  0  0  0  0  0  0
  1  2  1  0  0  0  0
  1 18  1  0  0  0  0
  1 19  1  0  0  0  0
  1 20  1  0  0  0  0
  2  3  1  0  0  0  0
  2 21  1  0  0  0  0
  2 22  1  0  0  0  0
  3  4  1  0  0  0  0
  3 23  1  0  0  0  0
  3 24  1  0  0  0  0
  4  5  1  0  0  0  0
  4  6  1  0  0  0  0
  4 25  1  0  0  0  0
  5 26  1  0  0  0  0
  5 27  1  0  0  0  0
  5 28  1  0  0  0  0
  6  7  1  0  0  0  0
  6 29  1  0  0  0  0
  7  8  2  0  0  0  0
  7  9  1  0  0  0  0
  9 30  1  0  0  0  0
  9 31  1  0  0  0  0
  9 10  1  0  0  0  0
 10 11  1  0  0  0  0
 10 16  1  0  0  0  0
 11 12  1  0  0  0  0
 12 13  2  0  0  0  0
 12 14  1  0  0  0  0
 14 32  1  0  0  0  0
 14 15  2  0  0  0  0
 15 33  1  0  0  0  0
 15 16  1  0  0  0  0
 16 17  2  0  0  0  0
M  CHG  1  11  -1
M  END
> <s_m_source_file>
AV-unprocessed.smi

> <i_m_source_file_index>
1493

> <i_lp_mmshare_version>
43012

> <i_f3d_flags>
0

> <s_epik_input>
W0NIM11bQ0gyXVtDSDJdW0NASF0oW0NIM10pW05IXUMoPU8pW0NIMl1uMVtuSF1jKD1PKVtjSF1bY0hdYzE9Tw==

> <s_epik_cmdline>
J2VwaWtfcHl0aG9uJywgJy1waCcsICc3LjAnLCAnLXRuJywgJzgnLCAnLW1hJywgJzIwMCcsICctbWV0YWxfYmluZGluZycsICctaW1hZScsICc8aW5maWxlLm1hZT4nLCAnLW9tYWUnLCAnPG91dGZpbGUubWFlPic=

> <r_lp_tautomer_probability>
1

> <r_epik_Ionization_Penalty>
0.0986298

> <r_epik_Ionization_Penalty_Charging>
0.0986298

> <r_epik_Ionization_Penalty_Neutral>
1.93017e-08

> <r_epik_State_Penalty>
0.0347731

> <r_epik_Charging_Adjusted_Penalty>
0.133403

> <i_epik_Tot_Q>
-1

> <i_epik_Tot_abs_Q>
1

> <r_epik_Metal_State_Penalty>
0.0347731

> <b_epik_Metal_Only>
0

> <s_lp_Force_Field>
OPLS_2005

> <r_lp_Energy>
19.264

> <b_lp_Chiralities_Consistent>
1

> <s_lp_Variant>
AV-unprocessed.smi:1493-2

> <Gold.Version>
5.8.1

> <Gold.Id.Protein>
6NUR|6NUR_protein|mol2

> <Gold.PLP.Fitness>
44.1096

> <Gold.PLP.PLP>
-35.7028

> <Gold.PLP.part.hbond>
-3.0000

> <Gold.PLP.part.metal>
0.0000

> <Gold.PLP.part.buried>
-3.3856

> <Gold.PLP.part.nonpolar>
-29.6574

> <Gold.PLP.part.repulsive>
0.2182

> <Gold.PLP.ligand.clash>
0.0000

> <Gold.PLP.ligand.torsion>
0.0601

> <Gold.PLP.Chemscore.Hbond>
2.8264

> <Gold.PLP.Chemscore.CHOScore>
0.0000

> <Gold.PLP.Chemscore.Metal>
0.0000

> <Gold.Chemscore.Hbonds>
donor molecule, donor type, donor heavy atom, donor atom, acceptor molecule, acceptor atom, score
      P1  H  7989  7998       L1    17  0.87
      P1  H  7997  8010       L1     8  0.96
      P1  H 10752 10763       L1    13  1.00

> <Gold.PLP.Chemscore.Internal.Correction>
0.0478

> <Gold.Rescore>
     Score         DG    S(hbond)    S(metal)    S(lipo)     H(rot)  DE(clash)    DE(int)     intcor
     14.27     -15.71       1.91        0.00      79.73       2.14       0.04       1.40       ----

> <Gold.Chemscore.Fitness>
14.2688

> <Gold.Chemscore.DG>
-15.7079

> <Gold.Chemscore.ZeroCoef>
-5.4800

> <Gold.Chemscore.Hbond>
1.9073

> <Gold.Chemscore.Metal>
0.0000

> <Gold.Chemscore.Lipo>
79.7323

> <Gold.Chemscore.Internal_Hbond>
0.0000

> <Gold.Chemscore.DEClash>
0.0356

> <Gold.Chemscore.DEInternal>
1.4035

> <Gold.Chemscore.Rot>
2.1372

> <Gold.Chemscore.Internal.Correction>
   9.000000E+99

> <Gold.Chemscore.Hbonds>
donor molecule, donor type, donor heavy atom, donor atom, acceptor molecule, acceptor atom, score
      P1  H  7989  7998       L1    17  0.19
      P1  H  7997  8010       L1     8  0.92
      P1  H 10752 10763       L1    13  0.25

> <Gold.Chemscore.Hbond.Weighted>
-6.3705

> <Gold.Chemscore.Metal.Weighted>
-0.0000

> <Gold.Chemscore.Lipo.Weighted>
-9.3287

> <Gold.Chemscore.Internal_Hbond.Weighted>
0.0000

> <Gold.Chemscore.DEClash.Weighted>
0.0356

> <Gold.Chemscore.DEInternal.Weighted>
1.4035

> <Gold.Chemscore.Rot.Weighted>
5.4713

> <Gold.Chemscore.Internal.Correction.Weighted>
   9.000000E+99

> <Gold.Protein.RotatedTorsions>
[ 6907 6896 6895 6894 ] final   88.92 input  -60.11 | X-H torsion
[ 7974 7965 7964 7962 ] final   72.75 input  175.53 | X-H torsion
[ 8008 7997 7996 7995 ] final   44.34 input   59.86 | X-H torsion
[ 10167 10162 10161 10158 ] final -139.07 input  -65.29 | X-H torsion
[ 10718 10713 10712 10709 ] final  -72.27 input   66.30 | X-H torsion
[ 10763 10752 10751 10750 ] final   98.49 input  -60.55 | X-H torsion
[ 11005 11000 10999 10996 ] final  -11.85 input  -57.11 | X-H torsion

> <Gold.Protein.ActiveResidues>
 VAL166  LYS551  ARG553  GLY616  TRP617  ASP618  TYR619  PRO620  LYS621  CYS622 
 ASP623  PHE694  ASN695  SER759  ASP760  ASP761  ALA762  ILE779  LEU786  VAL792 
 PHE793  MET794  SER795  GLU796  ALA797  LYS798  CYS799  TRP800  GLU811  SER814 

> <Gold.Protein.RotatedAtoms>
  152.5431  134.2046  159.8725 H   0  0  0  0  0  0  0  0  0  0  0  0  # atno 6907 bound_to 6896
  151.2033  133.4591  159.2604 H   0  0  0  0  0  0  0  0  0  0  0  0  # atno 6908 bound_to 6896
  151.0968  134.9961  159.8485 H   0  0  0  0  0  0  0  0  0  0  0  0  # atno 6909 bound_to 6896
  145.7495  139.2754  143.1440 H   0  0  0  0  0  0  0  0  0  0  0  0  # atno 7974 bound_to 7965
  155.3177  140.3395  155.4242 H   0  0  0  0  0  0  0  0  0  0  0  0  # atno 8008 bound_to 7997
  156.1925  140.1703  156.8102 H   0  0  0  0  0  0  0  0  0  0  0  0  # atno 8009 bound_to 7997
  154.5458  140.0715  156.8571 H   0  0  0  0  0  0  0  0  0  0  0  0  # atno 8010 bound_to 7997
  139.8416  143.7315  152.2663 H   0  0  0  0  0  0  0  0  0  0  0  0  # atno 10167 bound_to 10162
  156.0327  130.4369  150.2568 H   0  0  0  0  0  0  0  0  0  0  0  0  # atno 10718 bound_to 10713
  153.2897  135.4146  155.1155 H   0  0  0  0  0  0  0  0  0  0  0  0  # atno 10763 bound_to 10752
  154.8516  135.3515  154.5998 H   0  0  0  0  0  0  0  0  0  0  0  0  # atno 10764 bound_to 10752
  153.6421  135.7056  153.5296 H   0  0  0  0  0  0  0  0  0  0  0  0  # atno 10765 bound_to 10752
  140.7596  133.8526  155.9113 H   0  0  0  0  0  0  0  0  0  0  0  0  # atno 11005 bound_to 11000
  146.0371  140.8202  142.9847 LP  0  0  0  0  0  0  0  0  0  0  0  0  # atno 17320 bound_to 7965
  144.6853  140.2854  143.7286 LP  0  0  0  0  0  0  0  0  0  0  0  0  # atno 17321 bound_to 7965
  139.7554  144.7522  151.0444 LP  0  0  0  0  0  0  0  0  0  0  0  0  # atno 17342 bound_to 10162
  140.7797  143.4812  151.0016 LP  0  0  0  0  0  0  0  0  0  0  0  0  # atno 17343 bound_to 10162
  157.0669  131.0106  151.3203 LP  0  0  0  0  0  0  0  0  0  0  0  0  # atno 17370 bound_to 10713
  157.5028  130.7890  149.7623 LP  0  0  0  0  0  0  0  0  0  0  0  0  # atno 17371 bound_to 10713
  140.9676  134.1574  157.4603 LP  0  0  0  0  0  0  0  0  0  0  0  0  # atno 17394 bound_to 11000
  139.8773  134.9967  156.5808 LP  0  0  0  0  0  0  0  0  0  0  0  0  # atno 17395 bound_to 11000

$$$$
