AV-unprocessed.smi:1734|AV-procd|sdf|6981|dock2
  -GOLD-   22720 8193D 1   1.00000     0.00000
 Structure written by MMmdl.
 50 52  0  0  0  0  0  0  0  0  1 V2000
  145.3601  135.6630  150.9191 C   0  0  0  0  0  0  0  0  0  0  0  0
  145.3074  134.1453  150.9893 C   0  0  0  0  0  0  0  0  0  0  0  0
  144.3122  133.4553  150.2650 C   0  0  0  0  0  0  0  0  0  0  0  0
  144.2643  132.0524  150.3310 C   0  0  0  0  0  0  0  0  0  0  0  0
  145.2193  131.3945  151.1247 C   0  0  0  0  0  0  0  0  0  0  0  0
  146.1737  132.0458  151.8200 N   0  0  0  0  0  0  0  0  0  0  0  0
  146.2351  133.4002  151.7661 C   0  0  0  0  0  0  0  0  0  0  0  0
  147.2147  134.1535  152.4729 N   0  0  0  0  0  0  0  0  0  0  0  0
  147.5951  134.0366  153.7574 C   0  0  0  0  0  0  0  0  0  0  0  0
  147.1464  133.2200  154.5622 O   0  0  0  0  0  0  0  0  0  0  0  0
  148.5406  134.9368  154.0632 N   0  0  0  0  0  0  0  0  0  0  0  0
  149.1749  135.0963  155.3692 C   0  0  0  0  0  0  0  0  0  0  0  0
  148.8949  136.4977  155.9752 C   0  0  1  0  0  0  0  0  0  0  0  0
  149.0381  136.5147  157.5299 C   0  0  2  0  0  0  0  0  0  0  0  0
  148.2548  135.4497  158.3037 C   0  0  0  0  0  0  0  0  0  0  0  0
  147.4822  136.2499  159.3505 C   0  0  0  0  0  0  0  0  0  0  0  0
  148.2720  137.4109  159.5438 O   0  0  0  0  0  0  0  0  0  0  0  0
  148.7164  137.8287  158.2627 C   0  0  0  0  0  0  0  0  0  0  0  0
  149.5448  137.6213  155.2687 N   0  0  0  0  0  0  0  0  0  0  0  0
  150.9783  137.7209  155.5368 C   0  0  0  0  0  0  0  0  0  0  0  0
  151.6464  138.8047  154.6756 C   0  0  0  0  0  0  0  0  0  0  0  0
  151.0037  140.0529  154.9096 O   0  0  0  0  0  0  0  0  0  0  0  0
  149.6134  140.0167  154.6060 C   0  0  0  0  0  0  0  0  0  0  0  0
  148.9175  138.9298  155.4448 C   0  0  0  0  0  0  0  0  0  0  0  0
  144.5771  136.0581  150.2709 H   0  0  0  0  0  0  0  0  0  0  0  0
  146.3209  135.9942  150.5237 H   0  0  0  0  0  0  0  0  0  0  0  0
  145.2246  136.0957  151.9109 H   0  0  0  0  0  0  0  0  0  0  0  0
  143.5924  133.9921  149.6643 H   0  0  0  0  0  0  0  0  0  0  0  0
  143.5154  131.4951  149.7879 H   0  0  0  0  0  0  0  0  0  0  0  0
  145.2178  130.3175  151.2037 H   0  0  0  0  0  0  0  0  0  0  0  0
  147.6811  134.8665  151.9324 H   0  0  0  0  0  0  0  0  0  0  0  0
  148.8463  135.5658  153.3354 H   0  0  0  0  0  0  0  0  0  0  0  0
  148.8575  134.3154  156.0612 H   0  0  0  0  0  0  0  0  0  0  0  0
  150.2413  134.9436  155.2113 H   0  0  0  0  0  0  0  0  0  0  0  0
  147.8259  136.6578  155.8255 H   0  0  0  0  0  0  0  0  0  0  0  0
  150.0894  136.3157  157.7445 H   0  0  0  0  0  0  0  0  0  0  0  0
  147.5881  134.8394  157.6956 H   0  0  0  0  0  0  0  0  0  0  0  0
  148.9501  134.7687  158.7961 H   0  0  0  0  0  0  0  0  0  0  0  0
  146.5006  136.5377  158.9713 H   0  0  0  0  0  0  0  0  0  0  0  0
  147.3405  135.6994  160.2807 H   0  0  0  0  0  0  0  0  0  0  0  0
  149.5886  138.4757  158.3541 H   0  0  0  0  0  0  0  0  0  0  0  0
  147.9331  138.4082  157.7792 H   0  0  0  0  0  0  0  0  0  0  0  0
  151.1534  137.9604  156.5853 H   0  0  0  0  0  0  0  0  0  0  0  0
  151.4611  136.7617  155.3466 H   0  0  0  0  0  0  0  0  0  0  0  0
  152.7027  138.8937  154.9298 H   0  0  0  0  0  0  0  0  0  0  0  0
  151.5908  138.5484  153.6165 H   0  0  0  0  0  0  0  0  0  0  0  0
  149.1767  140.9932  154.8154 H   0  0  0  0  0  0  0  0  0  0  0  0
  149.4742  139.8266  153.5407 H   0  0  0  0  0  0  0  0  0  0  0  0
  147.8762  138.8964  155.1370 H   0  0  0  0  0  0  0  0  0  0  0  0
  148.9368  139.2189  156.4960 H   0  0  0  0  0  0  0  0  0  0  0  0
  1  2  1  0  0  0  0
  1 25  1  0  0  0  0
  1 26  1  0  0  0  0
  1 27  1  0  0  0  0
  2  7  1  0  0  0  0
  2  3  2  0  0  0  0
  3  4  1  0  0  0  0
  3 28  1  0  0  0  0
  4  5  2  0  0  0  0
  4 29  1  0  0  0  0
  5  6  1  0  0  0  0
  5 30  1  0  0  0  0
  6  7  2  0  0  0  0
  7  8  1  0  0  0  0
  8  9  1  0  0  0  0
  8 31  1  0  0  0  0
  9 10  2  0  0  0  0
  9 11  1  0  0  0  0
 11 12  1  0  0  0  0
 11 32  1  0  0  0  0
 12 13  1  0  0  0  0
 12 33  1  0  0  0  0
 12 34  1  0  0  0  0
 13 14  1  0  0  0  0
 13 19  1  0  0  0  0
 13 35  1  0  0  0  0
 14 18  1  0  0  0  0
 14 15  1  0  0  0  0
 14 36  1  0  0  0  0
 15 16  1  0  0  0  0
 15 37  1  0  0  0  0
 15 38  1  0  0  0  0
 16 17  1  0  0  0  0
 16 39  1  0  0  0  0
 16 40  1  0  0  0  0
 17 18  1  0  0  0  0
 18 41  1  0  0  0  0
 18 42  1  0  0  0  0
 19 24  1  0  0  0  0
 19 20  1  0  0  0  0
 20 21  1  0  0  0  0
 20 43  1  0  0  0  0
 20 44  1  0  0  0  0
 21 22  1  0  0  0  0
 21 45  1  0  0  0  0
 21 46  1  0  0  0  0
 22 23  1  0  0  0  0
 23 24  1  0  0  0  0
 23 47  1  0  0  0  0
 23 48  1  0  0  0  0
 24 49  1  0  0  0  0
 24 50  1  0  0  0  0
M  END
> <s_m_source_file>
AV-unprocessed.smi

> <i_m_source_file_index>
1734

> <i_lp_mmshare_version>
43012

> <i_f3d_flags>
0

> <s_epik_input>
W0NIM11jMVtjSF1bY0hdW2NIXW5jMVtOSF1DKD1PKVtOSF1bQ0gyXVtDQEhdKFtDQEBIXTJbQ0gyXVtDSDJdT1tDSDJdMilOM1tDSDJdW0NIMl1PW0NIMl1bQ0gyXTM=

> <s_epik_cmdline>
J2VwaWtfcHl0aG9uJywgJy1waCcsICc3LjAnLCAnLXRuJywgJzgnLCAnLW1hJywgJzIwMCcsICctbWV0YWxfYmluZGluZycsICctaW1hZScsICc8aW5maWxlLm1hZT4nLCAnLW9tYWUnLCAnPG91dGZpbGUubWFlPic=

> <r_epik_Ionization_Penalty>
0.125073

> <r_epik_Ionization_Penalty_Charging>
0

> <r_epik_Ionization_Penalty_Neutral>
0.125073

> <r_epik_State_Penalty>
0.114484

> <r_epik_Charging_Adjusted_Penalty>
0.114484

> <i_epik_Tot_Q>
0

> <i_epik_Tot_abs_Q>
0

> <r_epik_Metal_State_Penalty>
0.114483

> <b_epik_Metal_Only>
0

> <s_lp_Force_Field>
OPLS_2005

> <r_lp_Energy>
56.6734

> <b_lp_Chiralities_Consistent>
1

> <s_lp_Variant>
AV-unprocessed.smi:1734-2

> <Gold.Version>
5.8.1

> <Gold.Id.Protein>
6NUR|6NUR_protein|mol2

> <Gold.PLP.Fitness>
43.5167

> <Gold.PLP.PLP>
-34.5056

> <Gold.PLP.part.hbond>
-4.3539

> <Gold.PLP.part.metal>
0.0000

> <Gold.PLP.part.buried>
-6.1040

> <Gold.PLP.part.nonpolar>
-24.1364

> <Gold.PLP.part.repulsive>
0.3480

> <Gold.PLP.ligand.clash>
0.0000

> <Gold.PLP.ligand.torsion>
0.8146

> <Gold.PLP.Chemscore.Hbond>
3.3845

> <Gold.PLP.Chemscore.CHOScore>
0.0000

> <Gold.PLP.Chemscore.Metal>
0.0000

> <Gold.Chemscore.Hbonds>
donor molecule, donor type, donor heavy atom, donor atom, acceptor molecule, acceptor atom, score
      L1  H     8    31       P1  7948  0.99
      L1  H    11    32       P1  7948  1.00
      P1  H  6934  6947       L1    17  0.08
      P1  H  7989  7998       L1    22  0.85

> <Gold.PLP.Chemscore.Internal.Correction>
0.4867

> <Gold.Rescore>
     Score         DG    S(hbond)    S(metal)    S(lipo)     H(rot)  DE(clash)    DE(int)     intcor
     17.05     -18.04       2.52        0.00      71.54       1.65       0.00       0.99       ----

> <Gold.Chemscore.Fitness>
17.0539

> <Gold.Chemscore.DG>
-18.0402

> <Gold.Chemscore.ZeroCoef>
-5.4800

> <Gold.Chemscore.Hbond>
2.5177

> <Gold.Chemscore.Metal>
0.0000

> <Gold.Chemscore.Lipo>
71.5367

> <Gold.Chemscore.Internal_Hbond>
0.0000

> <Gold.Chemscore.DEClash>
0.0000

> <Gold.Chemscore.DEInternal>
0.9863

> <Gold.Chemscore.Rot>
1.6480

> <Gold.Chemscore.Internal.Correction>
   9.000000E+99

> <Gold.Chemscore.Hbonds>
donor molecule, donor type, donor heavy atom, donor atom, acceptor molecule, acceptor atom, score
      L1  H     8    31       P1  7948  0.62
      L1  H    11    32       P1  7948  0.86
      P1  H  6934  6947       L1    17  0.07
      P1  H  7989  7998       L1    22  0.04

> <Gold.Chemscore.Hbond.Weighted>
-8.4093

> <Gold.Chemscore.Metal.Weighted>
-0.0000

> <Gold.Chemscore.Lipo.Weighted>
-8.3698

> <Gold.Chemscore.Internal_Hbond.Weighted>
0.0000

> <Gold.Chemscore.DEClash.Weighted>
0.0000

> <Gold.Chemscore.DEInternal.Weighted>
0.9863

> <Gold.Chemscore.Rot.Weighted>
4.2188

> <Gold.Chemscore.Internal.Correction.Weighted>
   9.000000E+99

> <Gold.Protein.RotatedTorsions>
[ 6907 6896 6895 6894 ] final -109.64 input  -60.11 | X-H torsion
[ 7974 7965 7964 7962 ] final -152.48 input  175.53 | X-H torsion
[ 8008 7997 7996 7995 ] final -148.84 input   59.86 | X-H torsion
[ 10167 10162 10161 10158 ] final   73.04 input  -65.29 | X-H torsion
[ 10718 10713 10712 10709 ] final   79.60 input   66.30 | X-H torsion
[ 10763 10752 10751 10750 ] final    3.04 input  -60.55 | X-H torsion
[ 11005 11000 10999 10996 ] final   44.37 input  -57.11 | X-H torsion

> <Gold.Protein.ActiveResidues>
 VAL166  LYS551  ARG553  GLY616  TRP617  ASP618  TYR619  PRO620  LYS621  CYS622 
 ASP623  PHE694  ASN695  SER759  ASP760  ASP761  ALA762  ILE779  LEU786  VAL792 
 PHE793  MET794  SER795  GLU796  ALA797  LYS798  CYS799  TRP800  GLU811  SER814 

> <Gold.Protein.RotatedAtoms>
  150.7575  133.9499  159.3482 H   0  0  0  0  0  0  0  0  0  0  0  0  # atno 6907 bound_to 6896
  151.7415  135.0851  160.0326 H   0  0  0  0  0  0  0  0  0  0  0  0  # atno 6908 bound_to 6896
  152.3525  133.6160  159.5991 H   0  0  0  0  0  0  0  0  0  0  0  0  # atno 6909 bound_to 6896
  144.7792  140.4656  143.5852 H   0  0  0  0  0  0  0  0  0  0  0  0  # atno 7974 bound_to 7965
  155.5980  140.0659  157.2741 H   0  0  0  0  0  0  0  0  0  0  0  0  # atno 8008 bound_to 7997
  154.4286  140.1823  156.1191 H   0  0  0  0  0  0  0  0  0  0  0  0  # atno 8009 bound_to 7997
  156.0181  140.3319  155.7014 H   0  0  0  0  0  0  0  0  0  0  0  0  # atno 8010 bound_to 7997
  140.0288  144.5482  150.7523 H   0  0  0  0  0  0  0  0  0  0  0  0  # atno 10167 bound_to 10162
  157.6781  130.9921  150.1956 H   0  0  0  0  0  0  0  0  0  0  0  0  # atno 10718 bound_to 10713
  153.2882  135.6946  153.7318 H   0  0  0  0  0  0  0  0  0  0  0  0  # atno 10763 bound_to 10752
  153.6280  135.3415  155.3033 H   0  0  0  0  0  0  0  0  0  0  0  0  # atno 10764 bound_to 10752
  154.8516  135.4402  154.1957 H   0  0  0  0  0  0  0  0  0  0  0  0  # atno 10765 bound_to 10752
  140.1558  134.4404  155.8351 H   0  0  0  0  0  0  0  0  0  0  0  0  # atno 11005 bound_to 11000
  145.6099  139.1512  143.3081 LP  0  0  0  0  0  0  0  0  0  0  0  0  # atno 17320 bound_to 7965
  146.1990  140.6216  142.9111 LP  0  0  0  0  0  0  0  0  0  0  0  0  # atno 17321 bound_to 7965
  140.7311  143.2690  151.3948 LP  0  0  0  0  0  0  0  0  0  0  0  0  # atno 17342 bound_to 10162
  139.6090  144.1138  152.2279 LP  0  0  0  0  0  0  0  0  0  0  0  0  # atno 17343 bound_to 10162
  156.2658  130.3716  149.8083 LP  0  0  0  0  0  0  0  0  0  0  0  0  # atno 17370 bound_to 10713
  156.5815  130.8467  151.3384 LP  0  0  0  0  0  0  0  0  0  0  0  0  # atno 17371 bound_to 10713
  141.2204  133.6892  156.7504 LP  0  0  0  0  0  0  0  0  0  0  0  0  # atno 17394 bound_to 11000
  140.2549  134.8511  157.3703 LP  0  0  0  0  0  0  0  0  0  0  0  0  # atno 17395 bound_to 11000

$$$$
