AV-unprocessed.smi:2051|AV-procd|sdf|8326|dock4
  -GOLD-   2272010593D 1   1.00000     0.00000
 Structure written by MMmdl.
 33 34  0  0  0  0  0  0  0  0  1 V2000
  150.0383  140.9063  154.7323 O   0  0  0  0  0  0  0  0  0  0  0  0
  150.6201  140.7746  155.8099 C   0  0  0  0  0  0  0  0  0  0  0  0
  150.1008  141.4816  157.0694 C   0  0  0  0  0  0  0  0  0  0  0  0
  151.1002  142.3739  157.6799 N   0  0  0  0  0  0  0  0  0  0  0  0
  151.0115  143.7461  157.3720 C   0  0  0  0  0  0  0  0  0  0  0  0
  151.8742  144.6436  157.8741 C   0  0  0  0  0  0  0  0  0  0  0  0
  152.9168  144.1706  158.7535 C   0  0  0  0  0  0  0  0  0  0  0  0
  153.0129  142.8598  159.0522 C   0  0  0  0  0  0  0  0  0  0  0  0
  152.0731  141.8749  158.5041 C   0  0  0  0  0  0  0  0  0  0  0  0
  152.1553  140.6749  158.7694 O   0  0  0  0  0  0  0  0  0  0  0  0
  151.7162  140.0173  155.9682 N   0  0  0  0  0  0  0  0  0  0  0  0
  152.4040  139.2914  154.9055 C   0  0  0  0  0  0  0  0  0  0  0  0
  151.8256  137.8781  154.7173 C   0  0  2  0  0  0  0  0  0  0  0  0
  150.3004  137.7836  154.7823 C   0  0  0  0  0  0  0  0  0  0  0  0
  150.1040  136.3367  155.1710 C   0  0  0  0  0  0  0  0  0  0  0  0
  151.2532  136.1197  156.1515 C   0  0  0  0  0  0  0  0  0  0  0  0
  152.2896  137.0136  155.7509 O   0  0  0  0  0  0  0  0  0  0  0  0
  149.2005  142.0351  156.8000 H   0  0  0  0  0  0  0  0  0  0  0  0
  149.7732  140.7394  157.8002 H   0  0  0  0  0  0  0  0  0  0  0  0
  150.2087  144.0175  156.7019 H   0  0  0  0  0  0  0  0  0  0  0  0
  151.7930  145.6911  157.6238 H   0  0  0  0  0  0  0  0  0  0  0  0
  153.6241  144.8710  159.1727 H   0  0  0  0  0  0  0  0  0  0  0  0
  153.8001  142.5239  159.7111 H   0  0  0  0  0  0  0  0  0  0  0  0
  152.1218  139.9603  156.8911 H   0  0  0  0  0  0  0  0  0  0  0  0
  152.2806  139.8589  153.9830 H   0  0  0  0  0  0  0  0  0  0  0  0
  153.4782  139.2439  155.0914 H   0  0  0  0  0  0  0  0  0  0  0  0
  152.1680  137.4612  153.7688 H   0  0  0  0  0  0  0  0  0  0  0  0
  149.9065  138.4351  155.5636 H   0  0  0  0  0  0  0  0  0  0  0  0
  149.8151  138.0443  153.8411 H   0  0  0  0  0  0  0  0  0  0  0  0
  149.1256  136.1372  155.6085 H   0  0  0  0  0  0  0  0  0  0  0  0
  150.2268  135.6951  154.2974 H   0  0  0  0  0  0  0  0  0  0  0  0
  150.9448  136.3821  157.1641 H   0  0  0  0  0  0  0  0  0  0  0  0
  151.6000  135.0861  156.1604 H   0  0  0  0  0  0  0  0  0  0  0  0
  1  2  2  0  0  0  0
  2  3  1  0  0  0  0
  2 11  1  0  0  0  0
  3  4  1  0  0  0  0
  3 18  1  0  0  0  0
  3 19  1  0  0  0  0
  4  9  1  0  0  0  0
  4  5  1  0  0  0  0
  5  6  2  0  0  0  0
  5 20  1  0  0  0  0
  6  7  1  0  0  0  0
  6 21  1  0  0  0  0
  7  8  2  0  0  0  0
  7 22  1  0  0  0  0
  8  9  1  0  0  0  0
  8 23  1  0  0  0  0
  9 10  2  0  0  0  0
 11 12  1  0  0  0  0
 11 24  1  0  0  0  0
 12 13  1  0  0  0  0
 12 25  1  0  0  0  0
 12 26  1  0  0  0  0
 13 17  1  0  0  0  0
 13 14  1  0  0  0  0
 13 27  1  0  0  0  0
 14 15  1  0  0  0  0
 14 28  1  0  0  0  0
 14 29  1  0  0  0  0
 15 16  1  0  0  0  0
 15 30  1  0  0  0  0
 15 31  1  0  0  0  0
 16 17  1  0  0  0  0
 16 32  1  0  0  0  0
 16 33  1  0  0  0  0
M  END
> <s_m_source_file>
AV-unprocessed.smi

> <i_m_source_file_index>
2051

> <i_lp_mmshare_version>
43012

> <i_f3d_flags>
0

> <s_epik_input>
TzFbQ0gyXVtDSDJdW0NIMl1bQ0BIXTFbQ0gyXVtOSF1DKD1PKVtDSDJdbjJbY0hdW2NIXVtjSF1bY0hdYzI9Tw==

> <s_epik_cmdline>
J2VwaWtfcHl0aG9uJywgJy1waCcsICc3LjAnLCAnLXRuJywgJzgnLCAnLW1hJywgJzIwMCcsICctbWV0YWxfYmluZGluZycsICctaW1hZScsICc8aW5maWxlLm1hZT4nLCAnLW9tYWUnLCAnPG91dGZpbGUubWFlPic=

> <r_lp_tautomer_probability>
1

> <r_epik_Ionization_Penalty>
3.94187e-07

> <r_epik_Ionization_Penalty_Charging>
3.67328e-07

> <r_epik_Ionization_Penalty_Neutral>
2.6859e-08

> <r_epik_State_Penalty>
-0

> <r_epik_Charging_Adjusted_Penalty>
3.67328e-07

> <i_epik_Tot_Q>
0

> <i_epik_Tot_abs_Q>
0

> <r_epik_Metal_State_Penalty>
-0

> <b_epik_Metal_Only>
0

> <s_lp_Force_Field>
OPLS_2005

> <r_lp_Energy>
26.4026

> <b_lp_Chiralities_Consistent>
1

> <s_lp_Variant>
AV-unprocessed.smi:2051-1

> <Gold.Version>
5.8.1

> <Gold.Id.Protein>
6NUR|6NUR_protein|mol2

> <Gold.PLP.Fitness>
44.0073

> <Gold.PLP.PLP>
-37.1445

> <Gold.PLP.part.hbond>
-2.0000

> <Gold.PLP.part.metal>
0.0000

> <Gold.PLP.part.buried>
-3.2272

> <Gold.PLP.part.nonpolar>
-32.6111

> <Gold.PLP.part.repulsive>
0.2896

> <Gold.PLP.ligand.clash>
0.0000

> <Gold.PLP.ligand.torsion>
0.6497

> <Gold.PLP.Chemscore.Hbond>
1.7200

> <Gold.PLP.Chemscore.CHOScore>
1.0000

> <Gold.PLP.Chemscore.Metal>
0.0000

> <Gold.Chemscore.Hbonds>
donor molecule, donor type, donor heavy atom, donor atom, acceptor molecule, acceptor atom, score
      P1  H  7989  7998       L1     1  0.70
      P1  H 10752 10763       L1    17  0.30
      L1  C     5    20       P1  8028  0.44

> <Gold.PLP.Chemscore.Internal.Correction>
0.0022

> <Gold.Rescore>
     Score         DG    S(hbond)    S(metal)    S(lipo)     H(rot)  DE(clash)    DE(int)     intcor
     13.86     -14.39       1.04        0.00      83.49       1.69       0.02       0.51       ----

> <Gold.Chemscore.Fitness>
13.8552

> <Gold.Chemscore.DG>
-14.3895

> <Gold.Chemscore.ZeroCoef>
-5.4800

> <Gold.Chemscore.Hbond>
1.0410

> <Gold.Chemscore.Metal>
0.0000

> <Gold.Chemscore.Lipo>
83.4904

> <Gold.Chemscore.Internal_Hbond>
0.0000

> <Gold.Chemscore.DEClash>
0.0243

> <Gold.Chemscore.DEInternal>
0.5100

> <Gold.Chemscore.Rot>
1.6936

> <Gold.Chemscore.Internal.Correction>
   9.000000E+99

> <Gold.Chemscore.Hbonds>
donor molecule, donor type, donor heavy atom, donor atom, acceptor molecule, acceptor atom, score
      P1  H  7989  7998       L1     1  0.17

> <Gold.Chemscore.Hbond.Weighted>
-3.4768

> <Gold.Chemscore.Metal.Weighted>
-0.0000

> <Gold.Chemscore.Lipo.Weighted>
-9.7684

> <Gold.Chemscore.Internal_Hbond.Weighted>
0.0000

> <Gold.Chemscore.DEClash.Weighted>
0.0243

> <Gold.Chemscore.DEInternal.Weighted>
0.5100

> <Gold.Chemscore.Rot.Weighted>
4.3357

> <Gold.Chemscore.Internal.Correction.Weighted>
   9.000000E+99

> <Gold.Protein.RotatedTorsions>
[ 6907 6896 6895 6894 ] final   72.80 input  -60.11 | X-H torsion
[ 7974 7965 7964 7962 ] final  -58.31 input  175.53 | X-H torsion
[ 8008 7997 7996 7995 ] final  110.55 input   59.86 | X-H torsion
[ 10167 10162 10161 10158 ] final -107.96 input  -65.29 | X-H torsion
[ 10718 10713 10712 10709 ] final  -61.86 input   66.30 | X-H torsion
[ 10763 10752 10751 10750 ] final   90.92 input  -60.55 | X-H torsion
[ 11005 11000 10999 10996 ] final  154.67 input  -57.11 | X-H torsion

> <Gold.Protein.ActiveResidues>
 VAL166  LYS551  ARG553  GLY616  TRP617  ASP618  TYR619  PRO620  LYS621  CYS622 
 ASP623  PHE694  ASN695  SER759  ASP760  ASP761  ALA762  ILE779  LEU786  VAL792 
 PHE793  MET794  SER795  GLU796  ALA797  LYS798  CYS799  TRP800  GLU811  SER814 

> <Gold.Protein.RotatedAtoms>
  152.4888  134.4517  159.9576 H   0  0  0  0  0  0  0  0  0  0  0  0  # atno 6907 bound_to 6896
  151.4508  133.3612  159.2803 H   0  0  0  0  0  0  0  0  0  0  0  0  # atno 6908 bound_to 6896
  150.9022  134.8460  159.7428 H   0  0  0  0  0  0  0  0  0  0  0  0  # atno 6909 bound_to 6896
  145.8408  140.8418  143.0035 H   0  0  0  0  0  0  0  0  0  0  0  0  # atno 7974 bound_to 7965
  156.2061  140.3036  155.9630 H   0  0  0  0  0  0  0  0  0  0  0  0  # atno 8008 bound_to 7997
  155.2837  140.0439  157.3034 H   0  0  0  0  0  0  0  0  0  0  0  0  # atno 8009 bound_to 7997
  154.5635  140.2327  155.8307 H   0  0  0  0  0  0  0  0  0  0  0  0  # atno 8010 bound_to 7997
  140.1713  143.4040  152.1352 H   0  0  0  0  0  0  0  0  0  0  0  0  # atno 10167 bound_to 10162
  156.0893  130.4203  150.1053 H   0  0  0  0  0  0  0  0  0  0  0  0  # atno 10718 bound_to 10713
  153.2027  135.4416  155.0285 H   0  0  0  0  0  0  0  0  0  0  0  0  # atno 10763 bound_to 10752
  154.8156  135.3313  154.7188 H   0  0  0  0  0  0  0  0  0  0  0  0  # atno 10764 bound_to 10752
  153.7632  135.6990  153.4977 H   0  0  0  0  0  0  0  0  0  0  0  0  # atno 10765 bound_to 10752
  140.1511  134.8674  157.2455 H   0  0  0  0  0  0  0  0  0  0  0  0  # atno 11005 bound_to 11000
  144.6733  140.0809  143.7469 LP  0  0  0  0  0  0  0  0  0  0  0  0  # atno 17320 bound_to 7965
  145.9467  139.2705  143.1236 LP  0  0  0  0  0  0  0  0  0  0  0  0  # atno 17321 bound_to 7965
  139.5337  144.7186  151.4968 LP  0  0  0  0  0  0  0  0  0  0  0  0  # atno 17342 bound_to 10162
  140.6580  143.8558  150.6856 LP  0  0  0  0  0  0  0  0  0  0  0  0  # atno 17343 bound_to 10162
  156.9067  130.9638  151.3569 LP  0  0  0  0  0  0  0  0  0  0  0  0  # atno 17370 bound_to 10713
  157.6038  130.8532  149.8843 LP  0  0  0  0  0  0  0  0  0  0  0  0  # atno 17371 bound_to 10713
  140.2604  134.3578  155.7409 LP  0  0  0  0  0  0  0  0  0  0  0  0  # atno 17394 bound_to 11000
  141.2199  133.7366  156.9071 LP  0  0  0  0  0  0  0  0  0  0  0  0  # atno 17395 bound_to 11000

$$$$
