AV-unprocessed.smi:2119|AV-procd|sdf|8630|dock10
  -GOLD-   2272011373D 1   1.00000     0.00000
 Structure written by MMmdl.
 47 49  0  0  0  0  0  0  0  0  1 V2000
  146.9993  142.4046  159.7683 O   0  0  0  0  0  0  0  0  0  0  0  0
  147.2283  143.1978  158.8556 C   0  0  0  0  0  0  0  0  0  0  0  0
  148.2951  143.1069  158.0493 N   0  0  0  0  0  0  0  0  0  0  0  0
  149.3266  142.0757  158.1328 C   0  0  0  0  0  0  0  0  0  0  0  0
  150.6355  142.4338  157.3601 C   0  0  2  0  0  0  0  0  0  0  0  0
  150.6302  141.6898  155.9809 C   0  0  2  0  0  0  0  0  0  0  0  0
  149.2573  141.4658  155.3586 C   0  0  0  0  0  0  0  0  0  0  0  0
  149.4928  140.3347  154.3511 C   0  0  0  0  0  0  0  0  0  0  0  0
  150.8294  139.8916  154.5636 O   0  0  0  0  0  0  0  0  0  0  0  0
  151.2233  140.2857  155.8669 C   0  0  0  0  0  0  0  0  0  0  0  0
  151.8915  142.2451  158.1310 N   0  0  0  0  0  0  0  0  0  0  0  0
  152.0064  143.2103  159.2324 C   0  0  0  0  0  0  0  0  0  0  0  0
  153.3497  143.0945  159.9709 C   0  0  0  0  0  0  0  0  0  0  0  0
  153.4878  141.7772  160.4890 O   0  0  0  0  0  0  0  0  0  0  0  0
  153.4057  140.7836  159.4747 C   0  0  0  0  0  0  0  0  0  0  0  0
  152.0701  140.9135  158.7196 C   0  0  0  0  0  0  0  0  0  0  0  0
  146.4759  144.2667  158.5433 N   0  0  0  0  0  0  0  0  0  0  0  0
  145.2669  144.7104  159.1448 C   0  0  0  0  0  0  0  0  0  0  0  0
  144.4384  143.9071  159.9659 C   0  0  0  0  0  0  0  0  0  0  0  0
  143.2544  144.4633  160.4877 C   0  0  0  0  0  0  0  0  0  0  0  0
  142.9378  145.7969  160.1645 C   0  0  0  0  0  0  0  0  0  0  0  0
  143.7112  146.5699  159.3734 N   0  0  0  0  0  0  0  0  0  0  0  0
  144.8447  146.0300  158.8771 C   0  0  0  0  0  0  0  0  0  0  0  0
  148.4080  143.8044  157.3283 H   0  0  0  0  0  0  0  0  0  0  0  0
  149.5272  141.9121  159.1924 H   0  0  0  0  0  0  0  0  0  0  0  0
  148.9009  141.1457  157.7552 H   0  0  0  0  0  0  0  0  0  0  0  0
  150.5539  143.4991  157.1388 H   0  0  0  0  0  0  0  0  0  0  0  0
  151.2058  142.2942  155.2784 H   0  0  0  0  0  0  0  0  0  0  0  0
  148.5403  141.1449  156.1156 H   0  0  0  0  0  0  0  0  0  0  0  0
  148.8633  142.3638  154.8821 H   0  0  0  0  0  0  0  0  0  0  0  0
  148.7946  139.5138  154.5184 H   0  0  0  0  0  0  0  0  0  0  0  0
  149.3779  140.6745  153.3216 H   0  0  0  0  0  0  0  0  0  0  0  0
  152.3069  140.2647  155.9853 H   0  0  0  0  0  0  0  0  0  0  0  0
  150.7676  139.5853  156.5674 H   0  0  0  0  0  0  0  0  0  0  0  0
  151.8805  144.2343  158.8979 H   0  0  0  0  0  0  0  0  0  0  0  0
  151.1994  143.0415  159.9476 H   0  0  0  0  0  0  0  0  0  0  0  0
  154.1813  143.3250  159.3032 H   0  0  0  0  0  0  0  0  0  0  0  0
  153.3921  143.8063  160.7954 H   0  0  0  0  0  0  0  0  0  0  0  0
  154.2472  140.8874  158.7876 H   0  0  0  0  0  0  0  0  0  0  0  0
  153.4873  139.7985  159.9339 H   0  0  0  0  0  0  0  0  0  0  0  0
  151.2453  140.6904  159.3984 H   0  0  0  0  0  0  0  0  0  0  0  0
  152.0628  140.1496  157.9426 H   0  0  0  0  0  0  0  0  0  0  0  0
  146.8388  144.8655  157.8160 H   0  0  0  0  0  0  0  0  0  0  0  0
  144.6753  142.8803  160.1952 H   0  0  0  0  0  0  0  0  0  0  0  0
  142.6009  143.8785  161.1181 H   0  0  0  0  0  0  0  0  0  0  0  0
  142.0366  146.2530  160.5468 H   0  0  0  0  0  0  0  0  0  0  0  0
  145.4373  146.6771  158.2469 H   0  0  0  0  0  0  0  0  0  0  0  0
  1  2  2  0  0  0  0
  2  3  1  0  0  0  0
  2 17  1  0  0  0  0
  3  4  1  0  0  0  0
  3 24  1  0  0  0  0
  4  5  1  0  0  0  0
  4 25  1  0  0  0  0
  4 26  1  0  0  0  0
  5  6  1  0  0  0  0
  5 11  1  0  0  0  0
  5 27  1  0  0  0  0
  6 10  1  0  0  0  0
  6  7  1  0  0  0  0
  6 28  1  0  0  0  0
  7  8  1  0  0  0  0
  7 29  1  0  0  0  0
  7 30  1  0  0  0  0
  8  9  1  0  0  0  0
  8 31  1  0  0  0  0
  8 32  1  0  0  0  0
  9 10  1  0  0  0  0
 10 33  1  0  0  0  0
 10 34  1  0  0  0  0
 11 16  1  0  0  0  0
 11 12  1  0  0  0  0
 12 13  1  0  0  0  0
 12 35  1  0  0  0  0
 12 36  1  0  0  0  0
 13 14  1  0  0  0  0
 13 37  1  0  0  0  0
 13 38  1  0  0  0  0
 14 15  1  0  0  0  0
 15 16  1  0  0  0  0
 15 39  1  0  0  0  0
 15 40  1  0  0  0  0
 16 41  1  0  0  0  0
 16 42  1  0  0  0  0
 17 18  1  0  0  0  0
 17 43  1  0  0  0  0
 18 23  1  0  0  0  0
 18 19  2  0  0  0  0
 19 20  1  0  0  0  0
 19 44  1  0  0  0  0
 20 21  2  0  0  0  0
 20 45  1  0  0  0  0
 21 22  1  0  0  0  0
 21 46  1  0  0  0  0
 22 23  2  0  0  0  0
 23 47  1  0  0  0  0
M  END
> <s_m_source_file>
AV-unprocessed.smi

> <i_m_source_file_index>
2119

> <i_lp_mmshare_version>
43012

> <i_f3d_flags>
0

> <s_epik_input>
W2NIXTFuW2NIXVtjSF1bY0hdYzFbTkhdQyg9TylbTkhdW0NIMl1bQ0BIXShbQ0BASF0yW0NIMl1bQ0gyXU9bQ0gyXTIpTjNbQ0gyXVtDSDJdT1tDSDJdW0NIMl0z

> <s_epik_cmdline>
J2VwaWtfcHl0aG9uJywgJy1waCcsICc3LjAnLCAnLXRuJywgJzgnLCAnLW1hJywgJzIwMCcsICctbWV0YWxfYmluZGluZycsICctaW1hZScsICc8aW5maWxlLm1hZT4nLCAnLW9tYWUnLCAnPG91dGZpbGUubWFlPic=

> <r_epik_Ionization_Penalty>
0.129787

> <r_epik_Ionization_Penalty_Charging>
0

> <r_epik_Ionization_Penalty_Neutral>
0.129787

> <r_epik_State_Penalty>
0.121311

> <r_epik_Charging_Adjusted_Penalty>
0.121311

> <i_epik_Tot_Q>
0

> <i_epik_Tot_abs_Q>
0

> <r_epik_Metal_State_Penalty>
0.117931

> <b_epik_Metal_Only>
0

> <s_lp_Force_Field>
OPLS_2005

> <r_lp_Energy>
59.4027

> <b_lp_Chiralities_Consistent>
1

> <s_lp_Variant>
AV-unprocessed.smi:2119-1

> <Gold.Version>
5.8.1

> <Gold.Id.Protein>
6NUR|6NUR_protein|mol2

> <Gold.PLP.Fitness>
45.6727

> <Gold.PLP.PLP>
-36.0255

> <Gold.PLP.part.hbond>
-5.9543

> <Gold.PLP.part.metal>
0.0000

> <Gold.PLP.part.buried>
-2.1920

> <Gold.PLP.part.nonpolar>
-28.0093

> <Gold.PLP.part.repulsive>
0.3054

> <Gold.PLP.ligand.clash>
0.0000

> <Gold.PLP.ligand.torsion>
1.4459

> <Gold.PLP.Chemscore.Hbond>
3.5264

> <Gold.PLP.Chemscore.CHOScore>
0.6086

> <Gold.PLP.Chemscore.Metal>
0.0000

> <Gold.Chemscore.Hbonds>
donor molecule, donor type, donor heavy atom, donor atom, acceptor molecule, acceptor atom, score
      L1  H     3    24       P1  8028  0.30
      L1  H    17    43       P1  8029  1.00
      P1  H  6933  6944       L1     1  0.30
      P1  H  6934  6946       L1     1  0.86
      P1  H  7989  7998       L1     9  1.00
      L1  C    23    47       P1  8029  0.59

> <Gold.PLP.Chemscore.Internal.Correction>
0.1342

> <Gold.Rescore>
     Score         DG    S(hbond)    S(metal)    S(lipo)     H(rot)  DE(clash)    DE(int)     intcor
     18.40     -21.66       2.41        0.00     105.62       1.65       0.97       2.29       ----

> <Gold.Chemscore.Fitness>
18.3981

> <Gold.Chemscore.DG>
-21.6585

> <Gold.Chemscore.ZeroCoef>
-5.4800

> <Gold.Chemscore.Hbond>
2.4093

> <Gold.Chemscore.Metal>
0.0000

> <Gold.Chemscore.Lipo>
105.6205

> <Gold.Chemscore.Internal_Hbond>
0.0000

> <Gold.Chemscore.DEClash>
0.9745

> <Gold.Chemscore.DEInternal>
2.2858

> <Gold.Chemscore.Rot>
1.6508

> <Gold.Chemscore.Internal.Correction>
   9.000000E+99

> <Gold.Chemscore.Hbonds>
donor molecule, donor type, donor heavy atom, donor atom, acceptor molecule, acceptor atom, score
      L1  H    17    43       P1  8029  0.47
      P1  H  6933  6944       L1     1  0.28
      P1  H  6934  6946       L1     1  0.85
      P1  H  7989  7998       L1     9  0.15

> <Gold.Chemscore.Hbond.Weighted>
-8.0470

> <Gold.Chemscore.Metal.Weighted>
-0.0000

> <Gold.Chemscore.Lipo.Weighted>
-12.3576

> <Gold.Chemscore.Internal_Hbond.Weighted>
0.0000

> <Gold.Chemscore.DEClash.Weighted>
0.9745

> <Gold.Chemscore.DEInternal.Weighted>
2.2858

> <Gold.Chemscore.Rot.Weighted>
4.2262

> <Gold.Chemscore.Internal.Correction.Weighted>
   9.000000E+99

> <Gold.Protein.RotatedTorsions>
[ 6907 6896 6895 6894 ] final   -9.71 input  -60.11 | X-H torsion
[ 7974 7965 7964 7962 ] final  -95.30 input  175.53 | X-H torsion
[ 8008 7997 7996 7995 ] final  136.61 input   59.86 | X-H torsion
[ 10167 10162 10161 10158 ] final  155.27 input  -65.29 | X-H torsion
[ 10718 10713 10712 10709 ] final -142.48 input   66.30 | X-H torsion
[ 10763 10752 10751 10750 ] final   51.13 input  -60.55 | X-H torsion
[ 11005 11000 10999 10996 ] final  116.84 input  -57.11 | X-H torsion

> <Gold.Protein.ActiveResidues>
 VAL166  LYS551  ARG553  GLY616  TRP617  ASP618  TYR619  PRO620  LYS621  CYS622 
 ASP623  PHE694  ASN695  SER759  ASP760  ASP761  ALA762  ILE779  LEU786  VAL792 
 PHE793  MET794  SER795  GLU796  ALA797  LYS798  CYS799  TRP800  GLU811  SER814 

> <Gold.Protein.RotatedAtoms>
  151.4134  135.0988  159.9591 H   0  0  0  0  0  0  0  0  0  0  0  0  # atno 6907 bound_to 6896
  152.5012  133.8775  159.7340 H   0  0  0  0  0  0  0  0  0  0  0  0  # atno 6908 bound_to 6896
  150.9275  133.6749  159.2846 H   0  0  0  0  0  0  0  0  0  0  0  0  # atno 6909 bound_to 6896
  145.3618  140.9493  143.2496 H   0  0  0  0  0  0  0  0  0  0  0  0  # atno 7974 bound_to 7965
  156.3004  140.2441  156.3773 H   0  0  0  0  0  0  0  0  0  0  0  0  # atno 8008 bound_to 7997
  154.8733  140.0415  157.1757 H   0  0  0  0  0  0  0  0  0  0  0  0  # atno 8009 bound_to 7997
  154.8772  140.2944  155.5450 H   0  0  0  0  0  0  0  0  0  0  0  0  # atno 8010 bound_to 7997
  139.4821  144.5113  151.8020 H   0  0  0  0  0  0  0  0  0  0  0  0  # atno 10167 bound_to 10162
  156.3464  130.7665  151.1810 H   0  0  0  0  0  0  0  0  0  0  0  0  # atno 10718 bound_to 10713
  152.9785  135.5856  154.4365 H   0  0  0  0  0  0  0  0  0  0  0  0  # atno 10763 bound_to 10752
  154.3971  135.2768  155.2121 H   0  0  0  0  0  0  0  0  0  0  0  0  # atno 10764 bound_to 10752
  154.3968  135.6113  153.5928 H   0  0  0  0  0  0  0  0  0  0  0  0  # atno 10765 bound_to 10752
  139.9054  134.9603  156.7260 H   0  0  0  0  0  0  0  0  0  0  0  0  # atno 11005 bound_to 11000
  144.8640  139.5134  143.6799 LP  0  0  0  0  0  0  0  0  0  0  0  0  # atno 17320 bound_to 7965
  146.2924  139.7177  142.9151 LP  0  0  0  0  0  0  0  0  0  0  0  0  # atno 17321 bound_to 7965
  140.4617  144.1713  150.5907 LP  0  0  0  0  0  0  0  0  0  0  0  0  # atno 17342 bound_to 10162
  140.4478  143.2499  151.9388 LP  0  0  0  0  0  0  0  0  0  0  0  0  # atno 17343 bound_to 10162
  157.7455  131.0440  150.4770 LP  0  0  0  0  0  0  0  0  0  0  0  0  # atno 17370 bound_to 10713
  156.4959  130.4106  149.6380 LP  0  0  0  0  0  0  0  0  0  0  0  0  # atno 17371 bound_to 10713
  140.6963  133.9346  155.7997 LP  0  0  0  0  0  0  0  0  0  0  0  0  # atno 17394 bound_to 11000
  141.0405  134.0629  157.3908 LP  0  0  0  0  0  0  0  0  0  0  0  0  # atno 17395 bound_to 11000

$$$$
