AV-unprocessed.smi:1464|AV-procd|sdf|5938|dock6
  -GOLD-   22720 6 23D 1   1.00000     0.00000
 Structure written by MMmdl.
 40 41  0  0  0  0  0  0  0  0  2 V2000
  153.0097  144.4395  158.2901 C   0  0  0  0  0  0  0  0  0  0  0  0
  152.2231  143.8864  159.4963 C   0  0  1  0  0  0  0  0  0  0  0  0
  150.7243  144.2374  159.4061 C   0  0  0  0  0  0  0  0  0  0  0  0
  150.0020  143.4165  158.3268 C   0  0  0  0  0  0  0  0  0  0  0  0
  150.1851  141.9111  158.5624 C   0  0  0  0  0  0  0  0  0  0  0  0
  151.6734  141.5160  158.6627 C   0  0  2  0  0  0  0  0  0  0  0  0
  151.7747  140.0943  158.9852 N   0  0  0  0  0  0  0  0  0  0  0  0
  152.2556  139.1386  158.1753 C   0  0  0  0  0  0  0  0  0  0  0  0
  152.6760  139.3670  157.0399 O   0  0  0  0  0  0  0  0  0  0  0  0
  152.2454  137.7161  158.7576 C   0  0  0  0  0  0  0  0  0  0  0  0
  153.5547  137.2410  159.2290 N   0  0  0  0  0  0  0  0  0  0  0  0
  153.5303  136.6969  160.5844 N   0  5  0  0  0  0  0  0  0  0  0  0
  154.6825  136.2249  161.1297 C   0  0  0  0  0  0  0  0  0  0  0  0
  154.7410  135.7613  162.2662 O   0  0  0  0  0  0  0  0  0  0  0  0
  155.8909  136.2726  160.3232 C   0  0  0  0  0  0  0  0  0  0  0  0
  155.8806  136.7643  159.0686 C   0  0  0  0  0  0  0  0  0  0  0  0
  154.6686  137.2786  158.4429 C   0  0  0  0  0  0  0  0  0  0  0  0
  154.6492  137.7151  157.2917 O   0  0  0  0  0  0  0  0  0  0  0  0
  152.4092  142.3636  159.7332 C   0  0  1  0  0  0  0  0  0  0  0  0
  153.8919  141.9721  159.8925 C   0  0  0  0  0  0  0  0  0  0  0  0
  152.7378  143.9449  157.3582 H   0  0  0  0  0  0  0  0  0  0  0  0
  154.0847  144.3212  158.4247 H   0  0  0  0  0  0  0  0  0  0  0  0
  152.8229  145.5060  158.1614 H   0  0  0  0  0  0  0  0  0  0  0  0
  152.6133  144.4015  160.3751 H   0  0  0  0  0  0  0  0  0  0  0  0
  150.2530  144.0469  160.3714 H   0  0  0  0  0  0  0  0  0  0  0  0
  150.5951  145.3031  159.2141 H   0  0  0  0  0  0  0  0  0  0  0  0
  148.9397  143.6621  158.3253 H   0  0  0  0  0  0  0  0  0  0  0  0
  150.3771  143.6834  157.3387 H   0  0  0  0  0  0  0  0  0  0  0  0
  149.6684  141.6292  159.4811 H   0  0  0  0  0  0  0  0  0  0  0  0
  149.7028  141.3557  157.7570 H   0  0  0  0  0  0  0  0  0  0  0  0
  152.1502  141.6948  157.6974 H   0  0  0  0  0  0  0  0  0  0  0  0
  151.4549  139.8135  159.9007 H   0  0  0  0  0  0  0  0  0  0  0  0
  151.5199  137.6871  159.5729 H   0  0  0  0  0  0  0  0  0  0  0  0
  151.8579  137.0321  158.0006 H   0  0  0  0  0  0  0  0  0  0  0  0
  156.8167  135.9036  160.7391 H   0  0  0  0  0  0  0  0  0  0  0  0
  156.8019  136.7796  158.5057 H   0  0  0  0  0  0  0  0  0  0  0  0
  151.9348  142.1448  160.6916 H   0  0  0  0  0  0  0  0  0  0  0  0
  154.4277  142.0353  158.9451 H   0  0  0  0  0  0  0  0  0  0  0  0
  153.9991  140.9508  160.2585 H   0  0  0  0  0  0  0  0  0  0  0  0
  154.3954  142.6235  160.6071 H   0  0  0  0  0  0  0  0  0  0  0  0
  1  2  1  0  0  0  0
  1 21  1  0  0  0  0
  1 22  1  0  0  0  0
  1 23  1  0  0  0  0
  2 19  1  0  0  0  0
  2  3  1  0  0  0  0
  2 24  1  0  0  0  0
  3  4  1  0  0  0  0
  3 25  1  0  0  0  0
  3 26  1  0  0  0  0
  4  5  1  0  0  0  0
  4 27  1  0  0  0  0
  4 28  1  0  0  0  0
  5  6  1  0  0  0  0
  5 29  1  0  0  0  0
  5 30  1  0  0  0  0
  6  7  1  0  0  0  0
  6 19  1  0  0  0  0
  6 31  1  0  0  0  0
  7  8  1  0  0  0  0
  7 32  1  0  0  0  0
  8  9  2  0  0  0  0
  8 10  1  0  0  0  0
 10 33  1  0  0  0  0
 10 34  1  0  0  0  0
 10 11  1  0  0  0  0
 11 12  1  0  0  0  0
 11 17  1  0  0  0  0
 12 13  1  0  0  0  0
 13 14  2  0  0  0  0
 13 15  1  0  0  0  0
 15 35  1  0  0  0  0
 15 16  2  0  0  0  0
 16 36  1  0  0  0  0
 16 17  1  0  0  0  0
 17 18  2  0  0  0  0
 19 20  1  0  0  0  0
 19 37  1  0  0  0  0
 20 38  1  0  0  0  0
 20 39  1  0  0  0  0
 20 40  1  0  0  0  0
M  CHG  1  12  -1
M  END
> <s_m_source_file>
AV-unprocessed.smi

> <i_m_source_file_index>
1464

> <i_lp_mmshare_version>
43012

> <i_f3d_flags>
0

> <s_epik_input>
W0NIM11bQ0BASF0xW0NIMl1bQ0gyXVtDSDJdW0NASF0oW0NASF0xW0NIM10pW05IXUMoPU8pW0NIMl1uMltuSF1jKD1PKVtjSF1bY0hdYzI9Tw==

> <s_epik_cmdline>
J2VwaWtfcHl0aG9uJywgJy1waCcsICc3LjAnLCAnLXRuJywgJzgnLCAnLW1hJywgJzIwMCcsICctbWV0YWxfYmluZGluZycsICctaW1hZScsICc8aW5maWxlLm1hZT4nLCAnLW9tYWUnLCAnPG91dGZpbGUubWFlPic=

> <r_lp_tautomer_probability>
1

> <r_epik_Ionization_Penalty>
0.101366

> <r_epik_Ionization_Penalty_Charging>
0.101366

> <r_epik_Ionization_Penalty_Neutral>
1.90469e-08

> <r_epik_State_Penalty>
0.035861

> <r_epik_Charging_Adjusted_Penalty>
0.137227

> <i_epik_Tot_Q>
-1

> <i_epik_Tot_abs_Q>
1

> <r_epik_Metal_State_Penalty>
0.035861

> <b_epik_Metal_Only>
0

> <s_lp_Force_Field>
OPLS_2005

> <r_lp_Energy>
30.3142

> <b_lp_Chiralities_Consistent>
1

> <s_lp_Variant>
AV-unprocessed.smi:1464-4

> <Gold.Version>
5.8.1

> <Gold.Id.Protein>
6NUR|6NUR_protein|mol2

> <Gold.PLP.Fitness>
38.6325

> <Gold.PLP.PLP>
-30.3134

> <Gold.PLP.part.hbond>
-2.9830

> <Gold.PLP.part.metal>
0.0000

> <Gold.PLP.part.buried>
-4.4222

> <Gold.PLP.part.nonpolar>
-23.1503

> <Gold.PLP.part.repulsive>
0.1395

> <Gold.PLP.ligand.clash>
0.0000

> <Gold.PLP.ligand.torsion>
0.3435

> <Gold.PLP.Chemscore.Hbond>
3.0000

> <Gold.PLP.Chemscore.CHOScore>
0.0000

> <Gold.PLP.Chemscore.Metal>
0.0000

> <Gold.Chemscore.Hbonds>
donor molecule, donor type, donor heavy atom, donor atom, acceptor molecule, acceptor atom, score
      P1  H  6896  6909       L1    12  0.63
      P1  H  7997  8009       L1     9  1.00

> <Gold.PLP.Chemscore.Internal.Correction>
0.0061

> <Gold.Rescore>
     Score         DG    S(hbond)    S(metal)    S(lipo)     H(rot)  DE(clash)    DE(int)     intcor
     13.34     -16.47       1.63        0.00      83.37       1.64       0.04       3.09       ----

> <Gold.Chemscore.Fitness>
13.3438

> <Gold.Chemscore.DG>
-16.4733

> <Gold.Chemscore.ZeroCoef>
-5.4800

> <Gold.Chemscore.Hbond>
1.6309

> <Gold.Chemscore.Metal>
0.0000

> <Gold.Chemscore.Lipo>
83.3672

> <Gold.Chemscore.Internal_Hbond>
0.0000

> <Gold.Chemscore.DEClash>
0.0396

> <Gold.Chemscore.DEInternal>
3.0898

> <Gold.Chemscore.Rot>
1.6438

> <Gold.Chemscore.Internal.Correction>
   9.000000E+99

> <Gold.Chemscore.Hbonds>
donor molecule, donor type, donor heavy atom, donor atom, acceptor molecule, acceptor atom, score
      P1  H  6896  6909       L1    12  0.03
      P1  H  7997  8009       L1     9  1.00

> <Gold.Chemscore.Hbond.Weighted>
-5.4473

> <Gold.Chemscore.Metal.Weighted>
-0.0000

> <Gold.Chemscore.Lipo.Weighted>
-9.7540

> <Gold.Chemscore.Internal_Hbond.Weighted>
0.0000

> <Gold.Chemscore.DEClash.Weighted>
0.0396

> <Gold.Chemscore.DEInternal.Weighted>
3.0898

> <Gold.Chemscore.Rot.Weighted>
4.2080

> <Gold.Chemscore.Internal.Correction.Weighted>
   9.000000E+99

> <Gold.Protein.RotatedTorsions>
[ 6907 6896 6895 6894 ] final  154.21 input  -60.11 | X-H torsion
[ 7974 7965 7964 7962 ] final  121.61 input  175.53 | X-H torsion
[ 8008 7997 7996 7995 ] final  179.45 input   59.86 | X-H torsion
[ 10167 10162 10161 10158 ] final   93.94 input  -65.29 | X-H torsion
[ 10718 10713 10712 10709 ] final  -20.83 input   66.30 | X-H torsion
[ 10763 10752 10751 10750 ] final -169.88 input  -60.55 | X-H torsion
[ 11005 11000 10999 10996 ] final   17.44 input  -57.11 | X-H torsion

> <Gold.Protein.ActiveResidues>
 VAL166  LYS551  ARG553  GLY616  TRP617  ASP618  TYR619  PRO620  LYS621  CYS622 
 ASP623  PHE694  ASN695  SER759  ASP760  ASP761  ALA762  ILE779  LEU786  VAL792 
 PHE793  MET794  SER795  GLU796  ALA797  LYS798  CYS799  TRP800  GLU811  SER814 

> <Gold.Protein.RotatedAtoms>
  152.0616  133.4065  159.4420 H   0  0  0  0  0  0  0  0  0  0  0  0  # atno 6907 bound_to 6896
  150.6866  134.3193  159.4789 H   0  0  0  0  0  0  0  0  0  0  0  0  # atno 6908 bound_to 6896
  152.1015  134.9338  160.0620 H   0  0  0  0  0  0  0  0  0  0  0  0  # atno 6909 bound_to 6896
  145.1173  139.3412  143.4732 H   0  0  0  0  0  0  0  0  0  0  0  0  # atno 7974 bound_to 7965
  156.0433  140.1308  157.0132 H   0  0  0  0  0  0  0  0  0  0  0  0  # atno 8008 bound_to 7997
  154.4401  140.1026  156.6339 H   0  0  0  0  0  0  0  0  0  0  0  0  # atno 8009 bound_to 7997
  155.5634  140.3465  155.4499 H   0  0  0  0  0  0  0  0  0  0  0  0  # atno 8010 bound_to 7997
  139.8131  144.6764  150.9614 H   0  0  0  0  0  0  0  0  0  0  0  0  # atno 10167 bound_to 10162
  156.5264  130.4644  149.6570 H   0  0  0  0  0  0  0  0  0  0  0  0  # atno 10718 bound_to 10713
  154.6475  135.2907  155.0028 H   0  0  0  0  0  0  0  0  0  0  0  0  # atno 10763 bound_to 10752
  154.1132  135.6559  153.4893 H   0  0  0  0  0  0  0  0  0  0  0  0  # atno 10764 bound_to 10752
  153.0359  135.5270  154.7369 H   0  0  0  0  0  0  0  0  0  0  0  0  # atno 10765 bound_to 10752
  140.4360  134.1371  155.7685 H   0  0  0  0  0  0  0  0  0  0  0  0  # atno 11005 bound_to 11000
  146.3523  140.1118  142.8603 LP  0  0  0  0  0  0  0  0  0  0  0  0  # atno 17320 bound_to 7965
  145.0779  140.9201  143.4843 LP  0  0  0  0  0  0  0  0  0  0  0  0  # atno 17321 bound_to 7965
  140.7817  143.4165  151.0909 LP  0  0  0  0  0  0  0  0  0  0  0  0  # atno 17342 bound_to 10162
  139.7830  143.8327  152.3140 LP  0  0  0  0  0  0  0  0  0  0  0  0  # atno 17343 bound_to 10162
  156.3101  130.7224  151.2115 LP  0  0  0  0  0  0  0  0  0  0  0  0  # atno 17370 bound_to 10713
  157.7429  131.0483  150.4991 LP  0  0  0  0  0  0  0  0  0  0  0  0  # atno 17371 bound_to 10713
  141.1726  133.8579  157.1524 LP  0  0  0  0  0  0  0  0  0  0  0  0  # atno 17394 bound_to 11000
  140.0102  134.9991  157.0379 LP  0  0  0  0  0  0  0  0  0  0  0  0  # atno 17395 bound_to 11000

$$$$
