AV-unprocessed.smi:1673|AV-procd|sdf|6709|dock8
  -GOLD-   22720 7453D 1   1.00000     0.00000
 Structure written by MMmdl.
 39 40  0  0  0  0  0  0  0  0  1 V2000
  150.6681  136.2194  155.9592 C   0  0  0  0  0  0  0  0  0  0  0  0
  150.6332  134.7201  155.8509 C   0  0  0  0  0  0  0  0  0  0  0  0
  151.4226  133.9997  156.6341 N   0  0  0  0  0  0  0  0  0  0  0  0
  151.2361  132.6572  156.2701 O   0  0  0  0  0  0  0  0  0  0  0  0
  150.3256  132.5970  155.2637 C   0  0  0  0  0  0  0  0  0  0  0  0
  150.0047  131.2456  154.7203 C   0  0  0  0  0  0  0  0  0  0  0  0
  149.8950  133.8605  154.9851 C   0  0  0  0  0  0  0  0  0  0  0  0
  148.9607  134.1895  153.9716 N   0  0  0  0  0  0  0  0  0  0  0  0
  147.8832  133.4766  153.6103 C   0  0  0  0  0  0  0  0  0  0  0  0
  147.5695  132.3873  154.0897 O   0  0  0  0  0  0  0  0  0  0  0  0
  147.1931  134.0939  152.6404 N   0  0  0  0  0  0  0  0  0  0  0  0
  145.9738  133.5947  152.0055 C   0  0  2  0  0  0  0  0  0  0  0  0
  146.2118  132.1396  151.5560 C   0  0  0  0  0  0  0  0  0  0  0  0
  144.9904  131.5626  150.8257 C   0  0  0  0  0  0  0  0  0  0  0  0
  144.5969  132.4444  149.6334 C   0  0  0  0  0  0  0  0  0  0  0  0
  144.3417  133.8917  150.0796 C   0  0  0  0  0  0  0  0  0  0  0  0
  145.5601  134.4926  150.8103 C   0  0  1  0  0  0  0  0  0  0  0  0
  145.2737  135.9472  151.2249 C   0  0  0  0  0  0  0  0  0  0  0  0
  150.4950  136.6896  154.9913 H   0  0  0  0  0  0  0  0  0  0  0  0
  151.6351  136.5705  156.3211 H   0  0  0  0  0  0  0  0  0  0  0  0
  149.9061  136.5798  156.6504 H   0  0  0  0  0  0  0  0  0  0  0  0
  149.3473  131.3166  153.8536 H   0  0  0  0  0  0  0  0  0  0  0  0
  149.5057  130.6358  155.4734 H   0  0  0  0  0  0  0  0  0  0  0  0
  150.9132  130.7280  154.4124 H   0  0  0  0  0  0  0  0  0  0  0  0
  149.1783  135.0019  153.4136 H   0  0  0  0  0  0  0  0  0  0  0  0
  147.5367  134.9847  152.3129 H   0  0  0  0  0  0  0  0  0  0  0  0
  145.1542  133.5858  152.7267 H   0  0  0  0  0  0  0  0  0  0  0  0
  147.0796  132.0932  150.8962 H   0  0  0  0  0  0  0  0  0  0  0  0
  146.4476  131.5163  152.4194 H   0  0  0  0  0  0  0  0  0  0  0  0
  145.2046  130.5494  150.4843 H   0  0  0  0  0  0  0  0  0  0  0  0
  144.1514  131.4856  151.5184 H   0  0  0  0  0  0  0  0  0  0  0  0
  145.3901  132.4251  148.8848 H   0  0  0  0  0  0  0  0  0  0  0  0
  143.7062  132.0408  149.1511 H   0  0  0  0  0  0  0  0  0  0  0  0
  144.0910  134.4999  149.2100 H   0  0  0  0  0  0  0  0  0  0  0  0
  143.4699  133.9197  150.7352 H   0  0  0  0  0  0  0  0  0  0  0  0
  146.3895  134.5139  150.1015 H   0  0  0  0  0  0  0  0  0  0  0  0
  144.4801  135.9965  151.9711 H   0  0  0  0  0  0  0  0  0  0  0  0
  144.9610  136.5441  150.3677 H   0  0  0  0  0  0  0  0  0  0  0  0
  146.1565  136.4290  151.6452 H   0  0  0  0  0  0  0  0  0  0  0  0
  1  2  1  0  0  0  0
  1 19  1  0  0  0  0
  1 20  1  0  0  0  0
  1 21  1  0  0  0  0
  2  7  1  0  0  0  0
  2  3  2  0  0  0  0
  3  4  1  0  0  0  0
  4  5  1  0  0  0  0
  5  6  1  0  0  0  0
  5  7  2  0  0  0  0
  6 22  1  0  0  0  0
  6 23  1  0  0  0  0
  6 24  1  0  0  0  0
  7  8  1  0  0  0  0
  8  9  1  0  0  0  0
  8 25  1  0  0  0  0
  9 10  2  0  0  0  0
  9 11  1  0  0  0  0
 11 12  1  0  0  0  0
 11 26  1  0  0  0  0
 12 17  1  0  0  0  0
 12 13  1  0  0  0  0
 12 27  1  0  0  0  0
 13 14  1  0  0  0  0
 13 28  1  0  0  0  0
 13 29  1  0  0  0  0
 14 15  1  0  0  0  0
 14 30  1  0  0  0  0
 14 31  1  0  0  0  0
 15 16  1  0  0  0  0
 15 32  1  0  0  0  0
 15 33  1  0  0  0  0
 16 17  1  0  0  0  0
 16 34  1  0  0  0  0
 16 35  1  0  0  0  0
 17 18  1  0  0  0  0
 17 36  1  0  0  0  0
 18 37  1  0  0  0  0
 18 38  1  0  0  0  0
 18 39  1  0  0  0  0
M  END
> <s_m_source_file>
AV-unprocessed.smi

> <i_m_source_file_index>
1673

> <i_lp_mmshare_version>
43012

> <i_f3d_flags>
0

> <s_epik_input>
W0NIM11jMW5vYyhbQ0gzXSljMVtOSF1DKD1PKVtOSF1bQ0BASF0yW0NIMl1bQ0gyXVtDSDJdW0NIMl1bQ0BIXTJbQ0gzXQ==

> <s_epik_cmdline>
J2VwaWtfcHl0aG9uJywgJy1waCcsICc3LjAnLCAnLXRuJywgJzgnLCAnLW1hJywgJzIwMCcsICctbWV0YWxfYmluZGluZycsICctaW1hZScsICc8aW5maWxlLm1hZT4nLCAnLW9tYWUnLCAnPG91dGZpbGUubWFlPic=

> <r_lp_tautomer_probability>
1

> <r_epik_Ionization_Penalty>
4.01865e-05

> <r_epik_Ionization_Penalty_Charging>
0

> <r_epik_Ionization_Penalty_Neutral>
4.01865e-05

> <r_epik_State_Penalty>
-0

> <r_epik_Charging_Adjusted_Penalty>
0

> <i_epik_Tot_Q>
0

> <i_epik_Tot_abs_Q>
0

> <r_epik_Metal_State_Penalty>
-0

> <b_epik_Metal_Only>
0

> <s_lp_Force_Field>
OPLS_2005

> <r_lp_Energy>
12.0287

> <b_lp_Chiralities_Consistent>
1

> <s_lp_Variant>
AV-unprocessed.smi:1673-1

> <Gold.Version>
5.8.1

> <Gold.Id.Protein>
6NUR|6NUR_protein|mol2

> <Gold.PLP.Fitness>
38.8171

> <Gold.PLP.PLP>
-33.4888

> <Gold.PLP.part.hbond>
-2.3093

> <Gold.PLP.part.metal>
0.0000

> <Gold.PLP.part.buried>
-4.8658

> <Gold.PLP.part.nonpolar>
-26.4121

> <Gold.PLP.part.repulsive>
0.0530

> <Gold.PLP.ligand.clash>
0.0000

> <Gold.PLP.ligand.torsion>
0.3161

> <Gold.PLP.Chemscore.Hbond>
1.9000

> <Gold.PLP.Chemscore.CHOScore>
0.0000

> <Gold.PLP.Chemscore.Metal>
0.0000

> <Gold.Chemscore.Hbonds>
donor molecule, donor type, donor heavy atom, donor atom, acceptor molecule, acceptor atom, score
      L1  H     8    25       P1  7948  0.85
      L1  H    11    26       P1  7948  1.00

> <Gold.PLP.Chemscore.Internal.Correction>
0.2604

> <Gold.Rescore>
     Score         DG    S(hbond)    S(metal)    S(lipo)     H(rot)  DE(clash)    DE(int)     intcor
     12.96     -16.92       1.49        0.00      77.05       1.00       0.00       3.95       ----

> <Gold.Chemscore.Fitness>
12.9635

> <Gold.Chemscore.DG>
-16.9152

> <Gold.Chemscore.ZeroCoef>
-5.4800

> <Gold.Chemscore.Hbond>
1.4912

> <Gold.Chemscore.Metal>
0.0000

> <Gold.Chemscore.Lipo>
77.0488

> <Gold.Chemscore.Internal_Hbond>
0.0000

> <Gold.Chemscore.DEClash>
0.0000

> <Gold.Chemscore.DEInternal>
3.9517

> <Gold.Chemscore.Rot>
1.0000

> <Gold.Chemscore.Internal.Correction>
   9.000000E+99

> <Gold.Chemscore.Hbonds>
donor molecule, donor type, donor heavy atom, donor atom, acceptor molecule, acceptor atom, score
      L1  H     8    25       P1  7948  0.14
      L1  H    11    26       P1  7948  0.92

> <Gold.Chemscore.Hbond.Weighted>
-4.9805

> <Gold.Chemscore.Metal.Weighted>
-0.0000

> <Gold.Chemscore.Lipo.Weighted>
-9.0147

> <Gold.Chemscore.Internal_Hbond.Weighted>
0.0000

> <Gold.Chemscore.DEClash.Weighted>
0.0000

> <Gold.Chemscore.DEInternal.Weighted>
3.9517

> <Gold.Chemscore.Rot.Weighted>
2.5600

> <Gold.Chemscore.Internal.Correction.Weighted>
   9.000000E+99

> <Gold.Protein.RotatedTorsions>
[ 6907 6896 6895 6894 ] final  171.04 input  -60.11 | X-H torsion
[ 7974 7965 7964 7962 ] final   31.29 input  175.53 | X-H torsion
[ 8008 7997 7996 7995 ] final   51.49 input   59.86 | X-H torsion
[ 10167 10162 10161 10158 ] final  108.70 input  -65.29 | X-H torsion
[ 10718 10713 10712 10709 ] final  -13.83 input   66.30 | X-H torsion
[ 10763 10752 10751 10750 ] final  146.27 input  -60.55 | X-H torsion
[ 11005 11000 10999 10996 ] final  101.22 input  -57.11 | X-H torsion

> <Gold.Protein.ActiveResidues>
 VAL166  LYS551  ARG553  GLY616  TRP617  ASP618  TYR619  PRO620  LYS621  CYS622 
 ASP623  PHE694  ASN695  SER759  ASP760  ASP761  ALA762  ILE779  LEU786  VAL792 
 PHE793  MET794  SER795  GLU796  ALA797  LYS798  CYS799  TRP800  GLU811  SER814 

> <Gold.Protein.RotatedAtoms>
  151.8065  133.3376  159.3542 H   0  0  0  0  0  0  0  0  0  0  0  0  # atno 6907 bound_to 6896
  150.7340  134.5704  159.5897 H   0  0  0  0  0  0  0  0  0  0  0  0  # atno 6908 bound_to 6896
  152.3106  134.7503  160.0388 H   0  0  0  0  0  0  0  0  0  0  0  0  # atno 6909 bound_to 6896
  146.1559  139.6676  142.9067 H   0  0  0  0  0  0  0  0  0  0  0  0  # atno 7974 bound_to 7965
  155.4362  140.3452  155.4285 H   0  0  0  0  0  0  0  0  0  0  0  0  # atno 8008 bound_to 7997
  156.1306  140.1513  156.9101 H   0  0  0  0  0  0  0  0  0  0  0  0  # atno 8009 bound_to 7997
  154.4892  140.0846  156.7536 H   0  0  0  0  0  0  0  0  0  0  0  0  # atno 8010 bound_to 7997
  139.6825  144.7117  151.1491 H   0  0  0  0  0  0  0  0  0  0  0  0  # atno 10167 bound_to 10162
  156.6246  130.4885  149.6151 H   0  0  0  0  0  0  0  0  0  0  0  0  # atno 10718 bound_to 10713
  154.0191  135.2907  155.3383 H   0  0  0  0  0  0  0  0  0  0  0  0  # atno 10763 bound_to 10752
  154.7057  135.5170  153.8595 H   0  0  0  0  0  0  0  0  0  0  0  0  # atno 10764 bound_to 10752
  153.0689  135.6641  154.0414 H   0  0  0  0  0  0  0  0  0  0  0  0  # atno 10765 bound_to 10752
  139.8773  134.9174  156.4874 H   0  0  0  0  0  0  0  0  0  0  0  0  # atno 11005 bound_to 11000
  145.4709  141.0436  143.2699 LP  0  0  0  0  0  0  0  0  0  0  0  0  # atno 17320 bound_to 7965
  144.7963  139.6228  143.7091 LP  0  0  0  0  0  0  0  0  0  0  0  0  # atno 17321 bound_to 7965
  140.7657  143.5678  150.9028 LP  0  0  0  0  0  0  0  0  0  0  0  0  # atno 17342 bound_to 10162
  139.9351  143.6447  152.3067 LP  0  0  0  0  0  0  0  0  0  0  0  0  # atno 17343 bound_to 10162
  156.2284  130.6779  151.1438 LP  0  0  0  0  0  0  0  0  0  0  0  0  # atno 17370 bound_to 10713
  157.7218  131.0677  150.6105 LP  0  0  0  0  0  0  0  0  0  0  0  0  # atno 17371 bound_to 10713
  140.8683  133.8007  155.9337 LP  0  0  0  0  0  0  0  0  0  0  0  0  # atno 17394 bound_to 11000
  140.8979  134.2415  157.5058 LP  0  0  0  0  0  0  0  0  0  0  0  0  # atno 17395 bound_to 11000

$$$$
