AV-unprocessed.smi:1565|AV-procd|sdf|6297|dock7
  -GOLD-   22720 6493D 1   1.00000     0.00000
 Structure written by MMmdl.
 40 41  0  0  0  0  0  0  0  0  1 V2000
  149.3920  141.7253  157.5647 C   0  0  0  0  0  0  0  0  0  0  0  0
  150.8436  141.9379  157.0993 C   0  0  2  0  0  0  0  0  0  0  0  0
  151.7714  140.7510  157.4254 C   0  0  0  0  0  0  0  0  0  0  0  0
  152.1140  140.7284  158.8447 N   0  0  0  0  0  0  0  0  0  0  0  0
  152.7062  139.5350  159.3097 C   0  0  0  0  0  0  0  0  0  0  0  0
  152.3756  138.2978  158.7087 C   0  0  0  0  0  0  0  0  0  0  0  0
  152.9811  137.1189  159.1844 C   0  0  0  0  0  0  0  0  0  0  0  0
  153.9081  137.2012  160.2442 C   0  0  0  0  0  0  0  0  0  0  0  0
  154.5580  135.9630  160.7906 C   0  0  0  0  0  0  0  0  0  0  0  0
  154.5637  134.9160  160.1430 O   0  0  0  0  0  0  0  0  0  0  0  0
  155.1667  136.1038  161.9788 N   0  0  0  0  0  0  0  0  0  0  0  0
  155.9079  135.0562  162.6733 C   0  0  0  0  0  0  0  0  0  0  0  0
  155.1100  134.4689  163.8498 C   0  0  0  0  0  0  0  0  0  0  0  0
  155.9508  134.1600  164.8361 F   0  0  0  0  0  0  0  0  0  0  0  0
  154.2207  135.3490  164.3097 F   0  0  0  0  0  0  0  0  0  0  0  0
  154.4743  133.3607  163.4685 F   0  0  0  0  0  0  0  0  0  0  0  0
  154.1611  138.4781  160.7930 C   0  0  0  0  0  0  0  0  0  0  0  0
  153.5827  139.6105  160.3411 N   0  0  0  0  0  0  0  0  0  0  0  0
  152.6525  141.9973  159.3264 C   0  0  0  0  0  0  0  0  0  0  0  0
  151.6836  143.1479  159.0020 C   0  0  1  0  0  0  0  0  0  0  0  0
  152.2724  144.5126  159.3740 C   0  0  0  0  0  0  0  0  0  0  0  0
  151.4007  143.1542  157.6032 O   0  0  0  0  0  0  0  0  0  0  0  0
  148.9472  140.8677  157.0596 H   0  0  0  0  0  0  0  0  0  0  0  0
  148.7786  142.5970  157.3361 H   0  0  0  0  0  0  0  0  0  0  0  0
  149.3236  141.5388  158.6361 H   0  0  0  0  0  0  0  0  0  0  0  0
  150.8132  142.0454  156.0148 H   0  0  0  0  0  0  0  0  0  0  0  0
  151.2999  139.8237  157.1023 H   0  0  0  0  0  0  0  0  0  0  0  0
  152.6966  140.8439  156.8553 H   0  0  0  0  0  0  0  0  0  0  0  0
  151.6582  138.2382  157.9038 H   0  0  0  0  0  0  0  0  0  0  0  0
  152.7329  136.1682  158.7348 H   0  0  0  0  0  0  0  0  0  0  0  0
  155.1335  137.0087  162.4253 H   0  0  0  0  0  0  0  0  0  0  0  0
  156.1265  134.2694  161.9508 H   0  0  0  0  0  0  0  0  0  0  0  0
  156.8730  135.4320  163.0171 H   0  0  0  0  0  0  0  0  0  0  0  0
  154.8429  138.6056  161.6211 H   0  0  0  0  0  0  0  0  0  0  0  0
  152.8130  141.9546  160.4045 H   0  0  0  0  0  0  0  0  0  0  0  0
  153.6218  142.1759  158.8586 H   0  0  0  0  0  0  0  0  0  0  0  0
  150.7586  143.0161  159.5636 H   0  0  0  0  0  0  0  0  0  0  0  0
  152.4945  144.5666  160.4401 H   0  0  0  0  0  0  0  0  0  0  0  0
  151.5733  145.3154  159.1392 H   0  0  0  0  0  0  0  0  0  0  0  0
  153.1969  144.7058  158.8288 H   0  0  0  0  0  0  0  0  0  0  0  0
  1  2  1  0  0  0  0
  1 23  1  0  0  0  0
  1 24  1  0  0  0  0
  1 25  1  0  0  0  0
  2 22  1  0  0  0  0
  2  3  1  0  0  0  0
  2 26  1  0  0  0  0
  3  4  1  0  0  0  0
  3 27  1  0  0  0  0
  3 28  1  0  0  0  0
  4  5  1  0  0  0  0
  4 19  1  0  0  0  0
  5 18  1  0  0  0  0
  5  6  2  0  0  0  0
  6  7  1  0  0  0  0
  6 29  1  0  0  0  0
  7  8  2  0  0  0  0
  7 30  1  0  0  0  0
  8  9  1  0  0  0  0
  8 17  1  0  0  0  0
  9 10  2  0  0  0  0
  9 11  1  0  0  0  0
 11 12  1  0  0  0  0
 11 31  1  0  0  0  0
 12 13  1  0  0  0  0
 12 32  1  0  0  0  0
 12 33  1  0  0  0  0
 13 14  1  0  0  0  0
 13 15  1  0  0  0  0
 13 16  1  0  0  0  0
 17 18  2  0  0  0  0
 17 34  1  0  0  0  0
 19 20  1  0  0  0  0
 19 35  1  0  0  0  0
 19 36  1  0  0  0  0
 20 21  1  0  0  0  0
 20 22  1  0  0  0  0
 20 37  1  0  0  0  0
 21 38  1  0  0  0  0
 21 39  1  0  0  0  0
 21 40  1  0  0  0  0
M  END
> <s_m_source_file>
AV-unprocessed.smi

> <i_m_source_file_index>
1565

> <i_lp_mmshare_version>
43012

> <i_f3d_flags>
0

> <s_epik_input>
W0NIM11bQ0BASF0xW0NIMl1OKFtDSDJdW0NASF0oTzEpW0NIM10pYzJbY0hdW2NIXWMoW2NIXW4yKUMoPU8pW05IXVtDSDJdQyhGKShGKUY=

> <s_epik_cmdline>
J2VwaWtfcHl0aG9uJywgJy1waCcsICc3LjAnLCAnLXRuJywgJzgnLCAnLW1hJywgJzIwMCcsICctbWV0YWxfYmluZGluZycsICctaW1hZScsICc8aW5maWxlLm1hZT4nLCAnLW9tYWUnLCAnPG91dGZpbGUubWFlPic=

> <r_lp_tautomer_probability>
1

> <r_epik_Ionization_Penalty>
1.48031e-05

> <r_epik_Ionization_Penalty_Charging>
0

> <r_epik_Ionization_Penalty_Neutral>
1.48031e-05

> <r_epik_State_Penalty>
-0

> <r_epik_Charging_Adjusted_Penalty>
0

> <i_epik_Tot_Q>
0

> <i_epik_Tot_abs_Q>
0

> <r_epik_Metal_State_Penalty>
0.00620302

> <b_epik_Metal_Only>
0

> <s_lp_Force_Field>
OPLS_2005

> <r_lp_Energy>
19.6517

> <b_lp_Chiralities_Consistent>
1

> <s_lp_Variant>
AV-unprocessed.smi:1565-1

> <Gold.Version>
5.8.1

> <Gold.Id.Protein>
6NUR|6NUR_protein|mol2

> <Gold.PLP.Fitness>
37.0646

> <Gold.PLP.PLP>
-36.5354

> <Gold.PLP.part.hbond>
-1.0000

> <Gold.PLP.part.metal>
0.0000

> <Gold.PLP.part.buried>
-5.3474

> <Gold.PLP.part.nonpolar>
-30.7101

> <Gold.PLP.part.repulsive>
0.1613

> <Gold.PLP.ligand.clash>
0.0000

> <Gold.PLP.ligand.torsion>
1.4050

> <Gold.PLP.Chemscore.Hbond>
1.0000

> <Gold.PLP.Chemscore.CHOScore>
0.0000

> <Gold.PLP.Chemscore.Metal>
0.0000

> <Gold.Chemscore.Hbonds>
donor molecule, donor type, donor heavy atom, donor atom, acceptor molecule, acceptor atom, score
      P1  H  6896  6908       L1    10  0.88

> <Gold.PLP.Chemscore.Internal.Correction>
0.3392

> <Gold.Rescore>
     Score         DG    S(hbond)    S(metal)    S(lipo)     H(rot)  DE(clash)    DE(int)     intcor
     14.81     -15.80       1.00        0.00      88.27       1.31       0.05       0.95       ----

> <Gold.Chemscore.Fitness>
14.8074

> <Gold.Chemscore.DG>
-15.8011

> <Gold.Chemscore.ZeroCoef>
-5.4800

> <Gold.Chemscore.Hbond>
0.9984

> <Gold.Chemscore.Metal>
0.0000

> <Gold.Chemscore.Lipo>
88.2728

> <Gold.Chemscore.Internal_Hbond>
0.0000

> <Gold.Chemscore.DEClash>
0.0460

> <Gold.Chemscore.DEInternal>
0.9477

> <Gold.Chemscore.Rot>
1.3052

> <Gold.Chemscore.Internal.Correction>
   9.000000E+99

> <Gold.Chemscore.Hbonds>
donor molecule, donor type, donor heavy atom, donor atom, acceptor molecule, acceptor atom, score
      P1  H  6896  6908       L1    10  0.60

> <Gold.Chemscore.Hbond.Weighted>
-3.3346

> <Gold.Chemscore.Metal.Weighted>
-0.0000

> <Gold.Chemscore.Lipo.Weighted>
-10.3279

> <Gold.Chemscore.Internal_Hbond.Weighted>
0.0000

> <Gold.Chemscore.DEClash.Weighted>
0.0460

> <Gold.Chemscore.DEInternal.Weighted>
0.9477

> <Gold.Chemscore.Rot.Weighted>
3.3414

> <Gold.Chemscore.Internal.Correction.Weighted>
   9.000000E+99

> <Gold.Protein.RotatedTorsions>
[ 6907 6896 6895 6894 ] final  -33.83 input  -60.11 | X-H torsion
[ 7974 7965 7964 7962 ] final  179.14 input  175.53 | X-H torsion
[ 8008 7997 7996 7995 ] final   38.47 input   59.86 | X-H torsion
[ 10167 10162 10161 10158 ] final  -87.56 input  -65.29 | X-H torsion
[ 10718 10713 10712 10709 ] final -100.71 input   66.30 | X-H torsion
[ 10763 10752 10751 10750 ] final   92.84 input  -60.55 | X-H torsion
[ 11005 11000 10999 10996 ] final -140.01 input  -57.11 | X-H torsion

> <Gold.Protein.ActiveResidues>
 VAL166  LYS551  ARG553  GLY616  TRP617  ASP618  TYR619  PRO620  LYS621  CYS622 
 ASP623  PHE694  ASN695  SER759  ASP760  ASP761  ALA762  ILE779  LEU786  VAL792 
 PHE793  MET794  SER795  GLU796  ALA797  LYS798  CYS799  TRP800  GLU811  SER814 

> <Gold.Protein.RotatedAtoms>
  151.0605  134.9733  159.8257 H   0  0  0  0  0  0  0  0  0  0  0  0  # atno 6907 bound_to 6896
  152.5394  134.2424  159.8877 H   0  0  0  0  0  0  0  0  0  0  0  0  # atno 6908 bound_to 6896
  151.2443  133.4340  159.2642 H   0  0  0  0  0  0  0  0  0  0  0  0  # atno 6909 bound_to 6896
  144.7148  140.0503  143.6435 H   0  0  0  0  0  0  0  0  0  0  0  0  # atno 7974 bound_to 7965
  155.2207  140.3330  155.4316 H   0  0  0  0  0  0  0  0  0  0  0  0  # atno 8008 bound_to 7997
  156.2334  140.1861  156.7230 H   0  0  0  0  0  0  0  0  0  0  0  0  # atno 8009 bound_to 7997
  154.6017  140.0622  156.9362 H   0  0  0  0  0  0  0  0  0  0  0  0  # atno 8010 bound_to 7997
  140.3833  143.2738  151.9357 H   0  0  0  0  0  0  0  0  0  0  0  0  # atno 10167 bound_to 10162
  156.0171  130.5340  150.6857 H   0  0  0  0  0  0  0  0  0  0  0  0  # atno 10718 bound_to 10713
  153.2236  135.4347  155.0517 H   0  0  0  0  0  0  0  0  0  0  0  0  # atno 10763 bound_to 10752
  154.8262  135.3362  154.6891 H   0  0  0  0  0  0  0  0  0  0  0  0  # atno 10764 bound_to 10752
  153.7321  135.7010  153.5043 H   0  0  0  0  0  0  0  0  0  0  0  0  # atno 10765 bound_to 10752
  140.8465  134.2339  157.4783 H   0  0  0  0  0  0  0  0  0  0  0  0  # atno 11005 bound_to 11000
  145.9949  139.3045  143.0962 LP  0  0  0  0  0  0  0  0  0  0  0  0  # atno 17320 bound_to 7965
  145.8860  140.9333  143.0577 LP  0  0  0  0  0  0  0  0  0  0  0  0  # atno 17321 bound_to 7965
  139.4794  144.5798  151.7952 LP  0  0  0  0  0  0  0  0  0  0  0  0  # atno 17342 bound_to 10162
  140.4915  144.1303  150.5951 LP  0  0  0  0  0  0  0  0  0  0  0  0  # atno 17343 bound_to 10162
  157.4549  131.0877  151.0807 LP  0  0  0  0  0  0  0  0  0  0  0  0  # atno 17370 bound_to 10713
  157.1311  130.6103  149.5530 LP  0  0  0  0  0  0  0  0  0  0  0  0  # atno 17371 bound_to 10713
  139.8703  134.9661  156.4553 LP  0  0  0  0  0  0  0  0  0  0  0  0  # atno 17394 bound_to 11000
  140.8838  133.7898  155.9496 LP  0  0  0  0  0  0  0  0  0  0  0  0  # atno 17395 bound_to 11000

$$$$
