AV-unprocessed.smi:21|AV-procd|sdf|125|dock6
  -GOLD-   2262015303D 1   1.00000     0.00000
 Structure written by MMmdl.
 62 65  0  0  0  0  0  0  0  0  2 V2000
  152.6762  140.4968  159.4259 C   0  0  0  0  0  0  0  0  0  0  0  0
  151.5132  140.9407  158.7458 O   0  0  0  0  0  0  0  0  0  0  0  0
  150.9853  139.9813  157.8419 C   0  0  1  0  0  0  0  0  0  0  0  0
  149.7715  140.5435  157.1144 C   0  0  0  0  0  0  0  0  0  0  0  0
  149.6956  139.6799  155.8521 C   0  0  1  0  0  0  0  0  0  0  0  0
  148.9468  140.3633  154.6883 C   0  0  0  0  0  0  0  0  0  0  0  0
  147.5076  140.4878  154.9117 N   0  0  0  0  0  0  0  0  0  0  0  0
  146.8627  141.6245  154.2706 C   0  0  0  0  0  0  0  0  0  0  0  0
  146.7967  139.3519  154.7393 C   0  0  0  0  0  0  0  0  0  0  0  0
  146.2732  138.7757  155.8485 N   0  0  0  0  0  0  0  0  0  0  0  0
  145.5651  137.6469  155.7428 C   0  0  0  0  0  0  0  0  0  0  0  0
  145.2679  136.9470  154.6453 N   0  0  0  0  0  0  0  0  0  0  0  0
  145.7894  137.5298  153.5279 C   0  0  0  0  0  0  0  0  0  0  0  0
  146.5637  138.7227  153.4838 C   0  0  0  0  0  0  0  0  0  0  0  0
  146.9245  139.0063  152.1720 N   0  0  0  0  0  0  0  0  0  0  0  0
  146.3898  138.0379  151.4789 C   0  0  0  0  0  0  0  0  0  0  0  0
  145.6839  137.1117  152.2134 N   0  0  0  0  0  0  0  0  0  0  0  0
  144.9899  135.9413  151.7039 C   0  0  0  0  0  0  0  0  0  0  0  0
  145.5910  134.6031  152.2109 C   0  0  1  0  0  0  0  0  0  0  0  0
  144.9181  134.1229  153.5202 C   0  0  0  0  0  0  0  0  0  0  0  0
  143.5894  133.7015  153.2915 O   0  0  0  0  0  0  0  0  0  0  0  0
  145.6138  133.4803  151.1351 C   0  0  2  0  0  0  0  0  0  0  0  0
  144.3419  133.2777  150.3316 C   0  0  0  0  0  0  0  0  0  0  0  0
  144.6234  131.9354  149.6653 C   0  0  0  0  0  0  0  0  0  0  0  0
  145.3667  131.1874  150.6231 O   0  0  0  0  0  0  0  0  0  0  0  0
  145.8966  132.0553  151.6230 C   0  0  0  0  0  0  0  0  0  0  0  0
  151.1056  139.3959  155.4953 N   0  3  2  0  0  0  0  0  0  0  0  0
  151.3158  138.0687  154.8763 C   0  0  0  0  0  0  0  0  0  0  0  0
  151.9435  139.6383  156.6937 C   0  0  0  0  0  0  0  0  0  0  0  0
  150.6881  139.0720  158.3680 H   0  0  0  0  0  0  0  0  0  0  0  0
  149.2183  138.7338  156.1150 H   0  0  0  0  0  0  0  0  0  0  0  0
  153.0157  141.2726  160.1120 H   0  0  0  0  0  0  0  0  0  0  0  0
  153.4909  140.2854  158.7328 H   0  0  0  0  0  0  0  0  0  0  0  0
  152.4724  139.5990  160.0106 H   0  0  0  0  0  0  0  0  0  0  0  0
  148.8618  140.5005  157.7143 H   0  0  0  0  0  0  0  0  0  0  0  0
  149.9486  141.5867  156.8478 H   0  0  0  0  0  0  0  0  0  0  0  0
  149.3592  141.3606  154.5303 H   0  0  0  0  0  0  0  0  0  0  0  0
  149.1209  139.8185  153.7606 H   0  0  0  0  0  0  0  0  0  0  0  0
  145.8016  141.6669  154.5213 H   0  0  0  0  0  0  0  0  0  0  0  0
  146.9582  141.5681  153.1854 H   0  0  0  0  0  0  0  0  0  0  0  0
  147.3207  142.5558  154.6050 H   0  0  0  0  0  0  0  0  0  0  0  0
  145.1799  137.2482  156.6697 H   0  0  0  0  0  0  0  0  0  0  0  0
  146.4902  137.9762  150.4049 H   0  0  0  0  0  0  0  0  0  0  0  0
  143.9408  136.0252  151.9857 H   0  0  0  0  0  0  0  0  0  0  0  0
  145.0262  135.9995  150.6170 H   0  0  0  0  0  0  0  0  0  0  0  0
  146.6338  134.8098  152.4566 H   0  0  0  0  0  0  0  0  0  0  0  0
  145.4466  133.2720  153.9488 H   0  0  0  0  0  0  0  0  0  0  0  0
  144.9235  134.9109  154.2736 H   0  0  0  0  0  0  0  0  0  0  0  0
  143.4237  132.9317  153.8141 H   0  0  0  0  0  0  0  0  0  0  0  0
  146.3893  133.7292  150.4088 H   0  0  0  0  0  0  0  0  0  0  0  0
  143.4675  133.1794  150.9732 H   0  0  0  0  0  0  0  0  0  0  0  0
  144.1544  134.0774  149.6145 H   0  0  0  0  0  0  0  0  0  0  0  0
  143.7125  131.4142  149.3698 H   0  0  0  0  0  0  0  0  0  0  0  0
  145.2393  132.0736  148.7757 H   0  0  0  0  0  0  0  0  0  0  0  0
  146.9616  131.8757  151.7724 H   0  0  0  0  0  0  0  0  0  0  0  0
  145.3855  131.8353  152.5590 H   0  0  0  0  0  0  0  0  0  0  0  0
  151.0583  137.2658  155.5687 H   0  0  0  0  0  0  0  0  0  0  0  0
  152.3589  137.9468  154.5833 H   0  0  0  0  0  0  0  0  0  0  0  0
  150.7016  137.9605  153.9817 H   0  0  0  0  0  0  0  0  0  0  0  0
  152.5926  140.4872  156.4747 H   0  0  0  0  0  0  0  0  0  0  0  0
  152.5850  138.7923  156.9451 H   0  0  0  0  0  0  0  0  0  0  0  0
  151.3805  140.0908  154.8158 H   0  0  0  0  0  0  0  0  0  0  0  0
  1  2  1  0  0  0  0
  1 32  1  0  0  0  0
  1 33  1  0  0  0  0
  1 34  1  0  0  0  0
  2  3  1  0  0  0  0
  3 30  1  0  0  0  0
  3 29  1  0  0  0  0
  3  4  1  0  0  0  0
  4  5  1  0  0  0  0
  4 35  1  0  0  0  0
  4 36  1  0  0  0  0
  5 31  1  0  0  0  0
  5  6  1  0  0  0  0
  5 27  1  0  0  0  0
  6  7  1  0  0  0  0
  6 37  1  0  0  0  0
  6 38  1  0  0  0  0
  7  8  1  0  0  0  0
  7  9  1  0  0  0  0
  8 39  1  0  0  0  0
  8 40  1  0  0  0  0
  8 41  1  0  0  0  0
  9 14  1  0  0  0  0
  9 10  2  0  0  0  0
 10 11  1  0  0  0  0
 11 12  2  0  0  0  0
 11 42  1  0  0  0  0
 12 13  1  0  0  0  0
 13 17  1  0  0  0  0
 13 14  2  0  0  0  0
 14 15  1  0  0  0  0
 15 16  2  0  0  0  0
 16 17  1  0  0  0  0
 16 43  1  0  0  0  0
 17 18  1  0  0  0  0
 18 19  1  0  0  0  0
 18 44  1  0  0  0  0
 18 45  1  0  0  0  0
 19 20  1  0  0  0  0
 19 22  1  0  0  0  0
 19 46  1  0  0  0  0
 20 21  1  0  0  0  0
 20 47  1  0  0  0  0
 20 48  1  0  0  0  0
 21 49  1  0  0  0  0
 22 26  1  0  0  0  0
 22 23  1  0  0  0  0
 22 50  1  0  0  0  0
 23 24  1  0  0  0  0
 23 51  1  0  0  0  0
 23 52  1  0  0  0  0
 24 25  1  0  0  0  0
 24 53  1  0  0  0  0
 24 54  1  0  0  0  0
 25 26  1  0  0  0  0
 26 55  1  0  0  0  0
 26 56  1  0  0  0  0
 27 28  1  0  0  0  0
 27 29  1  0  0  0  0
 27 62  1  0  0  0  0
 28 57  1  0  0  0  0
 28 58  1  0  0  0  0
 28 59  1  0  0  0  0
 29 60  1  0  0  0  0
 29 61  1  0  0  0  0
M  CHG  1  27   1
M  END
> <s_m_source_file>
AV-unprocessed.smi

> <i_m_source_file_index>
21

> <i_lp_mmshare_version>
43012

> <i_f3d_flags>
0

> <s_epik_input>
W0NIM11PW0NASF0xW0NIMl1bQ0BIXShOKFtDSDNdKVtDSDJdMSlbQ0gyXU4oW0NIM10pYyhuW2NIXW4yKWMoYzIzKW5bY0hdbjNbQ0gyXVtDQEhdKFtDSDJdW09IXSlbQ0BASF00W0NIMl1bQ0gyXU9bQ0gyXTQ=

> <s_epik_cmdline>
J2VwaWtfcHl0aG9uJywgJy1waCcsICc3LjAnLCAnLXRuJywgJzgnLCAnLW1hJywgJzIwMCcsICctbWV0YWxfYmluZGluZycsICctaW1hZScsICc8aW5maWxlLm1hZT4nLCAnLW9tYWUnLCAnPG91dGZpbGUubWFlPic=

> <r_lp_tautomer_probability>
1

> <r_epik_Ionization_Penalty>
0.0157465

> <r_epik_Ionization_Penalty_Charging>
0.015354

> <r_epik_Ionization_Penalty_Neutral>
0.000392529

> <r_epik_State_Penalty>
0.0120612

> <r_epik_Charging_Adjusted_Penalty>
0.0274152

> <i_epik_Tot_Q>
1

> <i_epik_Tot_abs_Q>
1

> <r_epik_Metal_State_Penalty>
0.0121253

> <b_epik_Metal_Only>
0

> <s_lp_Force_Field>
OPLS_2005

> <r_lp_Energy>
61.1599

> <b_lp_Chiralities_Consistent>
1

> <s_lp_Variant>
AV-unprocessed.smi:21-5

> <Gold.Version>
5.8.1

> <Gold.Id.Protein>
6NUR|6NUR_protein|mol2

> <Gold.PLP.Fitness>
45.0716

> <Gold.PLP.PLP>
-42.7975

> <Gold.PLP.part.hbond>
-1.0000

> <Gold.PLP.part.metal>
0.0000

> <Gold.PLP.part.buried>
-8.0505

> <Gold.PLP.part.nonpolar>
-38.0183

> <Gold.PLP.part.repulsive>
3.3353

> <Gold.PLP.ligand.clash>
0.0000

> <Gold.PLP.ligand.torsion>
1.2111

> <Gold.PLP.Chemscore.Hbond>
1.0000

> <Gold.PLP.Chemscore.CHOScore>
0.2098

> <Gold.PLP.Chemscore.Metal>
0.0000

> <Gold.Chemscore.Hbonds>
donor molecule, donor type, donor heavy atom, donor atom, acceptor molecule, acceptor atom, score
      L1  H    21    49       P1 10957  1.00
      L1  C    16    43       P1 10171  0.17

> <Gold.PLP.Chemscore.Internal.Correction>
1.0670

> <Gold.Rescore>
     Score         DG    S(hbond)    S(metal)    S(lipo)     H(rot)  DE(clash)    DE(int)     intcor
      7.92     -11.57       0.98        0.00      97.21       3.35       0.68       2.97       ----

> <Gold.Chemscore.Fitness>
7.9226

> <Gold.Chemscore.DG>
-11.5713

> <Gold.Chemscore.ZeroCoef>
-5.4800

> <Gold.Chemscore.Hbond>
0.9823

> <Gold.Chemscore.Metal>
0.0000

> <Gold.Chemscore.Lipo>
97.2134

> <Gold.Chemscore.Internal_Hbond>
0.0000

> <Gold.Chemscore.DEClash>
0.6785

> <Gold.Chemscore.DEInternal>
2.9702

> <Gold.Chemscore.Rot>
3.3452

> <Gold.Chemscore.Internal.Correction>
   9.000000E+99

> <Gold.Chemscore.Hbonds>
donor molecule, donor type, donor heavy atom, donor atom, acceptor molecule, acceptor atom, score
      L1  H    21    49       P1 10957  0.97

> <Gold.Chemscore.Hbond.Weighted>
-3.2810

> <Gold.Chemscore.Metal.Weighted>
-0.0000

> <Gold.Chemscore.Lipo.Weighted>
-11.3740

> <Gold.Chemscore.Internal_Hbond.Weighted>
0.0000

> <Gold.Chemscore.DEClash.Weighted>
0.6785

> <Gold.Chemscore.DEInternal.Weighted>
2.9702

> <Gold.Chemscore.Rot.Weighted>
8.5636

> <Gold.Chemscore.Internal.Correction.Weighted>
   9.000000E+99

> <Gold.Protein.RotatedTorsions>
[ 6907 6896 6895 6894 ] final -177.93 input  -60.11 | X-H torsion
[ 7974 7965 7964 7962 ] final   94.38 input  175.53 | X-H torsion
[ 8008 7997 7996 7995 ] final  -12.41 input   59.86 | X-H torsion
[ 10167 10162 10161 10158 ] final   97.19 input  -65.29 | X-H torsion
[ 10718 10713 10712 10709 ] final  -22.05 input   66.30 | X-H torsion
[ 10763 10752 10751 10750 ] final   89.48 input  -60.55 | X-H torsion
[ 11005 11000 10999 10996 ] final  153.70 input  -57.11 | X-H torsion

> <Gold.Protein.ActiveResidues>
 VAL166  LYS551  ARG553  GLY616  TRP617  ASP618  TYR619  PRO620  LYS621  CYS622 
 ASP623  PHE694  ASN695  SER759  ASP760  ASP761  ALA762  ILE779  LEU786  VAL792 
 PHE793  MET794  SER795  GLU796  ALA797  LYS798  CYS799  TRP800  GLU811  SER814 

> <Gold.Protein.RotatedAtoms>
  151.6289  133.3333  159.3104 H   0  0  0  0  0  0  0  0  0  0  0  0  # atno 6907 bound_to 6896
  150.8066  134.7199  159.6662 H   0  0  0  0  0  0  0  0  0  0  0  0  # atno 6908 bound_to 6896
  152.4162  134.6042  160.0059 H   0  0  0  0  0  0  0  0  0  0  0  0  # atno 6909 bound_to 6896
  145.4663  139.2284  143.2959 H   0  0  0  0  0  0  0  0  0  0  0  0  # atno 7974 bound_to 7965
  154.5379  140.2277  155.8690 H   0  0  0  0  0  0  0  0  0  0  0  0  # atno 8008 bound_to 7997
  156.1830  140.3095  155.9147 H   0  0  0  0  0  0  0  0  0  0  0  0  # atno 8009 bound_to 7997
  155.3316  140.0445  157.3033 H   0  0  0  0  0  0  0  0  0  0  0  0  # atno 8010 bound_to 7997
  139.7824  144.6883  151.0004 H   0  0  0  0  0  0  0  0  0  0  0  0  # atno 10167 bound_to 10162
  156.5098  130.4607  149.6655 H   0  0  0  0  0  0  0  0  0  0  0  0  # atno 10718 bound_to 10713
  153.1876  135.4468  155.0108 H   0  0  0  0  0  0  0  0  0  0  0  0  # atno 10763 bound_to 10752
  154.8070  135.3278  154.7408 H   0  0  0  0  0  0  0  0  0  0  0  0  # atno 10764 bound_to 10752
  153.7865  135.6973  153.4934 H   0  0  0  0  0  0  0  0  0  0  0  0  # atno 10765 bound_to 10752
  140.1421  134.8732  157.2345 H   0  0  0  0  0  0  0  0  0  0  0  0  # atno 11005 bound_to 11000
  146.2422  140.5437  142.8929 LP  0  0  0  0  0  0  0  0  0  0  0  0  # atno 17320 bound_to 7965
  144.7972  140.6145  143.6502 LP  0  0  0  0  0  0  0  0  0  0  0  0  # atno 17321 bound_to 7965
  140.7819  143.4468  151.0470 LP  0  0  0  0  0  0  0  0  0  0  0  0  # atno 17342 bound_to 10162
  139.8148  143.7900  152.3173 LP  0  0  0  0  0  0  0  0  0  0  0  0  # atno 17343 bound_to 10162
  156.3252  130.7302  151.2221 LP  0  0  0  0  0  0  0  0  0  0  0  0  # atno 17370 bound_to 10713
  157.7452  131.0445  150.4795 LP  0  0  0  0  0  0  0  0  0  0  0  0  # atno 17371 bound_to 10713
  140.2709  134.3461  155.7374 LP  0  0  0  0  0  0  0  0  0  0  0  0  # atno 17394 bound_to 11000
  141.2187  133.7422  156.9221 LP  0  0  0  0  0  0  0  0  0  0  0  0  # atno 17395 bound_to 11000

$$$$
