AV-unprocessed.smi:1128|AV-procd|sdf|4843|dock5
  -GOLD-   22720 3413D 1   1.00000     0.00000
 Structure written by MMmdl.
 38 39  0  0  0  0  0  0  0  0  1 V2000
  150.4004  140.8769  158.3074 O   0  0  0  0  0  0  0  0  0  0  0  0
  151.3367  140.4692  157.6208 C   0  0  0  0  0  0  0  0  0  0  0  0
  152.6056  140.4439  158.0521 N   0  0  0  0  0  0  0  0  0  0  0  0
  153.0524  140.8761  159.3726 C   0  0  0  0  0  0  0  0  0  0  0  0
  152.3814  142.1906  159.8233 C   0  0  1  0  0  0  0  0  0  0  0  0
  152.7541  142.5748  161.2753 C   0  0  0  0  0  0  0  0  0  0  0  0
  152.3457  143.9936  161.6295 C   0  0  0  0  0  0  0  0  0  0  0  0
  151.9889  144.9121  160.7165 C   0  0  0  0  0  0  0  0  0  0  0  0
  151.9618  144.6372  159.2248 C   0  0  0  0  0  0  0  0  0  0  0  0
  152.7121  143.3436  158.8570 C   0  0  0  0  0  0  0  0  0  0  0  0
  151.2524  140.0080  156.3592 N   0  0  0  0  0  0  0  0  0  0  0  0
  150.1269  139.8580  155.5305 C   0  0  0  0  0  0  0  0  0  0  0  0
  149.0066  140.6255  155.5842 C   0  0  0  0  0  0  0  0  0  0  0  0
  147.8798  140.4097  154.6918 C   0  0  0  0  0  0  0  0  0  0  0  0
  146.6091  141.2380  154.8017 C   0  0  0  0  0  0  0  0  0  0  0  0
  146.7000  142.1396  155.7801 F   0  0  0  0  0  0  0  0  0  0  0  0
  146.3590  141.8819  153.6616 F   0  0  0  0  0  0  0  0  0  0  0  0
  145.5725  140.4435  155.0641 F   0  0  0  0  0  0  0  0  0  0  0  0
  147.9900  139.3893  153.8213 C   0  0  0  0  0  0  0  0  0  0  0  0
  149.1384  138.5976  153.7572 N   0  0  0  0  0  0  0  0  0  0  0  0
  150.2170  138.7573  154.5563 C   0  0  0  0  0  0  0  0  0  0  0  0
  151.1883  138.0099  154.4438 O   0  0  0  0  0  0  0  0  0  0  0  0
  149.1480  137.8577  153.0700 H   0  0  0  0  0  0  0  0  0  0  0  0
  153.3156  140.0999  157.4223 H   0  0  0  0  0  0  0  0  0  0  0  0
  152.8237  140.0801  160.0818 H   0  0  0  0  0  0  0  0  0  0  0  0
  154.1385  140.9838  159.3746 H   0  0  0  0  0  0  0  0  0  0  0  0
  151.3005  142.0446  159.7856 H   0  0  0  0  0  0  0  0  0  0  0  0
  152.2771  141.8906  161.9779 H   0  0  0  0  0  0  0  0  0  0  0  0
  153.8302  142.4891  161.4292 H   0  0  0  0  0  0  0  0  0  0  0  0
  152.3597  144.2565  162.6770 H   0  0  0  0  0  0  0  0  0  0  0  0
  151.6926  145.9005  161.0359 H   0  0  0  0  0  0  0  0  0  0  0  0
  150.9193  144.5707  158.9127 H   0  0  0  0  0  0  0  0  0  0  0  0
  152.3993  145.4834  158.6946 H   0  0  0  0  0  0  0  0  0  0  0  0
  153.7865  143.5309  158.8776 H   0  0  0  0  0  0  0  0  0  0  0  0
  152.4695  143.0638  157.8312 H   0  0  0  0  0  0  0  0  0  0  0  0
  152.1258  139.7537  155.9211 H   0  0  0  0  0  0  0  0  0  0  0  0
  148.9100  141.4241  156.3008 H   0  0  0  0  0  0  0  0  0  0  0  0
  147.2199  139.1002  153.1213 H   0  0  0  0  0  0  0  0  0  0  0  0
  1  2  2  0  0  0  0
  2  3  1  0  0  0  0
  2 11  1  0  0  0  0
  3  4  1  0  0  0  0
  3 24  1  0  0  0  0
  4  5  1  0  0  0  0
  4 25  1  0  0  0  0
  4 26  1  0  0  0  0
  5 10  1  0  0  0  0
  5  6  1  0  0  0  0
  5 27  1  0  0  0  0
  6  7  1  0  0  0  0
  6 28  1  0  0  0  0
  6 29  1  0  0  0  0
  7  8  2  0  0  0  0
  7 30  1  0  0  0  0
  8  9  1  0  0  0  0
  8 31  1  0  0  0  0
  9 10  1  0  0  0  0
  9 32  1  0  0  0  0
  9 33  1  0  0  0  0
 10 34  1  0  0  0  0
 10 35  1  0  0  0  0
 11 12  1  0  0  0  0
 11 36  1  0  0  0  0
 12 21  1  0  0  0  0
 12 13  2  0  0  0  0
 13 14  1  0  0  0  0
 13 37  1  0  0  0  0
 14 15  1  0  0  0  0
 14 19  2  0  0  0  0
 15 16  1  0  0  0  0
 15 17  1  0  0  0  0
 15 18  1  0  0  0  0
 19 20  1  0  0  0  0
 19 38  1  0  0  0  0
 20 23  1  0  0  0  0
 20 21  1  0  0  0  0
 21 22  2  0  0  0  0
M  END
> <s_m_source_file>
AV-unprocessed.smi

> <i_m_source_file_index>
1128

> <i_lp_mmshare_version>
43012

> <i_f3d_flags>
0

> <s_epik_input>
Tz1jMVtuSF1bY0hdYyhDKEYpKEYpRilbY0hdYzFbTkhdQyg9TylbTkhdW0NIMl1bQ0BASF0yW0NIMl1bQ0hdPVtDSF1bQ0gyXVtDSDJdMg==

> <s_epik_cmdline>
J2VwaWtfcHl0aG9uJywgJy1waCcsICc3LjAnLCAnLXRuJywgJzgnLCAnLW1hJywgJzIwMCcsICctbWV0YWxfYmluZGluZycsICctaW1hZScsICc8aW5maWxlLm1hZT4nLCAnLW9tYWUnLCAnPG91dGZpbGUubWFlPic=

> <r_lp_tautomer_probability>
1

> <r_epik_Ionization_Penalty>
0.00381734

> <r_epik_Ionization_Penalty_Charging>
0.00379608

> <r_epik_Ionization_Penalty_Neutral>
2.12611e-05

> <r_epik_State_Penalty>
-0

> <r_epik_Charging_Adjusted_Penalty>
0.00379608

> <i_epik_Tot_Q>
0

> <i_epik_Tot_abs_Q>
0

> <r_epik_Metal_State_Penalty>
0.371155

> <b_epik_Metal_Only>
0

> <s_lp_Force_Field>
OPLS_2005

> <r_lp_Energy>
19.5554

> <b_lp_Chiralities_Consistent>
1

> <s_lp_Variant>
AV-unprocessed.smi:1128-2

> <Gold.Version>
5.8.1

> <Gold.Id.Protein>
6NUR|6NUR_protein|mol2

> <Gold.PLP.Fitness>
46.3361

> <Gold.PLP.PLP>
-43.9738

> <Gold.PLP.part.hbond>
-2.0000

> <Gold.PLP.part.metal>
0.0000

> <Gold.PLP.part.buried>
-4.7907

> <Gold.PLP.part.nonpolar>
-38.5727

> <Gold.PLP.part.repulsive>
0.7471

> <Gold.PLP.ligand.clash>
0.0000

> <Gold.PLP.ligand.torsion>
0.3256

> <Gold.PLP.Chemscore.Hbond>
0.9913

> <Gold.PLP.Chemscore.CHOScore>
0.0000

> <Gold.PLP.Chemscore.Metal>
0.0000

> <Gold.Chemscore.Hbonds>
donor molecule, donor type, donor heavy atom, donor atom, acceptor molecule, acceptor atom, score
      L1  H    20    23       P1  7948  1.00

> <Gold.PLP.Chemscore.Internal.Correction>
0.0398

> <Gold.Rescore>
     Score         DG    S(hbond)    S(metal)    S(lipo)     H(rot)  DE(clash)    DE(int)     intcor
     16.36     -18.17       0.97        0.00     109.21       1.30       0.10       1.71       ----

> <Gold.Chemscore.Fitness>
16.3572

> <Gold.Chemscore.DG>
-18.1678

> <Gold.Chemscore.ZeroCoef>
-5.4800

> <Gold.Chemscore.Hbond>
0.9726

> <Gold.Chemscore.Metal>
0.0000

> <Gold.Chemscore.Lipo>
109.2067

> <Gold.Chemscore.Internal_Hbond>
0.0000

> <Gold.Chemscore.DEClash>
0.0996

> <Gold.Chemscore.DEInternal>
1.7110

> <Gold.Chemscore.Rot>
1.3038

> <Gold.Chemscore.Internal.Correction>
   9.000000E+99

> <Gold.Chemscore.Hbonds>
donor molecule, donor type, donor heavy atom, donor atom, acceptor molecule, acceptor atom, score
      L1  H    20    23       P1  7948  0.95

> <Gold.Chemscore.Hbond.Weighted>
-3.2483

> <Gold.Chemscore.Metal.Weighted>
-0.0000

> <Gold.Chemscore.Lipo.Weighted>
-12.7772

> <Gold.Chemscore.Internal_Hbond.Weighted>
0.0000

> <Gold.Chemscore.DEClash.Weighted>
0.0996

> <Gold.Chemscore.DEInternal.Weighted>
1.7110

> <Gold.Chemscore.Rot.Weighted>
3.3377

> <Gold.Chemscore.Internal.Correction.Weighted>
   9.000000E+99

> <Gold.Protein.RotatedTorsions>
[ 6907 6896 6895 6894 ] final  -26.07 input  -60.11 | X-H torsion
[ 7974 7965 7964 7962 ] final  -85.06 input  175.53 | X-H torsion
[ 8008 7997 7996 7995 ] final  -42.97 input   59.86 | X-H torsion
[ 10167 10162 10161 10158 ] final  105.65 input  -65.29 | X-H torsion
[ 10718 10713 10712 10709 ] final  179.67 input   66.30 | X-H torsion
[ 10763 10752 10751 10750 ] final  -55.00 input  -60.55 | X-H torsion
[ 11005 11000 10999 10996 ] final  -63.09 input  -57.11 | X-H torsion

> <Gold.Protein.ActiveResidues>
 VAL166  LYS551  ARG553  GLY616  TRP617  ASP618  TYR619  PRO620  LYS621  CYS622 
 ASP623  PHE694  ASN695  SER759  ASP760  ASP761  ALA762  ILE779  LEU786  VAL792 
 PHE793  MET794  SER795  GLU796  ALA797  LYS798  CYS799  TRP800  GLU811  SER814 

> <Gold.Protein.RotatedAtoms>
  151.1661  135.0296  159.8731 H   0  0  0  0  0  0  0  0  0  0  0  0  # atno 6907 bound_to 6896
  152.5450  134.1223  159.8414 H   0  0  0  0  0  0  0  0  0  0  0  0  # atno 6908 bound_to 6896
  151.1324  133.4981  159.2631 H   0  0  0  0  0  0  0  0  0  0  0  0  # atno 6909 bound_to 6896
  145.4982  140.9549  143.1774 H   0  0  0  0  0  0  0  0  0  0  0  0  # atno 7974 bound_to 7965
  154.3997  140.1459  156.3443 H   0  0  0  0  0  0  0  0  0  0  0  0  # atno 8008 bound_to 7997
  155.8328  140.3465  155.5561 H   0  0  0  0  0  0  0  0  0  0  0  0  # atno 8009 bound_to 7997
  155.8170  140.0892  157.1861 H   0  0  0  0  0  0  0  0  0  0  0  0  # atno 8010 bound_to 7997
  139.7075  144.7084  151.1082 H   0  0  0  0  0  0  0  0  0  0  0  0  # atno 10167 bound_to 10162
  156.8724  130.9788  151.3072 H   0  0  0  0  0  0  0  0  0  0  0  0  # atno 10718 bound_to 10713
  154.1838  135.6439  153.5041 H   0  0  0  0  0  0  0  0  0  0  0  0  # atno 10763 bound_to 10752
  153.0052  135.5412  154.6486 H   0  0  0  0  0  0  0  0  0  0  0  0  # atno 10764 bound_to 10752
  154.5857  135.2929  155.0659 H   0  0  0  0  0  0  0  0  0  0  0  0  # atno 10765 bound_to 10752
  141.1381  133.6647  156.5627 H   0  0  0  0  0  0  0  0  0  0  0  0  # atno 11005 bound_to 11000
  144.7795  139.6557  143.7160 LP  0  0  0  0  0  0  0  0  0  0  0  0  # atno 17320 bound_to 7965
  146.2242  139.5692  142.9598 LP  0  0  0  0  0  0  0  0  0  0  0  0  # atno 17321 bound_to 7965
  140.7725  143.5339  150.9391 LP  0  0  0  0  0  0  0  0  0  0  0  0  # atno 17342 bound_to 10162
  139.9022  143.6821  152.3129 LP  0  0  0  0  0  0  0  0  0  0  0  0  # atno 17343 bound_to 10162
  157.6188  130.8639  149.9073 LP  0  0  0  0  0  0  0  0  0  0  0  0  # atno 17370 bound_to 10713
  156.0719  130.3684  150.0757 LP  0  0  0  0  0  0  0  0  0  0  0  0  # atno 17371 bound_to 10713
  140.3975  134.7385  157.4760 LP  0  0  0  0  0  0  0  0  0  0  0  0  # atno 17394 bound_to 11000
  140.0520  134.6117  155.8850 LP  0  0  0  0  0  0  0  0  0  0  0  0  # atno 17395 bound_to 11000

$$$$
