AV-unprocessed.smi:3068|AV-procd|sdf|11704|dock6
  -GOLD-   2272017103D 1   1.00000     0.00000
 Structure written by MMmdl.
 40 42  0  0  0  0  0  0  0  0  2 V2000
  151.4581  137.2069  154.4873 N   0  0  0  0  0  0  0  0  0  0  0  0
  150.8196  138.1719  154.4702 C   0  0  0  0  0  0  0  0  0  0  0  0
  150.0171  139.3882  154.4489 C   0  0  0  0  0  0  0  0  0  0  0  0
  150.5582  140.4843  155.0290 N   0  0  0  0  0  0  0  0  0  0  0  0
  149.8225  141.6162  155.0193 C   0  0  0  0  0  0  0  0  0  0  0  0
  148.5435  141.6595  154.4310 C   0  0  0  0  0  0  0  0  0  0  0  0
  147.9955  140.5711  153.8495 N   0  0  0  0  0  0  0  0  0  0  0  0
  148.7245  139.4272  153.8531 C   0  0  0  0  0  0  0  0  0  0  0  0
  148.1643  138.2857  153.2528 N   0  0  0  0  0  0  0  0  0  0  0  0
  146.7214  138.1305  153.1341 C   0  0  0  0  0  0  0  0  0  0  0  0
  146.1539  137.2426  154.2593 C   0  0  2  0  0  0  0  0  0  0  0  0
  147.2327  136.4008  154.9665 C   0  0  0  0  0  0  0  0  0  0  0  0
  147.7239  135.3083  154.0938 N   0  3  1  0  0  0  0  0  0  0  0  0
  148.7921  134.5083  154.7458 C   0  0  0  0  0  0  0  0  0  0  0  0
  149.3461  133.4381  153.7920 C   0  0  0  0  0  0  0  0  0  0  0  0
  148.2204  132.5332  153.2764 C   0  0  0  0  0  0  0  0  0  0  0  0
  147.1204  133.3844  152.6287 C   0  0  0  0  0  0  0  0  0  0  0  0
  146.6017  134.4663  153.5975 C   0  0  2  0  0  0  0  0  0  0  0  0
  145.5372  135.3500  152.9198 C   0  0  0  0  0  0  0  0  0  0  0  0
  145.1102  136.3815  153.8030 O   0  0  0  0  0  0  0  0  0  0  0  0
  150.2556  142.4898  155.4835 H   0  0  0  0  0  0  0  0  0  0  0  0
  147.9593  142.5678  154.4275 H   0  0  0  0  0  0  0  0  0  0  0  0
  148.7600  137.5096  153.0003 H   0  0  0  0  0  0  0  0  0  0  0  0
  146.2401  139.1084  153.1265 H   0  0  0  0  0  0  0  0  0  0  0  0
  146.5069  137.6714  152.1682 H   0  0  0  0  0  0  0  0  0  0  0  0
  145.7099  137.9028  155.0054 H   0  0  0  0  0  0  0  0  0  0  0  0
  148.0646  137.0369  155.2714 H   0  0  0  0  0  0  0  0  0  0  0  0
  146.8171  135.9679  155.8777 H   0  0  0  0  0  0  0  0  0  0  0  0
  149.6011  135.1681  155.0614 H   0  0  0  0  0  0  0  0  0  0  0  0
  148.3973  134.0370  155.6476 H   0  0  0  0  0  0  0  0  0  0  0  0
  149.8474  133.9187  152.9507 H   0  0  0  0  0  0  0  0  0  0  0  0
  150.1010  132.8391  154.3021 H   0  0  0  0  0  0  0  0  0  0  0  0
  148.6139  131.8142  152.5569 H   0  0  0  0  0  0  0  0  0  0  0  0
  147.8031  131.9541  154.1012 H   0  0  0  0  0  0  0  0  0  0  0  0
  147.5120  133.8542  151.7252 H   0  0  0  0  0  0  0  0  0  0  0  0
  146.2988  132.7418  152.3107 H   0  0  0  0  0  0  0  0  0  0  0  0
  146.1429  133.9747  154.4576 H   0  0  0  0  0  0  0  0  0  0  0  0
  145.9099  135.7744  151.9873 H   0  0  0  0  0  0  0  0  0  0  0  0
  144.6681  134.7477  152.6538 H   0  0  0  0  0  0  0  0  0  0  0  0
  148.1404  135.7454  153.2839 H   0  0  0  0  0  0  0  0  0  0  0  0
  1  2  3  0  0  0  0
  2  3  1  0  0  0  0
  3  8  1  0  0  0  0
  3  4  2  0  0  0  0
  4  5  1  0  0  0  0
  5  6  2  0  0  0  0
  5 21  1  0  0  0  0
  6  7  1  0  0  0  0
  6 22  1  0  0  0  0
  7  8  2  0  0  0  0
  8  9  1  0  0  0  0
  9 10  1  0  0  0  0
  9 23  1  0  0  0  0
 10 11  1  0  0  0  0
 10 24  1  0  0  0  0
 10 25  1  0  0  0  0
 11 20  1  0  0  0  0
 11 12  1  0  0  0  0
 11 26  1  0  0  0  0
 12 13  1  0  0  0  0
 12 27  1  0  0  0  0
 12 28  1  0  0  0  0
 13 18  1  0  0  0  0
 13 14  1  0  0  0  0
 13 40  1  0  0  0  0
 14 15  1  0  0  0  0
 14 29  1  0  0  0  0
 14 30  1  0  0  0  0
 15 16  1  0  0  0  0
 15 31  1  0  0  0  0
 15 32  1  0  0  0  0
 16 17  1  0  0  0  0
 16 33  1  0  0  0  0
 16 34  1  0  0  0  0
 17 18  1  0  0  0  0
 17 35  1  0  0  0  0
 17 36  1  0  0  0  0
 18 19  1  0  0  0  0
 18 37  1  0  0  0  0
 19 20  1  0  0  0  0
 19 38  1  0  0  0  0
 19 39  1  0  0  0  0
M  CHG  1  13   1
M  END
> <s_m_source_file>
AV-unprocessed.smi

> <i_m_source_file_index>
3068

> <i_lp_mmshare_version>
43012

> <i_f3d_flags>
0

> <s_epik_input>
TiNDYzFuW2NIXVtjSF1uYzFbTkhdW0NIMl1bQ0BIXShbQ0gyXTIpT1tDSDJdW0NAQEhdKE4yMylbQ0gyXVtDSDJdW0NIMl1bQ0gyXTM=

> <s_epik_cmdline>
J2VwaWtfcHl0aG9uJywgJy1waCcsICc3LjAnLCAnLXRuJywgJzgnLCAnLW1hJywgJzIwMCcsICctbWV0YWxfYmluZGluZycsICctaW1hZScsICc8aW5maWxlLm1hZT4nLCAnLW9tYWUnLCAnPG91dGZpbGUubWFlPic=

> <r_epik_Ionization_Penalty>
0.0804321

> <r_epik_Ionization_Penalty_Charging>
0.0803403

> <r_epik_Ionization_Penalty_Neutral>
9.17277e-05

> <r_epik_State_Penalty>
0.0711481

> <r_epik_Charging_Adjusted_Penalty>
0.151488

> <i_epik_Tot_Q>
1

> <i_epik_Tot_abs_Q>
1

> <r_epik_Metal_State_Penalty>
0.0711481

> <b_epik_Metal_Only>
0

> <s_lp_Force_Field>
OPLS_2005

> <r_lp_Energy>
40.024

> <b_lp_Chiralities_Consistent>
1

> <s_lp_Variant>
AV-unprocessed.smi:3068-7

> <Gold.Version>
5.8.1

> <Gold.Id.Protein>
6NUR|6NUR_protein|mol2

> <Gold.PLP.Fitness>
44.5351

> <Gold.PLP.PLP>
-30.8576

> <Gold.PLP.part.hbond>
-4.5839

> <Gold.PLP.part.metal>
0.0000

> <Gold.PLP.part.buried>
-0.9082

> <Gold.PLP.part.nonpolar>
-25.3106

> <Gold.PLP.part.repulsive>
0.4940

> <Gold.PLP.ligand.clash>
1.3567

> <Gold.PLP.ligand.torsion>
0.8595

> <Gold.PLP.Chemscore.Hbond>
4.2610

> <Gold.PLP.Chemscore.CHOScore>
1.3214

> <Gold.PLP.Chemscore.Metal>
0.0000

> <Gold.Chemscore.Hbonds>
donor molecule, donor type, donor heavy atom, donor atom, acceptor molecule, acceptor atom, score
      L1  H     9    23       P1  7948  0.88
      L1  H    13    40       P1  7948  2.00
      P1  H  7989  7998       L1     4  0.55
      P1  H 10752 10764       L1     1  0.71
      L1  C     5    21       P1  8028  0.63
      L1  C     6    22       P1  8028  0.64

> <Gold.PLP.Chemscore.Internal.Correction>
0.0062

> <Gold.Rescore>
     Score         DG    S(hbond)    S(metal)    S(lipo)     H(rot)  DE(clash)    DE(int)     intcor
     17.67     -18.62       2.93        0.00      57.40       1.32       0.05       0.91       ----

> <Gold.Chemscore.Fitness>
17.6659

> <Gold.Chemscore.DG>
-18.6200

> <Gold.Chemscore.ZeroCoef>
-5.4800

> <Gold.Chemscore.Hbond>
2.9346

> <Gold.Chemscore.Metal>
0.0000

> <Gold.Chemscore.Lipo>
57.4011

> <Gold.Chemscore.Internal_Hbond>
0.0000

> <Gold.Chemscore.DEClash>
0.0456

> <Gold.Chemscore.DEInternal>
0.9084

> <Gold.Chemscore.Rot>
1.3193

> <Gold.Chemscore.Internal.Correction>
   9.000000E+99

> <Gold.Chemscore.Hbonds>
donor molecule, donor type, donor heavy atom, donor atom, acceptor molecule, acceptor atom, score
      L1  H     9    23       P1  7948  0.86
      L1  H    13    40       P1  7948  1.00
      P1  H  7989  7998       L1     4  0.01
      P1  H 10752 10764       L1     1  0.70

> <Gold.Chemscore.Hbond.Weighted>
-9.8014

> <Gold.Chemscore.Metal.Weighted>
-0.0000

> <Gold.Chemscore.Lipo.Weighted>
-6.7159

> <Gold.Chemscore.Internal_Hbond.Weighted>
0.0000

> <Gold.Chemscore.DEClash.Weighted>
0.0456

> <Gold.Chemscore.DEInternal.Weighted>
0.9084

> <Gold.Chemscore.Rot.Weighted>
3.3774

> <Gold.Chemscore.Internal.Correction.Weighted>
   9.000000E+99

> <Gold.Protein.RotatedTorsions>
[ 6907 6896 6895 6894 ] final   66.32 input  -60.11 | X-H torsion
[ 7974 7965 7964 7962 ] final  168.83 input  175.53 | X-H torsion
[ 8008 7997 7996 7995 ] final  -13.73 input   59.86 | X-H torsion
[ 10167 10162 10161 10158 ] final  -45.51 input  -65.29 | X-H torsion
[ 10718 10713 10712 10709 ] final -179.11 input   66.30 | X-H torsion
[ 10763 10752 10751 10750 ] final  -73.88 input  -60.55 | X-H torsion
[ 11005 11000 10999 10996 ] final -113.23 input  -57.11 | X-H torsion

> <Gold.Protein.ActiveResidues>
 VAL166  LYS551  ARG553  GLY616  TRP617  ASP618  TYR619  PRO620  LYS621  CYS622 
 ASP623  PHE694  ASN695  SER759  ASP760  ASP761  ALA762  ILE779  LEU786  VAL792 
 PHE793  MET794  SER795  GLU796  ALA797  LYS798  CYS799  TRP800  GLU811  SER814 

> <Gold.Protein.RotatedAtoms>
  152.4473  134.5468  159.9855 H   0  0  0  0  0  0  0  0  0  0  0  0  # atno 6907 bound_to 6896
  151.5550  133.3406  159.2968 H   0  0  0  0  0  0  0  0  0  0  0  0  # atno 6908 bound_to 6896
  150.8392  134.7710  159.6982 H   0  0  0  0  0  0  0  0  0  0  0  0  # atno 6909 bound_to 6896
  144.7375  139.8966  143.6406 H   0  0  0  0  0  0  0  0  0  0  0  0  # atno 7974 bound_to 7965
  154.5268  140.2242  155.8876 H   0  0  0  0  0  0  0  0  0  0  0  0  # atno 8008 bound_to 7997
  156.1721  140.3119  155.8957 H   0  0  0  0  0  0  0  0  0  0  0  0  # atno 8009 bound_to 7997
  155.3535  140.0457  157.3037 H   0  0  0  0  0  0  0  0  0  0  0  0  # atno 8010 bound_to 7997
  140.6855  143.2876  151.3649 H   0  0  0  0  0  0  0  0  0  0  0  0  # atno 10167 bound_to 10162
  156.8543  130.9730  151.3089 H   0  0  0  0  0  0  0  0  0  0  0  0  # atno 10718 bound_to 10713
  154.4655  135.5883  153.6285 H   0  0  0  0  0  0  0  0  0  0  0  0  # atno 10763 bound_to 10752
  152.9828  135.6054  154.3432 H   0  0  0  0  0  0  0  0  0  0  0  0  # atno 10764 bound_to 10752
  154.3309  135.2842  155.2451 H   0  0  0  0  0  0  0  0  0  0  0  0  # atno 10765 bound_to 10752
  141.0627  133.9509  157.2637 H   0  0  0  0  0  0  0  0  0  0  0  0  # atno 11005 bound_to 11000
  146.1103  139.4107  143.0292 LP  0  0  0  0  0  0  0  0  0  0  0  0  # atno 17320 bound_to 7965
  145.7453  140.9993  143.1279 LP  0  0  0  0  0  0  0  0  0  0  0  0  # atno 17321 bound_to 7965
  139.6210  144.0907  152.2391 LP  0  0  0  0  0  0  0  0  0  0  0  0  # atno 17342 bound_to 10162
  140.0351  144.6051  150.7456 LP  0  0  0  0  0  0  0  0  0  0  0  0  # atno 17343 bound_to 10162
  157.6286  130.8711  149.9233 LP  0  0  0  0  0  0  0  0  0  0  0  0  # atno 17370 bound_to 10713
  156.0811  130.3673  150.0578 LP  0  0  0  0  0  0  0  0  0  0  0  0  # atno 17371 bound_to 10713
  139.9447  135.0186  156.8816 LP  0  0  0  0  0  0  0  0  0  0  0  0  # atno 17394 bound_to 11000
  140.5836  134.0328  155.7473 LP  0  0  0  0  0  0  0  0  0  0  0  0  # atno 17395 bound_to 11000

$$$$
