AV-unprocessed.smi:1123|AV-procd|sdf|4829|dock3
  -GOLD-   22720 3393D 1   1.00000     0.00000
 Structure written by MMmdl.
 37 38  0  0  0  0  0  0  0  0  1 V2000
  151.1575  137.6905  158.8146 C   0  0  0  0  0  0  0  0  0  0  0  0
  152.4032  137.7578  157.9072 C   0  0  2  0  0  0  0  0  0  0  0  0
  153.4970  138.6799  158.4691 C   0  0  0  0  0  0  0  0  0  0  0  0
  154.6877  138.3895  158.3468 O   0  0  0  0  0  0  0  0  0  0  0  0
  153.0746  139.7938  159.0884 N   0  0  0  0  0  0  0  0  0  0  0  0
  153.9407  140.7883  159.7091 C   0  0  0  0  0  0  0  0  0  0  0  0
  153.1326  141.7850  160.5609 C   0  0  0  0  0  0  0  0  0  0  0  0
  152.9677  143.1108  159.9673 N   0  0  0  0  0  0  0  0  0  0  0  0
  152.3473  143.0188  158.6497 C   0  0  0  0  0  0  0  0  0  0  0  0
  152.1606  144.4017  158.0021 C   0  0  0  0  0  0  0  0  0  0  0  0
  151.3877  145.2297  158.8645 O   0  0  0  0  0  0  0  0  0  0  0  0
  151.9812  145.3871  160.1489 C   0  0  0  0  0  0  0  0  0  0  0  0
  152.1733  144.0080  160.8042 C   0  0  0  0  0  0  0  0  0  0  0  0
  152.0725  138.1449  156.5409 N   0  0  0  0  0  0  0  0  0  0  0  0
  151.7258  139.3359  156.0479 C   0  0  0  0  0  0  0  0  0  0  0  0
  151.4419  139.3222  154.7531 N   0  0  0  0  0  0  0  0  0  0  0  0
  151.6344  137.9953  154.4923 C   0  0  0  0  0  0  0  0  0  0  0  0
  152.0025  137.2435  155.5294 N   0  0  0  0  0  0  0  0  0  0  0  0
  151.4196  137.3443  159.8151 H   0  0  0  0  0  0  0  0  0  0  0  0
  150.4215  136.9940  158.4119 H   0  0  0  0  0  0  0  0  0  0  0  0
  150.6706  138.6611  158.9183 H   0  0  0  0  0  0  0  0  0  0  0  0
  152.8190  136.7499  157.8607 H   0  0  0  0  0  0  0  0  0  0  0  0
  152.0801  139.9589  159.1433 H   0  0  0  0  0  0  0  0  0  0  0  0
  154.6609  140.2486  160.3231 H   0  0  0  0  0  0  0  0  0  0  0  0
  154.5145  141.3154  158.9449 H   0  0  0  0  0  0  0  0  0  0  0  0
  152.1440  141.3557  160.7295 H   0  0  0  0  0  0  0  0  0  0  0  0
  153.5895  141.8781  161.5473 H   0  0  0  0  0  0  0  0  0  0  0  0
  152.9583  142.3956  157.9957 H   0  0  0  0  0  0  0  0  0  0  0  0
  151.3770  142.5265  158.7315 H   0  0  0  0  0  0  0  0  0  0  0  0
  153.1260  144.8705  157.8048 H   0  0  0  0  0  0  0  0  0  0  0  0
  151.6481  144.3067  157.0448 H   0  0  0  0  0  0  0  0  0  0  0  0
  152.9364  145.9055  160.0542 H   0  0  0  0  0  0  0  0  0  0  0  0
  151.3367  146.0136  160.7655 H   0  0  0  0  0  0  0  0  0  0  0  0
  151.1965  143.5633  161.0003 H   0  0  0  0  0  0  0  0  0  0  0  0
  152.6535  144.1489  161.7717 H   0  0  0  0  0  0  0  0  0  0  0  0
  151.6758  140.2312  156.6500 H   0  0  0  0  0  0  0  0  0  0  0  0
  151.4929  137.5693  153.5099 H   0  0  0  0  0  0  0  0  0  0  0  0
  1  2  1  0  0  0  0
  1 19  1  0  0  0  0
  1 20  1  0  0  0  0
  1 21  1  0  0  0  0
  2  3  1  0  0  0  0
  2 14  1  0  0  0  0
  2 22  1  0  0  0  0
  3  4  2  0  0  0  0
  3  5  1  0  0  0  0
  5  6  1  0  0  0  0
  5 23  1  0  0  0  0
  6  7  1  0  0  0  0
  6 24  1  0  0  0  0
  6 25  1  0  0  0  0
  7  8  1  0  0  0  0
  7 26  1  0  0  0  0
  7 27  1  0  0  0  0
  8 13  1  0  0  0  0
  8  9  1  0  0  0  0
  9 10  1  0  0  0  0
  9 28  1  0  0  0  0
  9 29  1  0  0  0  0
 10 11  1  0  0  0  0
 10 30  1  0  0  0  0
 10 31  1  0  0  0  0
 11 12  1  0  0  0  0
 12 13  1  0  0  0  0
 12 32  1  0  0  0  0
 12 33  1  0  0  0  0
 13 34  1  0  0  0  0
 13 35  1  0  0  0  0
 14 18  1  0  0  0  0
 14 15  1  0  0  0  0
 15 16  2  0  0  0  0
 15 36  1  0  0  0  0
 16 17  1  0  0  0  0
 17 18  2  0  0  0  0
 17 37  1  0  0  0  0
M  END
> <s_m_source_file>
AV-unprocessed.smi

> <i_m_source_file_index>
1123

> <i_lp_mmshare_version>
43012

> <i_f3d_flags>
0

> <s_epik_input>
bjFbY0hdbltjSF1uMVtDQEhdKFtDSDNdKUMoPU8pW05IXVtDSDJdW0NIMl1OMltDSDJdW0NIMl1PW0NIMl1bQ0gyXTI=

> <s_epik_cmdline>
J2VwaWtfcHl0aG9uJywgJy1waCcsICc3LjAnLCAnLXRuJywgJzgnLCAnLW1hJywgJzIwMCcsICctbWV0YWxfYmluZGluZycsICctaW1hZScsICc8aW5maWxlLm1hZT4nLCAnLW9tYWUnLCAnPG91dGZpbGUubWFlPic=

> <r_lp_tautomer_probability>
1

> <r_epik_Ionization_Penalty>
0.211373

> <r_epik_Ionization_Penalty_Charging>
0

> <r_epik_Ionization_Penalty_Neutral>
0.211373

> <r_epik_State_Penalty>
0.201459

> <r_epik_Charging_Adjusted_Penalty>
0.201459

> <i_epik_Tot_Q>
0

> <i_epik_Tot_abs_Q>
0

> <r_epik_Metal_State_Penalty>
0.201458

> <b_epik_Metal_Only>
0

> <s_lp_Force_Field>
OPLS_2005

> <r_lp_Energy>
26.6349

> <b_lp_Chiralities_Consistent>
1

> <s_lp_Variant>
AV-unprocessed.smi:1123-1

> <Gold.Version>
5.8.1

> <Gold.Id.Protein>
6NUR|6NUR_protein|mol2

> <Gold.PLP.Fitness>
46.8410

> <Gold.PLP.PLP>
-38.4743

> <Gold.PLP.part.hbond>
-3.0163

> <Gold.PLP.part.metal>
0.0000

> <Gold.PLP.part.buried>
-6.3364

> <Gold.PLP.part.nonpolar>
-29.4839

> <Gold.PLP.part.repulsive>
0.3382

> <Gold.PLP.ligand.clash>
0.0000

> <Gold.PLP.ligand.torsion>
1.3718

> <Gold.PLP.Chemscore.Hbond>
2.7280

> <Gold.PLP.Chemscore.CHOScore>
0.9318

> <Gold.PLP.Chemscore.Metal>
0.0000

> <Gold.Chemscore.Hbonds>
donor molecule, donor type, donor heavy atom, donor atom, acceptor molecule, acceptor atom, score
      P1  H  7989  7998       L1    16  1.00
      P1  H  7997  8009       L1     4  0.86
      P1  H 10752 10764       L1    18  0.80
      L1  C    17    37       P1  7949  0.87

> <Gold.PLP.Chemscore.Internal.Correction>
0.1311

> <Gold.Rescore>
     Score         DG    S(hbond)    S(metal)    S(lipo)     H(rot)  DE(clash)    DE(int)     intcor
     13.40     -14.53       2.03        0.00      76.41       2.61       0.03       1.11       ----

> <Gold.Chemscore.Fitness>
13.3971

> <Gold.Chemscore.DG>
-14.5276

> <Gold.Chemscore.ZeroCoef>
-5.4800

> <Gold.Chemscore.Hbond>
2.0324

> <Gold.Chemscore.Metal>
0.0000

> <Gold.Chemscore.Lipo>
76.4116

> <Gold.Chemscore.Internal_Hbond>
0.0000

> <Gold.Chemscore.DEClash>
0.0253

> <Gold.Chemscore.DEInternal>
1.1052

> <Gold.Chemscore.Rot>
2.6097

> <Gold.Chemscore.Internal.Correction>
   9.000000E+99

> <Gold.Chemscore.Hbonds>
donor molecule, donor type, donor heavy atom, donor atom, acceptor molecule, acceptor atom, score
      P1  H  7989  7998       L1    16  0.96
      P1  H  7997  8009       L1     4  0.24
      P1  H 10752 10764       L1    18  0.45

> <Gold.Chemscore.Hbond.Weighted>
-6.7883

> <Gold.Chemscore.Metal.Weighted>
-0.0000

> <Gold.Chemscore.Lipo.Weighted>
-8.9402

> <Gold.Chemscore.Internal_Hbond.Weighted>
0.0000

> <Gold.Chemscore.DEClash.Weighted>
0.0253

> <Gold.Chemscore.DEInternal.Weighted>
1.1052

> <Gold.Chemscore.Rot.Weighted>
6.6809

> <Gold.Chemscore.Internal.Correction.Weighted>
   9.000000E+99

> <Gold.Protein.RotatedTorsions>
[ 6907 6896 6895 6894 ] final  -35.49 input  -60.11 | X-H torsion
[ 7974 7965 7964 7962 ] final   55.20 input  175.53 | X-H torsion
[ 8008 7997 7996 7995 ] final  104.14 input   59.86 | X-H torsion
[ 10167 10162 10161 10158 ] final -132.17 input  -65.29 | X-H torsion
[ 10718 10713 10712 10709 ] final -162.04 input   66.30 | X-H torsion
[ 10763 10752 10751 10750 ] final  -50.59 input  -60.55 | X-H torsion
[ 11005 11000 10999 10996 ] final  175.90 input  -57.11 | X-H torsion

> <Gold.Protein.ActiveResidues>
 VAL166  LYS551  ARG553  GLY616  TRP617  ASP618  TYR619  PRO620  LYS621  CYS622 
 ASP623  PHE694  ASN695  SER759  ASP760  ASP761  ALA762  ILE779  LEU786  VAL792 
 PHE793  MET794  SER795  GLU796  ALA797  LYS798  CYS799  TRP800  GLU811  SER814 

> <Gold.Protein.RotatedAtoms>
  151.0392  134.9595  159.8152 H   0  0  0  0  0  0  0  0  0  0  0  0  # atno 6907 bound_to 6896
  152.5361  134.2680  159.8971 H   0  0  0  0  0  0  0  0  0  0  0  0  # atno 6908 bound_to 6896
  151.2692  133.4221  159.2654 H   0  0  0  0  0  0  0  0  0  0  0  0  # atno 6909 bound_to 6896
  145.9529  139.3988  143.0295 H   0  0  0  0  0  0  0  0  0  0  0  0  # atno 7974 bound_to 7965
  156.1547  140.3153  155.8706 H   0  0  0  0  0  0  0  0  0  0  0  0  # atno 8008 bound_to 7997
  155.3902  140.0493  157.3058 H   0  0  0  0  0  0  0  0  0  0  0  0  # atno 8009 bound_to 7997
  154.5090  140.2157  155.9205 H   0  0  0  0  0  0  0  0  0  0  0  0  # atno 8010 bound_to 7997
  139.9114  143.6490  152.2574 H   0  0  0  0  0  0  0  0  0  0  0  0  # atno 10167 bound_to 10162
  156.6047  130.8825  151.2922 H   0  0  0  0  0  0  0  0  0  0  0  0  # atno 10718 bound_to 10713
  154.1128  135.6546  153.4888 H   0  0  0  0  0  0  0  0  0  0  0  0  # atno 10763 bound_to 10752
  153.0251  135.5251  154.7175 H   0  0  0  0  0  0  0  0  0  0  0  0  # atno 10764 bound_to 10752
  154.6360  135.2982  155.0130 H   0  0  0  0  0  0  0  0  0  0  0  0  # atno 10765 bound_to 10752
  140.3672  134.7061  157.4369 H   0  0  0  0  0  0  0  0  0  0  0  0  # atno 11005 bound_to 11000
  145.8147  140.9709  143.0930 LP  0  0  0  0  0  0  0  0  0  0  0  0  # atno 17320 bound_to 7965
  144.6799  139.9965  143.7484 LP  0  0  0  0  0  0  0  0  0  0  0  0  # atno 17321 bound_to 7965
  139.6939  144.7643  151.1389 LP  0  0  0  0  0  0  0  0  0  0  0  0  # atno 17342 bound_to 10162
  140.7684  143.5550  150.9162 LP  0  0  0  0  0  0  0  0  0  0  0  0  # atno 17343 bound_to 10162
  157.7270  130.9637  150.1680 LP  0  0  0  0  0  0  0  0  0  0  0  0  # atno 17370 bound_to 10713
  156.2439  130.3693  149.8306 LP  0  0  0  0  0  0  0  0  0  0  0  0  # atno 17371 bound_to 10713
  140.0580  134.6036  155.8782 LP  0  0  0  0  0  0  0  0  0  0  0  0  # atno 17394 bound_to 11000
  141.1966  133.6592  156.5699 LP  0  0  0  0  0  0  0  0  0  0  0  0  # atno 17395 bound_to 11000

$$$$
