AV-unprocessed.smi:37|AV-procd|sdf|303|dock3
  -GOLD-   2262016113D 1   1.00000     0.00000
 Structure written by MMmdl.
 44 45  0  0  0  0  0  0  0  0  1 V2000
  153.3824  141.5209  161.0509 C   0  0  0  0  0  0  0  0  0  0  0  0
  152.5627  141.8382  159.7915 C   0  0  0  0  0  0  0  0  0  0  0  0
  152.3367  140.6255  158.8860 C   0  0  0  0  0  0  0  0  0  0  0  0
  153.2654  139.9402  158.4543 O   0  0  0  0  0  0  0  0  0  0  0  0
  151.0345  140.4216  158.6371 O   0  0  0  0  0  0  0  0  0  0  0  0
  150.6489  139.4954  157.6354 C   0  0  0  0  0  0  0  0  0  0  0  0
  149.2703  138.9216  157.9781 C   0  0  2  0  0  0  0  0  0  0  0  0
  149.4012  137.8309  158.8902 O   0  0  0  0  0  0  0  0  0  0  0  0
  148.5975  136.7614  158.4889 C   0  0  1  0  0  0  0  0  0  0  0  0
  147.8701  136.1846  159.6809 N   0  0  0  0  0  0  0  0  0  0  0  0
  147.8861  136.7999  160.9271 C   0  0  0  0  0  0  0  0  0  0  0  0
  147.2380  136.2950  162.0034 C   0  0  0  0  0  0  0  0  0  0  0  0
  147.2938  136.9469  163.1772 F   0  0  0  0  0  0  0  0  0  0  0  0
  146.4759  135.0536  161.9004 C   0  0  0  0  0  0  0  0  0  0  0  0
  145.8603  134.5167  162.8192 O   0  0  0  0  0  0  0  0  0  0  0  0
  146.4824  134.4761  160.6270 N   0  0  0  0  0  0  0  0  0  0  0  0
  147.1433  134.9873  159.5089 C   0  0  0  0  0  0  0  0  0  0  0  0
  147.0772  134.4011  158.4293 O   0  0  0  0  0  0  0  0  0  0  0  0
  147.6479  137.2950  157.4101 C   0  0  1  0  0  0  0  0  0  0  0  0
  146.0253  138.1694  158.1926 Br  0  0  0  0  0  0  0  0  0  0  0  0
  148.5458  138.3361  156.7639 C   0  0  1  0  0  0  0  0  0  0  0  0
  147.8210  139.3296  156.0510 O   0  0  0  0  0  0  0  0  0  0  0  0
  148.4737  140.2415  155.3082 C   0  0  0  0  0  0  0  0  0  0  0  0
  149.6680  140.2095  155.0114 O   0  0  0  0  0  0  0  0  0  0  0  0
  147.5663  141.3759  154.8389 C   0  0  0  0  0  0  0  0  0  0  0  0
  147.3369  141.3413  153.3219 C   0  0  0  0  0  0  0  0  0  0  0  0
  145.9631  133.6186  160.5065 H   0  0  0  0  0  0  0  0  0  0  0  0
  153.5196  142.4179  161.6546 H   0  0  0  0  0  0  0  0  0  0  0  0
  154.3724  141.1409  160.7964 H   0  0  0  0  0  0  0  0  0  0  0  0
  152.8833  140.7777  161.6738 H   0  0  0  0  0  0  0  0  0  0  0  0
  151.5909  142.2410  160.0784 H   0  0  0  0  0  0  0  0  0  0  0  0
  153.0662  142.6127  159.2125 H   0  0  0  0  0  0  0  0  0  0  0  0
  150.6023  140.0133  156.6764 H   0  0  0  0  0  0  0  0  0  0  0  0
  151.3858  138.6964  157.5428 H   0  0  0  0  0  0  0  0  0  0  0  0
  148.6435  139.6826  158.4463 H   0  0  0  0  0  0  0  0  0  0  0  0
  149.2599  135.9739  158.1231 H   0  0  0  0  0  0  0  0  0  0  0  0
  148.4229  137.7274  161.0627 H   0  0  0  0  0  0  0  0  0  0  0  0
  147.3265  136.5047  156.7313 H   0  0  0  0  0  0  0  0  0  0  0  0
  149.2769  137.8419  156.1211 H   0  0  0  0  0  0  0  0  0  0  0  0
  146.6130  141.3052  155.3632 H   0  0  0  0  0  0  0  0  0  0  0  0
  148.0144  142.3280  155.1242 H   0  0  0  0  0  0  0  0  0  0  0  0
  146.7144  142.1795  153.0090 H   0  0  0  0  0  0  0  0  0  0  0  0
  146.8335  140.4243  153.0136 H   0  0  0  0  0  0  0  0  0  0  0  0
  148.2792  141.4075  152.7769 H   0  0  0  0  0  0  0  0  0  0  0  0
  1  2  1  0  0  0  0
  1 28  1  0  0  0  0
  1 29  1  0  0  0  0
  1 30  1  0  0  0  0
  2  3  1  0  0  0  0
  2 31  1  0  0  0  0
  2 32  1  0  0  0  0
  3  4  2  0  0  0  0
  3  5  1  0  0  0  0
  5  6  1  0  0  0  0
  6  7  1  0  0  0  0
  6 33  1  0  0  0  0
  6 34  1  0  0  0  0
  7 21  1  0  0  0  0
  7  8  1  0  0  0  0
  7 35  1  0  0  0  0
  8  9  1  0  0  0  0
  9 10  1  0  0  0  0
  9 19  1  0  0  0  0
  9 36  1  0  0  0  0
 10 17  1  0  0  0  0
 10 11  1  0  0  0  0
 11 12  2  0  0  0  0
 11 37  1  0  0  0  0
 12 13  1  0  0  0  0
 12 14  1  0  0  0  0
 14 15  2  0  0  0  0
 14 16  1  0  0  0  0
 16 27  1  0  0  0  0
 16 17  1  0  0  0  0
 17 18  2  0  0  0  0
 19 20  1  0  0  0  0
 19 21  1  0  0  0  0
 19 38  1  0  0  0  0
 21 22  1  0  0  0  0
 21 39  1  0  0  0  0
 22 23  1  0  0  0  0
 23 24  2  0  0  0  0
 23 25  1  0  0  0  0
 25 26  1  0  0  0  0
 25 40  1  0  0  0  0
 25 41  1  0  0  0  0
 26 42  1  0  0  0  0
 26 43  1  0  0  0  0
 26 44  1  0  0  0  0
M  END
> <s_m_source_file>
AV-unprocessed.smi

> <i_m_source_file_index>
37

> <i_lp_mmshare_version>
43012

> <i_f3d_flags>
0

> <s_epik_input>
W0NIM11bQ0gyXUMoPU8pT1tDSDJdW0NAQEhdMU9bQ0BASF0objJbY0hdYyhGKWMoPU8pW25IXWMyPU8pW0NAQEhdKEJyKVtDQEhdMU9DKD1PKVtDSDJdW0NIM10=

> <s_epik_cmdline>
J2VwaWtfcHl0aG9uJywgJy1waCcsICc3LjAnLCAnLXRuJywgJzgnLCAnLW1hJywgJzIwMCcsICctbWV0YWxfYmluZGluZycsICctaW1hZScsICc8aW5maWxlLm1hZT4nLCAnLW9tYWUnLCAnPG91dGZpbGUubWFlPic=

> <r_lp_tautomer_probability>
0.999537

> <r_epik_Ionization_Penalty>
0.104106

> <r_epik_Ionization_Penalty_Charging>
0.104106

> <r_epik_Ionization_Penalty_Neutral>
3.94675e-16

> <r_epik_State_Penalty>
0.0940182

> <r_epik_Charging_Adjusted_Penalty>
0.198124

> <i_epik_Tot_Q>
0

> <i_epik_Tot_abs_Q>
0

> <r_epik_Metal_State_Penalty>
3.05314

> <b_epik_Metal_Only>
0

> <s_epik_Chemistry_Notes>
This compound has an ester and may undergo hydrolysis at high or low pH. This compound contains an acetal/aminal-like group ( X-CH(R)-Y where X, Y are N, S, or O) that may be acid/base labile, releasing an aldehyde.

> <s_lp_Force_Field>
OPLS_2005

> <r_lp_Energy>
25.209

> <b_lp_Chiralities_Consistent>
1

> <s_lp_Variant>
AV-unprocessed.smi:37-1

> <Gold.Version>
5.8.1

> <Gold.Id.Protein>
6NUR|6NUR_protein|mol2

> <Gold.PLP.Fitness>
40.7534

> <Gold.PLP.PLP>
-39.4267

> <Gold.PLP.part.hbond>
-2.3764

> <Gold.PLP.part.metal>
0.0000

> <Gold.PLP.part.buried>
-5.0349

> <Gold.PLP.part.nonpolar>
-32.0152

> <Gold.PLP.part.repulsive>
0.0911

> <Gold.PLP.ligand.clash>
0.0000

> <Gold.PLP.ligand.torsion>
0.9115

> <Gold.PLP.Chemscore.Hbond>
0.9920

> <Gold.PLP.Chemscore.CHOScore>
0.0000

> <Gold.PLP.Chemscore.Metal>
0.0000

> <Gold.Chemscore.Hbonds>
donor molecule, donor type, donor heavy atom, donor atom, acceptor molecule, acceptor atom, score
      P1  H  7997  8010       L1     4  1.00

> <Gold.PLP.Chemscore.Internal.Correction>
0.1737

> <Gold.Rescore>
     Score         DG    S(hbond)    S(metal)    S(lipo)     H(rot)  DE(clash)    DE(int)     intcor
      8.65     -10.55       1.98        0.00      59.79       3.33       0.42       1.48       ----

> <Gold.Chemscore.Fitness>
8.6513

> <Gold.Chemscore.DG>
-10.5542

> <Gold.Chemscore.ZeroCoef>
-5.4800

> <Gold.Chemscore.Hbond>
1.9775

> <Gold.Chemscore.Metal>
0.0000

> <Gold.Chemscore.Lipo>
59.7875

> <Gold.Chemscore.Internal_Hbond>
0.0000

> <Gold.Chemscore.DEClash>
0.4213

> <Gold.Chemscore.DEInternal>
1.4817

> <Gold.Chemscore.Rot>
3.3303

> <Gold.Chemscore.Internal.Correction>
   9.000000E+99

> <Gold.Chemscore.Hbonds>
donor molecule, donor type, donor heavy atom, donor atom, acceptor molecule, acceptor atom, score
      P1  H  7997  8010       L1     4  0.97

> <Gold.Chemscore.Hbond.Weighted>
-6.6047

> <Gold.Chemscore.Metal.Weighted>
-0.0000

> <Gold.Chemscore.Lipo.Weighted>
-6.9951

> <Gold.Chemscore.Internal_Hbond.Weighted>
0.0000

> <Gold.Chemscore.DEClash.Weighted>
0.4213

> <Gold.Chemscore.DEInternal.Weighted>
1.4817

> <Gold.Chemscore.Rot.Weighted>
8.5256

> <Gold.Chemscore.Internal.Correction.Weighted>
   9.000000E+99

> <Gold.Protein.RotatedTorsions>
[ 6907 6896 6895 6894 ] final    2.12 input  -60.11 | X-H torsion
[ 7974 7965 7964 7962 ] final -171.63 input  175.53 | X-H torsion
[ 8008 7997 7996 7995 ] final   24.75 input   59.86 | X-H torsion
[ 10167 10162 10161 10158 ] final   60.41 input  -65.29 | X-H torsion
[ 10718 10713 10712 10709 ] final   47.72 input   66.30 | X-H torsion
[ 10763 10752 10751 10750 ] final   77.53 input  -60.55 | X-H torsion
[ 11005 11000 10999 10996 ] final -165.33 input  -57.11 | X-H torsion

> <Gold.Protein.ActiveResidues>
 VAL166  LYS551  ARG553  GLY616  TRP617  ASP618  TYR619  PRO620  LYS621  CYS622 
 ASP623  PHE694  ASN695  SER759  ASP760  ASP761  ALA762  ILE779  LEU786  VAL792 
 PHE793  MET794  SER795  GLU796  ALA797  LYS798  CYS799  TRP800  GLU811  SER814 

> <Gold.Protein.RotatedAtoms>
  151.6036  135.1045  160.0065 H   0  0  0  0  0  0  0  0  0  0  0  0  # atno 6907 bound_to 6896
  152.4245  133.7167  159.6520 H   0  0  0  0  0  0  0  0  0  0  0  0  # atno 6908 bound_to 6896
  150.8133  133.8310  159.3194 H   0  0  0  0  0  0  0  0  0  0  0  0  # atno 6909 bound_to 6896
  144.7155  140.1894  143.6350 H   0  0  0  0  0  0  0  0  0  0  0  0  # atno 7974 bound_to 7965
  155.0010  140.3125  155.4867 H   0  0  0  0  0  0  0  0  0  0  0  0  # atno 8008 bound_to 7997
  156.2925  140.2232  156.5061 H   0  0  0  0  0  0  0  0  0  0  0  0  # atno 8009 bound_to 7997
  154.7618  140.0458  157.0968 H   0  0  0  0  0  0  0  0  0  0  0  0  # atno 8010 bound_to 7997
  140.1659  144.4325  150.6686 H   0  0  0  0  0  0  0  0  0  0  0  0  # atno 10167 bound_to 10162
  157.4614  130.8198  149.7890 H   0  0  0  0  0  0  0  0  0  0  0  0  # atno 10718 bound_to 10713
  153.0806  135.4911  154.8494 H   0  0  0  0  0  0  0  0  0  0  0  0  # atno 10763 bound_to 10752
  154.7145  135.3026  154.9147 H   0  0  0  0  0  0  0  0  0  0  0  0  # atno 10764 bound_to 10752
  153.9831  135.6787  153.4804 H   0  0  0  0  0  0  0  0  0  0  0  0  # atno 10765 bound_to 10752
  140.5769  134.5181  157.5172 H   0  0  0  0  0  0  0  0  0  0  0  0  # atno 11005 bound_to 11000
  145.8783  139.2309  143.1620 LP  0  0  0  0  0  0  0  0  0  0  0  0  # atno 17320 bound_to 7965
  146.0019  140.8512  143.0014 LP  0  0  0  0  0  0  0  0  0  0  0  0  # atno 17321 bound_to 7965
  140.6613  143.2253  151.5848 LP  0  0  0  0  0  0  0  0  0  0  0  0  # atno 17342 bound_to 10162
  139.5360  144.2780  152.1252 LP  0  0  0  0  0  0  0  0  0  0  0  0  # atno 17343 bound_to 10162
  156.0030  130.3870  150.2534 LP  0  0  0  0  0  0  0  0  0  0  0  0  # atno 17370 bound_to 10713
  157.0712  131.0117  151.3189 LP  0  0  0  0  0  0  0  0  0  0  0  0  # atno 17371 bound_to 10713
  139.9335  134.7918  156.0865 LP  0  0  0  0  0  0  0  0  0  0  0  0  # atno 17394 bound_to 11000
  141.1021  133.6673  156.2778 LP  0  0  0  0  0  0  0  0  0  0  0  0  # atno 17395 bound_to 11000

$$$$
