AV-unprocessed.smi:484|AV-procd|sdf|2690|dock8
  -GOLD-   2262023123D 1   1.00000     0.00000
 Structure written by MMmdl.
 47 49  0  0  0  0  0  0  0  0  2 V2000
  153.6238  141.9793  161.8503 C   0  0  0  0  0  0  0  0  0  0  0  0
  152.5860  142.9763  161.3233 C   0  0  0  0  0  0  0  0  0  0  0  0
  152.1397  142.6478  159.9114 C   0  0  0  0  0  0  0  0  0  0  0  0
  151.9427  143.6780  158.9704 C   0  0  0  0  0  0  0  0  0  0  0  0
  151.5319  143.3687  157.6597 C   0  0  0  0  0  0  0  0  0  0  0  0
  151.3114  142.0325  157.2682 C   0  0  0  0  0  0  0  0  0  0  0  0
  150.9022  141.8222  155.9691 O   0  0  0  0  0  0  0  0  0  0  0  0
  150.6821  140.4854  155.5400 C   0  0  0  0  0  0  0  0  0  0  0  0
  149.3273  140.4139  154.8165 C   0  0  1  0  0  0  0  0  0  0  0  0
  149.4566  141.0826  153.5787 O   0  0  0  0  0  0  0  0  0  0  0  0
  148.7882  138.9798  154.5961 C   0  0  0  0  0  0  0  0  0  0  0  0
  147.3185  138.8837  154.4895 N   0  0  0  0  0  0  0  0  0  0  0  0
  146.4978  138.9376  153.3967 C   0  0  0  0  0  0  0  0  0  0  0  0
  146.8911  139.1238  151.9653 C   0  0  0  0  0  0  0  0  0  0  0  0
  146.6610  137.9735  151.1808 O   0  0  0  0  0  0  0  0  0  0  0  0
  145.2188  138.7969  153.8469 N   0  3  0  0  0  0  0  0  0  0  0  0
  145.2163  138.6329  155.2308 C   0  0  0  0  0  0  0  0  0  0  0  0
  144.1639  138.4483  156.1225 C   0  0  0  0  0  0  0  0  0  0  0  0
  144.5051  138.3051  157.4830 C   0  0  0  0  0  0  0  0  0  0  0  0
  145.8479  138.3465  157.9103 C   0  0  0  0  0  0  0  0  0  0  0  0
  146.9055  138.5341  156.9958 C   0  0  0  0  0  0  0  0  0  0  0  0
  146.5611  138.6798  155.6516 C   0  0  0  0  0  0  0  0  0  0  0  0
  151.5137  140.9999  158.2183 C   0  0  0  0  0  0  0  0  0  0  0  0
  151.9247  141.3084  159.5296 C   0  0  0  0  0  0  0  0  0  0  0  0
  153.9294  142.2368  162.8647 H   0  0  0  0  0  0  0  0  0  0  0  0
  154.5170  141.9724  161.2248 H   0  0  0  0  0  0  0  0  0  0  0  0
  153.2213  140.9659  161.8715 H   0  0  0  0  0  0  0  0  0  0  0  0
  151.7154  142.9863  161.9803 H   0  0  0  0  0  0  0  0  0  0  0  0
  152.9982  143.9860  161.3459 H   0  0  0  0  0  0  0  0  0  0  0  0
  152.1073  144.7085  159.2497 H   0  0  0  0  0  0  0  0  0  0  0  0
  151.3827  144.1667  156.9471 H   0  0  0  0  0  0  0  0  0  0  0  0
  151.4784  140.1960  154.8519 H   0  0  0  0  0  0  0  0  0  0  0  0
  150.7036  139.7919  156.3819 H   0  0  0  0  0  0  0  0  0  0  0  0
  148.5948  140.9723  155.4004 H   0  0  0  0  0  0  0  0  0  0  0  0
  149.2343  140.4786  152.8868 H   0  0  0  0  0  0  0  0  0  0  0  0
  149.2099  138.5686  153.6794 H   0  0  0  0  0  0  0  0  0  0  0  0
  149.1275  138.3141  155.3902 H   0  0  0  0  0  0  0  0  0  0  0  0
  146.3204  139.9526  151.5464 H   0  0  0  0  0  0  0  0  0  0  0  0
  147.9462  139.3846  151.8932 H   0  0  0  0  0  0  0  0  0  0  0  0
  147.3873  137.3799  151.2989 H   0  0  0  0  0  0  0  0  0  0  0  0
  143.1348  138.4134  155.7961 H   0  0  0  0  0  0  0  0  0  0  0  0
  143.7220  138.1591  158.2131 H   0  0  0  0  0  0  0  0  0  0  0  0
  146.0718  138.2320  158.9610 H   0  0  0  0  0  0  0  0  0  0  0  0
  147.9292  138.5646  157.3375 H   0  0  0  0  0  0  0  0  0  0  0  0
  151.3615  139.9615  157.9664 H   0  0  0  0  0  0  0  0  0  0  0  0
  152.0770  140.5114  160.2428 H   0  0  0  0  0  0  0  0  0  0  0  0
  144.4084  138.8027  153.2409 H   0  0  0  0  0  0  0  0  0  0  0  0
  1  2  1  0  0  0  0
  1 25  1  0  0  0  0
  1 26  1  0  0  0  0
  1 27  1  0  0  0  0
  2  3  1  0  0  0  0
  2 28  1  0  0  0  0
  2 29  1  0  0  0  0
  3 24  1  0  0  0  0
  3  4  2  0  0  0  0
  4  5  1  0  0  0  0
  4 30  1  0  0  0  0
  5  6  2  0  0  0  0
  5 31  1  0  0  0  0
  6  7  1  0  0  0  0
  6 23  1  0  0  0  0
  7  8  1  0  0  0  0
  8  9  1  0  0  0  0
  8 32  1  0  0  0  0
  8 33  1  0  0  0  0
  9 10  1  0  0  0  0
  9 11  1  0  0  0  0
  9 34  1  0  0  0  0
 10 35  1  0  0  0  0
 11 12  1  0  0  0  0
 11 36  1  0  0  0  0
 11 37  1  0  0  0  0
 12 22  1  0  0  0  0
 12 13  1  0  0  0  0
 13 14  1  0  0  0  0
 13 16  2  0  0  0  0
 14 15  1  0  0  0  0
 14 38  1  0  0  0  0
 14 39  1  0  0  0  0
 15 40  1  0  0  0  0
 16 17  1  0  0  0  0
 16 47  1  0  0  0  0
 17 22  2  0  0  0  0
 17 18  1  0  0  0  0
 18 19  2  0  0  0  0
 18 41  1  0  0  0  0
 19 20  1  0  0  0  0
 19 42  1  0  0  0  0
 20 21  2  0  0  0  0
 20 43  1  0  0  0  0
 21 22  1  0  0  0  0
 21 44  1  0  0  0  0
 23 24  2  0  0  0  0
 23 45  1  0  0  0  0
 24 46  1  0  0  0  0
M  CHG  1  16   1
M  END
> <s_m_source_file>
AV-unprocessed.smi

> <i_m_source_file_index>
484

> <i_lp_mmshare_version>
43012

> <i_f3d_flags>
0

> <s_epik_input>
W0NIM11bQ0gyXWMxW2NIXVtjSF1jKFtjSF1bY0hdMSlPW0NIMl1bQ0BIXShbT0hdKVtDSDJdbihjKG4yKVtDSDJdW09IXSljKGMyMylbY0hdW2NIXVtjSF1bY0hdMw==

> <s_epik_cmdline>
J2VwaWtfcHl0aG9uJywgJy1waCcsICc3LjAnLCAnLXRuJywgJzgnLCAnLW1hJywgJzIwMCcsICctbWV0YWxfYmluZGluZycsICctaW1hZScsICc8aW5maWxlLm1hZT4nLCAnLW9tYWUnLCAnPG91dGZpbGUubWFlPic=

> <r_lp_tautomer_probability>
1

> <r_epik_Ionization_Penalty>
1.43166

> <r_epik_Ionization_Penalty_Charging>
1.43081

> <r_epik_Ionization_Penalty_Neutral>
0.000858184

> <r_epik_State_Penalty>
1.51538

> <r_epik_Charging_Adjusted_Penalty>
2.94618

> <i_epik_Tot_Q>
1

> <i_epik_Tot_abs_Q>
1

> <r_epik_Metal_State_Penalty>
5.56039

> <b_epik_Metal_Only>
0

> <s_lp_Force_Field>
OPLS_2005

> <r_lp_Energy>
17.0937

> <b_lp_Chiralities_Consistent>
1

> <s_lp_Variant>
AV-unprocessed.smi:484-4

> <Gold.Version>
5.8.1

> <Gold.Id.Protein>
6NUR|6NUR_protein|mol2

> <Gold.PLP.Fitness>
51.8689

> <Gold.PLP.PLP>
-43.6910

> <Gold.PLP.part.hbond>
-6.8367

> <Gold.PLP.part.metal>
0.0000

> <Gold.PLP.part.buried>
-2.3078

> <Gold.PLP.part.nonpolar>
-33.4538

> <Gold.PLP.part.repulsive>
0.0792

> <Gold.PLP.ligand.clash>
0.0000

> <Gold.PLP.ligand.torsion>
1.4200

> <Gold.PLP.Chemscore.Hbond>
3.5949

> <Gold.PLP.Chemscore.CHOScore>
0.0000

> <Gold.PLP.Chemscore.Metal>
0.0000

> <Gold.Chemscore.Hbonds>
donor molecule, donor type, donor heavy atom, donor atom, acceptor molecule, acceptor atom, score
      L1  H    10    35       P1  7957  0.85
      L1  H    15    40       P1  7948  1.00
      L1  H    16    47       P1 10175  0.93
      P1  H  7989  7998       L1    10  0.13
      P1  H  8011  8017       L1    10  0.55

> <Gold.PLP.Chemscore.Internal.Correction>
0.2332

> <Gold.Rescore>
     Score         DG    S(hbond)    S(metal)    S(lipo)     H(rot)  DE(clash)    DE(int)     intcor
     16.58     -18.10       2.44        0.00     107.67       3.18       0.26       1.26       ----

> <Gold.Chemscore.Fitness>
16.5752

> <Gold.Chemscore.DG>
-18.0980

> <Gold.Chemscore.ZeroCoef>
-5.4800

> <Gold.Chemscore.Hbond>
2.4437

> <Gold.Chemscore.Metal>
0.0000

> <Gold.Chemscore.Lipo>
107.6672

> <Gold.Chemscore.Internal_Hbond>
0.0000

> <Gold.Chemscore.DEClash>
0.2648

> <Gold.Chemscore.DEInternal>
1.2581

> <Gold.Chemscore.Rot>
3.1801

> <Gold.Chemscore.Internal.Correction>
   9.000000E+99

> <Gold.Chemscore.Hbonds>
donor molecule, donor type, donor heavy atom, donor atom, acceptor molecule, acceptor atom, score
      L1  H    10    35       P1  7957  0.85
      L1  H    15    40       P1  7948  0.97
      L1  H    16    47       P1 10175  0.45
      P1  H  8011  8017       L1    10  0.03

> <Gold.Chemscore.Hbond.Weighted>
-8.1619

> <Gold.Chemscore.Metal.Weighted>
-0.0000

> <Gold.Chemscore.Lipo.Weighted>
-12.5971

> <Gold.Chemscore.Internal_Hbond.Weighted>
0.0000

> <Gold.Chemscore.DEClash.Weighted>
0.2648

> <Gold.Chemscore.DEInternal.Weighted>
1.2581

> <Gold.Chemscore.Rot.Weighted>
8.1410

> <Gold.Chemscore.Internal.Correction.Weighted>
   9.000000E+99

> <Gold.Protein.RotatedTorsions>
[ 6907 6896 6895 6894 ] final   76.10 input  -60.11 | X-H torsion
[ 7974 7965 7964 7962 ] final  -55.00 input  175.53 | X-H torsion
[ 8008 7997 7996 7995 ] final  -23.59 input   59.86 | X-H torsion
[ 10167 10162 10161 10158 ] final  -34.57 input  -65.29 | X-H torsion
[ 10718 10713 10712 10709 ] final   43.45 input   66.30 | X-H torsion
[ 10763 10752 10751 10750 ] final -128.89 input  -60.55 | X-H torsion
[ 11005 11000 10999 10996 ] final  -95.91 input  -57.11 | X-H torsion

> <Gold.Protein.ActiveResidues>
 VAL166  LYS551  ARG553  GLY616  TRP617  ASP618  TYR619  PRO620  LYS621  CYS622 
 ASP623  PHE694  ASN695  SER759  ASP760  ASP761  ALA762  ILE779  LEU786  VAL792 
 PHE793  MET794  SER795  GLU796  ALA797  LYS798  CYS799  TRP800  GLU811  SER814 

> <Gold.Protein.RotatedAtoms>
  152.5057  134.4020  159.9419 H   0  0  0  0  0  0  0  0  0  0  0  0  # atno 6907 bound_to 6896
  151.3985  133.3759  159.2737 H   0  0  0  0  0  0  0  0  0  0  0  0  # atno 6908 bound_to 6896
  150.9379  134.8812  159.7653 H   0  0  0  0  0  0  0  0  0  0  0  0  # atno 6909 bound_to 6896
  145.8792  140.8158  142.9849 H   0  0  0  0  0  0  0  0  0  0  0  0  # atno 7974 bound_to 7965
  154.4576  140.1976  156.0335 H   0  0  0  0  0  0  0  0  0  0  0  0  # atno 8008 bound_to 7997
  156.0777  140.3276  155.7627 H   0  0  0  0  0  0  0  0  0  0  0  0  # atno 8009 bound_to 7997
  155.5161  140.0566  157.2906 H   0  0  0  0  0  0  0  0  0  0  0  0  # atno 8010 bound_to 7997
  140.7183  143.3539  151.2100 H   0  0  0  0  0  0  0  0  0  0  0  0  # atno 10167 bound_to 10162
  157.4161  130.7942  149.7473 H   0  0  0  0  0  0  0  0  0  0  0  0  # atno 10718 bound_to 10713
  154.8757  135.3913  154.3831 H   0  0  0  0  0  0  0  0  0  0  0  0  # atno 10763 bound_to 10752
  153.4576  135.7029  153.6075 H   0  0  0  0  0  0  0  0  0  0  0  0  # atno 10764 bound_to 10752
  153.4588  135.3817  155.2295 H   0  0  0  0  0  0  0  0  0  0  0  0  # atno 10765 bound_to 10752
  141.1428  133.8060  157.0499 H   0  0  0  0  0  0  0  0  0  0  0  0  # atno 11005 bound_to 11000
  144.6727  140.1357  143.7440 LP  0  0  0  0  0  0  0  0  0  0  0  0  # atno 17320 bound_to 7965
  145.9044  139.2450  143.1474 LP  0  0  0  0  0  0  0  0  0  0  0  0  # atno 17321 bound_to 7965
  139.7075  143.9430  152.2933 LP  0  0  0  0  0  0  0  0  0  0  0  0  # atno 17342 bound_to 10162
  139.9144  144.6837  150.8527 LP  0  0  0  0  0  0  0  0  0  0  0  0  # atno 17343 bound_to 10162
  155.9865  130.3974  150.3207 LP  0  0  0  0  0  0  0  0  0  0  0  0  # atno 17370 bound_to 10713
  157.1350  131.0282  151.2953 LP  0  0  0  0  0  0  0  0  0  0  0  0  # atno 17371 bound_to 10713
  140.0638  134.9740  157.1351 LP  0  0  0  0  0  0  0  0  0  0  0  0  # atno 17394 bound_to 11000
  140.3809  134.2288  155.7171 LP  0  0  0  0  0  0  0  0  0  0  0  0  # atno 17395 bound_to 11000

$$$$
