AV-unprocessed.smi:3308|AV-procd|sdf|12710|dock3
  -GOLD-   2272019 43D 1   1.00000     0.00000
 Structure written by MMmdl.
 41 42  0  0  0  0  0  0  0  0  2 V2000
  152.2039  139.5024  155.4292 C   0  0  0  0  0  0  0  0  0  0  0  0
  150.8378  140.1418  155.7218 C   0  0  2  0  0  0  0  0  0  0  0  0
  150.7442  140.4999  157.1558 N   0  3  0  0  0  0  0  0  0  0  0  0
  151.7419  141.4881  157.6196 C   0  0  0  0  0  0  0  0  0  0  0  0
  152.6904  140.9069  158.6771 C   0  0  0  0  0  0  0  0  0  0  0  0
  153.3191  139.8760  158.4320 O   0  0  0  0  0  0  0  0  0  0  0  0
  152.7998  141.5521  159.8564 N   0  0  0  0  0  0  0  0  0  0  0  0
  153.6758  141.1130  160.9409 C   0  0  0  0  0  0  0  0  0  0  0  0
  153.6989  142.2649  161.9457 C   0  0  0  0  0  0  0  0  0  0  0  0
  152.3791  142.9879  161.7151 C   0  0  0  0  0  0  0  0  0  0  0  0
  152.0848  142.7724  160.2300 C   0  0  0  0  0  0  0  0  0  0  0  0
  149.6471  139.2530  155.2757 C   0  0  1  0  0  0  0  0  0  0  0  0
  149.1004  138.3270  156.3835 C   0  0  0  0  0  0  0  0  0  0  0  0
  148.5898  140.0520  154.6642 N   0  0  0  0  0  0  0  0  0  0  0  0
  148.4190  141.4199  154.7260 C   0  0  0  0  0  0  0  0  0  0  0  0
  147.2715  141.7218  154.0506 C   0  0  0  0  0  0  0  0  0  0  0  0
  146.7928  140.4557  153.6139 C   0  0  0  0  0  0  0  0  0  0  0  0
  147.5765  139.4587  153.9906 N   0  0  0  0  0  0  0  0  0  0  0  0
  152.2899  139.2212  154.3792 H   0  0  0  0  0  0  0  0  0  0  0  0
  152.3723  138.6085  156.0298 H   0  0  0  0  0  0  0  0  0  0  0  0
  153.0139  140.1992  155.6475 H   0  0  0  0  0  0  0  0  0  0  0  0
  150.8000  141.0593  155.1313 H   0  0  0  0  0  0  0  0  0  0  0  0
  149.8224  140.8773  157.3263 H   0  0  0  0  0  0  0  0  0  0  0  0
  152.3161  141.8373  156.7607 H   0  0  0  0  0  0  0  0  0  0  0  0
  151.2272  142.3493  158.0470 H   0  0  0  0  0  0  0  0  0  0  0  0
  153.2544  140.2155  161.3961 H   0  0  0  0  0  0  0  0  0  0  0  0
  154.6810  140.8750  160.5890 H   0  0  0  0  0  0  0  0  0  0  0  0
  153.8219  141.9266  162.9749 H   0  0  0  0  0  0  0  0  0  0  0  0
  154.5270  142.9360  161.7136 H   0  0  0  0  0  0  0  0  0  0  0  0
  151.5977  142.5193  162.3149 H   0  0  0  0  0  0  0  0  0  0  0  0
  152.4217  144.0425  161.9884 H   0  0  0  0  0  0  0  0  0  0  0  0
  152.4691  143.6066  159.6415 H   0  0  0  0  0  0  0  0  0  0  0  0
  151.0112  142.6947  160.0532 H   0  0  0  0  0  0  0  0  0  0  0  0
  150.0170  138.5978  154.4854 H   0  0  0  0  0  0  0  0  0  0  0  0
  149.8552  137.6166  156.7198 H   0  0  0  0  0  0  0  0  0  0  0  0
  148.2547  137.7435  156.0178 H   0  0  0  0  0  0  0  0  0  0  0  0
  148.7610  138.8861  157.2559 H   0  0  0  0  0  0  0  0  0  0  0  0
  149.1212  142.0595  155.2404 H   0  0  0  0  0  0  0  0  0  0  0  0
  146.8379  142.6986  153.8948 H   0  0  0  0  0  0  0  0  0  0  0  0
  145.9032  140.2325  153.0439 H   0  0  0  0  0  0  0  0  0  0  0  0
  150.8510  139.6617  157.7091 H   0  0  0  0  0  0  0  0  0  0  0  0
  1  2  1  0  0  0  0
  1 19  1  0  0  0  0
  1 20  1  0  0  0  0
  1 21  1  0  0  0  0
  2  3  1  0  0  0  0
  2 12  1  0  0  0  0
  2 22  1  0  0  0  0
  3  4  1  0  0  0  0
  3 23  1  0  0  0  0
  3 41  1  0  0  0  0
  4  5  1  0  0  0  0
  4 24  1  0  0  0  0
  4 25  1  0  0  0  0
  5  6  2  0  0  0  0
  5  7  1  0  0  0  0
  7 11  1  0  0  0  0
  7  8  1  0  0  0  0
  8  9  1  0  0  0  0
  8 26  1  0  0  0  0
  8 27  1  0  0  0  0
  9 10  1  0  0  0  0
  9 28  1  0  0  0  0
  9 29  1  0  0  0  0
 10 11  1  0  0  0  0
 10 30  1  0  0  0  0
 10 31  1  0  0  0  0
 11 32  1  0  0  0  0
 11 33  1  0  0  0  0
 12 13  1  0  0  0  0
 12 14  1  0  0  0  0
 12 34  1  0  0  0  0
 13 35  1  0  0  0  0
 13 36  1  0  0  0  0
 13 37  1  0  0  0  0
 14 18  1  0  0  0  0
 14 15  1  0  0  0  0
 15 16  2  0  0  0  0
 15 38  1  0  0  0  0
 16 17  1  0  0  0  0
 16 39  1  0  0  0  0
 17 18  2  0  0  0  0
 17 40  1  0  0  0  0
M  CHG  1   3   1
M  END
> <s_m_source_file>
AV-unprocessed.smi

> <i_m_source_file_index>
3308

> <i_lp_mmshare_version>
43012

> <i_f3d_flags>
0

> <s_epik_input>
bjFbY0hdW2NIXVtjSF1uMVtDQEBIXShbQ0gzXSlbQ0BIXShbQ0gzXSlbTkhdW0NIMl1DKD1PKU4yW0NIMl1bQ0gyXVtDSDJdW0NIMl0y

> <s_epik_cmdline>
J2VwaWtfcHl0aG9uJywgJy1waCcsICc3LjAnLCAnLXRuJywgJzgnLCAnLW1hJywgJzIwMCcsICctbWV0YWxfYmluZGluZycsICctaW1hZScsICc8aW5maWxlLm1hZT4nLCAnLW9tYWUnLCAnPG91dGZpbGUubWFlPic=

> <r_lp_tautomer_probability>
1

> <r_epik_Ionization_Penalty>
0.141739

> <r_epik_Ionization_Penalty_Charging>
0.141731

> <r_epik_Ionization_Penalty_Neutral>
8.82171e-06

> <r_epik_State_Penalty>
0.131043

> <r_epik_Charging_Adjusted_Penalty>
0.272773

> <i_epik_Tot_Q>
1

> <i_epik_Tot_abs_Q>
1

> <r_epik_Metal_State_Penalty>
0.131385

> <b_epik_Metal_Only>
0

> <s_lp_Force_Field>
OPLS_2005

> <r_lp_Energy>
34.1001

> <b_lp_Chiralities_Consistent>
1

> <s_lp_Variant>
AV-unprocessed.smi:3308-3

> <Gold.Version>
5.8.1

> <Gold.Id.Protein>
6NUR|6NUR_protein|mol2

> <Gold.PLP.Fitness>
45.0076

> <Gold.PLP.PLP>
-39.5343

> <Gold.PLP.part.hbond>
-1.0000

> <Gold.PLP.part.metal>
0.0000

> <Gold.PLP.part.buried>
-1.2189

> <Gold.PLP.part.nonpolar>
-34.8186

> <Gold.PLP.part.repulsive>
0.2267

> <Gold.PLP.ligand.clash>
0.0000

> <Gold.PLP.ligand.torsion>
1.5301

> <Gold.PLP.Chemscore.Hbond>
1.0000

> <Gold.PLP.Chemscore.CHOScore>
1.7874

> <Gold.PLP.Chemscore.Metal>
0.0000

> <Gold.Chemscore.Hbonds>
donor molecule, donor type, donor heavy atom, donor atom, acceptor molecule, acceptor atom, score
      P1  H  7997  8008       L1     6  1.00
      L1  C    15    38       P1  8028  0.54
      L1  C    17    40       P1 10175  1.00

> <Gold.PLP.Chemscore.Internal.Correction>
0.1712

> <Gold.Rescore>
     Score         DG    S(hbond)    S(metal)    S(lipo)     H(rot)  DE(clash)    DE(int)     intcor
     13.75     -15.01       0.95        0.00      93.26       1.78       0.13       1.14       ----

> <Gold.Chemscore.Fitness>
13.7492

> <Gold.Chemscore.DG>
-15.0118

> <Gold.Chemscore.ZeroCoef>
-5.4800

> <Gold.Chemscore.Hbond>
0.9539

> <Gold.Chemscore.Metal>
0.0000

> <Gold.Chemscore.Lipo>
93.2643

> <Gold.Chemscore.Internal_Hbond>
0.0000

> <Gold.Chemscore.DEClash>
0.1272

> <Gold.Chemscore.DEInternal>
1.1355

> <Gold.Chemscore.Rot>
1.7836

> <Gold.Chemscore.Internal.Correction>
   9.000000E+99

> <Gold.Chemscore.Hbonds>
donor molecule, donor type, donor heavy atom, donor atom, acceptor molecule, acceptor atom, score
      P1  H  7997  8008       L1     6  0.87

> <Gold.Chemscore.Hbond.Weighted>
-3.1859

> <Gold.Chemscore.Metal.Weighted>
-0.0000

> <Gold.Chemscore.Lipo.Weighted>
-10.9119

> <Gold.Chemscore.Internal_Hbond.Weighted>
0.0000

> <Gold.Chemscore.DEClash.Weighted>
0.1272

> <Gold.Chemscore.DEInternal.Weighted>
1.1355

> <Gold.Chemscore.Rot.Weighted>
4.5660

> <Gold.Chemscore.Internal.Correction.Weighted>
   9.000000E+99

> <Gold.Protein.RotatedTorsions>
[ 6907 6896 6895 6894 ] final   -9.01 input  -60.11 | X-H torsion
[ 7974 7965 7964 7962 ] final  -36.93 input  175.53 | X-H torsion
[ 8008 7997 7996 7995 ] final  -83.40 input   59.86 | X-H torsion
[ 10167 10162 10161 10158 ] final -144.99 input  -65.29 | X-H torsion
[ 10718 10713 10712 10709 ] final  139.72 input   66.30 | X-H torsion
[ 10763 10752 10751 10750 ] final  173.60 input  -60.55 | X-H torsion
[ 11005 11000 10999 10996 ] final  -88.69 input  -57.11 | X-H torsion

> <Gold.Protein.ActiveResidues>
 VAL166  LYS551  ARG553  GLY616  TRP617  ASP618  TYR619  PRO620  LYS621  CYS622 
 ASP623  PHE694  ASN695  SER759  ASP760  ASP761  ALA762  ILE779  LEU786  VAL792 
 PHE793  MET794  SER795  GLU796  ALA797  LYS798  CYS799  TRP800  GLU811  SER814 

> <Gold.Protein.RotatedAtoms>
  151.4246  135.1002  159.9623 H   0  0  0  0  0  0  0  0  0  0  0  0  # atno 6907 bound_to 6896
  152.4977  133.8675  159.7292 H   0  0  0  0  0  0  0  0  0  0  0  0  # atno 6908 bound_to 6896
  150.9199  133.6836  159.2862 H   0  0  0  0  0  0  0  0  0  0  0  0  # atno 6909 bound_to 6896
  146.0619  140.6336  142.8993 H   0  0  0  0  0  0  0  0  0  0  0  0  # atno 7974 bound_to 7965
  154.6187  140.0619  156.9587 H   0  0  0  0  0  0  0  0  0  0  0  0  # atno 8008 bound_to 7997
  155.1853  140.3302  155.4349 H   0  0  0  0  0  0  0  0  0  0  0  0  # atno 8009 bound_to 7997
  156.2419  140.1890  156.6947 H   0  0  0  0  0  0  0  0  0  0  0  0  # atno 8010 bound_to 7997
  139.7847  143.8051  152.2643 H   0  0  0  0  0  0  0  0  0  0  0  0  # atno 10167 bound_to 10162
  157.4112  131.1028  151.0452 H   0  0  0  0  0  0  0  0  0  0  0  0  # atno 10718 bound_to 10713
  154.4423  135.2762  155.1839 H   0  0  0  0  0  0  0  0  0  0  0  0  # atno 10763 bound_to 10752
  154.3700  135.6110  153.5739 H   0  0  0  0  0  0  0  0  0  0  0  0  # atno 10764 bound_to 10752
  152.9841  135.5855  154.4753 H   0  0  0  0  0  0  0  0  0  0  0  0  # atno 10765 bound_to 10752
  141.1597  133.7585  156.9487 H   0  0  0  0  0  0  0  0  0  0  0  0  # atno 11005 bound_to 11000
  144.7180  140.4276  143.7030 LP  0  0  0  0  0  0  0  0  0  0  0  0  # atno 17320 bound_to 7965
  145.6544  139.1570  143.2843 LP  0  0  0  0  0  0  0  0  0  0  0  0  # atno 17321 bound_to 7965
  139.8124  144.7330  150.9680 LP  0  0  0  0  0  0  0  0  0  0  0  0  # atno 17342 bound_to 10162
  140.7819  143.4238  151.0800 LP  0  0  0  0  0  0  0  0  0  0  0  0  # atno 17343 bound_to 10162
  157.1415  130.6145  149.5556 LP  0  0  0  0  0  0  0  0  0  0  0  0  # atno 17370 bound_to 10713
  155.9851  130.4879  150.7016 LP  0  0  0  0  0  0  0  0  0  0  0  0  # atno 17371 bound_to 10713
  140.1272  134.9379  157.2286 LP  0  0  0  0  0  0  0  0  0  0  0  0  # atno 17394 bound_to 11000
  140.2998  134.3144  155.7293 LP  0  0  0  0  0  0  0  0  0  0  0  0  # atno 17395 bound_to 11000

$$$$
