AV-unprocessed.smi:105|AV-procd|sdf|1009|dock7
  -GOLD-   2262018 03D 1   1.00000     0.00000
 Structure written by MMmdl.
 42 45  0  0  0  0  0  0  0  0  1 V2000
  152.3810  143.9980  159.9916 C   0  0  0  0  0  0  0  0  0  0  0  0
  151.5744  144.5035  158.9537 C   0  0  0  0  0  0  0  0  0  0  0  0
  150.9778  143.6220  158.0312 C   0  0  0  0  0  0  0  0  0  0  0  0
  151.1874  142.2314  158.1408 C   0  0  0  0  0  0  0  0  0  0  0  0
  150.5351  141.2848  157.1454 C   0  0  0  0  0  0  0  0  0  0  0  0
  151.0779  141.3420  155.7920 N   0  0  0  0  0  0  0  0  0  0  0  0
  151.5292  140.2226  155.1842 C   0  0  0  0  0  0  0  0  0  0  0  0
  152.7032  140.2204  154.4997 N   0  0  0  0  0  0  0  0  0  0  0  0
  153.1240  139.1039  153.8973 C   0  0  0  0  0  0  0  0  0  0  0  0
  152.5352  137.9067  153.8520 N   0  0  0  0  0  0  0  0  0  0  0  0
  151.3556  137.9065  154.5381 C   0  0  0  0  0  0  0  0  0  0  0  0
  150.7857  139.0148  155.2257 C   0  0  0  0  0  0  0  0  0  0  0  0
  149.5780  138.6487  155.8049 N   0  0  0  0  0  0  0  0  0  0  0  0
  149.4380  137.3935  155.4747 C   0  0  0  0  0  0  0  0  0  0  0  0
  150.4602  136.8639  154.7182 N   0  0  0  0  0  0  0  0  0  0  0  0
  150.5397  135.5043  154.2101 C   0  0  2  0  0  0  0  0  0  0  0  0
  149.1577  134.8213  154.1480 C   0  0  0  0  0  0  0  0  0  0  0  0
  149.3477  133.3972  153.6122 C   0  0  0  0  0  0  0  0  0  0  0  0
  150.3506  132.6507  154.4978 C   0  0  0  0  0  0  0  0  0  0  0  0
  151.6548  133.4584  154.6035 C   0  0  0  0  0  0  0  0  0  0  0  0
  151.3727  134.7771  155.0651 O   0  0  0  0  0  0  0  0  0  0  0  0
  151.9937  141.7284  159.1849 C   0  0  0  0  0  0  0  0  0  0  0  0
  152.5901  142.6101  160.1072 C   0  0  0  0  0  0  0  0  0  0  0  0
  152.8381  144.6738  160.6990 H   0  0  0  0  0  0  0  0  0  0  0  0
  151.4131  145.5677  158.8652 H   0  0  0  0  0  0  0  0  0  0  0  0
  150.3611  144.0177  157.2373 H   0  0  0  0  0  0  0  0  0  0  0  0
  150.6619  140.2674  157.5155 H   0  0  0  0  0  0  0  0  0  0  0  0
  149.4595  141.4635  157.1114 H   0  0  0  0  0  0  0  0  0  0  0  0
  150.9390  142.2128  155.2997 H   0  0  0  0  0  0  0  0  0  0  0  0
  154.0663  139.1818  153.3754 H   0  0  0  0  0  0  0  0  0  0  0  0
  148.5762  136.8164  155.7777 H   0  0  0  0  0  0  0  0  0  0  0  0
  150.9998  135.5478  153.2209 H   0  0  0  0  0  0  0  0  0  0  0  0
  148.7111  134.8014  155.1425 H   0  0  0  0  0  0  0  0  0  0  0  0
  148.5001  135.3982  153.4972 H   0  0  0  0  0  0  0  0  0  0  0  0
  148.3936  132.8698  153.5944 H   0  0  0  0  0  0  0  0  0  0  0  0
  149.7085  133.4294  152.5834 H   0  0  0  0  0  0  0  0  0  0  0  0
  149.9278  132.5070  155.4929 H   0  0  0  0  0  0  0  0  0  0  0  0
  150.5507  131.6579  154.0939 H   0  0  0  0  0  0  0  0  0  0  0  0
  152.3381  132.9779  155.3039 H   0  0  0  0  0  0  0  0  0  0  0  0
  152.1654  133.5010  153.6402 H   0  0  0  0  0  0  0  0  0  0  0  0
  152.1579  140.6651  159.2816 H   0  0  0  0  0  0  0  0  0  0  0  0
  153.2072  142.2215  160.9037 H   0  0  0  0  0  0  0  0  0  0  0  0
  1 23  1  0  0  0  0
  1  2  2  0  0  0  0
  1 24  1  0  0  0  0
  2  3  1  0  0  0  0
  2 25  1  0  0  0  0
  3  4  2  0  0  0  0
  3 26  1  0  0  0  0
  4  5  1  0  0  0  0
  4 22  1  0  0  0  0
  5  6  1  0  0  0  0
  5 27  1  0  0  0  0
  5 28  1  0  0  0  0
  6  7  1  0  0  0  0
  6 29  1  0  0  0  0
  7 12  1  0  0  0  0
  7  8  2  0  0  0  0
  8  9  1  0  0  0  0
  9 10  2  0  0  0  0
  9 30  1  0  0  0  0
 10 11  1  0  0  0  0
 11 15  1  0  0  0  0
 11 12  2  0  0  0  0
 12 13  1  0  0  0  0
 13 14  2  0  0  0  0
 14 15  1  0  0  0  0
 14 31  1  0  0  0  0
 15 16  1  0  0  0  0
 16 21  1  0  0  0  0
 16 17  1  0  0  0  0
 16 32  1  0  0  0  0
 17 18  1  0  0  0  0
 17 33  1  0  0  0  0
 17 34  1  0  0  0  0
 18 19  1  0  0  0  0
 18 35  1  0  0  0  0
 18 36  1  0  0  0  0
 19 20  1  0  0  0  0
 19 37  1  0  0  0  0
 19 38  1  0  0  0  0
 20 21  1  0  0  0  0
 20 39  1  0  0  0  0
 20 40  1  0  0  0  0
 22 23  2  0  0  0  0
 22 41  1  0  0  0  0
 23 42  1  0  0  0  0
M  END
> <s_m_source_file>
AV-unprocessed.smi

> <i_m_source_file_index>
105

> <i_lp_mmshare_version>
43012

> <i_f3d_flags>
0

> <s_epik_input>
W2NIXTFbY0hdW2NIXVtjSF1bY0hdYzFbQ0gyXVtOSF1jKG5bY0hdbjIpYyhjMjMpbltjSF1uM1tDQEBIXTRbQ0gyXVtDSDJdW0NIMl1bQ0gyXU80

> <s_epik_cmdline>
J2VwaWtfcHl0aG9uJywgJy1waCcsICc3LjAnLCAnLXRuJywgJzgnLCAnLW1hJywgJzIwMCcsICctbWV0YWxfYmluZGluZycsICctaW1hZScsICc8aW5maWxlLm1hZT4nLCAnLW9tYWUnLCAnPG91dGZpbGUubWFlPic=

> <r_lp_tautomer_probability>
1

> <r_epik_Ionization_Penalty>
0.000653933

> <r_epik_Ionization_Penalty_Charging>
0

> <r_epik_Ionization_Penalty_Neutral>
0.000653933

> <r_epik_State_Penalty>
-0

> <r_epik_Charging_Adjusted_Penalty>
0

> <i_epik_Tot_Q>
0

> <i_epik_Tot_abs_Q>
0

> <r_epik_Metal_State_Penalty>
-0

> <b_epik_Metal_Only>
0

> <s_epik_Chemistry_Notes>
This compound contains an acetal/aminal-like group ( X-CH(R)-Y where X, Y are N, S, or O) that may be acid/base labile, releasing an aldehyde.

> <s_lp_Force_Field>
OPLS_2005

> <r_lp_Energy>
24.2362

> <b_lp_Chiralities_Consistent>
1

> <s_lp_Variant>
AV-unprocessed.smi:105-1

> <Gold.Version>
5.8.1

> <Gold.Id.Protein>
6NUR|6NUR_protein|mol2

> <Gold.PLP.Fitness>
47.0457

> <Gold.PLP.PLP>
-44.0913

> <Gold.PLP.part.hbond>
-3.0000

> <Gold.PLP.part.metal>
0.0000

> <Gold.PLP.part.buried>
-3.8323

> <Gold.PLP.part.nonpolar>
-38.0575

> <Gold.PLP.part.repulsive>
0.3327

> <Gold.PLP.ligand.clash>
0.0000

> <Gold.PLP.ligand.torsion>
1.0870

> <Gold.PLP.Chemscore.Hbond>
1.7040

> <Gold.PLP.Chemscore.CHOScore>
0.0000

> <Gold.PLP.Chemscore.Metal>
0.0000

> <Gold.Chemscore.Hbonds>
donor molecule, donor type, donor heavy atom, donor atom, acceptor molecule, acceptor atom, score
      P1  H  7997  8010       L1     8  0.29
      P1  H 10752 10763       L1    21  0.28

> <Gold.PLP.Chemscore.Internal.Correction>
0.0165

> <Gold.Rescore>
     Score         DG    S(hbond)    S(metal)    S(lipo)     H(rot)  DE(clash)    DE(int)     intcor
     15.56     -17.29       1.53        0.00      91.18       1.55       0.09       1.65       ----

> <Gold.Chemscore.Fitness>
15.5559

> <Gold.Chemscore.DG>
-17.2949

> <Gold.Chemscore.ZeroCoef>
-5.4800

> <Gold.Chemscore.Hbond>
1.5348

> <Gold.Chemscore.Metal>
0.0000

> <Gold.Chemscore.Lipo>
91.1850

> <Gold.Chemscore.Internal_Hbond>
0.0000

> <Gold.Chemscore.DEClash>
0.0859

> <Gold.Chemscore.DEInternal>
1.6531

> <Gold.Chemscore.Rot>
1.5547

> <Gold.Chemscore.Internal.Correction>
   9.000000E+99

> <Gold.Chemscore.Hbonds>
donor molecule, donor type, donor heavy atom, donor atom, acceptor molecule, acceptor atom, score
      P1  H  7997  8010       L1     8  0.02
      P1  H 10752 10763       L1    10  0.01

> <Gold.Chemscore.Hbond.Weighted>
-5.1263

> <Gold.Chemscore.Metal.Weighted>
-0.0000

> <Gold.Chemscore.Lipo.Weighted>
-10.6686

> <Gold.Chemscore.Internal_Hbond.Weighted>
0.0000

> <Gold.Chemscore.DEClash.Weighted>
0.0859

> <Gold.Chemscore.DEInternal.Weighted>
1.6531

> <Gold.Chemscore.Rot.Weighted>
3.9800

> <Gold.Chemscore.Internal.Correction.Weighted>
   9.000000E+99

> <Gold.Protein.RotatedTorsions>
[ 6907 6896 6895 6894 ] final  -64.14 input  -60.11 | X-H torsion
[ 7974 7965 7964 7962 ] final -163.37 input  175.53 | X-H torsion
[ 8008 7997 7996 7995 ] final  102.11 input   59.86 | X-H torsion
[ 10167 10162 10161 10158 ] final  -29.30 input  -65.29 | X-H torsion
[ 10718 10713 10712 10709 ] final  -94.51 input   66.30 | X-H torsion
[ 10763 10752 10751 10750 ] final   47.94 input  -60.55 | X-H torsion
[ 11005 11000 10999 10996 ] final -142.03 input  -57.11 | X-H torsion

> <Gold.Protein.ActiveResidues>
 VAL166  LYS551  ARG553  GLY616  TRP617  ASP618  TYR619  PRO620  LYS621  CYS622 
 ASP623  PHE694  ASN695  SER759  ASP760  ASP761  ALA762  ILE779  LEU786  VAL792 
 PHE793  MET794  SER795  GLU796  ALA797  LYS798  CYS799  TRP800  GLU811  SER814 

> <Gold.Protein.RotatedAtoms>
  150.7604  134.6339  159.6200 H   0  0  0  0  0  0  0  0  0  0  0  0  # atno 6907 bound_to 6896
  152.3608  134.6871  160.0216 H   0  0  0  0  0  0  0  0  0  0  0  0  # atno 6908 bound_to 6896
  151.7262  133.3280  159.3364 H   0  0  0  0  0  0  0  0  0  0  0  0  # atno 6909 bound_to 6896
  144.7328  140.3117  143.6187 H   0  0  0  0  0  0  0  0  0  0  0  0  # atno 7974 bound_to 7965
  156.1363  140.3186  155.8425 H   0  0  0  0  0  0  0  0  0  0  0  0  # atno 8008 bound_to 7997
  155.4239  140.0514  157.3041 H   0  0  0  0  0  0  0  0  0  0  0  0  # atno 8009 bound_to 7997
  154.4939  140.2103  155.9501 H   0  0  0  0  0  0  0  0  0  0  0  0  # atno 8010 bound_to 7997
  140.7262  143.3940  151.1380 H   0  0  0  0  0  0  0  0  0  0  0  0  # atno 10167 bound_to 10162
  156.0028  130.5071  150.5938 H   0  0  0  0  0  0  0  0  0  0  0  0  # atno 10718 bound_to 10713
  152.9795  135.5960  154.3845 H   0  0  0  0  0  0  0  0  0  0  0  0  # atno 10763 bound_to 10752
  154.3506  135.2767  155.2376 H   0  0  0  0  0  0  0  0  0  0  0  0  # atno 10764 bound_to 10752
  154.4416  135.6011  153.6188 H   0  0  0  0  0  0  0  0  0  0  0  0  # atno 10765 bound_to 10752
  140.8266  134.2568  157.4876 H   0  0  0  0  0  0  0  0  0  0  0  0  # atno 11005 bound_to 11000
  145.7658  139.1840  143.2241 LP  0  0  0  0  0  0  0  0  0  0  0  0  # atno 17320 bound_to 7965
  146.0950  140.7611  142.9577 LP  0  0  0  0  0  0  0  0  0  0  0  0  # atno 17321 bound_to 7965
  139.7549  143.8722  152.3086 LP  0  0  0  0  0  0  0  0  0  0  0  0  # atno 17342 bound_to 10162
  139.8589  144.7127  150.9124 LP  0  0  0  0  0  0  0  0  0  0  0  0  # atno 17343 bound_to 10162
  157.3798  131.0779  151.1486 LP  0  0  0  0  0  0  0  0  0  0  0  0  # atno 17370 bound_to 10713
  157.2212  130.6482  149.5812 LP  0  0  0  0  0  0  0  0  0  0  0  0  # atno 17371 bound_to 10713
  139.8706  134.9563  156.4235 LP  0  0  0  0  0  0  0  0  0  0  0  0  # atno 17394 bound_to 11000
  140.9043  133.7757  155.9717 LP  0  0  0  0  0  0  0  0  0  0  0  0  # atno 17395 bound_to 11000

$$$$
