AV-unprocessed.smi:2093|AV-procd|sdf|8549|dock8
  -GOLD-   2272011273D 1   1.00000     0.00000
 Structure written by MMmdl.
 30 31  0  0  0  0  0  0  0  0  2 V2000
  153.3700  141.6629  160.4292 C   0  0  0  0  0  0  0  0  0  0  0  0
  152.8097  141.9672  159.0319 C   0  0  1  0  0  0  0  0  0  0  0  0
  152.0190  140.8201  158.5856 N   0  0  0  0  0  0  0  0  0  0  0  0
  152.4865  139.6310  158.1772 C   0  0  0  0  0  0  0  0  0  0  0  0
  153.7010  139.4191  158.1505 O   0  0  0  0  0  0  0  0  0  0  0  0
  151.5149  138.7621  157.8163 N   0  5  0  0  0  0  0  0  0  0  0  0
  151.4039  138.3725  156.5359 C   0  0  0  0  0  0  0  0  0  0  0  0
  150.3367  137.7201  156.0605 N   0  0  0  0  0  0  0  0  0  0  0  0
  150.4317  137.4164  154.7012 C   0  0  0  0  0  0  0  0  0  0  0  0
  151.5937  137.8572  154.1255 C   0  0  0  0  0  0  0  0  0  0  0  0
  152.6099  138.6709  155.2809 S   0  0  0  0  0  0  0  0  0  0  0  0
  151.9531  143.2508  159.0282 C   0  0  2  0  0  0  0  0  0  0  0  0
  152.7397  144.5598  159.0823 C   0  0  0  0  0  0  0  0  0  0  0  0
  151.6917  145.5430  159.5599 C   0  0  0  0  0  0  0  0  0  0  0  0
  150.7657  144.6815  160.4219 C   0  0  0  0  0  0  0  0  0  0  0  0
  151.1569  143.3288  160.2032 O   0  0  0  0  0  0  0  0  0  0  0  0
  153.9996  142.4775  160.7880 H   0  0  0  0  0  0  0  0  0  0  0  0
  153.9799  140.7591  160.4186 H   0  0  0  0  0  0  0  0  0  0  0  0
  152.5694  141.5163  161.1550 H   0  0  0  0  0  0  0  0  0  0  0  0
  153.6605  142.1129  158.3642 H   0  0  0  0  0  0  0  0  0  0  0  0
  151.0166  140.9383  158.5858 H   0  0  0  0  0  0  0  0  0  0  0  0
  149.6230  136.8838  154.2235 H   0  0  0  0  0  0  0  0  0  0  0  0
  151.9123  137.7548  153.0994 H   0  0  0  0  0  0  0  0  0  0  0  0
  151.2903  143.2604  158.1606 H   0  0  0  0  0  0  0  0  0  0  0  0
  153.5443  144.4893  159.8156 H   0  0  0  0  0  0  0  0  0  0  0  0
  153.1760  144.8378  158.1224 H   0  0  0  0  0  0  0  0  0  0  0  0
  152.1231  146.3809  160.1086 H   0  0  0  0  0  0  0  0  0  0  0  0
  151.1416  145.9437  158.7077 H   0  0  0  0  0  0  0  0  0  0  0  0
  150.8638  144.9191  161.4815 H   0  0  0  0  0  0  0  0  0  0  0  0
  149.7226  144.8241  160.1382 H   0  0  0  0  0  0  0  0  0  0  0  0
  1  2  1  0  0  0  0
  1 17  1  0  0  0  0
  1 18  1  0  0  0  0
  1 19  1  0  0  0  0
  2  3  1  0  0  0  0
  2 12  1  0  0  0  0
  2 20  1  0  0  0  0
  3  4  1  0  0  0  0
  3 21  1  0  0  0  0
  4  5  2  0  0  0  0
  4  6  1  0  0  0  0
  6  7  1  0  0  0  0
  7 11  1  0  0  0  0
  7  8  2  0  0  0  0
  8  9  1  0  0  0  0
  9 10  2  0  0  0  0
  9 22  1  0  0  0  0
 10 11  1  0  0  0  0
 10 23  1  0  0  0  0
 12 16  1  0  0  0  0
 12 13  1  0  0  0  0
 12 24  1  0  0  0  0
 13 14  1  0  0  0  0
 13 25  1  0  0  0  0
 13 26  1  0  0  0  0
 14 15  1  0  0  0  0
 14 27  1  0  0  0  0
 14 28  1  0  0  0  0
 15 16  1  0  0  0  0
 15 29  1  0  0  0  0
 15 30  1  0  0  0  0
M  CHG  1   6  -1
M  END
> <s_m_source_file>
AV-unprocessed.smi

> <i_m_source_file_index>
2093

> <i_lp_mmshare_version>
43012

> <i_f3d_flags>
0

> <s_epik_input>
TzFbQ0gyXVtDSDJdW0NIMl1bQ0BIXTFbQ0BIXShbQ0gzXSlbTkhdQyg9TylbTkhdYzJuW2NIXVtjSF1zMg==

> <s_epik_cmdline>
J2VwaWtfcHl0aG9uJywgJy1waCcsICc3LjAnLCAnLXRuJywgJzgnLCAnLW1hJywgJzIwMCcsICctbWV0YWxfYmluZGluZycsICctaW1hZScsICc8aW5maWxlLm1hZT4nLCAnLW9tYWUnLCAnPG91dGZpbGUubWFlPic=

> <r_lp_tautomer_probability>
0.999

> <r_epik_Ionization_Penalty>
8.26346

> <r_epik_Ionization_Penalty_Charging>
6.6559

> <r_epik_Ionization_Penalty_Neutral>
1.60756

> <r_epik_State_Penalty>
6.65607

> <r_epik_Charging_Adjusted_Penalty>
13.312

> <i_epik_Tot_Q>
-1

> <i_epik_Tot_abs_Q>
1

> <r_epik_Metal_State_Penalty>
2.5789

> <b_epik_Metal_Only>
1

> <s_lp_Force_Field>
OPLS_2005

> <r_lp_Energy>
13.6903

> <b_lp_Chiralities_Consistent>
1

> <s_lp_Variant>
AV-unprocessed.smi:2093-6

> <Gold.Version>
5.8.1

> <Gold.Id.Protein>
6NUR|6NUR_protein|mol2

> <Gold.PLP.Fitness>
39.7135

> <Gold.PLP.PLP>
-33.1586

> <Gold.PLP.part.hbond>
-1.7955

> <Gold.PLP.part.metal>
0.0000

> <Gold.PLP.part.buried>
-3.8434

> <Gold.PLP.part.nonpolar>
-27.6932

> <Gold.PLP.part.repulsive>
0.1913

> <Gold.PLP.ligand.clash>
0.0000

> <Gold.PLP.ligand.torsion>
1.1706

> <Gold.PLP.Chemscore.Hbond>
1.0000

> <Gold.PLP.Chemscore.CHOScore>
1.9562

> <Gold.PLP.Chemscore.Metal>
0.0000

> <Gold.Chemscore.Hbonds>
donor molecule, donor type, donor heavy atom, donor atom, acceptor molecule, acceptor atom, score
      P1  H  7997  8010       L1     5  1.00
      L1  C     9    22       P1  7948  1.00
      L1  C    10    23       P1  7949  0.94

> <Gold.PLP.Chemscore.Internal.Correction>
0.0274

> <Gold.Rescore>
     Score         DG    S(hbond)    S(metal)    S(lipo)     H(rot)  DE(clash)    DE(int)     intcor
     15.17     -16.11       0.99        0.00      90.49       1.28       0.03       0.91       ----

> <Gold.Chemscore.Fitness>
15.1685

> <Gold.Chemscore.DG>
-16.1097

> <Gold.Chemscore.ZeroCoef>
-5.4800

> <Gold.Chemscore.Hbond>
0.9922

> <Gold.Chemscore.Metal>
0.0000

> <Gold.Chemscore.Lipo>
90.4861

> <Gold.Chemscore.Internal_Hbond>
0.0000

> <Gold.Chemscore.DEClash>
0.0263

> <Gold.Chemscore.DEInternal>
0.9148

> <Gold.Chemscore.Rot>
1.2778

> <Gold.Chemscore.Internal.Correction>
   9.000000E+99

> <Gold.Chemscore.Hbonds>
donor molecule, donor type, donor heavy atom, donor atom, acceptor molecule, acceptor atom, score
      P1  H  7997  8010       L1     5  0.96

> <Gold.Chemscore.Hbond.Weighted>
-3.3139

> <Gold.Chemscore.Metal.Weighted>
-0.0000

> <Gold.Chemscore.Lipo.Weighted>
-10.5869

> <Gold.Chemscore.Internal_Hbond.Weighted>
0.0000

> <Gold.Chemscore.DEClash.Weighted>
0.0263

> <Gold.Chemscore.DEInternal.Weighted>
0.9148

> <Gold.Chemscore.Rot.Weighted>
3.2711

> <Gold.Chemscore.Internal.Correction.Weighted>
   9.000000E+99

> <Gold.Protein.RotatedTorsions>
[ 6907 6896 6895 6894 ] final   15.91 input  -60.11 | X-H torsion
[ 7974 7965 7964 7962 ] final    4.09 input  175.53 | X-H torsion
[ 8008 7997 7996 7995 ] final    9.57 input   59.86 | X-H torsion
[ 10167 10162 10161 10158 ] final  119.46 input  -65.29 | X-H torsion
[ 10718 10713 10712 10709 ] final  135.02 input   66.30 | X-H torsion
[ 10763 10752 10751 10750 ] final   42.72 input  -60.55 | X-H torsion
[ 11005 11000 10999 10996 ] final -129.67 input  -57.11 | X-H torsion

> <Gold.Protein.ActiveResidues>
 VAL166  LYS551  ARG553  GLY616  TRP617  ASP618  TYR619  PRO620  LYS621  CYS622 
 ASP623  PHE694  ASN695  SER759  ASP760  ASP761  ALA762  ILE779  LEU786  VAL792 
 PHE793  MET794  SER795  GLU796  ALA797  LYS798  CYS799  TRP800  GLU811  SER814 

> <Gold.Protein.RotatedAtoms>
  151.8255  135.0638  160.0430 H   0  0  0  0  0  0  0  0  0  0  0  0  # atno 6907 bound_to 6896
  152.2919  133.5565  159.5571 H   0  0  0  0  0  0  0  0  0  0  0  0  # atno 6908 bound_to 6896
  150.7234  134.0332  159.3782 H   0  0  0  0  0  0  0  0  0  0  0  0  # atno 6909 bound_to 6896
  146.2444  140.0586  142.8370 H   0  0  0  0  0  0  0  0  0  0  0  0  # atno 7974 bound_to 7965
  154.7818  140.2820  155.6058 H   0  0  0  0  0  0  0  0  0  0  0  0  # atno 8008 bound_to 7997
  156.2951  140.2621  156.2573 H   0  0  0  0  0  0  0  0  0  0  0  0  # atno 8009 bound_to 7997
  154.9775  140.0375  157.2252 H   0  0  0  0  0  0  0  0  0  0  0  0  # atno 8010 bound_to 7997
  139.6044  144.7066  151.2987 H   0  0  0  0  0  0  0  0  0  0  0  0  # atno 10167 bound_to 10162
  157.4613  131.1073  150.9916 H   0  0  0  0  0  0  0  0  0  0  0  0  # atno 10718 bound_to 10713
  152.9876  135.6123  154.2995 H   0  0  0  0  0  0  0  0  0  0  0  0  # atno 10763 bound_to 10752
  154.2716  135.2779  155.2737 H   0  0  0  0  0  0  0  0  0  0  0  0  # atno 10764 bound_to 10752
  154.5117  135.5839  153.6667 H   0  0  0  0  0  0  0  0  0  0  0  0  # atno 10765 bound_to 10752
  140.9412  134.1191  157.4149 H   0  0  0  0  0  0  0  0  0  0  0  0  # atno 11005 bound_to 11000
  145.0920  140.9290  143.4763 LP  0  0  0  0  0  0  0  0  0  0  0  0  # atno 17320 bound_to 7965
  145.0761  139.2995  143.5807 LP  0  0  0  0  0  0  0  0  0  0  0  0  # atno 17321 bound_to 7965
  140.7274  143.6964  150.7880 LP  0  0  0  0  0  0  0  0  0  0  0  0  # atno 17342 bound_to 10162
  140.0547  143.5215  152.2657 LP  0  0  0  0  0  0  0  0  0  0  0  0  # atno 17343 bound_to 10162
  157.0713  130.5865  149.5403 LP  0  0  0  0  0  0  0  0  0  0  0  0  # atno 17370 bound_to 10713
  156.0030  130.5112  150.7731 LP  0  0  0  0  0  0  0  0  0  0  0  0  # atno 17371 bound_to 10713
  139.8821  135.0037  156.6203 LP  0  0  0  0  0  0  0  0  0  0  0  0  # atno 17394 bound_to 11000
  140.7731  133.8721  155.8508 LP  0  0  0  0  0  0  0  0  0  0  0  0  # atno 17395 bound_to 11000

$$$$
