AV-unprocessed.smi:3232|AV-procd|sdf|12346|dock2
  -GOLD-   2272018213D 1   1.00000     0.00000
 Structure written by MMmdl.
 40 41  0  0  0  0  0  0  0  0  2 V2000
  145.5344  132.8737  151.4655 C   0  0  0  0  0  0  0  0  0  0  0  0
  146.8233  133.6393  151.7932 C   0  0  0  0  0  0  0  0  0  0  0  0
  146.5561  135.0456  152.1794 N   0  3  1  0  0  0  0  0  0  0  0  0
  145.7061  135.7974  151.2316 C   0  0  0  0  0  0  0  0  0  0  0  0
  145.0932  136.9216  152.0563 C   0  0  0  0  0  0  0  0  0  0  0  0
  144.8519  136.2554  153.4052 C   0  0  0  0  0  0  0  0  0  0  0  0
  145.9758  135.2083  153.5370 C   0  0  2  0  0  0  0  0  0  0  0  0
  147.0782  135.6057  154.5411 C   0  0  0  0  0  0  0  0  0  0  0  0
  147.9071  136.7041  154.0568 N   0  0  0  0  0  0  0  0  0  0  0  0
  148.3087  137.7518  154.7929 C   0  0  0  0  0  0  0  0  0  0  0  0
  148.0105  137.8922  155.9796 O   0  0  0  0  0  0  0  0  0  0  0  0
  149.1798  138.7916  154.0728 C   0  0  1  0  0  0  0  0  0  0  0  0
  148.6963  140.2348  154.3056 C   0  0  0  0  0  0  0  0  0  0  0  0
  150.5737  138.6335  154.4618 N   0  0  0  0  0  0  0  0  0  0  0  0
  151.3917  137.5800  154.3835 C   0  0  0  0  0  0  0  0  0  0  0  0
  152.6177  137.8181  154.8274 N   0  0  0  0  0  0  0  0  0  0  0  0
  152.4791  139.1283  155.1881 C   0  0  0  0  0  0  0  0  0  0  0  0
  151.2763  139.6662  154.9860 N   0  0  0  0  0  0  0  0  0  0  0  0
  145.7619  131.8591  151.1381 H   0  0  0  0  0  0  0  0  0  0  0  0
  144.9780  133.3624  150.6653 H   0  0  0  0  0  0  0  0  0  0  0  0
  144.8791  132.7970  152.3331 H   0  0  0  0  0  0  0  0  0  0  0  0
  147.3769  133.1324  152.5848 H   0  0  0  0  0  0  0  0  0  0  0  0
  147.4645  133.6343  150.9107 H   0  0  0  0  0  0  0  0  0  0  0  0
  146.2787  136.1711  150.3821 H   0  0  0  0  0  0  0  0  0  0  0  0
  144.9138  135.1516  150.8492 H   0  0  0  0  0  0  0  0  0  0  0  0
  145.8099  137.7368  152.1668 H   0  0  0  0  0  0  0  0  0  0  0  0
  144.1834  137.3276  151.6131 H   0  0  0  0  0  0  0  0  0  0  0  0
  144.8227  136.9779  154.2213 H   0  0  0  0  0  0  0  0  0  0  0  0
  143.8859  135.7487  153.3888 H   0  0  0  0  0  0  0  0  0  0  0  0
  145.5241  134.2661  153.8535 H   0  0  0  0  0  0  0  0  0  0  0  0
  146.6374  135.8813  155.5008 H   0  0  0  0  0  0  0  0  0  0  0  0
  147.7300  134.7533  154.7364 H   0  0  0  0  0  0  0  0  0  0  0  0
  148.2045  136.6627  153.0923 H   0  0  0  0  0  0  0  0  0  0  0  0
  149.1045  138.5949  153.0013 H   0  0  0  0  0  0  0  0  0  0  0  0
  147.6513  140.3528  154.0165 H   0  0  0  0  0  0  0  0  0  0  0  0
  149.2802  140.9386  153.7117 H   0  0  0  0  0  0  0  0  0  0  0  0
  148.7882  140.5315  155.3513 H   0  0  0  0  0  0  0  0  0  0  0  0
  151.0850  136.6212  153.9914 H   0  0  0  0  0  0  0  0  0  0  0  0
  153.2899  139.7039  155.6094 H   0  0  0  0  0  0  0  0  0  0  0  0
  147.4450  135.5247  152.2039 H   0  0  0  0  0  0  0  0  0  0  0  0
  1  2  1  0  0  0  0
  1 19  1  0  0  0  0
  1 20  1  0  0  0  0
  1 21  1  0  0  0  0
  2  3  1  0  0  0  0
  2 22  1  0  0  0  0
  2 23  1  0  0  0  0
  3  7  1  0  0  0  0
  3  4  1  0  0  0  0
  3 40  1  0  0  0  0
  4  5  1  0  0  0  0
  4 24  1  0  0  0  0
  4 25  1  0  0  0  0
  5  6  1  0  0  0  0
  5 26  1  0  0  0  0
  5 27  1  0  0  0  0
  6  7  1  0  0  0  0
  6 28  1  0  0  0  0
  6 29  1  0  0  0  0
  7  8  1  0  0  0  0
  7 30  1  0  0  0  0
  8  9  1  0  0  0  0
  8 31  1  0  0  0  0
  8 32  1  0  0  0  0
  9 10  1  0  0  0  0
  9 33  1  0  0  0  0
 10 11  2  0  0  0  0
 10 12  1  0  0  0  0
 12 13  1  0  0  0  0
 12 14  1  0  0  0  0
 12 34  1  0  0  0  0
 13 35  1  0  0  0  0
 13 36  1  0  0  0  0
 13 37  1  0  0  0  0
 14 18  1  0  0  0  0
 14 15  1  0  0  0  0
 15 16  2  0  0  0  0
 15 38  1  0  0  0  0
 16 17  1  0  0  0  0
 17 18  2  0  0  0  0
 17 39  1  0  0  0  0
M  CHG  1   3   1
M  END
> <s_m_source_file>
AV-unprocessed.smi

> <i_m_source_file_index>
3232

> <i_lp_mmshare_version>
43012

> <i_f3d_flags>
0

> <s_epik_input>
W0NIM11bQ0gyXU4xW0NIMl1bQ0gyXVtDSDJdW0NASF0xW0NIMl1bTkhdQyg9TylbQ0BIXShbQ0gzXSluMltjSF1uW2NIXW4y

> <s_epik_cmdline>
J2VwaWtfcHl0aG9uJywgJy1waCcsICc3LjAnLCAnLXRuJywgJzgnLCAnLW1hJywgJzIwMCcsICctbWV0YWxfYmluZGluZycsICctaW1hZScsICc8aW5maWxlLm1hZT4nLCAnLW9tYWUnLCAnPG91dGZpbGUubWFlPic=

> <r_lp_tautomer_probability>
1

> <r_epik_Ionization_Penalty>
0.00177695

> <r_epik_Ionization_Penalty_Charging>
0.00176881

> <r_epik_Ionization_Penalty_Neutral>
8.13528e-06

> <r_epik_State_Penalty>
0.00119827

> <r_epik_Charging_Adjusted_Penalty>
0.00296709

> <i_epik_Tot_Q>
1

> <i_epik_Tot_abs_Q>
1

> <r_epik_Metal_State_Penalty>
-0

> <b_epik_Metal_Only>
0

> <s_lp_Force_Field>
OPLS_2005

> <r_lp_Energy>
32.5075

> <b_lp_Chiralities_Consistent>
1

> <s_lp_Variant>
AV-unprocessed.smi:3232-8

> <Gold.Version>
5.8.1

> <Gold.Id.Protein>
6NUR|6NUR_protein|mol2

> <Gold.PLP.Fitness>
42.9446

> <Gold.PLP.PLP>
-28.8138

> <Gold.PLP.part.hbond>
-3.8549

> <Gold.PLP.part.metal>
0.0000

> <Gold.PLP.part.buried>
-2.8077

> <Gold.PLP.part.nonpolar>
-23.3814

> <Gold.PLP.part.repulsive>
0.1462

> <Gold.PLP.ligand.clash>
0.0000

> <Gold.PLP.ligand.torsion>
0.5959

> <Gold.PLP.Chemscore.Hbond>
4.1019

> <Gold.PLP.Chemscore.CHOScore>
0.9455

> <Gold.PLP.Chemscore.Metal>
0.0000

> <Gold.Chemscore.Hbonds>
donor molecule, donor type, donor heavy atom, donor atom, acceptor molecule, acceptor atom, score
      L1  H     3    40       P1  7948  2.00
      L1  H     9    33       P1  7948  0.93
      P1  H  7989  7998       L1    18  1.00
      P1  H 10752 10763       L1    16  0.07
      L1  C    15    38       P1  7949  0.78

> <Gold.PLP.Chemscore.Internal.Correction>
0.1804

> <Gold.Rescore>
     Score         DG    S(hbond)    S(metal)    S(lipo)     H(rot)  DE(clash)    DE(int)     intcor
     12.66     -13.51       2.89        0.00      40.62       2.49       0.08       0.77       ----

> <Gold.Chemscore.Fitness>
12.6560

> <Gold.Chemscore.DG>
-13.5089

> <Gold.Chemscore.ZeroCoef>
-5.4800

> <Gold.Chemscore.Hbond>
2.8879

> <Gold.Chemscore.Metal>
0.0000

> <Gold.Chemscore.Lipo>
40.6234

> <Gold.Chemscore.Internal_Hbond>
0.0000

> <Gold.Chemscore.DEClash>
0.0808

> <Gold.Chemscore.DEInternal>
0.7721

> <Gold.Chemscore.Rot>
2.4882

> <Gold.Chemscore.Internal.Correction>
   9.000000E+99

> <Gold.Chemscore.Hbonds>
donor molecule, donor type, donor heavy atom, donor atom, acceptor molecule, acceptor atom, score
      L1  H     3    40       P1  7948  1.00
      L1  H     9    33       P1  7948  0.88
      P1  H  7989  7998       L1    18  0.16

> <Gold.Chemscore.Hbond.Weighted>
-9.6457

> <Gold.Chemscore.Metal.Weighted>
-0.0000

> <Gold.Chemscore.Lipo.Weighted>
-4.7529

> <Gold.Chemscore.Internal_Hbond.Weighted>
0.0000

> <Gold.Chemscore.DEClash.Weighted>
0.0808

> <Gold.Chemscore.DEInternal.Weighted>
0.7721

> <Gold.Chemscore.Rot.Weighted>
6.3697

> <Gold.Chemscore.Internal.Correction.Weighted>
   9.000000E+99

> <Gold.Protein.RotatedTorsions>
[ 6907 6896 6895 6894 ] final -128.12 input  -60.11 | X-H torsion
[ 7974 7965 7964 7962 ] final -115.80 input  175.53 | X-H torsion
[ 8008 7997 7996 7995 ] final  146.40 input   59.86 | X-H torsion
[ 10167 10162 10161 10158 ] final   30.45 input  -65.29 | X-H torsion
[ 10718 10713 10712 10709 ] final -169.66 input   66.30 | X-H torsion
[ 10763 10752 10751 10750 ] final   57.10 input  -60.55 | X-H torsion
[ 11005 11000 10999 10996 ] final  -75.20 input  -57.11 | X-H torsion

> <Gold.Protein.ActiveResidues>
 VAL166  LYS551  ARG553  GLY616  TRP617  ASP618  TYR619  PRO620  LYS621  CYS622 
 ASP623  PHE694  ASN695  SER759  ASP760  ASP761  ALA762  ILE779  LEU786  VAL792 
 PHE793  MET794  SER795  GLU796  ALA797  LYS798  CYS799  TRP800  GLU811  SER814 

> <Gold.Protein.RotatedAtoms>
  150.9145  133.6957  159.2846 H   0  0  0  0  0  0  0  0  0  0  0  0  # atno 6907 bound_to 6896
  151.4432  135.1021  159.9686 H   0  0  0  0  0  0  0  0  0  0  0  0  # atno 6908 bound_to 6896
  152.4947  133.8548  159.7275 H   0  0  0  0  0  0  0  0  0  0  0  0  # atno 6909 bound_to 6896
  145.1042  140.8571  143.3908 H   0  0  0  0  0  0  0  0  0  0  0  0  # atno 7974 bound_to 7965
  156.2856  140.2183  156.5371 H   0  0  0  0  0  0  0  0  0  0  0  0  # atno 8008 bound_to 7997
  154.7400  140.0488  157.0825 H   0  0  0  0  0  0  0  0  0  0  0  0  # atno 8009 bound_to 7997
  155.0242  140.3127  155.4785 H   0  0  0  0  0  0  0  0  0  0  0  0  # atno 8010 bound_to 7997
  140.4677  144.0811  150.6229 H   0  0  0  0  0  0  0  0  0  0  0  0  # atno 10167 bound_to 10162
  156.7148  130.9247  151.3092 H   0  0  0  0  0  0  0  0  0  0  0  0  # atno 10718 bound_to 10713
  152.9844  135.5653  154.5336 H   0  0  0  0  0  0  0  0  0  0  0  0  # atno 10763 bound_to 10752
  154.4803  135.2788  155.1577 H   0  0  0  0  0  0  0  0  0  0  0  0  # atno 10764 bound_to 10752
  154.3088  135.6292  153.5510 H   0  0  0  0  0  0  0  0  0  0  0  0  # atno 10765 bound_to 10752
  141.1643  133.6938  156.7480 H   0  0  0  0  0  0  0  0  0  0  0  0  # atno 11005 bound_to 11000
  145.0921  139.2882  143.5729 LP  0  0  0  0  0  0  0  0  0  0  0  0  # atno 17320 bound_to 7965
  146.3529  140.0461  142.8639 LP  0  0  0  0  0  0  0  0  0  0  0  0  # atno 17321 bound_to 7965
  140.4016  143.2701  151.9941 LP  0  0  0  0  0  0  0  0  0  0  0  0  # atno 17342 bound_to 10162
  139.4814  144.5992  151.7635 LP  0  0  0  0  0  0  0  0  0  0  0  0  # atno 17343 bound_to 10162
  157.6922  130.9245  150.0544 LP  0  0  0  0  0  0  0  0  0  0  0  0  # atno 17370 bound_to 10713
  156.1636  130.3644  149.9264 LP  0  0  0  0  0  0  0  0  0  0  0  0  # atno 17371 bound_to 10713
  140.2625  134.8456  157.3772 LP  0  0  0  0  0  0  0  0  0  0  0  0  # atno 17394 bound_to 11000
  140.1598  134.4743  155.7903 LP  0  0  0  0  0  0  0  0  0  0  0  0  # atno 17395 bound_to 11000

$$$$
