AV-unprocessed.smi:3268|AV-procd|sdf|12509|dock2
  -GOLD-   2272018413D 1   1.00000     0.00000
 Structure written by MMmdl.
 40 41  0  0  0  0  0  0  0  0  2 V2000
  150.1224  136.6073  155.8455 C   0  0  0  0  0  0  0  0  0  0  0  0
  150.3114  137.4380  154.5596 C   0  0  1  0  0  0  0  0  0  0  0  0
  149.2133  138.4981  154.3613 C   0  0  0  0  0  0  0  0  0  0  0  0
  149.0620  139.4111  155.1742 O   0  0  0  0  0  0  0  0  0  0  0  0
  148.4413  138.3626  153.2705 N   0  0  0  0  0  0  0  0  0  0  0  0
  147.3758  139.2799  152.8846 C   0  0  0  0  0  0  0  0  0  0  0  0
  146.4521  138.6602  151.8180 C   0  0  0  0  0  0  0  0  0  0  0  0
  146.2849  137.1948  151.9912 N   0  3  0  0  0  0  0  0  0  0  0  0
  145.5292  136.5816  150.8670 C   0  0  0  0  0  0  0  0  0  0  0  0
  145.4904  135.0489  150.9901 C   0  0  0  0  0  0  0  0  0  0  0  0
  144.9010  134.6199  152.3396 C   0  0  0  0  0  0  0  0  0  0  0  0
  145.6735  135.2891  153.4832 C   0  0  0  0  0  0  0  0  0  0  0  0
  145.7043  136.8170  153.3082 C   0  0  0  0  0  0  0  0  0  0  0  0
  151.6339  138.0498  154.5044 N   0  0  0  0  0  0  0  0  0  0  0  0
  152.0640  139.2124  154.9993 C   0  0  0  0  0  0  0  0  0  0  0  0
  153.3531  139.4418  154.7930 N   0  0  0  0  0  0  0  0  0  0  0  0
  153.6834  138.2998  154.1202 C   0  0  0  0  0  0  0  0  0  0  0  0
  152.6931  137.4284  153.9281 N   0  0  0  0  0  0  0  0  0  0  0  0
  149.1625  136.0899  155.8443 H   0  0  0  0  0  0  0  0  0  0  0  0
  150.1630  137.2276  156.7419 H   0  0  0  0  0  0  0  0  0  0  0  0
  150.9005  135.8488  155.9350 H   0  0  0  0  0  0  0  0  0  0  0  0
  150.2411  136.7494  153.7161 H   0  0  0  0  0  0  0  0  0  0  0  0
  148.6250  137.5858  152.6519 H   0  0  0  0  0  0  0  0  0  0  0  0
  146.8010  139.5750  153.7642 H   0  0  0  0  0  0  0  0  0  0  0  0
  147.8535  140.1837  152.5090 H   0  0  0  0  0  0  0  0  0  0  0  0
  145.4758  139.1475  151.8198 H   0  0  0  0  0  0  0  0  0  0  0  0
  146.8886  138.8494  150.8361 H   0  0  0  0  0  0  0  0  0  0  0  0
  144.5149  136.9838  150.8474 H   0  0  0  0  0  0  0  0  0  0  0  0
  145.9947  136.8497  149.9177 H   0  0  0  0  0  0  0  0  0  0  0  0
  144.9031  134.6238  150.1754 H   0  0  0  0  0  0  0  0  0  0  0  0
  146.4994  134.6477  150.8864 H   0  0  0  0  0  0  0  0  0  0  0  0
  143.8486  134.9023  152.3898 H   0  0  0  0  0  0  0  0  0  0  0  0
  144.9398  133.5349  152.4416 H   0  0  0  0  0  0  0  0  0  0  0  0
  145.2183  135.0320  154.4401 H   0  0  0  0  0  0  0  0  0  0  0  0
  146.6934  134.9031  153.5124 H   0  0  0  0  0  0  0  0  0  0  0  0
  146.2865  137.2484  154.1211 H   0  0  0  0  0  0  0  0  0  0  0  0
  144.6955  137.2241  153.3925 H   0  0  0  0  0  0  0  0  0  0  0  0
  151.4220  139.9039  155.5249 H   0  0  0  0  0  0  0  0  0  0  0  0
  154.6847  138.1024  153.7669 H   0  0  0  0  0  0  0  0  0  0  0  0
  147.2126  136.7968  151.9533 H   0  0  0  0  0  0  0  0  0  0  0  0
  1  2  1  0  0  0  0
  1 19  1  0  0  0  0
  1 20  1  0  0  0  0
  1 21  1  0  0  0  0
  2  3  1  0  0  0  0
  2 14  1  0  0  0  0
  2 22  1  0  0  0  0
  3  4  2  0  0  0  0
  3  5  1  0  0  0  0
  5  6  1  0  0  0  0
  5 23  1  0  0  0  0
  6  7  1  0  0  0  0
  6 24  1  0  0  0  0
  6 25  1  0  0  0  0
  7  8  1  0  0  0  0
  7 26  1  0  0  0  0
  7 27  1  0  0  0  0
  8 13  1  0  0  0  0
  8  9  1  0  0  0  0
  8 40  1  0  0  0  0
  9 10  1  0  0  0  0
  9 28  1  0  0  0  0
  9 29  1  0  0  0  0
 10 11  1  0  0  0  0
 10 30  1  0  0  0  0
 10 31  1  0  0  0  0
 11 12  1  0  0  0  0
 11 32  1  0  0  0  0
 11 33  1  0  0  0  0
 12 13  1  0  0  0  0
 12 34  1  0  0  0  0
 12 35  1  0  0  0  0
 13 36  1  0  0  0  0
 13 37  1  0  0  0  0
 14 18  1  0  0  0  0
 14 15  1  0  0  0  0
 15 16  2  0  0  0  0
 15 38  1  0  0  0  0
 16 17  1  0  0  0  0
 17 18  2  0  0  0  0
 17 39  1  0  0  0  0
M  CHG  1   8   1
M  END
> <s_m_source_file>
AV-unprocessed.smi

> <i_m_source_file_index>
3268

> <i_lp_mmshare_version>
43012

> <i_f3d_flags>
0

> <s_epik_input>
bjFbY0hdbltjSF1uMVtDQEhdKFtDSDNdKUMoPU8pW05IXVtDSDJdW0NIMl1OMltDSDJdW0NIMl1bQ0gyXVtDSDJdW0NIMl0y

> <s_epik_cmdline>
J2VwaWtfcHl0aG9uJywgJy1waCcsICc3LjAnLCAnLXRuJywgJzgnLCAnLW1hJywgJzIwMCcsICctbWV0YWxfYmluZGluZycsICctaW1hZScsICc8aW5maWxlLm1hZT4nLCAnLW9tYWUnLCAnPG91dGZpbGUubWFlPic=

> <r_lp_tautomer_probability>
1

> <r_epik_Ionization_Penalty>
0.00266407

> <r_epik_Ionization_Penalty_Charging>
0.00265606

> <r_epik_Ionization_Penalty_Neutral>
8.01095e-06

> <r_epik_State_Penalty>
0.00184955

> <r_epik_Charging_Adjusted_Penalty>
0.00450561

> <i_epik_Tot_Q>
1

> <i_epik_Tot_abs_Q>
1

> <r_epik_Metal_State_Penalty>
-0

> <b_epik_Metal_Only>
0

> <s_lp_Force_Field>
OPLS_2005

> <r_lp_Energy>
21.812

> <b_lp_Chiralities_Consistent>
1

> <s_lp_Variant>
AV-unprocessed.smi:3268-2

> <Gold.Version>
5.8.1

> <Gold.Id.Protein>
6NUR|6NUR_protein|mol2

> <Gold.PLP.Fitness>
43.4068

> <Gold.PLP.PLP>
-31.3420

> <Gold.PLP.part.hbond>
-5.6126

> <Gold.PLP.part.metal>
0.0000

> <Gold.PLP.part.buried>
1.0242

> <Gold.PLP.part.nonpolar>
-27.6107

> <Gold.PLP.part.repulsive>
0.2852

> <Gold.PLP.ligand.clash>
0.0000

> <Gold.PLP.ligand.torsion>
0.9482

> <Gold.PLP.Chemscore.Hbond>
4.5920

> <Gold.PLP.Chemscore.CHOScore>
0.0000

> <Gold.PLP.Chemscore.Metal>
0.0000

> <Gold.Chemscore.Hbonds>
donor molecule, donor type, donor heavy atom, donor atom, acceptor molecule, acceptor atom, score
      L1  H     5    23       P1  7948  1.00
      L1  H     8    40       P1  7948  2.00
      P1  H  7997  8010       L1    16  1.00
      P1  H 10752 10765       L1    18  0.62

> <Gold.PLP.Chemscore.Internal.Correction>
0.1853

> <Gold.Rescore>
     Score         DG    S(hbond)    S(metal)    S(lipo)     H(rot)  DE(clash)    DE(int)     intcor
     13.66     -16.43       3.58        0.00      47.73       2.57       1.35       1.43       ----

> <Gold.Chemscore.Fitness>
13.6568

> <Gold.Chemscore.DG>
-16.4324

> <Gold.Chemscore.ZeroCoef>
-5.4800

> <Gold.Chemscore.Hbond>
3.5761

> <Gold.Chemscore.Metal>
0.0000

> <Gold.Chemscore.Lipo>
47.7339

> <Gold.Chemscore.Internal_Hbond>
0.0000

> <Gold.Chemscore.DEClash>
1.3455

> <Gold.Chemscore.DEInternal>
1.4302

> <Gold.Chemscore.Rot>
2.5690

> <Gold.Chemscore.Internal.Correction>
   9.000000E+99

> <Gold.Chemscore.Hbonds>
donor molecule, donor type, donor heavy atom, donor atom, acceptor molecule, acceptor atom, score
      L1  H     5    23       P1  7948  0.98
      L1  H     8    40       P1  7948  1.00
      P1  H  7997  8010       L1    16  0.99
      P1  H 10752 10765       L1    18  0.62

> <Gold.Chemscore.Hbond.Weighted>
-11.9441

> <Gold.Chemscore.Metal.Weighted>
-0.0000

> <Gold.Chemscore.Lipo.Weighted>
-5.5849

> <Gold.Chemscore.Internal_Hbond.Weighted>
0.0000

> <Gold.Chemscore.DEClash.Weighted>
1.3455

> <Gold.Chemscore.DEInternal.Weighted>
1.4302

> <Gold.Chemscore.Rot.Weighted>
6.5766

> <Gold.Chemscore.Internal.Correction.Weighted>
   9.000000E+99

> <Gold.Protein.RotatedTorsions>
[ 6907 6896 6895 6894 ] final  -27.22 input  -60.11 | X-H torsion
[ 7974 7965 7964 7962 ] final -115.91 input  175.53 | X-H torsion
[ 8008 7997 7996 7995 ] final  100.89 input   59.86 | X-H torsion
[ 10167 10162 10161 10158 ] final   79.84 input  -65.29 | X-H torsion
[ 10718 10713 10712 10709 ] final -100.38 input   66.30 | X-H torsion
[ 10763 10752 10751 10750 ] final  149.21 input  -60.55 | X-H torsion
[ 11005 11000 10999 10996 ] final -177.57 input  -57.11 | X-H torsion

> <Gold.Protein.ActiveResidues>
 VAL166  LYS551  ARG553  GLY616  TRP617  ASP618  TYR619  PRO620  LYS621  CYS622 
 ASP623  PHE694  ASN695  SER759  ASP760  ASP761  ALA762  ILE779  LEU786  VAL792 
 PHE793  MET794  SER795  GLU796  ALA797  LYS798  CYS799  TRP800  GLU811  SER814 

> <Gold.Protein.RotatedAtoms>
  151.1499  135.0222  159.8663 H   0  0  0  0  0  0  0  0  0  0  0  0  # atno 6907 bound_to 6896
  152.5453  134.1400  159.8485 H   0  0  0  0  0  0  0  0  0  0  0  0  # atno 6908 bound_to 6896
  151.1484  133.4878  159.2628 H   0  0  0  0  0  0  0  0  0  0  0  0  # atno 6909 bound_to 6896
  145.1029  140.8563  143.3915 H   0  0  0  0  0  0  0  0  0  0  0  0  # atno 7974 bound_to 7965
  156.1247  140.3206  155.8260 H   0  0  0  0  0  0  0  0  0  0  0  0  # atno 8008 bound_to 7997
  155.4441  140.0527  157.3025 H   0  0  0  0  0  0  0  0  0  0  0  0  # atno 8009 bound_to 7997
  154.4854  140.2070  155.9682 H   0  0  0  0  0  0  0  0  0  0  0  0  # atno 8010 bound_to 7997
  139.9561  144.5993  150.8116 H   0  0  0  0  0  0  0  0  0  0  0  0  # atno 10167 bound_to 10162
  156.0161  130.5325  150.6808 H   0  0  0  0  0  0  0  0  0  0  0  0  # atno 10718 bound_to 10713
  154.0673  135.2869  155.3314 H   0  0  0  0  0  0  0  0  0  0  0  0  # atno 10763 bound_to 10752
  154.6769  135.5278  153.8215 H   0  0  0  0  0  0  0  0  0  0  0  0  # atno 10764 bound_to 10752
  153.0499  135.6572  154.0858 H   0  0  0  0  0  0  0  0  0  0  0  0  # atno 10765 bound_to 10752
  140.4394  134.6445  157.4750 H   0  0  0  0  0  0  0  0  0  0  0  0  # atno 11005 bound_to 11000
  145.0935  139.2873  143.5723 LP  0  0  0  0  0  0  0  0  0  0  0  0  # atno 17320 bound_to 7965
  146.3529  140.0480  142.8638 LP  0  0  0  0  0  0  0  0  0  0  0  0  # atno 17321 bound_to 7965
  140.7568  143.3073  151.2931 LP  0  0  0  0  0  0  0  0  0  0  0  0  # atno 17342 bound_to 10162
  139.6590  144.0223  152.2680 LP  0  0  0  0  0  0  0  0  0  0  0  0  # atno 17343 bound_to 10162
  157.4511  131.0872  151.0845 LP  0  0  0  0  0  0  0  0  0  0  0  0  # atno 17370 bound_to 10713
  157.1361  130.6123  149.5542 LP  0  0  0  0  0  0  0  0  0  0  0  0  # atno 17371 bound_to 10713
  140.0080  134.6734  155.9425 LP  0  0  0  0  0  0  0  0  0  0  0  0  # atno 17394 bound_to 11000
  141.1712  133.6537  156.4658 LP  0  0  0  0  0  0  0  0  0  0  0  0  # atno 17395 bound_to 11000

$$$$
