AV-unprocessed.smi:1424|AV-procd|sdf|5802|dock9
  -GOLD-   22720 5453D 1   1.00000     0.00000
 Structure written by MMmdl.
 46 48  0  0  0  0  0  0  0  0  2 V2000
  153.7279  141.2568  161.1633 O   0  0  0  0  0  0  0  0  0  0  0  0
  153.3246  140.4872  160.2914 C   0  0  0  0  0  0  0  0  0  0  0  0
  153.5613  139.1680  160.2995 N   0  0  0  0  0  0  0  0  0  0  0  0
  154.3292  138.4637  161.3212 C   0  0  0  0  0  0  0  0  0  0  0  0
  155.2066  137.3481  160.7201 C   0  0  1  0  0  0  0  0  0  0  0  0
  155.7137  136.3595  161.7876 C   0  0  0  0  0  0  0  0  0  0  0  0
  156.3360  135.1535  161.0779 C   0  0  0  0  0  0  0  0  0  0  0  0
  155.3399  134.9082  159.5614 S   0  0  0  0  0  0  0  0  0  0  0  0
  156.2383  134.8641  158.3980 O   0  0  0  0  0  0  0  0  0  0  0  0
  154.3470  133.8483  159.7931 O   0  0  0  0  0  0  0  0  0  0  0  0
  154.4962  136.5350  159.6236 C   0  0  0  0  0  0  0  0  0  0  0  0
  152.6202  140.8499  159.2065 N   0  0  0  0  0  0  0  0  0  0  0  0
  152.2013  142.1578  158.8298 C   0  0  0  0  0  0  0  0  0  0  0  0
  152.6500  143.3039  159.5359 C   0  0  0  0  0  0  0  0  0  0  0  0
  152.2366  144.5868  159.1308 C   0  0  0  0  0  0  0  0  0  0  0  0
  151.3754  144.7063  158.0272 C   0  0  0  0  0  0  0  0  0  0  0  0
  150.9493  143.5969  157.3889 N   0  3  0  0  0  0  0  0  0  0  0  0
  151.2996  142.3338  157.7393 C   0  0  0  0  0  0  0  0  0  0  0  0
  150.7622  141.2684  156.9810 N   0  0  0  0  0  0  0  0  0  0  0  0
  151.6440  140.3242  156.3042 C   0  0  0  0  0  0  0  0  0  0  0  0
  150.7408  139.5615  155.3388 C   0  0  0  0  0  0  0  0  0  0  0  0
  149.7422  140.6317  154.9089 C   0  0  0  0  0  0  0  0  0  0  0  0
  149.5773  141.4996  156.1609 C   0  0  0  0  0  0  0  0  0  0  0  0
  153.1942  138.6099  159.5427 H   0  0  0  0  0  0  0  0  0  0  0  0
  154.9447  139.1727  161.8777 H   0  0  0  0  0  0  0  0  0  0  0  0
  153.6261  138.0399  162.0388 H   0  0  0  0  0  0  0  0  0  0  0  0
  156.0894  137.8033  160.2683 H   0  0  0  0  0  0  0  0  0  0  0  0
  156.4234  136.8292  162.4692 H   0  0  0  0  0  0  0  0  0  0  0  0
  154.8715  136.0173  162.3905 H   0  0  0  0  0  0  0  0  0  0  0  0
  157.3616  135.3690  160.7768 H   0  0  0  0  0  0  0  0  0  0  0  0
  156.3316  134.2485  161.6853 H   0  0  0  0  0  0  0  0  0  0  0  0
  153.4514  136.3566  159.8792 H   0  0  0  0  0  0  0  0  0  0  0  0
  154.5376  137.0146  158.6456 H   0  0  0  0  0  0  0  0  0  0  0  0
  152.4504  140.1246  158.5253 H   0  0  0  0  0  0  0  0  0  0  0  0
  153.3042  143.2187  160.3905 H   0  0  0  0  0  0  0  0  0  0  0  0
  152.5774  145.4651  159.6596 H   0  0  0  0  0  0  0  0  0  0  0  0
  151.0095  145.6474  157.6428 H   0  0  0  0  0  0  0  0  0  0  0  0
  152.4129  140.8567  155.7425 H   0  0  0  0  0  0  0  0  0  0  0  0
  152.1344  139.6563  157.0132 H   0  0  0  0  0  0  0  0  0  0  0  0
  151.2860  139.1238  154.5022 H   0  0  0  0  0  0  0  0  0  0  0  0
  150.2229  138.7585  155.8656 H   0  0  0  0  0  0  0  0  0  0  0  0
  150.1707  141.2281  154.1022 H   0  0  0  0  0  0  0  0  0  0  0  0
  148.7987  140.2162  154.5538 H   0  0  0  0  0  0  0  0  0  0  0  0
  148.6966  141.1815  156.7197 H   0  0  0  0  0  0  0  0  0  0  0  0
  149.4550  142.5518  155.9007 H   0  0  0  0  0  0  0  0  0  0  0  0
  150.3169  143.7164  156.5975 H   0  0  0  0  0  0  0  0  0  0  0  0
  1  2  2  0  0  0  0
  2  3  1  0  0  0  0
  2 12  1  0  0  0  0
  3  4  1  0  0  0  0
  3 24  1  0  0  0  0
  4  5  1  0  0  0  0
  4 25  1  0  0  0  0
  4 26  1  0  0  0  0
  5 11  1  0  0  0  0
  5  6  1  0  0  0  0
  5 27  1  0  0  0  0
  6  7  1  0  0  0  0
  6 28  1  0  0  0  0
  6 29  1  0  0  0  0
  7  8  1  0  0  0  0
  7 30  1  0  0  0  0
  7 31  1  0  0  0  0
  8  9  2  0  0  0  0
  8 10  2  0  0  0  0
  8 11  1  0  0  0  0
 11 32  1  0  0  0  0
 11 33  1  0  0  0  0
 12 13  1  0  0  0  0
 12 34  1  0  0  0  0
 13 18  1  0  0  0  0
 13 14  2  0  0  0  0
 14 15  1  0  0  0  0
 14 35  1  0  0  0  0
 15 16  2  0  0  0  0
 15 36  1  0  0  0  0
 16 17  1  0  0  0  0
 16 37  1  0  0  0  0
 17 18  2  0  0  0  0
 17 46  1  0  0  0  0
 18 19  1  0  0  0  0
 19 23  1  0  0  0  0
 19 20  1  0  0  0  0
 20 21  1  0  0  0  0
 20 38  1  0  0  0  0
 20 39  1  0  0  0  0
 21 22  1  0  0  0  0
 21 40  1  0  0  0  0
 21 41  1  0  0  0  0
 22 23  1  0  0  0  0
 22 42  1  0  0  0  0
 22 43  1  0  0  0  0
 23 44  1  0  0  0  0
 23 45  1  0  0  0  0
M  CHG  1  17   1
M  END
> <s_m_source_file>
AV-unprocessed.smi

> <i_m_source_file_index>
1424

> <i_lp_mmshare_version>
43012

> <i_f3d_flags>
0

> <s_epik_input>
Tz1TMSg9TylbQ0gyXVtDSDJdW0NASF0oW0NIMl0xKVtDSDJdW05IXUMoPU8pW05IXWMyW2NIXVtjSF1bY0hdbmMyTjNbQ0gyXVtDSDJdW0NIMl1bQ0gyXTM=

> <s_epik_cmdline>
J2VwaWtfcHl0aG9uJywgJy1waCcsICc3LjAnLCAnLXRuJywgJzgnLCAnLW1hJywgJzIwMCcsICctbWV0YWxfYmluZGluZycsICctaW1hZScsICc8aW5maWxlLm1hZT4nLCAnLW9tYWUnLCAnPG91dGZpbGUubWFlPic=

> <r_lp_tautomer_probability>
0.999994

> <r_epik_Ionization_Penalty>
1.12573

> <r_epik_Ionization_Penalty_Charging>
1.12571

> <r_epik_Ionization_Penalty_Neutral>
1.92863e-05

> <r_epik_State_Penalty>
1.18495

> <r_epik_Charging_Adjusted_Penalty>
2.31065

> <i_epik_Tot_Q>
1

> <i_epik_Tot_abs_Q>
1

> <r_epik_Metal_State_Penalty>
1.26881

> <b_epik_Metal_Only>
0

> <s_lp_Force_Field>
OPLS_2005

> <r_lp_Energy>
39.7192

> <b_lp_Chiralities_Consistent>
1

> <s_lp_Variant>
AV-unprocessed.smi:1424-4

> <Gold.Version>
5.8.1

> <Gold.Id.Protein>
6NUR|6NUR_protein|mol2

> <Gold.PLP.Fitness>
45.3492

> <Gold.PLP.PLP>
-37.0761

> <Gold.PLP.part.hbond>
-2.0000

> <Gold.PLP.part.metal>
0.0000

> <Gold.PLP.part.buried>
-4.7322

> <Gold.PLP.part.nonpolar>
-30.0622

> <Gold.PLP.part.repulsive>
0.2256

> <Gold.PLP.ligand.clash>
0.0000

> <Gold.PLP.ligand.torsion>
0.5658

> <Gold.PLP.Chemscore.Hbond>
3.0000

> <Gold.PLP.Chemscore.CHOScore>
0.0000

> <Gold.PLP.Chemscore.Metal>
0.0000

> <Gold.Chemscore.Hbonds>
donor molecule, donor type, donor heavy atom, donor atom, acceptor molecule, acceptor atom, score
      L1  H    17    46       P1  8028  1.98
      P1  H  6896  6909       L1    10  1.00

> <Gold.PLP.Chemscore.Internal.Correction>
0.4046

> <Gold.Rescore>
     Score         DG    S(hbond)    S(metal)    S(lipo)     H(rot)  DE(clash)    DE(int)     intcor
     17.18     -19.24       1.98        0.00      93.75       1.50       0.04       2.03       ----

> <Gold.Chemscore.Fitness>
17.1766

> <Gold.Chemscore.DG>
-19.2429

> <Gold.Chemscore.ZeroCoef>
-5.4800

> <Gold.Chemscore.Hbond>
1.9834

> <Gold.Chemscore.Metal>
0.0000

> <Gold.Chemscore.Lipo>
93.7478

> <Gold.Chemscore.Internal_Hbond>
0.0000

> <Gold.Chemscore.DEClash>
0.0402

> <Gold.Chemscore.DEInternal>
2.0260

> <Gold.Chemscore.Rot>
1.4962

> <Gold.Chemscore.Internal.Correction>
   9.000000E+99

> <Gold.Chemscore.Hbonds>
donor molecule, donor type, donor heavy atom, donor atom, acceptor molecule, acceptor atom, score
      L1  H    17    46       P1  8028  0.93
      P1  H  6896  6909       L1    10  1.00

> <Gold.Chemscore.Hbond.Weighted>
-6.6247

> <Gold.Chemscore.Metal.Weighted>
-0.0000

> <Gold.Chemscore.Lipo.Weighted>
-10.9685

> <Gold.Chemscore.Internal_Hbond.Weighted>
0.0000

> <Gold.Chemscore.DEClash.Weighted>
0.0402

> <Gold.Chemscore.DEInternal.Weighted>
2.0260

> <Gold.Chemscore.Rot.Weighted>
3.8303

> <Gold.Chemscore.Internal.Correction.Weighted>
   9.000000E+99

> <Gold.Protein.RotatedTorsions>
[ 6907 6896 6895 6894 ] final -133.62 input  -60.11 | X-H torsion
[ 7974 7965 7964 7962 ] final  142.95 input  175.53 | X-H torsion
[ 8008 7997 7996 7995 ] final   46.25 input   59.86 | X-H torsion
[ 10167 10162 10161 10158 ] final  144.57 input  -65.29 | X-H torsion
[ 10718 10713 10712 10709 ] final   47.97 input   66.30 | X-H torsion
[ 10763 10752 10751 10750 ] final   70.60 input  -60.55 | X-H torsion
[ 11005 11000 10999 10996 ] final -145.51 input  -57.11 | X-H torsion

> <Gold.Protein.ActiveResidues>
 VAL166  LYS551  ARG553  GLY616  TRP617  ASP618  TYR619  PRO620  LYS621  CYS622 
 ASP623  PHE694  ASN695  SER759  ASP760  ASP761  ALA762  ILE779  LEU786  VAL792 
 PHE793  MET794  SER795  GLU796  ALA797  LYS798  CYS799  TRP800  GLU811  SER814 

> <Gold.Protein.RotatedAtoms>
  150.9762  133.6293  159.2729 H   0  0  0  0  0  0  0  0  0  0  0  0  # atno 6907 bound_to 6896
  151.3564  135.0894  159.9429 H   0  0  0  0  0  0  0  0  0  0  0  0  # atno 6908 bound_to 6896
  152.5200  133.9344  159.7651 H   0  0  0  0  0  0  0  0  0  0  0  0  # atno 6909 bound_to 6896
  144.8963  139.5486  143.5775 H   0  0  0  0  0  0  0  0  0  0  0  0  # atno 7974 bound_to 7965
  155.3494  140.3412  155.4239 H   0  0  0  0  0  0  0  0  0  0  0  0  # atno 8008 bound_to 7997
  156.1772  140.1651  156.8376 H   0  0  0  0  0  0  0  0  0  0  0  0  # atno 8009 bound_to 7997
  154.5294  140.0748  156.8301 H   0  0  0  0  0  0  0  0  0  0  0  0  # atno 8010 bound_to 7997
  139.4944  144.5962  151.6577 H   0  0  0  0  0  0  0  0  0  0  0  0  # atno 10167 bound_to 10162
  157.4639  130.8213  149.7915 H   0  0  0  0  0  0  0  0  0  0  0  0  # atno 10718 bound_to 10713
  153.0351  135.5168  154.7466 H   0  0  0  0  0  0  0  0  0  0  0  0  # atno 10763 bound_to 10752
  154.6449  135.2917  155.0061 H   0  0  0  0  0  0  0  0  0  0  0  0  # atno 10764 bound_to 10752
  154.0965  135.6642  153.4913 H   0  0  0  0  0  0  0  0  0  0  0  0  # atno 10765 bound_to 10752
  140.7915  134.2963  157.5012 H   0  0  0  0  0  0  0  0  0  0  0  0  # atno 11005 bound_to 11000
  146.3083  139.7656  142.9039 LP  0  0  0  0  0  0  0  0  0  0  0  0  # atno 17320 bound_to 7965
  145.3694  141.0340  143.3239 LP  0  0  0  0  0  0  0  0  0  0  0  0  # atno 17321 bound_to 7965
  140.5601  144.0283  150.6166 LP  0  0  0  0  0  0  0  0  0  0  0  0  # atno 17342 bound_to 10162
  140.3366  143.3045  152.0632 LP  0  0  0  0  0  0  0  0  0  0  0  0  # atno 17343 bound_to 10162
  156.0041  130.3864  150.2495 LP  0  0  0  0  0  0  0  0  0  0  0  0  # atno 17370 bound_to 10713
  157.0674  131.0107  151.3202 LP  0  0  0  0  0  0  0  0  0  0  0  0  # atno 17371 bound_to 10713
  139.8731  134.9377  156.3694 LP  0  0  0  0  0  0  0  0  0  0  0  0  # atno 17394 bound_to 11000
  140.9385  133.7531  156.0116 LP  0  0  0  0  0  0  0  0  0  0  0  0  # atno 17395 bound_to 11000

$$$$
