AV-unprocessed.smi:3126|AV-procd|sdf|11910|dock8
  -GOLD-   2272017293D 1   1.00000     0.00000
 Structure written by MMmdl.
 42 43  0  0  0  0  0  0  0  0  2 V2000
  144.5299  141.0296  155.7657 C   0  0  0  0  0  0  0  0  0  0  0  0
  145.2479  142.3858  155.7990 C   0  0  0  0  0  0  0  0  0  0  0  0
  146.7815  142.2902  155.6665 C   0  0  2  0  0  0  0  0  0  0  0  0
  147.2230  141.8051  154.2690 C   0  0  0  0  0  0  0  0  0  0  0  0
  148.7509  141.6861  154.1634 C   0  0  0  0  0  0  0  0  0  0  0  0
  149.3164  140.7643  155.2549 C   0  0  0  0  0  0  0  0  0  0  0  0
  148.8985  141.2192  156.6695 C   0  0  1  0  0  0  0  0  0  0  0  0
  149.5628  142.4793  157.0778 N   0  3  0  0  0  0  0  0  0  0  0  0
  151.0313  142.4045  157.2228 C   0  0  0  0  0  0  0  0  0  0  0  0
  151.5885  143.6939  157.8393 C   0  0  0  0  0  0  0  0  0  0  0  0
  152.0282  143.4912  159.2757 C   0  0  0  0  0  0  0  0  0  0  0  0
  151.6691  144.4128  160.2811 C   0  0  0  0  0  0  0  0  0  0  0  0
  152.1107  144.1853  161.5986 C   0  0  0  0  0  0  0  0  0  0  0  0
  152.8943  143.0425  161.8559 C   0  0  0  0  0  0  0  0  0  0  0  0
  153.2439  142.1536  160.9012 N   0  0  0  0  0  0  0  0  0  0  0  0
  152.8157  142.3784  159.6407 C   0  0  0  0  0  0  0  0  0  0  0  0
  147.3662  141.3659  156.7579 C   0  0  0  0  0  0  0  0  0  0  0  0
  143.4486  141.1672  155.7865 H   0  0  0  0  0  0  0  0  0  0  0  0
  144.7939  140.4104  156.6226 H   0  0  0  0  0  0  0  0  0  0  0  0
  144.7746  140.4752  154.8594 H   0  0  0  0  0  0  0  0  0  0  0  0
  144.8571  142.9914  154.9805 H   0  0  0  0  0  0  0  0  0  0  0  0
  144.9854  142.9153  156.7155 H   0  0  0  0  0  0  0  0  0  0  0  0
  147.1888  143.2903  155.8222 H   0  0  0  0  0  0  0  0  0  0  0  0
  146.7676  140.8374  154.0538 H   0  0  0  0  0  0  0  0  0  0  0  0
  146.8697  142.4890  153.4976 H   0  0  0  0  0  0  0  0  0  0  0  0
  149.0230  141.3025  153.1796 H   0  0  0  0  0  0  0  0  0  0  0  0
  149.2029  142.6755  154.2419 H   0  0  0  0  0  0  0  0  0  0  0  0
  148.9422  139.7537  155.0860 H   0  0  0  0  0  0  0  0  0  0  0  0
  150.3998  140.6937  155.1636 H   0  0  0  0  0  0  0  0  0  0  0  0
  149.1951  140.4509  157.3850 H   0  0  0  0  0  0  0  0  0  0  0  0
  149.3291  143.2010  156.4109 H   0  0  0  0  0  0  0  0  0  0  0  0
  151.2879  141.5523  157.8538 H   0  0  0  0  0  0  0  0  0  0  0  0
  151.4923  142.2369  156.2496 H   0  0  0  0  0  0  0  0  0  0  0  0
  152.4367  144.0540  157.2551 H   0  0  0  0  0  0  0  0  0  0  0  0
  150.8350  144.4823  157.8077 H   0  0  0  0  0  0  0  0  0  0  0  0
  151.0693  145.2805  160.0484 H   0  0  0  0  0  0  0  0  0  0  0  0
  151.8563  144.8702  162.3940 H   0  0  0  0  0  0  0  0  0  0  0  0
  153.2506  142.8383  162.8546 H   0  0  0  0  0  0  0  0  0  0  0  0
  153.1151  141.6511  158.9005 H   0  0  0  0  0  0  0  0  0  0  0  0
  147.0884  141.7307  157.7478 H   0  0  0  0  0  0  0  0  0  0  0  0
  146.9127  140.3777  156.6658 H   0  0  0  0  0  0  0  0  0  0  0  0
  149.1869  142.7427  157.9774 H   0  0  0  0  0  0  0  0  0  0  0  0
  1  2  1  0  0  0  0
  1 18  1  0  0  0  0
  1 19  1  0  0  0  0
  1 20  1  0  0  0  0
  2  3  1  0  0  0  0
  2 21  1  0  0  0  0
  2 22  1  0  0  0  0
  3 17  1  0  0  0  0
  3  4  1  0  0  0  0
  3 23  1  0  0  0  0
  4  5  1  0  0  0  0
  4 24  1  0  0  0  0
  4 25  1  0  0  0  0
  5  6  1  0  0  0  0
  5 26  1  0  0  0  0
  5 27  1  0  0  0  0
  6  7  1  0  0  0  0
  6 28  1  0  0  0  0
  6 29  1  0  0  0  0
  7  8  1  0  0  0  0
  7 17  1  0  0  0  0
  7 30  1  0  0  0  0
  8  9  1  0  0  0  0
  8 31  1  0  0  0  0
  8 42  1  0  0  0  0
  9 10  1  0  0  0  0
  9 32  1  0  0  0  0
  9 33  1  0  0  0  0
 10 11  1  0  0  0  0
 10 34  1  0  0  0  0
 10 35  1  0  0  0  0
 11 16  1  0  0  0  0
 11 12  2  0  0  0  0
 12 13  1  0  0  0  0
 12 36  1  0  0  0  0
 13 14  2  0  0  0  0
 13 37  1  0  0  0  0
 14 15  1  0  0  0  0
 14 38  1  0  0  0  0
 15 16  2  0  0  0  0
 16 39  1  0  0  0  0
 17 40  1  0  0  0  0
 17 41  1  0  0  0  0
M  CHG  1   8   1
M  END
> <s_m_source_file>
AV-unprocessed.smi

> <i_m_source_file_index>
3126

> <i_lp_mmshare_version>
43012

> <i_f3d_flags>
0

> <s_epik_input>
W0NIM11bQ0gyXVtDQEBIXTFbQ0gyXVtDSDJdW0NIMl1bQ0BIXShbQ0gyXTEpW05IXVtDSDJdW0NIMl1jMltjSF1bY0hdW2NIXW5bY0hdMg==

> <s_epik_cmdline>
J2VwaWtfcHl0aG9uJywgJy1waCcsICc3LjAnLCAnLXRuJywgJzgnLCAnLW1hJywgJzIwMCcsICctbWV0YWxfYmluZGluZycsICctaW1hZScsICc8aW5maWxlLm1hZT4nLCAnLW9tYWUnLCAnPG91dGZpbGUubWFlPic=

> <r_lp_tautomer_probability>
1

> <r_epik_Ionization_Penalty>
0.000947364

> <r_epik_Ionization_Penalty_Charging>
0.000286103

> <r_epik_Ionization_Penalty_Neutral>
0.000661261

> <r_epik_State_Penalty>
-0

> <r_epik_Charging_Adjusted_Penalty>
0.000286103

> <i_epik_Tot_Q>
1

> <i_epik_Tot_abs_Q>
1

> <r_epik_Metal_State_Penalty>
-0

> <b_epik_Metal_Only>
0

> <s_lp_Force_Field>
OPLS_2005

> <r_lp_Energy>
17.7549

> <b_lp_Chiralities_Consistent>
1

> <s_lp_Variant>
AV-unprocessed.smi:3126-1

> <Gold.Version>
5.8.1

> <Gold.Id.Protein>
6NUR|6NUR_protein|mol2

> <Gold.PLP.Fitness>
45.0978

> <Gold.PLP.PLP>
-40.1915

> <Gold.PLP.part.hbond>
-1.0000

> <Gold.PLP.part.metal>
0.0000

> <Gold.PLP.part.buried>
-3.8808

> <Gold.PLP.part.nonpolar>
-34.9399

> <Gold.PLP.part.repulsive>
0.0103

> <Gold.PLP.ligand.clash>
0.0000

> <Gold.PLP.ligand.torsion>
0.5560

> <Gold.PLP.Chemscore.Hbond>
2.0000

> <Gold.PLP.Chemscore.CHOScore>
0.0000

> <Gold.PLP.Chemscore.Metal>
0.0000

> <Gold.Chemscore.Hbonds>
donor molecule, donor type, donor heavy atom, donor atom, acceptor molecule, acceptor atom, score
      L1  H     8    31       P1  8028  2.00

> <Gold.PLP.Chemscore.Internal.Correction>
0.0183

> <Gold.Rescore>
     Score         DG    S(hbond)    S(metal)    S(lipo)     H(rot)  DE(clash)    DE(int)     intcor
     18.10     -18.70       0.98        0.00     114.55       1.35       0.22       0.37       ----

> <Gold.Chemscore.Fitness>
18.1030

> <Gold.Chemscore.DG>
-18.7001

> <Gold.Chemscore.ZeroCoef>
-5.4800

> <Gold.Chemscore.Hbond>
0.9807

> <Gold.Chemscore.Metal>
0.0000

> <Gold.Chemscore.Lipo>
114.5508

> <Gold.Chemscore.Internal_Hbond>
0.0000

> <Gold.Chemscore.DEClash>
0.2234

> <Gold.Chemscore.DEInternal>
0.3737

> <Gold.Chemscore.Rot>
1.3507

> <Gold.Chemscore.Internal.Correction>
   9.000000E+99

> <Gold.Chemscore.Hbonds>
donor molecule, donor type, donor heavy atom, donor atom, acceptor molecule, acceptor atom, score
      L1  H     8    31       P1  8028  1.00

> <Gold.Chemscore.Hbond.Weighted>
-3.2755

> <Gold.Chemscore.Metal.Weighted>
-0.0000

> <Gold.Chemscore.Lipo.Weighted>
-13.4024

> <Gold.Chemscore.Internal_Hbond.Weighted>
0.0000

> <Gold.Chemscore.DEClash.Weighted>
0.2234

> <Gold.Chemscore.DEInternal.Weighted>
0.3737

> <Gold.Chemscore.Rot.Weighted>
3.4579

> <Gold.Chemscore.Internal.Correction.Weighted>
   9.000000E+99

> <Gold.Protein.RotatedTorsions>
[ 6907 6896 6895 6894 ] final  -54.51 input  -60.11 | X-H torsion
[ 7974 7965 7964 7962 ] final -124.36 input  175.53 | X-H torsion
[ 8008 7997 7996 7995 ] final   19.21 input   59.86 | X-H torsion
[ 10167 10162 10161 10158 ] final  -38.72 input  -65.29 | X-H torsion
[ 10718 10713 10712 10709 ] final -178.81 input   66.30 | X-H torsion
[ 10763 10752 10751 10750 ] final  -25.09 input  -60.55 | X-H torsion
[ 11005 11000 10999 10996 ] final   76.57 input  -57.11 | X-H torsion

> <Gold.Protein.ActiveResidues>
 VAL166  LYS551  ARG553  GLY616  TRP617  ASP618  TYR619  PRO620  LYS621  CYS622 
 ASP623  PHE694  ASN695  SER759  ASP760  ASP761  ALA762  ILE779  LEU786  VAL792 
 PHE793  MET794  SER795  GLU796  ALA797  LYS798  CYS799  TRP800  GLU811  SER814 

> <Gold.Protein.RotatedAtoms>
  150.8332  134.7594  159.6870 H   0  0  0  0  0  0  0  0  0  0  0  0  # atno 6907 bound_to 6896
  152.4433  134.5543  159.9885 H   0  0  0  0  0  0  0  0  0  0  0  0  # atno 6908 bound_to 6896
  151.5699  133.3353  159.3023 H   0  0  0  0  0  0  0  0  0  0  0  0  # atno 6909 bound_to 6896
  145.0089  140.7888  143.4450 H   0  0  0  0  0  0  0  0  0  0  0  0  # atno 7974 bound_to 7965
  154.9173  140.3022  155.5234 H   0  0  0  0  0  0  0  0  0  0  0  0  # atno 8008 bound_to 7997
  156.3012  140.2378  156.4155 H   0  0  0  0  0  0  0  0  0  0  0  0  # atno 8009 bound_to 7997
  154.8365  140.0416  157.1501 H   0  0  0  0  0  0  0  0  0  0  0  0  # atno 8010 bound_to 7997
  140.7084  143.3259  151.2681 H   0  0  0  0  0  0  0  0  0  0  0  0  # atno 10167 bound_to 10162
  156.8498  130.9715  151.3093 H   0  0  0  0  0  0  0  0  0  0  0  0  # atno 10718 bound_to 10713
  153.6942  135.6960  153.5081 H   0  0  0  0  0  0  0  0  0  0  0  0  # atno 10763 bound_to 10752
  153.2390  135.4312  155.0677 H   0  0  0  0  0  0  0  0  0  0  0  0  # atno 10764 bound_to 10752
  154.8364  135.3503  154.6483 H   0  0  0  0  0  0  0  0  0  0  0  0  # atno 10765 bound_to 10752
  139.9292  134.7612  156.1412 H   0  0  0  0  0  0  0  0  0  0  0  0  # atno 11005 bound_to 11000
  145.2050  139.2233  143.5173 LP  0  0  0  0  0  0  0  0  0  0  0  0  # atno 17320 bound_to 7965
  146.3466  140.1875  142.8589 LP  0  0  0  0  0  0  0  0  0  0  0  0  # atno 17321 bound_to 7965
  139.6727  143.9992  152.2762 LP  0  0  0  0  0  0  0  0  0  0  0  0  # atno 17342 bound_to 10162
  139.9596  144.6567  150.8093 LP  0  0  0  0  0  0  0  0  0  0  0  0  # atno 17343 bound_to 10162
  157.6310  130.8729  149.9273 LP  0  0  0  0  0  0  0  0  0  0  0  0  # atno 17370 bound_to 10713
  156.0834  130.3670  150.0535 LP  0  0  0  0  0  0  0  0  0  0  0  0  # atno 17371 bound_to 10713
  141.0870  133.6730  156.2458 LP  0  0  0  0  0  0  0  0  0  0  0  0  # atno 17394 bound_to 11000
  140.6249  134.5324  157.5552 LP  0  0  0  0  0  0  0  0  0  0  0  0  # atno 17395 bound_to 11000

$$$$
