AV-unprocessed.smi:2635|AV-procd|sdf|10255|dock4
  -GOLD-   2272014263D 1   1.00000     0.00000
 Structure written by MMmdl.
 32 33  0  0  0  0  0  0  0  0  1 V2000
  146.7055  141.9404  153.7881 C   0  0  0  0  0  0  0  0  0  0  0  0
  147.8975  141.0239  154.0069 C   0  0  0  0  0  0  0  0  0  0  0  0
  148.9277  141.3543  154.8274 C   0  0  0  0  0  0  0  0  0  0  0  0
  150.0275  140.5392  155.0385 N   0  0  0  0  0  0  0  0  0  0  0  0
  151.0941  140.8830  155.9617 C   0  0  0  0  0  0  0  0  0  0  0  0
  150.6636  141.9185  156.7843 O   0  0  0  0  0  0  0  0  0  0  0  0
  151.5808  142.9976  156.8514 C   0  0  0  0  0  0  0  0  0  0  0  0
  151.7890  143.4503  158.2817 C   0  0  0  0  0  0  0  0  0  0  0  0
  151.4844  144.7753  158.6572 C   0  0  0  0  0  0  0  0  0  0  0  0
  151.6745  145.1942  159.9886 C   0  0  0  0  0  0  0  0  0  0  0  0
  152.1681  144.2893  160.9484 C   0  0  0  0  0  0  0  0  0  0  0  0
  152.4702  142.9648  160.5770 C   0  0  0  0  0  0  0  0  0  0  0  0
  152.2799  142.5452  159.2458 C   0  0  0  0  0  0  0  0  0  0  0  0
  150.1023  139.2819  154.4038 C   0  0  0  0  0  0  0  0  0  0  0  0
  151.0398  138.5003  154.5657 O   0  0  0  0  0  0  0  0  0  0  0  0
  149.0461  138.9446  153.5587 N   0  0  0  0  0  0  0  0  0  0  0  0
  147.9245  139.7385  153.3013 C   0  0  0  0  0  0  0  0  0  0  0  0
  147.0568  139.3312  152.5308 O   0  0  0  0  0  0  0  0  0  0  0  0
  149.0930  138.0482  153.0965 H   0  0  0  0  0  0  0  0  0  0  0  0
  146.7767  142.8461  154.3908 H   0  0  0  0  0  0  0  0  0  0  0  0
  145.7780  141.4333  154.0561 H   0  0  0  0  0  0  0  0  0  0  0  0
  146.6432  142.2395  152.7413 H   0  0  0  0  0  0  0  0  0  0  0  0
  148.8918  142.3032  155.3434 H   0  0  0  0  0  0  0  0  0  0  0  0
  151.3661  139.9965  156.5400 H   0  0  0  0  0  0  0  0  0  0  0  0
  151.9694  141.1991  155.3912 H   0  0  0  0  0  0  0  0  0  0  0  0
  152.5415  142.6999  156.4278 H   0  0  0  0  0  0  0  0  0  0  0  0
  151.2162  143.8381  156.2585 H   0  0  0  0  0  0  0  0  0  0  0  0
  151.1031  145.4732  157.9258 H   0  0  0  0  0  0  0  0  0  0  0  0
  151.4407  146.2093  160.2737 H   0  0  0  0  0  0  0  0  0  0  0  0
  152.3133  144.6105  161.9693 H   0  0  0  0  0  0  0  0  0  0  0  0
  152.8470  142.2702  161.3131 H   0  0  0  0  0  0  0  0  0  0  0  0
  152.5100  141.5273  158.9669 H   0  0  0  0  0  0  0  0  0  0  0  0
  1  2  1  0  0  0  0
  1 20  1  0  0  0  0
  1 21  1  0  0  0  0
  1 22  1  0  0  0  0
  2 17  1  0  0  0  0
  2  3  2  0  0  0  0
  3  4  1  0  0  0  0
  3 23  1  0  0  0  0
  4  5  1  0  0  0  0
  4 14  1  0  0  0  0
  5  6  1  0  0  0  0
  5 24  1  0  0  0  0
  5 25  1  0  0  0  0
  6  7  1  0  0  0  0
  7  8  1  0  0  0  0
  7 26  1  0  0  0  0
  7 27  1  0  0  0  0
  8 13  1  0  0  0  0
  8  9  2  0  0  0  0
  9 10  1  0  0  0  0
  9 28  1  0  0  0  0
 10 11  2  0  0  0  0
 10 29  1  0  0  0  0
 11 12  1  0  0  0  0
 11 30  1  0  0  0  0
 12 13  2  0  0  0  0
 12 31  1  0  0  0  0
 13 32  1  0  0  0  0
 14 15  2  0  0  0  0
 14 16  1  0  0  0  0
 16 19  1  0  0  0  0
 16 17  1  0  0  0  0
 17 18  2  0  0  0  0
M  END
> <s_m_source_file>
AV-unprocessed.smi

> <i_m_source_file_index>
2635

> <i_lp_mmshare_version>
43012

> <i_f3d_flags>
0

> <s_epik_input>
Tz1jMVtuSF1jKD1PKW4oW2NIXWMxW0NIM10pW0NIMl1PW0NIMl1jMltjSF1bY0hdW2NIXVtjSF1bY0hdMg==

> <s_epik_cmdline>
J2VwaWtfcHl0aG9uJywgJy1waCcsICc3LjAnLCAnLXRuJywgJzgnLCAnLW1hJywgJzIwMCcsICctbWV0YWxfYmluZGluZycsICctaW1hZScsICc8aW5maWxlLm1hZT4nLCAnLW9tYWUnLCAnPG91dGZpbGUubWFlPic=

> <r_lp_tautomer_probability>
0.999537

> <r_epik_Ionization_Penalty>
0.00186109

> <r_epik_Ionization_Penalty_Charging>
0.00186109

> <r_epik_Ionization_Penalty_Neutral>
6.96075e-13

> <r_epik_State_Penalty>
0.00126512

> <r_epik_Charging_Adjusted_Penalty>
0.00312622

> <i_epik_Tot_Q>
0

> <i_epik_Tot_abs_Q>
0

> <r_epik_Metal_State_Penalty>
0.842611

> <b_epik_Metal_Only>
0

> <s_epik_Chemistry_Notes>
This compound contains an acetal/aminal-like group ( X-CH(R)-Y where X, Y are N, S, or O) that may be acid/base labile, releasing an aldehyde.

> <s_lp_Force_Field>
OPLS_2005

> <r_lp_Energy>
3.09653

> <b_lp_Chiralities_Consistent>
1

> <s_lp_Variant>
AV-unprocessed.smi:2635-1

> <Gold.Version>
5.8.1

> <Gold.Id.Protein>
6NUR|6NUR_protein|mol2

> <Gold.PLP.Fitness>
47.1957

> <Gold.PLP.PLP>
-44.0154

> <Gold.PLP.part.hbond>
-1.5241

> <Gold.PLP.part.metal>
0.0000

> <Gold.PLP.part.buried>
-4.1792

> <Gold.PLP.part.nonpolar>
-39.1619

> <Gold.PLP.part.repulsive>
1.5157

> <Gold.PLP.ligand.clash>
0.0000

> <Gold.PLP.ligand.torsion>
0.8939

> <Gold.PLP.Chemscore.Hbond>
0.6500

> <Gold.PLP.Chemscore.CHOScore>
1.0000

> <Gold.PLP.Chemscore.Metal>
0.0000

> <Gold.Chemscore.Hbonds>
donor molecule, donor type, donor heavy atom, donor atom, acceptor molecule, acceptor atom, score
      L1  H    16    19       P1  7948  0.65
      L1  C     3    23       P1  8028  1.00

> <Gold.PLP.Chemscore.Internal.Correction>
0.0181

> <Gold.Rescore>
     Score         DG    S(hbond)    S(metal)    S(lipo)     H(rot)  DE(clash)    DE(int)     intcor
     13.96     -15.33       0.98        0.00      98.73       1.94       0.43       0.93       ----

> <Gold.Chemscore.Fitness>
13.9613

> <Gold.Chemscore.DG>
-15.3279

> <Gold.Chemscore.ZeroCoef>
-5.4800

> <Gold.Chemscore.Hbond>
0.9783

> <Gold.Chemscore.Metal>
0.0000

> <Gold.Chemscore.Lipo>
98.7348

> <Gold.Chemscore.Internal_Hbond>
0.0000

> <Gold.Chemscore.DEClash>
0.4347

> <Gold.Chemscore.DEInternal>
0.9319

> <Gold.Chemscore.Rot>
1.9420

> <Gold.Chemscore.Internal.Correction>
   9.000000E+99

> <Gold.Chemscore.Hbonds>
donor molecule, donor type, donor heavy atom, donor atom, acceptor molecule, acceptor atom, score
      L1  H    16    19       P1  7948  0.64

> <Gold.Chemscore.Hbond.Weighted>
-3.2675

> <Gold.Chemscore.Metal.Weighted>
-0.0000

> <Gold.Chemscore.Lipo.Weighted>
-11.5520

> <Gold.Chemscore.Internal_Hbond.Weighted>
0.0000

> <Gold.Chemscore.DEClash.Weighted>
0.4347

> <Gold.Chemscore.DEInternal.Weighted>
0.9319

> <Gold.Chemscore.Rot.Weighted>
4.9716

> <Gold.Chemscore.Internal.Correction.Weighted>
   9.000000E+99

> <Gold.Protein.RotatedTorsions>
[ 6907 6896 6895 6894 ] final  -83.11 input  -60.11 | X-H torsion
[ 7974 7965 7964 7962 ] final   63.28 input  175.53 | X-H torsion
[ 8008 7997 7996 7995 ] final   45.76 input   59.86 | X-H torsion
[ 10167 10162 10161 10158 ] final  -65.57 input  -65.29 | X-H torsion
[ 10718 10713 10712 10709 ] final  148.31 input   66.30 | X-H torsion
[ 10763 10752 10751 10750 ] final  148.01 input  -60.55 | X-H torsion
[ 11005 11000 10999 10996 ] final   64.25 input  -57.11 | X-H torsion

> <Gold.Protein.ActiveResidues>
 VAL166  LYS551  ARG553  GLY616  TRP617  ASP618  TYR619  PRO620  LYS621  CYS622 
 ASP623  PHE694  ASN695  SER759  ASP760  ASP761  ALA762  ILE779  LEU786  VAL792 
 PHE793  MET794  SER795  GLU796  ALA797  LYS798  CYS799  TRP800  GLU811  SER814 

> <Gold.Protein.RotatedAtoms>
  150.6889  134.3562  159.4930 H   0  0  0  0  0  0  0  0  0  0  0  0  # atno 6907 bound_to 6896
  152.1396  134.9070  160.0563 H   0  0  0  0  0  0  0  0  0  0  0  0  # atno 6908 bound_to 6896
  152.0208  133.3863  159.4294 H   0  0  0  0  0  0  0  0  0  0  0  0  # atno 6909 bound_to 6896
  145.8637  139.3332  143.0804 H   0  0  0  0  0  0  0  0  0  0  0  0  # atno 7974 bound_to 7965
  155.3413  140.3408  155.4239 H   0  0  0  0  0  0  0  0  0  0  0  0  # atno 8008 bound_to 7997
  156.1812  140.1664  156.8307 H   0  0  0  0  0  0  0  0  0  0  0  0  # atno 8009 bound_to 7997
  154.5335  140.0740  156.8370 H   0  0  0  0  0  0  0  0  0  0  0  0  # atno 8010 bound_to 7997
  140.5720  143.2318  151.6519 H   0  0  0  0  0  0  0  0  0  0  0  0  # atno 10167 bound_to 10162
  157.3102  131.0886  151.1322 H   0  0  0  0  0  0  0  0  0  0  0  0  # atno 10718 bound_to 10713
  154.0477  135.2884  155.3345 H   0  0  0  0  0  0  0  0  0  0  0  0  # atno 10763 bound_to 10752
  154.6889  135.5234  153.8368 H   0  0  0  0  0  0  0  0  0  0  0  0  # atno 10764 bound_to 10752
  153.0574  135.6600  154.0675 H   0  0  0  0  0  0  0  0  0  0  0  0  # atno 10765 bound_to 10752
  139.9971  134.6500  155.9992 H   0  0  0  0  0  0  0  0  0  0  0  0  # atno 11005 bound_to 11000
  145.9218  140.9110  143.0401 LP  0  0  0  0  0  0  0  0  0  0  0  0  # atno 17320 bound_to 7965
  144.6726  140.1299  143.7444 LP  0  0  0  0  0  0  0  0  0  0  0  0  # atno 17321 bound_to 7965
  139.5122  144.3482  152.0676 LP  0  0  0  0  0  0  0  0  0  0  0  0  # atno 17342 bound_to 10162
  140.2621  144.4056  150.6182 LP  0  0  0  0  0  0  0  0  0  0  0  0  # atno 17343 bound_to 10162
  157.2647  130.6676  149.5991 LP  0  0  0  0  0  0  0  0  0  0  0  0  # atno 17370 bound_to 10713
  155.9677  130.4497  150.5670 LP  0  0  0  0  0  0  0  0  0  0  0  0  # atno 17371 bound_to 10713
  141.1613  133.6539  156.4328 LP  0  0  0  0  0  0  0  0  0  0  0  0  # atno 17394 bound_to 11000
  140.4797  134.6676  157.5165 LP  0  0  0  0  0  0  0  0  0  0  0  0  # atno 17395 bound_to 11000

$$$$
