AV-unprocessed.smi:292|AV-procd|sdf|2249|dock4
  -GOLD-   2262022133D 1   1.00000     0.00000
 Structure written by MMmdl.
 33 34  0  0  0  0  0  0  0  0  1 V2000
  144.7187  144.2220  154.9968 N   0  0  0  0  0  0  0  0  0  0  0  0
  145.4771  143.3779  154.7698 C   0  0  0  0  0  0  0  0  0  0  0  0
  146.4294  142.3181  154.4846 C   0  0  0  0  0  0  0  0  0  0  0  0
  146.5890  141.8241  153.2225 N   0  0  0  0  0  0  0  0  0  0  0  0
  147.5225  140.9150  153.4738 C   0  0  0  0  0  0  0  0  0  0  0  0
  147.8938  140.8572  154.7573 N   0  0  0  0  0  0  0  0  0  0  0  0
  148.8553  139.9919  155.4232 C   0  0  0  0  0  0  0  0  0  0  0  0
  149.9890  140.7607  156.1176 C   0  0  0  0  0  0  0  0  0  0  0  0
  150.8857  141.2565  155.4364 O   0  0  0  0  0  0  0  0  0  0  0  0
  149.9589  140.8429  157.4588 N   0  0  0  0  0  0  0  0  0  0  0  0
  150.9240  141.5418  158.3050 C   0  0  2  0  0  0  0  0  0  0  0  0
  150.9453  143.0560  157.9706 C   0  0  0  0  0  0  0  0  0  0  0  0
  152.2637  143.7999  158.2688 C   0  0  0  0  0  0  0  0  0  0  0  0
  152.7893  143.6684  159.7126 C   0  0  0  0  0  0  0  0  0  0  0  0
  152.9725  142.2313  160.2554 C   0  0  0  0  0  0  0  0  0  0  0  0
  153.1980  141.2225  159.2210 N   0  0  0  0  0  0  0  0  0  0  0  0
  152.2956  140.8386  158.3015 C   0  0  0  0  0  0  0  0  0  0  0  0
  152.5557  139.9689  157.4705 O   0  0  0  0  0  0  0  0  0  0  0  0
  147.1827  141.7849  155.4443 N   0  0  0  0  0  0  0  0  0  0  0  0
  147.9376  140.2728  152.7108 H   0  0  0  0  0  0  0  0  0  0  0  0
  148.3294  139.3887  156.1641 H   0  0  0  0  0  0  0  0  0  0  0  0
  149.2757  139.3033  154.6888 H   0  0  0  0  0  0  0  0  0  0  0  0
  149.1819  140.4105  157.9378 H   0  0  0  0  0  0  0  0  0  0  0  0
  150.5578  141.4392  159.3275 H   0  0  0  0  0  0  0  0  0  0  0  0
  150.7280  143.1936  156.9105 H   0  0  0  0  0  0  0  0  0  0  0  0
  150.1279  143.5455  158.5015 H   0  0  0  0  0  0  0  0  0  0  0  0
  153.0339  143.4639  157.5731 H   0  0  0  0  0  0  0  0  0  0  0  0
  152.1248  144.8577  158.0442 H   0  0  0  0  0  0  0  0  0  0  0  0
  153.7523  144.1782  159.7581 H   0  0  0  0  0  0  0  0  0  0  0  0
  152.1364  144.2199  160.3901 H   0  0  0  0  0  0  0  0  0  0  0  0
  153.8144  142.2092  160.9477 H   0  0  0  0  0  0  0  0  0  0  0  0
  152.1055  141.9438  160.8512 H   0  0  0  0  0  0  0  0  0  0  0  0
  154.1010  140.7702  159.2127 H   0  0  0  0  0  0  0  0  0  0  0  0
  1  2  3  0  0  0  0
  2  3  1  0  0  0  0
  3 19  2  0  0  0  0
  3  4  1  0  0  0  0
  4  5  2  0  0  0  0
  5  6  1  0  0  0  0
  5 20  1  0  0  0  0
  6  7  1  0  0  0  0
  6 19  1  0  0  0  0
  7  8  1  0  0  0  0
  7 21  1  0  0  0  0
  7 22  1  0  0  0  0
  8  9  2  0  0  0  0
  8 10  1  0  0  0  0
 10 11  1  0  0  0  0
 10 23  1  0  0  0  0
 11 17  1  0  0  0  0
 11 12  1  0  0  0  0
 11 24  1  0  0  0  0
 12 13  1  0  0  0  0
 12 25  1  0  0  0  0
 12 26  1  0  0  0  0
 13 14  1  0  0  0  0
 13 27  1  0  0  0  0
 13 28  1  0  0  0  0
 14 15  1  0  0  0  0
 14 29  1  0  0  0  0
 14 30  1  0  0  0  0
 15 16  1  0  0  0  0
 15 31  1  0  0  0  0
 15 32  1  0  0  0  0
 16 17  1  0  0  0  0
 16 33  1  0  0  0  0
 17 18  2  0  0  0  0
M  END
> <s_m_source_file>
AV-unprocessed.smi

> <i_m_source_file_index>
292

> <i_lp_mmshare_version>
43012

> <i_f3d_flags>
0

> <s_epik_input>
TiNDYzFuW2NIXW4objEpW0NIMl1DKD1PKVtOSF1bQ0BASF0yW0NIMl1bQ0gyXVtDSDJdW0NIMl1bTkhdQzI9Tw==

> <s_epik_cmdline>
J2VwaWtfcHl0aG9uJywgJy1waCcsICc3LjAnLCAnLXRuJywgJzgnLCAnLW1hJywgJzIwMCcsICctbWV0YWxfYmluZGluZycsICctaW1hZScsICc8aW5maWxlLm1hZT4nLCAnLW9tYWUnLCAnPG91dGZpbGUubWFlPic=

> <r_lp_tautomer_probability>
1

> <r_epik_Ionization_Penalty>
1.99744e-07

> <r_epik_Ionization_Penalty_Charging>
0

> <r_epik_Ionization_Penalty_Neutral>
1.99744e-07

> <r_epik_State_Penalty>
-0

> <r_epik_Charging_Adjusted_Penalty>
0

> <i_epik_Tot_Q>
0

> <i_epik_Tot_abs_Q>
0

> <r_epik_Metal_State_Penalty>
-0

> <b_epik_Metal_Only>
0

> <s_lp_Force_Field>
OPLS_2005

> <r_lp_Energy>
19.194

> <b_lp_Chiralities_Consistent>
1

> <s_lp_Variant>
AV-unprocessed.smi:292-1

> <Gold.Version>
5.8.1

> <Gold.Id.Protein>
6NUR|6NUR_protein|mol2

> <Gold.PLP.Fitness>
37.5634

> <Gold.PLP.PLP>
-30.5832

> <Gold.PLP.part.hbond>
-2.0000

> <Gold.PLP.part.metal>
0.0000

> <Gold.PLP.part.buried>
-2.3399

> <Gold.PLP.part.nonpolar>
-27.2371

> <Gold.PLP.part.repulsive>
0.7149

> <Gold.PLP.ligand.clash>
0.0000

> <Gold.PLP.ligand.torsion>
0.2199

> <Gold.PLP.Chemscore.Hbond>
1.4550

> <Gold.PLP.Chemscore.CHOScore>
1.0000

> <Gold.PLP.Chemscore.Metal>
0.0000

> <Gold.Chemscore.Hbonds>
donor molecule, donor type, donor heavy atom, donor atom, acceptor molecule, acceptor atom, score
      P1  H  7989  7998       L1     9  0.47
      P1  H  7997  8010       L1    18  1.00
      L1  C     5    20       P1  7957  1.00

> <Gold.PLP.Chemscore.Internal.Correction>
0.0550

> <Gold.Rescore>
     Score         DG    S(hbond)    S(metal)    S(lipo)     H(rot)  DE(clash)    DE(int)     intcor
      8.74     -11.32       1.34        0.00      58.61       2.14       0.08       2.50       ----

> <Gold.Chemscore.Fitness>
8.7398

> <Gold.Chemscore.DG>
-11.3151

> <Gold.Chemscore.ZeroCoef>
-5.4800

> <Gold.Chemscore.Hbond>
1.3374

> <Gold.Chemscore.Metal>
0.0000

> <Gold.Chemscore.Lipo>
58.6138

> <Gold.Chemscore.Internal_Hbond>
0.0000

> <Gold.Chemscore.DEClash>
0.0754

> <Gold.Chemscore.DEInternal>
2.4999

> <Gold.Chemscore.Rot>
2.1444

> <Gold.Chemscore.Internal.Correction>
   9.000000E+99

> <Gold.Chemscore.Hbonds>
donor molecule, donor type, donor heavy atom, donor atom, acceptor molecule, acceptor atom, score
      P1  H  7989  7998       L1     9  0.46
      P1  H  7997  8010       L1    18  0.76

> <Gold.Chemscore.Hbond.Weighted>
-4.4669

> <Gold.Chemscore.Metal.Weighted>
-0.0000

> <Gold.Chemscore.Lipo.Weighted>
-6.8578

> <Gold.Chemscore.Internal_Hbond.Weighted>
0.0000

> <Gold.Chemscore.DEClash.Weighted>
0.0754

> <Gold.Chemscore.DEInternal.Weighted>
2.4999

> <Gold.Chemscore.Rot.Weighted>
5.4896

> <Gold.Chemscore.Internal.Correction.Weighted>
   9.000000E+99

> <Gold.Protein.RotatedTorsions>
[ 6907 6896 6895 6894 ] final -174.17 input  -60.11 | X-H torsion
[ 7974 7965 7964 7962 ] final  -46.78 input  175.53 | X-H torsion
[ 8008 7997 7996 7995 ] final   45.28 input   59.86 | X-H torsion
[ 10167 10162 10161 10158 ] final -168.56 input  -65.29 | X-H torsion
[ 10718 10713 10712 10709 ] final  173.53 input   66.30 | X-H torsion
[ 10763 10752 10751 10750 ] final  -69.26 input  -60.55 | X-H torsion
[ 11005 11000 10999 10996 ] final   92.30 input  -57.11 | X-H torsion

> <Gold.Protein.ActiveResidues>
 VAL166  LYS551  ARG553  GLY616  TRP617  ASP618  TYR619  PRO620  LYS621  CYS622 
 ASP623  PHE694  ASN695  SER759  ASP760  ASP761  ALA762  ILE779  LEU786  VAL792 
 PHE793  MET794  SER795  GLU796  ALA797  LYS798  CYS799  TRP800  GLU811  SER814 

> <Gold.Protein.RotatedAtoms>
  151.5680  133.3394  159.2983 H   0  0  0  0  0  0  0  0  0  0  0  0  # atno 6907 bound_to 6896
  150.8384  134.7669  159.6923 H   0  0  0  0  0  0  0  0  0  0  0  0  # atno 6908 bound_to 6896
  152.4456  134.5508  159.9918 H   0  0  0  0  0  0  0  0  0  0  0  0  # atno 6909 bound_to 6896
  145.9684  140.7408  142.9422 H   0  0  0  0  0  0  0  0  0  0  0  0  # atno 7974 bound_to 7965
  155.3333  140.3404  155.4239 H   0  0  0  0  0  0  0  0  0  0  0  0  # atno 8008 bound_to 7997
  156.1850  140.1677  156.8238 H   0  0  0  0  0  0  0  0  0  0  0  0  # atno 8009 bound_to 7997
  154.5376  140.0731  156.8438 H   0  0  0  0  0  0  0  0  0  0  0  0  # atno 8010 bound_to 7997
  139.5978  144.1076  152.1708 H   0  0  0  0  0  0  0  0  0  0  0  0  # atno 10167 bound_to 10162
  156.9630  131.0066  151.2923 H   0  0  0  0  0  0  0  0  0  0  0  0  # atno 10718 bound_to 10713
  154.4008  135.6031  153.5896 H   0  0  0  0  0  0  0  0  0  0  0  0  # atno 10763 bound_to 10752
  152.9788  135.5906  154.4186 H   0  0  0  0  0  0  0  0  0  0  0  0  # atno 10764 bound_to 10752
  154.3984  135.2842  155.2090 H   0  0  0  0  0  0  0  0  0  0  0  0  # atno 10765 bound_to 10752
  139.8825  134.8724  156.3552 H   0  0  0  0  0  0  0  0  0  0  0  0  # atno 11005 bound_to 11000
  144.6831  140.2708  143.7306 LP  0  0  0  0  0  0  0  0  0  0  0  0  # atno 17320 bound_to 7965
  145.7941  139.1938  143.2086 LP  0  0  0  0  0  0  0  0  0  0  0  0  # atno 17321 bound_to 7965
  140.0665  144.5814  150.7224 LP  0  0  0  0  0  0  0  0  0  0  0  0  # atno 17342 bound_to 10162
  140.7225  143.2603  151.4230 LP  0  0  0  0  0  0  0  0  0  0  0  0  # atno 17343 bound_to 10162
  157.5645  130.8268  149.8309 LP  0  0  0  0  0  0  0  0  0  0  0  0  # atno 17370 bound_to 10713
  156.0314  130.3763  150.1677 LP  0  0  0  0  0  0  0  0  0  0  0  0  # atno 17371 bound_to 10713
  140.9567  133.7415  156.0345 LP  0  0  0  0  0  0  0  0  0  0  0  0  # atno 17394 bound_to 11000
  140.8040  134.3476  157.5431 LP  0  0  0  0  0  0  0  0  0  0  0  0  # atno 17395 bound_to 11000

$$$$
