AV-unprocessed.smi:809|AV-procd|sdf|3807|dock1
  -GOLD-   22720 1243D 1   1.00000     0.00000
 Structure written by MMmdl.
 39 40  0  0  0  0  0  0  0  0  3 V2000
  150.8811  144.1052  159.2321 C   0  0  0  0  0  0  0  0  0  0  0  0
  151.6344  142.8162  159.3349 C   0  0  0  0  0  0  0  0  0  0  0  0
  152.3147  142.3486  160.4287 C   0  0  0  0  0  0  0  0  0  0  0  0
  153.0482  140.8015  160.1167 S   0  0  0  0  0  0  0  0  0  0  0  0
  152.4033  140.8396  158.4741 C   0  0  0  0  0  0  0  0  0  0  0  0
  152.5763  139.8756  157.5554 N   0  5  0  0  0  0  0  0  0  0  0  0
  151.6248  139.6547  156.6204 C   0  0  0  0  0  0  0  0  0  0  0  0
  151.5543  140.1827  155.5086 O   0  0  0  0  0  0  0  0  0  0  0  0
  150.6929  138.7718  157.0044 N   0  0  0  0  0  0  0  0  0  0  0  0
  149.5159  138.3724  156.2370 C   0  0  0  0  0  0  0  0  0  0  0  0
  149.4306  136.8447  155.9710 C   0  0  1  0  0  0  0  0  0  0  0  0
  149.4437  136.1999  157.2324 O   0  0  0  0  0  0  0  0  0  0  0  0
  148.0781  136.5029  155.3056 C   0  0  0  0  0  0  0  0  0  0  0  0
  147.9585  135.0173  154.9199 C   0  0  0  0  0  0  0  0  0  0  0  0
  149.0876  134.5995  154.0545 N   0  3  2  0  0  0  0  0  0  0  0  0
  148.9337  133.2153  153.5575 C   0  0  0  0  0  0  0  0  0  0  0  0
  150.3970  134.8206  154.7133 C   0  0  0  0  0  0  0  0  0  0  0  0
  150.5850  136.2997  155.0944 C   0  0  0  0  0  0  0  0  0  0  0  0
  151.6910  141.9479  158.2417 N   0  0  0  0  0  0  0  0  0  0  0  0
  150.0569  144.1345  159.9447 H   0  0  0  0  0  0  0  0  0  0  0  0
  150.4604  144.2491  158.2363 H   0  0  0  0  0  0  0  0  0  0  0  0
  151.5300  144.9558  159.4411 H   0  0  0  0  0  0  0  0  0  0  0  0
  152.4281  142.8163  161.3950 H   0  0  0  0  0  0  0  0  0  0  0  0
  150.8010  138.3606  157.9198 H   0  0  0  0  0  0  0  0  0  0  0  0
  148.6003  138.7516  156.6950 H   0  0  0  0  0  0  0  0  0  0  0  0
  149.6051  138.8981  155.2861 H   0  0  0  0  0  0  0  0  0  0  0  0
  149.1619  135.3052  157.1248 H   0  0  0  0  0  0  0  0  0  0  0  0
  147.2517  136.7822  155.9611 H   0  0  0  0  0  0  0  0  0  0  0  0
  147.9590  137.1018  154.4015 H   0  0  0  0  0  0  0  0  0  0  0  0
  147.9288  134.3917  155.8133 H   0  0  0  0  0  0  0  0  0  0  0  0
  147.0173  134.8565  154.3926 H   0  0  0  0  0  0  0  0  0  0  0  0
  148.9382  132.5008  154.3817 H   0  0  0  0  0  0  0  0  0  0  0  0
  149.7454  132.9578  152.8766 H   0  0  0  0  0  0  0  0  0  0  0  0
  147.9957  133.1038  153.0127 H   0  0  0  0  0  0  0  0  0  0  0  0
  150.4741  134.1875  155.5985 H   0  0  0  0  0  0  0  0  0  0  0  0
  151.1996  134.5177  154.0396 H   0  0  0  0  0  0  0  0  0  0  0  0
  150.6545  136.8935  154.1820 H   0  0  0  0  0  0  0  0  0  0  0  0
  151.5429  136.4118  155.6041 H   0  0  0  0  0  0  0  0  0  0  0  0
  149.0690  135.1999  153.2423 H   0  0  0  0  0  0  0  0  0  0  0  0
  1  2  1  0  0  0  0
  1 20  1  0  0  0  0
  1 21  1  0  0  0  0
  1 22  1  0  0  0  0
  2 19  1  0  0  0  0
  2  3  2  0  0  0  0
  3  4  1  0  0  0  0
  3 23  1  0  0  0  0
  4  5  1  0  0  0  0
  5  6  1  0  0  0  0
  5 19  2  0  0  0  0
  6  7  1  0  0  0  0
  7  8  2  0  0  0  0
  7  9  1  0  0  0  0
  9 10  1  0  0  0  0
  9 24  1  0  0  0  0
 10 11  1  0  0  0  0
 10 25  1  0  0  0  0
 10 26  1  0  0  0  0
 11 18  1  0  0  0  0
 11 12  1  0  0  0  0
 11 13  1  0  0  0  0
 12 27  1  0  0  0  0
 13 14  1  0  0  0  0
 13 28  1  0  0  0  0
 13 29  1  0  0  0  0
 14 15  1  0  0  0  0
 14 30  1  0  0  0  0
 14 31  1  0  0  0  0
 15 16  1  0  0  0  0
 15 17  1  0  0  0  0
 15 39  1  0  0  0  0
 16 32  1  0  0  0  0
 16 33  1  0  0  0  0
 16 34  1  0  0  0  0
 17 18  1  0  0  0  0
 17 35  1  0  0  0  0
 17 36  1  0  0  0  0
 18 37  1  0  0  0  0
 18 38  1  0  0  0  0
M  CHG  1   6  -1
M  CHG  1  15   1
M  END
> <s_m_source_file>
AV-unprocessed.smi

> <i_m_source_file_index>
809

> <i_lp_mmshare_version>
43012

> <i_f3d_flags>
0

> <s_epik_input>
W0NIM11jMVtjSF1zYyhuMSlbTkhdQyg9TylbTkhdW0NIMl1DMihbT0hdKVtDSDJdW0NIMl1OKFtDSDNdKVtDSDJdW0NIMl0y

> <s_epik_cmdline>
J2VwaWtfcHl0aG9uJywgJy1waCcsICc3LjAnLCAnLXRuJywgJzgnLCAnLW1hJywgJzIwMCcsICctbWV0YWxfYmluZGluZycsICctaW1hZScsICc8aW5maWxlLm1hZT4nLCAnLW9tYWUnLCAnPG91dGZpbGUubWFlPic=

> <r_lp_tautomer_probability>
0.999

> <r_epik_Ionization_Penalty>
8.50704

> <r_epik_Ionization_Penalty_Charging>
6.65046

> <r_epik_Ionization_Penalty_Neutral>
1.85657

> <r_epik_State_Penalty>
6.64992

> <r_epik_Charging_Adjusted_Penalty>
13.3004

> <i_epik_Tot_Q>
0

> <i_epik_Tot_abs_Q>
2

> <r_epik_Metal_State_Penalty>
2.57297

> <b_epik_Metal_Only>
1

> <s_lp_Force_Field>
OPLS_2005

> <r_lp_Energy>
10.5193

> <b_lp_Chiralities_Consistent>
1

> <s_lp_Variant>
AV-unprocessed.smi:809-3

> <Gold.Version>
5.8.1

> <Gold.Id.Protein>
6NUR|6NUR_protein|mol2

> <Gold.PLP.Fitness>
41.4363

> <Gold.PLP.PLP>
-28.6672

> <Gold.PLP.part.hbond>
-3.0000

> <Gold.PLP.part.metal>
0.0000

> <Gold.PLP.part.buried>
-3.6195

> <Gold.PLP.part.nonpolar>
-21.7972

> <Gold.PLP.part.repulsive>
0.0369

> <Gold.PLP.ligand.clash>
0.0000

> <Gold.PLP.ligand.torsion>
0.9585

> <Gold.PLP.Chemscore.Hbond>
4.8800

> <Gold.PLP.Chemscore.CHOScore>
0.0000

> <Gold.PLP.Chemscore.Metal>
0.0000

> <Gold.Chemscore.Hbonds>
donor molecule, donor type, donor heavy atom, donor atom, acceptor molecule, acceptor atom, score
      L1  H    15    39       P1  7948  2.00
      P1  H  7989  7998       L1     8  0.72
      P1  H  7997  8010       L1     6  1.92

> <Gold.PLP.Chemscore.Internal.Correction>
0.0461

> <Gold.Rescore>
     Score         DG    S(hbond)    S(metal)    S(lipo)     H(rot)  DE(clash)    DE(int)     intcor
     14.64     -15.62       2.19        0.00      64.05       1.82       0.00       0.97       ----

> <Gold.Chemscore.Fitness>
14.6400

> <Gold.Chemscore.DG>
-15.6183

> <Gold.Chemscore.ZeroCoef>
-5.4800

> <Gold.Chemscore.Hbond>
2.1856

> <Gold.Chemscore.Metal>
0.0000

> <Gold.Chemscore.Lipo>
64.0525

> <Gold.Chemscore.Internal_Hbond>
0.0000

> <Gold.Chemscore.DEClash>
0.0040

> <Gold.Chemscore.DEInternal>
0.9743

> <Gold.Chemscore.Rot>
1.8186

> <Gold.Chemscore.Internal.Correction>
   9.000000E+99

> <Gold.Chemscore.Hbonds>
donor molecule, donor type, donor heavy atom, donor atom, acceptor molecule, acceptor atom, score
      L1  H    15    39       P1  7948  0.26
      P1  H  7989  7998       L1     8  0.70
      P1  H  7997  8010       L1     6  0.43

> <Gold.Chemscore.Hbond.Weighted>
-7.2999

> <Gold.Chemscore.Metal.Weighted>
-0.0000

> <Gold.Chemscore.Lipo.Weighted>
-7.4941

> <Gold.Chemscore.Internal_Hbond.Weighted>
0.0000

> <Gold.Chemscore.DEClash.Weighted>
0.0040

> <Gold.Chemscore.DEInternal.Weighted>
0.9743

> <Gold.Chemscore.Rot.Weighted>
4.6557

> <Gold.Chemscore.Internal.Correction.Weighted>
   9.000000E+99

> <Gold.Protein.RotatedTorsions>
[ 6907 6896 6895 6894 ] final   12.40 input  -60.11 | X-H torsion
[ 7974 7965 7964 7962 ] final  132.09 input  175.53 | X-H torsion
[ 8008 7997 7996 7995 ] final   40.53 input   59.86 | X-H torsion
[ 10167 10162 10161 10158 ] final  -79.56 input  -65.29 | X-H torsion
[ 10718 10713 10712 10709 ] final -140.48 input   66.30 | X-H torsion
[ 10763 10752 10751 10750 ] final -143.88 input  -60.55 | X-H torsion
[ 11005 11000 10999 10996 ] final  -67.56 input  -57.11 | X-H torsion

> <Gold.Protein.ActiveResidues>
 VAL166  LYS551  ARG553  GLY616  TRP617  ASP618  TYR619  PRO620  LYS621  CYS622 
 ASP623  PHE694  ASN695  SER759  ASP760  ASP761  ALA762  ILE779  LEU786  VAL792 
 PHE793  MET794  SER795  GLU796  ALA797  LYS798  CYS799  TRP800  GLU811  SER814 

> <Gold.Protein.RotatedAtoms>
  151.7697  135.0789  160.0357 H   0  0  0  0  0  0  0  0  0  0  0  0  # atno 6907 bound_to 6896
  152.3297  133.5940  159.5809 H   0  0  0  0  0  0  0  0  0  0  0  0  # atno 6908 bound_to 6896
  150.7415  133.9803  159.3616 H   0  0  0  0  0  0  0  0  0  0  0  0  # atno 6909 bound_to 6896
  145.0004  139.4317  143.5295 H   0  0  0  0  0  0  0  0  0  0  0  0  # atno 7974 bound_to 7965
  155.2547  140.3355  155.4279 H   0  0  0  0  0  0  0  0  0  0  0  0  # atno 8008 bound_to 7997
  156.2200  140.1805  156.7541 H   0  0  0  0  0  0  0  0  0  0  0  0  # atno 8009 bound_to 7997
  154.5811  140.0653  156.9091 H   0  0  0  0  0  0  0  0  0  0  0  0  # atno 8010 bound_to 7997
  140.4582  143.2461  151.8388 H   0  0  0  0  0  0  0  0  0  0  0  0  # atno 10167 bound_to 10162
  156.3228  130.7544  151.1645 H   0  0  0  0  0  0  0  0  0  0  0  0  # atno 10718 bound_to 10713
  154.8452  135.3456  154.6257 H   0  0  0  0  0  0  0  0  0  0  0  0  # atno 10763 bound_to 10752
  153.6866  135.6977  153.5107 H   0  0  0  0  0  0  0  0  0  0  0  0  # atno 10764 bound_to 10752
  153.2627  135.4318  155.0866 H   0  0  0  0  0  0  0  0  0  0  0  0  # atno 10765 bound_to 10752
  141.1511  133.6722  156.6312 H   0  0  0  0  0  0  0  0  0  0  0  0  # atno 11005 bound_to 11000
  146.3451  139.9390  142.8743 LP  0  0  0  0  0  0  0  0  0  0  0  0  # atno 17320 bound_to 7965
  145.2160  140.9916  143.4073 LP  0  0  0  0  0  0  0  0  0  0  0  0  # atno 17321 bound_to 7965
  139.4803  144.5039  151.9024 LP  0  0  0  0  0  0  0  0  0  0  0  0  # atno 17342 bound_to 10162
  140.4125  144.2350  150.5888 LP  0  0  0  0  0  0  0  0  0  0  0  0  # atno 17343 bound_to 10162
  157.7415  131.0502  150.5090 LP  0  0  0  0  0  0  0  0  0  0  0  0  # atno 17370 bound_to 10713
  156.5245  130.4170  149.6233 LP  0  0  0  0  0  0  0  0  0  0  0  0  # atno 17371 bound_to 10713
  140.3466  134.7804  157.4436 LP  0  0  0  0  0  0  0  0  0  0  0  0  # atno 17394 bound_to 11000
  140.0895  134.5621  155.8458 LP  0  0  0  0  0  0  0  0  0  0  0  0  # atno 17395 bound_to 11000

$$$$
