AV-unprocessed.smi:2685|AV-procd|sdf|10383|dock10
  -GOLD-   2272014413D 1   1.00000     0.00000
 Structure written by MMmdl.
 21 21  0  0  0  0  0  0  0  0  3 V2000
  148.4500  138.5083  155.7638 C   0  0  0  0  0  0  0  0  0  0  0  0
  149.2604  137.9227  156.9060 C   0  0  0  0  0  0  0  0  0  0  0  0
  148.7126  137.7622  158.0563 N   0  0  0  0  0  0  0  0  0  0  0  0
  149.4238  137.2347  159.1513 C   0  0  0  0  0  0  0  0  0  0  0  0
  148.8468  137.0970  160.2278 O   0  0  0  0  0  0  0  0  0  0  0  0
  150.7398  136.8927  158.9766 N   0  5  0  0  0  0  0  0  0  0  0  0
  151.3495  137.0534  157.7755 C   0  0  0  0  0  0  0  0  0  0  0  0
  152.8145  136.6484  157.7025 C   0  0  0  0  0  0  0  0  0  0  0  0
  150.6806  137.5477  156.6652 C   0  0  0  0  0  0  0  0  0  0  0  0
  151.3097  137.7469  155.2835 C   0  0  0  0  0  0  0  0  0  0  0  0
  151.6376  139.2007  154.9200 C   0  0  0  0  0  0  0  0  0  0  0  0
  152.8206  139.5648  155.0984 O   0  0  0  0  0  0  0  0  0  0  0  0
  150.7184  139.9287  154.4829 O   0  5  0  0  0  0  0  0  0  0  0  0
  148.9606  139.3688  155.3313 H   0  0  0  0  0  0  0  0  0  0  0  0
  147.4720  138.8414  156.1134 H   0  0  0  0  0  0  0  0  0  0  0  0
  148.2931  137.7608  154.9862 H   0  0  0  0  0  0  0  0  0  0  0  0
  152.9427  135.7742  157.0645 H   0  0  0  0  0  0  0  0  0  0  0  0
  153.2178  136.4009  158.6853 H   0  0  0  0  0  0  0  0  0  0  0  0
  153.4223  137.4569  157.2960 H   0  0  0  0  0  0  0  0  0  0  0  0
  152.2343  137.1734  155.2248 H   0  0  0  0  0  0  0  0  0  0  0  0
  150.6706  137.3227  154.5095 H   0  0  0  0  0  0  0  0  0  0  0  0
  1  2  1  0  0  0  0
  1 14  1  0  0  0  0
  1 15  1  0  0  0  0
  1 16  1  0  0  0  0
  2  9  1  0  0  0  0
  2  3  2  0  0  0  0
  3  4  1  0  0  0  0
  4  5  2  0  0  0  0
  4  6  1  0  0  0  0
  6  7  1  0  0  0  0
  7  8  1  0  0  0  0
  7  9  2  0  0  0  0
  8 17  1  0  0  0  0
  8 18  1  0  0  0  0
  8 19  1  0  0  0  0
  9 10  1  0  0  0  0
 10 11  1  0  0  0  0
 10 20  1  0  0  0  0
 10 21  1  0  0  0  0
 11 12  2  0  0  0  0
 11 13  1  0  0  0  0
M  CHG  1   6  -1
M  CHG  1  13  -1
M  END
> <s_m_source_file>
AV-unprocessed.smi

> <i_m_source_file_index>
2685

> <i_lp_mmshare_version>
43012

> <i_f3d_flags>
0

> <s_epik_input>
W0NIM11jMW5jKD1PKVtuSF1jKFtDSDNdKWMxW0NIMl1DKD1PKVtPSF0=

> <s_epik_cmdline>
J2VwaWtfcHl0aG9uJywgJy1waCcsICc3LjAnLCAnLXRuJywgJzgnLCAnLW1hJywgJzIwMCcsICctbWV0YWxfYmluZGluZycsICctaW1hZScsICc8aW5maWxlLm1hZT4nLCAnLW9tYWUnLCAnPG91dGZpbGUubWFlPic=

> <r_lp_tautomer_probability>
1

> <r_epik_Ionization_Penalty>
5.93788

> <r_epik_Ionization_Penalty_Charging>
0.439901

> <r_epik_Ionization_Penalty_Neutral>
5.49798

> <r_epik_State_Penalty>
5.49792

> <r_epik_Charging_Adjusted_Penalty>
5.93782

> <i_epik_Tot_Q>
-2

> <i_epik_Tot_abs_Q>
2

> <r_epik_Metal_State_Penalty>
1.50795

> <b_epik_Metal_Only>
1

> <s_lp_Force_Field>
OPLS_2005

> <r_lp_Energy>
12.6786

> <b_lp_Chiralities_Consistent>
1

> <s_lp_Variant>
AV-unprocessed.smi:2685-2

> <Gold.Version>
5.8.1

> <Gold.Id.Protein>
6NUR|6NUR_protein|mol2

> <Gold.PLP.Fitness>
31.8335

> <Gold.PLP.PLP>
-16.0131

> <Gold.PLP.part.hbond>
-4.9885

> <Gold.PLP.part.metal>
0.0000

> <Gold.PLP.part.buried>
-3.7189

> <Gold.PLP.part.nonpolar>
-7.7390

> <Gold.PLP.part.repulsive>
0.1059

> <Gold.PLP.ligand.clash>
0.0000

> <Gold.PLP.ligand.torsion>
0.5025

> <Gold.PLP.Chemscore.Hbond>
5.6080

> <Gold.PLP.Chemscore.CHOScore>
0.0000

> <Gold.PLP.Chemscore.Metal>
0.0000

> <Gold.Chemscore.Hbonds>
donor molecule, donor type, donor heavy atom, donor atom, acceptor molecule, acceptor atom, score
      P1  H  6896  6907       L1     6  1.95
      P1  H  6931  6943       L1     5  0.61
      P1  H  7989  7998       L1    13  0.90
      P1  H  7997  8009       L1    12  2.00

> <Gold.PLP.Chemscore.Internal.Correction>
0.0014

> <Gold.Rescore>
     Score         DG    S(hbond)    S(metal)    S(lipo)     H(rot)  DE(clash)    DE(int)     intcor
     14.95     -15.60       3.52        0.00      18.71       1.50       0.00       0.65       ----

> <Gold.Chemscore.Fitness>
14.9459

> <Gold.Chemscore.DG>
-15.6006

> <Gold.Chemscore.ZeroCoef>
-5.4800

> <Gold.Chemscore.Hbond>
3.5223

> <Gold.Chemscore.Metal>
0.0000

> <Gold.Chemscore.Lipo>
18.7088

> <Gold.Chemscore.Internal_Hbond>
0.0000

> <Gold.Chemscore.DEClash>
0.0000

> <Gold.Chemscore.DEInternal>
0.6548

> <Gold.Chemscore.Rot>
1.4972

> <Gold.Chemscore.Internal.Correction>
   9.000000E+99

> <Gold.Chemscore.Hbonds>
donor molecule, donor type, donor heavy atom, donor atom, acceptor molecule, acceptor atom, score
      P1  H  6896  6907       L1     6  0.57
      P1  H  6931  6943       L1     5  0.56
      P1  H  7989  7998       L1    13  0.18
      P1  H  7997  8009       L1    12  1.00

> <Gold.Chemscore.Hbond.Weighted>
-11.7646

> <Gold.Chemscore.Metal.Weighted>
-0.0000

> <Gold.Chemscore.Lipo.Weighted>
-2.1889

> <Gold.Chemscore.Internal_Hbond.Weighted>
0.0000

> <Gold.Chemscore.DEClash.Weighted>
0.0000

> <Gold.Chemscore.DEInternal.Weighted>
0.6548

> <Gold.Chemscore.Rot.Weighted>
3.8329

> <Gold.Chemscore.Internal.Correction.Weighted>
   9.000000E+99

> <Gold.Protein.RotatedTorsions>
[ 6907 6896 6895 6894 ] final  -28.06 input  -60.11 | X-H torsion
[ 7974 7965 7964 7962 ] final -179.41 input  175.53 | X-H torsion
[ 8008 7997 7996 7995 ] final -142.57 input   59.86 | X-H torsion
[ 10167 10162 10161 10158 ] final  -45.29 input  -65.29 | X-H torsion
[ 10718 10713 10712 10709 ] final   23.03 input   66.30 | X-H torsion
[ 10763 10752 10751 10750 ] final   52.84 input  -60.55 | X-H torsion
[ 11005 11000 10999 10996 ] final -162.53 input  -57.11 | X-H torsion

> <Gold.Protein.ActiveResidues>
 VAL166  LYS551  ARG553  GLY616  TRP617  ASP618  TYR619  PRO620  LYS621  CYS622 
 ASP623  PHE694  ASN695  SER759  ASP760  ASP761  ALA762  ILE779  LEU786  VAL792 
 PHE793  MET794  SER795  GLU796  ALA797  LYS798  CYS799  TRP800  GLU811  SER814 

> <Gold.Protein.RotatedAtoms>
  151.1382  135.0166  159.8613 H   0  0  0  0  0  0  0  0  0  0  0  0  # atno 6907 bound_to 6896
  152.5452  134.1530  159.8536 H   0  0  0  0  0  0  0  0  0  0  0  0  # atno 6908 bound_to 6896
  151.1603  133.4804  159.2627 H   0  0  0  0  0  0  0  0  0  0  0  0  # atno 6909 bound_to 6896
  144.7136  140.0721  143.6429 H   0  0  0  0  0  0  0  0  0  0  0  0  # atno 7974 bound_to 7965
  155.4965  140.0572  157.2946 H   0  0  0  0  0  0  0  0  0  0  0  0  # atno 8008 bound_to 7997
  154.4603  140.1993  156.0213 H   0  0  0  0  0  0  0  0  0  0  0  0  # atno 8009 bound_to 7997
  156.0878  140.3238  155.7780 H   0  0  0  0  0  0  0  0  0  0  0  0  # atno 8010 bound_to 7997
  140.6864  143.2887  151.3617 H   0  0  0  0  0  0  0  0  0  0  0  0  # atno 10167 bound_to 10162
  157.1605  130.6714  149.6042 H   0  0  0  0  0  0  0  0  0  0  0  0  # atno 10718 bound_to 10713
  152.9791  135.5799  154.4645 H   0  0  0  0  0  0  0  0  0  0  0  0  # atno 10763 bound_to 10752
  154.4216  135.2772  155.1973 H   0  0  0  0  0  0  0  0  0  0  0  0  # atno 10764 bound_to 10752
  154.3720  135.6166  153.5799 H   0  0  0  0  0  0  0  0  0  0  0  0  # atno 10765 bound_to 10752
  140.6082  134.4876  157.5213 H   0  0  0  0  0  0  0  0  0  0  0  0  # atno 11005 bound_to 11000
  145.9774  139.2915  143.1062 LP  0  0  0  0  0  0  0  0  0  0  0  0  # atno 17320 bound_to 7965
  145.9049  140.9219  143.0484 LP  0  0  0  0  0  0  0  0  0  0  0  0  # atno 17321 bound_to 7965
  139.6226  144.0877  152.2405 LP  0  0  0  0  0  0  0  0  0  0  0  0  # atno 17342 bound_to 10162
  140.0326  144.6069  150.7475 LP  0  0  0  0  0  0  0  0  0  0  0  0  # atno 17343 bound_to 10162
  155.9754  130.4713  150.6461 LP  0  0  0  0  0  0  0  0  0  0  0  0  # atno 17370 bound_to 10713
  157.4137  131.0827  151.1197 LP  0  0  0  0  0  0  0  0  0  0  0  0  # atno 17371 bound_to 10713
  139.9203  134.8162  156.1232 LP  0  0  0  0  0  0  0  0  0  0  0  0  # atno 17394 bound_to 11000
  141.0826  133.6748  156.2368 LP  0  0  0  0  0  0  0  0  0  0  0  0  # atno 17395 bound_to 11000

$$$$
