AV-unprocessed.smi:2407|AV-procd|sdf|9519|dock6
  -GOLD-   2272013153D 1   1.00000     0.00000
 Structure written by MMmdl.
 38 39  0  0  0  0  0  0  0  0  1 V2000
  147.4588  137.2093  163.3547 C   0  0  0  0  0  0  0  0  0  0  0  0
  147.6072  136.4674  162.0591 C   0  0  0  0  0  0  0  0  0  0  0  0
  147.2475  135.0701  161.9088 C   0  0  0  0  0  0  0  0  0  0  0  0
  147.4163  134.4681  160.7119 C   0  0  0  0  0  0  0  0  0  0  0  0
  147.9542  135.1881  159.5596 C   0  0  0  0  0  0  0  0  0  0  0  0
  148.1377  134.6647  158.4607 O   0  0  0  0  0  0  0  0  0  0  0  0
  148.2440  136.4969  159.8174 N   0  0  0  0  0  0  0  0  0  0  0  0
  148.8054  137.3634  158.7758 C   0  0  0  0  0  0  0  0  0  0  0  0
  150.3488  137.4385  158.8672 C   0  0  1  0  0  0  0  0  0  0  0  0
  150.9073  136.3500  158.1596 O   0  0  0  0  0  0  0  0  0  0  0  0
  150.9214  138.7297  158.2640 C   0  0  0  0  0  0  0  0  0  0  0  0
  152.0646  139.1139  159.0160 O   0  0  0  0  0  0  0  0  0  0  0  0
  152.3039  140.4572  159.2196 C   0  0  0  0  0  0  0  0  0  0  0  0
  151.4394  141.4836  158.7597 C   0  0  0  0  0  0  0  0  0  0  0  0
  151.7434  142.8366  158.9979 C   0  0  0  0  0  0  0  0  0  0  0  0
  152.9113  143.1827  159.6983 C   0  0  0  0  0  0  0  0  0  0  0  0
  153.7750  142.1742  160.1615 C   0  0  0  0  0  0  0  0  0  0  0  0
  153.4800  140.8120  159.9263 C   0  0  0  0  0  0  0  0  0  0  0  0
  154.4146  139.7238  160.4446 C   0  0  0  0  0  0  0  0  0  0  0  0
  153.7501  138.6277  160.8129 F   0  0  0  0  0  0  0  0  0  0  0  0
  155.2730  139.3862  159.4828 F   0  0  0  0  0  0  0  0  0  0  0  0
  155.0972  140.1671  161.5008 F   0  0  0  0  0  0  0  0  0  0  0  0
  148.0787  137.1157  161.0448 N   0  0  0  0  0  0  0  0  0  0  0  0
  146.8620  136.6407  164.0680 H   0  0  0  0  0  0  0  0  0  0  0  0
  146.9672  138.1707  163.2020 H   0  0  0  0  0  0  0  0  0  0  0  0
  148.4329  137.3956  163.8072 H   0  0  0  0  0  0  0  0  0  0  0  0
  146.8500  134.5243  162.7518 H   0  0  0  0  0  0  0  0  0  0  0  0
  147.1485  133.4276  160.6016 H   0  0  0  0  0  0  0  0  0  0  0  0
  148.4804  137.0246  157.7898 H   0  0  0  0  0  0  0  0  0  0  0  0
  148.3742  138.3621  158.8702 H   0  0  0  0  0  0  0  0  0  0  0  0
  150.6809  137.3600  159.9038 H   0  0  0  0  0  0  0  0  0  0  0  0
  151.7682  136.1767  158.5100 H   0  0  0  0  0  0  0  0  0  0  0  0
  151.2076  138.5483  157.2265 H   0  0  0  0  0  0  0  0  0  0  0  0
  150.1698  139.5211  158.2771 H   0  0  0  0  0  0  0  0  0  0  0  0
  150.5328  141.2603  158.2187 H   0  0  0  0  0  0  0  0  0  0  0  0
  151.0782  143.6096  158.6425 H   0  0  0  0  0  0  0  0  0  0  0  0
  153.1442  144.2212  159.8824 H   0  0  0  0  0  0  0  0  0  0  0  0
  154.6650  142.4595  160.7021 H   0  0  0  0  0  0  0  0  0  0  0  0
  1  2  1  0  0  0  0
  1 24  1  0  0  0  0
  1 25  1  0  0  0  0
  1 26  1  0  0  0  0
  2 23  2  0  0  0  0
  2  3  1  0  0  0  0
  3  4  2  0  0  0  0
  3 27  1  0  0  0  0
  4  5  1  0  0  0  0
  4 28  1  0  0  0  0
  5  6  2  0  0  0  0
  5  7  1  0  0  0  0
  7  8  1  0  0  0  0
  7 23  1  0  0  0  0
  8  9  1  0  0  0  0
  8 29  1  0  0  0  0
  8 30  1  0  0  0  0
  9 10  1  0  0  0  0
  9 11  1  0  0  0  0
  9 31  1  0  0  0  0
 10 32  1  0  0  0  0
 11 12  1  0  0  0  0
 11 33  1  0  0  0  0
 11 34  1  0  0  0  0
 12 13  1  0  0  0  0
 13 18  1  0  0  0  0
 13 14  2  0  0  0  0
 14 15  1  0  0  0  0
 14 35  1  0  0  0  0
 15 16  2  0  0  0  0
 15 36  1  0  0  0  0
 16 17  1  0  0  0  0
 16 37  1  0  0  0  0
 17 18  2  0  0  0  0
 17 38  1  0  0  0  0
 18 19  1  0  0  0  0
 19 20  1  0  0  0  0
 19 21  1  0  0  0  0
 19 22  1  0  0  0  0
M  END
> <s_m_source_file>
AV-unprocessed.smi

> <i_m_source_file_index>
2407

> <i_lp_mmshare_version>
43012

> <i_f3d_flags>
0

> <s_epik_input>
W0NIM11jMVtjSF1bY0hdYyg9TyluKG4xKVtDSDJdW0NASF0oW09IXSlbQ0gyXU9jMltjSF1bY0hdW2NIXVtjSF1jMkMoRikoRilG

> <s_epik_cmdline>
J2VwaWtfcHl0aG9uJywgJy1waCcsICc3LjAnLCAnLXRuJywgJzgnLCAnLW1hJywgJzIwMCcsICctbWV0YWxfYmluZGluZycsICctaW1hZScsICc8aW5maWxlLm1hZT4nLCAnLW9tYWUnLCAnPG91dGZpbGUubWFlPic=

> <r_lp_tautomer_probability>
1

> <r_epik_Ionization_Penalty>
5.91655e-06

> <r_epik_Ionization_Penalty_Charging>
5.79937e-06

> <r_epik_Ionization_Penalty_Neutral>
1.17174e-07

> <r_epik_State_Penalty>
-0

> <r_epik_Charging_Adjusted_Penalty>
5.79937e-06

> <i_epik_Tot_Q>
0

> <i_epik_Tot_abs_Q>
0

> <r_epik_Metal_State_Penalty>
-0

> <b_epik_Metal_Only>
0

> <s_lp_Force_Field>
OPLS_2005

> <r_lp_Energy>
30.1001

> <b_lp_Chiralities_Consistent>
1

> <s_lp_Variant>
AV-unprocessed.smi:2407-2

> <Gold.Version>
5.8.1

> <Gold.Id.Protein>
6NUR|6NUR_protein|mol2

> <Gold.PLP.Fitness>
45.6747

> <Gold.PLP.PLP>
-45.9853

> <Gold.PLP.part.hbond>
-2.9132

> <Gold.PLP.part.metal>
0.0000

> <Gold.PLP.part.buried>
-5.2387

> <Gold.PLP.part.nonpolar>
-38.2395

> <Gold.PLP.part.repulsive>
0.0000

> <Gold.PLP.ligand.clash>
0.0000

> <Gold.PLP.ligand.torsion>
2.3933

> <Gold.PLP.Chemscore.Hbond>
1.2974

> <Gold.PLP.Chemscore.CHOScore>
0.0000

> <Gold.PLP.Chemscore.Metal>
0.0000

> <Gold.Chemscore.Hbonds>
donor molecule, donor type, donor heavy atom, donor atom, acceptor molecule, acceptor atom, score
      P1  H  6931  6943       L1    23  0.95
      P1  H  6934  6947       L1    23  0.57

> <Gold.PLP.Chemscore.Internal.Correction>
0.5837

> <Gold.Rescore>
     Score         DG    S(hbond)    S(metal)    S(lipo)     H(rot)  DE(clash)    DE(int)     intcor
     10.61     -14.71       0.82        0.00     112.43       2.60       0.10       4.00       ----

> <Gold.Chemscore.Fitness>
10.6066

> <Gold.Chemscore.DG>
-14.7099

> <Gold.Chemscore.ZeroCoef>
-5.4800

> <Gold.Chemscore.Hbond>
0.8204

> <Gold.Chemscore.Metal>
0.0000

> <Gold.Chemscore.Lipo>
112.4320

> <Gold.Chemscore.Internal_Hbond>
0.0000

> <Gold.Chemscore.DEClash>
0.1004

> <Gold.Chemscore.DEInternal>
4.0029

> <Gold.Chemscore.Rot>
2.6035

> <Gold.Chemscore.Internal.Correction>
   9.000000E+99

> <Gold.Chemscore.Hbonds>
donor molecule, donor type, donor heavy atom, donor atom, acceptor molecule, acceptor atom, score
      P1  H  6931  6943       L1    23  0.20
      P1  H  6934  6947       L1    23  0.37

> <Gold.Chemscore.Hbond.Weighted>
-2.7403

> <Gold.Chemscore.Metal.Weighted>
-0.0000

> <Gold.Chemscore.Lipo.Weighted>
-13.1545

> <Gold.Chemscore.Internal_Hbond.Weighted>
0.0000

> <Gold.Chemscore.DEClash.Weighted>
0.1004

> <Gold.Chemscore.DEInternal.Weighted>
4.0029

> <Gold.Chemscore.Rot.Weighted>
6.6649

> <Gold.Chemscore.Internal.Correction.Weighted>
   9.000000E+99

> <Gold.Protein.RotatedTorsions>
[ 6907 6896 6895 6894 ] final -122.93 input  -60.11 | X-H torsion
[ 7974 7965 7964 7962 ] final -177.63 input  175.53 | X-H torsion
[ 8008 7997 7996 7995 ] final  -43.36 input   59.86 | X-H torsion
[ 10167 10162 10161 10158 ] final -133.73 input  -65.29 | X-H torsion
[ 10718 10713 10712 10709 ] final   14.48 input   66.30 | X-H torsion
[ 10763 10752 10751 10750 ] final -130.45 input  -60.55 | X-H torsion
[ 11005 11000 10999 10996 ] final -101.06 input  -57.11 | X-H torsion

> <Gold.Protein.ActiveResidues>
 VAL166  LYS551  ARG553  GLY616  TRP617  ASP618  TYR619  PRO620  LYS621  CYS622 
 ASP623  PHE694  ASN695  SER759  ASP760  ASP761  ALA762  ILE779  LEU786  VAL792 
 PHE793  MET794  SER795  GLU796  ALA797  LYS798  CYS799  TRP800  GLU811  SER814 

> <Gold.Protein.RotatedAtoms>
  150.8622  133.7627  159.2988 H   0  0  0  0  0  0  0  0  0  0  0  0  # atno 6907 bound_to 6896
  151.5265  135.1066  159.9901 H   0  0  0  0  0  0  0  0  0  0  0  0  # atno 6908 bound_to 6896
  152.4635  133.7828  159.6915 H   0  0  0  0  0  0  0  0  0  0  0  0  # atno 6909 bound_to 6896
  144.7128  140.0991  143.6417 H   0  0  0  0  0  0  0  0  0  0  0  0  # atno 7974 bound_to 7965
  154.3997  140.1449  156.3507 H   0  0  0  0  0  0  0  0  0  0  0  0  # atno 8008 bound_to 7997
  155.8272  140.3467  155.5529 H   0  0  0  0  0  0  0  0  0  0  0  0  # atno 8009 bound_to 7997
  155.8226  140.0900  157.1830 H   0  0  0  0  0  0  0  0  0  0  0  0  # atno 8010 bound_to 7997
  139.8953  143.6673  152.2605 H   0  0  0  0  0  0  0  0  0  0  0  0  # atno 10167 bound_to 10162
  157.0397  130.6226  149.5749 H   0  0  0  0  0  0  0  0  0  0  0  0  # atno 10718 bound_to 10713
  154.8755  135.3862  154.4086 H   0  0  0  0  0  0  0  0  0  0  0  0  # atno 10763 bound_to 10752
  153.4802  135.7030  153.5947 H   0  0  0  0  0  0  0  0  0  0  0  0  # atno 10764 bound_to 10752
  153.4366  135.3866  155.2170 H   0  0  0  0  0  0  0  0  0  0  0  0  # atno 10765 bound_to 10752
  141.1246  133.8448  157.1183 H   0  0  0  0  0  0  0  0  0  0  0  0  # atno 11005 bound_to 11000
  145.9554  139.2763  143.1187 LP  0  0  0  0  0  0  0  0  0  0  0  0  # atno 17320 bound_to 7965
  145.9278  140.9070  143.0372 LP  0  0  0  0  0  0  0  0  0  0  0  0  # atno 17321 bound_to 7965
  139.7073  144.7626  151.1171 LP  0  0  0  0  0  0  0  0  0  0  0  0  # atno 17342 bound_to 10162
  140.7718  143.5377  150.9349 LP  0  0  0  0  0  0  0  0  0  0  0  0  # atno 17343 bound_to 10162
  156.0042  130.5126  150.7771 LP  0  0  0  0  0  0  0  0  0  0  0  0  # atno 17370 bound_to 10713
  157.5114  131.0925  151.0194 LP  0  0  0  0  0  0  0  0  0  0  0  0  # atno 17371 bound_to 10713
  140.0233  134.9936  157.0635 LP  0  0  0  0  0  0  0  0  0  0  0  0  # atno 17394 bound_to 11000
  140.4404  134.1687  155.7173 LP  0  0  0  0  0  0  0  0  0  0  0  0  # atno 17395 bound_to 11000

$$$$
