AV-unprocessed.smi:626|AV-procd|sdf|3111|dock10
  -GOLD-   22720 0 33D 1   1.00000     0.00000
 Structure written by MMmdl.
 34 36  0  0  0  0  0  0  0  0  1 V2000
  146.6960  146.0175  160.1288 C   0  0  0  0  0  0  0  0  0  0  0  0
  146.6830  144.8838  159.2172 N   0  0  0  0  0  0  0  0  0  0  0  0
  146.4920  143.6119  159.5973 C   0  0  0  0  0  0  0  0  0  0  0  0
  146.3125  143.2766  160.7683 O   0  0  0  0  0  0  0  0  0  0  0  0
  146.5066  142.5554  158.4900 C   0  0  0  0  0  0  0  0  0  0  0  0
  147.8993  142.3205  157.9993 C   0  0  0  0  0  0  0  0  0  0  0  0
  148.1608  141.4073  157.0717 N   0  0  0  0  0  0  0  0  0  0  0  0
  149.5459  141.5217  156.8871 O   0  0  0  0  0  0  0  0  0  0  0  0
  149.9633  142.4738  157.7569 C   0  0  0  0  0  0  0  0  0  0  0  0
  151.4047  142.8906  157.7135 C   0  0  2  0  0  0  0  0  0  0  0  0
  152.1994  142.6623  159.0195 C   0  0  0  0  0  0  0  0  0  0  0  0
  152.8475  144.0393  159.2621 C   0  0  2  0  0  0  0  0  0  0  0  0
  151.7675  145.0365  159.7240 C   0  0  0  0  0  0  0  0  0  0  0  0
  150.9766  145.3076  158.4300 C   0  0  0  0  0  0  0  0  0  0  0  0
  151.6715  144.3839  157.4088 C   0  0  1  0  0  0  0  0  0  0  0  0
  153.1288  144.5175  157.8417 C   0  0  0  0  0  0  0  0  0  0  0  0
  148.9688  143.0359  158.4435 N   0  0  0  0  0  0  0  0  0  0  0  0
  146.9626  146.9260  159.5884 H   0  0  0  0  0  0  0  0  0  0  0  0
  147.4246  145.8705  160.9273 H   0  0  0  0  0  0  0  0  0  0  0  0
  145.7123  146.1631  160.5769 H   0  0  0  0  0  0  0  0  0  0  0  0
  146.8222  145.0781  158.2359 H   0  0  0  0  0  0  0  0  0  0  0  0
  146.0797  141.6165  158.8464 H   0  0  0  0  0  0  0  0  0  0  0  0
  145.8796  142.8934  157.6640 H   0  0  0  0  0  0  0  0  0  0  0  0
  151.8787  142.2988  156.9284 H   0  0  0  0  0  0  0  0  0  0  0  0
  151.5806  142.3580  159.8644 H   0  0  0  0  0  0  0  0  0  0  0  0
  152.9567  141.8906  158.8759 H   0  0  0  0  0  0  0  0  0  0  0  0
  153.7175  144.0028  159.9184 H   0  0  0  0  0  0  0  0  0  0  0  0
  151.1394  144.6267  160.5159 H   0  0  0  0  0  0  0  0  0  0  0  0
  152.2187  145.9568  160.0970 H   0  0  0  0  0  0  0  0  0  0  0  0
  149.9096  145.1162  158.5357 H   0  0  0  0  0  0  0  0  0  0  0  0
  151.0873  146.3514  158.1331 H   0  0  0  0  0  0  0  0  0  0  0  0
  151.4724  144.6590  156.3726 H   0  0  0  0  0  0  0  0  0  0  0  0
  153.5040  145.5415  157.7956 H   0  0  0  0  0  0  0  0  0  0  0  0
  153.8079  143.8636  157.2917 H   0  0  0  0  0  0  0  0  0  0  0  0
  1  2  1  0  0  0  0
  1 18  1  0  0  0  0
  1 19  1  0  0  0  0
  1 20  1  0  0  0  0
  2  3  1  0  0  0  0
  2 21  1  0  0  0  0
  3  4  2  0  0  0  0
  3  5  1  0  0  0  0
  5  6  1  0  0  0  0
  5 22  1  0  0  0  0
  5 23  1  0  0  0  0
  6 17  1  0  0  0  0
  6  7  2  0  0  0  0
  7  8  1  0  0  0  0
  8  9  1  0  0  0  0
  9 10  1  0  0  0  0
  9 17  2  0  0  0  0
 10 15  1  0  0  0  0
 10 11  1  0  0  0  0
 10 24  1  0  0  0  0
 11 12  1  0  0  0  0
 11 25  1  0  0  0  0
 11 26  1  0  0  0  0
 12 16  1  0  0  0  0
 12 13  1  0  0  0  0
 12 27  1  0  0  0  0
 13 14  1  0  0  0  0
 13 28  1  0  0  0  0
 13 29  1  0  0  0  0
 14 15  1  0  0  0  0
 14 30  1  0  0  0  0
 14 31  1  0  0  0  0
 15 16  1  0  0  0  0
 15 32  1  0  0  0  0
 16 33  1  0  0  0  0
 16 34  1  0  0  0  0
M  END
> <s_m_source_file>
AV-unprocessed.smi

> <i_m_source_file_index>
626

> <i_lp_mmshare_version>
43012

> <i_f3d_flags>
0

> <s_epik_input>
W0NIM11bTkhdQyg9TylbQ0gyXWMxbm9jKG4xKVtDQEhdKFtDSDJdW0NAQEhdMjMpW0NAQEhdKFtDSDJdMylbQ0gyXVtDSDJdMg==

> <s_epik_cmdline>
J2VwaWtfcHl0aG9uJywgJy1waCcsICc3LjAnLCAnLXRuJywgJzgnLCAnLW1hJywgJzIwMCcsICctbWV0YWxfYmluZGluZycsICctaW1hZScsICc8aW5maWxlLm1hZT4nLCAnLW9tYWUnLCAnPG91dGZpbGUubWFlPic=

> <r_lp_tautomer_probability>
1

> <r_epik_Ionization_Penalty>
1.02916e-07

> <r_epik_Ionization_Penalty_Charging>
0

> <r_epik_Ionization_Penalty_Neutral>
1.02916e-07

> <r_epik_State_Penalty>
-0

> <r_epik_Charging_Adjusted_Penalty>
0

> <i_epik_Tot_Q>
0

> <i_epik_Tot_abs_Q>
0

> <r_epik_Metal_State_Penalty>
-0

> <b_epik_Metal_Only>
0

> <s_lp_Force_Field>
OPLS_2005

> <r_lp_Energy>
49.4755

> <b_lp_Chiralities_Consistent>
1

> <s_lp_Variant>
AV-unprocessed.smi:626-3

> <Gold.Version>
5.8.1

> <Gold.Id.Protein>
6NUR|6NUR_protein|mol2

> <Gold.PLP.Fitness>
42.1641

> <Gold.PLP.PLP>
-35.2070

> <Gold.PLP.part.hbond>
-3.0000

> <Gold.PLP.part.metal>
0.0000

> <Gold.PLP.part.buried>
-5.6820

> <Gold.PLP.part.nonpolar>
-27.7219

> <Gold.PLP.part.repulsive>
0.4369

> <Gold.PLP.ligand.clash>
0.0000

> <Gold.PLP.ligand.torsion>
0.2514

> <Gold.PLP.Chemscore.Hbond>
2.4591

> <Gold.PLP.Chemscore.CHOScore>
0.0000

> <Gold.PLP.Chemscore.Metal>
0.0000

> <Gold.Chemscore.Hbonds>
donor molecule, donor type, donor heavy atom, donor atom, acceptor molecule, acceptor atom, score
      L1  H     2    21       P1  8029  0.78

> <Gold.PLP.Chemscore.Internal.Correction>
0.0825

> <Gold.Rescore>
     Score         DG    S(hbond)    S(metal)    S(lipo)     H(rot)  DE(clash)    DE(int)     intcor
     18.44     -19.06       2.06        0.00      92.54       1.61       0.18       0.43       ----

> <Gold.Chemscore.Fitness>
18.4402

> <Gold.Chemscore.DG>
-19.0561

> <Gold.Chemscore.ZeroCoef>
-5.4800

> <Gold.Chemscore.Hbond>
2.0585

> <Gold.Chemscore.Metal>
0.0000

> <Gold.Chemscore.Lipo>
92.5403

> <Gold.Chemscore.Internal_Hbond>
0.0000

> <Gold.Chemscore.DEClash>
0.1847

> <Gold.Chemscore.DEInternal>
0.4311

> <Gold.Chemscore.Rot>
1.6119

> <Gold.Chemscore.Internal.Correction>
   9.000000E+99

> <Gold.Chemscore.Hbonds>
donor molecule, donor type, donor heavy atom, donor atom, acceptor molecule, acceptor atom, score
      L1  H     2    21       P1  8029  0.76
      P1  H  6933  6944       L1     4  0.02
      P1  H  6934  6946       L1     4  0.01

> <Gold.Chemscore.Hbond.Weighted>
-6.8754

> <Gold.Chemscore.Metal.Weighted>
-0.0000

> <Gold.Chemscore.Lipo.Weighted>
-10.8272

> <Gold.Chemscore.Internal_Hbond.Weighted>
0.0000

> <Gold.Chemscore.DEClash.Weighted>
0.1847

> <Gold.Chemscore.DEInternal.Weighted>
0.4311

> <Gold.Chemscore.Rot.Weighted>
4.1266

> <Gold.Chemscore.Internal.Correction.Weighted>
   9.000000E+99

> <Gold.Protein.RotatedTorsions>
[ 6907 6896 6895 6894 ] final   51.41 input  -60.11 | X-H torsion
[ 7974 7965 7964 7962 ] final   88.80 input  175.53 | X-H torsion
[ 8008 7997 7996 7995 ] final   87.41 input   59.86 | X-H torsion
[ 10167 10162 10161 10158 ] final  179.70 input  -65.29 | X-H torsion
[ 10718 10713 10712 10709 ] final  109.37 input   66.30 | X-H torsion
[ 10763 10752 10751 10750 ] final  164.62 input  -60.55 | X-H torsion
[ 11005 11000 10999 10996 ] final  -56.14 input  -57.11 | X-H torsion

> <Gold.Protein.ActiveResidues>
 VAL166  LYS551  ARG553  GLY616  TRP617  ASP618  TYR619  PRO620  LYS621  CYS622 
 ASP623  PHE694  ASN695  SER759  ASP760  ASP761  ALA762  ILE779  LEU786  VAL792 
 PHE793  MET794  SER795  GLU796  ALA797  LYS798  CYS799  TRP800  GLU811  SER814 

> <Gold.Protein.RotatedAtoms>
  152.3123  134.7482  160.0333 H   0  0  0  0  0  0  0  0  0  0  0  0  # atno 6907 bound_to 6896
  151.7959  133.3359  159.3520 H   0  0  0  0  0  0  0  0  0  0  0  0  # atno 6908 bound_to 6896
  150.7326  134.5730  159.5944 H   0  0  0  0  0  0  0  0  0  0  0  0  # atno 6909 bound_to 6896
  145.5409  139.2288  143.2566 H   0  0  0  0  0  0  0  0  0  0  0  0  # atno 7974 bound_to 7965
  155.9750  140.3382  155.6610 H   0  0  0  0  0  0  0  0  0  0  0  0  # atno 8008 bound_to 7997
  155.6625  140.0717  157.2567 H   0  0  0  0  0  0  0  0  0  0  0  0  # atno 8009 bound_to 7997
  154.4176  140.1706  156.1779 H   0  0  0  0  0  0  0  0  0  0  0  0  # atno 8010 bound_to 7997
  139.5348  144.2529  152.0770 H   0  0  0  0  0  0  0  0  0  0  0  0  # atno 10167 bound_to 10162
  157.6544  131.0912  150.6444 H   0  0  0  0  0  0  0  0  0  0  0  0  # atno 10718 bound_to 10713
  154.3117  135.2757  155.2563 H   0  0  0  0  0  0  0  0  0  0  0  0  # atno 10763 bound_to 10752
  154.4955  135.5822  153.6495 H   0  0  0  0  0  0  0  0  0  0  0  0  # atno 10764 bound_to 10752
  152.9887  135.6145  154.3295 H   0  0  0  0  0  0  0  0  0  0  0  0  # atno 10765 bound_to 10752
  141.1106  133.6611  156.4574 H   0  0  0  0  0  0  0  0  0  0  0  0  # atno 11005 bound_to 11000
  146.1982  140.6229  142.9114 LP  0  0  0  0  0  0  0  0  0  0  0  0  # atno 17320 bound_to 7965
  144.7577  140.5348  143.6757 LP  0  0  0  0  0  0  0  0  0  0  0  0  # atno 17321 bound_to 7965
  140.1998  144.4669  150.6437 LP  0  0  0  0  0  0  0  0  0  0  0  0  # atno 17342 bound_to 10162
  140.6548  143.2234  151.5994 LP  0  0  0  0  0  0  0  0  0  0  0  0  # atno 17343 bound_to 10162
  156.6752  130.4551  149.5645 LP  0  0  0  0  0  0  0  0  0  0  0  0  # atno 17370 bound_to 10713
  156.1969  130.6595  151.1124 LP  0  0  0  0  0  0  0  0  0  0  0  0  # atno 17371 bound_to 10713
  140.4785  134.6687  157.5160 LP  0  0  0  0  0  0  0  0  0  0  0  0  # atno 17394 bound_to 11000
  139.9998  134.6854  155.9549 LP  0  0  0  0  0  0  0  0  0  0  0  0  # atno 17395 bound_to 11000

$$$$
