AV-unprocessed.smi:3308|AV-procd|sdf|12714|dock2
  -GOLD-   2272019 53D 1   1.00000     0.00000
 Structure written by MMmdl.
 40 41  0  0  0  0  0  0  0  0  1 V2000
  153.1568  138.1415  156.0014 C   0  0  0  0  0  0  0  0  0  0  0  0
  152.0038  139.1324  155.7290 C   0  0  2  0  0  0  0  0  0  0  0  0
  151.1429  139.1918  156.9070 N   0  0  0  0  0  0  0  0  0  0  0  0
  150.9395  140.5578  157.4063 C   0  0  0  0  0  0  0  0  0  0  0  0
  152.1259  141.0219  158.2577 C   0  0  0  0  0  0  0  0  0  0  0  0
  153.0995  140.2769  158.3710 O   0  0  0  0  0  0  0  0  0  0  0  0
  152.0693  142.2314  158.8553 N   0  0  0  0  0  0  0  0  0  0  0  0
  150.9273  143.1356  158.7327 C   0  0  0  0  0  0  0  0  0  0  0  0
  151.3789  144.4607  159.3473 C   0  0  0  0  0  0  0  0  0  0  0  0
  152.4686  144.0610  160.3321 C   0  0  0  0  0  0  0  0  0  0  0  0
  153.1061  142.8225  159.7020 C   0  0  0  0  0  0  0  0  0  0  0  0
  151.1282  138.7306  154.5115 C   0  0  1  0  0  0  0  0  0  0  0  0
  150.7073  137.2489  154.5465 C   0  0  0  0  0  0  0  0  0  0  0  0
  149.9434  139.5720  154.3934 N   0  0  0  0  0  0  0  0  0  0  0  0
  148.6635  139.2122  154.0199 C   0  0  0  0  0  0  0  0  0  0  0  0
  147.8934  140.3388  154.0618 C   0  0  0  0  0  0  0  0  0  0  0  0
  148.8009  141.3527  154.4773 C   0  0  0  0  0  0  0  0  0  0  0  0
  150.0251  140.8915  154.6750 N   0  0  0  0  0  0  0  0  0  0  0  0
  153.8523  138.0939  155.1636 H   0  0  0  0  0  0  0  0  0  0  0  0
  152.7782  137.1330  156.1720 H   0  0  0  0  0  0  0  0  0  0  0  0
  153.7457  138.4250  156.8729 H   0  0  0  0  0  0  0  0  0  0  0  0
  152.4259  140.1196  155.5316 H   0  0  0  0  0  0  0  0  0  0  0  0
  151.5080  138.5780  157.6210 H   0  0  0  0  0  0  0  0  0  0  0  0
  150.7751  141.2537  156.5846 H   0  0  0  0  0  0  0  0  0  0  0  0
  150.0400  140.5883  158.0235 H   0  0  0  0  0  0  0  0  0  0  0  0
  150.6148  143.2663  157.6955 H   0  0  0  0  0  0  0  0  0  0  0  0
  150.0860  142.7214  159.2906 H   0  0  0  0  0  0  0  0  0  0  0  0
  151.8050  145.0973  158.5706 H   0  0  0  0  0  0  0  0  0  0  0  0
  150.5621  145.0088  159.8177 H   0  0  0  0  0  0  0  0  0  0  0  0
  153.1875  144.8600  160.5163 H   0  0  0  0  0  0  0  0  0  0  0  0
  152.0155  143.7929  161.2876 H   0  0  0  0  0  0  0  0  0  0  0  0
  153.4631  142.1346  160.4693 H   0  0  0  0  0  0  0  0  0  0  0  0
  153.9547  143.1083  159.0786 H   0  0  0  0  0  0  0  0  0  0  0  0
  151.7206  138.8803  153.6061 H   0  0  0  0  0  0  0  0  0  0  0  0
  151.5723  136.5859  154.5272 H   0  0  0  0  0  0  0  0  0  0  0  0
  150.0893  136.9980  153.6838 H   0  0  0  0  0  0  0  0  0  0  0  0
  150.1343  137.0171  155.4449 H   0  0  0  0  0  0  0  0  0  0  0  0
  148.4105  138.1950  153.7595 H   0  0  0  0  0  0  0  0  0  0  0  0
  146.8420  140.4259  153.8306 H   0  0  0  0  0  0  0  0  0  0  0  0
  148.6083  142.4028  154.6404 H   0  0  0  0  0  0  0  0  0  0  0  0
  1  2  1  0  0  0  0
  1 19  1  0  0  0  0
  1 20  1  0  0  0  0
  1 21  1  0  0  0  0
  2  3  1  0  0  0  0
  2 12  1  0  0  0  0
  2 22  1  0  0  0  0
  3  4  1  0  0  0  0
  3 23  1  0  0  0  0
  4  5  1  0  0  0  0
  4 24  1  0  0  0  0
  4 25  1  0  0  0  0
  5  6  2  0  0  0  0
  5  7  1  0  0  0  0
  7 11  1  0  0  0  0
  7  8  1  0  0  0  0
  8  9  1  0  0  0  0
  8 26  1  0  0  0  0
  8 27  1  0  0  0  0
  9 10  1  0  0  0  0
  9 28  1  0  0  0  0
  9 29  1  0  0  0  0
 10 11  1  0  0  0  0
 10 30  1  0  0  0  0
 10 31  1  0  0  0  0
 11 32  1  0  0  0  0
 11 33  1  0  0  0  0
 12 13  1  0  0  0  0
 12 14  1  0  0  0  0
 12 34  1  0  0  0  0
 13 35  1  0  0  0  0
 13 36  1  0  0  0  0
 13 37  1  0  0  0  0
 14 18  1  0  0  0  0
 14 15  1  0  0  0  0
 15 16  2  0  0  0  0
 15 38  1  0  0  0  0
 16 17  1  0  0  0  0
 16 39  1  0  0  0  0
 17 18  2  0  0  0  0
 17 40  1  0  0  0  0
M  END
> <s_m_source_file>
AV-unprocessed.smi

> <i_m_source_file_index>
3308

> <i_lp_mmshare_version>
43012

> <i_f3d_flags>
0

> <s_epik_input>
bjFbY0hdW2NIXVtjSF1uMVtDQEBIXShbQ0gzXSlbQ0BIXShbQ0gzXSlbTkhdW0NIMl1DKD1PKU4yW0NIMl1bQ0gyXVtDSDJdW0NIMl0y

> <s_epik_cmdline>
J2VwaWtfcHl0aG9uJywgJy1waCcsICc3LjAnLCAnLXRuJywgJzgnLCAnLW1hJywgJzIwMCcsICctbWV0YWxfYmluZGluZycsICctaW1hZScsICc8aW5maWxlLm1hZT4nLCAnLW9tYWUnLCAnPG91dGZpbGUubWFlPic=

> <r_lp_tautomer_probability>
1

> <r_epik_Ionization_Penalty>
0.918676

> <r_epik_Ionization_Penalty_Charging>
0

> <r_epik_Ionization_Penalty_Neutral>
0.918676

> <r_epik_State_Penalty>
0.958258

> <r_epik_Charging_Adjusted_Penalty>
0.958258

> <i_epik_Tot_Q>
0

> <i_epik_Tot_abs_Q>
0

> <r_epik_Metal_State_Penalty>
0.956879

> <b_epik_Metal_Only>
0

> <s_lp_Force_Field>
OPLS_2005

> <r_lp_Energy>
36.0541

> <b_lp_Chiralities_Consistent>
1

> <s_lp_Variant>
AV-unprocessed.smi:3308-7

> <Gold.Version>
5.8.1

> <Gold.Id.Protein>
6NUR|6NUR_protein|mol2

> <Gold.PLP.Fitness>
44.4625

> <Gold.PLP.PLP>
-39.5095

> <Gold.PLP.part.hbond>
-2.0000

> <Gold.PLP.part.metal>
0.0000

> <Gold.PLP.part.buried>
-1.2438

> <Gold.PLP.part.nonpolar>
-35.3145

> <Gold.PLP.part.repulsive>
0.1208

> <Gold.PLP.ligand.clash>
0.0000

> <Gold.PLP.ligand.torsion>
1.4705

> <Gold.PLP.Chemscore.Hbond>
1.2096

> <Gold.PLP.Chemscore.CHOScore>
1.3993

> <Gold.PLP.Chemscore.Metal>
0.0000

> <Gold.Chemscore.Hbonds>
donor molecule, donor type, donor heavy atom, donor atom, acceptor molecule, acceptor atom, score
      P1  H  7989  7998       L1    18  0.21
      P1  H  7997  8008       L1     6  0.93
      L1  C    15    38       P1  7948  0.40
      L1  C    17    40       P1  8028  1.00

> <Gold.PLP.Chemscore.Internal.Correction>
0.0673

> <Gold.Rescore>
     Score         DG    S(hbond)    S(metal)    S(lipo)     H(rot)  DE(clash)    DE(int)     intcor
     16.49     -17.82       1.58        0.00      98.10       1.72       0.27       1.06       ----

> <Gold.Chemscore.Fitness>
16.4893

> <Gold.Chemscore.DG>
-17.8216

> <Gold.Chemscore.ZeroCoef>
-5.4800

> <Gold.Chemscore.Hbond>
1.5769

> <Gold.Chemscore.Metal>
0.0000

> <Gold.Chemscore.Lipo>
98.1015

> <Gold.Chemscore.Internal_Hbond>
0.0000

> <Gold.Chemscore.DEClash>
0.2676

> <Gold.Chemscore.DEInternal>
1.0648

> <Gold.Chemscore.Rot>
1.7200

> <Gold.Chemscore.Internal.Correction>
   9.000000E+99

> <Gold.Chemscore.Hbonds>
donor molecule, donor type, donor heavy atom, donor atom, acceptor molecule, acceptor atom, score
      P1  H  7997  8008       L1     6  0.84

> <Gold.Chemscore.Hbond.Weighted>
-5.2668

> <Gold.Chemscore.Metal.Weighted>
-0.0000

> <Gold.Chemscore.Lipo.Weighted>
-11.4779

> <Gold.Chemscore.Internal_Hbond.Weighted>
0.0000

> <Gold.Chemscore.DEClash.Weighted>
0.2676

> <Gold.Chemscore.DEInternal.Weighted>
1.0648

> <Gold.Chemscore.Rot.Weighted>
4.4031

> <Gold.Chemscore.Internal.Correction.Weighted>
   9.000000E+99

> <Gold.Protein.RotatedTorsions>
[ 6907 6896 6895 6894 ] final   31.78 input  -60.11 | X-H torsion
[ 7974 7965 7964 7962 ] final   -8.97 input  175.53 | X-H torsion
[ 8008 7997 7996 7995 ] final  -85.32 input   59.86 | X-H torsion
[ 10167 10162 10161 10158 ] final -158.72 input  -65.29 | X-H torsion
[ 10718 10713 10712 10709 ] final  -39.04 input   66.30 | X-H torsion
[ 10763 10752 10751 10750 ] final -117.60 input  -60.55 | X-H torsion
[ 11005 11000 10999 10996 ] final -117.87 input  -57.11 | X-H torsion

> <Gold.Protein.ActiveResidues>
 VAL166  LYS551  ARG553  GLY616  TRP617  ASP618  TYR619  PRO620  LYS621  CYS622 
 ASP623  PHE694  ASN695  SER759  ASP760  ASP761  ALA762  ILE779  LEU786  VAL792 
 PHE793  MET794  SER795  GLU796  ALA797  LYS798  CYS799  TRP800  GLU811  SER814 

> <Gold.Protein.RotatedAtoms>
  152.0651  134.9569  160.0574 H   0  0  0  0  0  0  0  0  0  0  0  0  # atno 6907 bound_to 6896
  152.0917  133.4199  159.4555 H   0  0  0  0  0  0  0  0  0  0  0  0  # atno 6908 bound_to 6896
  150.6837  134.2783  159.4660 H   0  0  0  0  0  0  0  0  0  0  0  0  # atno 6909 bound_to 6896
  146.2265  140.2547  142.8349 H   0  0  0  0  0  0  0  0  0  0  0  0  # atno 7974 bound_to 7965
  154.6394  140.0593  156.9828 H   0  0  0  0  0  0  0  0  0  0  0  0  # atno 8008 bound_to 7997
  155.1540  140.3276  155.4406 H   0  0  0  0  0  0  0  0  0  0  0  0  # atno 8009 bound_to 7997
  156.2523  140.1942  156.6650 H   0  0  0  0  0  0  0  0  0  0  0  0  # atno 8010 bound_to 7997
  139.6671  143.9811  152.2261 H   0  0  0  0  0  0  0  0  0  0  0  0  # atno 10167 bound_to 10162
  156.2969  130.4235  149.8182 H   0  0  0  0  0  0  0  0  0  0  0  0  # atno 10718 bound_to 10713
  154.8560  135.4304  154.2006 H   0  0  0  0  0  0  0  0  0  0  0  0  # atno 10763 bound_to 10752
  153.3054  135.6972  153.7170 H   0  0  0  0  0  0  0  0  0  0  0  0  # atno 10764 bound_to 10752
  153.6284  135.3489  155.3008 H   0  0  0  0  0  0  0  0  0  0  0  0  # atno 10765 bound_to 10752
  141.0325  133.9960  157.3122 H   0  0  0  0  0  0  0  0  0  0  0  0  # atno 11005 bound_to 11000
  144.9385  140.8052  143.5645 LP  0  0  0  0  0  0  0  0  0  0  0  0  # atno 17320 bound_to 7965
  145.2496  139.2037  143.4949 LP  0  0  0  0  0  0  0  0  0  0  0  0  # atno 17321 bound_to 7965
  139.9565  144.6586  150.8121 LP  0  0  0  0  0  0  0  0  0  0  0  0  # atno 17342 bound_to 10162
  140.7603  143.3149  151.2757 LP  0  0  0  0  0  0  0  0  0  0  0  0  # atno 17343 bound_to 10162
  156.5574  130.8368  151.3318 LP  0  0  0  0  0  0  0  0  0  0  0  0  # atno 17370 bound_to 10713
  157.7358  130.9767  150.2100 LP  0  0  0  0  0  0  0  0  0  0  0  0  # atno 17371 bound_to 10713
  139.9217  135.0200  156.8089 LP  0  0  0  0  0  0  0  0  0  0  0  0  # atno 17394 bound_to 11000
  140.6382  133.9843  155.7694 LP  0  0  0  0  0  0  0  0  0  0  0  0  # atno 17395 bound_to 11000

$$$$
