AV-unprocessed.smi:1840|AV-procd|sdf|7494|dock5
  -GOLD-   22720 9193D 1   1.00000     0.00000
 Structure written by MMmdl.
 43 44  0  0  0  0  0  0  0  0  1 V2000
  144.2354  135.5893  153.1531 C   0  0  0  0  0  0  0  0  0  0  0  0
  144.8878  136.4425  152.0569 C   0  0  2  0  0  0  0  0  0  0  0  0
  144.9769  135.6729  150.7224 C   0  0  0  0  0  0  0  0  0  0  0  0
  145.0523  134.2345  150.9117 N   0  0  0  0  0  0  0  0  0  0  0  0
  144.0175  133.3316  151.0352 C   0  0  0  0  0  0  0  0  0  0  0  0
  144.5738  132.0930  151.1791 C   0  0  0  0  0  0  0  0  0  0  0  0
  145.9735  132.3451  151.1383 C   0  0  0  0  0  0  0  0  0  0  0  0
  146.2572  133.6277  150.9796 N   0  0  0  0  0  0  0  0  0  0  0  0
  146.2167  136.8605  152.5034 N   0  0  0  0  0  0  0  0  0  0  0  0
  146.4704  137.7271  153.4949 C   0  0  0  0  0  0  0  0  0  0  0  0
  145.6020  138.2608  154.1858 O   0  0  0  0  0  0  0  0  0  0  0  0
  147.7852  137.9545  153.6285 N   0  0  0  0  0  0  0  0  0  0  0  0
  148.4038  138.8472  154.6083 C   0  0  1  0  0  0  0  0  0  0  0  0
  149.8737  138.4251  154.8030 C   0  0  0  0  0  0  0  0  0  0  0  0
  150.6038  139.3491  155.7883 C   0  0  0  0  0  0  0  0  0  0  0  0
  150.5136  140.8134  155.3379 C   0  0  0  0  0  0  0  0  0  0  0  0
  149.0507  141.2440  155.1528 C   0  0  0  0  0  0  0  0  0  0  0  0
  148.3020  140.3295  154.1616 C   0  0  2  0  0  0  0  0  0  0  0  0
  146.8488  140.8044  153.9841 C   0  0  0  0  0  0  0  0  0  0  0  0
  143.2293  135.2828  152.8648 H   0  0  0  0  0  0  0  0  0  0  0  0
  144.1541  136.1456  154.0876 H   0  0  0  0  0  0  0  0  0  0  0  0
  144.8137  134.6863  153.3519 H   0  0  0  0  0  0  0  0  0  0  0  0
  144.2513  137.3172  151.9100 H   0  0  0  0  0  0  0  0  0  0  0  0
  144.1217  135.9083  150.0865 H   0  0  0  0  0  0  0  0  0  0  0  0
  145.8665  135.9817  150.1723 H   0  0  0  0  0  0  0  0  0  0  0  0
  142.9835  133.6420  151.0025 H   0  0  0  0  0  0  0  0  0  0  0  0
  144.0592  131.1509  151.2943 H   0  0  0  0  0  0  0  0  0  0  0  0
  146.7871  131.6388  151.2158 H   0  0  0  0  0  0  0  0  0  0  0  0
  147.0027  136.4822  151.9954 H   0  0  0  0  0  0  0  0  0  0  0  0
  148.4122  137.4730  153.0008 H   0  0  0  0  0  0  0  0  0  0  0  0
  147.9016  138.7439  155.5724 H   0  0  0  0  0  0  0  0  0  0  0  0
  149.9226  137.3969  155.1637 H   0  0  0  0  0  0  0  0  0  0  0  0
  150.3935  138.4397  153.8438 H   0  0  0  0  0  0  0  0  0  0  0  0
  150.1678  139.2430  156.7824 H   0  0  0  0  0  0  0  0  0  0  0  0
  151.6488  139.0499  155.8743 H   0  0  0  0  0  0  0  0  0  0  0  0
  151.0016  141.4579  156.0694 H   0  0  0  0  0  0  0  0  0  0  0  0
  151.0554  140.9435  154.4001 H   0  0  0  0  0  0  0  0  0  0  0  0
  148.5444  141.2311  156.1190 H   0  0  0  0  0  0  0  0  0  0  0  0
  149.0196  142.2767  154.8041 H   0  0  0  0  0  0  0  0  0  0  0  0
  148.7938  140.4249  153.1920 H   0  0  0  0  0  0  0  0  0  0  0  0
  146.2742  140.6749  154.9018 H   0  0  0  0  0  0  0  0  0  0  0  0
  146.3425  140.2525  153.1930 H   0  0  0  0  0  0  0  0  0  0  0  0
  146.8100  141.8596  153.7126 H   0  0  0  0  0  0  0  0  0  0  0  0
  1  2  1  0  0  0  0
  1 20  1  0  0  0  0
  1 21  1  0  0  0  0
  1 22  1  0  0  0  0
  2  3  1  0  0  0  0
  2  9  1  0  0  0  0
  2 23  1  0  0  0  0
  3  4  1  0  0  0  0
  3 24  1  0  0  0  0
  3 25  1  0  0  0  0
  4  8  1  0  0  0  0
  4  5  1  0  0  0  0
  5  6  2  0  0  0  0
  5 26  1  0  0  0  0
  6  7  1  0  0  0  0
  6 27  1  0  0  0  0
  7  8  2  0  0  0  0
  7 28  1  0  0  0  0
  9 10  1  0  0  0  0
  9 29  1  0  0  0  0
 10 11  2  0  0  0  0
 10 12  1  0  0  0  0
 12 13  1  0  0  0  0
 12 30  1  0  0  0  0
 13 18  1  0  0  0  0
 13 14  1  0  0  0  0
 13 31  1  0  0  0  0
 14 15  1  0  0  0  0
 14 32  1  0  0  0  0
 14 33  1  0  0  0  0
 15 16  1  0  0  0  0
 15 34  1  0  0  0  0
 15 35  1  0  0  0  0
 16 17  1  0  0  0  0
 16 36  1  0  0  0  0
 16 37  1  0  0  0  0
 17 18  1  0  0  0  0
 17 38  1  0  0  0  0
 17 39  1  0  0  0  0
 18 19  1  0  0  0  0
 18 40  1  0  0  0  0
 19 41  1  0  0  0  0
 19 42  1  0  0  0  0
 19 43  1  0  0  0  0
M  END
> <s_m_source_file>
AV-unprocessed.smi

> <i_m_source_file_index>
1840

> <i_lp_mmshare_version>
43012

> <i_f3d_flags>
0

> <s_epik_input>
bjFbY0hdW2NIXVtjSF1uMVtDSDJdW0NAQEhdKFtDSDNdKVtOSF1DKD1PKVtOSF1bQ0BASF0yW0NIMl1bQ0gyXVtDSDJdW0NIMl1bQ0BIXTJbQ0gzXQ==

> <s_epik_cmdline>
J2VwaWtfcHl0aG9uJywgJy1waCcsICc3LjAnLCAnLXRuJywgJzgnLCAnLW1hJywgJzIwMCcsICctbWV0YWxfYmluZGluZycsICctaW1hZScsICc8aW5maWxlLm1hZT4nLCAnLW9tYWUnLCAnPG91dGZpbGUubWFlPic=

> <r_lp_tautomer_probability>
1

> <r_epik_Ionization_Penalty>
7.38659e-05

> <r_epik_Ionization_Penalty_Charging>
0

> <r_epik_Ionization_Penalty_Neutral>
7.38659e-05

> <r_epik_State_Penalty>
-0

> <r_epik_Charging_Adjusted_Penalty>
0

> <i_epik_Tot_Q>
0

> <i_epik_Tot_abs_Q>
0

> <r_epik_Metal_State_Penalty>
-0

> <b_epik_Metal_Only>
0

> <s_lp_Force_Field>
OPLS_2005

> <r_lp_Energy>
7.66905

> <b_lp_Chiralities_Consistent>
1

> <s_lp_Variant>
AV-unprocessed.smi:1840-7

> <Gold.Version>
5.8.1

> <Gold.Id.Protein>
6NUR|6NUR_protein|mol2

> <Gold.PLP.Fitness>
41.1371

> <Gold.PLP.PLP>
-31.5139

> <Gold.PLP.part.hbond>
-2.0000

> <Gold.PLP.part.metal>
0.0000

> <Gold.PLP.part.buried>
-2.9307

> <Gold.PLP.part.nonpolar>
-27.0689

> <Gold.PLP.part.repulsive>
0.3850

> <Gold.PLP.ligand.clash>
0.0000

> <Gold.PLP.ligand.torsion>
1.1874

> <Gold.PLP.Chemscore.Hbond>
1.9920

> <Gold.PLP.Chemscore.CHOScore>
2.0000

> <Gold.PLP.Chemscore.Metal>
0.0000

> <Gold.Chemscore.Hbonds>
donor molecule, donor type, donor heavy atom, donor atom, acceptor molecule, acceptor atom, score
      L1  H     9    29       P1  7948  0.99
      L1  H    12    30       P1  7948  1.00
      L1  C     5    26       P1 10186  0.91
      L1  C     7    28       P1 10747  1.00

> <Gold.PLP.Chemscore.Internal.Correction>
0.0220

> <Gold.Rescore>
     Score         DG    S(hbond)    S(metal)    S(lipo)     H(rot)  DE(clash)    DE(int)     intcor
     14.74     -17.30       1.95        0.00      79.50       1.56       0.02       2.55       ----

> <Gold.Chemscore.Fitness>
14.7359

> <Gold.Chemscore.DG>
-17.3026

> <Gold.Chemscore.ZeroCoef>
-5.4800

> <Gold.Chemscore.Hbond>
1.9488

> <Gold.Chemscore.Metal>
0.0000

> <Gold.Chemscore.Lipo>
79.4970

> <Gold.Chemscore.Internal_Hbond>
0.0000

> <Gold.Chemscore.DEClash>
0.0208

> <Gold.Chemscore.DEInternal>
2.5458

> <Gold.Chemscore.Rot>
1.5576

> <Gold.Chemscore.Internal.Correction>
   9.000000E+99

> <Gold.Chemscore.Hbonds>
donor molecule, donor type, donor heavy atom, donor atom, acceptor molecule, acceptor atom, score
      L1  H     9    29       P1  7948  0.93
      L1  H    12    30       P1  7948  0.99

> <Gold.Chemscore.Hbond.Weighted>
-6.5090

> <Gold.Chemscore.Metal.Weighted>
-0.0000

> <Gold.Chemscore.Lipo.Weighted>
-9.3011

> <Gold.Chemscore.Internal_Hbond.Weighted>
0.0000

> <Gold.Chemscore.DEClash.Weighted>
0.0208

> <Gold.Chemscore.DEInternal.Weighted>
2.5458

> <Gold.Chemscore.Rot.Weighted>
3.9875

> <Gold.Chemscore.Internal.Correction.Weighted>
   9.000000E+99

> <Gold.Protein.RotatedTorsions>
[ 6907 6896 6895 6894 ] final -133.01 input  -60.11 | X-H torsion
[ 7974 7965 7964 7962 ] final   39.32 input  175.53 | X-H torsion
[ 8008 7997 7996 7995 ] final   59.16 input   59.86 | X-H torsion
[ 10167 10162 10161 10158 ] final    5.77 input  -65.29 | X-H torsion
[ 10718 10713 10712 10709 ] final  106.66 input   66.30 | X-H torsion
[ 10763 10752 10751 10750 ] final  179.56 input  -60.55 | X-H torsion
[ 11005 11000 10999 10996 ] final    2.85 input  -57.11 | X-H torsion

> <Gold.Protein.ActiveResidues>
 VAL166  LYS551  ARG553  GLY616  TRP617  ASP618  TYR619  PRO620  LYS621  CYS622 
 ASP623  PHE694  ASN695  SER759  ASP760  ASP761  ALA762  ILE779  LEU786  VAL792 
 PHE793  MET794  SER795  GLU796  ALA797  LYS798  CYS799  TRP800  GLU811  SER814 

> <Gold.Protein.RotatedAtoms>
  150.9690  133.6364  159.2740 H   0  0  0  0  0  0  0  0  0  0  0  0  # atno 6907 bound_to 6896
  151.3660  135.0912  159.9459 H   0  0  0  0  0  0  0  0  0  0  0  0  # atno 6908 bound_to 6896
  152.5176  133.9254  159.7609 H   0  0  0  0  0  0  0  0  0  0  0  0  # atno 6909 bound_to 6896
  146.0993  139.5666  142.9424 H   0  0  0  0  0  0  0  0  0  0  0  0  # atno 7974 bound_to 7965
  155.5617  140.3488  155.4493 H   0  0  0  0  0  0  0  0  0  0  0  0  # atno 8008 bound_to 7997
  156.0509  140.1317  157.0076 H   0  0  0  0  0  0  0  0  0  0  0  0  # atno 8009 bound_to 7997
  154.4434  140.1005  156.6360 H   0  0  0  0  0  0  0  0  0  0  0  0  # atno 8010 bound_to 7997
  140.6464  143.7651  150.7506 H   0  0  0  0  0  0  0  0  0  0  0  0  # atno 10167 bound_to 10162
  157.6659  131.0855  150.6040 H   0  0  0  0  0  0  0  0  0  0  0  0  # atno 10718 bound_to 10713
  154.5223  135.2794  155.1252 H   0  0  0  0  0  0  0  0  0  0  0  0  # atno 10763 bound_to 10752
  154.2805  135.6286  153.5349 H   0  0  0  0  0  0  0  0  0  0  0  0  # atno 10764 bound_to 10752
  152.9939  135.5650  154.5715 H   0  0  0  0  0  0  0  0  0  0  0  0  # atno 10765 bound_to 10752
  140.5997  133.9847  155.8126 H   0  0  0  0  0  0  0  0  0  0  0  0  # atno 11005 bound_to 11000
  145.5885  141.0373  143.2083 LP  0  0  0  0  0  0  0  0  0  0  0  0  # atno 17320 bound_to 7965
  144.7420  139.7422  143.7307 LP  0  0  0  0  0  0  0  0  0  0  0  0  # atno 17321 bound_to 7965
  140.1293  143.4540  152.2264 LP  0  0  0  0  0  0  0  0  0  0  0  0  # atno 17342 bound_to 10162
  139.5675  144.7444  151.3982 LP  0  0  0  0  0  0  0  0  0  0  0  0  # atno 17343 bound_to 10162
  156.6341  130.4440  149.5776 LP  0  0  0  0  0  0  0  0  0  0  0  0  # atno 17370 bound_to 10713
  156.2259  130.6765  151.1415 LP  0  0  0  0  0  0  0  0  0  0  0  0  # atno 17371 bound_to 10713
  141.0880  133.9960  157.3282 LP  0  0  0  0  0  0  0  0  0  0  0  0  # atno 17394 bound_to 11000
  139.9238  135.0201  156.8160 LP  0  0  0  0  0  0  0  0  0  0  0  0  # atno 17395 bound_to 11000

$$$$
