AV-unprocessed.smi:1215|AV-procd|sdf|5096|dock6
  -GOLD-   22720 4143D 1   1.00000     0.00000
 Structure written by MMmdl.
 46 47  0  0  0  0  0  0  0  0  2 V2000
  146.1642  130.0330  152.6852 C   0  0  0  0  0  0  0  0  0  0  0  0
  145.7475  130.1823  151.2170 C   0  0  0  0  0  0  0  0  0  0  0  0
  145.2702  131.5203  150.9270 N   0  0  0  0  0  0  0  0  0  0  0  0
  145.7047  132.7163  151.4634 C   0  0  0  0  0  0  0  0  0  0  0  0
  144.9464  133.6849  150.8685 C   0  0  0  0  0  0  0  0  0  0  0  0
  144.9758  135.0906  151.0519 N   0  0  0  0  0  0  0  0  0  0  0  0
  145.5418  135.7691  152.0633 C   0  0  0  0  0  0  0  0  0  0  0  0
  146.1441  135.2610  153.0095 O   0  0  0  0  0  0  0  0  0  0  0  0
  145.3674  137.0910  151.9241 N   0  0  0  0  0  0  0  0  0  0  0  0
  145.8634  138.0997  152.8531 C   0  0  0  0  0  0  0  0  0  0  0  0
  146.7434  139.1440  152.1373 C   0  0  0  0  0  0  0  0  0  0  0  0
  147.7486  139.7815  153.0307 N   0  3  2  0  0  0  0  0  0  0  0  0
  148.4069  138.7905  153.9249 C   0  0  0  0  0  0  0  0  0  0  0  0
  149.5909  139.4142  154.6808 C   0  0  0  0  0  0  0  0  0  0  0  0
  149.1517  140.6526  155.4684 C   0  0  0  0  0  0  0  0  0  0  0  0
  148.4618  141.6497  154.5275 C   0  0  0  0  0  0  0  0  0  0  0  0
  147.2888  141.0086  153.7555 C   0  0  2  0  0  0  0  0  0  0  0  0
  146.0583  140.7714  154.6572 C   0  0  0  0  0  0  0  0  0  0  0  0
  144.0732  133.0026  149.9816 C   0  0  0  0  0  0  0  0  0  0  0  0
  144.2738  131.6944  150.0236 N   0  0  0  0  0  0  0  0  0  0  0  0
  146.5057  129.0183  152.8900 H   0  0  0  0  0  0  0  0  0  0  0  0
  145.3297  130.2450  153.3540 H   0  0  0  0  0  0  0  0  0  0  0  0
  146.9776  130.7143  152.9367 H   0  0  0  0  0  0  0  0  0  0  0  0
  146.5878  129.9577  150.5584 H   0  0  0  0  0  0  0  0  0  0  0  0
  144.9572  129.4701  150.9766 H   0  0  0  0  0  0  0  0  0  0  0  0
  146.4941  132.7614  152.1990 H   0  0  0  0  0  0  0  0  0  0  0  0
  144.5117  135.6353  150.3397 H   0  0  0  0  0  0  0  0  0  0  0  0
  144.8619  137.4224  151.1150 H   0  0  0  0  0  0  0  0  0  0  0  0
  145.0278  138.5834  153.3621 H   0  0  0  0  0  0  0  0  0  0  0  0
  146.4328  137.5702  153.6160 H   0  0  0  0  0  0  0  0  0  0  0  0
  147.2310  138.7061  151.2662 H   0  0  0  0  0  0  0  0  0  0  0  0
  146.0937  139.9298  151.7495 H   0  0  0  0  0  0  0  0  0  0  0  0
  147.6817  138.3786  154.6272 H   0  0  0  0  0  0  0  0  0  0  0  0
  148.7744  137.9513  153.3332 H   0  0  0  0  0  0  0  0  0  0  0  0
  150.0304  138.6797  155.3565 H   0  0  0  0  0  0  0  0  0  0  0  0
  150.3730  139.6899  153.9722 H   0  0  0  0  0  0  0  0  0  0  0  0
  148.4751  140.3627  156.2728 H   0  0  0  0  0  0  0  0  0  0  0  0
  150.0148  141.1201  155.9432 H   0  0  0  0  0  0  0  0  0  0  0  0
  148.1164  142.5172  155.0912 H   0  0  0  0  0  0  0  0  0  0  0  0
  149.1952  142.0280  153.8139 H   0  0  0  0  0  0  0  0  0  0  0  0
  146.9955  141.7452  153.0084 H   0  0  0  0  0  0  0  0  0  0  0  0
  145.7819  141.6886  155.1778 H   0  0  0  0  0  0  0  0  0  0  0  0
  146.2396  140.0119  155.4171 H   0  0  0  0  0  0  0  0  0  0  0  0
  145.1859  140.4651  154.0806 H   0  0  0  0  0  0  0  0  0  0  0  0
  143.3165  133.4032  149.3232 H   0  0  0  0  0  0  0  0  0  0  0  0
  148.4823  140.0994  152.4133 H   0  0  0  0  0  0  0  0  0  0  0  0
  1  2  1  0  0  0  0
  1 21  1  0  0  0  0
  1 22  1  0  0  0  0
  1 23  1  0  0  0  0
  2  3  1  0  0  0  0
  2 24  1  0  0  0  0
  2 25  1  0  0  0  0
  3 20  1  0  0  0  0
  3  4  1  0  0  0  0
  4  5  2  0  0  0  0
  4 26  1  0  0  0  0
  5  6  1  0  0  0  0
  5 19  1  0  0  0  0
  6  7  1  0  0  0  0
  6 27  1  0  0  0  0
  7  8  2  0  0  0  0
  7  9  1  0  0  0  0
  9 10  1  0  0  0  0
  9 28  1  0  0  0  0
 10 11  1  0  0  0  0
 10 29  1  0  0  0  0
 10 30  1  0  0  0  0
 11 12  1  0  0  0  0
 11 31  1  0  0  0  0
 11 32  1  0  0  0  0
 12 17  1  0  0  0  0
 12 13  1  0  0  0  0
 12 46  1  0  0  0  0
 13 14  1  0  0  0  0
 13 33  1  0  0  0  0
 13 34  1  0  0  0  0
 14 15  1  0  0  0  0
 14 35  1  0  0  0  0
 14 36  1  0  0  0  0
 15 16  1  0  0  0  0
 15 37  1  0  0  0  0
 15 38  1  0  0  0  0
 16 17  1  0  0  0  0
 16 39  1  0  0  0  0
 16 40  1  0  0  0  0
 17 18  1  0  0  0  0
 17 41  1  0  0  0  0
 18 42  1  0  0  0  0
 18 43  1  0  0  0  0
 18 44  1  0  0  0  0
 19 20  2  0  0  0  0
 19 45  1  0  0  0  0
M  CHG  1  12   1
M  END
> <s_m_source_file>
AV-unprocessed.smi

> <i_m_source_file_index>
1215

> <i_lp_mmshare_version>
43012

> <i_f3d_flags>
0

> <s_epik_input>
W0NIM11bQ0gyXW4xW2NIXWMoW2NIXW4xKVtOSF1DKD1PKVtOSF1bQ0gyXVtDSDJdTjJbQ0gyXVtDSDJdW0NIMl1bQ0gyXVtDQEhdMltDSDNd

> <s_epik_cmdline>
J2VwaWtfcHl0aG9uJywgJy1waCcsICc3LjAnLCAnLXRuJywgJzgnLCAnLW1hJywgJzIwMCcsICctbWV0YWxfYmluZGluZycsICctaW1hZScsICc8aW5maWxlLm1hZT4nLCAnLW9tYWUnLCAnPG91dGZpbGUubWFlPic=

> <r_lp_tautomer_probability>
1

> <r_epik_Ionization_Penalty>
0.00247187

> <r_epik_Ionization_Penalty_Charging>
0.00232067

> <r_epik_Ionization_Penalty_Neutral>
0.000151201

> <r_epik_State_Penalty>
0.00160128

> <r_epik_Charging_Adjusted_Penalty>
0.00392194

> <i_epik_Tot_Q>
1

> <i_epik_Tot_abs_Q>
1

> <r_epik_Metal_State_Penalty>
-0

> <b_epik_Metal_Only>
0

> <s_lp_Force_Field>
OPLS_2005

> <r_lp_Energy>
24.1958

> <b_lp_Chiralities_Consistent>
1

> <s_lp_Variant>
AV-unprocessed.smi:1215-3

> <Gold.Version>
5.8.1

> <Gold.Id.Protein>
6NUR|6NUR_protein|mol2

> <Gold.PLP.Fitness>
45.5777

> <Gold.PLP.PLP>
-37.4337

> <Gold.PLP.part.hbond>
-2.8635

> <Gold.PLP.part.metal>
0.0000

> <Gold.PLP.part.buried>
-4.3748

> <Gold.PLP.part.nonpolar>
-31.8069

> <Gold.PLP.part.repulsive>
0.6876

> <Gold.PLP.ligand.clash>
0.0000

> <Gold.PLP.ligand.torsion>
0.8276

> <Gold.PLP.Chemscore.Hbond>
2.2434

> <Gold.PLP.Chemscore.CHOScore>
1.0000

> <Gold.PLP.Chemscore.Metal>
0.0000

> <Gold.Chemscore.Hbonds>
donor molecule, donor type, donor heavy atom, donor atom, acceptor molecule, acceptor atom, score
      L1  H     9    28       P1 10171  1.00
      L1  H    12    46       P1  7957  1.00
      P1  H 10785 10796       L1    20  0.24
      L1  C    19    45       P1 10186  1.00

> <Gold.PLP.Chemscore.Internal.Correction>
0.0692

> <Gold.Rescore>
     Score         DG    S(hbond)    S(metal)    S(lipo)     H(rot)  DE(clash)    DE(int)     intcor
     18.41     -20.43       2.38        0.00      94.74       1.59       0.21       1.82       ----

> <Gold.Chemscore.Fitness>
18.4077

> <Gold.Chemscore.DG>
-20.4282

> <Gold.Chemscore.ZeroCoef>
-5.4800

> <Gold.Chemscore.Hbond>
2.3761

> <Gold.Chemscore.Metal>
0.0000

> <Gold.Chemscore.Lipo>
94.7426

> <Gold.Chemscore.Internal_Hbond>
0.0000

> <Gold.Chemscore.DEClash>
0.2051

> <Gold.Chemscore.DEInternal>
1.8154

> <Gold.Chemscore.Rot>
1.5909

> <Gold.Chemscore.Internal.Correction>
   9.000000E+99

> <Gold.Chemscore.Hbonds>
donor molecule, donor type, donor heavy atom, donor atom, acceptor molecule, acceptor atom, score
      L1  H     9    28       P1 10171  0.95
      L1  H    12    46       P1  7957  0.99
      P1  H 10785 10796       L1    20  0.24

> <Gold.Chemscore.Hbond.Weighted>
-7.9361

> <Gold.Chemscore.Metal.Weighted>
-0.0000

> <Gold.Chemscore.Lipo.Weighted>
-11.0849

> <Gold.Chemscore.Internal_Hbond.Weighted>
0.0000

> <Gold.Chemscore.DEClash.Weighted>
0.2051

> <Gold.Chemscore.DEInternal.Weighted>
1.8154

> <Gold.Chemscore.Rot.Weighted>
4.0728

> <Gold.Chemscore.Internal.Correction.Weighted>
   9.000000E+99

> <Gold.Protein.RotatedTorsions>
[ 6907 6896 6895 6894 ] final  -23.86 input  -60.11 | X-H torsion
[ 7974 7965 7964 7962 ] final   52.89 input  175.53 | X-H torsion
[ 8008 7997 7996 7995 ] final  -22.65 input   59.86 | X-H torsion
[ 10167 10162 10161 10158 ] final  -69.40 input  -65.29 | X-H torsion
[ 10718 10713 10712 10709 ] final  -88.69 input   66.30 | X-H torsion
[ 10763 10752 10751 10750 ] final  -25.84 input  -60.55 | X-H torsion
[ 11005 11000 10999 10996 ] final -176.01 input  -57.11 | X-H torsion

> <Gold.Protein.ActiveResidues>
 VAL166  LYS551  ARG553  GLY616  TRP617  ASP618  TYR619  PRO620  LYS621  CYS622 
 ASP623  PHE694  ASN695  SER759  ASP760  ASP761  ALA762  ILE779  LEU786  VAL792 
 PHE793  MET794  SER795  GLU796  ALA797  LYS798  CYS799  TRP800  GLU811  SER814 

> <Gold.Protein.RotatedAtoms>
  151.1978  135.0430  159.8859 H   0  0  0  0  0  0  0  0  0  0  0  0  # atno 6907 bound_to 6896
  152.5435  134.0883  159.8276 H   0  0  0  0  0  0  0  0  0  0  0  0  # atno 6908 bound_to 6896
  151.1020  133.5189  159.2641 H   0  0  0  0  0  0  0  0  0  0  0  0  # atno 6909 bound_to 6896
  145.9768  139.4203  143.0156 H   0  0  0  0  0  0  0  0  0  0  0  0  # atno 7974 bound_to 7965
  154.4631  140.2002  156.0190 H   0  0  0  0  0  0  0  0  0  0  0  0  # atno 8008 bound_to 7997
  156.0878  140.3262  155.7747 H   0  0  0  0  0  0  0  0  0  0  0  0  # atno 8009 bound_to 7997
  155.5007  140.0553  157.2930 H   0  0  0  0  0  0  0  0  0  0  0  0  # atno 8010 bound_to 7997
  140.5434  143.2314  151.7047 H   0  0  0  0  0  0  0  0  0  0  0  0  # atno 10167 bound_to 10162
  155.9983  130.4845  150.5058 H   0  0  0  0  0  0  0  0  0  0  0  0  # atno 10718 bound_to 10713
  153.7063  135.6953  153.5049 H   0  0  0  0  0  0  0  0  0  0  0  0  # atno 10763 bound_to 10752
  153.2305  135.4339  155.0589 H   0  0  0  0  0  0  0  0  0  0  0  0  # atno 10764 bound_to 10752
  154.8329  135.3483  154.6601 H   0  0  0  0  0  0  0  0  0  0  0  0  # atno 10765 bound_to 10752
  140.4569  134.6291  157.4826 H   0  0  0  0  0  0  0  0  0  0  0  0  # atno 11005 bound_to 11000
  145.7827  140.9849  143.1090 LP  0  0  0  0  0  0  0  0  0  0  0  0  # atno 17320 bound_to 7965
  144.6851  139.9585  143.7479 LP  0  0  0  0  0  0  0  0  0  0  0  0  # atno 17321 bound_to 7965
  139.4997  144.3933  152.0257 LP  0  0  0  0  0  0  0  0  0  0  0  0  # atno 17342 bound_to 10162
  140.3044  144.3610  150.6051 LP  0  0  0  0  0  0  0  0  0  0  0  0  # atno 17343 bound_to 10162
  157.3037  131.0650  151.2050 LP  0  0  0  0  0  0  0  0  0  0  0  0  # atno 17370 bound_to 10713
  157.3020  130.6847  149.6169 LP  0  0  0  0  0  0  0  0  0  0  0  0  # atno 17371 bound_to 10713
  139.9970  134.6895  155.9592 LP  0  0  0  0  0  0  0  0  0  0  0  0  # atno 17394 bound_to 11000
  141.1639  133.6537  156.4412 LP  0  0  0  0  0  0  0  0  0  0  0  0  # atno 17395 bound_to 11000

$$$$
