AV-unprocessed.smi:47|AV-procd|sdf|434|dock3
  -GOLD-   2262016303D 1   1.00000     0.00000
 Structure written by MMmdl.
 32 34  0  0  0  0  0  0  0  0  2 V2000
  145.3021  140.1813  154.7844 O   0  0  0  0  0  0  0  0  0  0  0  0
  146.5512  140.8012  155.0040 C   0  0  2  0  0  0  0  0  0  0  0  0
  146.6414  142.1721  154.3334 C   0  0  0  0  0  0  0  0  0  0  0  0
  148.0822  142.4095  154.1282 N   0  3  0  0  0  0  0  0  0  0  0  0
  148.7720  141.0996  154.1069 C   0  0  1  0  0  0  0  0  0  0  0  0
  149.7953  141.2022  155.2018 C   0  0  0  0  0  0  0  0  0  0  0  0
  150.6936  140.2345  155.4132 N   0  0  0  0  0  0  0  0  0  0  0  0
  151.4824  140.5693  156.4566 N   0  0  0  0  0  0  0  0  0  0  0  0
  150.9770  141.7504  156.8071 C   0  0  0  0  0  0  0  0  0  0  0  0
  151.5313  142.5325  157.9367 C   0  0  0  0  0  0  0  0  0  0  0  0
  151.3201  143.9298  158.0302 C   0  0  0  0  0  0  0  0  0  0  0  0
  151.8472  144.6772  159.1014 C   0  0  0  0  0  0  0  0  0  0  0  0
  152.5986  144.0384  160.1035 C   0  0  0  0  0  0  0  0  0  0  0  0
  152.8191  142.6518  160.0303 C   0  0  0  0  0  0  0  0  0  0  0  0
  152.2902  141.9087  158.9571 C   0  0  0  0  0  0  0  0  0  0  0  0
  149.9210  142.2069  156.0684 N   0  0  0  0  0  0  0  0  0  0  0  0
  147.6994  140.0293  154.3562 C   0  0  0  0  0  0  0  0  0  0  0  0
  146.7271  140.8999  156.0762 H   0  0  0  0  0  0  0  0  0  0  0  0
  149.2699  140.9465  153.1484 H   0  0  0  0  0  0  0  0  0  0  0  0
  144.9215  140.5358  153.9950 H   0  0  0  0  0  0  0  0  0  0  0  0
  146.1589  142.1516  153.3549 H   0  0  0  0  0  0  0  0  0  0  0  0
  146.1801  142.9647  154.9227 H   0  0  0  0  0  0  0  0  0  0  0  0
  148.2436  142.9241  153.2745 H   0  0  0  0  0  0  0  0  0  0  0  0
  150.7463  144.4483  157.2764 H   0  0  0  0  0  0  0  0  0  0  0  0
  151.6744  145.7422  159.1533 H   0  0  0  0  0  0  0  0  0  0  0  0
  153.0039  144.6099  160.9254 H   0  0  0  0  0  0  0  0  0  0  0  0
  153.3957  142.1561  160.7974 H   0  0  0  0  0  0  0  0  0  0  0  0
  152.4779  140.8455  158.9270 H   0  0  0  0  0  0  0  0  0  0  0  0
  148.0521  139.1862  154.9514 H   0  0  0  0  0  0  0  0  0  0  0  0
  147.3684  139.6354  153.3938 H   0  0  0  0  0  0  0  0  0  0  0  0
  148.4396  142.9329  154.9153 H   0  0  0  0  0  0  0  0  0  0  0  0
  150.8010  139.3715  154.8989 H   0  0  0  0  0  0  0  0  0  0  0  0
  1  2  1  0  0  0  0
  1 20  1  0  0  0  0
  2 18  1  0  0  0  0
  2 17  1  0  0  0  0
  2  3  1  0  0  0  0
  3  4  1  0  0  0  0
  3 21  1  0  0  0  0
  3 22  1  0  0  0  0
  4  5  1  0  0  0  0
  4 23  1  0  0  0  0
  4 31  1  0  0  0  0
  5 19  1  0  0  0  0
  5  6  1  0  0  0  0
  5 17  1  0  0  0  0
  6 16  2  0  0  0  0
  6  7  1  0  0  0  0
  7  8  1  0  0  0  0
  7 32  1  0  0  0  0
  8  9  2  0  0  0  0
  9 10  1  0  0  0  0
  9 16  1  0  0  0  0
 10 15  1  0  0  0  0
 10 11  2  0  0  0  0
 11 12  1  0  0  0  0
 11 24  1  0  0  0  0
 12 13  2  0  0  0  0
 12 25  1  0  0  0  0
 13 14  1  0  0  0  0
 13 26  1  0  0  0  0
 14 15  2  0  0  0  0
 14 27  1  0  0  0  0
 15 28  1  0  0  0  0
 17 29  1  0  0  0  0
 17 30  1  0  0  0  0
M  CHG  1   4   1
M  END
> <s_m_source_file>
AV-unprocessed.smi

> <i_m_source_file_index>
47

> <i_lp_mmshare_version>
43012

> <i_f3d_flags>
0

> <s_epik_input>
W09IXVtDQEhdMVtDSDJdW05IXVtDQEBIXShbQ0gyXTEpYzJuW25IXWMobjIpLWMzW2NIXVtjSF1bY0hdW2NIXVtjSF0z

> <s_epik_cmdline>
J2VwaWtfcHl0aG9uJywgJy1waCcsICc3LjAnLCAnLXRuJywgJzgnLCAnLW1hJywgJzIwMCcsICctbWV0YWxfYmluZGluZycsICctaW1hZScsICc8aW5maWxlLm1hZT4nLCAnLW9tYWUnLCAnPG91dGZpbGUubWFlPic=

> <r_epik_Ionization_Penalty>
1.14296

> <r_epik_Ionization_Penalty_Charging>
0.0688988

> <r_epik_Ionization_Penalty_Neutral>
1.07406

> <r_epik_State_Penalty>
1.72347

> <r_epik_Charging_Adjusted_Penalty>
1.79237

> <i_epik_Tot_Q>
1

> <i_epik_Tot_abs_Q>
1

> <r_epik_Metal_State_Penalty>
2.22085

> <b_epik_Metal_Only>
0

> <s_lp_Force_Field>
OPLS_2005

> <r_lp_Energy>
30.3424

> <b_lp_Chiralities_Consistent>
1

> <s_lp_Variant>
AV-unprocessed.smi:47-12

> <Gold.Version>
5.8.1

> <Gold.Id.Protein>
6NUR|6NUR_protein|mol2

> <Gold.PLP.Fitness>
43.0315

> <Gold.PLP.PLP>
-35.0118

> <Gold.PLP.part.hbond>
-2.0000

> <Gold.PLP.part.metal>
0.0000

> <Gold.PLP.part.buried>
-6.0179

> <Gold.PLP.part.nonpolar>
-30.3956

> <Gold.PLP.part.repulsive>
3.7840

> <Gold.PLP.ligand.clash>
0.0000

> <Gold.PLP.ligand.torsion>
0.3310

> <Gold.PLP.Chemscore.Hbond>
2.8880

> <Gold.PLP.Chemscore.CHOScore>
0.0000

> <Gold.PLP.Chemscore.Metal>
0.0000

> <Gold.Chemscore.Hbonds>
donor molecule, donor type, donor heavy atom, donor atom, acceptor molecule, acceptor atom, score
      L1  H     1    20       P1 10175  1.00
      L1  H     4    31       P1  8028  1.82

> <Gold.PLP.Chemscore.Internal.Correction>
0.0176

> <Gold.Rescore>
     Score         DG    S(hbond)    S(metal)    S(lipo)     H(rot)  DE(clash)    DE(int)     intcor
     16.57     -17.56       1.74        0.00      86.23       1.50       0.83       0.16       ----

> <Gold.Chemscore.Fitness>
16.5677

> <Gold.Chemscore.DG>
-17.5590

> <Gold.Chemscore.ZeroCoef>
-5.4800

> <Gold.Chemscore.Hbond>
1.7429

> <Gold.Chemscore.Metal>
0.0000

> <Gold.Chemscore.Lipo>
86.2315

> <Gold.Chemscore.Internal_Hbond>
0.0000

> <Gold.Chemscore.DEClash>
0.8318

> <Gold.Chemscore.DEInternal>
0.1595

> <Gold.Chemscore.Rot>
1.4966

> <Gold.Chemscore.Internal.Correction>
   9.000000E+99

> <Gold.Chemscore.Hbonds>
donor molecule, donor type, donor heavy atom, donor atom, acceptor molecule, acceptor atom, score
      L1  H     1    20       P1 10175  0.96
      L1  H     4    31       P1  8028  0.87

> <Gold.Chemscore.Hbond.Weighted>
-5.8212

> <Gold.Chemscore.Metal.Weighted>
-0.0000

> <Gold.Chemscore.Lipo.Weighted>
-10.0891

> <Gold.Chemscore.Internal_Hbond.Weighted>
0.0000

> <Gold.Chemscore.DEClash.Weighted>
0.8318

> <Gold.Chemscore.DEInternal.Weighted>
0.1595

> <Gold.Chemscore.Rot.Weighted>
3.8312

> <Gold.Chemscore.Internal.Correction.Weighted>
   9.000000E+99

> <Gold.Protein.RotatedTorsions>
[ 6907 6896 6895 6894 ] final  141.69 input  -60.11 | X-H torsion
[ 7974 7965 7964 7962 ] final  159.55 input  175.53 | X-H torsion
[ 8008 7997 7996 7995 ] final   52.65 input   59.86 | X-H torsion
[ 10167 10162 10161 10158 ] final  116.79 input  -65.29 | X-H torsion
[ 10718 10713 10712 10709 ] final -179.55 input   66.30 | X-H torsion
[ 10763 10752 10751 10750 ] final  152.61 input  -60.55 | X-H torsion
[ 11005 11000 10999 10996 ] final  -14.11 input  -57.11 | X-H torsion

> <Gold.Protein.ActiveResidues>
 VAL166  LYS551  ARG553  GLY616  TRP617  ASP618  TYR619  PRO620  LYS621  CYS622 
 ASP623  PHE694  ASN695  SER759  ASP760  ASP761  ALA762  ILE779  LEU786  VAL792 
 PHE793  MET794  SER795  GLU796  ALA797  LYS798  CYS799  TRP800  GLU811  SER814 

> <Gold.Protein.RotatedAtoms>
  152.2278  133.5034  159.5198 H   0  0  0  0  0  0  0  0  0  0  0  0  # atno 6907 bound_to 6896
  150.7029  134.1256  159.4060 H   0  0  0  0  0  0  0  0  0  0  0  0  # atno 6908 bound_to 6896
  151.9177  135.0311  160.0570 H   0  0  0  0  0  0  0  0  0  0  0  0  # atno 6909 bound_to 6896
  144.7784  139.7633  143.6269 H   0  0  0  0  0  0  0  0  0  0  0  0  # atno 7974 bound_to 7965
  155.4554  140.3460  155.4306 H   0  0  0  0  0  0  0  0  0  0  0  0  # atno 8008 bound_to 7997
  156.1194  140.1483  156.9255 H   0  0  0  0  0  0  0  0  0  0  0  0  # atno 8009 bound_to 7997
  154.4812  140.0869  156.7362 H   0  0  0  0  0  0  0  0  0  0  0  0  # atno 8010 bound_to 7997
  139.6223  144.7103  151.2608 H   0  0  0  0  0  0  0  0  0  0  0  0  # atno 10167 bound_to 10162
  156.8607  130.9751  151.3083 H   0  0  0  0  0  0  0  0  0  0  0  0  # atno 10718 bound_to 10713
  154.1228  135.2831  155.3204 H   0  0  0  0  0  0  0  0  0  0  0  0  # atno 10763 bound_to 10752
  154.6411  135.5402  153.7793 H   0  0  0  0  0  0  0  0  0  0  0  0  # atno 10764 bound_to 10752
  153.0307  135.6486  154.1382 H   0  0  0  0  0  0  0  0  0  0  0  0  # atno 10765 bound_to 10752
  140.7830  133.8347  155.9309 H   0  0  0  0  0  0  0  0  0  0  0  0  # atno 11005 bound_to 11000
  146.1978  139.5254  142.9763 LP  0  0  0  0  0  0  0  0  0  0  0  0  # atno 17320 bound_to 7965
  145.6119  141.0338  143.1962 LP  0  0  0  0  0  0  0  0  0  0  0  0  # atno 17321 bound_to 7965
  140.7389  143.6633  150.8145 LP  0  0  0  0  0  0  0  0  0  0  0  0  # atno 17342 bound_to 10162
  140.0245  143.5507  152.2786 LP  0  0  0  0  0  0  0  0  0  0  0  0  # atno 17343 bound_to 10162
  157.6251  130.8685  149.9176 LP  0  0  0  0  0  0  0  0  0  0  0  0  # atno 17370 bound_to 10713
  156.0778  130.3677  150.0642 LP  0  0  0  0  0  0  0  0  0  0  0  0  # atno 17371 bound_to 10713
  140.9464  134.1835  157.4760 LP  0  0  0  0  0  0  0  0  0  0  0  0  # atno 17394 bound_to 11000
  139.8740  134.9892  156.5446 LP  0  0  0  0  0  0  0  0  0  0  0  0  # atno 17395 bound_to 11000

$$$$
