AV-unprocessed.smi:1667|AV-procd|sdf|6679|dock4
  -GOLD-   22720 7393D 1   1.00000     0.00000
 Structure written by MMmdl.
 46 48  0  0  0  0  0  0  0  0  2 V2000
  150.5926  134.1114  153.6271 C   0  0  0  0  0  0  0  0  0  0  0  0
  150.8459  135.3610  154.4635 C   0  0  0  0  0  0  0  0  0  0  0  0
  150.5103  135.3844  155.6471 O   0  0  0  0  0  0  0  0  0  0  0  0
  151.4334  136.3910  153.8343 N   0  0  0  0  0  0  0  0  0  0  0  0
  151.7589  137.6798  154.4378 C   0  0  1  0  0  0  0  0  0  0  0  0
  153.0834  138.2073  153.8619 C   0  0  0  0  0  0  0  0  0  0  0  0
  150.6293  138.6526  154.2652 C   0  0  0  0  0  0  0  0  0  0  0  0
  149.4917  138.4505  153.5387 N   0  3  0  0  0  0  0  0  0  0  0  0
  148.6722  139.5762  153.6125 C   0  0  0  0  0  0  0  0  0  0  0  0
  147.4341  139.8420  153.0357 C   0  0  0  0  0  0  0  0  0  0  0  0
  146.8649  141.1025  153.3121 C   0  0  0  0  0  0  0  0  0  0  0  0
  147.5218  142.0398  154.1359 C   0  0  0  0  0  0  0  0  0  0  0  0
  148.7755  141.7569  154.7174 C   0  0  0  0  0  0  0  0  0  0  0  0
  149.3322  140.5098  154.4358 C   0  0  0  0  0  0  0  0  0  0  0  0
  150.5299  139.8974  154.8211 N   0  0  0  0  0  0  0  0  0  0  0  0
  151.4504  140.6326  155.7047 C   0  0  0  0  0  0  0  0  0  0  0  0
  151.2343  140.3092  157.1968 C   0  0  1  0  0  0  0  0  0  0  0  0
  151.6431  138.9762  157.4221 O   0  0  0  0  0  0  0  0  0  0  0  0
  151.9520  141.2970  158.1048 C   0  0  0  0  0  0  0  0  0  0  0  0
  151.6128  142.6685  158.0893 C   0  0  0  0  0  0  0  0  0  0  0  0
  152.2537  143.5674  158.9633 C   0  0  0  0  0  0  0  0  0  0  0  0
  153.2392  143.1021  159.8550 C   0  0  0  0  0  0  0  0  0  0  0  0
  153.5831  141.7369  159.8728 C   0  0  0  0  0  0  0  0  0  0  0  0
  154.5263  141.2870  160.7337 F   0  0  0  0  0  0  0  0  0  0  0  0
  152.9417  140.8371  159.0000 C   0  0  0  0  0  0  0  0  0  0  0  0
  151.9064  137.5584  155.5099 H   0  0  0  0  0  0  0  0  0  0  0  0
  151.3276  134.0157  152.8271 H   0  0  0  0  0  0  0  0  0  0  0  0
  149.5990  134.1539  153.1807 H   0  0  0  0  0  0  0  0  0  0  0  0
  150.6509  133.2175  154.2490 H   0  0  0  0  0  0  0  0  0  0  0  0
  151.6665  136.2751  152.8588 H   0  0  0  0  0  0  0  0  0  0  0  0
  153.3649  139.1525  154.3274 H   0  0  0  0  0  0  0  0  0  0  0  0
  153.0204  138.3674  152.7850 H   0  0  0  0  0  0  0  0  0  0  0  0
  153.8949  137.5015  154.0432 H   0  0  0  0  0  0  0  0  0  0  0  0
  146.9288  139.1252  152.4050 H   0  0  0  0  0  0  0  0  0  0  0  0
  145.9058  141.3555  152.8839 H   0  0  0  0  0  0  0  0  0  0  0  0
  147.0548  142.9956  154.3253 H   0  0  0  0  0  0  0  0  0  0  0  0
  149.2714  142.4821  155.3460 H   0  0  0  0  0  0  0  0  0  0  0  0
  152.4698  140.3934  155.3988 H   0  0  0  0  0  0  0  0  0  0  0  0
  151.3237  141.6995  155.5215 H   0  0  0  0  0  0  0  0  0  0  0  0
  150.1680  140.3424  157.4234 H   0  0  0  0  0  0  0  0  0  0  0  0
  152.0998  138.6682  156.6540 H   0  0  0  0  0  0  0  0  0  0  0  0
  150.8479  143.0338  157.4192 H   0  0  0  0  0  0  0  0  0  0  0  0
  151.9850  144.6133  158.9531 H   0  0  0  0  0  0  0  0  0  0  0  0
  153.7290  143.7915  160.5267 H   0  0  0  0  0  0  0  0  0  0  0  0
  153.2036  139.7896  159.0290 H   0  0  0  0  0  0  0  0  0  0  0  0
  149.2977  137.6018  153.0228 H   0  0  0  0  0  0  0  0  0  0  0  0
  1  2  1  0  0  0  0
  1 27  1  0  0  0  0
  1 28  1  0  0  0  0
  1 29  1  0  0  0  0
  2  3  2  0  0  0  0
  2  4  1  0  0  0  0
  4  5  1  0  0  0  0
  4 30  1  0  0  0  0
  5 26  1  0  0  0  0
  5  6  1  0  0  0  0
  5  7  1  0  0  0  0
  6 31  1  0  0  0  0
  6 32  1  0  0  0  0
  6 33  1  0  0  0  0
  7 15  1  0  0  0  0
  7  8  2  0  0  0  0
  8  9  1  0  0  0  0
  8 46  1  0  0  0  0
  9 14  2  0  0  0  0
  9 10  1  0  0  0  0
 10 11  2  0  0  0  0
 10 34  1  0  0  0  0
 11 12  1  0  0  0  0
 11 35  1  0  0  0  0
 12 13  2  0  0  0  0
 12 36  1  0  0  0  0
 13 14  1  0  0  0  0
 13 37  1  0  0  0  0
 14 15  1  0  0  0  0
 15 16  1  0  0  0  0
 16 17  1  0  0  0  0
 16 38  1  0  0  0  0
 16 39  1  0  0  0  0
 17 18  1  0  0  0  0
 17 19  1  0  0  0  0
 17 40  1  0  0  0  0
 18 41  1  0  0  0  0
 19 25  1  0  0  0  0
 19 20  2  0  0  0  0
 20 21  1  0  0  0  0
 20 42  1  0  0  0  0
 21 22  2  0  0  0  0
 21 43  1  0  0  0  0
 22 23  1  0  0  0  0
 22 44  1  0  0  0  0
 23 24  1  0  0  0  0
 23 25  2  0  0  0  0
 25 45  1  0  0  0  0
M  CHG  1   8   1
M  END
> <s_m_source_file>
AV-unprocessed.smi

> <i_m_source_file_index>
1667

> <i_lp_mmshare_version>
43012

> <i_f3d_flags>
0

> <s_epik_input>
W0NIM11DKD1PKVtOSF1bQ0BASF0oW0NIM10pYyhuMSluKGMoYzEyKVtjSF1bY0hdW2NIXVtjSF0yKVtDSDJdW0NASF0oW09IXSljM1tjSF1bY0hdW2NIXWMoRilbY0hdMw==

> <s_epik_cmdline>
J2VwaWtfcHl0aG9uJywgJy1waCcsICc3LjAnLCAnLXRuJywgJzgnLCAnLW1hJywgJzIwMCcsICctbWV0YWxfYmluZGluZycsICctaW1hZScsICc8aW5maWxlLm1hZT4nLCAnLW9tYWUnLCAnPG91dGZpbGUubWFlPic=

> <r_epik_Ionization_Penalty>
0.950383

> <r_epik_Ionization_Penalty_Charging>
0.950379

> <r_epik_Ionization_Penalty_Neutral>
3.60962e-06

> <r_epik_State_Penalty>
0.994584

> <r_epik_Charging_Adjusted_Penalty>
1.94496

> <i_epik_Tot_Q>
1

> <i_epik_Tot_abs_Q>
1

> <r_epik_Metal_State_Penalty>
1.10485

> <b_epik_Metal_Only>
0

> <s_lp_Force_Field>
OPLS_2005

> <r_lp_Energy>
12.894

> <b_lp_Chiralities_Consistent>
1

> <s_lp_Variant>
AV-unprocessed.smi:1667-7

> <Gold.Version>
5.8.1

> <Gold.Id.Protein>
6NUR|6NUR_protein|mol2

> <Gold.PLP.Fitness>
62.2768

> <Gold.PLP.PLP>
-54.9135

> <Gold.PLP.part.hbond>
-3.4853

> <Gold.PLP.part.metal>
0.0000

> <Gold.PLP.part.buried>
0.1105

> <Gold.PLP.part.nonpolar>
-52.1909

> <Gold.PLP.part.repulsive>
0.1606

> <Gold.PLP.ligand.clash>
0.0000

> <Gold.PLP.ligand.torsion>
0.8518

> <Gold.PLP.Chemscore.Hbond>
3.0000

> <Gold.PLP.Chemscore.CHOScore>
0.0000

> <Gold.PLP.Chemscore.Metal>
0.0000

> <Gold.Chemscore.Hbonds>
donor molecule, donor type, donor heavy atom, donor atom, acceptor molecule, acceptor atom, score
      L1  H     4    30       P1  7949  0.81
      L1  H     8    46       P1  7948  2.00

> <Gold.PLP.Chemscore.Internal.Correction>
0.0669

> <Gold.Rescore>
     Score         DG    S(hbond)    S(metal)    S(lipo)     H(rot)  DE(clash)    DE(int)     intcor
     15.50     -17.60       0.96        0.00     131.47       2.53       1.35       0.74       ----

> <Gold.Chemscore.Fitness>
15.4996

> <Gold.Chemscore.DG>
-17.5980

> <Gold.Chemscore.ZeroCoef>
-5.4800

> <Gold.Chemscore.Hbond>
0.9647

> <Gold.Chemscore.Metal>
0.0000

> <Gold.Chemscore.Lipo>
131.4654

> <Gold.Chemscore.Internal_Hbond>
0.0000

> <Gold.Chemscore.DEClash>
1.3539

> <Gold.Chemscore.DEInternal>
0.7445

> <Gold.Chemscore.Rot>
2.5335

> <Gold.Chemscore.Internal.Correction>
   9.000000E+99

> <Gold.Chemscore.Hbonds>
donor molecule, donor type, donor heavy atom, donor atom, acceptor molecule, acceptor atom, score
      L1  H     4    30       P1  7949  0.76
      L1  H     8    46       P1  7948  0.97

> <Gold.Chemscore.Hbond.Weighted>
-3.2221

> <Gold.Chemscore.Metal.Weighted>
-0.0000

> <Gold.Chemscore.Lipo.Weighted>
-15.3814

> <Gold.Chemscore.Internal_Hbond.Weighted>
0.0000

> <Gold.Chemscore.DEClash.Weighted>
1.3539

> <Gold.Chemscore.DEInternal.Weighted>
0.7445

> <Gold.Chemscore.Rot.Weighted>
6.4856

> <Gold.Chemscore.Internal.Correction.Weighted>
   9.000000E+99

> <Gold.Protein.RotatedTorsions>
[ 6907 6896 6895 6894 ] final   36.44 input  -60.11 | X-H torsion
[ 7974 7965 7964 7962 ] final  111.30 input  175.53 | X-H torsion
[ 8008 7997 7996 7995 ] final   -4.02 input   59.86 | X-H torsion
[ 10167 10162 10161 10158 ] final  -38.47 input  -65.29 | X-H torsion
[ 10718 10713 10712 10709 ] final  134.30 input   66.30 | X-H torsion
[ 10763 10752 10751 10750 ] final   -8.00 input  -60.55 | X-H torsion
[ 11005 11000 10999 10996 ] final  101.48 input  -57.11 | X-H torsion

> <Gold.Protein.ActiveResidues>
 VAL166  LYS551  ARG553  GLY616  TRP617  ASP618  TYR619  PRO620  LYS621  CYS622 
 ASP623  PHE694  ASN695  SER759  ASP760  ASP761  ALA762  ILE779  LEU786  VAL792 
 PHE793  MET794  SER795  GLU796  ALA797  LYS798  CYS799  TRP800  GLU811  SER814 

> <Gold.Protein.RotatedAtoms>
  152.1298  134.9144  160.0559 H   0  0  0  0  0  0  0  0  0  0  0  0  # atno 6907 bound_to 6896
  152.0252  133.3910  159.4283 H   0  0  0  0  0  0  0  0  0  0  0  0  # atno 6908 bound_to 6896
  150.6855  134.3503  159.4949 H   0  0  0  0  0  0  0  0  0  0  0  0  # atno 6909 bound_to 6896
  145.2440  139.2767  143.4103 H   0  0  0  0  0  0  0  0  0  0  0  0  # atno 7974 bound_to 7965
  154.6187  140.2494  155.7576 H   0  0  0  0  0  0  0  0  0  0  0  0  # atno 8008 bound_to 7997
  156.2414  140.2931  156.0404 H   0  0  0  0  0  0  0  0  0  0  0  0  # atno 8009 bound_to 7997
  155.1932  140.0392  157.2894 H   0  0  0  0  0  0  0  0  0  0  0  0  # atno 8010 bound_to 7997
  140.7091  143.3275  151.2645 H   0  0  0  0  0  0  0  0  0  0  0  0  # atno 10167 bound_to 10162
  157.4686  131.1078  150.9831 H   0  0  0  0  0  0  0  0  0  0  0  0  # atno 10718 bound_to 10713
  153.4343  135.7012  153.6210 H   0  0  0  0  0  0  0  0  0  0  0  0  # atno 10763 bound_to 10752
  153.4612  135.3736  155.2339 H   0  0  0  0  0  0  0  0  0  0  0  0  # atno 10764 bound_to 10752
  154.8726  135.4020  154.3732 H   0  0  0  0  0  0  0  0  0  0  0  0  # atno 10765 bound_to 10752
  139.8773  134.9184  156.4913 H   0  0  0  0  0  0  0  0  0  0  0  0  # atno 11005 bound_to 11000
  146.3321  140.2811  142.8610 LP  0  0  0  0  0  0  0  0  0  0  0  0  # atno 17320 bound_to 7965
  144.9563  140.8230  143.5541 LP  0  0  0  0  0  0  0  0  0  0  0  0  # atno 17321 bound_to 7965
  139.6748  143.9957  152.2774 LP  0  0  0  0  0  0  0  0  0  0  0  0  # atno 17342 bound_to 10162
  139.9568  144.6584  150.8118 LP  0  0  0  0  0  0  0  0  0  0  0  0  # atno 17343 bound_to 10162
  157.0604  130.5823  149.5385 LP  0  0  0  0  0  0  0  0  0  0  0  0  # atno 17370 bound_to 10713
  156.0062  130.5149  150.7838 LP  0  0  0  0  0  0  0  0  0  0  0  0  # atno 17371 bound_to 10713
  140.8656  133.8026  155.9311 LP  0  0  0  0  0  0  0  0  0  0  0  0  # atno 17394 bound_to 11000
  140.9005  134.2385  157.5044 LP  0  0  0  0  0  0  0  0  0  0  0  0  # atno 17395 bound_to 11000

$$$$
