AV-unprocessed.smi:3005|AV-procd|sdf|11443|dock6
  -GOLD-   2272016373D 1   1.00000     0.00000
 Structure written by MMmdl.
 33 34  0  0  0  0  0  0  0  0  1 V2000
  153.4757  138.0305  154.5270 C   0  0  0  0  0  0  0  0  0  0  0  0
  152.7449  138.6206  155.6943 C   0  0  0  0  0  0  0  0  0  0  0  0
  153.2590  138.4557  156.9834 N   0  0  0  0  0  0  0  0  0  0  0  0
  152.5052  139.0385  157.9188 C   0  0  0  0  0  0  0  0  0  0  0  0
  152.8292  139.0495  159.6518 S   0  0  0  0  0  0  0  0  0  0  0  0
  154.1904  140.2510  159.7095 C   0  0  0  0  0  0  0  0  0  0  0  0
  154.0370  141.2315  160.8758 C   0  0  0  0  0  0  0  0  0  0  0  0
  154.3353  140.8808  162.0175 O   0  0  0  0  0  0  0  0  0  0  0  0
  153.6083  142.5316  160.5926 N   0  0  0  0  0  0  0  0  0  0  0  0
  152.6359  143.2157  161.4320 C   0  0  0  0  0  0  0  0  0  0  0  0
  152.2096  143.9478  160.1556 C   0  0  0  0  0  0  0  0  0  0  0  0
  152.8979  142.8351  159.3587 C   0  0  0  0  0  0  0  0  0  0  0  0
  151.0857  139.8372  157.2609 S   0  0  0  0  0  0  0  0  0  0  0  0
  151.5756  139.3449  155.6590 C   0  0  0  0  0  0  0  0  0  0  0  0
  150.7565  139.7161  154.4623 C   0  0  0  0  0  0  0  0  0  0  0  0
  149.9712  138.5124  153.9365 C   0  0  0  0  0  0  0  0  0  0  0  0
  150.0471  138.2597  152.6275 N   0  0  0  0  0  0  0  0  0  0  0  0
  149.3007  137.8207  154.7005 O   0  0  0  0  0  0  0  0  0  0  0  0
  153.8031  138.8078  153.8364 H   0  0  0  0  0  0  0  0  0  0  0  0
  152.8384  137.3417  153.9724 H   0  0  0  0  0  0  0  0  0  0  0  0
  154.3612  137.4773  154.8415 H   0  0  0  0  0  0  0  0  0  0  0  0
  155.1341  139.7178  159.8284 H   0  0  0  0  0  0  0  0  0  0  0  0
  154.2352  140.7716  158.7535 H   0  0  0  0  0  0  0  0  0  0  0  0
  151.8621  142.5554  161.8292 H   0  0  0  0  0  0  0  0  0  0  0  0
  153.0785  143.8564  162.1955 H   0  0  0  0  0  0  0  0  0  0  0  0
  151.1304  144.0021  160.0097 H   0  0  0  0  0  0  0  0  0  0  0  0
  152.6853  144.9229  160.0366 H   0  0  0  0  0  0  0  0  0  0  0  0
  153.5418  143.1846  158.5512 H   0  0  0  0  0  0  0  0  0  0  0  0
  152.2110  142.0480  159.0405 H   0  0  0  0  0  0  0  0  0  0  0  0
  150.0778  140.5327  154.7127 H   0  0  0  0  0  0  0  0  0  0  0  0
  151.4017  140.0861  153.6648 H   0  0  0  0  0  0  0  0  0  0  0  0
  149.5466  137.4762  152.2338 H   0  0  0  0  0  0  0  0  0  0  0  0
  150.6071  138.8556  152.0351 H   0  0  0  0  0  0  0  0  0  0  0  0
  1  2  1  0  0  0  0
  1 19  1  0  0  0  0
  1 20  1  0  0  0  0
  1 21  1  0  0  0  0
  2 14  2  0  0  0  0
  2  3  1  0  0  0  0
  3  4  2  0  0  0  0
  4  5  1  0  0  0  0
  4 13  1  0  0  0  0
  5  6  1  0  0  0  0
  6  7  1  0  0  0  0
  6 22  1  0  0  0  0
  6 23  1  0  0  0  0
  7  8  2  0  0  0  0
  7  9  1  0  0  0  0
  9 12  1  0  0  0  0
  9 10  1  0  0  0  0
 10 11  1  0  0  0  0
 10 24  1  0  0  0  0
 10 25  1  0  0  0  0
 11 12  1  0  0  0  0
 11 26  1  0  0  0  0
 11 27  1  0  0  0  0
 12 28  1  0  0  0  0
 12 29  1  0  0  0  0
 13 14  1  0  0  0  0
 14 15  1  0  0  0  0
 15 16  1  0  0  0  0
 15 30  1  0  0  0  0
 15 31  1  0  0  0  0
 16 17  1  0  0  0  0
 16 18  2  0  0  0  0
 17 32  1  0  0  0  0
 17 33  1  0  0  0  0
M  END
> <s_m_source_file>
AV-unprocessed.smi

> <i_m_source_file_index>
3005

> <i_lp_mmshare_version>
43012

> <i_f3d_flags>
0

> <s_epik_input>
W05IMl1DKD1PKVtDSDJdYzFzYyhuYzFbQ0gzXSlTW0NIMl1DKD1PKU4yW0NIMl1bQ0gyXVtDSDJdMg==

> <s_epik_cmdline>
J2VwaWtfcHl0aG9uJywgJy1waCcsICc3LjAnLCAnLXRuJywgJzgnLCAnLW1hJywgJzIwMCcsICctbWV0YWxfYmluZGluZycsICctaW1hZScsICc8aW5maWxlLm1hZT4nLCAnLW9tYWUnLCAnPG91dGZpbGUubWFlPic=

> <r_lp_tautomer_probability>
1

> <r_epik_Ionization_Penalty>
8.1701e-07

> <r_epik_Ionization_Penalty_Charging>
0

> <r_epik_Ionization_Penalty_Neutral>
8.1701e-07

> <r_epik_State_Penalty>
-0

> <r_epik_Charging_Adjusted_Penalty>
0

> <i_epik_Tot_Q>
0

> <i_epik_Tot_abs_Q>
0

> <r_epik_Metal_State_Penalty>
-0

> <b_epik_Metal_Only>
0

> <s_lp_Force_Field>
OPLS_2005

> <r_lp_Energy>
11.7673

> <b_lp_Chiralities_Consistent>
1

> <s_lp_Variant>
AV-unprocessed.smi:3005-1

> <Gold.Version>
5.8.1

> <Gold.Id.Protein>
6NUR|6NUR_protein|mol2

> <Gold.PLP.Fitness>
47.8042

> <Gold.PLP.PLP>
-41.0123

> <Gold.PLP.part.hbond>
-3.9347

> <Gold.PLP.part.metal>
0.0000

> <Gold.PLP.part.buried>
-4.6116

> <Gold.PLP.part.nonpolar>
-32.2750

> <Gold.PLP.part.repulsive>
0.1838

> <Gold.PLP.ligand.clash>
0.0000

> <Gold.PLP.ligand.torsion>
1.4250

> <Gold.PLP.Chemscore.Hbond>
2.9120

> <Gold.PLP.Chemscore.CHOScore>
0.0000

> <Gold.PLP.Chemscore.Metal>
0.0000

> <Gold.Chemscore.Hbonds>
donor molecule, donor type, donor heavy atom, donor atom, acceptor molecule, acceptor atom, score
      L1  H    17    32       P1  7948  0.60
      L1  H    17    33       P1  7957  0.04
      P1  H  7997  8008       L1     3  0.42

> <Gold.PLP.Chemscore.Internal.Correction>
0.9060

> <Gold.Rescore>
     Score         DG    S(hbond)    S(metal)    S(lipo)     H(rot)  DE(clash)    DE(int)     intcor
     14.96     -16.15       2.08        0.00      84.62       2.41       0.00       1.19       ----

> <Gold.Chemscore.Fitness>
14.9623

> <Gold.Chemscore.DG>
-16.1487

> <Gold.Chemscore.ZeroCoef>
-5.4800

> <Gold.Chemscore.Hbond>
2.0809

> <Gold.Chemscore.Metal>
0.0000

> <Gold.Chemscore.Lipo>
84.6225

> <Gold.Chemscore.Internal_Hbond>
0.0000

> <Gold.Chemscore.DEClash>
0.0000

> <Gold.Chemscore.DEInternal>
1.1864

> <Gold.Chemscore.Rot>
2.4149

> <Gold.Chemscore.Internal.Correction>
   9.000000E+99

> <Gold.Chemscore.Hbonds>
donor molecule, donor type, donor heavy atom, donor atom, acceptor molecule, acceptor atom, score
      L1  H    17    32       P1  7948  0.15

> <Gold.Chemscore.Hbond.Weighted>
-6.9501

> <Gold.Chemscore.Metal.Weighted>
-0.0000

> <Gold.Chemscore.Lipo.Weighted>
-9.9008

> <Gold.Chemscore.Internal_Hbond.Weighted>
0.0000

> <Gold.Chemscore.DEClash.Weighted>
0.0000

> <Gold.Chemscore.DEInternal.Weighted>
1.1864

> <Gold.Chemscore.Rot.Weighted>
6.1822

> <Gold.Chemscore.Internal.Correction.Weighted>
   9.000000E+99

> <Gold.Protein.RotatedTorsions>
[ 6907 6896 6895 6894 ] final  -23.10 input  -60.11 | X-H torsion
[ 7974 7965 7964 7962 ] final   83.51 input  175.53 | X-H torsion
[ 8008 7997 7996 7995 ] final  -69.09 input   59.86 | X-H torsion
[ 10167 10162 10161 10158 ] final   34.80 input  -65.29 | X-H torsion
[ 10718 10713 10712 10709 ] final -161.41 input   66.30 | X-H torsion
[ 10763 10752 10751 10750 ] final   24.92 input  -60.55 | X-H torsion
[ 11005 11000 10999 10996 ] final -104.72 input  -57.11 | X-H torsion

> <Gold.Protein.ActiveResidues>
 VAL166  LYS551  ARG553  GLY616  TRP617  ASP618  TYR619  PRO620  LYS621  CYS622 
 ASP623  PHE694  ASN695  SER759  ASP760  ASP761  ALA762  ILE779  LEU786  VAL792 
 PHE793  MET794  SER795  GLU796  ALA797  LYS798  CYS799  TRP800  GLU811  SER814 

> <Gold.Protein.RotatedAtoms>
  151.2089  135.0473  159.8902 H   0  0  0  0  0  0  0  0  0  0  0  0  # atno 6907 bound_to 6896
  152.5426  134.0767  159.8228 H   0  0  0  0  0  0  0  0  0  0  0  0  # atno 6908 bound_to 6896
  151.0918  133.5262  159.2646 H   0  0  0  0  0  0  0  0  0  0  0  0  # atno 6909 bound_to 6896
  145.6110  139.2368  143.2192 H   0  0  0  0  0  0  0  0  0  0  0  0  # atno 7974 bound_to 7965
  154.4914  140.0860  156.7602 H   0  0  0  0  0  0  0  0  0  0  0  0  # atno 8008 bound_to 7997
  155.4222  140.3446  155.4254 H   0  0  0  0  0  0  0  0  0  0  0  0  # atno 8009 bound_to 7997
  156.1335  140.1508  156.9018 H   0  0  0  0  0  0  0  0  0  0  0  0  # atno 8010 bound_to 7997
  140.4281  144.1363  150.6156 H   0  0  0  0  0  0  0  0  0  0  0  0  # atno 10167 bound_to 10162
  156.5958  130.8789  151.2901 H   0  0  0  0  0  0  0  0  0  0  0  0  # atno 10718 bound_to 10713
  153.0729  135.6594  154.0208 H   0  0  0  0  0  0  0  0  0  0  0  0  # atno 10763 bound_to 10752
  153.9849  135.2951  155.3418 H   0  0  0  0  0  0  0  0  0  0  0  0  # atno 10764 bound_to 10752
  154.7109  135.5205  153.8735 H   0  0  0  0  0  0  0  0  0  0  0  0  # atno 10765 bound_to 10752
  141.1087  133.8747  157.1645 H   0  0  0  0  0  0  0  0  0  0  0  0  # atno 11005 bound_to 11000
  146.1504  140.6933  142.9325 LP  0  0  0  0  0  0  0  0  0  0  0  0  # atno 17320 bound_to 7965
  144.7270  140.4554  143.6966 LP  0  0  0  0  0  0  0  0  0  0  0  0  # atno 17321 bound_to 7965
  140.4458  143.2507  151.9413 LP  0  0  0  0  0  0  0  0  0  0  0  0  # atno 17342 bound_to 10162
  139.4784  144.5610  151.8238 LP  0  0  0  0  0  0  0  0  0  0  0  0  # atno 17343 bound_to 10162
  157.7292  130.9668  150.1777 LP  0  0  0  0  0  0  0  0  0  0  0  0  # atno 17370 bound_to 10713
  156.2511  130.3700  149.8231 LP  0  0  0  0  0  0  0  0  0  0  0  0  # atno 17371 bound_to 10713
  139.9970  135.0043  157.0105 LP  0  0  0  0  0  0  0  0  0  0  0  0  # atno 17394 bound_to 11000
  140.4833  134.1268  155.7220 LP  0  0  0  0  0  0  0  0  0  0  0  0  # atno 17395 bound_to 11000

$$$$
