AV-unprocessed.smi:1872|AV-procd|sdf|7606|dock3
  -GOLD-   22720 9323D 1   1.00000     0.00000
 Structure written by MMmdl.
 40 42  0  0  0  0  0  0  0  0  2 V2000
  149.2156  140.8755  155.4001 C   0  0  0  0  0  0  0  0  0  0  0  0
  150.1827  141.5698  156.2992 C   0  0  0  0  0  0  0  0  0  0  0  0
  150.2576  142.9134  156.5138 N   0  3  0  0  0  0  0  0  0  0  0  0
  151.2848  143.1908  157.4169 C   0  0  0  0  0  0  0  0  0  0  0  0
  151.7384  144.3992  157.9369 C   0  0  0  0  0  0  0  0  0  0  0  0
  152.8179  144.3332  158.8421 C   0  0  0  0  0  0  0  0  0  0  0  0
  153.4040  143.1009  159.1967 C   0  0  0  0  0  0  0  0  0  0  0  0
  152.9350  141.8823  158.6635 C   0  0  0  0  0  0  0  0  0  0  0  0
  151.8655  141.9554  157.7710 C   0  0  0  0  0  0  0  0  0  0  0  0
  151.1512  140.9838  157.0590 N   0  0  0  0  0  0  0  0  0  0  0  0
  151.5023  139.5623  157.2060 C   0  0  0  0  0  0  0  0  0  0  0  0
  151.6478  138.8343  155.8550 C   0  0  1  0  0  0  0  0  0  0  0  0
  152.9677  138.9718  155.3648 O   0  0  0  0  0  0  0  0  0  0  0  0
  151.2188  137.3801  155.9704 C   0  0  0  0  0  0  0  0  0  0  0  0
  150.0668  136.9328  155.2910 C   0  0  0  0  0  0  0  0  0  0  0  0
  149.6507  135.5925  155.4043 C   0  0  0  0  0  0  0  0  0  0  0  0
  150.3710  134.6818  156.2030 C   0  0  0  0  0  0  0  0  0  0  0  0
  149.9187  133.3828  156.2631 O   0  0  0  0  0  0  0  0  0  0  0  0
  149.7969  132.6644  155.1151 C   0  0  0  0  0  0  0  0  0  0  0  0
  149.9589  131.3458  155.3806 F   0  0  0  0  0  0  0  0  0  0  0  0
  148.5597  132.8258  154.5844 F   0  0  0  0  0  0  0  0  0  0  0  0
  151.5325  135.1294  156.8769 C   0  0  0  0  0  0  0  0  0  0  0  0
  151.9487  136.4701  156.7653 C   0  0  0  0  0  0  0  0  0  0  0  0
  148.5818  141.5984  154.8861 H   0  0  0  0  0  0  0  0  0  0  0  0
  148.5795  140.2051  155.9783 H   0  0  0  0  0  0  0  0  0  0  0  0
  149.7501  140.2903  154.6517 H   0  0  0  0  0  0  0  0  0  0  0  0
  151.2919  145.3448  157.6654 H   0  0  0  0  0  0  0  0  0  0  0  0
  153.2052  145.2459  159.2716 H   0  0  0  0  0  0  0  0  0  0  0  0
  154.2317  143.0894  159.8910 H   0  0  0  0  0  0  0  0  0  0  0  0
  153.3967  140.9455  158.9378 H   0  0  0  0  0  0  0  0  0  0  0  0
  152.4092  139.4733  157.8041 H   0  0  0  0  0  0  0  0  0  0  0  0
  150.7092  139.0964  157.7924 H   0  0  0  0  0  0  0  0  0  0  0  0
  150.9985  139.3186  155.1243 H   0  0  0  0  0  0  0  0  0  0  0  0
  153.5094  138.3166  155.7780 H   0  0  0  0  0  0  0  0  0  0  0  0
  149.4950  137.6171  154.6811 H   0  0  0  0  0  0  0  0  0  0  0  0
  148.7676  135.2617  154.8776 H   0  0  0  0  0  0  0  0  0  0  0  0
  150.5482  132.9498  154.3784 H   0  0  0  0  0  0  0  0  0  0  0  0
  152.1175  134.4531  157.4823 H   0  0  0  0  0  0  0  0  0  0  0  0
  152.8322  136.7958  157.2944 H   0  0  0  0  0  0  0  0  0  0  0  0
  149.6484  143.5905  156.0728 H   0  0  0  0  0  0  0  0  0  0  0  0
  1  2  1  0  0  0  0
  1 24  1  0  0  0  0
  1 25  1  0  0  0  0
  1 26  1  0  0  0  0
  2 10  1  0  0  0  0
  2  3  2  0  0  0  0
  3  4  1  0  0  0  0
  3 40  1  0  0  0  0
  4  9  2  0  0  0  0
  4  5  1  0  0  0  0
  5  6  2  0  0  0  0
  5 27  1  0  0  0  0
  6  7  1  0  0  0  0
  6 28  1  0  0  0  0
  7  8  2  0  0  0  0
  7 29  1  0  0  0  0
  8  9  1  0  0  0  0
  8 30  1  0  0  0  0
  9 10  1  0  0  0  0
 10 11  1  0  0  0  0
 11 12  1  0  0  0  0
 11 31  1  0  0  0  0
 11 32  1  0  0  0  0
 12 13  1  0  0  0  0
 12 14  1  0  0  0  0
 12 33  1  0  0  0  0
 13 34  1  0  0  0  0
 14 23  1  0  0  0  0
 14 15  2  0  0  0  0
 15 16  1  0  0  0  0
 15 35  1  0  0  0  0
 16 17  2  0  0  0  0
 16 36  1  0  0  0  0
 17 18  1  0  0  0  0
 17 22  1  0  0  0  0
 18 19  1  0  0  0  0
 19 20  1  0  0  0  0
 19 21  1  0  0  0  0
 19 37  1  0  0  0  0
 22 23  2  0  0  0  0
 22 38  1  0  0  0  0
 23 39  1  0  0  0  0
M  CHG  1   3   1
M  END
> <s_m_source_file>
AV-unprocessed.smi

> <i_m_source_file_index>
1872

> <i_lp_mmshare_version>
43012

> <i_f3d_flags>
0

> <s_epik_input>
W2NIXTFbY0hdW2NIXVtjSF1jKGMxMiluKGMobjIpW0NIM10pW0NIMl1bQ0BIXShbT0hdKWMzW2NIXVtjSF1jKE9bQ0hdKEYpRilbY0hdW2NIXTM=

> <s_epik_cmdline>
J2VwaWtfcHl0aG9uJywgJy1waCcsICc3LjAnLCAnLXRuJywgJzgnLCAnLW1hJywgJzIwMCcsICctbWV0YWxfYmluZGluZycsICctaW1hZScsICc8aW5maWxlLm1hZT4nLCAnLW9tYWUnLCAnPG91dGZpbGUubWFlPic=

> <r_lp_tautomer_probability>
1

> <r_epik_Ionization_Penalty>
0.963868

> <r_epik_Ionization_Penalty_Charging>
0.963868

> <r_epik_Ionization_Penalty_Neutral>
2.50501e-07

> <r_epik_State_Penalty>
1.00924

> <r_epik_Charging_Adjusted_Penalty>
1.9731

> <i_epik_Tot_Q>
1

> <i_epik_Tot_abs_Q>
1

> <r_epik_Metal_State_Penalty>
4.98304

> <b_epik_Metal_Only>
0

> <s_lp_Force_Field>
OPLS_2005

> <r_lp_Energy>
14.447

> <b_lp_Chiralities_Consistent>
1

> <s_lp_Variant>
AV-unprocessed.smi:1872-4

> <Gold.Version>
5.8.1

> <Gold.Id.Protein>
6NUR|6NUR_protein|mol2

> <Gold.PLP.Fitness>
55.7292

> <Gold.PLP.PLP>
-48.4957

> <Gold.PLP.part.hbond>
-2.0000

> <Gold.PLP.part.metal>
0.0000

> <Gold.PLP.part.buried>
-4.5586

> <Gold.PLP.part.nonpolar>
-41.4312

> <Gold.PLP.part.repulsive>
0.1061

> <Gold.PLP.ligand.clash>
0.0000

> <Gold.PLP.ligand.torsion>
0.9078

> <Gold.PLP.Chemscore.Hbond>
3.0000

> <Gold.PLP.Chemscore.CHOScore>
0.0000

> <Gold.PLP.Chemscore.Metal>
0.0000

> <Gold.Chemscore.Hbonds>
donor molecule, donor type, donor heavy atom, donor atom, acceptor molecule, acceptor atom, score
      L1  H     3    40       P1  8028  1.46
      P1  H  7997  8010       L1    13  0.10

> <Gold.PLP.Chemscore.Internal.Correction>
0.0492

> <Gold.Rescore>
     Score         DG    S(hbond)    S(metal)    S(lipo)     H(rot)  DE(clash)    DE(int)     intcor
     18.70     -19.61       1.90        0.00     117.39       2.32       0.07       0.83       ----

> <Gold.Chemscore.Fitness>
18.7050

> <Gold.Chemscore.DG>
-19.6108

> <Gold.Chemscore.ZeroCoef>
-5.4800

> <Gold.Chemscore.Hbond>
1.8966

> <Gold.Chemscore.Metal>
0.0000

> <Gold.Chemscore.Lipo>
117.3861

> <Gold.Chemscore.Internal_Hbond>
0.0000

> <Gold.Chemscore.DEClash>
0.0724

> <Gold.Chemscore.DEInternal>
0.8335

> <Gold.Chemscore.Rot>
2.3195

> <Gold.Chemscore.Internal.Correction>
   9.000000E+99

> <Gold.Chemscore.Hbonds>
donor molecule, donor type, donor heavy atom, donor atom, acceptor molecule, acceptor atom, score
      L1  H     3    40       P1  8028  0.73

> <Gold.Chemscore.Hbond.Weighted>
-6.3346

> <Gold.Chemscore.Metal.Weighted>
-0.0000

> <Gold.Chemscore.Lipo.Weighted>
-13.7342

> <Gold.Chemscore.Internal_Hbond.Weighted>
0.0000

> <Gold.Chemscore.DEClash.Weighted>
0.0724

> <Gold.Chemscore.DEInternal.Weighted>
0.8335

> <Gold.Chemscore.Rot.Weighted>
5.9379

> <Gold.Chemscore.Internal.Correction.Weighted>
   9.000000E+99

> <Gold.Protein.RotatedTorsions>
[ 6907 6896 6895 6894 ] final -178.25 input  -60.11 | X-H torsion
[ 7974 7965 7964 7962 ] final  -13.45 input  175.53 | X-H torsion
[ 8008 7997 7996 7995 ] final   96.33 input   59.86 | X-H torsion
[ 10167 10162 10161 10158 ] final   71.01 input  -65.29 | X-H torsion
[ 10718 10713 10712 10709 ] final  144.57 input   66.30 | X-H torsion
[ 10763 10752 10751 10750 ] final   85.92 input  -60.55 | X-H torsion
[ 11005 11000 10999 10996 ] final  -91.18 input  -57.11 | X-H torsion

> <Gold.Protein.ActiveResidues>
 VAL166  LYS551  ARG553  GLY616  TRP617  ASP618  TYR619  PRO620  LYS621  CYS622 
 ASP623  PHE694  ASN695  SER759  ASP760  ASP761  ALA762  ILE779  LEU786  VAL792 
 PHE793  MET794  SER795  GLU796  ALA797  LYS798  CYS799  TRP800  GLU811  SER814 

> <Gold.Protein.RotatedAtoms>
  151.6342  133.3330  159.3115 H   0  0  0  0  0  0  0  0  0  0  0  0  # atno 6907 bound_to 6896
  150.8041  134.7158  159.6639 H   0  0  0  0  0  0  0  0  0  0  0  0  # atno 6908 bound_to 6896
  152.4135  134.6087  160.0071 H   0  0  0  0  0  0  0  0  0  0  0  0  # atno 6909 bound_to 6896
  146.2113  140.3206  142.8390 H   0  0  0  0  0  0  0  0  0  0  0  0  # atno 7974 bound_to 7965
  156.0785  140.3274  155.7664 H   0  0  0  0  0  0  0  0  0  0  0  0  # atno 8008 bound_to 7997
  155.5191  140.0583  157.2927 H   0  0  0  0  0  0  0  0  0  0  0  0  # atno 8009 bound_to 7997
  154.4569  140.1947  156.0372 H   0  0  0  0  0  0  0  0  0  0  0  0  # atno 8010 bound_to 7997
  140.0507  144.5314  150.7365 H   0  0  0  0  0  0  0  0  0  0  0  0  # atno 10167 bound_to 10162
  157.3556  131.0957  151.0961 H   0  0  0  0  0  0  0  0  0  0  0  0  # atno 10718 bound_to 10713
  153.1520  135.4599  154.9651 H   0  0  0  0  0  0  0  0  0  0  0  0  # atno 10763 bound_to 10752
  154.7832  135.3195  154.7946 H   0  0  0  0  0  0  0  0  0  0  0  0  # atno 10764 bound_to 10752
  153.8449  135.6927  153.4853 H   0  0  0  0  0  0  0  0  0  0  0  0  # atno 10765 bound_to 10752
  141.1550  133.7739  156.9842 H   0  0  0  0  0  0  0  0  0  0  0  0  # atno 11005 bound_to 11000
  144.8923  140.7539  143.5919 LP  0  0  0  0  0  0  0  0  0  0  0  0  # atno 17320 bound_to 7965
  145.3129  139.1813  143.4629 LP  0  0  0  0  0  0  0  0  0  0  0  0  # atno 17321 bound_to 7965
  140.7218  143.2596  151.4254 LP  0  0  0  0  0  0  0  0  0  0  0  0  # atno 17342 bound_to 10162
  139.5955  144.1407  152.2138 LP  0  0  0  0  0  0  0  0  0  0  0  0  # atno 17343 bound_to 10162
  157.2120  130.6442  149.5778 LP  0  0  0  0  0  0  0  0  0  0  0  0  # atno 17370 bound_to 10713
  155.9729  130.4657  150.6262 LP  0  0  0  0  0  0  0  0  0  0  0  0  # atno 17371 bound_to 10713
  140.1045  134.9515  157.1974 LP  0  0  0  0  0  0  0  0  0  0  0  0  # atno 17394 bound_to 11000
  140.3274  134.2848  155.7234 LP  0  0  0  0  0  0  0  0  0  0  0  0  # atno 17395 bound_to 11000

$$$$
