AV-unprocessed.smi:2922|AV-procd|sdf|11200|dock10
  -GOLD-   2272016 93D 1   1.00000     0.00000
 Structure written by MMmdl.
 30 31  0  0  0  0  0  0  0  0  1 V2000
  149.8566  138.3516  153.1740 N   0  0  0  0  0  0  0  0  0  0  0  0
  150.3789  138.5473  154.3881 C   0  0  0  0  0  0  0  0  0  0  0  0
  150.8540  139.6311  154.7219 O   0  0  0  0  0  0  0  0  0  0  0  0
  150.3446  137.3711  155.3760 C   0  0  2  0  0  0  0  0  0  0  0  0
  151.4414  136.3131  155.1485 C   0  0  0  0  0  0  0  0  0  0  0  0
  150.6672  135.0335  154.8879 C   0  0  0  0  0  0  0  0  0  0  0  0
  149.3323  135.3040  155.5758 C   0  0  2  0  0  0  0  0  0  0  0  0
  148.1689  134.4418  155.0689 C   0  0  0  0  0  0  0  0  0  0  0  0
  147.9617  134.6043  153.6379 N   0  0  0  0  0  0  0  0  0  0  0  0
  146.9506  133.9881  152.9254 C   0  0  0  0  0  0  0  0  0  0  0  0
  145.6860  134.1870  153.3187 N   0  0  0  0  0  0  0  0  0  0  0  0
  144.7168  133.5723  152.6058 C   0  0  0  0  0  0  0  0  0  0  0  0
  145.0221  132.7569  151.4978 C   0  0  0  0  0  0  0  0  0  0  0  0
  143.7899  131.9676  150.5840 Cl  0  0  0  0  0  0  0  0  0  0  0  0
  146.3870  132.6196  151.1752 C   0  0  0  0  0  0  0  0  0  0  0  0
  147.3496  133.2393  151.8936 N   0  0  0  0  0  0  0  0  0  0  0  0
  149.1092  136.6663  155.2527 O   0  0  0  0  0  0  0  0  0  0  0  0
  149.8637  139.0995  152.4959 H   0  0  0  0  0  0  0  0  0  0  0  0
  149.4598  137.4528  152.9401 H   0  0  0  0  0  0  0  0  0  0  0  0
  150.4188  137.7640  156.3910 H   0  0  0  0  0  0  0  0  0  0  0  0
  152.1174  136.5376  154.3223 H   0  0  0  0  0  0  0  0  0  0  0  0
  152.0487  136.2119  156.0490 H   0  0  0  0  0  0  0  0  0  0  0  0
  150.5193  134.9053  153.8146 H   0  0  0  0  0  0  0  0  0  0  0  0
  151.1715  134.1454  155.2696 H   0  0  0  0  0  0  0  0  0  0  0  0
  149.4356  135.2148  156.6592 H   0  0  0  0  0  0  0  0  0  0  0  0
  148.3780  133.3907  155.2708 H   0  0  0  0  0  0  0  0  0  0  0  0
  147.2518  134.6935  155.6030 H   0  0  0  0  0  0  0  0  0  0  0  0
  148.6051  135.1865  153.1219 H   0  0  0  0  0  0  0  0  0  0  0  0
  143.6967  133.7320  152.9221 H   0  0  0  0  0  0  0  0  0  0  0  0
  146.7086  132.0131  150.3414 H   0  0  0  0  0  0  0  0  0  0  0  0
  1  2  1  0  0  0  0
  1 18  1  0  0  0  0
  1 19  1  0  0  0  0
  2  3  2  0  0  0  0
  2  4  1  0  0  0  0
  4 17  1  0  0  0  0
  4  5  1  0  0  0  0
  4 20  1  0  0  0  0
  5  6  1  0  0  0  0
  5 21  1  0  0  0  0
  5 22  1  0  0  0  0
  6  7  1  0  0  0  0
  6 23  1  0  0  0  0
  6 24  1  0  0  0  0
  7  8  1  0  0  0  0
  7 17  1  0  0  0  0
  7 25  1  0  0  0  0
  8  9  1  0  0  0  0
  8 26  1  0  0  0  0
  8 27  1  0  0  0  0
  9 10  1  0  0  0  0
  9 28  1  0  0  0  0
 10 16  1  0  0  0  0
 10 11  2  0  0  0  0
 11 12  1  0  0  0  0
 12 13  2  0  0  0  0
 12 29  1  0  0  0  0
 13 14  1  0  0  0  0
 13 15  1  0  0  0  0
 15 16  2  0  0  0  0
 15 30  1  0  0  0  0
M  END
> <s_m_source_file>
AV-unprocessed.smi

> <i_m_source_file_index>
2922

> <i_lp_mmshare_version>
43012

> <i_f3d_flags>
0

> <s_epik_input>
W05IMl1DKD1PKVtDQEBIXTFbQ0gyXVtDSDJdW0NASF0oTzEpW0NIMl1bTkhdYzJuW2NIXWMoQ2wpW2NIXW4y

> <s_epik_cmdline>
J2VwaWtfcHl0aG9uJywgJy1waCcsICc3LjAnLCAnLXRuJywgJzgnLCAnLW1hJywgJzIwMCcsICctbWV0YWxfYmluZGluZycsICctaW1hZScsICc8aW5maWxlLm1hZT4nLCAnLW9tYWUnLCAnPG91dGZpbGUubWFlPic=

> <r_lp_tautomer_probability>
1

> <r_epik_Ionization_Penalty>
6.13883e-06

> <r_epik_Ionization_Penalty_Charging>
0

> <r_epik_Ionization_Penalty_Neutral>
6.13883e-06

> <r_epik_State_Penalty>
-0

> <r_epik_Charging_Adjusted_Penalty>
0

> <i_epik_Tot_Q>
0

> <i_epik_Tot_abs_Q>
0

> <r_epik_Metal_State_Penalty>
-0

> <b_epik_Metal_Only>
0

> <s_lp_Force_Field>
OPLS_2005

> <r_lp_Energy>
9.86342

> <b_lp_Chiralities_Consistent>
1

> <s_lp_Variant>
AV-unprocessed.smi:2922-3

> <Gold.Version>
5.8.1

> <Gold.Id.Protein>
6NUR|6NUR_protein|mol2

> <Gold.PLP.Fitness>
36.5600

> <Gold.PLP.PLP>
-23.7044

> <Gold.PLP.part.hbond>
-4.2658

> <Gold.PLP.part.metal>
0.0000

> <Gold.PLP.part.buried>
-3.7063

> <Gold.PLP.part.nonpolar>
-16.2340

> <Gold.PLP.part.repulsive>
0.5589

> <Gold.PLP.ligand.clash>
0.0000

> <Gold.PLP.ligand.torsion>
1.0780

> <Gold.PLP.Chemscore.Hbond>
4.0000

> <Gold.PLP.Chemscore.CHOScore>
0.9978

> <Gold.PLP.Chemscore.Metal>
0.0000

> <Gold.Chemscore.Hbonds>
donor molecule, donor type, donor heavy atom, donor atom, acceptor molecule, acceptor atom, score
      L1  H     1    18       P1  7957  1.00
      L1  H     1    19       P1  7948  1.00
      L1  H     9    28       P1  7948  1.00
      P1  H  7989  7998       L1     3  1.00
      L1  C    12    29       P1 10957  0.07
      L1  C    15    30       P1 10747  0.85

> <Gold.PLP.Chemscore.Internal.Correction>
0.0182

> <Gold.Rescore>
     Score         DG    S(hbond)    S(metal)    S(lipo)     H(rot)  DE(clash)    DE(int)     intcor
     17.49     -18.78       3.77        0.00      47.94       1.91       0.00       1.29       ----

> <Gold.Chemscore.Fitness>
17.4888

> <Gold.Chemscore.DG>
-18.7802

> <Gold.Chemscore.ZeroCoef>
-5.4800

> <Gold.Chemscore.Hbond>
3.7700

> <Gold.Chemscore.Metal>
0.0000

> <Gold.Chemscore.Lipo>
47.9372

> <Gold.Chemscore.Internal_Hbond>
0.0000

> <Gold.Chemscore.DEClash>
0.0021

> <Gold.Chemscore.DEInternal>
1.2893

> <Gold.Chemscore.Rot>
1.9142

> <Gold.Chemscore.Internal.Correction>
   9.000000E+99

> <Gold.Chemscore.Hbonds>
donor molecule, donor type, donor heavy atom, donor atom, acceptor molecule, acceptor atom, score
      L1  H     1    18       P1  7957  0.78
      L1  H     1    19       P1  7948  0.83
      L1  H     9    28       P1  7948  0.75
      P1  H  7989  7998       L1     3  0.99

> <Gold.Chemscore.Hbond.Weighted>
-12.5918

> <Gold.Chemscore.Metal.Weighted>
-0.0000

> <Gold.Chemscore.Lipo.Weighted>
-5.6087

> <Gold.Chemscore.Internal_Hbond.Weighted>
0.0000

> <Gold.Chemscore.DEClash.Weighted>
0.0021

> <Gold.Chemscore.DEInternal.Weighted>
1.2893

> <Gold.Chemscore.Rot.Weighted>
4.9002

> <Gold.Chemscore.Internal.Correction.Weighted>
   9.000000E+99

> <Gold.Protein.RotatedTorsions>
[ 6907 6896 6895 6894 ] final  -27.60 input  -60.11 | X-H torsion
[ 7974 7965 7964 7962 ] final    2.87 input  175.53 | X-H torsion
[ 8008 7997 7996 7995 ] final  -59.86 input   59.86 | X-H torsion
[ 10167 10162 10161 10158 ] final  131.22 input  -65.29 | X-H torsion
[ 10718 10713 10712 10709 ] final -146.65 input   66.30 | X-H torsion
[ 10763 10752 10751 10750 ] final   83.18 input  -60.55 | X-H torsion
[ 11005 11000 10999 10996 ] final   52.86 input  -57.11 | X-H torsion

> <Gold.Protein.ActiveResidues>
 VAL166  LYS551  ARG553  GLY616  TRP617  ASP618  TYR619  PRO620  LYS621  CYS622 
 ASP623  PHE694  ASN695  SER759  ASP760  ASP761  ALA762  ILE779  LEU786  VAL792 
 PHE793  MET794  SER795  GLU796  ALA797  LYS798  CYS799  TRP800  GLU811  SER814 

> <Gold.Protein.RotatedAtoms>
  151.1446  135.0197  159.8640 H   0  0  0  0  0  0  0  0  0  0  0  0  # atno 6907 bound_to 6896
  152.5453  134.1459  159.8508 H   0  0  0  0  0  0  0  0  0  0  0  0  # atno 6908 bound_to 6896
  151.1538  133.4844  159.2627 H   0  0  0  0  0  0  0  0  0  0  0  0  # atno 6909 bound_to 6896
  146.2444  140.0770  142.8359 H   0  0  0  0  0  0  0  0  0  0  0  0  # atno 7974 bound_to 7965
  154.4371  140.1052  156.6182 H   0  0  0  0  0  0  0  0  0  0  0  0  # atno 8008 bound_to 7997
  155.5736  140.3489  155.4503 H   0  0  0  0  0  0  0  0  0  0  0  0  # atno 8009 bound_to 7997
  156.0371  140.1273  157.0185 H   0  0  0  0  0  0  0  0  0  0  0  0  # atno 8010 bound_to 7997
  139.5394  144.6715  151.4676 H   0  0  0  0  0  0  0  0  0  0  0  0  # atno 10167 bound_to 10162
  156.3976  130.7918  151.2125 H   0  0  0  0  0  0  0  0  0  0  0  0  # atno 10718 bound_to 10713
  153.1268  135.4701  154.9285 H   0  0  0  0  0  0  0  0  0  0  0  0  # atno 10763 bound_to 10752
  154.7627  135.3136  154.8348 H   0  0  0  0  0  0  0  0  0  0  0  0  # atno 10764 bound_to 10752
  153.8900  135.6885  153.4815 H   0  0  0  0  0  0  0  0  0  0  0  0  # atno 10765 bound_to 10752
  140.0814  134.5333  155.8943 H   0  0  0  0  0  0  0  0  0  0  0  0  # atno 11005 bound_to 11000
  145.0766  140.9192  143.4850 LP  0  0  0  0  0  0  0  0  0  0  0  0  # atno 17320 bound_to 7965
  145.0915  139.2887  143.5732 LP  0  0  0  0  0  0  0  0  0  0  0  0  # atno 17321 bound_to 7965
  140.6617  143.8485  150.6895 LP  0  0  0  0  0  0  0  0  0  0  0  0  # atno 17342 bound_to 10162
  140.1881  143.4059  152.1883 LP  0  0  0  0  0  0  0  0  0  0  0  0  # atno 17343 bound_to 10162
  157.7502  131.0296  150.4102 LP  0  0  0  0  0  0  0  0  0  0  0  0  # atno 17370 bound_to 10713
  156.4375  130.3985  149.6719 LP  0  0  0  0  0  0  0  0  0  0  0  0  # atno 17371 bound_to 10713
  141.2048  133.6642  156.6141 LP  0  0  0  0  0  0  0  0  0  0  0  0  # atno 17394 bound_to 11000
  140.3482  134.7791  157.4448 LP  0  0  0  0  0  0  0  0  0  0  0  0  # atno 17395 bound_to 11000

$$$$
