AV-unprocessed.smi:2976|AV-procd|sdf|11366|dock5
  -GOLD-   2272016283D 1   1.00000     0.00000
 Structure written by MMmdl.
 40 41  0  0  0  0  0  0  0  0  1 V2000
  153.1098  142.5625  162.6027 C   0  0  0  0  0  0  0  0  0  0  0  0
  152.5061  142.9448  161.2396 C   0  0  1  0  0  0  0  0  0  0  0  0
  152.2209  144.4608  161.2041 C   0  0  0  0  0  0  0  0  0  0  0  0
  151.6077  144.9045  159.8697 C   0  0  0  0  0  0  0  0  0  0  0  0
  152.5081  144.5031  158.6927 C   0  0  0  0  0  0  0  0  0  0  0  0
  152.7996  142.9897  158.6886 C   0  0  2  0  0  0  0  0  0  0  0  0
  151.5882  142.2341  158.3800 N   0  0  0  0  0  0  0  0  0  0  0  0
  151.5244  141.0056  157.8411 C   0  0  0  0  0  0  0  0  0  0  0  0
  152.5232  140.3586  157.5294 O   0  0  0  0  0  0  0  0  0  0  0  0
  150.1292  140.3987  157.6077 C   0  0  0  0  0  0  0  0  0  0  0  0
  150.1417  139.0311  157.0602 N   0  0  0  0  0  0  0  0  0  0  0  0
  150.7739  138.9217  155.8335 N   0  0  0  0  0  0  0  0  0  0  0  0
  150.8036  137.7814  155.2346 C   0  0  0  0  0  0  0  0  0  0  0  0
  150.1988  136.5971  155.8029 C   0  0  0  0  0  0  0  0  0  0  0  0
  150.2681  135.0948  154.9514 Cl  0  0  0  0  0  0  0  0  0  0  0  0
  149.5881  136.7133  157.0087 C   0  0  0  0  0  0  0  0  0  0  0  0
  148.8390  135.3415  157.7508 Cl  0  0  0  0  0  0  0  0  0  0  0  0
  149.5328  137.9977  157.7200 C   0  0  0  0  0  0  0  0  0  0  0  0
  148.9749  138.1474  158.8076 O   0  0  0  0  0  0  0  0  0  0  0  0
  153.4022  142.5241  160.0398 C   0  0  2  0  0  0  0  0  0  0  0  0
  153.7103  141.0123  160.0204 C   0  0  0  0  0  0  0  0  0  0  0  0
  154.1016  142.9962  162.7328 H   0  0  0  0  0  0  0  0  0  0  0  0
  153.1963  141.4826  162.7195 H   0  0  0  0  0  0  0  0  0  0  0  0
  152.4833  142.9189  163.4209 H   0  0  0  0  0  0  0  0  0  0  0  0
  151.5503  142.4257  161.1529 H   0  0  0  0  0  0  0  0  0  0  0  0
  151.5466  144.7323  162.0172 H   0  0  0  0  0  0  0  0  0  0  0  0
  153.1459  145.0129  161.3769 H   0  0  0  0  0  0  0  0  0  0  0  0
  150.6189  144.4592  159.7523 H   0  0  0  0  0  0  0  0  0  0  0  0
  151.4595  145.9845  159.8705 H   0  0  0  0  0  0  0  0  0  0  0  0
  152.0493  144.8063  157.7510 H   0  0  0  0  0  0  0  0  0  0  0  0
  153.4498  145.0495  158.7587 H   0  0  0  0  0  0  0  0  0  0  0  0
  153.5352  142.7887  157.9073 H   0  0  0  0  0  0  0  0  0  0  0  0
  150.7137  142.6879  158.6002 H   0  0  0  0  0  0  0  0  0  0  0  0
  149.5967  140.4093  158.5604 H   0  0  0  0  0  0  0  0  0  0  0  0
  149.5619  141.0650  156.9554 H   0  0  0  0  0  0  0  0  0  0  0  0
  151.2864  137.6484  154.2664 H   0  0  0  0  0  0  0  0  0  0  0  0
  154.3586  143.0377  160.1513 H   0  0  0  0  0  0  0  0  0  0  0  0
  152.7991  140.4134  160.0456 H   0  0  0  0  0  0  0  0  0  0  0  0
  154.3254  140.7162  160.8697 H   0  0  0  0  0  0  0  0  0  0  0  0
  154.2621  140.7377  159.1210 H   0  0  0  0  0  0  0  0  0  0  0  0
  1  2  1  0  0  0  0
  1 22  1  0  0  0  0
  1 23  1  0  0  0  0
  1 24  1  0  0  0  0
  2 20  1  0  0  0  0
  2  3  1  0  0  0  0
  2 25  1  0  0  0  0
  3  4  1  0  0  0  0
  3 26  1  0  0  0  0
  3 27  1  0  0  0  0
  4  5  1  0  0  0  0
  4 28  1  0  0  0  0
  4 29  1  0  0  0  0
  5  6  1  0  0  0  0
  5 30  1  0  0  0  0
  5 31  1  0  0  0  0
  6  7  1  0  0  0  0
  6 20  1  0  0  0  0
  6 32  1  0  0  0  0
  7  8  1  0  0  0  0
  7 33  1  0  0  0  0
  8  9  2  0  0  0  0
  8 10  1  0  0  0  0
 10 11  1  0  0  0  0
 10 34  1  0  0  0  0
 10 35  1  0  0  0  0
 11 18  1  0  0  0  0
 11 12  1  0  0  0  0
 12 13  2  0  0  0  0
 13 14  1  0  0  0  0
 13 36  1  0  0  0  0
 14 15  1  0  0  0  0
 14 16  2  0  0  0  0
 16 17  1  0  0  0  0
 16 18  1  0  0  0  0
 18 19  2  0  0  0  0
 20 21  1  0  0  0  0
 20 37  1  0  0  0  0
 21 38  1  0  0  0  0
 21 39  1  0  0  0  0
 21 40  1  0  0  0  0
M  END
> <s_m_source_file>
AV-unprocessed.smi

> <i_m_source_file_index>
2976

> <i_lp_mmshare_version>
43012

> <i_f3d_flags>
0

> <s_epik_input>
W0NIM11bQ0BASF0xW0NIMl1bQ0gyXVtDSDJdW0NASF0oW0NASF0xW0NIM10pW05IXUMoPU8pW0NIMl1uMm5bY0hdYyhDbCljKENsKWMyPU8=

> <s_epik_cmdline>
J2VwaWtfcHl0aG9uJywgJy1waCcsICc3LjAnLCAnLXRuJywgJzgnLCAnLW1hJywgJzIwMCcsICctbWV0YWxfYmluZGluZycsICctaW1hZScsICc8aW5maWxlLm1hZT4nLCAnLW9tYWUnLCAnPG91dGZpbGUubWFlPic=

> <r_lp_tautomer_probability>
1

> <r_epik_Ionization_Penalty>
1.90777e-08

> <r_epik_Ionization_Penalty_Charging>
3.07942e-11

> <r_epik_Ionization_Penalty_Neutral>
1.90469e-08

> <r_epik_State_Penalty>
-0

> <r_epik_Charging_Adjusted_Penalty>
3.07942e-11

> <i_epik_Tot_Q>
0

> <i_epik_Tot_abs_Q>
0

> <r_epik_Metal_State_Penalty>
-0

> <b_epik_Metal_Only>
0

> <s_lp_Force_Field>
OPLS_2005

> <r_lp_Energy>
24.1651

> <b_lp_Chiralities_Consistent>
1

> <s_lp_Variant>
AV-unprocessed.smi:2976-8

> <Gold.Version>
5.8.1

> <Gold.Id.Protein>
6NUR|6NUR_protein|mol2

> <Gold.PLP.Fitness>
45.6725

> <Gold.PLP.PLP>
-43.4710

> <Gold.PLP.part.hbond>
-1.3194

> <Gold.PLP.part.metal>
0.0000

> <Gold.PLP.part.buried>
-5.7911

> <Gold.PLP.part.nonpolar>
-35.1808

> <Gold.PLP.part.repulsive>
0.0656

> <Gold.PLP.ligand.clash>
0.0000

> <Gold.PLP.ligand.torsion>
0.3319

> <Gold.PLP.Chemscore.Hbond>
0.9516

> <Gold.PLP.Chemscore.CHOScore>
0.0000

> <Gold.PLP.Chemscore.Metal>
0.0000

> <Gold.Chemscore.Hbonds>
donor molecule, donor type, donor heavy atom, donor atom, acceptor molecule, acceptor atom, score
      P1  H  7997  8009       L1     9  0.87

> <Gold.PLP.Chemscore.Internal.Correction>
0.0105

> <Gold.Rescore>
     Score         DG    S(hbond)    S(metal)    S(lipo)     H(rot)  DE(clash)    DE(int)     intcor
     16.03     -18.90       0.91        0.00     121.40       1.49       0.04       2.83       ----

> <Gold.Chemscore.Fitness>
16.0281

> <Gold.Chemscore.DG>
-18.9004

> <Gold.Chemscore.ZeroCoef>
-5.4800

> <Gold.Chemscore.Hbond>
0.9050

> <Gold.Chemscore.Metal>
0.0000

> <Gold.Chemscore.Lipo>
121.3962

> <Gold.Chemscore.Internal_Hbond>
0.0000

> <Gold.Chemscore.DEClash>
0.0444

> <Gold.Chemscore.DEInternal>
2.8279

> <Gold.Chemscore.Rot>
1.4866

> <Gold.Chemscore.Internal.Correction>
   9.000000E+99

> <Gold.Chemscore.Hbonds>
donor molecule, donor type, donor heavy atom, donor atom, acceptor molecule, acceptor atom, score
      P1  H  7997  8009       L1     9  0.81

> <Gold.Chemscore.Hbond.Weighted>
-3.0228

> <Gold.Chemscore.Metal.Weighted>
-0.0000

> <Gold.Chemscore.Lipo.Weighted>
-14.2034

> <Gold.Chemscore.Internal_Hbond.Weighted>
0.0000

> <Gold.Chemscore.DEClash.Weighted>
0.0444

> <Gold.Chemscore.DEInternal.Weighted>
2.8279

> <Gold.Chemscore.Rot.Weighted>
3.8057

> <Gold.Chemscore.Internal.Correction.Weighted>
   9.000000E+99

> <Gold.Protein.RotatedTorsions>
[ 6907 6896 6895 6894 ] final  115.11 input  -60.11 | X-H torsion
[ 7974 7965 7964 7962 ] final   45.21 input  175.53 | X-H torsion
[ 8008 7997 7996 7995 ] final  174.79 input   59.86 | X-H torsion
[ 10167 10162 10161 10158 ] final  163.37 input  -65.29 | X-H torsion
[ 10718 10713 10712 10709 ] final -158.99 input   66.30 | X-H torsion
[ 10763 10752 10751 10750 ] final  -57.78 input  -60.55 | X-H torsion
[ 11005 11000 10999 10996 ] final  117.44 input  -57.11 | X-H torsion

> <Gold.Protein.ActiveResidues>
 VAL166  LYS551  ARG553  GLY616  TRP617  ASP618  TYR619  PRO620  LYS621  CYS622 
 ASP623  PHE694  ASN695  SER759  ASP760  ASP761  ALA762  ILE779  LEU786  VAL792 
 PHE793  MET794  SER795  GLU796  ALA797  LYS798  CYS799  TRP800  GLU811  SER814 

> <Gold.Protein.RotatedAtoms>
  152.4761  133.8142  159.7019 H   0  0  0  0  0  0  0  0  0  0  0  0  # atno 6907 bound_to 6896
  150.8779  133.7403  159.2947 H   0  0  0  0  0  0  0  0  0  0  0  0  # atno 6908 bound_to 6896
  151.4916  135.1061  159.9857 H   0  0  0  0  0  0  0  0  0  0  0  0  # atno 6909 bound_to 6896
  146.0500  139.4989  142.9724 H   0  0  0  0  0  0  0  0  0  0  0  0  # atno 7974 bound_to 7965
  156.0938  140.1425  156.9558 H   0  0  0  0  0  0  0  0  0  0  0  0  # atno 8008 bound_to 7997
  154.4658  140.0927  156.7063 H   0  0  0  0  0  0  0  0  0  0  0  0  # atno 8009 bound_to 7997
  155.4876  140.3447  155.4352 H   0  0  0  0  0  0  0  0  0  0  0  0  # atno 8010 bound_to 7997
  139.4873  144.4344  151.9031 H   0  0  0  0  0  0  0  0  0  0  0  0  # atno 10167 bound_to 10162
  156.5618  130.8650  151.2812 H   0  0  0  0  0  0  0  0  0  0  0  0  # atno 10718 bound_to 10713
  154.2277  135.6366  153.5165 H   0  0  0  0  0  0  0  0  0  0  0  0  # atno 10763 bound_to 10752
  152.9955  135.5512  154.6046 H   0  0  0  0  0  0  0  0  0  0  0  0  # atno 10764 bound_to 10752
  154.5521  135.2902  155.0973 H   0  0  0  0  0  0  0  0  0  0  0  0  # atno 10765 bound_to 10752
  139.9074  134.9610  156.7351 H   0  0  0  0  0  0  0  0  0  0  0  0  # atno 11005 bound_to 11000
  145.6740  141.0209  143.1642 LP  0  0  0  0  0  0  0  0  0  0  0  0  # atno 17320 bound_to 7965
  144.7118  139.8344  143.7412 LP  0  0  0  0  0  0  0  0  0  0  0  0  # atno 17321 bound_to 7965
  140.3793  144.2757  150.5910 LP  0  0  0  0  0  0  0  0  0  0  0  0  # atno 17342 bound_to 10162
  140.5248  143.2257  151.8332 LP  0  0  0  0  0  0  0  0  0  0  0  0  # atno 17343 bound_to 10162
  157.7367  130.9783  150.2150 LP  0  0  0  0  0  0  0  0  0  0  0  0  # atno 17370 bound_to 10713
  156.2792  130.3731  149.7953 LP  0  0  0  0  0  0  0  0  0  0  0  0  # atno 17371 bound_to 10713
  140.6894  133.9403  155.7957 LP  0  0  0  0  0  0  0  0  0  0  0  0  # atno 17394 bound_to 11000
  141.0452  134.0563  157.3852 LP  0  0  0  0  0  0  0  0  0  0  0  0  # atno 17395 bound_to 11000

$$$$
