AV-unprocessed.smi:1802|AV-procd|sdf|7274|dock5
  -GOLD-   22720 8533D 1   1.00000     0.00000
 Structure written by MMmdl.
 41 42  0  0  0  0  0  0  0  0  2 V2000
  147.5832  132.4876  152.7853 C   0  0  0  0  0  0  0  0  0  0  0  0
  146.7189  132.7047  151.5353 C   0  0  1  0  0  0  0  0  0  0  0  0
  145.5990  131.6550  151.4378 C   0  0  0  0  0  0  0  0  0  0  0  0
  144.7354  131.9123  150.1968 C   0  0  0  0  0  0  0  0  0  0  0  0
  144.1911  133.3495  150.1940 C   0  0  0  0  0  0  0  0  0  0  0  0
  145.2963  134.3385  150.2807 N   0  3  1  0  0  0  0  0  0  0  0  0
  144.8153  135.7357  150.1356 C   0  0  0  0  0  0  0  0  0  0  0  0
  145.8866  136.7661  150.5307 C   0  0  0  0  0  0  0  0  0  0  0  0
  145.6885  137.2924  151.9620 C   0  0  0  0  0  0  0  0  0  0  0  0
  144.4234  138.0044  152.1052 N   0  0  0  0  0  0  0  0  0  0  0  0
  143.2748  137.4468  152.5155 C   0  0  0  0  0  0  0  0  0  0  0  0
  143.1675  136.2535  152.8003 O   0  0  0  0  0  0  0  0  0  0  0  0
  142.2826  138.3528  152.5708 N   0  0  0  0  0  0  0  0  0  0  0  0
  140.9314  138.1536  152.9605 C   0  0  0  0  0  0  0  0  0  0  0  0
  140.0093  139.1291  152.9735 N   0  0  0  0  0  0  0  0  0  0  0  0
  138.7690  138.6665  153.3943 N   0  0  0  0  0  0  0  0  0  0  0  0
  138.8043  137.3624  153.6822 C   0  0  0  0  0  0  0  0  0  0  0  0
  140.3570  136.5720  153.4686 S   0  0  0  0  0  0  0  0  0  0  0  0
  146.1234  134.1267  151.4990 C   0  0  0  0  0  0  0  0  0  0  0  0
  146.9956  132.5916  153.6982 H   0  0  0  0  0  0  0  0  0  0  0  0
  148.3986  133.2103  152.8295 H   0  0  0  0  0  0  0  0  0  0  0  0
  148.0275  131.4919  152.7868 H   0  0  0  0  0  0  0  0  0  0  0  0
  147.3670  132.5891  150.6652 H   0  0  0  0  0  0  0  0  0  0  0  0
  146.0233  130.6515  151.3926 H   0  0  0  0  0  0  0  0  0  0  0  0
  144.9751  131.6898  152.3321 H   0  0  0  0  0  0  0  0  0  0  0  0
  145.3263  131.7420  149.2958 H   0  0  0  0  0  0  0  0  0  0  0  0
  143.9100  131.2005  150.1640 H   0  0  0  0  0  0  0  0  0  0  0  0
  143.6200  133.5108  149.2787 H   0  0  0  0  0  0  0  0  0  0  0  0
  143.5032  133.4950  151.0286 H   0  0  0  0  0  0  0  0  0  0  0  0
  144.5502  135.9152  149.0926 H   0  0  0  0  0  0  0  0  0  0  0  0
  143.9012  135.8802  150.7135 H   0  0  0  0  0  0  0  0  0  0  0  0
  146.8831  136.3323  150.4494 H   0  0  0  0  0  0  0  0  0  0  0  0
  145.8543  137.5989  149.8267 H   0  0  0  0  0  0  0  0  0  0  0  0
  145.7350  136.4733  152.6819 H   0  0  0  0  0  0  0  0  0  0  0  0
  146.4956  137.9778  152.2213 H   0  0  0  0  0  0  0  0  0  0  0  0
  144.4267  138.9911  151.8908 H   0  0  0  0  0  0  0  0  0  0  0  0
  142.5223  139.2980  152.3103 H   0  0  0  0  0  0  0  0  0  0  0  0
  137.9093  136.8629  154.0228 H   0  0  0  0  0  0  0  0  0  0  0  0
  145.5132  134.3032  152.3868 H   0  0  0  0  0  0  0  0  0  0  0  0
  146.9363  134.8516  151.5286 H   0  0  0  0  0  0  0  0  0  0  0  0
  145.8921  134.1597  149.4847 H   0  0  0  0  0  0  0  0  0  0  0  0
  1  2  1  0  0  0  0
  1 20  1  0  0  0  0
  1 21  1  0  0  0  0
  1 22  1  0  0  0  0
  2 19  1  0  0  0  0
  2  3  1  0  0  0  0
  2 23  1  0  0  0  0
  3  4  1  0  0  0  0
  3 24  1  0  0  0  0
  3 25  1  0  0  0  0
  4  5  1  0  0  0  0
  4 26  1  0  0  0  0
  4 27  1  0  0  0  0
  5  6  1  0  0  0  0
  5 28  1  0  0  0  0
  5 29  1  0  0  0  0
  6  7  1  0  0  0  0
  6 19  1  0  0  0  0
  6 41  1  0  0  0  0
  7  8  1  0  0  0  0
  7 30  1  0  0  0  0
  7 31  1  0  0  0  0
  8  9  1  0  0  0  0
  8 32  1  0  0  0  0
  8 33  1  0  0  0  0
  9 10  1  0  0  0  0
  9 34  1  0  0  0  0
  9 35  1  0  0  0  0
 10 11  1  0  0  0  0
 10 36  1  0  0  0  0
 11 12  2  0  0  0  0
 11 13  1  0  0  0  0
 13 14  1  0  0  0  0
 13 37  1  0  0  0  0
 14 18  1  0  0  0  0
 14 15  2  0  0  0  0
 15 16  1  0  0  0  0
 16 17  2  0  0  0  0
 17 18  1  0  0  0  0
 17 38  1  0  0  0  0
 19 39  1  0  0  0  0
 19 40  1  0  0  0  0
M  CHG  1   6   1
M  END
> <s_m_source_file>
AV-unprocessed.smi

> <i_m_source_file_index>
1802

> <i_lp_mmshare_version>
43012

> <i_f3d_flags>
0

> <s_epik_input>
W0NIM11bQ0BASF0xW0NIMl1bQ0gyXVtDSDJdTihbQ0gyXTEpW0NIMl1bQ0gyXVtDSDJdW05IXUMoPU8pW05IXWMybm5bY0hdczI=

> <s_epik_cmdline>
J2VwaWtfcHl0aG9uJywgJy1waCcsICc3LjAnLCAnLXRuJywgJzgnLCAnLW1hJywgJzIwMCcsICctbWV0YWxfYmluZGluZycsICctaW1hZScsICc8aW5maWxlLm1hZT4nLCAnLW9tYWUnLCAnPG91dGZpbGUubWFlPic=

> <r_lp_tautomer_probability>
1

> <r_epik_Ionization_Penalty>
0.00272894

> <r_epik_Ionization_Penalty_Charging>
0.000288442

> <r_epik_Ionization_Penalty_Neutral>
0.0024405

> <r_epik_State_Penalty>
-0

> <r_epik_Charging_Adjusted_Penalty>
0.000288442

> <i_epik_Tot_Q>
1

> <i_epik_Tot_abs_Q>
1

> <r_epik_Metal_State_Penalty>
0.350525

> <b_epik_Metal_Only>
0

> <s_lp_Force_Field>
OPLS_2005

> <r_lp_Energy>
15.2014

> <b_lp_Chiralities_Consistent>
1

> <s_lp_Variant>
AV-unprocessed.smi:1802-4

> <Gold.Version>
5.8.1

> <Gold.Id.Protein>
6NUR|6NUR_protein|mol2

> <Gold.PLP.Fitness>
43.4377

> <Gold.PLP.PLP>
-36.2190

> <Gold.PLP.part.hbond>
-4.0000

> <Gold.PLP.part.metal>
0.0000

> <Gold.PLP.part.buried>
-1.5383

> <Gold.PLP.part.nonpolar>
-32.2178

> <Gold.PLP.part.repulsive>
0.4985

> <Gold.PLP.ligand.clash>
0.0000

> <Gold.PLP.ligand.torsion>
0.5884

> <Gold.PLP.Chemscore.Hbond>
2.7855

> <Gold.PLP.Chemscore.CHOScore>
0.0000

> <Gold.PLP.Chemscore.Metal>
0.0000

> <Gold.Chemscore.Hbonds>
donor molecule, donor type, donor heavy atom, donor atom, acceptor molecule, acceptor atom, score
      L1  H     6    41       P1  7921  0.78
      L1  H    10    36       P1 10175  0.78
      L1  H    13    37       P1 10175  0.91

> <Gold.PLP.Chemscore.Internal.Correction>
0.0390

> <Gold.Rescore>
     Score         DG    S(hbond)    S(metal)    S(lipo)     H(rot)  DE(clash)    DE(int)     intcor
     15.90     -18.41       2.57        0.00      80.54       1.98       0.74       1.77       ----

> <Gold.Chemscore.Fitness>
15.8974

> <Gold.Chemscore.DG>
-18.4087

> <Gold.Chemscore.ZeroCoef>
-5.4800

> <Gold.Chemscore.Hbond>
2.5665

> <Gold.Chemscore.Metal>
0.0000

> <Gold.Chemscore.Lipo>
80.5420

> <Gold.Chemscore.Internal_Hbond>
0.0000

> <Gold.Chemscore.DEClash>
0.7438

> <Gold.Chemscore.DEInternal>
1.7675

> <Gold.Chemscore.Rot>
1.9793

> <Gold.Chemscore.Internal.Correction>
   9.000000E+99

> <Gold.Chemscore.Hbonds>
donor molecule, donor type, donor heavy atom, donor atom, acceptor molecule, acceptor atom, score
      L1  H     6    41       P1  7921  0.30
      L1  H    10    36       P1 10175  0.78
      L1  H    13    37       P1 10175  0.68

> <Gold.Chemscore.Hbond.Weighted>
-8.5723

> <Gold.Chemscore.Metal.Weighted>
-0.0000

> <Gold.Chemscore.Lipo.Weighted>
-9.4234

> <Gold.Chemscore.Internal_Hbond.Weighted>
0.0000

> <Gold.Chemscore.DEClash.Weighted>
0.7438

> <Gold.Chemscore.DEInternal.Weighted>
1.7675

> <Gold.Chemscore.Rot.Weighted>
5.0670

> <Gold.Chemscore.Internal.Correction.Weighted>
   9.000000E+99

> <Gold.Protein.RotatedTorsions>
[ 6907 6896 6895 6894 ] final   71.66 input  -60.11 | X-H torsion
[ 7974 7965 7964 7962 ] final -168.69 input  175.53 | X-H torsion
[ 8008 7997 7996 7995 ] final -103.73 input   59.86 | X-H torsion
[ 10167 10162 10161 10158 ] final  -74.58 input  -65.29 | X-H torsion
[ 10718 10713 10712 10709 ] final  -12.77 input   66.30 | X-H torsion
[ 10763 10752 10751 10750 ] final   93.45 input  -60.55 | X-H torsion
[ 11005 11000 10999 10996 ] final   21.87 input  -57.11 | X-H torsion

> <Gold.Protein.ActiveResidues>
 VAL166  LYS551  ARG553  GLY616  TRP617  ASP618  TYR619  PRO620  LYS621  CYS622 
 ASP623  PHE694  ASN695  SER759  ASP760  ASP761  ALA762  ILE779  LEU786  VAL792 
 PHE793  MET794  SER795  GLU796  ALA797  LYS798  CYS799  TRP800  GLU811  SER814 

> <Gold.Protein.RotatedAtoms>
  152.4823  134.4687  159.9628 H   0  0  0  0  0  0  0  0  0  0  0  0  # atno 6907 bound_to 6896
  151.4691  133.3567  159.2828 H   0  0  0  0  0  0  0  0  0  0  0  0  # atno 6908 bound_to 6896
  150.8905  134.8333  159.7350 H   0  0  0  0  0  0  0  0  0  0  0  0  # atno 6909 bound_to 6896
  144.7198  140.2332  143.6301 H   0  0  0  0  0  0  0  0  0  0  0  0  # atno 7974 bound_to 7965
  154.8751  140.0421  157.1748 H   0  0  0  0  0  0  0  0  0  0  0  0  # atno 8008 bound_to 7997
  154.8698  140.2956  155.5467 H   0  0  0  0  0  0  0  0  0  0  0  0  # atno 8009 bound_to 7997
  156.2999  140.2431  156.3685 H   0  0  0  0  0  0  0  0  0  0  0  0  # atno 8010 bound_to 7997
  140.5015  143.2360  151.7744 H   0  0  0  0  0  0  0  0  0  0  0  0  # atno 10167 bound_to 10162
  156.6398  130.4925  149.6099 H   0  0  0  0  0  0  0  0  0  0  0  0  # atno 10718 bound_to 10713
  153.2304  135.4325  155.0589 H   0  0  0  0  0  0  0  0  0  0  0  0  # atno 10763 bound_to 10752
  154.8294  135.3378  154.6795 H   0  0  0  0  0  0  0  0  0  0  0  0  # atno 10764 bound_to 10752
  153.7223  135.7016  153.5066 H   0  0  0  0  0  0  0  0  0  0  0  0  # atno 10765 bound_to 10752
  140.3868  134.1861  155.7663 H   0  0  0  0  0  0  0  0  0  0  0  0  # atno 11005 bound_to 11000
  145.8390  139.2121  143.1838 LP  0  0  0  0  0  0  0  0  0  0  0  0  # atno 17320 bound_to 7965
  146.0363  140.8209  142.9851 LP  0  0  0  0  0  0  0  0  0  0  0  0  # atno 17321 bound_to 7965
  139.4873  144.4515  151.9648 LP  0  0  0  0  0  0  0  0  0  0  0  0  # atno 17342 bound_to 10162
  140.3605  144.2979  150.5934 LP  0  0  0  0  0  0  0  0  0  0  0  0  # atno 17343 bound_to 10162
  156.2168  130.6712  151.1327 LP  0  0  0  0  0  0  0  0  0  0  0  0  # atno 17370 bound_to 10713
  157.7174  131.0701  150.6272 LP  0  0  0  0  0  0  0  0  0  0  0  0  # atno 17371 bound_to 10713
  141.1904  133.8216  157.0918 LP  0  0  0  0  0  0  0  0  0  0  0  0  # atno 17394 bound_to 11000
  140.0436  134.9841  157.1008 LP  0  0  0  0  0  0  0  0  0  0  0  0  # atno 17395 bound_to 11000

$$$$
