AV-unprocessed.smi:884|AV-procd|sdf|4043|dock7
  -GOLD-   22720 1533D 1   1.00000     0.00000
 Structure written by MMmdl.
 48 50  0  0  0  0  0  0  0  0  2 V2000
  147.2250  139.4079  155.1289 O   0  0  0  0  0  0  0  0  0  0  0  0
  148.0154  138.8379  154.3756 C   0  0  0  0  0  0  0  0  0  0  0  0
  147.6700  137.7457  153.6705 N   0  0  0  0  0  0  0  0  0  0  0  0
  146.3722  137.0755  153.7171 C   0  0  0  0  0  0  0  0  0  0  0  0
  145.6526  137.0809  152.3543 C   0  0  0  0  0  0  0  0  0  0  0  0
  145.4567  135.7002  151.7509 C   0  0  0  0  0  0  0  0  0  0  0  0
  144.1887  135.2364  151.3393 C   0  0  0  0  0  0  0  0  0  0  0  0
  144.0701  133.9359  150.8060 C   0  0  0  0  0  0  0  0  0  0  0  0
  145.2212  133.1293  150.6912 C   0  0  0  0  0  0  0  0  0  0  0  0
  146.4627  133.6417  151.1194 C   0  0  0  0  0  0  0  0  0  0  0  0
  146.5337  134.8893  151.6332 N   0  3  0  0  0  0  0  0  0  0  0  0
  149.2943  139.2553  154.1904 N   0  0  0  0  0  0  0  0  0  0  0  0
  150.4348  138.4060  153.8149 C   0  0  0  0  0  0  0  0  0  0  0  0
  151.2459  138.0837  155.0763 C   0  0  0  0  0  0  0  0  0  0  0  0
  151.9399  139.5992  155.8043 S   0  0  0  0  0  0  0  0  0  0  0  0
  150.4677  140.6905  155.8812 C   0  0  0  0  0  0  0  0  0  0  0  0
  149.5398  140.2718  157.0524 C   0  0  0  0  0  0  0  0  0  0  0  0
  150.1570  140.5099  158.4418 C   0  0  0  0  0  0  0  0  0  0  0  0
  150.5877  141.9716  158.6159 C   0  0  0  0  0  0  0  0  0  0  0  0
  151.5473  142.3959  157.4968 C   0  0  0  0  0  0  0  0  0  0  0  0
  150.9287  142.1523  156.1076 C   0  0  0  0  0  0  0  0  0  0  0  0
  149.7238  140.6232  154.5184 C   0  0  0  0  0  0  0  0  0  0  0  0
  148.3656  137.3452  153.0578 H   0  0  0  0  0  0  0  0  0  0  0  0
  146.4808  136.0486  154.0691 H   0  0  0  0  0  0  0  0  0  0  0  0
  145.7530  137.5804  154.4588 H   0  0  0  0  0  0  0  0  0  0  0  0
  144.6785  137.5605  152.4566 H   0  0  0  0  0  0  0  0  0  0  0  0
  146.2166  137.6946  151.6504 H   0  0  0  0  0  0  0  0  0  0  0  0
  143.3161  135.8656  151.4379 H   0  0  0  0  0  0  0  0  0  0  0  0
  143.1075  133.5618  150.4892 H   0  0  0  0  0  0  0  0  0  0  0  0
  145.1514  132.1303  150.2860 H   0  0  0  0  0  0  0  0  0  0  0  0
  147.3917  133.0923  151.0756 H   0  0  0  0  0  0  0  0  0  0  0  0
  150.1427  137.4818  153.3164 H   0  0  0  0  0  0  0  0  0  0  0  0
  151.0639  138.9258  153.0909 H   0  0  0  0  0  0  0  0  0  0  0  0
  150.6237  137.5781  155.8152 H   0  0  0  0  0  0  0  0  0  0  0  0
  152.0667  137.4076  154.8364 H   0  0  0  0  0  0  0  0  0  0  0  0
  148.6061  140.8319  156.9881 H   0  0  0  0  0  0  0  0  0  0  0  0
  149.2640  139.2234  156.9640 H   0  0  0  0  0  0  0  0  0  0  0  0
  149.4357  140.2452  159.2154 H   0  0  0  0  0  0  0  0  0  0  0  0
  151.0151  139.8531  158.5883 H   0  0  0  0  0  0  0  0  0  0  0  0
  149.7081  142.6163  158.6077 H   0  0  0  0  0  0  0  0  0  0  0  0
  151.0639  142.1081  159.5873 H   0  0  0  0  0  0  0  0  0  0  0  0
  151.7976  143.4512  157.6075 H   0  0  0  0  0  0  0  0  0  0  0  0
  152.4865  141.8502  157.5913 H   0  0  0  0  0  0  0  0  0  0  0  0
  151.6437  142.4426  155.3366 H   0  0  0  0  0  0  0  0  0  0  0  0
  150.0758  142.8224  155.9907 H   0  0  0  0  0  0  0  0  0  0  0  0
  150.3740  140.9913  153.7232 H   0  0  0  0  0  0  0  0  0  0  0  0
  148.8776  141.3123  154.5206 H   0  0  0  0  0  0  0  0  0  0  0  0
  147.4416  135.2378  151.9416 H   0  0  0  0  0  0  0  0  0  0  0  0
  1  2  2  0  0  0  0
  2  3  1  0  0  0  0
  2 12  1  0  0  0  0
  3  4  1  0  0  0  0
  3 23  1  0  0  0  0
  4  5  1  0  0  0  0
  4 24  1  0  0  0  0
  4 25  1  0  0  0  0
  5  6  1  0  0  0  0
  5 26  1  0  0  0  0
  5 27  1  0  0  0  0
  6 11  1  0  0  0  0
  6  7  2  0  0  0  0
  7  8  1  0  0  0  0
  7 28  1  0  0  0  0
  8  9  2  0  0  0  0
  8 29  1  0  0  0  0
  9 10  1  0  0  0  0
  9 30  1  0  0  0  0
 10 11  2  0  0  0  0
 10 31  1  0  0  0  0
 11 48  1  0  0  0  0
 12 22  1  0  0  0  0
 12 13  1  0  0  0  0
 13 14  1  0  0  0  0
 13 32  1  0  0  0  0
 13 33  1  0  0  0  0
 14 15  1  0  0  0  0
 14 34  1  0  0  0  0
 14 35  1  0  0  0  0
 15 16  1  0  0  0  0
 16 21  1  0  0  0  0
 16 17  1  0  0  0  0
 16 22  1  0  0  0  0
 17 18  1  0  0  0  0
 17 36  1  0  0  0  0
 17 37  1  0  0  0  0
 18 19  1  0  0  0  0
 18 38  1  0  0  0  0
 18 39  1  0  0  0  0
 19 20  1  0  0  0  0
 19 40  1  0  0  0  0
 19 41  1  0  0  0  0
 20 21  1  0  0  0  0
 20 42  1  0  0  0  0
 20 43  1  0  0  0  0
 21 44  1  0  0  0  0
 21 45  1  0  0  0  0
 22 46  1  0  0  0  0
 22 47  1  0  0  0  0
M  CHG  1  11   1
M  END
> <s_m_source_file>
AV-unprocessed.smi

> <i_m_source_file_index>
884

> <i_lp_mmshare_version>
43012

> <i_f3d_flags>
0

> <s_epik_input>
bjFbY0hdW2NIXVtjSF1bY0hdYzFbQ0gyXVtDSDJdW05IXUMoPU8pTihbQ0gyXTIpW0NIMl1bQ0gyXVNDMjNbQ0gyXVtDSDJdW0NIMl1bQ0gyXVtDSDJdMw==

> <s_epik_cmdline>
J2VwaWtfcHl0aG9uJywgJy1waCcsICc3LjAnLCAnLXRuJywgJzgnLCAnLW1hJywgJzIwMCcsICctbWV0YWxfYmluZGluZycsICctaW1hZScsICc8aW5maWxlLm1hZT4nLCAnLW9tYWUnLCAnPG91dGZpbGUubWFlPic=

> <r_epik_Ionization_Penalty>
1.55139

> <r_epik_Ionization_Penalty_Charging>
1.55135

> <r_epik_Ionization_Penalty_Neutral>
4.66963e-05

> <r_epik_State_Penalty>
1.64559

> <r_epik_Charging_Adjusted_Penalty>
3.19693

> <i_epik_Tot_Q>
1

> <i_epik_Tot_abs_Q>
1

> <r_epik_Metal_State_Penalty>
1.68773

> <b_epik_Metal_Only>
0

> <s_lp_Force_Field>
OPLS_2005

> <r_lp_Energy>
36.5944

> <b_lp_Chiralities_Consistent>
1

> <s_lp_Variant>
AV-unprocessed.smi:884-2

> <Gold.Version>
5.8.1

> <Gold.Id.Protein>
6NUR|6NUR_protein|mol2

> <Gold.PLP.Fitness>
43.8645

> <Gold.PLP.PLP>
-36.1709

> <Gold.PLP.part.hbond>
-2.0000

> <Gold.PLP.part.metal>
0.0000

> <Gold.PLP.part.buried>
-2.5790

> <Gold.PLP.part.nonpolar>
-31.2186

> <Gold.PLP.part.repulsive>
0.1071

> <Gold.PLP.ligand.clash>
0.0000

> <Gold.PLP.ligand.torsion>
0.6654

> <Gold.PLP.Chemscore.Hbond>
3.0000

> <Gold.PLP.Chemscore.CHOScore>
0.0000

> <Gold.PLP.Chemscore.Metal>
0.0000

> <Gold.Chemscore.Hbonds>
donor molecule, donor type, donor heavy atom, donor atom, acceptor molecule, acceptor atom, score
      L1  H     3    23       P1  7948  1.00
      L1  H    11    48       P1  7948  2.00

> <Gold.PLP.Chemscore.Internal.Correction>
0.0244

> <Gold.Rescore>
     Score         DG    S(hbond)    S(metal)    S(lipo)     H(rot)  DE(clash)    DE(int)     intcor
     20.06     -20.85       1.94        0.00     104.26       1.30       0.10       0.69       ----

> <Gold.Chemscore.Fitness>
20.0561

> <Gold.Chemscore.DG>
-20.8492

> <Gold.Chemscore.ZeroCoef>
-5.4800

> <Gold.Chemscore.Hbond>
1.9420

> <Gold.Chemscore.Metal>
0.0000

> <Gold.Chemscore.Lipo>
104.2637

> <Gold.Chemscore.Internal_Hbond>
0.0000

> <Gold.Chemscore.DEClash>
0.1029

> <Gold.Chemscore.DEInternal>
0.6901

> <Gold.Chemscore.Rot>
1.2953

> <Gold.Chemscore.Internal.Correction>
   9.000000E+99

> <Gold.Chemscore.Hbonds>
donor molecule, donor type, donor heavy atom, donor atom, acceptor molecule, acceptor atom, score
      L1  H     3    23       P1  7948  0.99
      L1  H    11    48       P1  7948  0.96

> <Gold.Chemscore.Hbond.Weighted>
-6.4862

> <Gold.Chemscore.Metal.Weighted>
-0.0000

> <Gold.Chemscore.Lipo.Weighted>
-12.1988

> <Gold.Chemscore.Internal_Hbond.Weighted>
0.0000

> <Gold.Chemscore.DEClash.Weighted>
0.1029

> <Gold.Chemscore.DEInternal.Weighted>
0.6901

> <Gold.Chemscore.Rot.Weighted>
3.3159

> <Gold.Chemscore.Internal.Correction.Weighted>
   9.000000E+99

> <Gold.Protein.RotatedTorsions>
[ 6907 6896 6895 6894 ] final  131.21 input  -60.11 | X-H torsion
[ 7974 7965 7964 7962 ] final   -9.67 input  175.53 | X-H torsion
[ 8008 7997 7996 7995 ] final   51.16 input   59.86 | X-H torsion
[ 10167 10162 10161 10158 ] final -142.92 input  -65.29 | X-H torsion
[ 10718 10713 10712 10709 ] final  166.32 input   66.30 | X-H torsion
[ 10763 10752 10751 10750 ] final  106.61 input  -60.55 | X-H torsion
[ 11005 11000 10999 10996 ] final   -5.11 input  -57.11 | X-H torsion

> <Gold.Protein.ActiveResidues>
 VAL166  LYS551  ARG553  GLY616  TRP617  ASP618  TYR619  PRO620  LYS621  CYS622 
 ASP623  PHE694  ASN695  SER759  ASP760  ASP761  ALA762  ILE779  LEU786  VAL792 
 PHE793  MET794  SER795  GLU796  ALA797  LYS798  CYS799  TRP800  GLU811  SER814 

> <Gold.Protein.RotatedAtoms>
  152.3449  133.6111  159.5902 H   0  0  0  0  0  0  0  0  0  0  0  0  # atno 6907 bound_to 6896
  150.7501  133.9664  159.3541 H   0  0  0  0  0  0  0  0  0  0  0  0  # atno 6908 bound_to 6896
  151.7523  135.0830  160.0384 H   0  0  0  0  0  0  0  0  0  0  0  0  # atno 6909 bound_to 6896
  146.2244  140.2651  142.8354 H   0  0  0  0  0  0  0  0  0  0  0  0  # atno 7974 bound_to 7965
  155.4308  140.3450  155.4280 H   0  0  0  0  0  0  0  0  0  0  0  0  # atno 8008 bound_to 7997
  156.1338  140.1522  156.9057 H   0  0  0  0  0  0  0  0  0  0  0  0  # atno 8009 bound_to 7997
  154.4915  140.0840  156.7585 H   0  0  0  0  0  0  0  0  0  0  0  0  # atno 8010 bound_to 7997
  139.8043  143.7790  152.2660 H   0  0  0  0  0  0  0  0  0  0  0  0  # atno 10167 bound_to 10162
  157.0676  131.0357  151.2624 H   0  0  0  0  0  0  0  0  0  0  0  0  # atno 10718 bound_to 10713
  153.3954  135.3871  155.1951 H   0  0  0  0  0  0  0  0  0  0  0  0  # atno 10763 bound_to 10752
  154.8724  135.3758  154.4685 H   0  0  0  0  0  0  0  0  0  0  0  0  # atno 10764 bound_to 10752
  153.5177  135.7087  153.5809 H   0  0  0  0  0  0  0  0  0  0  0  0  # atno 10765 bound_to 10752
  140.6876  133.9099  155.8596 H   0  0  0  0  0  0  0  0  0  0  0  0  # atno 11005 bound_to 11000
  144.9310  140.7975  143.5689 LP  0  0  0  0  0  0  0  0  0  0  0  0  # atno 17320 bound_to 7965
  145.2595  139.1998  143.4900 LP  0  0  0  0  0  0  0  0  0  0  0  0  # atno 17321 bound_to 7965
  139.7920  144.7407  150.9942 LP  0  0  0  0  0  0  0  0  0  0  0  0  # atno 17342 bound_to 10162
  140.7819  143.4432  151.0520 LP  0  0  0  0  0  0  0  0  0  0  0  0  # atno 17343 bound_to 10162
  157.4904  130.7819  149.7502 LP  0  0  0  0  0  0  0  0  0  0  0  0  # atno 17370 bound_to 10713
  155.9960  130.3908  150.2797 LP  0  0  0  0  0  0  0  0  0  0  0  0  # atno 17371 bound_to 10713
  141.0267  134.0813  157.4060 LP  0  0  0  0  0  0  0  0  0  0  0  0  # atno 17394 bound_to 11000
  139.8933  135.0129  156.6891 LP  0  0  0  0  0  0  0  0  0  0  0  0  # atno 17395 bound_to 11000

$$$$
