AV-unprocessed.smi:1583|AV-procd|sdf|6363|dock8
  -GOLD-   22720 6593D 1   1.00000     0.00000
 Structure written by MMmdl.
 36 37  0  0  0  0  0  0  0  0  1 V2000
  157.7413  139.9047  160.0628 C   0  0  0  0  0  0  0  0  0  0  0  0
  156.4107  139.6464  160.5914 N   0  0  0  0  0  0  0  0  0  0  0  0
  155.3414  139.3557  159.8364 C   0  0  0  0  0  0  0  0  0  0  0  0
  155.3808  139.2797  158.6085 O   0  0  0  0  0  0  0  0  0  0  0  0
  154.0283  139.1091  160.5748 C   0  0  0  0  0  0  0  0  0  0  0  0
  152.5941  139.1773  159.4607 S   0  0  0  0  0  0  0  0  0  0  0  0
  152.2566  140.9156  159.4750 C   0  0  0  0  0  0  0  0  0  0  0  0
  152.7731  141.7559  160.3749 N   0  0  0  0  0  0  0  0  0  0  0  0
  152.2305  142.9724  160.0134 C   0  0  0  0  0  0  0  0  0  0  0  0
  152.3884  144.2558  160.5839 C   0  0  0  0  0  0  0  0  0  0  0  0
  151.7172  145.3679  160.0348 C   0  0  0  0  0  0  0  0  0  0  0  0
  150.8813  145.2132  158.9099 C   0  0  0  0  0  0  0  0  0  0  0  0
  150.7118  143.9431  158.3257 C   0  0  0  0  0  0  0  0  0  0  0  0
  151.3844  142.8367  158.8784 C   0  0  0  0  0  0  0  0  0  0  0  0
  151.4324  141.4842  158.5584 N   0  0  0  0  0  0  0  0  0  0  0  0
  150.7193  140.8434  157.4627 C   0  0  0  0  0  0  0  0  0  0  0  0
  151.3395  141.1802  156.0995 C   0  0  0  0  0  0  0  0  0  0  0  0
  150.6329  140.5079  155.0700 O   0  0  0  0  0  0  0  0  0  0  0  0
  149.3923  141.1221  154.7711 C   0  0  0  0  0  0  0  0  0  0  0  0
  158.4231  140.1509  160.8767 H   0  0  0  0  0  0  0  0  0  0  0  0
  157.7280  140.7422  159.3639 H   0  0  0  0  0  0  0  0  0  0  0  0
  158.1297  139.0256  159.5466 H   0  0  0  0  0  0  0  0  0  0  0  0
  156.2945  139.6873  161.5935 H   0  0  0  0  0  0  0  0  0  0  0  0
  154.0570  138.1375  161.0702 H   0  0  0  0  0  0  0  0  0  0  0  0
  153.9169  139.8665  161.3515 H   0  0  0  0  0  0  0  0  0  0  0  0
  153.0255  144.3841  161.4465 H   0  0  0  0  0  0  0  0  0  0  0  0
  151.8433  146.3441  160.4793 H   0  0  0  0  0  0  0  0  0  0  0  0
  150.3695  146.0700  158.4964 H   0  0  0  0  0  0  0  0  0  0  0  0
  150.0715  143.8204  157.4649 H   0  0  0  0  0  0  0  0  0  0  0  0
  150.7388  139.7651  157.6231 H   0  0  0  0  0  0  0  0  0  0  0  0
  149.6691  141.1325  157.4862 H   0  0  0  0  0  0  0  0  0  0  0  0
  151.3049  142.2580  155.9328 H   0  0  0  0  0  0  0  0  0  0  0  0
  152.3890  140.8829  156.0881 H   0  0  0  0  0  0  0  0  0  0  0  0
  148.8952  140.5723  153.9721 H   0  0  0  0  0  0  0  0  0  0  0  0
  149.5315  142.1509  154.4364 H   0  0  0  0  0  0  0  0  0  0  0  0
  148.7331  141.1217  155.6402 H   0  0  0  0  0  0  0  0  0  0  0  0
  1  2  1  0  0  0  0
  1 20  1  0  0  0  0
  1 21  1  0  0  0  0
  1 22  1  0  0  0  0
  2  3  1  0  0  0  0
  2 23  1  0  0  0  0
  3  4  2  0  0  0  0
  3  5  1  0  0  0  0
  5  6  1  0  0  0  0
  5 24  1  0  0  0  0
  5 25  1  0  0  0  0
  6  7  1  0  0  0  0
  7 15  1  0  0  0  0
  7  8  2  0  0  0  0
  8  9  1  0  0  0  0
  9 14  2  0  0  0  0
  9 10  1  0  0  0  0
 10 11  2  0  0  0  0
 10 26  1  0  0  0  0
 11 12  1  0  0  0  0
 11 27  1  0  0  0  0
 12 13  2  0  0  0  0
 12 28  1  0  0  0  0
 13 14  1  0  0  0  0
 13 29  1  0  0  0  0
 14 15  1  0  0  0  0
 15 16  1  0  0  0  0
 16 17  1  0  0  0  0
 16 30  1  0  0  0  0
 16 31  1  0  0  0  0
 17 18  1  0  0  0  0
 17 32  1  0  0  0  0
 17 33  1  0  0  0  0
 18 19  1  0  0  0  0
 19 34  1  0  0  0  0
 19 35  1  0  0  0  0
 19 36  1  0  0  0  0
M  END
> <s_m_source_file>
AV-unprocessed.smi

> <i_m_source_file_index>
1583

> <i_lp_mmshare_version>
43012

> <i_f3d_flags>
0

> <s_epik_input>
W0NIM11bTkhdQyg9TylbQ0gyXVNjKG4xKW4oW0NIMl1bQ0gyXU9bQ0gzXSljKGMxMilbY0hdW2NIXVtjSF1bY0hdMg==

> <s_epik_cmdline>
J2VwaWtfcHl0aG9uJywgJy1waCcsICc3LjAnLCAnLXRuJywgJzgnLCAnLW1hJywgJzIwMCcsICctbWV0YWxfYmluZGluZycsICctaW1hZScsICc8aW5maWxlLm1hZT4nLCAnLW9tYWUnLCAnPG91dGZpbGUubWFlPic=

> <r_epik_Ionization_Penalty>
0.0356249

> <r_epik_Ionization_Penalty_Charging>
0

> <r_epik_Ionization_Penalty_Neutral>
0.0356249

> <r_epik_State_Penalty>
0.0297112

> <r_epik_Charging_Adjusted_Penalty>
0.0297112

> <i_epik_Tot_Q>
0

> <i_epik_Tot_abs_Q>
0

> <r_epik_Metal_State_Penalty>
0.0280118

> <b_epik_Metal_Only>
0

> <s_lp_Force_Field>
OPLS_2005

> <r_lp_Energy>
5.95406

> <b_lp_Chiralities_Consistent>
1

> <s_lp_Variant>
AV-unprocessed.smi:1583-1

> <Gold.Version>
5.8.1

> <Gold.Id.Protein>
6NUR|6NUR_protein|mol2

> <Gold.PLP.Fitness>
43.3068

> <Gold.PLP.PLP>
-38.7644

> <Gold.PLP.part.hbond>
-1.8868

> <Gold.PLP.part.metal>
0.0000

> <Gold.PLP.part.buried>
-6.7423

> <Gold.PLP.part.nonpolar>
-30.0532

> <Gold.PLP.part.repulsive>
0.0956

> <Gold.PLP.ligand.clash>
0.0000

> <Gold.PLP.ligand.torsion>
0.7421

> <Gold.PLP.Chemscore.Hbond>
2.0000

> <Gold.PLP.Chemscore.CHOScore>
0.0000

> <Gold.PLP.Chemscore.Metal>
0.0000

> <Gold.Chemscore.Hbonds>
donor molecule, donor type, donor heavy atom, donor atom, acceptor molecule, acceptor atom, score
      P1  H  7989  7998       L1    18  1.00
      P1  H  7997  8009       L1     4  0.91

> <Gold.PLP.Chemscore.Internal.Correction>
0.0265

> <Gold.Rescore>
     Score         DG    S(hbond)    S(metal)    S(lipo)     H(rot)  DE(clash)    DE(int)     intcor
     15.95     -16.72       1.46        0.00     102.08       2.18       0.02       0.75       ----

> <Gold.Chemscore.Fitness>
15.9493

> <Gold.Chemscore.DG>
-16.7198

> <Gold.Chemscore.ZeroCoef>
-5.4800

> <Gold.Chemscore.Hbond>
1.4623

> <Gold.Chemscore.Metal>
0.0000

> <Gold.Chemscore.Lipo>
102.0775

> <Gold.Chemscore.Internal_Hbond>
0.0000

> <Gold.Chemscore.DEClash>
0.0235

> <Gold.Chemscore.DEInternal>
0.7470

> <Gold.Chemscore.Rot>
2.1826

> <Gold.Chemscore.Internal.Correction>
   9.000000E+99

> <Gold.Chemscore.Hbonds>
donor molecule, donor type, donor heavy atom, donor atom, acceptor molecule, acceptor atom, score
      P1  H  7989  7998       L1    18  0.13
      P1  H  7997  8009       L1     4  0.86

> <Gold.Chemscore.Hbond.Weighted>
-4.8841

> <Gold.Chemscore.Metal.Weighted>
-0.0000

> <Gold.Chemscore.Lipo.Weighted>
-11.9431

> <Gold.Chemscore.Internal_Hbond.Weighted>
0.0000

> <Gold.Chemscore.DEClash.Weighted>
0.0235

> <Gold.Chemscore.DEInternal.Weighted>
0.7470

> <Gold.Chemscore.Rot.Weighted>
5.5874

> <Gold.Chemscore.Internal.Correction.Weighted>
   9.000000E+99

> <Gold.Protein.RotatedTorsions>
[ 6907 6896 6895 6894 ] final  -19.23 input  -60.11 | X-H torsion
[ 7974 7965 7964 7962 ] final  145.03 input  175.53 | X-H torsion
[ 8008 7997 7996 7995 ] final   91.31 input   59.86 | X-H torsion
[ 10167 10162 10161 10158 ] final   32.82 input  -65.29 | X-H torsion
[ 10718 10713 10712 10709 ] final -101.09 input   66.30 | X-H torsion
[ 10763 10752 10751 10750 ] final  -50.37 input  -60.55 | X-H torsion
[ 11005 11000 10999 10996 ] final  177.56 input  -57.11 | X-H torsion

> <Gold.Protein.ActiveResidues>
 VAL166  LYS551  ARG553  GLY616  TRP617  ASP618  TYR619  PRO620  LYS621  CYS622 
 ASP623  PHE694  ASN695  SER759  ASP760  ASP761  ALA762  ILE779  LEU786  VAL792 
 PHE793  MET794  SER795  GLU796  ALA797  LYS798  CYS799  TRP800  GLU811  SER814 

> <Gold.Protein.RotatedAtoms>
  151.2662  135.0670  159.9116 H   0  0  0  0  0  0  0  0  0  0  0  0  # atno 6907 bound_to 6896
  152.5358  134.0179  159.7978 H   0  0  0  0  0  0  0  0  0  0  0  0  # atno 6908 bound_to 6896
  151.0409  133.5657  159.2682 H   0  0  0  0  0  0  0  0  0  0  0  0  # atno 6909 bound_to 6896
  144.8787  139.5733  143.5853 H   0  0  0  0  0  0  0  0  0  0  0  0  # atno 7974 bound_to 7965
  156.0222  140.3339  155.7051 H   0  0  0  0  0  0  0  0  0  0  0  0  # atno 8008 bound_to 7997
  155.6006  140.0655  157.2752 H   0  0  0  0  0  0  0  0  0  0  0  0  # atno 8009 bound_to 7997
  154.4320  140.1811  156.1157 H   0  0  0  0  0  0  0  0  0  0  0  0  # atno 8010 bound_to 7997
  140.4463  144.1113  150.6183 H   0  0  0  0  0  0  0  0  0  0  0  0  # atno 10167 bound_to 10162
  156.0183  130.5357  150.6912 H   0  0  0  0  0  0  0  0  0  0  0  0  # atno 10718 bound_to 10713
  154.1092  135.6551  153.4882 H   0  0  0  0  0  0  0  0  0  0  0  0  # atno 10763 bound_to 10752
  153.0262  135.5243  154.7209 H   0  0  0  0  0  0  0  0  0  0  0  0  # atno 10764 bound_to 10752
  154.6384  135.2985  155.0103 H   0  0  0  0  0  0  0  0  0  0  0  0  # atno 10765 bound_to 10752
  140.3855  134.6909  157.4476 H   0  0  0  0  0  0  0  0  0  0  0  0  # atno 11005 bound_to 11000
  146.2980  139.7336  142.9112 LP  0  0  0  0  0  0  0  0  0  0  0  0  # atno 17320 bound_to 7965
  145.3995  141.0383  143.3078 LP  0  0  0  0  0  0  0  0  0  0  0  0  # atno 17321 bound_to 7965
  140.4259  143.2590  151.9656 LP  0  0  0  0  0  0  0  0  0  0  0  0  # atno 17342 bound_to 10162
  139.4793  144.5788  151.7967 LP  0  0  0  0  0  0  0  0  0  0  0  0  # atno 17343 bound_to 10162
  157.4593  131.0881  151.0763 LP  0  0  0  0  0  0  0  0  0  0  0  0  # atno 17370 bound_to 10713
  157.1255  130.6080  149.5516 LP  0  0  0  0  0  0  0  0  0  0  0  0  # atno 17371 bound_to 10713
  140.0446  134.6218  155.8937 LP  0  0  0  0  0  0  0  0  0  0  0  0  # atno 17394 bound_to 11000
  141.1909  133.6570  156.5432 LP  0  0  0  0  0  0  0  0  0  0  0  0  # atno 17395 bound_to 11000

$$$$
