AV-unprocessed.smi:2499|AV-procd|sdf|9836|dock10
  -GOLD-   2272013463D 1   1.00000     0.00000
 Structure written by MMmdl.
 27 28  0  0  0  0  0  0  0  0  1 V2000
  151.3687  141.0503  158.2405 C   0  0  0  0  0  0  0  0  0  0  0  0
  151.3062  142.3607  157.4439 C   0  0  1  0  0  0  0  0  0  0  0  0
  150.1583  142.3042  156.5438 N   0  0  0  0  0  0  0  0  0  0  0  0
  149.9826  141.4216  155.5484 C   0  0  0  0  0  0  0  0  0  0  0  0
  150.8076  140.5331  155.3135 O   0  0  0  0  0  0  0  0  0  0  0  0
  148.7772  141.6585  154.9062 N   0  0  0  0  0  0  0  0  0  0  0  0
  148.2019  140.6847  154.2713 C   0  0  0  0  0  0  0  0  0  0  0  0
  147.0165  140.7234  153.5545 N   0  0  0  0  0  0  0  0  0  0  0  0
  146.7774  139.4709  153.0602 C   0  0  0  0  0  0  0  0  0  0  0  0
  147.7692  138.6754  153.4502 C   0  0  0  0  0  0  0  0  0  0  0  0
  148.6590  139.3888  154.1952 O   0  0  0  0  0  0  0  0  0  0  0  0
  151.2840  143.5603  158.3767 C   0  0  0  0  0  0  0  0  0  0  0  0
  152.3329  144.6442  158.2921 C   0  0  0  0  0  0  0  0  0  0  0  0
  152.3076  143.7075  159.4778 C   0  0  0  0  0  0  0  0  0  0  0  0
  152.2447  141.0263  158.8893 H   0  0  0  0  0  0  0  0  0  0  0  0
  151.4303  140.1878  157.5759 H   0  0  0  0  0  0  0  0  0  0  0  0
  150.4862  140.9249  158.8691 H   0  0  0  0  0  0  0  0  0  0  0  0
  152.2165  142.4158  156.8437 H   0  0  0  0  0  0  0  0  0  0  0  0
  149.4381  142.9977  156.6858 H   0  0  0  0  0  0  0  0  0  0  0  0
  146.4052  141.5120  153.3988 H   0  0  0  0  0  0  0  0  0  0  0  0
  145.8969  139.2770  152.4652 H   0  0  0  0  0  0  0  0  0  0  0  0
  147.9772  137.6281  153.2885 H   0  0  0  0  0  0  0  0  0  0  0  0
  150.2788  143.8927  158.6294 H   0  0  0  0  0  0  0  0  0  0  0  0
  153.1400  144.5182  157.5731 H   0  0  0  0  0  0  0  0  0  0  0  0
  152.0068  145.6699  158.4513 H   0  0  0  0  0  0  0  0  0  0  0  0
  151.9661  144.1089  160.4297 H   0  0  0  0  0  0  0  0  0  0  0  0
  153.0960  142.9602  159.5420 H   0  0  0  0  0  0  0  0  0  0  0  0
  1  2  1  0  0  0  0
  1 15  1  0  0  0  0
  1 16  1  0  0  0  0
  1 17  1  0  0  0  0
  2  3  1  0  0  0  0
  2 12  1  0  0  0  0
  2 18  1  0  0  0  0
  3 19  1  0  0  0  0
  3  4  1  0  0  0  0
  4  6  1  0  0  0  0
  4  5  2  0  0  0  0
  6  7  2  0  0  0  0
  7 11  1  0  0  0  0
  7  8  1  0  0  0  0
  8 20  1  0  0  0  0
  8  9  1  0  0  0  0
  9 21  1  0  0  0  0
  9 10  2  0  0  0  0
 10 22  1  0  0  0  0
 10 11  1  0  0  0  0
 12 14  1  0  0  0  0
 12 13  1  0  0  0  0
 12 23  1  0  0  0  0
 13 14  1  0  0  0  0
 13 24  1  0  0  0  0
 13 25  1  0  0  0  0
 14 26  1  0  0  0  0
 14 27  1  0  0  0  0
M  END
> <s_m_source_file>
AV-unprocessed.smi

> <i_m_source_file_index>
2499

> <i_lp_mmshare_version>
43012

> <i_f3d_flags>
0

> <s_epik_input>
W0NIMl0xW0NIMl1bQ0hdMVtDQEhdKFtDSDNdKVtOSF1DKD1PKVtOSF1jMm5bY0hdW2NIXW8y

> <s_epik_cmdline>
J2VwaWtfcHl0aG9uJywgJy1waCcsICc3LjAnLCAnLXRuJywgJzgnLCAnLW1hJywgJzIwMCcsICctbWV0YWxfYmluZGluZycsICctaW1hZScsICc8aW5maWxlLm1hZT4nLCAnLW9tYWUnLCAnPG91dGZpbGUubWFlPic=

> <r_lp_tautomer_probability>
0.107061

> <r_epik_Ionization_Penalty>
1.51515

> <r_epik_Ionization_Penalty_Charging>
1.51478

> <r_epik_Ionization_Penalty_Neutral>
0.000369309

> <r_epik_State_Penalty>
2.62718

> <r_epik_Charging_Adjusted_Penalty>
4.14196

> <i_epik_Tot_Q>
0

> <i_epik_Tot_abs_Q>
0

> <r_epik_Metal_State_Penalty>
3.5378

> <b_epik_Metal_Only>
0

> <s_lp_Force_Field>
OPLS_2005

> <r_lp_Energy>
35.9469

> <b_lp_Chiralities_Consistent>
1

> <s_lp_Variant>
AV-unprocessed.smi:2499-6

> <Gold.Version>
5.8.1

> <Gold.Id.Protein>
6NUR|6NUR_protein|mol2

> <Gold.PLP.Fitness>
39.6085

> <Gold.PLP.PLP>
-28.5214

> <Gold.PLP.part.hbond>
-2.0595

> <Gold.PLP.part.metal>
0.0000

> <Gold.PLP.part.buried>
-4.6178

> <Gold.PLP.part.nonpolar>
-22.9057

> <Gold.PLP.part.repulsive>
0.4773

> <Gold.PLP.ligand.clash>
0.0000

> <Gold.PLP.ligand.torsion>
0.9149

> <Gold.PLP.Chemscore.Hbond>
1.9520

> <Gold.PLP.Chemscore.CHOScore>
2.0000

> <Gold.PLP.Chemscore.Metal>
0.0000

> <Gold.Chemscore.Hbonds>
donor molecule, donor type, donor heavy atom, donor atom, acceptor molecule, acceptor atom, score
      L1  H     3    19       P1  8028  0.59
      P1  H  7989  7998       L1     5  0.96
      L1  C     9    21       P1 10175  0.99
      L1  C    10    22       P1  7948  1.00

> <Gold.PLP.Chemscore.Internal.Correction>
1.0608

> <Gold.Rescore>
     Score         DG    S(hbond)    S(metal)    S(lipo)     H(rot)  DE(clash)    DE(int)     intcor
     11.42     -15.17       1.51        0.00      68.07       1.29       0.47       3.28       ----

> <Gold.Chemscore.Fitness>
11.4187

> <Gold.Chemscore.DG>
-15.1700

> <Gold.Chemscore.ZeroCoef>
-5.4800

> <Gold.Chemscore.Hbond>
1.5067

> <Gold.Chemscore.Metal>
0.0000

> <Gold.Chemscore.Lipo>
68.0686

> <Gold.Chemscore.Internal_Hbond>
0.0000

> <Gold.Chemscore.DEClash>
0.4715

> <Gold.Chemscore.DEInternal>
3.2798

> <Gold.Chemscore.Rot>
1.2915

> <Gold.Chemscore.Internal.Correction>
   9.000000E+99

> <Gold.Chemscore.Hbonds>
donor molecule, donor type, donor heavy atom, donor atom, acceptor molecule, acceptor atom, score
      L1  H     3    19       P1  8028  0.58
      P1  H  7989  7998       L1     5  0.57

> <Gold.Chemscore.Hbond.Weighted>
-5.0322

> <Gold.Chemscore.Metal.Weighted>
-0.0000

> <Gold.Chemscore.Lipo.Weighted>
-7.9640

> <Gold.Chemscore.Internal_Hbond.Weighted>
0.0000

> <Gold.Chemscore.DEClash.Weighted>
0.4715

> <Gold.Chemscore.DEInternal.Weighted>
3.2798

> <Gold.Chemscore.Rot.Weighted>
3.3062

> <Gold.Chemscore.Internal.Correction.Weighted>
   9.000000E+99

> <Gold.Protein.RotatedTorsions>
[ 6907 6896 6895 6894 ] final  120.83 input  -60.11 | X-H torsion
[ 7974 7965 7964 7962 ] final  -11.76 input  175.53 | X-H torsion
[ 8008 7997 7996 7995 ] final  -68.29 input   59.86 | X-H torsion
[ 10167 10162 10161 10158 ] final -102.08 input  -65.29 | X-H torsion
[ 10718 10713 10712 10709 ] final  107.50 input   66.30 | X-H torsion
[ 10763 10752 10751 10750 ] final -177.92 input  -60.55 | X-H torsion
[ 11005 11000 10999 10996 ] final   91.82 input  -57.11 | X-H torsion

> <Gold.Protein.ActiveResidues>
 VAL166  LYS551  ARG553  GLY616  TRP617  ASP618  TYR619  PRO620  LYS621  CYS622 
 ASP623  PHE694  ASN695  SER759  ASP760  ASP761  ALA762  ILE779  LEU786  VAL792 
 PHE793  MET794  SER795  GLU796  ALA797  LYS798  CYS799  TRP800  GLU811  SER814 

> <Gold.Protein.RotatedAtoms>
  152.4368  133.7375  159.6621 H   0  0  0  0  0  0  0  0  0  0  0  0  # atno 6907 bound_to 6896
  150.8253  133.8172  159.3127 H   0  0  0  0  0  0  0  0  0  0  0  0  # atno 6908 bound_to 6896
  151.5843  135.1059  160.0076 H   0  0  0  0  0  0  0  0  0  0  0  0  # atno 6909 bound_to 6896
  146.2176  140.2959  142.8371 H   0  0  0  0  0  0  0  0  0  0  0  0  # atno 7974 bound_to 7965
  154.4858  140.0876  156.7482 H   0  0  0  0  0  0  0  0  0  0  0  0  # atno 8008 bound_to 7997
  155.4354  140.3451  155.4266 H   0  0  0  0  0  0  0  0  0  0  0  0  # atno 8009 bound_to 7997
  156.1259  140.1487  156.9125 H   0  0  0  0  0  0  0  0  0  0  0  0  # atno 8010 bound_to 7997
  140.2344  143.3583  152.0857 H   0  0  0  0  0  0  0  0  0  0  0  0  # atno 10167 bound_to 10162
  157.6625  131.0874  150.6166 H   0  0  0  0  0  0  0  0  0  0  0  0  # atno 10718 bound_to 10713
  154.5541  135.2815  155.0981 H   0  0  0  0  0  0  0  0  0  0  0  0  # atno 10763 bound_to 10752
  154.2415  135.6356  153.5212 H   0  0  0  0  0  0  0  0  0  0  0  0  # atno 10764 bound_to 10752
  153.0011  135.5561  154.6116 H   0  0  0  0  0  0  0  0  0  0  0  0  # atno 10765 bound_to 10752
  139.8833  134.8697  156.3484 H   0  0  0  0  0  0  0  0  0  0  0  0  # atno 11005 bound_to 11000
  144.9093  140.7737  143.5818 LP  0  0  0  0  0  0  0  0  0  0  0  0  # atno 17320 bound_to 7965
  145.2889  139.1891  143.4751 LP  0  0  0  0  0  0  0  0  0  0  0  0  # atno 17321 bound_to 7965
  139.5098  144.6874  151.5850 LP  0  0  0  0  0  0  0  0  0  0  0  0  # atno 17342 bound_to 10162
  140.6160  143.9347  150.6489 LP  0  0  0  0  0  0  0  0  0  0  0  0  # atno 17343 bound_to 10162
  156.6468  130.4474  149.5733 LP  0  0  0  0  0  0  0  0  0  0  0  0  # atno 17370 bound_to 10713
  156.2168  130.6712  151.1326 LP  0  0  0  0  0  0  0  0  0  0  0  0  # atno 17371 bound_to 10713
  140.9611  133.7388  156.0403 LP  0  0  0  0  0  0  0  0  0  0  0  0  # atno 17394 bound_to 11000
  140.7988  134.3533  157.5445 LP  0  0  0  0  0  0  0  0  0  0  0  0  # atno 17395 bound_to 11000

$$$$
