AV-unprocessed.smi:311|AV-procd|sdf|2302|dock8
  -GOLD-   2262022203D 1   1.00000     0.00000
 Structure written by MMmdl.
 44 46  0  0  0  0  0  0  0  0  2 V2000
  151.0845  134.5331  156.5096 C   0  0  0  0  0  0  0  0  0  0  0  0
  150.9751  135.8529  155.8020 C   0  0  0  0  0  0  0  0  0  0  0  0
  152.0676  136.5576  155.5594 N   0  0  0  0  0  0  0  0  0  0  0  0
  151.6384  137.7160  154.9044 O   0  0  0  0  0  0  0  0  0  0  0  0
  150.2883  137.6616  154.7759 C   0  0  0  0  0  0  0  0  0  0  0  0
  149.6347  138.8192  154.1006 C   0  0  0  0  0  0  0  0  0  0  0  0
  149.8035  136.5036  155.3194 C   0  0  0  0  0  0  0  0  0  0  0  0
  148.3753  136.0222  155.3961 C   0  0  0  0  0  0  0  0  0  0  0  0
  148.2358  134.5700  154.9229 C   0  0  0  0  0  0  0  0  0  0  0  0
  147.7928  133.6929  155.6660 O   0  0  0  0  0  0  0  0  0  0  0  0
  148.6198  134.3298  153.6606 N   0  0  0  0  0  0  0  0  0  0  0  0
  148.5793  133.0232  153.0127 C   0  0  1  0  0  0  0  0  0  0  0  0
  148.9060  131.8438  153.9499 C   0  0  0  0  0  0  0  0  0  0  0  0
  147.9563  130.7065  153.5226 C   0  0  0  0  0  0  0  0  0  0  0  0
  147.2308  131.2246  152.3468 N   0  3  1  0  0  0  0  0  0  0  0  0
  145.9086  130.6307  152.0517 C   0  0  0  0  0  0  0  0  0  0  0  0
  145.3553  131.2449  150.7495 C   0  0  0  0  0  0  0  0  0  0  0  0
  145.3426  132.7869  150.8018 C   0  0  0  0  0  0  0  0  0  0  0  0
  146.7225  133.3419  151.2055 C   0  0  0  0  0  0  0  0  0  0  0  0
  147.1741  132.6839  152.5191 C   0  0  2  0  0  0  0  0  0  0  0  0
  150.2962  134.4230  157.2543 H   0  0  0  0  0  0  0  0  0  0  0  0
  152.0402  134.4290  157.0249 H   0  0  0  0  0  0  0  0  0  0  0  0
  150.9943  133.7060  155.8054 H   0  0  0  0  0  0  0  0  0  0  0  0
  148.5941  138.9152  154.4115 H   0  0  0  0  0  0  0  0  0  0  0  0
  149.6555  138.6955  153.0179 H   0  0  0  0  0  0  0  0  0  0  0  0
  150.1445  139.7510  154.3457 H   0  0  0  0  0  0  0  0  0  0  0  0
  147.9943  136.0877  156.4159 H   0  0  0  0  0  0  0  0  0  0  0  0
  147.7228  136.6514  154.7893 H   0  0  0  0  0  0  0  0  0  0  0  0
  148.9709  135.1042  153.1156 H   0  0  0  0  0  0  0  0  0  0  0  0
  149.2670  133.0102  152.1643 H   0  0  0  0  0  0  0  0  0  0  0  0
  149.9536  131.5530  153.8627 H   0  0  0  0  0  0  0  0  0  0  0  0
  148.7245  132.1025  154.9943 H   0  0  0  0  0  0  0  0  0  0  0  0
  148.4906  129.7895  153.2730 H   0  0  0  0  0  0  0  0  0  0  0  0
  147.2555  130.4820  154.3283 H   0  0  0  0  0  0  0  0  0  0  0  0
  146.0074  129.5498  151.9462 H   0  0  0  0  0  0  0  0  0  0  0  0
  145.2246  130.8137  152.8820 H   0  0  0  0  0  0  0  0  0  0  0  0
  145.9702  130.9204  149.9090 H   0  0  0  0  0  0  0  0  0  0  0  0
  144.3498  130.8694  150.5564 H   0  0  0  0  0  0  0  0  0  0  0  0
  145.0427  133.1931  149.8353 H   0  0  0  0  0  0  0  0  0  0  0  0
  144.5935  133.1186  151.5219 H   0  0  0  0  0  0  0  0  0  0  0  0
  147.4481  133.1431  150.4155 H   0  0  0  0  0  0  0  0  0  0  0  0
  146.6729  134.4251  151.3210 H   0  0  0  0  0  0  0  0  0  0  0  0
  146.4520  132.9119  153.3071 H   0  0  0  0  0  0  0  0  0  0  0  0
  147.8232  131.0540  151.5467 H   0  0  0  0  0  0  0  0  0  0  0  0
  1  2  1  0  0  0  0
  1 21  1  0  0  0  0
  1 22  1  0  0  0  0
  1 23  1  0  0  0  0
  2  7  1  0  0  0  0
  2  3  2  0  0  0  0
  3  4  1  0  0  0  0
  4  5  1  0  0  0  0
  5  6  1  0  0  0  0
  5  7  2  0  0  0  0
  6 24  1  0  0  0  0
  6 25  1  0  0  0  0
  6 26  1  0  0  0  0
  7  8  1  0  0  0  0
  8  9  1  0  0  0  0
  8 27  1  0  0  0  0
  8 28  1  0  0  0  0
  9 10  2  0  0  0  0
  9 11  1  0  0  0  0
 11 12  1  0  0  0  0
 11 29  1  0  0  0  0
 12 20  1  0  0  0  0
 12 13  1  0  0  0  0
 12 30  1  0  0  0  0
 13 14  1  0  0  0  0
 13 31  1  0  0  0  0
 13 32  1  0  0  0  0
 14 15  1  0  0  0  0
 14 33  1  0  0  0  0
 14 34  1  0  0  0  0
 15 20  1  0  0  0  0
 15 16  1  0  0  0  0
 15 44  1  0  0  0  0
 16 17  1  0  0  0  0
 16 35  1  0  0  0  0
 16 36  1  0  0  0  0
 17 18  1  0  0  0  0
 17 37  1  0  0  0  0
 17 38  1  0  0  0  0
 18 19  1  0  0  0  0
 18 39  1  0  0  0  0
 18 40  1  0  0  0  0
 19 20  1  0  0  0  0
 19 41  1  0  0  0  0
 19 42  1  0  0  0  0
 20 43  1  0  0  0  0
M  CHG  1  15   1
M  END
> <s_m_source_file>
AV-unprocessed.smi

> <i_m_source_file_index>
311

> <i_lp_mmshare_version>
43012

> <i_f3d_flags>
0

> <s_epik_input>
W0NIM11jMW5vYyhbQ0gzXSljMVtDSDJdQyg9TylbTkhdW0NASF0oW0NIMl1bQ0gyXTIpW0NAQEhdKE4yMylbQ0gyXVtDSDJdW0NIMl1bQ0gyXTM=

> <s_epik_cmdline>
J2VwaWtfcHl0aG9uJywgJy1waCcsICc3LjAnLCAnLXRuJywgJzgnLCAnLW1hJywgJzIwMCcsICctbWV0YWxfYmluZGluZycsICctaW1hZScsICc8aW5maWxlLm1hZT4nLCAnLW9tYWUnLCAnPG91dGZpbGUubWFlPic=

> <r_epik_Ionization_Penalty>
0.00173669

> <r_epik_Ionization_Penalty_Charging>
0.0017366

> <r_epik_Ionization_Penalty_Neutral>
9.2145e-08

> <r_epik_State_Penalty>
0.00117499

> <r_epik_Charging_Adjusted_Penalty>
0.00291159

> <i_epik_Tot_Q>
1

> <i_epik_Tot_abs_Q>
1

> <r_epik_Metal_State_Penalty>
-0

> <b_epik_Metal_Only>
0

> <s_lp_Force_Field>
OPLS_2005

> <r_lp_Energy>
29.9852

> <b_lp_Chiralities_Consistent>
1

> <s_lp_Variant>
AV-unprocessed.smi:311-6

> <Gold.Version>
5.8.1

> <Gold.Id.Protein>
6NUR|6NUR_protein|mol2

> <Gold.PLP.Fitness>
41.1766

> <Gold.PLP.PLP>
-33.0275

> <Gold.PLP.part.hbond>
-2.8968

> <Gold.PLP.part.metal>
0.0000

> <Gold.PLP.part.buried>
-3.6964

> <Gold.PLP.part.nonpolar>
-26.3448

> <Gold.PLP.part.repulsive>
0.1654

> <Gold.PLP.ligand.clash>
0.0000

> <Gold.PLP.ligand.torsion>
0.4315

> <Gold.PLP.Chemscore.Hbond>
3.0000

> <Gold.PLP.Chemscore.CHOScore>
0.0000

> <Gold.PLP.Chemscore.Metal>
0.0000

> <Gold.Chemscore.Hbonds>
donor molecule, donor type, donor heavy atom, donor atom, acceptor molecule, acceptor atom, score
      L1  H    11    29       P1  7948  1.00
      L1  H    15    44       P1 10747  1.00
      P1  H 10752 10763       L1     3  1.00

> <Gold.PLP.Chemscore.Internal.Correction>
0.0122

> <Gold.Rescore>
     Score         DG    S(hbond)    S(metal)    S(lipo)     H(rot)  DE(clash)    DE(int)     intcor
     17.75     -19.80       2.44        0.00      82.35       1.36       0.10       1.94       ----

> <Gold.Chemscore.Fitness>
17.7512

> <Gold.Chemscore.DG>
-19.7967

> <Gold.Chemscore.ZeroCoef>
-5.4800

> <Gold.Chemscore.Hbond>
2.4416

> <Gold.Chemscore.Metal>
0.0000

> <Gold.Chemscore.Lipo>
82.3475

> <Gold.Chemscore.Internal_Hbond>
0.0000

> <Gold.Chemscore.DEClash>
0.1012

> <Gold.Chemscore.DEInternal>
1.9443

> <Gold.Chemscore.Rot>
1.3567

> <Gold.Chemscore.Internal.Correction>
   9.000000E+99

> <Gold.Chemscore.Hbonds>
donor molecule, donor type, donor heavy atom, donor atom, acceptor molecule, acceptor atom, score
      L1  H    11    29       P1  7948  0.25
      L1  H    15    44       P1 10747  1.00
      P1  H 10752 10763       L1     3  0.42

> <Gold.Chemscore.Hbond.Weighted>
-8.1551

> <Gold.Chemscore.Metal.Weighted>
-0.0000

> <Gold.Chemscore.Lipo.Weighted>
-9.6347

> <Gold.Chemscore.Internal_Hbond.Weighted>
0.0000

> <Gold.Chemscore.DEClash.Weighted>
0.1012

> <Gold.Chemscore.DEInternal.Weighted>
1.9443

> <Gold.Chemscore.Rot.Weighted>
3.4731

> <Gold.Chemscore.Internal.Correction.Weighted>
   9.000000E+99

> <Gold.Protein.RotatedTorsions>
[ 6907 6896 6895 6894 ] final  -17.88 input  -60.11 | X-H torsion
[ 7974 7965 7964 7962 ] final -170.36 input  175.53 | X-H torsion
[ 8008 7997 7996 7995 ] final   82.62 input   59.86 | X-H torsion
[ 10167 10162 10161 10158 ] final  137.76 input  -65.29 | X-H torsion
[ 10718 10713 10712 10709 ] final  116.44 input   66.30 | X-H torsion
[ 10763 10752 10751 10750 ] final   73.59 input  -60.55 | X-H torsion
[ 11005 11000 10999 10996 ] final  113.15 input  -57.11 | X-H torsion

> <Gold.Protein.ActiveResidues>
 VAL166  LYS551  ARG553  GLY616  TRP617  ASP618  TYR619  PRO620  LYS621  CYS622 
 ASP623  PHE694  ASN695  SER759  ASP760  ASP761  ALA762  ILE779  LEU786  VAL792 
 PHE793  MET794  SER795  GLU796  ALA797  LYS798  CYS799  TRP800  GLU811  SER814 

> <Gold.Protein.RotatedAtoms>
  151.2866  135.0729  159.9188 H   0  0  0  0  0  0  0  0  0  0  0  0  # atno 6907 bound_to 6896
  152.5324  133.9975  159.7890 H   0  0  0  0  0  0  0  0  0  0  0  0  # atno 6908 bound_to 6896
  151.0238  133.5801  159.2699 H   0  0  0  0  0  0  0  0  0  0  0  0  # atno 6909 bound_to 6896
  144.7171  140.2083  143.6330 H   0  0  0  0  0  0  0  0  0  0  0  0  # atno 7974 bound_to 7965
  155.9130  140.3426  155.6113 H   0  0  0  0  0  0  0  0  0  0  0  0  # atno 8008 bound_to 7997
  155.7365  140.0802  157.2284 H   0  0  0  0  0  0  0  0  0  0  0  0  # atno 8009 bound_to 7997
  154.4058  140.1578  156.2555 H   0  0  0  0  0  0  0  0  0  0  0  0  # atno 8010 bound_to 7997
  139.5133  144.6392  151.5615 H   0  0  0  0  0  0  0  0  0  0  0  0  # atno 10167 bound_to 10162
  157.6160  131.1025  150.7473 H   0  0  0  0  0  0  0  0  0  0  0  0  # atno 10718 bound_to 10713
  153.0531  135.5057  154.7917 H   0  0  0  0  0  0  0  0  0  0  0  0  # atno 10763 bound_to 10752
  154.6763  135.2961  154.9676 H   0  0  0  0  0  0  0  0  0  0  0  0  # atno 10764 bound_to 10752
  154.0477  135.6708  153.4849 H   0  0  0  0  0  0  0  0  0  0  0  0  # atno 10765 bound_to 10752
  139.8945  134.9544  156.6695 H   0  0  0  0  0  0  0  0  0  0  0  0  # atno 11005 bound_to 11000
  145.8615  139.2225  143.1714 LP  0  0  0  0  0  0  0  0  0  0  0  0  # atno 17320 bound_to 7965
  146.0169  140.8384  142.9943 LP  0  0  0  0  0  0  0  0  0  0  0  0  # atno 17321 bound_to 7965
  140.6152  143.9362  150.6483 LP  0  0  0  0  0  0  0  0  0  0  0  0  # atno 17342 bound_to 10162
  140.2617  143.3519  152.1316 LP  0  0  0  0  0  0  0  0  0  0  0  0  # atno 17343 bound_to 10162
  156.7841  130.4868  149.5396 LP  0  0  0  0  0  0  0  0  0  0  0  0  # atno 17370 bound_to 10713
  156.1282  130.6159  151.0295 LP  0  0  0  0  0  0  0  0  0  0  0  0  # atno 17371 bound_to 10713
  140.7384  133.8999  155.8260 LP  0  0  0  0  0  0  0  0  0  0  0  0  # atno 17394 bound_to 11000
  141.0097  134.1037  157.4234 LP  0  0  0  0  0  0  0  0  0  0  0  0  # atno 17395 bound_to 11000

$$$$
