AV-unprocessed.smi:1425|AV-procd|sdf|5804|dock3
  -GOLD-   22720 5453D 1   1.00000     0.00000
 Structure written by MMmdl.
 36 37  0  0  0  0  0  0  0  0  1 V2000
  147.6465  132.9987  152.4913 C   0  0  0  0  0  0  0  0  0  0  0  0
  146.3684  133.0018  151.6685 C   0  0  0  0  0  0  0  0  0  0  0  0
  145.7796  131.7724  151.3034 C   0  0  0  0  0  0  0  0  0  0  0  0
  144.5984  131.7769  150.5422 C   0  0  0  0  0  0  0  0  0  0  0  0
  144.0524  133.0189  150.1757 C   0  0  0  0  0  0  0  0  0  0  0  0
  144.6083  134.1984  150.5203 N   0  0  0  0  0  0  0  0  0  0  0  0
  145.7489  134.2117  151.2552 C   0  0  0  0  0  0  0  0  0  0  0  0
  146.3956  135.4166  151.6503 N   0  0  0  0  0  0  0  0  0  0  0  0
  145.8408  136.5933  151.9908 C   0  0  0  0  0  0  0  0  0  0  0  0
  144.6324  136.8219  152.0513 O   0  0  0  0  0  0  0  0  0  0  0  0
  146.7823  137.5074  152.2677 N   0  0  0  0  0  0  0  0  0  0  0  0
  146.5336  138.8904  152.6639 C   0  0  0  0  0  0  0  0  0  0  0  0
  147.8232  139.5969  153.1228 C   0  0  1  0  0  0  0  0  0  0  0  0
  147.5542  141.0223  153.6437 C   0  0  0  0  0  0  0  0  0  0  0  0
  148.8280  141.5490  154.3118 C   0  0  0  0  0  0  0  0  0  0  0  0
  149.6169  140.0889  155.0856 S   0  0  0  0  0  0  0  0  0  0  0  0
  151.0094  139.9958  154.6213 O   0  0  0  0  0  0  0  0  0  0  0  0
  149.2933  140.0593  156.5199 O   0  0  0  0  0  0  0  0  0  0  0  0
  148.5937  138.8390  154.2184 C   0  0  0  0  0  0  0  0  0  0  0  0
  147.9705  131.9827  152.7184 H   0  0  0  0  0  0  0  0  0  0  0  0
  147.4937  133.5205  153.4366 H   0  0  0  0  0  0  0  0  0  0  0  0
  148.4520  133.4933  151.9477 H   0  0  0  0  0  0  0  0  0  0  0  0
  146.2261  130.8349  151.6010 H   0  0  0  0  0  0  0  0  0  0  0  0
  144.1239  130.8529  150.2467 H   0  0  0  0  0  0  0  0  0  0  0  0
  143.1463  133.0675  149.5902 H   0  0  0  0  0  0  0  0  0  0  0  0
  147.4038  135.3797  151.6610 H   0  0  0  0  0  0  0  0  0  0  0  0
  147.7492  137.2269  152.1933 H   0  0  0  0  0  0  0  0  0  0  0  0
  146.1218  139.4098  151.7981 H   0  0  0  0  0  0  0  0  0  0  0  0
  145.7686  138.9457  153.4405 H   0  0  0  0  0  0  0  0  0  0  0  0
  148.4874  139.6918  152.2625 H   0  0  0  0  0  0  0  0  0  0  0  0
  147.2197  141.6877  152.8473 H   0  0  0  0  0  0  0  0  0  0  0  0
  146.7559  140.9881  154.3862 H   0  0  0  0  0  0  0  0  0  0  0  0
  149.5174  141.9511  153.5690 H   0  0  0  0  0  0  0  0  0  0  0  0
  148.6336  142.3163  155.0611 H   0  0  0  0  0  0  0  0  0  0  0  0
  147.9104  138.4059  154.9497 H   0  0  0  0  0  0  0  0  0  0  0  0
  149.2262  138.0435  153.8241 H   0  0  0  0  0  0  0  0  0  0  0  0
  1  2  1  0  0  0  0
  1 20  1  0  0  0  0
  1 21  1  0  0  0  0
  1 22  1  0  0  0  0
  2  7  1  0  0  0  0
  2  3  2  0  0  0  0
  3  4  1  0  0  0  0
  3 23  1  0  0  0  0
  4  5  2  0  0  0  0
  4 24  1  0  0  0  0
  5  6  1  0  0  0  0
  5 25  1  0  0  0  0
  6  7  2  0  0  0  0
  7  8  1  0  0  0  0
  8  9  1  0  0  0  0
  8 26  1  0  0  0  0
  9 10  2  0  0  0  0
  9 11  1  0  0  0  0
 11 12  1  0  0  0  0
 11 27  1  0  0  0  0
 12 13  1  0  0  0  0
 12 28  1  0  0  0  0
 12 29  1  0  0  0  0
 13 19  1  0  0  0  0
 13 14  1  0  0  0  0
 13 30  1  0  0  0  0
 14 15  1  0  0  0  0
 14 31  1  0  0  0  0
 14 32  1  0  0  0  0
 15 16  1  0  0  0  0
 15 33  1  0  0  0  0
 15 34  1  0  0  0  0
 16 17  2  0  0  0  0
 16 18  2  0  0  0  0
 16 19  1  0  0  0  0
 19 35  1  0  0  0  0
 19 36  1  0  0  0  0
M  END
> <s_m_source_file>
AV-unprocessed.smi

> <i_m_source_file_index>
1425

> <i_lp_mmshare_version>
43012

> <i_f3d_flags>
0

> <s_epik_input>
W0NIM11jMVtjSF1bY0hdW2NIXW5jMVtOSF1DKD1PKVtOSF1bQ0gyXVtDQEBIXShbQ0gyXTIpW0NIMl1bQ0gyXVMyKD1PKT1P

> <s_epik_cmdline>
J2VwaWtfcHl0aG9uJywgJy1waCcsICc3LjAnLCAnLXRuJywgJzgnLCAnLW1hJywgJzIwMCcsICctbWV0YWxfYmluZGluZycsICctaW1hZScsICc8aW5maWxlLm1hZT4nLCAnLW9tYWUnLCAnPG91dGZpbGUubWFlPic=

> <r_lp_tautomer_probability>
1

> <r_epik_Ionization_Penalty>
5.46275e-05

> <r_epik_Ionization_Penalty_Charging>
0

> <r_epik_Ionization_Penalty_Neutral>
5.46275e-05

> <r_epik_State_Penalty>
-0

> <r_epik_Charging_Adjusted_Penalty>
0

> <i_epik_Tot_Q>
0

> <i_epik_Tot_abs_Q>
0

> <r_epik_Metal_State_Penalty>
-0

> <b_epik_Metal_Only>
0

> <s_lp_Force_Field>
OPLS_2005

> <r_lp_Energy>
7.35863

> <b_lp_Chiralities_Consistent>
1

> <s_lp_Variant>
AV-unprocessed.smi:1425-2

> <Gold.Version>
5.8.1

> <Gold.Id.Protein>
6NUR|6NUR_protein|mol2

> <Gold.PLP.Fitness>
44.7466

> <Gold.PLP.PLP>
-33.3433

> <Gold.PLP.part.hbond>
-3.0000

> <Gold.PLP.part.metal>
0.0000

> <Gold.PLP.part.buried>
-2.5730

> <Gold.PLP.part.nonpolar>
-29.6280

> <Gold.PLP.part.repulsive>
1.1831

> <Gold.PLP.ligand.clash>
0.0000

> <Gold.PLP.ligand.torsion>
0.3035

> <Gold.PLP.Chemscore.Hbond>
3.0000

> <Gold.PLP.Chemscore.CHOScore>
1.0000

> <Gold.PLP.Chemscore.Metal>
0.0000

> <Gold.Chemscore.Hbonds>
donor molecule, donor type, donor heavy atom, donor atom, acceptor molecule, acceptor atom, score
      L1  H     8    26       P1  7948  0.99
      L1  H    11    27       P1  7948  1.00
      P1  H  7989  7998       L1    17  1.00
      L1  C     5    25       P1 10186  1.00

> <Gold.PLP.Chemscore.Internal.Correction>
0.0103

> <Gold.Rescore>
     Score         DG    S(hbond)    S(metal)    S(lipo)     H(rot)  DE(clash)    DE(int)     intcor
     19.25     -20.22       2.96        0.00      69.91       1.29       0.02       0.95       ----

> <Gold.Chemscore.Fitness>
19.2459

> <Gold.Chemscore.DG>
-20.2225

> <Gold.Chemscore.ZeroCoef>
-5.4800

> <Gold.Chemscore.Hbond>
2.9566

> <Gold.Chemscore.Metal>
0.0000

> <Gold.Chemscore.Lipo>
69.9111

> <Gold.Chemscore.Internal_Hbond>
0.0000

> <Gold.Chemscore.DEClash>
0.0241

> <Gold.Chemscore.DEInternal>
0.9525

> <Gold.Chemscore.Rot>
1.2939

> <Gold.Chemscore.Internal.Correction>
   9.000000E+99

> <Gold.Chemscore.Hbonds>
donor molecule, donor type, donor heavy atom, donor atom, acceptor molecule, acceptor atom, score
      L1  H     8    26       P1  7948  0.90
      L1  H    11    27       P1  7948  0.96
      P1  H  7989  7998       L1    17  0.95

> <Gold.Chemscore.Hbond.Weighted>
-9.8751

> <Gold.Chemscore.Metal.Weighted>
-0.0000

> <Gold.Chemscore.Lipo.Weighted>
-8.1796

> <Gold.Chemscore.Internal_Hbond.Weighted>
0.0000

> <Gold.Chemscore.DEClash.Weighted>
0.0241

> <Gold.Chemscore.DEInternal.Weighted>
0.9525

> <Gold.Chemscore.Rot.Weighted>
3.3123

> <Gold.Chemscore.Internal.Correction.Weighted>
   9.000000E+99

> <Gold.Protein.RotatedTorsions>
[ 6907 6896 6895 6894 ] final   14.00 input  -60.11 | X-H torsion
[ 7974 7965 7964 7962 ] final -170.55 input  175.53 | X-H torsion
[ 8008 7997 7996 7995 ] final   57.97 input   59.86 | X-H torsion
[ 10167 10162 10161 10158 ] final  138.42 input  -65.29 | X-H torsion
[ 10718 10713 10712 10709 ] final   -7.52 input   66.30 | X-H torsion
[ 10763 10752 10751 10750 ] final  115.62 input  -60.55 | X-H torsion
[ 11005 11000 10999 10996 ] final    4.59 input  -57.11 | X-H torsion

> <Gold.Protein.ActiveResidues>
 VAL166  LYS551  ARG553  GLY616  TRP617  ASP618  TYR619  PRO620  LYS621  CYS622 
 ASP623  PHE694  ASN695  SER759  ASP760  ASP761  ALA762  ILE779  LEU786  VAL792 
 PHE793  MET794  SER795  GLU796  ALA797  LYS798  CYS799  TRP800  GLU811  SER814 

> <Gold.Protein.RotatedAtoms>
  151.7952  135.0724  160.0392 H   0  0  0  0  0  0  0  0  0  0  0  0  # atno 6907 bound_to 6896
  152.3128  133.5766  159.5700 H   0  0  0  0  0  0  0  0  0  0  0  0  # atno 6908 bound_to 6896
  150.7329  134.0043  159.3690 H   0  0  0  0  0  0  0  0  0  0  0  0  # atno 6909 bound_to 6896
  144.7168  140.2055  143.6333 H   0  0  0  0  0  0  0  0  0  0  0  0  # atno 7974 bound_to 7965
  155.5424  140.3484  155.4450 H   0  0  0  0  0  0  0  0  0  0  0  0  # atno 8008 bound_to 7997
  156.0642  140.1347  156.9932 H   0  0  0  0  0  0  0  0  0  0  0  0  # atno 8009 bound_to 7997
  154.4495  140.0979  156.6547 H   0  0  0  0  0  0  0  0  0  0  0  0  # atno 8010 bound_to 7997
  139.5111  144.6354  151.5709 H   0  0  0  0  0  0  0  0  0  0  0  0  # atno 10167 bound_to 10162
  156.7160  130.5136  149.5880 H   0  0  0  0  0  0  0  0  0  0  0  0  # atno 10718 bound_to 10713
  153.5250  135.3590  155.2649 H   0  0  0  0  0  0  0  0  0  0  0  0  # atno 10763 bound_to 10752
  154.8732  135.4054  154.3216 H   0  0  0  0  0  0  0  0  0  0  0  0  # atno 10764 bound_to 10752
  153.3894  135.7071  153.6573 H   0  0  0  0  0  0  0  0  0  0  0  0  # atno 10765 bound_to 10752
  140.5802  134.0020  155.8045 H   0  0  0  0  0  0  0  0  0  0  0  0  # atno 11005 bound_to 11000
  145.8640  139.2237  143.1700 LP  0  0  0  0  0  0  0  0  0  0  0  0  # atno 17320 bound_to 7965
  146.0147  140.8403  142.9953 LP  0  0  0  0  0  0  0  0  0  0  0  0  # atno 17321 bound_to 7965
  140.6102  143.9451  150.6447 LP  0  0  0  0  0  0  0  0  0  0  0  0  # atno 17342 bound_to 10162
  140.2691  143.3469  152.1254 LP  0  0  0  0  0  0  0  0  0  0  0  0  # atno 17343 bound_to 10162
  156.1627  130.6385  151.0739 LP  0  0  0  0  0  0  0  0  0  0  0  0  # atno 17370 bound_to 10713
  157.6917  131.0808  150.7088 LP  0  0  0  0  0  0  0  0  0  0  0  0  # atno 17371 bound_to 10713
  141.1001  133.9782  157.3094 LP  0  0  0  0  0  0  0  0  0  0  0  0  # atno 17394 bound_to 11000
  139.9320  135.0199  156.8433 LP  0  0  0  0  0  0  0  0  0  0  0  0  # atno 17395 bound_to 11000

$$$$
