AV-unprocessed.smi:308|AV-procd|sdf|2289|dock5
  -GOLD-   2262022193D 1   1.00000     0.00000
 Structure written by MMmdl.
 50 51  0  0  0  0  0  0  0  0  4 V2000
  144.9022  136.0215  151.3233 C   0  0  0  0  0  0  0  0  0  0  0  0
  145.7680  137.1699  151.8607 C   0  0  2  0  0  0  0  0  0  0  0  0
  145.2348  137.7048  153.2008 C   0  0  0  0  0  0  0  0  0  0  0  0
  146.0893  138.8753  153.7139 C   0  0  0  0  0  0  0  0  0  0  0  0
  146.1544  139.9692  152.7072 N   0  3  1  0  0  0  0  0  0  0  0  0
  146.8238  141.2018  153.2035 C   0  0  0  0  0  0  0  0  0  0  0  0
  148.3429  140.9998  153.3889 C   0  0  0  0  0  0  0  0  0  0  0  0
  148.8504  141.8650  154.4579 N   0  5  0  0  0  0  0  0  0  0  0  0
  149.8131  141.5152  155.3531 C   0  0  0  0  0  0  0  0  0  0  0  0
  150.6363  140.5991  155.2517 O   0  0  0  0  0  0  0  0  0  0  0  0
  149.7921  142.2979  156.4468 N   0  0  0  0  0  0  0  0  0  0  0  0
  150.6181  142.2573  157.6028 C   0  0  0  0  0  0  0  0  0  0  0  0
  151.2872  141.0492  157.8858 C   0  0  0  0  0  0  0  0  0  0  0  0
  152.1049  140.9505  159.0297 C   0  0  0  0  0  0  0  0  0  0  0  0
  152.2429  142.0633  159.8952 C   0  0  0  0  0  0  0  0  0  0  0  0
  153.0426  142.0427  161.0583 N   0  0  0  0  0  0  0  0  0  0  0  0
  154.0536  141.0042  161.2222 C   0  0  0  0  0  0  0  0  0  0  0  0
  152.7665  142.9761  162.1425 C   0  0  0  0  0  0  0  0  0  0  0  0
  151.5673  143.1982  159.5899 N   0  3  0  0  0  0  0  0  0  0  0  0
  150.7749  143.3359  158.5048 C   0  0  0  0  0  0  0  0  0  0  0  0
  146.7043  139.4907  151.4132 C   0  0  0  0  0  0  0  0  0  0  0  0
  145.8668  138.3285  150.8533 C   0  0  0  0  0  0  0  0  0  0  0  0
  143.8811  136.3510  151.1280 H   0  0  0  0  0  0  0  0  0  0  0  0
  144.8553  135.1981  152.0368 H   0  0  0  0  0  0  0  0  0  0  0  0
  145.3084  135.6267  150.3916 H   0  0  0  0  0  0  0  0  0  0  0  0
  146.7724  136.7777  152.0277 H   0  0  0  0  0  0  0  0  0  0  0  0
  144.2011  138.0340  153.0849 H   0  0  0  0  0  0  0  0  0  0  0  0
  145.2230  136.9066  153.9440 H   0  0  0  0  0  0  0  0  0  0  0  0
  145.6623  139.2491  154.6450 H   0  0  0  0  0  0  0  0  0  0  0  0
  147.0985  138.5309  153.9452 H   0  0  0  0  0  0  0  0  0  0  0  0
  146.6325  142.0329  152.5234 H   0  0  0  0  0  0  0  0  0  0  0  0
  146.3975  141.5053  154.1610 H   0  0  0  0  0  0  0  0  0  0  0  0
  148.5296  139.9506  153.6180 H   0  0  0  0  0  0  0  0  0  0  0  0
  148.8460  141.1811  152.4387 H   0  0  0  0  0  0  0  0  0  0  0  0
  149.0356  142.9658  156.4789 H   0  0  0  0  0  0  0  0  0  0  0  0
  151.1809  140.1996  157.2270 H   0  0  0  0  0  0  0  0  0  0  0  0
  152.6133  140.0181  159.2232 H   0  0  0  0  0  0  0  0  0  0  0  0
  154.7823  141.0465  160.4122 H   0  0  0  0  0  0  0  0  0  0  0  0
  153.5910  140.0170  161.2227 H   0  0  0  0  0  0  0  0  0  0  0  0
  154.5940  141.1215  162.1616 H   0  0  0  0  0  0  0  0  0  0  0  0
  151.7571  142.8281  162.5280 H   0  0  0  0  0  0  0  0  0  0  0  0
  152.8608  144.0054  161.7956 H   0  0  0  0  0  0  0  0  0  0  0  0
  153.4636  142.8410  162.9695 H   0  0  0  0  0  0  0  0  0  0  0  0
  150.2931  144.2979  158.4148 H   0  0  0  0  0  0  0  0  0  0  0  0
  146.7044  140.3084  150.6908 H   0  0  0  0  0  0  0  0  0  0  0  0
  147.7422  139.1824  151.5479 H   0  0  0  0  0  0  0  0  0  0  0  0
  146.3072  137.9766  149.9198 H   0  0  0  0  0  0  0  0  0  0  0  0
  144.8675  138.6901  150.6059 H   0  0  0  0  0  0  0  0  0  0  0  0
  145.2029  140.2516  152.5155 H   0  0  0  0  0  0  0  0  0  0  0  0
  151.6595  143.9969  160.2176 H   0  0  0  0  0  0  0  0  0  0  0  0
  1  2  1  0  0  0  0
  1 23  1  0  0  0  0
  1 24  1  0  0  0  0
  1 25  1  0  0  0  0
  2 22  1  0  0  0  0
  2  3  1  0  0  0  0
  2 26  1  0  0  0  0
  3  4  1  0  0  0  0
  3 27  1  0  0  0  0
  3 28  1  0  0  0  0
  4  5  1  0  0  0  0
  4 29  1  0  0  0  0
  4 30  1  0  0  0  0
  5  6  1  0  0  0  0
  5 21  1  0  0  0  0
  5 49  1  0  0  0  0
  6  7  1  0  0  0  0
  6 31  1  0  0  0  0
  6 32  1  0  0  0  0
  7  8  1  0  0  0  0
  7 33  1  0  0  0  0
  7 34  1  0  0  0  0
  8  9  1  0  0  0  0
  9 10  2  0  0  0  0
  9 11  1  0  0  0  0
 11 12  1  0  0  0  0
 11 35  1  0  0  0  0
 12 20  1  0  0  0  0
 12 13  2  0  0  0  0
 13 14  1  0  0  0  0
 13 36  1  0  0  0  0
 14 15  2  0  0  0  0
 14 37  1  0  0  0  0
 15 16  1  0  0  0  0
 15 19  1  0  0  0  0
 16 17  1  0  0  0  0
 16 18  1  0  0  0  0
 17 38  1  0  0  0  0
 17 39  1  0  0  0  0
 17 40  1  0  0  0  0
 18 41  1  0  0  0  0
 18 42  1  0  0  0  0
 18 43  1  0  0  0  0
 19 20  2  0  0  0  0
 19 50  1  0  0  0  0
 20 44  1  0  0  0  0
 21 22  1  0  0  0  0
 21 45  1  0  0  0  0
 21 46  1  0  0  0  0
 22 47  1  0  0  0  0
 22 48  1  0  0  0  0
M  CHG  1   5   1
M  CHG  1   8  -1
M  CHG  1  19   1
M  END
> <s_m_source_file>
AV-unprocessed.smi

> <i_m_source_file_index>
308

> <i_lp_mmshare_version>
43012

> <i_f3d_flags>
0

> <s_epik_input>
W0NIM11bQ0hdMVtDSDJdW0NIMl1OKFtDSDJdW0NIMl0xKVtDSDJdW0NIMl1bTkhdQyg9TylbTkhdYzJbY0hdW2NIXWMoTihbQ0gzXSlbQ0gzXSluW2NIXTI=

> <s_epik_cmdline>
J2VwaWtfcHl0aG9uJywgJy1waCcsICc3LjAnLCAnLXRuJywgJzgnLCAnLW1hJywgJzIwMCcsICctbWV0YWxfYmluZGluZycsICctaW1hZScsICc8aW5maWxlLm1hZT4nLCAnLW9tYWUnLCAnPG91dGZpbGUubWFlPic=

> <r_lp_tautomer_probability>
0.999994

> <r_epik_Ionization_Penalty>
7.42107

> <r_epik_Ionization_Penalty_Charging>
7.42107

> <r_epik_Ionization_Penalty_Neutral>
3.68925e-06

> <r_epik_State_Penalty>
7.0982

> <r_epik_Charging_Adjusted_Penalty>
14.5193

> <i_epik_Tot_Q>
1

> <i_epik_Tot_abs_Q>
3

> <r_epik_Metal_State_Penalty>
3.28646

> <b_epik_Metal_Only>
1

> <s_lp_Force_Field>
OPLS_2005

> <r_lp_Energy>
19.707

> <b_lp_Chiralities_Consistent>
1

> <s_lp_Variant>
AV-unprocessed.smi:308-5

> <Gold.Version>
5.8.1

> <Gold.Id.Protein>
6NUR|6NUR_protein|mol2

> <Gold.PLP.Fitness>
53.1660

> <Gold.PLP.PLP>
-43.5812

> <Gold.PLP.part.hbond>
-3.9361

> <Gold.PLP.part.metal>
0.0000

> <Gold.PLP.part.buried>
3.9648

> <Gold.PLP.part.nonpolar>
-44.4924

> <Gold.PLP.part.repulsive>
0.3702

> <Gold.PLP.ligand.clash>
0.0000

> <Gold.PLP.ligand.torsion>
0.7193

> <Gold.PLP.Chemscore.Hbond>
3.6320

> <Gold.PLP.Chemscore.CHOScore>
0.0000

> <Gold.PLP.Chemscore.Metal>
0.0000

> <Gold.Chemscore.Hbonds>
donor molecule, donor type, donor heavy atom, donor atom, acceptor molecule, acceptor atom, score
      L1  H     5    49       P1 10175  1.98
      L1  H    11    35       P1  8028  0.61
      P1  H  7989  7998       L1    10  0.94

> <Gold.PLP.Chemscore.Internal.Correction>
0.1275

> <Gold.Rescore>
     Score         DG    S(hbond)    S(metal)    S(lipo)     H(rot)  DE(clash)    DE(int)     intcor
     15.79     -22.10       2.00        0.00     116.09       1.42       4.16       2.15       ----

> <Gold.Chemscore.Fitness>
15.7858

> <Gold.Chemscore.DG>
-22.0955

> <Gold.Chemscore.ZeroCoef>
-5.4800

> <Gold.Chemscore.Hbond>
1.9995

> <Gold.Chemscore.Metal>
0.0000

> <Gold.Chemscore.Lipo>
116.0927

> <Gold.Chemscore.Internal_Hbond>
0.0000

> <Gold.Chemscore.DEClash>
4.1552

> <Gold.Chemscore.DEInternal>
2.1545

> <Gold.Chemscore.Rot>
1.4241

> <Gold.Chemscore.Internal.Correction>
   9.000000E+99

> <Gold.Chemscore.Hbonds>
donor molecule, donor type, donor heavy atom, donor atom, acceptor molecule, acceptor atom, score
      L1  H     5    49       P1 10175  0.79
      L1  H    11    35       P1  8028  0.61
      P1  H  7989  7998       L1    10  0.51

> <Gold.Chemscore.Hbond.Weighted>
-6.6783

> <Gold.Chemscore.Metal.Weighted>
-0.0000

> <Gold.Chemscore.Lipo.Weighted>
-13.5828

> <Gold.Chemscore.Internal_Hbond.Weighted>
0.0000

> <Gold.Chemscore.DEClash.Weighted>
4.1552

> <Gold.Chemscore.DEInternal.Weighted>
2.1545

> <Gold.Chemscore.Rot.Weighted>
3.6456

> <Gold.Chemscore.Internal.Correction.Weighted>
   9.000000E+99

> <Gold.Protein.RotatedTorsions>
[ 6907 6896 6895 6894 ] final -107.84 input  -60.11 | X-H torsion
[ 7974 7965 7964 7962 ] final -113.07 input  175.53 | X-H torsion
[ 8008 7997 7996 7995 ] final   80.61 input   59.86 | X-H torsion
[ 10167 10162 10161 10158 ] final -157.21 input  -65.29 | X-H torsion
[ 10718 10713 10712 10709 ] final   89.12 input   66.30 | X-H torsion
[ 10763 10752 10751 10750 ] final  126.61 input  -60.55 | X-H torsion
[ 11005 11000 10999 10996 ] final -156.90 input  -57.11 | X-H torsion

> <Gold.Protein.ActiveResidues>
 VAL166  LYS551  ARG553  GLY616  TRP617  ASP618  TYR619  PRO620  LYS621  CYS622 
 ASP623  PHE694  ASN695  SER759  ASP760  ASP761  ALA762  ILE779  LEU786  VAL792 
 PHE793  MET794  SER795  GLU796  ALA797  LYS798  CYS799  TRP800  GLU811  SER814 

> <Gold.Protein.RotatedAtoms>
  150.7467  133.9767  159.3562 H   0  0  0  0  0  0  0  0  0  0  0  0  # atno 6907 bound_to 6896
  151.7705  135.0785  160.0368 H   0  0  0  0  0  0  0  0  0  0  0  0  # atno 6908 bound_to 6896
  152.3342  133.5956  159.5867 H   0  0  0  0  0  0  0  0  0  0  0  0  # atno 6909 bound_to 6896
  145.1364  140.8753  143.3728 H   0  0  0  0  0  0  0  0  0  0  0  0  # atno 7974 bound_to 7965
  155.8858  140.3441  155.5920 H   0  0  0  0  0  0  0  0  0  0  0  0  # atno 8008 bound_to 7997
  155.7668  140.0840  157.2147 H   0  0  0  0  0  0  0  0  0  0  0  0  # atno 8009 bound_to 7997
  154.4028  140.1525  156.2883 H   0  0  0  0  0  0  0  0  0  0  0  0  # atno 8010 bound_to 7997
  139.6788  143.9616  152.2325 H   0  0  0  0  0  0  0  0  0  0  0  0  # atno 10167 bound_to 10162
  157.6953  131.0321  150.3377 H   0  0  0  0  0  0  0  0  0  0  0  0  # atno 10718 bound_to 10713
  153.6960  135.3291  155.3213 H   0  0  0  0  0  0  0  0  0  0  0  0  # atno 10763 bound_to 10752
  154.8426  135.4443  154.1459 H   0  0  0  0  0  0  0  0  0  0  0  0  # atno 10764 bound_to 10752
  153.2514  135.6981  153.7753 H   0  0  0  0  0  0  0  0  0  0  0  0  # atno 10765 bound_to 10752
  140.6705  134.4252  157.5231 H   0  0  0  0  0  0  0  0  0  0  0  0  # atno 11005 bound_to 11000
  145.0580  139.3128  143.5895 LP  0  0  0  0  0  0  0  0  0  0  0  0  # atno 17320 bound_to 7965
  146.3509  140.0012  142.8676 LP  0  0  0  0  0  0  0  0  0  0  0  0  # atno 17321 bound_to 7965
  139.9401  144.6687  150.8275 LP  0  0  0  0  0  0  0  0  0  0  0  0  # atno 17342 bound_to 10162
  140.7645  143.3250  151.2535 LP  0  0  0  0  0  0  0  0  0  0  0  0  # atno 17343 bound_to 10162
  156.3842  130.3886  149.7078 LP  0  0  0  0  0  0  0  0  0  0  0  0  # atno 17370 bound_to 10713
  156.4450  130.7879  151.2901 LP  0  0  0  0  0  0  0  0  0  0  0  0  # atno 17371 bound_to 10713
  139.8983  134.8617  156.2008 LP  0  0  0  0  0  0  0  0  0  0  0  0  # atno 17394 bound_to 11000
  141.0395  133.6945  156.1573 LP  0  0  0  0  0  0  0  0  0  0  0  0  # atno 17395 bound_to 11000

$$$$
