AV-unprocessed.smi:3133|AV-procd|sdf|11938|dock7
  -GOLD-   2272017323D 1   1.00000     0.00000
 Structure written by MMmdl.
 32 33  0  0  0  0  0  0  0  0  1 V2000
  150.8635  137.4739  158.6625 C   0  0  0  0  0  0  0  0  0  0  0  0
  151.2308  138.8306  158.0270 C   0  0  1  0  0  0  0  0  0  0  0  0
  152.5894  139.3568  158.5106 C   0  0  0  0  0  0  0  0  0  0  0  0
  153.6369  138.9013  158.0507 O   0  0  0  0  0  0  0  0  0  0  0  0
  152.5514  140.3417  159.4217 N   0  0  0  0  0  0  0  0  0  0  0  0
  153.7082  141.0676  159.9334 C   0  0  0  0  0  0  0  0  0  0  0  0
  153.4018  142.5674  160.0800 C   0  0  2  0  0  0  0  0  0  0  0  0
  152.4505  142.9289  161.2207 C   0  0  0  0  0  0  0  0  0  0  0  0
  151.8528  144.2531  160.7739 C   0  0  0  0  0  0  0  0  0  0  0  0
  152.1677  144.3204  159.2757 C   0  0  0  0  0  0  0  0  0  0  0  0
  152.7041  143.0470  158.9428 O   0  0  0  0  0  0  0  0  0  0  0  0
  151.2119  138.7927  156.5691 N   0  0  0  0  0  0  0  0  0  0  0  0
  151.3950  139.7770  155.6862 C   0  0  0  0  0  0  0  0  0  0  0  0
  151.3738  139.3791  154.4219 N   0  0  0  0  0  0  0  0  0  0  0  0
  151.1730  138.0408  154.6080 C   0  0  0  0  0  0  0  0  0  0  0  0
  151.0826  137.6346  155.8741 N   0  0  0  0  0  0  0  0  0  0  0  0
  150.8407  137.5449  159.7504 H   0  0  0  0  0  0  0  0  0  0  0  0
  151.5738  136.6888  158.3997 H   0  0  0  0  0  0  0  0  0  0  0  0
  149.8754  137.1476  158.3369 H   0  0  0  0  0  0  0  0  0  0  0  0
  150.4674  139.5466  158.3360 H   0  0  0  0  0  0  0  0  0  0  0  0
  151.6465  140.6467  159.7496 H   0  0  0  0  0  0  0  0  0  0  0  0
  153.9609  140.6509  160.9086 H   0  0  0  0  0  0  0  0  0  0  0  0
  154.5843  140.9151  159.3006 H   0  0  0  0  0  0  0  0  0  0  0  0
  154.3314  143.1315  160.1796 H   0  0  0  0  0  0  0  0  0  0  0  0
  151.6599  142.1819  161.3021 H   0  0  0  0  0  0  0  0  0  0  0  0
  152.9527  142.9929  162.1867 H   0  0  0  0  0  0  0  0  0  0  0  0
  150.7797  144.2822  160.9660 H   0  0  0  0  0  0  0  0  0  0  0  0
  152.3112  145.0921  161.2985 H   0  0  0  0  0  0  0  0  0  0  0  0
  151.2869  144.5411  158.6725 H   0  0  0  0  0  0  0  0  0  0  0  0
  152.9171  145.0878  159.0768 H   0  0  0  0  0  0  0  0  0  0  0  0
  151.5548  140.8054  155.9750 H   0  0  0  0  0  0  0  0  0  0  0  0
  151.0991  137.3438  153.7862 H   0  0  0  0  0  0  0  0  0  0  0  0
  1  2  1  0  0  0  0
  1 17  1  0  0  0  0
  1 18  1  0  0  0  0
  1 19  1  0  0  0  0
  2  3  1  0  0  0  0
  2 12  1  0  0  0  0
  2 20  1  0  0  0  0
  3  4  2  0  0  0  0
  3  5  1  0  0  0  0
  5  6  1  0  0  0  0
  5 21  1  0  0  0  0
  6  7  1  0  0  0  0
  6 22  1  0  0  0  0
  6 23  1  0  0  0  0
  7 11  1  0  0  0  0
  7  8  1  0  0  0  0
  7 24  1  0  0  0  0
  8  9  1  0  0  0  0
  8 25  1  0  0  0  0
  8 26  1  0  0  0  0
  9 10  1  0  0  0  0
  9 27  1  0  0  0  0
  9 28  1  0  0  0  0
 10 11  1  0  0  0  0
 10 29  1  0  0  0  0
 10 30  1  0  0  0  0
 12 16  1  0  0  0  0
 12 13  1  0  0  0  0
 13 14  2  0  0  0  0
 13 31  1  0  0  0  0
 14 15  1  0  0  0  0
 15 16  2  0  0  0  0
 15 32  1  0  0  0  0
M  END
> <s_m_source_file>
AV-unprocessed.smi

> <i_m_source_file_index>
3133

> <i_lp_mmshare_version>
43012

> <i_f3d_flags>
0

> <s_epik_input>
bjFbY0hdbltjSF1uMVtDQEhdKFtDSDNdKUMoPU8pW05IXVtDSDJdW0NAQEhdMltDSDJdW0NIMl1bQ0gyXU8y

> <s_epik_cmdline>
J2VwaWtfcHl0aG9uJywgJy1waCcsICc3LjAnLCAnLXRuJywgJzgnLCAnLW1hJywgJzIwMCcsICctbWV0YWxfYmluZGluZycsICctaW1hZScsICc8aW5maWxlLm1hZT4nLCAnLW9tYWUnLCAnPG91dGZpbGUubWFlPic=

> <r_lp_tautomer_probability>
1

> <r_epik_Ionization_Penalty>
1.2027e-05

> <r_epik_Ionization_Penalty_Charging>
0

> <r_epik_Ionization_Penalty_Neutral>
1.2027e-05

> <r_epik_State_Penalty>
-0

> <r_epik_Charging_Adjusted_Penalty>
0

> <i_epik_Tot_Q>
0

> <i_epik_Tot_abs_Q>
0

> <r_epik_Metal_State_Penalty>
-0

> <b_epik_Metal_Only>
0

> <s_lp_Force_Field>
OPLS_2005

> <r_lp_Energy>
22.7356

> <b_lp_Chiralities_Consistent>
1

> <s_lp_Variant>
AV-unprocessed.smi:3133-2

> <Gold.Version>
5.8.1

> <Gold.Id.Protein>
6NUR|6NUR_protein|mol2

> <Gold.PLP.Fitness>
40.4111

> <Gold.PLP.PLP>
-33.7560

> <Gold.PLP.part.hbond>
-2.0000

> <Gold.PLP.part.metal>
0.0000

> <Gold.PLP.part.buried>
-4.8056

> <Gold.PLP.part.nonpolar>
-27.3516

> <Gold.PLP.part.repulsive>
0.2794

> <Gold.PLP.ligand.clash>
0.0000

> <Gold.PLP.ligand.torsion>
0.6385

> <Gold.PLP.Chemscore.Hbond>
2.0000

> <Gold.PLP.Chemscore.CHOScore>
0.6052

> <Gold.PLP.Chemscore.Metal>
0.0000

> <Gold.Chemscore.Hbonds>
donor molecule, donor type, donor heavy atom, donor atom, acceptor molecule, acceptor atom, score
      P1  H  7989  7998       L1    14  1.00
      P1  H  7997  8009       L1     4  1.00
      L1  C    15    32       P1  7949  0.66

> <Gold.PLP.Chemscore.Internal.Correction>
0.1166

> <Gold.Rescore>
     Score         DG    S(hbond)    S(metal)    S(lipo)     H(rot)  DE(clash)    DE(int)     intcor
     14.10     -14.51       1.99        0.00      69.65       2.26       0.03       0.38       ----

> <Gold.Chemscore.Fitness>
14.1046

> <Gold.Chemscore.DG>
-14.5123

> <Gold.Chemscore.ZeroCoef>
-5.4800

> <Gold.Chemscore.Hbond>
1.9933

> <Gold.Chemscore.Metal>
0.0000

> <Gold.Chemscore.Lipo>
69.6533

> <Gold.Chemscore.Internal_Hbond>
0.0000

> <Gold.Chemscore.DEClash>
0.0319

> <Gold.Chemscore.DEInternal>
0.3758

> <Gold.Chemscore.Rot>
2.2558

> <Gold.Chemscore.Internal.Correction>
   9.000000E+99

> <Gold.Chemscore.Hbonds>
donor molecule, donor type, donor heavy atom, donor atom, acceptor molecule, acceptor atom, score
      P1  H  7989  7998       L1    14  0.50
      P1  H  7997  8009       L1     4  0.90

> <Gold.Chemscore.Hbond.Weighted>
-6.6576

> <Gold.Chemscore.Metal.Weighted>
-0.0000

> <Gold.Chemscore.Lipo.Weighted>
-8.1494

> <Gold.Chemscore.Internal_Hbond.Weighted>
0.0000

> <Gold.Chemscore.DEClash.Weighted>
0.0319

> <Gold.Chemscore.DEInternal.Weighted>
0.3758

> <Gold.Chemscore.Rot.Weighted>
5.7747

> <Gold.Chemscore.Internal.Correction.Weighted>
   9.000000E+99

> <Gold.Protein.RotatedTorsions>
[ 6907 6896 6895 6894 ] final  115.74 input  -60.11 | X-H torsion
[ 7974 7965 7964 7962 ] final   33.11 input  175.53 | X-H torsion
[ 8008 7997 7996 7995 ] final  159.99 input   59.86 | X-H torsion
[ 10167 10162 10161 10158 ] final   26.47 input  -65.29 | X-H torsion
[ 10718 10713 10712 10709 ] final -135.01 input   66.30 | X-H torsion
[ 10763 10752 10751 10750 ] final  -70.07 input  -60.55 | X-H torsion
[ 11005 11000 10999 10996 ] final   64.32 input  -57.11 | X-H torsion

> <Gold.Protein.ActiveResidues>
 VAL166  LYS551  ARG553  GLY616  TRP617  ASP618  TYR619  PRO620  LYS621  CYS622 
 ASP623  PHE694  ASN695  SER759  ASP760  ASP761  ALA762  ILE779  LEU786  VAL792 
 PHE793  MET794  SER795  GLU796  ALA797  LYS798  CYS799  TRP800  GLU811  SER814 

> <Gold.Protein.RotatedAtoms>
  152.4722  133.8057  159.6976 H   0  0  0  0  0  0  0  0  0  0  0  0  # atno 6907 bound_to 6896
  150.8718  133.7485  159.2965 H   0  0  0  0  0  0  0  0  0  0  0  0  # atno 6908 bound_to 6896
  151.5017  135.1065  159.9882 H   0  0  0  0  0  0  0  0  0  0  0  0  # atno 6909 bound_to 6896
  146.1442  139.6439  142.9142 H   0  0  0  0  0  0  0  0  0  0  0  0  # atno 7974 bound_to 7965
  156.2202  140.1816  156.7494 H   0  0  0  0  0  0  0  0  0  0  0  0  # atno 8008 bound_to 7997
  154.5854  140.0659  156.9192 H   0  0  0  0  0  0  0  0  0  0  0  0  # atno 8009 bound_to 7997
  155.2430  140.3323  155.4293 H   0  0  0  0  0  0  0  0  0  0  0  0  # atno 8010 bound_to 7997
  140.5020  144.0300  150.6336 H   0  0  0  0  0  0  0  0  0  0  0  0  # atno 10167 bound_to 10162
  156.2616  130.7213  151.1149 H   0  0  0  0  0  0  0  0  0  0  0  0  # atno 10718 bound_to 10713
  154.4125  135.6005  153.5961 H   0  0  0  0  0  0  0  0  0  0  0  0  # atno 10763 bound_to 10752
  152.9791  135.5933  154.4053 H   0  0  0  0  0  0  0  0  0  0  0  0  # atno 10764 bound_to 10752
  154.3867  135.2841  155.2157 H   0  0  0  0  0  0  0  0  0  0  0  0  # atno 10765 bound_to 10752
  139.9967  134.6507  155.9999 H   0  0  0  0  0  0  0  0  0  0  0  0  # atno 11005 bound_to 11000
  145.4976  141.0438  143.2558 LP  0  0  0  0  0  0  0  0  0  0  0  0  # atno 17320 bound_to 7965
  144.7827  139.6491  143.7147 LP  0  0  0  0  0  0  0  0  0  0  0  0  # atno 17321 bound_to 7965
  140.3598  143.2914  152.0396 LP  0  0  0  0  0  0  0  0  0  0  0  0  # atno 17342 bound_to 10162
  139.4874  144.6311  151.7067 LP  0  0  0  0  0  0  0  0  0  0  0  0  # atno 17343 bound_to 10162
  157.7252  131.0654  150.5961 LP  0  0  0  0  0  0  0  0  0  0  0  0  # atno 17370 bound_to 10713
  156.6049  130.4364  149.5882 LP  0  0  0  0  0  0  0  0  0  0  0  0  # atno 17371 bound_to 10713
  141.1609  133.6539  156.4317 LP  0  0  0  0  0  0  0  0  0  0  0  0  # atno 17394 bound_to 11000
  140.4806  134.6668  157.5169 LP  0  0  0  0  0  0  0  0  0  0  0  0  # atno 17395 bound_to 11000

$$$$
