AV-unprocessed.smi:402|AV-procd|sdf|2495|dock5
  -GOLD-   2262022443D 1   1.00000     0.00000
 Structure written by MMmdl.
 38 39  0  0  0  0  0  0  0  0  1 V2000
  151.6238  140.2624  154.5426 O   0  0  0  0  0  0  0  0  0  0  0  0
  150.6215  140.4524  155.2305 C   0  0  0  0  0  0  0  0  0  0  0  0
  149.2627  139.9265  154.7345 C   0  0  0  0  0  0  0  0  0  0  0  0
  148.1104  140.7974  155.0324 N   0  0  0  0  0  0  0  0  0  0  0  0
  147.4949  141.4381  153.9385 C   0  0  0  0  0  0  0  0  0  0  0  0
  146.4361  142.2484  154.0938 C   0  0  0  0  0  0  0  0  0  0  0  0
  145.9273  142.4583  155.4285 C   0  0  0  0  0  0  0  0  0  0  0  0
  146.5061  141.8479  156.4816 C   0  0  0  0  0  0  0  0  0  0  0  0
  147.6613  140.9582  156.3160 C   0  0  0  0  0  0  0  0  0  0  0  0
  148.1874  140.3858  157.2705 O   0  0  0  0  0  0  0  0  0  0  0  0
  150.6594  141.1065  156.4022 N   0  0  0  0  0  0  0  0  0  0  0  0
  151.8483  141.7073  156.9906 C   0  0  0  0  0  0  0  0  0  0  0  0
  151.4858  142.5837  158.2047 C   0  0  0  0  0  0  0  0  0  0  0  0
  151.3822  144.0824  157.8396 C   0  0  0  0  0  0  0  0  0  0  0  0
  151.0407  144.9452  159.0652 C   0  0  0  0  0  0  0  0  0  0  0  0
  152.0546  144.7307  160.1989 C   0  0  0  0  0  0  0  0  0  0  0  0
  152.1555  143.2450  160.5748 C   0  0  0  0  0  0  0  0  0  0  0  0
  152.5001  142.3834  159.3490 C   0  0  0  0  0  0  0  0  0  0  0  0
  149.3333  139.7520  153.6594 H   0  0  0  0  0  0  0  0  0  0  0  0
  149.1070  138.9375  155.1676 H   0  0  0  0  0  0  0  0  0  0  0  0
  147.9327  141.2240  152.9742 H   0  0  0  0  0  0  0  0  0  0  0  0
  145.9759  142.7287  153.2430 H   0  0  0  0  0  0  0  0  0  0  0  0
  145.0782  143.1078  155.5833 H   0  0  0  0  0  0  0  0  0  0  0  0
  146.1111  142.0162  157.4727 H   0  0  0  0  0  0  0  0  0  0  0  0
  149.7941  141.2191  156.9102 H   0  0  0  0  0  0  0  0  0  0  0  0
  152.5280  140.9085  157.2909 H   0  0  0  0  0  0  0  0  0  0  0  0
  152.3713  142.3075  156.2438 H   0  0  0  0  0  0  0  0  0  0  0  0
  150.5092  142.2592  158.5685 H   0  0  0  0  0  0  0  0  0  0  0  0
  152.3256  144.4210  157.4089 H   0  0  0  0  0  0  0  0  0  0  0  0
  150.6218  144.2395  157.0737 H   0  0  0  0  0  0  0  0  0  0  0  0
  151.0168  145.9981  158.7829 H   0  0  0  0  0  0  0  0  0  0  0  0
  150.0391  144.6972  159.4184 H   0  0  0  0  0  0  0  0  0  0  0  0
  153.0340  145.0968  159.8882 H   0  0  0  0  0  0  0  0  0  0  0  0
  151.7671  145.3174  161.0718 H   0  0  0  0  0  0  0  0  0  0  0  0
  152.9108  143.1085  161.3492 H   0  0  0  0  0  0  0  0  0  0  0  0
  151.2098  142.9108  161.0032 H   0  0  0  0  0  0  0  0  0  0  0  0
  152.5303  141.3330  159.6409 H   0  0  0  0  0  0  0  0  0  0  0  0
  153.5029  142.6343  159.0005 H   0  0  0  0  0  0  0  0  0  0  0  0
  1  2  2  0  0  0  0
  2  3  1  0  0  0  0
  2 11  1  0  0  0  0
  3  4  1  0  0  0  0
  3 19  1  0  0  0  0
  3 20  1  0  0  0  0
  4  9  1  0  0  0  0
  4  5  1  0  0  0  0
  5  6  2  0  0  0  0
  5 21  1  0  0  0  0
  6  7  1  0  0  0  0
  6 22  1  0  0  0  0
  7  8  2  0  0  0  0
  7 23  1  0  0  0  0
  8  9  1  0  0  0  0
  8 24  1  0  0  0  0
  9 10  2  0  0  0  0
 11 12  1  0  0  0  0
 11 25  1  0  0  0  0
 12 13  1  0  0  0  0
 12 26  1  0  0  0  0
 12 27  1  0  0  0  0
 13 18  1  0  0  0  0
 13 14  1  0  0  0  0
 13 28  1  0  0  0  0
 14 15  1  0  0  0  0
 14 29  1  0  0  0  0
 14 30  1  0  0  0  0
 15 16  1  0  0  0  0
 15 31  1  0  0  0  0
 15 32  1  0  0  0  0
 16 17  1  0  0  0  0
 16 33  1  0  0  0  0
 16 34  1  0  0  0  0
 17 18  1  0  0  0  0
 17 35  1  0  0  0  0
 17 36  1  0  0  0  0
 18 37  1  0  0  0  0
 18 38  1  0  0  0  0
M  END
> <s_m_source_file>
AV-unprocessed.smi

> <i_m_source_file_index>
402

> <i_lp_mmshare_version>
43012

> <i_f3d_flags>
0

> <s_epik_input>
W0NIMl0xW0NIMl1bQ0gyXVtDSDJdW0NIMl1bQ0hdMVtDSDJdW05IXUMoPU8pW0NIMl1uMltjSF1bY0hdW2NIXVtjSF1jMj1P

> <s_epik_cmdline>
J2VwaWtfcHl0aG9uJywgJy1waCcsICc3LjAnLCAnLXRuJywgJzgnLCAnLW1hJywgJzIwMCcsICctbWV0YWxfYmluZGluZycsICctaW1hZScsICc8aW5maWxlLm1hZT4nLCAnLW9tYWUnLCAnPG91dGZpbGUubWFlPic=

> <r_lp_tautomer_probability>
1

> <r_epik_Ionization_Penalty>
3.79717e-07

> <r_epik_Ionization_Penalty_Charging>
3.5992e-07

> <r_epik_Ionization_Penalty_Neutral>
1.97978e-08

> <r_epik_State_Penalty>
-0

> <r_epik_Charging_Adjusted_Penalty>
3.5992e-07

> <i_epik_Tot_Q>
0

> <i_epik_Tot_abs_Q>
0

> <r_epik_Metal_State_Penalty>
-0

> <b_epik_Metal_Only>
0

> <s_lp_Force_Field>
OPLS_2005

> <r_lp_Energy>
19.8269

> <b_lp_Chiralities_Consistent>
1

> <s_lp_Variant>
AV-unprocessed.smi:402-1

> <Gold.Version>
5.8.1

> <Gold.Id.Protein>
6NUR|6NUR_protein|mol2

> <Gold.PLP.Fitness>
43.5988

> <Gold.PLP.PLP>
-39.6137

> <Gold.PLP.part.hbond>
-1.0000

> <Gold.PLP.part.metal>
0.0000

> <Gold.PLP.part.buried>
-6.9484

> <Gold.PLP.part.nonpolar>
-31.2475

> <Gold.PLP.part.repulsive>
0.1530

> <Gold.PLP.ligand.clash>
0.0000

> <Gold.PLP.ligand.torsion>
1.0145

> <Gold.PLP.Chemscore.Hbond>
1.0000

> <Gold.PLP.Chemscore.CHOScore>
1.0000

> <Gold.PLP.Chemscore.Metal>
0.0000

> <Gold.Chemscore.Hbonds>
donor molecule, donor type, donor heavy atom, donor atom, acceptor molecule, acceptor atom, score
      P1  H  7989  7998       L1     1  0.18
      L1  C     5    21       P1  7957  0.52

> <Gold.PLP.Chemscore.Internal.Correction>
0.0140

> <Gold.Rescore>
     Score         DG    S(hbond)    S(metal)    S(lipo)     H(rot)  DE(clash)    DE(int)     intcor
     14.96     -16.15       0.88        0.00     100.51       1.57       0.27       0.93       ----

> <Gold.Chemscore.Fitness>
14.9617

> <Gold.Chemscore.DG>
-16.1530

> <Gold.Chemscore.ZeroCoef>
-5.4800

> <Gold.Chemscore.Hbond>
0.8792

> <Gold.Chemscore.Metal>
0.0000

> <Gold.Chemscore.Lipo>
100.5099

> <Gold.Chemscore.Internal_Hbond>
0.0000

> <Gold.Chemscore.DEClash>
0.2656

> <Gold.Chemscore.DEInternal>
0.9257

> <Gold.Chemscore.Rot>
1.5715

> <Gold.Chemscore.Internal.Correction>
   9.000000E+99

> <Gold.Chemscore.Hbonds>
donor molecule, donor type, donor heavy atom, donor atom, acceptor molecule, acceptor atom, score
      P1  H  7989  7998       L1     1  0.17

> <Gold.Chemscore.Hbond.Weighted>
-2.9364

> <Gold.Chemscore.Metal.Weighted>
-0.0000

> <Gold.Chemscore.Lipo.Weighted>
-11.7597

> <Gold.Chemscore.Internal_Hbond.Weighted>
0.0000

> <Gold.Chemscore.DEClash.Weighted>
0.2656

> <Gold.Chemscore.DEInternal.Weighted>
0.9257

> <Gold.Chemscore.Rot.Weighted>
4.0231

> <Gold.Chemscore.Internal.Correction.Weighted>
   9.000000E+99

> <Gold.Protein.RotatedTorsions>
[ 6907 6896 6895 6894 ] final  -56.78 input  -60.11 | X-H torsion
[ 7974 7965 7964 7962 ] final  112.51 input  175.53 | X-H torsion
[ 8008 7997 7996 7995 ] final -136.05 input   59.86 | X-H torsion
[ 10167 10162 10161 10158 ] final  -61.10 input  -65.29 | X-H torsion
[ 10718 10713 10712 10709 ] final   23.93 input   66.30 | X-H torsion
[ 10763 10752 10751 10750 ] final  -66.30 input  -60.55 | X-H torsion
[ 11005 11000 10999 10996 ] final  -53.04 input  -57.11 | X-H torsion

> <Gold.Protein.ActiveResidues>
 VAL166  LYS551  ARG553  GLY616  TRP617  ASP618  TYR619  PRO620  LYS621  CYS622 
 ASP623  PHE694  ASN695  SER759  ASP760  ASP761  ALA762  ILE779  LEU786  VAL792 
 PHE793  MET794  SER795  GLU796  ALA797  LYS798  CYS799  TRP800  GLU811  SER814 

> <Gold.Protein.RotatedAtoms>
  150.8139  134.7310  159.6712 H   0  0  0  0  0  0  0  0  0  0  0  0  # atno 6907 bound_to 6896
  152.4258  134.5867  159.9972 H   0  0  0  0  0  0  0  0  0  0  0  0  # atno 6908 bound_to 6896
  151.6069  133.3313  159.3095 H   0  0  0  0  0  0  0  0  0  0  0  0  # atno 6909 bound_to 6896
  145.2287  139.2829  143.4180 H   0  0  0  0  0  0  0  0  0  0  0  0  # atno 7974 bound_to 7965
  155.3889  140.0498  157.3041 H   0  0  0  0  0  0  0  0  0  0  0  0  # atno 8008 bound_to 7997
  154.5046  140.2169  155.9239 H   0  0  0  0  0  0  0  0  0  0  0  0  # atno 8009 bound_to 7997
  156.1509  140.3136  155.8652 H   0  0  0  0  0  0  0  0  0  0  0  0  # atno 8010 bound_to 7997
  140.6028  143.2365  151.5890 H   0  0  0  0  0  0  0  0  0  0  0  0  # atno 10167 bound_to 10162
  157.1728  130.6767  149.6084 H   0  0  0  0  0  0  0  0  0  0  0  0  # atno 10718 bound_to 10713
  154.3578  135.6122  153.5675 H   0  0  0  0  0  0  0  0  0  0  0  0  # atno 10763 bound_to 10752
  152.9795  135.5808  154.4668 H   0  0  0  0  0  0  0  0  0  0  0  0  # atno 10764 bound_to 10752
  154.4400  135.2850  155.1831 H   0  0  0  0  0  0  0  0  0  0  0  0  # atno 10765 bound_to 10752
  141.0955  133.6625  156.4113 H   0  0  0  0  0  0  0  0  0  0  0  0  # atno 11005 bound_to 11000
  146.3358  140.2615  142.8602 LP  0  0  0  0  0  0  0  0  0  0  0  0  # atno 17320 bound_to 7965
  144.9697  140.8356  143.5463 LP  0  0  0  0  0  0  0  0  0  0  0  0  # atno 17321 bound_to 7965
  139.5303  144.2936  152.1132 LP  0  0  0  0  0  0  0  0  0  0  0  0  # atno 17342 bound_to 10162
  140.2120  144.4553  150.6381 LP  0  0  0  0  0  0  0  0  0  0  0  0  # atno 17343 bound_to 10162
  155.9736  130.4673  150.6320 LP  0  0  0  0  0  0  0  0  0  0  0  0  # atno 17370 bound_to 10713
  157.4027  131.0812  151.1294 LP  0  0  0  0  0  0  0  0  0  0  0  0  # atno 17371 bound_to 10713
  140.5149  134.6359  157.5298 LP  0  0  0  0  0  0  0  0  0  0  0  0  # atno 17394 bound_to 11000
  139.9791  134.7166  155.9893 LP  0  0  0  0  0  0  0  0  0  0  0  0  # atno 17395 bound_to 11000

$$$$
