AV-unprocessed.smi:3324|AV-procd|sdf|12783|dock6
  -GOLD-   2272019133D 1   1.00000     0.00000
 Structure written by MMmdl.
 30 30  0  0  0  0  0  0  0  0  3 V2000
  149.2522  141.3739  154.0026 O   0  0  0  0  0  0  0  0  0  0  0  0
  149.7690  140.9974  155.0591 C   0  0  0  0  0  0  0  0  0  0  0  0
  149.0639  141.3360  156.3738 C   0  0  0  0  0  0  0  0  0  0  0  0
  149.7031  142.5195  156.9807 N   0  3  0  0  0  0  0  0  0  0  0  0
  150.7753  142.1999  157.9408 C   0  0  0  0  0  0  0  0  0  0  0  0
  151.2115  143.4512  158.7150 C   0  0  0  0  0  0  0  0  0  0  0  0
  151.8667  143.1066  159.9616 N   0  0  0  0  0  0  0  0  0  0  0  0
  152.8362  142.1522  160.1871 C   0  0  0  0  0  0  0  0  0  0  0  0
  153.1483  142.1971  161.5157 C   0  0  0  0  0  0  0  0  0  0  0  0
  152.3051  143.2233  162.0268 C   0  0  0  0  0  0  0  0  0  0  0  0
  151.5400  143.7666  161.0933 N   0  0  0  0  0  0  0  0  0  0  0  0
  150.9156  140.3007  155.2874 N   0  5  0  0  0  0  0  0  0  0  0  0
  151.0510  139.2891  156.3364 C   0  0  0  0  0  0  0  0  0  0  0  0
  151.5007  137.9416  155.7408 C   0  0  0  0  0  0  0  0  0  0  0  0
  150.6423  137.5740  154.7897 F   0  0  0  0  0  0  0  0  0  0  0  0
  152.7145  138.0486  155.1975 F   0  0  0  0  0  0  0  0  0  0  0  0
  151.5226  136.9950  156.6806 F   0  0  0  0  0  0  0  0  0  0  0  0
  148.0088  141.5418  156.1878 H   0  0  0  0  0  0  0  0  0  0  0  0
  149.1154  140.4860  157.0565 H   0  0  0  0  0  0  0  0  0  0  0  0
  150.0859  143.0766  156.2295 H   0  0  0  0  0  0  0  0  0  0  0  0
  150.4192  141.4366  158.6341 H   0  0  0  0  0  0  0  0  0  0  0  0
  151.6235  141.7767  157.4009 H   0  0  0  0  0  0  0  0  0  0  0  0
  151.8960  144.0541  158.1159 H   0  0  0  0  0  0  0  0  0  0  0  0
  150.3490  144.0802  158.9396 H   0  0  0  0  0  0  0  0  0  0  0  0
  153.2200  141.5281  159.3933 H   0  0  0  0  0  0  0  0  0  0  0  0
  153.8690  141.5893  162.0429 H   0  0  0  0  0  0  0  0  0  0  0  0
  152.2273  143.5874  163.0405 H   0  0  0  0  0  0  0  0  0  0  0  0
  151.7715  139.5962  157.0959 H   0  0  0  0  0  0  0  0  0  0  0  0
  150.1085  139.1428  156.8661 H   0  0  0  0  0  0  0  0  0  0  0  0
  148.9889  143.0585  157.4481 H   0  0  0  0  0  0  0  0  0  0  0  0
  1  2  2  0  0  0  0
  2  3  1  0  0  0  0
  2 12  1  0  0  0  0
  3  4  1  0  0  0  0
  3 18  1  0  0  0  0
  3 19  1  0  0  0  0
  4  5  1  0  0  0  0
  4 20  1  0  0  0  0
  4 30  1  0  0  0  0
  5  6  1  0  0  0  0
  5 21  1  0  0  0  0
  5 22  1  0  0  0  0
  6  7  1  0  0  0  0
  6 23  1  0  0  0  0
  6 24  1  0  0  0  0
  7 11  1  0  0  0  0
  7  8  1  0  0  0  0
  8  9  2  0  0  0  0
  8 25  1  0  0  0  0
  9 10  1  0  0  0  0
  9 26  1  0  0  0  0
 10 11  2  0  0  0  0
 10 27  1  0  0  0  0
 12 13  1  0  0  0  0
 13 14  1  0  0  0  0
 13 28  1  0  0  0  0
 13 29  1  0  0  0  0
 14 15  1  0  0  0  0
 14 16  1  0  0  0  0
 14 17  1  0  0  0  0
M  CHG  1   4   1
M  CHG  1  12  -1
M  END
> <s_m_source_file>
AV-unprocessed.smi

> <i_m_source_file_index>
3324

> <i_lp_mmshare_version>
43012

> <i_f3d_flags>
0

> <s_epik_input>
RkMoRikoRilbQ0gyXVtOSF1DKD1PKVtDSDJdW05IXVtDSDJdW0NIMl1uMVtjSF1bY0hdW2NIXW4x

> <s_epik_cmdline>
J2VwaWtfcHl0aG9uJywgJy1waCcsICc3LjAnLCAnLXRuJywgJzgnLCAnLW1hJywgJzIwMCcsICctbWV0YWxfYmluZGluZycsICctaW1hZScsICc8aW5maWxlLm1hZT4nLCAnLW9tYWUnLCAnPG91dGZpbGUubWFlPic=

> <r_lp_tautomer_probability>
1

> <r_epik_Ionization_Penalty>
6.17309

> <r_epik_Ionization_Penalty_Charging>
6.17309

> <r_epik_Ionization_Penalty_Neutral>
2.40201e-06

> <r_epik_State_Penalty>
6.46579

> <r_epik_Charging_Adjusted_Penalty>
12.6389

> <i_epik_Tot_Q>
0

> <i_epik_Tot_abs_Q>
2

> <r_epik_Metal_State_Penalty>
2.40143

> <b_epik_Metal_Only>
1

> <s_lp_Force_Field>
OPLS_2005

> <r_lp_Energy>
2.56422

> <b_lp_Chiralities_Consistent>
1

> <s_lp_Variant>
AV-unprocessed.smi:3324-3

> <Gold.Version>
5.8.1

> <Gold.Id.Protein>
6NUR|6NUR_protein|mol2

> <Gold.PLP.Fitness>
47.4243

> <Gold.PLP.PLP>
-41.2327

> <Gold.PLP.part.hbond>
-3.7793

> <Gold.PLP.part.metal>
0.0000

> <Gold.PLP.part.buried>
-4.1970

> <Gold.PLP.part.nonpolar>
-33.2376

> <Gold.PLP.part.repulsive>
0.4047

> <Gold.PLP.ligand.clash>
0.0000

> <Gold.PLP.ligand.torsion>
1.1238

> <Gold.PLP.Chemscore.Hbond>
2.7840

> <Gold.PLP.Chemscore.CHOScore>
0.0000

> <Gold.PLP.Chemscore.Metal>
0.0000

> <Gold.Chemscore.Hbonds>
donor molecule, donor type, donor heavy atom, donor atom, acceptor molecule, acceptor atom, score
      L1  H     4    20       P1  8028  0.46
      P1  H  7989  7998       L1    12  0.50
      P1  H  8011  8017       L1     1  0.73

> <Gold.PLP.Chemscore.Internal.Correction>
0.0872

> <Gold.Rescore>
     Score         DG    S(hbond)    S(metal)    S(lipo)     H(rot)  DE(clash)    DE(int)     intcor
     11.89     -13.18       2.00        0.00      70.89       2.83       0.12       1.17       ----

> <Gold.Chemscore.Fitness>
11.8931

> <Gold.Chemscore.DG>
-13.1838

> <Gold.Chemscore.ZeroCoef>
-5.4800

> <Gold.Chemscore.Hbond>
1.9956

> <Gold.Chemscore.Metal>
0.0000

> <Gold.Chemscore.Lipo>
70.8880

> <Gold.Chemscore.Internal_Hbond>
0.0000

> <Gold.Chemscore.DEClash>
0.1187

> <Gold.Chemscore.DEInternal>
1.1720

> <Gold.Chemscore.Rot>
2.8342

> <Gold.Chemscore.Internal.Correction>
   9.000000E+99

> <Gold.Chemscore.Hbonds>
donor molecule, donor type, donor heavy atom, donor atom, acceptor molecule, acceptor atom, score
      L1  H     4    20       P1  8028  0.24
      P1  H  7989  7998       L1    12  0.02
      P1  H  8011  8017       L1     1  0.68

> <Gold.Chemscore.Hbond.Weighted>
-6.6654

> <Gold.Chemscore.Metal.Weighted>
-0.0000

> <Gold.Chemscore.Lipo.Weighted>
-8.2939

> <Gold.Chemscore.Internal_Hbond.Weighted>
0.0000

> <Gold.Chemscore.DEClash.Weighted>
0.1187

> <Gold.Chemscore.DEInternal.Weighted>
1.1720

> <Gold.Chemscore.Rot.Weighted>
7.2555

> <Gold.Chemscore.Internal.Correction.Weighted>
   9.000000E+99

> <Gold.Protein.RotatedTorsions>
[ 6907 6896 6895 6894 ] final -148.92 input  -60.11 | X-H torsion
[ 7974 7965 7964 7962 ] final   79.68 input  175.53 | X-H torsion
[ 8008 7997 7996 7995 ] final -159.55 input   59.86 | X-H torsion
[ 10167 10162 10161 10158 ] final  -86.71 input  -65.29 | X-H torsion
[ 10718 10713 10712 10709 ] final -121.37 input   66.30 | X-H torsion
[ 10763 10752 10751 10750 ] final -149.53 input  -60.55 | X-H torsion
[ 11005 11000 10999 10996 ] final   81.72 input  -57.11 | X-H torsion

> <Gold.Protein.ActiveResidues>
 VAL166  LYS551  ARG553  GLY616  TRP617  ASP618  TYR619  PRO620  LYS621  CYS622 
 ASP623  PHE694  ASN695  SER759  ASP760  ASP761  ALA762  ILE779  LEU786  VAL792 
 PHE793  MET794  SER795  GLU796  ALA797  LYS798  CYS799  TRP800  GLU811  SER814 

> <Gold.Protein.RotatedAtoms>
  151.1767  133.4750  159.2593 H   0  0  0  0  0  0  0  0  0  0  0  0  # atno 6907 bound_to 6896
  151.1300  135.0125  159.8588 H   0  0  0  0  0  0  0  0  0  0  0  0  # atno 6908 bound_to 6896
  152.5459  134.1671  159.8634 H   0  0  0  0  0  0  0  0  0  0  0  0  # atno 6909 bound_to 6896
  145.6610  139.2471  143.1922 H   0  0  0  0  0  0  0  0  0  0  0  0  # atno 7974 bound_to 7965
  155.7642  140.0843  157.2140 H   0  0  0  0  0  0  0  0  0  0  0  0  # atno 8008 bound_to 7997
  154.4001  140.1537  156.2924 H   0  0  0  0  0  0  0  0  0  0  0  0  # atno 8009 bound_to 7997
  155.8810  140.3420  155.5890 H   0  0  0  0  0  0  0  0  0  0  0  0  # atno 8010 bound_to 7997
  140.3915  143.2703  151.9258 H   0  0  0  0  0  0  0  0  0  0  0  0  # atno 10167 bound_to 10162
  156.1332  130.6411  150.9654 H   0  0  0  0  0  0  0  0  0  0  0  0  # atno 10718 bound_to 10713
  154.8172  135.3307  154.7142 H   0  0  0  0  0  0  0  0  0  0  0  0  # atno 10763 bound_to 10752
  153.7781  135.6920  153.4898 H   0  0  0  0  0  0  0  0  0  0  0  0  # atno 10764 bound_to 10752
  153.1999  135.4520  155.0201 H   0  0  0  0  0  0  0  0  0  0  0  0  # atno 10765 bound_to 10752
  139.9088  134.8018  156.2079 H   0  0  0  0  0  0  0  0  0  0  0  0  # atno 11005 bound_to 11000
  146.1125  140.7411  142.9496 LP  0  0  0  0  0  0  0  0  0  0  0  0  # atno 17320 bound_to 7965
  144.7089  140.3962  143.7096 LP  0  0  0  0  0  0  0  0  0  0  0  0  # atno 17321 bound_to 7965
  139.4789  144.5723  151.8069 LP  0  0  0  0  0  0  0  0  0  0  0  0  # atno 17342 bound_to 10162
  140.4835  144.1415  150.5937 LP  0  0  0  0  0  0  0  0  0  0  0  0  # atno 17343 bound_to 10162
  157.6507  131.0897  150.8056 LP  0  0  0  0  0  0  0  0  0  0  0  0  # atno 17370 bound_to 10713
  156.8139  130.4961  149.5352 LP  0  0  0  0  0  0  0  0  0  0  0  0  # atno 17371 bound_to 10713
  141.0484  133.6901  156.1726 LP  0  0  0  0  0  0  0  0  0  0  0  0  # atno 17394 bound_to 11000
  140.6848  134.4728  157.5589 LP  0  0  0  0  0  0  0  0  0  0  0  0  # atno 17395 bound_to 11000

$$$$
