AV-unprocessed.smi:249|AV-procd|sdf|1902|dock8
  -GOLD-   2262020583D 1   1.00000     0.00000
 Structure written by MMmdl.
 64 67  0  0  0  0  0  0  0  0  2 V2000
  151.4358  144.0690  159.9218 C   0  0  0  0  0  0  0  0  0  0  0  0
  150.1485  144.4659  159.1807 C   0  0  0  0  0  0  0  0  0  0  0  0
  149.8435  143.5943  158.0086 N   0  3  2  0  0  0  0  0  0  0  0  0
  148.7789  142.5982  158.3234 C   0  0  0  0  0  0  0  0  0  0  0  0
  148.3654  141.7819  157.0918 C   0  0  0  0  0  0  0  0  0  0  0  0
  149.5797  141.0553  156.4919 C   0  0  1  0  0  0  0  0  0  0  0  0
  149.2392  140.1830  155.3599 N   0  0  0  0  0  0  0  0  0  0  0  0
  148.7386  140.8264  154.1504 C   0  0  0  0  0  0  0  0  0  0  0  0
  150.0542  139.1291  155.1147 C   0  0  0  0  0  0  0  0  0  0  0  0
  151.3339  139.3428  154.7096 N   0  0  0  0  0  0  0  0  0  0  0  0
  152.1413  138.3052  154.4680 C   0  0  0  0  0  0  0  0  0  0  0  0
  151.8756  137.0005  154.5642 N   0  0  0  0  0  0  0  0  0  0  0  0
  150.5886  136.7854  154.9611 C   0  0  0  0  0  0  0  0  0  0  0  0
  149.6191  137.7841  155.2545 C   0  0  0  0  0  0  0  0  0  0  0  0
  148.4189  137.1898  155.6240 N   0  0  0  0  0  0  0  0  0  0  0  0
  148.6643  135.9093  155.5508 C   0  0  0  0  0  0  0  0  0  0  0  0
  149.9445  135.5792  155.1660 N   0  0  0  0  0  0  0  0  0  0  0  0
  150.4902  134.2437  155.0019 C   0  0  0  0  0  0  0  0  0  0  0  0
  149.4147  133.1322  155.0799 C   0  0  1  0  0  0  0  0  0  0  0  0
  148.7272  132.8731  153.7175 C   0  0  0  0  0  0  0  0  0  0  0  0
  148.0039  134.0053  153.2800 O   0  0  0  0  0  0  0  0  0  0  0  0
  149.9835  131.8380  155.7144 C   0  0  2  0  0  0  0  0  0  0  0  0
  151.0796  131.1571  154.9133 C   0  0  0  0  0  0  0  0  0  0  0  0
  151.0816  129.7522  155.5043 C   0  0  0  0  0  0  0  0  0  0  0  0
  149.7281  129.4833  155.8497 O   0  0  0  0  0  0  0  0  0  0  0  0
  148.9729  130.6911  155.8344 C   0  0  0  0  0  0  0  0  0  0  0  0
  150.6606  142.1021  156.1687 C   0  0  0  0  0  0  0  0  0  0  0  0
  151.0504  142.9346  157.4095 C   0  0  1  0  0  0  0  0  0  0  0  0
  152.1546  143.9326  157.0022 C   0  0  0  0  0  0  0  0  0  0  0  0
  151.5273  144.6324  160.8507 H   0  0  0  0  0  0  0  0  0  0  0  0
  152.3338  144.2767  159.3411 H   0  0  0  0  0  0  0  0  0  0  0  0
  151.4325  143.0096  160.1801 H   0  0  0  0  0  0  0  0  0  0  0  0
  149.3537  144.4006  159.9198 H   0  0  0  0  0  0  0  0  0  0  0  0
  150.1954  145.5096  158.8665 H   0  0  0  0  0  0  0  0  0  0  0  0
  149.1268  141.9310  159.1138 H   0  0  0  0  0  0  0  0  0  0  0  0
  147.8863  143.0934  158.7014 H   0  0  0  0  0  0  0  0  0  0  0  0
  147.5945  141.0666  157.3787 H   0  0  0  0  0  0  0  0  0  0  0  0
  147.9142  142.4480  156.3556 H   0  0  0  0  0  0  0  0  0  0  0  0
  149.9870  140.3975  157.2613 H   0  0  0  0  0  0  0  0  0  0  0  0
  148.3198  140.0871  153.4664 H   0  0  0  0  0  0  0  0  0  0  0  0
  149.5295  141.3656  153.6283 H   0  0  0  0  0  0  0  0  0  0  0  0
  147.9489  141.5365  154.3965 H   0  0  0  0  0  0  0  0  0  0  0  0
  153.1431  138.5555  154.1509 H   0  0  0  0  0  0  0  0  0  0  0  0
  147.9158  135.1651  155.7821 H   0  0  0  0  0  0  0  0  0  0  0  0
  151.0139  134.1982  154.0462 H   0  0  0  0  0  0  0  0  0  0  0  0
  151.2473  134.1016  155.7733 H   0  0  0  0  0  0  0  0  0  0  0  0
  148.6329  133.4957  155.7485 H   0  0  0  0  0  0  0  0  0  0  0  0
  149.4605  132.6103  152.9556 H   0  0  0  0  0  0  0  0  0  0  0  0
  148.0456  132.0246  153.7790 H   0  0  0  0  0  0  0  0  0  0  0  0
  148.6166  134.6446  152.9492 H   0  0  0  0  0  0  0  0  0  0  0  0
  150.3732  132.0590  156.7095 H   0  0  0  0  0  0  0  0  0  0  0  0
  150.8135  131.1181  153.8560 H   0  0  0  0  0  0  0  0  0  0  0  0
  152.0492  131.6472  155.0055 H   0  0  0  0  0  0  0  0  0  0  0  0
  151.4746  129.0070  154.8128 H   0  0  0  0  0  0  0  0  0  0  0  0
  151.6838  129.7240  156.4130 H   0  0  0  0  0  0  0  0  0  0  0  0
  148.3537  130.7746  156.7280 H   0  0  0  0  0  0  0  0  0  0  0  0
  148.3103  130.6645  154.9681 H   0  0  0  0  0  0  0  0  0  0  0  0
  151.5437  141.5957  155.7774 H   0  0  0  0  0  0  0  0  0  0  0  0
  150.3147  142.7764  155.3838 H   0  0  0  0  0  0  0  0  0  0  0  0
  151.4679  142.2576  158.1567 H   0  0  0  0  0  0  0  0  0  0  0  0
  152.9375  143.4331  156.4305 H   0  0  0  0  0  0  0  0  0  0  0  0
  152.6526  144.3780  157.8627 H   0  0  0  0  0  0  0  0  0  0  0  0
  151.7579  144.7356  156.3800 H   0  0  0  0  0  0  0  0  0  0  0  0
  149.4698  144.2010  157.2927 H   0  0  0  0  0  0  0  0  0  0  0  0
  1  2  1  0  0  0  0
  1 30  1  0  0  0  0
  1 31  1  0  0  0  0
  1 32  1  0  0  0  0
  2  3  1  0  0  0  0
  2 33  1  0  0  0  0
  2 34  1  0  0  0  0
  3 28  1  0  0  0  0
  3  4  1  0  0  0  0
  3 64  1  0  0  0  0
  4  5  1  0  0  0  0
  4 35  1  0  0  0  0
  4 36  1  0  0  0  0
  5  6  1  0  0  0  0
  5 37  1  0  0  0  0
  5 38  1  0  0  0  0
  6  7  1  0  0  0  0
  6 27  1  0  0  0  0
  6 39  1  0  0  0  0
  7  8  1  0  0  0  0
  7  9  1  0  0  0  0
  8 40  1  0  0  0  0
  8 41  1  0  0  0  0
  8 42  1  0  0  0  0
  9 14  1  0  0  0  0
  9 10  2  0  0  0  0
 10 11  1  0  0  0  0
 11 12  2  0  0  0  0
 11 43  1  0  0  0  0
 12 13  1  0  0  0  0
 13 17  1  0  0  0  0
 13 14  2  0  0  0  0
 14 15  1  0  0  0  0
 15 16  2  0  0  0  0
 16 17  1  0  0  0  0
 16 44  1  0  0  0  0
 17 18  1  0  0  0  0
 18 19  1  0  0  0  0
 18 45  1  0  0  0  0
 18 46  1  0  0  0  0
 19 20  1  0  0  0  0
 19 22  1  0  0  0  0
 19 47  1  0  0  0  0
 20 21  1  0  0  0  0
 20 48  1  0  0  0  0
 20 49  1  0  0  0  0
 21 50  1  0  0  0  0
 22 26  1  0  0  0  0
 22 23  1  0  0  0  0
 22 51  1  0  0  0  0
 23 24  1  0  0  0  0
 23 52  1  0  0  0  0
 23 53  1  0  0  0  0
 24 25  1  0  0  0  0
 24 54  1  0  0  0  0
 24 55  1  0  0  0  0
 25 26  1  0  0  0  0
 26 56  1  0  0  0  0
 26 57  1  0  0  0  0
 27 28  1  0  0  0  0
 27 58  1  0  0  0  0
 27 59  1  0  0  0  0
 28 29  1  0  0  0  0
 28 60  1  0  0  0  0
 29 61  1  0  0  0  0
 29 62  1  0  0  0  0
 29 63  1  0  0  0  0
M  CHG  1   3   1
M  END
> <s_m_source_file>
AV-unprocessed.smi

> <i_m_source_file_index>
249

> <i_lp_mmshare_version>
43012

> <i_f3d_flags>
0

> <s_epik_input>
W0NIM11bQ0gyXU4xW0NIMl1bQ0gyXVtDQEhdKFtDSDJdW0NASF0xW0NIM10pTihbQ0gzXSljKG5bY0hdbjIpYyhjMjMpbltjSF1uM1tDSDJdW0NASF0oW0NIMl1bT0hdKVtDQEBIXTRbQ0gyXVtDSDJdT1tDSDJdNA==

> <s_epik_cmdline>
J2VwaWtfcHl0aG9uJywgJy1waCcsICc3LjAnLCAnLXRuJywgJzgnLCAnLW1hJywgJzIwMCcsICctbWV0YWxfYmluZGluZycsICctaW1hZScsICc8aW5maWxlLm1hZT4nLCAnLW9tYWUnLCAnPG91dGZpbGUubWFlPic=

> <r_lp_tautomer_probability>
1

> <r_epik_Ionization_Penalty>
0.00294688

> <r_epik_Ionization_Penalty_Charging>
0.00169971

> <r_epik_Ionization_Penalty_Neutral>
0.00124717

> <r_epik_State_Penalty>
-0

> <r_epik_Charging_Adjusted_Penalty>
0.00169971

> <i_epik_Tot_Q>
1

> <i_epik_Tot_abs_Q>
1

> <r_epik_Metal_State_Penalty>
-0

> <b_epik_Metal_Only>
0

> <s_lp_Force_Field>
OPLS_2005

> <r_lp_Energy>
53.6229

> <b_lp_Chiralities_Consistent>
1

> <s_lp_Variant>
AV-unprocessed.smi:249-5

> <Gold.Version>
5.8.1

> <Gold.Id.Protein>
6NUR|6NUR_protein|mol2

> <Gold.PLP.Fitness>
56.4645

> <Gold.PLP.PLP>
-43.6653

> <Gold.PLP.part.hbond>
-4.5580

> <Gold.PLP.part.metal>
0.0000

> <Gold.PLP.part.buried>
-7.0623

> <Gold.PLP.part.nonpolar>
-32.6075

> <Gold.PLP.part.repulsive>
0.3801

> <Gold.PLP.ligand.clash>
0.0000

> <Gold.PLP.ligand.torsion>
1.5491

> <Gold.PLP.Chemscore.Hbond>
5.0000

> <Gold.PLP.Chemscore.CHOScore>
0.0000

> <Gold.PLP.Chemscore.Metal>
0.0000

> <Gold.Chemscore.Hbonds>
donor molecule, donor type, donor heavy atom, donor atom, acceptor molecule, acceptor atom, score
      L1  H     3    64       P1  8028  1.90
      L1  H    21    50       P1  7948  0.94
      P1  H  7989  7998       L1    10  1.00
      P1  H 10752 10765       L1    12  1.00

> <Gold.PLP.Chemscore.Internal.Correction>
0.8973

> <Gold.Rescore>
     Score         DG    S(hbond)    S(metal)    S(lipo)     H(rot)  DE(clash)    DE(int)     intcor
     17.58     -21.79       3.15        0.00     112.99       2.90       2.83       1.38       ----

> <Gold.Chemscore.Fitness>
17.5778

> <Gold.Chemscore.DG>
-21.7896

> <Gold.Chemscore.ZeroCoef>
-5.4800

> <Gold.Chemscore.Hbond>
3.1485

> <Gold.Chemscore.Metal>
0.0000

> <Gold.Chemscore.Lipo>
112.9860

> <Gold.Chemscore.Internal_Hbond>
0.0000

> <Gold.Chemscore.DEClash>
2.8275

> <Gold.Chemscore.DEInternal>
1.3844

> <Gold.Chemscore.Rot>
2.9006

> <Gold.Chemscore.Internal.Correction>
   9.000000E+99

> <Gold.Chemscore.Hbonds>
donor molecule, donor type, donor heavy atom, donor atom, acceptor molecule, acceptor atom, score
      L1  H     3    64       P1  8028  0.21
      L1  H    21    50       P1  7948  0.20
      P1  H  7989  7998       L1    10  0.79
      P1  H 10752 10765       L1    12  0.90

> <Gold.Chemscore.Hbond.Weighted>
-10.5159

> <Gold.Chemscore.Metal.Weighted>
-0.0000

> <Gold.Chemscore.Lipo.Weighted>
-13.2194

> <Gold.Chemscore.Internal_Hbond.Weighted>
0.0000

> <Gold.Chemscore.DEClash.Weighted>
2.8275

> <Gold.Chemscore.DEInternal.Weighted>
1.3844

> <Gold.Chemscore.Rot.Weighted>
7.4256

> <Gold.Chemscore.Internal.Correction.Weighted>
   9.000000E+99

> <Gold.Protein.RotatedTorsions>
[ 6907 6896 6895 6894 ] final  146.67 input  -60.11 | X-H torsion
[ 7974 7965 7964 7962 ] final  -72.76 input  175.53 | X-H torsion
[ 8008 7997 7996 7995 ] final    9.35 input   59.86 | X-H torsion
[ 10167 10162 10161 10158 ] final   30.55 input  -65.29 | X-H torsion
[ 10718 10713 10712 10709 ] final  -44.58 input   66.30 | X-H torsion
[ 10763 10752 10751 10750 ] final  177.03 input  -60.55 | X-H torsion
[ 11005 11000 10999 10996 ] final   82.55 input  -57.11 | X-H torsion

> <Gold.Protein.ActiveResidues>
 VAL166  LYS551  ARG553  GLY616  TRP617  ASP618  TYR619  PRO620  LYS621  CYS622 
 ASP623  PHE694  ASN695  SER759  ASP760  ASP761  ALA762  ILE779  LEU786  VAL792 
 PHE793  MET794  SER795  GLU796  ALA797  LYS798  CYS799  TRP800  GLU811  SER814 

> <Gold.Protein.RotatedAtoms>
  152.1648  133.4605  159.4878 H   0  0  0  0  0  0  0  0  0  0  0  0  # atno 6907 bound_to 6896
  150.6911  134.2026  159.4337 H   0  0  0  0  0  0  0  0  0  0  0  0  # atno 6908 bound_to 6896
  151.9930  134.9968  160.0613 H   0  0  0  0  0  0  0  0  0  0  0  0  # atno 6909 bound_to 6896
  145.6610  140.9252  143.0934 H   0  0  0  0  0  0  0  0  0  0  0  0  # atno 7974 bound_to 7965
  154.7788  140.2815  155.6080 H   0  0  0  0  0  0  0  0  0  0  0  0  # atno 8008 bound_to 7997
  156.2946  140.2627  156.2537 H   0  0  0  0  0  0  0  0  0  0  0  0  # atno 8009 bound_to 7997
  154.9809  140.0375  157.2267 H   0  0  0  0  0  0  0  0  0  0  0  0  # atno 8010 bound_to 7997
  140.4668  144.0823  150.6226 H   0  0  0  0  0  0  0  0  0  0  0  0  # atno 10167 bound_to 10162
  156.2371  130.4177  149.8804 H   0  0  0  0  0  0  0  0  0  0  0  0  # atno 10718 bound_to 10713
  154.4891  135.2778  155.1511 H   0  0  0  0  0  0  0  0  0  0  0  0  # atno 10763 bound_to 10752
  154.3190  135.6213  153.5503 H   0  0  0  0  0  0  0  0  0  0  0  0  # atno 10764 bound_to 10752
  152.9885  135.5738  154.5308 H   0  0  0  0  0  0  0  0  0  0  0  0  # atno 10765 bound_to 10752
  139.9060  134.8079  156.2190 H   0  0  0  0  0  0  0  0  0  0  0  0  # atno 11005 bound_to 11000
  144.7089  139.8449  143.7421 LP  0  0  0  0  0  0  0  0  0  0  0  0  # atno 17320 bound_to 7965
  146.1125  139.4132  143.0279 LP  0  0  0  0  0  0  0  0  0  0  0  0  # atno 17321 bound_to 7965
  140.4026  143.2696  151.9929 LP  0  0  0  0  0  0  0  0  0  0  0  0  # atno 17342 bound_to 10162
  139.4813  144.5984  151.7649 LP  0  0  0  0  0  0  0  0  0  0  0  0  # atno 17343 bound_to 10162
  156.6399  130.8700  151.3512 LP  0  0  0  0  0  0  0  0  0  0  0  0  # atno 17370 bound_to 10713
  157.7159  130.9497  150.1254 LP  0  0  0  0  0  0  0  0  0  0  0  0  # atno 17371 bound_to 10713
  141.0418  133.6934  156.1611 LP  0  0  0  0  0  0  0  0  0  0  0  0  # atno 17394 bound_to 11000
  140.6944  134.4631  157.5588 LP  0  0  0  0  0  0  0  0  0  0  0  0  # atno 17395 bound_to 11000

$$$$
