AV-unprocessed.smi:1974|AV-procd|sdf|7981|dock2
  -GOLD-   2272010163D 1   1.00000     0.00000
 Structure written by MMmdl.
 34 35  0  0  0  0  0  0  0  0  1 V2000
  149.9678  138.8655  157.9798 C   0  0  0  0  0  0  0  0  0  0  0  0
  150.2583  140.3268  157.6040 C   0  0  1  0  0  0  0  0  0  0  0  0
  148.9585  141.1440  157.4727 C   0  0  0  0  0  0  0  0  0  0  0  0
  148.5431  141.3014  156.0898 N   0  0  0  0  0  0  0  0  0  0  0  0
  147.3572  141.8126  155.6065 C   0  0  0  0  0  0  0  0  0  0  0  0
  147.4150  141.7533  154.2436 C   0  0  0  0  0  0  0  0  0  0  0  0
  148.6928  141.1836  153.9838 C   0  0  0  0  0  0  0  0  0  0  0  0
  149.3661  140.9146  155.0908 N   0  0  0  0  0  0  0  0  0  0  0  0
  151.1335  140.9321  158.6056 N   0  0  0  0  0  0  0  0  0  0  0  0
  152.4266  140.6306  158.7956 C   0  0  0  0  0  0  0  0  0  0  0  0
  153.0324  139.7956  158.1224 O   0  0  0  0  0  0  0  0  0  0  0  0
  153.1421  141.4132  159.9039 C   0  0  0  0  0  0  0  0  0  0  0  0
  152.6783  142.7973  160.0189 N   0  0  0  0  0  0  0  0  0  0  0  0
  153.0047  143.7487  158.9639 C   0  0  0  0  0  0  0  0  0  0  0  0
  152.1225  144.9843  159.1546 C   0  0  0  0  0  0  0  0  0  0  0  0
  151.6081  145.0288  160.8829 S   0  0  0  0  0  0  0  0  0  0  0  0
  152.0008  143.2936  161.1254 C   0  0  0  0  0  0  0  0  0  0  0  0
  151.6898  142.6868  162.1491 O   0  0  0  0  0  0  0  0  0  0  0  0
  149.3283  138.3893  157.2361 H   0  0  0  0  0  0  0  0  0  0  0  0
  149.4646  138.7959  158.9448 H   0  0  0  0  0  0  0  0  0  0  0  0
  150.8877  138.2826  158.0410 H   0  0  0  0  0  0  0  0  0  0  0  0
  150.7601  140.3342  156.6343 H   0  0  0  0  0  0  0  0  0  0  0  0
  148.1488  140.6462  158.0077 H   0  0  0  0  0  0  0  0  0  0  0  0
  149.0720  142.1289  157.9290 H   0  0  0  0  0  0  0  0  0  0  0  0
  146.5795  142.1696  156.2657 H   0  0  0  0  0  0  0  0  0  0  0  0
  146.6592  142.0683  153.5394 H   0  0  0  0  0  0  0  0  0  0  0  0
  149.1480  140.9591  153.0303 H   0  0  0  0  0  0  0  0  0  0  0  0
  150.7226  141.6414  159.1955 H   0  0  0  0  0  0  0  0  0  0  0  0
  152.9893  140.8890  160.8478 H   0  0  0  0  0  0  0  0  0  0  0  0
  154.2184  141.4102  159.7217 H   0  0  0  0  0  0  0  0  0  0  0  0
  154.0575  144.0180  159.0578 H   0  0  0  0  0  0  0  0  0  0  0  0
  152.8616  143.3148  157.9735 H   0  0  0  0  0  0  0  0  0  0  0  0
  152.6341  145.9042  158.8713 H   0  0  0  0  0  0  0  0  0  0  0  0
  151.2257  144.8992  158.5402 H   0  0  0  0  0  0  0  0  0  0  0  0
  1  2  1  0  0  0  0
  1 19  1  0  0  0  0
  1 20  1  0  0  0  0
  1 21  1  0  0  0  0
  2  3  1  0  0  0  0
  2  9  1  0  0  0  0
  2 22  1  0  0  0  0
  3  4  1  0  0  0  0
  3 23  1  0  0  0  0
  3 24  1  0  0  0  0
  4  8  1  0  0  0  0
  4  5  1  0  0  0  0
  5  6  2  0  0  0  0
  5 25  1  0  0  0  0
  6  7  1  0  0  0  0
  6 26  1  0  0  0  0
  7  8  2  0  0  0  0
  7 27  1  0  0  0  0
  9 10  1  0  0  0  0
  9 28  1  0  0  0  0
 10 11  2  0  0  0  0
 10 12  1  0  0  0  0
 12 13  1  0  0  0  0
 12 29  1  0  0  0  0
 12 30  1  0  0  0  0
 13 17  1  0  0  0  0
 13 14  1  0  0  0  0
 14 15  1  0  0  0  0
 14 31  1  0  0  0  0
 14 32  1  0  0  0  0
 15 16  1  0  0  0  0
 15 33  1  0  0  0  0
 15 34  1  0  0  0  0
 16 17  1  0  0  0  0
 17 18  2  0  0  0  0
M  END
> <s_m_source_file>
AV-unprocessed.smi

> <i_m_source_file_index>
1974

> <i_lp_mmshare_version>
43012

> <i_f3d_flags>
0

> <s_epik_input>
bjFbY0hdW2NIXVtjSF1uMVtDSDJdW0NAQEhdKFtDSDNdKVtOSF1DKD1PKVtDSDJdTjJbQ0gyXVtDSDJdU0MyPU8=

> <s_epik_cmdline>
J2VwaWtfcHl0aG9uJywgJy1waCcsICc3LjAnLCAnLXRuJywgJzgnLCAnLW1hJywgJzIwMCcsICctbWV0YWxfYmluZGluZycsICctaW1hZScsICc8aW5maWxlLm1hZT4nLCAnLW9tYWUnLCAnPG91dGZpbGUubWFlPic=

> <r_lp_tautomer_probability>
1

> <r_epik_Ionization_Penalty>
0.000283364

> <r_epik_Ionization_Penalty_Charging>
0

> <r_epik_Ionization_Penalty_Neutral>
0.000283364

> <r_epik_State_Penalty>
-0

> <r_epik_Charging_Adjusted_Penalty>
0

> <i_epik_Tot_Q>
0

> <i_epik_Tot_abs_Q>
0

> <r_epik_Metal_State_Penalty>
-0

> <b_epik_Metal_Only>
0

> <s_lp_Force_Field>
OPLS_2005

> <r_lp_Energy>
3.37474

> <b_lp_Chiralities_Consistent>
1

> <s_lp_Variant>
AV-unprocessed.smi:1974-2

> <Gold.Version>
5.8.1

> <Gold.Id.Protein>
6NUR|6NUR_protein|mol2

> <Gold.PLP.Fitness>
44.2552

> <Gold.PLP.PLP>
-38.0447

> <Gold.PLP.part.hbond>
-2.0000

> <Gold.PLP.part.metal>
0.0000

> <Gold.PLP.part.buried>
-3.8546

> <Gold.PLP.part.nonpolar>
-33.9409

> <Gold.PLP.part.repulsive>
1.1027

> <Gold.PLP.ligand.clash>
0.0000

> <Gold.PLP.ligand.torsion>
1.1801

> <Gold.PLP.Chemscore.Hbond>
1.8424

> <Gold.PLP.Chemscore.CHOScore>
1.0000

> <Gold.PLP.Chemscore.Metal>
0.0000

> <Gold.Chemscore.Hbonds>
donor molecule, donor type, donor heavy atom, donor atom, acceptor molecule, acceptor atom, score
      P1  H  6933  6945       L1    18  0.93
      P1  H  7997  8008       L1    11  1.00
      L1  C     7    27       P1  7957  1.00

> <Gold.PLP.Chemscore.Internal.Correction>
0.0435

> <Gold.Rescore>
     Score         DG    S(hbond)    S(metal)    S(lipo)     H(rot)  DE(clash)    DE(int)     intcor
     14.03     -15.34       1.81        0.00      77.22       2.04       0.11       1.20       ----

> <Gold.Chemscore.Fitness>
14.0289

> <Gold.Chemscore.DG>
-15.3392

> <Gold.Chemscore.ZeroCoef>
-5.4800

> <Gold.Chemscore.Hbond>
1.8108

> <Gold.Chemscore.Metal>
0.0000

> <Gold.Chemscore.Lipo>
77.2208

> <Gold.Chemscore.Internal_Hbond>
0.0000

> <Gold.Chemscore.DEClash>
0.1120

> <Gold.Chemscore.DEInternal>
1.1983

> <Gold.Chemscore.Rot>
2.0405

> <Gold.Chemscore.Internal.Correction>
   9.000000E+99

> <Gold.Chemscore.Hbonds>
donor molecule, donor type, donor heavy atom, donor atom, acceptor molecule, acceptor atom, score
      P1  H  6933  6945       L1    18  0.87
      P1  H  7997  8008       L1    11  0.96

> <Gold.Chemscore.Hbond.Weighted>
-6.0481

> <Gold.Chemscore.Metal.Weighted>
-0.0000

> <Gold.Chemscore.Lipo.Weighted>
-9.0348

> <Gold.Chemscore.Internal_Hbond.Weighted>
0.0000

> <Gold.Chemscore.DEClash.Weighted>
0.1120

> <Gold.Chemscore.DEInternal.Weighted>
1.1983

> <Gold.Chemscore.Rot.Weighted>
5.2237

> <Gold.Chemscore.Internal.Correction.Weighted>
   9.000000E+99

> <Gold.Protein.RotatedTorsions>
[ 6907 6896 6895 6894 ] final -142.89 input  -60.11 | X-H torsion
[ 7974 7965 7964 7962 ] final  178.89 input  175.53 | X-H torsion
[ 8008 7997 7996 7995 ] final  -68.30 input   59.86 | X-H torsion
[ 10167 10162 10161 10158 ] final -104.99 input  -65.29 | X-H torsion
[ 10718 10713 10712 10709 ] final   47.39 input   66.30 | X-H torsion
[ 10763 10752 10751 10750 ] final   -8.02 input  -60.55 | X-H torsion
[ 11005 11000 10999 10996 ] final  126.99 input  -57.11 | X-H torsion

> <Gold.Protein.ActiveResidues>
 VAL166  LYS551  ARG553  GLY616  TRP617  ASP618  TYR619  PRO620  LYS621  CYS622 
 ASP623  PHE694  ASN695  SER759  ASP760  ASP761  ALA762  ILE779  LEU786  VAL792 
 PHE793  MET794  SER795  GLU796  ALA797  LYS798  CYS799  TRP800  GLU811  SER814 

> <Gold.Protein.RotatedAtoms>
  151.0932  133.5300  159.2613 H   0  0  0  0  0  0  0  0  0  0  0  0  # atno 6907 bound_to 6896
  151.2159  135.0499  159.8940 H   0  0  0  0  0  0  0  0  0  0  0  0  # atno 6908 bound_to 6896
  152.5436  134.0741  159.8260 H   0  0  0  0  0  0  0  0  0  0  0  0  # atno 6909 bound_to 6896
  144.7151  140.0465  143.6436 H   0  0  0  0  0  0  0  0  0  0  0  0  # atno 7974 bound_to 7965
  154.4859  140.0875  156.7484 H   0  0  0  0  0  0  0  0  0  0  0  0  # atno 8008 bound_to 7997
  155.4352  140.3451  155.4266 H   0  0  0  0  0  0  0  0  0  0  0  0  # atno 8009 bound_to 7997
  156.1260  140.1487  156.9124 H   0  0  0  0  0  0  0  0  0  0  0  0  # atno 8010 bound_to 7997
  140.2034  143.3801  152.1111 H   0  0  0  0  0  0  0  0  0  0  0  0  # atno 10167 bound_to 10162
  157.4580  130.8179  149.7856 H   0  0  0  0  0  0  0  0  0  0  0  0  # atno 10718 bound_to 10713
  153.4346  135.7012  153.6208 H   0  0  0  0  0  0  0  0  0  0  0  0  # atno 10763 bound_to 10752
  153.4609  135.3736  155.2337 H   0  0  0  0  0  0  0  0  0  0  0  0  # atno 10764 bound_to 10752
  154.8726  135.4019  154.3735 H   0  0  0  0  0  0  0  0  0  0  0  0  # atno 10765 bound_to 10752
  139.9484  134.9626  156.8789 H   0  0  0  0  0  0  0  0  0  0  0  0  # atno 11005 bound_to 11000
  145.9979  139.3068  143.0945 LP  0  0  0  0  0  0  0  0  0  0  0  0  # atno 17320 bound_to 7965
  145.8827  140.9353  143.0593 LP  0  0  0  0  0  0  0  0  0  0  0  0  # atno 17321 bound_to 7965
  139.5208  144.7038  151.5416 LP  0  0  0  0  0  0  0  0  0  0  0  0  # atno 17342 bound_to 10162
  140.6374  143.8956  150.6660 LP  0  0  0  0  0  0  0  0  0  0  0  0  # atno 17343 bound_to 10162
  156.0016  130.3877  150.2586 LP  0  0  0  0  0  0  0  0  0  0  0  0  # atno 17370 bound_to 10713
  157.0761  131.0130  151.3173 LP  0  0  0  0  0  0  0  0  0  0  0  0  # atno 17371 bound_to 10713
  140.5777  134.0382  155.7453 LP  0  0  0  0  0  0  0  0  0  0  0  0  # atno 17394 bound_to 11000
  141.1141  133.9568  157.2855 LP  0  0  0  0  0  0  0  0  0  0  0  0  # atno 17395 bound_to 11000

$$$$
