AV-unprocessed.smi:632|AV-procd|sdf|3128|dock8
  -GOLD-   22720 0 53D 1   1.00000     0.00000
 Structure written by MMmdl.
 41 42  0  0  0  0  0  0  0  0  2 V2000
  150.4830  128.0075  155.0612 C   0  0  0  0  0  0  0  0  0  0  0  0
  151.2243  129.1341  155.8071 C   0  0  0  0  0  0  0  0  0  0  0  0
  151.0553  128.8776  157.3208 C   0  0  0  0  0  0  0  0  0  0  0  0
  152.7327  129.0911  155.4945 C   0  0  0  0  0  0  0  0  0  0  0  0
  150.6557  130.4755  155.4066 C   0  0  0  0  0  0  0  0  0  0  0  0
  151.0644  131.6180  155.9724 N   0  0  0  0  0  0  0  0  0  0  0  0
  150.4158  132.7312  155.4599 N   0  0  0  0  0  0  0  0  0  0  0  0
  149.5268  132.4287  154.5050 C   0  0  0  0  0  0  0  0  0  0  0  0
  148.7922  133.3650  153.8819 N   0  5  0  0  0  0  0  0  0  0  0  0
  147.6921  133.0053  153.1822 C   0  0  0  0  0  0  0  0  0  0  0  0
  147.0121  131.9923  153.3611 O   0  0  0  0  0  0  0  0  0  0  0  0
  147.3597  133.8738  152.2160 N   0  0  0  0  0  0  0  0  0  0  0  0
  146.2251  133.7555  151.3038 C   0  0  2  0  0  0  0  0  0  0  0  0
  144.9080  133.5887  152.0904 C   0  0  0  0  0  0  0  0  0  0  0  0
  143.7116  133.3844  151.1470 C   0  0  0  0  0  0  0  0  0  0  0  0
  143.9455  132.1910  150.2051 C   0  0  1  0  0  0  0  0  0  0  0  0
  142.8607  132.0777  149.3081 O   0  0  0  0  0  0  0  0  0  0  0  0
  145.2527  132.3600  149.4119 C   0  0  0  0  0  0  0  0  0  0  0  0
  146.4497  132.5628  150.3550 C   0  0  0  0  0  0  0  0  0  0  0  0
  149.4089  130.7015  154.1792 S   0  0  0  0  0  0  0  0  0  0  0  0
  150.8626  127.0252  155.3446 H   0  0  0  0  0  0  0  0  0  0  0  0
  150.5991  128.0998  153.9808 H   0  0  0  0  0  0  0  0  0  0  0  0
  149.4147  128.0240  155.2793 H   0  0  0  0  0  0  0  0  0  0  0  0
  150.0051  128.8802  157.6148 H   0  0  0  0  0  0  0  0  0  0  0  0
  151.5706  129.6314  157.9171 H   0  0  0  0  0  0  0  0  0  0  0  0
  151.4656  127.9083  157.6063 H   0  0  0  0  0  0  0  0  0  0  0  0
  153.1735  128.1380  155.7884 H   0  0  0  0  0  0  0  0  0  0  0  0
  153.2690  129.8802  156.0229 H   0  0  0  0  0  0  0  0  0  0  0  0
  152.9240  129.2216  154.4290 H   0  0  0  0  0  0  0  0  0  0  0  0
  147.9471  134.6875  152.1072 H   0  0  0  0  0  0  0  0  0  0  0  0
  146.1617  134.6605  150.6966 H   0  0  0  0  0  0  0  0  0  0  0  0
  144.9868  132.7349  152.7651 H   0  0  0  0  0  0  0  0  0  0  0  0
  144.7303  134.4621  152.7189 H   0  0  0  0  0  0  0  0  0  0  0  0
  142.8038  133.2299  151.7315 H   0  0  0  0  0  0  0  0  0  0  0  0
  143.5546  134.2932  150.5641 H   0  0  0  0  0  0  0  0  0  0  0  0
  143.9939  131.2722  150.7909 H   0  0  0  0  0  0  0  0  0  0  0  0
  142.3091  132.8383  149.4085 H   0  0  0  0  0  0  0  0  0  0  0  0
  145.4243  131.4875  148.7804 H   0  0  0  0  0  0  0  0  0  0  0  0
  145.1731  133.2172  148.7416 H   0  0  0  0  0  0  0  0  0  0  0  0
  147.3560  132.7177  149.7685 H   0  0  0  0  0  0  0  0  0  0  0  0
  146.6092  131.6531  150.9358 H   0  0  0  0  0  0  0  0  0  0  0  0
  1  2  1  0  0  0  0
  1 21  1  0  0  0  0
  1 22  1  0  0  0  0
  1 23  1  0  0  0  0
  2  3  1  0  0  0  0
  2  4  1  0  0  0  0
  2  5  1  0  0  0  0
  3 24  1  0  0  0  0
  3 25  1  0  0  0  0
  3 26  1  0  0  0  0
  4 27  1  0  0  0  0
  4 28  1  0  0  0  0
  4 29  1  0  0  0  0
  5 20  1  0  0  0  0
  5  6  2  0  0  0  0
  6  7  1  0  0  0  0
  7  8  2  0  0  0  0
  8  9  1  0  0  0  0
  8 20  1  0  0  0  0
  9 10  1  0  0  0  0
 10 11  2  0  0  0  0
 10 12  1  0  0  0  0
 12 13  1  0  0  0  0
 12 30  1  0  0  0  0
 13 19  1  0  0  0  0
 13 14  1  0  0  0  0
 13 31  1  0  0  0  0
 14 15  1  0  0  0  0
 14 32  1  0  0  0  0
 14 33  1  0  0  0  0
 15 16  1  0  0  0  0
 15 34  1  0  0  0  0
 15 35  1  0  0  0  0
 16 17  1  0  0  0  0
 16 18  1  0  0  0  0
 16 36  1  0  0  0  0
 17 37  1  0  0  0  0
 18 19  1  0  0  0  0
 18 38  1  0  0  0  0
 18 39  1  0  0  0  0
 19 40  1  0  0  0  0
 19 41  1  0  0  0  0
M  CHG  1   9  -1
M  END
> <s_m_source_file>
AV-unprocessed.smi

> <i_m_source_file_index>
632

> <i_lp_mmshare_version>
43012

> <i_f3d_flags>
0

> <s_epik_input>
W0NIM11DKFtDSDNdKShbQ0gzXSljMW5uYyhzMSlbTkhdQyg9TylbTkhdW0NAQEhdMltDSDJdW0NIMl1bQ0BASF0oW09IXSlbQ0gyXVtDSDJdMg==

> <s_epik_cmdline>
J2VwaWtfcHl0aG9uJywgJy1waCcsICc3LjAnLCAnLXRuJywgJzgnLCAnLW1hJywgJzIwMCcsICctbWV0YWxfYmluZGluZycsICctaW1hZScsICc8aW5maWxlLm1hZT4nLCAnLW9tYWUnLCAnPG91dGZpbGUubWFlPic=

> <r_lp_tautomer_probability>
1

> <r_epik_Ionization_Penalty>
4.62389

> <r_epik_Ionization_Penalty_Charging>
4.45204

> <r_epik_Ionization_Penalty_Neutral>
0.171842

> <r_epik_State_Penalty>
4.45172

> <r_epik_Charging_Adjusted_Penalty>
8.90376

> <i_epik_Tot_Q>
-1

> <i_epik_Tot_abs_Q>
1

> <r_epik_Metal_State_Penalty>
0.795834

> <b_epik_Metal_Only>
1

> <s_lp_Force_Field>
OPLS_2005

> <r_lp_Energy>
0.241417

> <b_lp_Chiralities_Consistent>
1

> <s_lp_Variant>
AV-unprocessed.smi:632-3

> <Gold.Version>
5.8.1

> <Gold.Id.Protein>
6NUR|6NUR_protein|mol2

> <Gold.PLP.Fitness>
43.4639

> <Gold.PLP.PLP>
-35.5486

> <Gold.PLP.part.hbond>
-3.9737

> <Gold.PLP.part.metal>
0.0000

> <Gold.PLP.part.buried>
-3.6252

> <Gold.PLP.part.nonpolar>
-27.6774

> <Gold.PLP.part.repulsive>
0.2959

> <Gold.PLP.ligand.clash>
0.0000

> <Gold.PLP.ligand.torsion>
0.2637

> <Gold.PLP.Chemscore.Hbond>
2.8062

> <Gold.PLP.Chemscore.CHOScore>
0.0000

> <Gold.PLP.Chemscore.Metal>
0.0000

> <Gold.Chemscore.Hbonds>
donor molecule, donor type, donor heavy atom, donor atom, acceptor molecule, acceptor atom, score
      L1  H    12    30       P1  7948  1.00
      L1  H    17    37       P1 10186  0.96
      P1  H 10785 10796       L1    17  0.88

> <Gold.PLP.Chemscore.Internal.Correction>
0.0242

> <Gold.Rescore>
     Score         DG    S(hbond)    S(metal)    S(lipo)     H(rot)  DE(clash)    DE(int)     intcor
     14.04     -16.93       2.06        0.00      75.57       1.67       0.11       2.77       ----

> <Gold.Chemscore.Fitness>
14.0400

> <Gold.Chemscore.DG>
-16.9262

> <Gold.Chemscore.ZeroCoef>
-5.4800

> <Gold.Chemscore.Hbond>
2.0625

> <Gold.Chemscore.Metal>
0.0000

> <Gold.Chemscore.Lipo>
75.5735

> <Gold.Chemscore.Internal_Hbond>
0.0000

> <Gold.Chemscore.DEClash>
0.1129

> <Gold.Chemscore.DEInternal>
2.7733

> <Gold.Chemscore.Rot>
1.6737

> <Gold.Chemscore.Internal.Correction>
   9.000000E+99

> <Gold.Chemscore.Hbonds>
donor molecule, donor type, donor heavy atom, donor atom, acceptor molecule, acceptor atom, score
      L1  H    12    30       P1  7948  0.40
      L1  H    17    37       P1 10186  0.91
      P1  H 10785 10796       L1    17  0.16

> <Gold.Chemscore.Hbond.Weighted>
-6.8889

> <Gold.Chemscore.Metal.Weighted>
-0.0000

> <Gold.Chemscore.Lipo.Weighted>
-8.8421

> <Gold.Chemscore.Internal_Hbond.Weighted>
0.0000

> <Gold.Chemscore.DEClash.Weighted>
0.1129

> <Gold.Chemscore.DEInternal.Weighted>
2.7733

> <Gold.Chemscore.Rot.Weighted>
4.2848

> <Gold.Chemscore.Internal.Correction.Weighted>
   9.000000E+99

> <Gold.Protein.RotatedTorsions>
[ 6907 6896 6895 6894 ] final  -53.73 input  -60.11 | X-H torsion
[ 7974 7965 7964 7962 ] final -147.04 input  175.53 | X-H torsion
[ 8008 7997 7996 7995 ] final   16.70 input   59.86 | X-H torsion
[ 10167 10162 10161 10158 ] final -149.66 input  -65.29 | X-H torsion
[ 10718 10713 10712 10709 ] final   43.91 input   66.30 | X-H torsion
[ 10763 10752 10751 10750 ] final  -63.64 input  -60.55 | X-H torsion
[ 11005 11000 10999 10996 ] final  131.67 input  -57.11 | X-H torsion

> <Gold.Protein.ActiveResidues>
 VAL166  LYS551  ARG553  GLY616  TRP617  ASP618  TYR619  PRO620  LYS621  CYS622 
 ASP623  PHE694  ASN695  SER759  ASP760  ASP761  ALA762  ILE779  LEU786  VAL792 
 PHE793  MET794  SER795  GLU796  ALA797  LYS798  CYS799  TRP800  GLU811  SER814 

> <Gold.Protein.RotatedAtoms>
  150.8401  134.7689  159.6924 H   0  0  0  0  0  0  0  0  0  0  0  0  # atno 6907 bound_to 6896
  152.4490  134.5431  159.9854 H   0  0  0  0  0  0  0  0  0  0  0  0  # atno 6908 bound_to 6896
  151.5572  133.3370  159.3000 H   0  0  0  0  0  0  0  0  0  0  0  0  # atno 6909 bound_to 6896
  144.8119  140.5378  143.5636 H   0  0  0  0  0  0  0  0  0  0  0  0  # atno 7974 bound_to 7965
  154.8808  140.2972  155.5426 H   0  0  0  0  0  0  0  0  0  0  0  0  # atno 8008 bound_to 7997
  156.3022  140.2443  156.3743 H   0  0  0  0  0  0  0  0  0  0  0  0  # atno 8009 bound_to 7997
  154.8719  140.0401  157.1719 H   0  0  0  0  0  0  0  0  0  0  0  0  # atno 8010 bound_to 7997
  139.7423  143.8644  152.2565 H   0  0  0  0  0  0  0  0  0  0  0  0  # atno 10167 bound_to 10162
  157.4211  130.7969  149.7516 H   0  0  0  0  0  0  0  0  0  0  0  0  # atno 10718 bound_to 10713
  154.3181  135.6202  153.5495 H   0  0  0  0  0  0  0  0  0  0  0  0  # atno 10763 bound_to 10752
  152.9822  135.5717  154.5100 H   0  0  0  0  0  0  0  0  0  0  0  0  # atno 10764 bound_to 10752
  154.4763  135.2861  155.1581 H   0  0  0  0  0  0  0  0  0  0  0  0  # atno 10765 bound_to 10752
  139.9744  134.9568  156.9472 H   0  0  0  0  0  0  0  0  0  0  0  0  # atno 11005 bound_to 11000
  145.5303  139.1475  143.3503 LP  0  0  0  0  0  0  0  0  0  0  0  0  # atno 17320 bound_to 7965
  146.2419  140.5444  142.8930 LP  0  0  0  0  0  0  0  0  0  0  0  0  # atno 17321 bound_to 7965
  139.8598  144.7123  150.9113 LP  0  0  0  0  0  0  0  0  0  0  0  0  # atno 17342 bound_to 10162
  140.7787  143.3827  151.1448 LP  0  0  0  0  0  0  0  0  0  0  0  0  # atno 17343 bound_to 10162
  155.9881  130.3962  150.3135 LP  0  0  0  0  0  0  0  0  0  0  0  0  # atno 17370 bound_to 10713
  157.1283  131.0265  151.2980 LP  0  0  0  0  0  0  0  0  0  0  0  0  # atno 17371 bound_to 10713
  140.5225  134.0893  155.7295 LP  0  0  0  0  0  0  0  0  0  0  0  0  # atno 17394 bound_to 11000
  141.1422  133.9118  157.2299 LP  0  0  0  0  0  0  0  0  0  0  0  0  # atno 17395 bound_to 11000

$$$$
