AV-unprocessed.smi:3277|AV-procd|sdf|12538|dock1
  -GOLD-   2272018453D 1   1.00000     0.00000
 Structure written by MMmdl.
 35 37  0  0  0  0  0  0  0  0  1 V2000
  151.3770  138.0622  154.8431 C   0  0  0  0  0  0  0  0  0  0  0  0
  151.3505  137.9912  156.2956 N   0  0  0  0  0  0  0  0  0  0  0  0
  151.9104  138.9018  157.1054 C   0  0  0  0  0  0  0  0  0  0  0  0
  152.4991  139.9014  156.6940 O   0  0  0  0  0  0  0  0  0  0  0  0
  151.7875  138.6504  158.6093 C   0  0  0  0  0  0  0  0  0  0  0  0
  152.5350  139.7327  159.3193 C   0  0  0  0  0  0  0  0  0  0  0  0
  152.2062  141.0249  159.2489 N   0  0  0  0  0  0  0  0  0  0  0  0
  153.0617  141.8501  159.9886 C   0  0  0  0  0  0  0  0  0  0  0  0
  152.8816  143.3480  160.0207 C   0  0  2  0  0  0  0  0  0  0  0  0
  151.6013  143.8435  160.7290 C   0  0  0  0  0  0  0  0  0  0  0  0
  151.0274  144.8491  159.7114 C   0  0  2  0  0  0  0  0  0  0  0  0
  150.4319  144.0809  158.5149 C   0  0  0  0  0  0  0  0  0  0  0  0
  151.6853  143.6072  157.7550 C   0  0  0  0  0  0  0  0  0  0  0  0
  152.8353  144.0912  158.6619 C   0  0  1  0  0  0  0  0  0  0  0  0
  152.2904  145.4482  159.1007 C   0  0  0  0  0  0  0  0  0  0  0  0
  154.0467  141.1461  160.6368 C   0  0  0  0  0  0  0  0  0  0  0  0
  153.9371  139.4332  160.3386 S   0  0  0  0  0  0  0  0  0  0  0  0
  150.8789  137.1903  154.4190 H   0  0  0  0  0  0  0  0  0  0  0  0
  152.4032  138.0821  154.4736 H   0  0  0  0  0  0  0  0  0  0  0  0
  150.8615  138.9560  154.4890 H   0  0  0  0  0  0  0  0  0  0  0  0
  150.8848  137.1980  156.7118 H   0  0  0  0  0  0  0  0  0  0  0  0
  150.7400  138.6620  158.9132 H   0  0  0  0  0  0  0  0  0  0  0  0
  152.2010  137.6771  158.8758 H   0  0  0  0  0  0  0  0  0  0  0  0
  153.7262  143.7658  160.5718 H   0  0  0  0  0  0  0  0  0  0  0  0
  150.8875  143.0487  160.9480 H   0  0  0  0  0  0  0  0  0  0  0  0
  151.8485  144.3302  161.6731 H   0  0  0  0  0  0  0  0  0  0  0  0
  150.3392  145.5708  160.1523 H   0  0  0  0  0  0  0  0  0  0  0  0
  149.8003  143.2500  158.8315 H   0  0  0  0  0  0  0  0  0  0  0  0
  149.8294  144.7383  157.8869 H   0  0  0  0  0  0  0  0  0  0  0  0
  151.6933  142.5366  157.5598 H   0  0  0  0  0  0  0  0  0  0  0  0
  151.7417  144.1023  156.7846 H   0  0  0  0  0  0  0  0  0  0  0  0
  153.7993  144.1282  158.1539 H   0  0  0  0  0  0  0  0  0  0  0  0
  152.0894  146.1263  158.2692 H   0  0  0  0  0  0  0  0  0  0  0  0
  152.9233  145.9578  159.8295 H   0  0  0  0  0  0  0  0  0  0  0  0
  154.8325  141.5327  161.2687 H   0  0  0  0  0  0  0  0  0  0  0  0
  1  2  1  0  0  0  0
  1 18  1  0  0  0  0
  1 19  1  0  0  0  0
  1 20  1  0  0  0  0
  2  3  1  0  0  0  0
  2 21  1  0  0  0  0
  3  4  2  0  0  0  0
  3  5  1  0  0  0  0
  5  6  1  0  0  0  0
  5 22  1  0  0  0  0
  5 23  1  0  0  0  0
  6 17  1  0  0  0  0
  6  7  2  0  0  0  0
  7  8  1  0  0  0  0
  8  9  1  0  0  0  0
  8 16  2  0  0  0  0
  9 14  1  0  0  0  0
  9 10  1  0  0  0  0
  9 24  1  0  0  0  0
 10 11  1  0  0  0  0
 10 25  1  0  0  0  0
 10 26  1  0  0  0  0
 11 15  1  0  0  0  0
 11 12  1  0  0  0  0
 11 27  1  0  0  0  0
 12 13  1  0  0  0  0
 12 28  1  0  0  0  0
 12 29  1  0  0  0  0
 13 14  1  0  0  0  0
 13 30  1  0  0  0  0
 13 31  1  0  0  0  0
 14 15  1  0  0  0  0
 14 32  1  0  0  0  0
 15 33  1  0  0  0  0
 15 34  1  0  0  0  0
 16 17  1  0  0  0  0
 16 35  1  0  0  0  0
M  END
> <s_m_source_file>
AV-unprocessed.smi

> <i_m_source_file_index>
3277

> <i_lp_mmshare_version>
43012

> <i_f3d_flags>
0

> <s_epik_input>
W0NIM11bTkhdQyg9TylbQ0gyXWMxbmMoW2NIXXMxKVtDQEhdKFtDSDJdW0NAQEhdMjMpW0NAQEhdKFtDSDJdMylbQ0gyXVtDSDJdMg==

> <s_epik_cmdline>
J2VwaWtfcHl0aG9uJywgJy1waCcsICc3LjAnLCAnLXRuJywgJzgnLCAnLW1hJywgJzIwMCcsICctbWV0YWxfYmluZGluZycsICctaW1hZScsICc8aW5maWxlLm1hZT4nLCAnLW9tYWUnLCAnPG91dGZpbGUubWFlPic=

> <r_lp_tautomer_probability>
1

> <r_epik_Ionization_Penalty>
8.50008e-05

> <r_epik_Ionization_Penalty_Charging>
0

> <r_epik_Ionization_Penalty_Neutral>
8.50008e-05

> <r_epik_State_Penalty>
-0

> <r_epik_Charging_Adjusted_Penalty>
0

> <i_epik_Tot_Q>
0

> <i_epik_Tot_abs_Q>
0

> <r_epik_Metal_State_Penalty>
-0

> <b_epik_Metal_Only>
0

> <s_lp_Force_Field>
OPLS_2005

> <r_lp_Energy>
46.0194

> <b_lp_Chiralities_Consistent>
1

> <s_lp_Variant>
AV-unprocessed.smi:3277-3

> <Gold.Version>
5.8.1

> <Gold.Id.Protein>
6NUR|6NUR_protein|mol2

> <Gold.PLP.Fitness>
44.1022

> <Gold.PLP.PLP>
-41.2737

> <Gold.PLP.part.hbond>
-1.0000

> <Gold.PLP.part.metal>
0.0000

> <Gold.PLP.part.buried>
-5.2881

> <Gold.PLP.part.nonpolar>
-35.7061

> <Gold.PLP.part.repulsive>
0.0609

> <Gold.PLP.ligand.clash>
0.0000

> <Gold.PLP.ligand.torsion>
0.0899

> <Gold.PLP.Chemscore.Hbond>
1.0000

> <Gold.PLP.Chemscore.CHOScore>
0.0000

> <Gold.PLP.Chemscore.Metal>
0.0000

> <Gold.Chemscore.Hbonds>
donor molecule, donor type, donor heavy atom, donor atom, acceptor molecule, acceptor atom, score
      P1  H  7997  8010       L1     4  1.00

> <Gold.PLP.Chemscore.Internal.Correction>
0.0082

> <Gold.Rescore>
     Score         DG    S(hbond)    S(metal)    S(lipo)     H(rot)  DE(clash)    DE(int)     intcor
     18.11     -20.10       1.00        0.00     127.33       1.41       0.00       1.99       ----

> <Gold.Chemscore.Fitness>
18.1142

> <Gold.Chemscore.DG>
-20.1018

> <Gold.Chemscore.ZeroCoef>
-5.4800

> <Gold.Chemscore.Hbond>
0.9999

> <Gold.Chemscore.Metal>
0.0000

> <Gold.Chemscore.Lipo>
127.3262

> <Gold.Chemscore.Internal_Hbond>
0.0000

> <Gold.Chemscore.DEClash>
0.0004

> <Gold.Chemscore.DEInternal>
1.9872

> <Gold.Chemscore.Rot>
1.4122

> <Gold.Chemscore.Internal.Correction>
   9.000000E+99

> <Gold.Chemscore.Hbonds>
donor molecule, donor type, donor heavy atom, donor atom, acceptor molecule, acceptor atom, score
      P1  H  7997  8010       L1     4  1.00

> <Gold.Chemscore.Hbond.Weighted>
-3.3397

> <Gold.Chemscore.Metal.Weighted>
-0.0000

> <Gold.Chemscore.Lipo.Weighted>
-14.8972

> <Gold.Chemscore.Internal_Hbond.Weighted>
0.0000

> <Gold.Chemscore.DEClash.Weighted>
0.0004

> <Gold.Chemscore.DEInternal.Weighted>
1.9872

> <Gold.Chemscore.Rot.Weighted>
3.6151

> <Gold.Chemscore.Internal.Correction.Weighted>
   9.000000E+99

> <Gold.Protein.RotatedTorsions>
[ 6907 6896 6895 6894 ] final   18.86 input  -60.11 | X-H torsion
[ 7974 7965 7964 7962 ] final  -63.49 input  175.53 | X-H torsion
[ 8008 7997 7996 7995 ] final   71.05 input   59.86 | X-H torsion
[ 10167 10162 10161 10158 ] final -129.49 input  -65.29 | X-H torsion
[ 10718 10713 10712 10709 ] final  -35.35 input   66.30 | X-H torsion
[ 10763 10752 10751 10750 ] final   30.32 input  -60.55 | X-H torsion
[ 11005 11000 10999 10996 ] final  -51.60 input  -57.11 | X-H torsion

> <Gold.Protein.ActiveResidues>
 VAL166  LYS551  ARG553  GLY616  TRP617  ASP618  TYR619  PRO620  LYS621  CYS622 
 ASP623  PHE694  ASN695  SER759  ASP760  ASP761  ALA762  ILE779  LEU786  VAL792 
 PHE793  MET794  SER795  GLU796  ALA797  LYS798  CYS799  TRP800  GLU811  SER814 

> <Gold.Protein.RotatedAtoms>
  151.8719  135.0486  160.0479 H   0  0  0  0  0  0  0  0  0  0  0  0  # atno 6907 bound_to 6896
  152.2581  133.5269  159.5374 H   0  0  0  0  0  0  0  0  0  0  0  0  # atno 6908 bound_to 6896
  150.7107  134.0784  159.3931 H   0  0  0  0  0  0  0  0  0  0  0  0  # atno 6909 bound_to 6896
  145.7784  140.8775  143.0343 H   0  0  0  0  0  0  0  0  0  0  0  0  # atno 7974 bound_to 7965
  155.7480  140.3489  155.5136 H   0  0  0  0  0  0  0  0  0  0  0  0  # atno 8008 bound_to 7997
  155.9031  140.1037  157.1356 H   0  0  0  0  0  0  0  0  0  0  0  0  # atno 8009 bound_to 7997
  154.4046  140.1282  156.4449 H   0  0  0  0  0  0  0  0  0  0  0  0  # atno 8010 bound_to 7997
  139.9393  143.6182  152.2508 H   0  0  0  0  0  0  0  0  0  0  0  0  # atno 10167 bound_to 10162
  156.3396  130.4291  149.7799 H   0  0  0  0  0  0  0  0  0  0  0  0  # atno 10718 bound_to 10713
  153.0378  135.6467  154.1026 H   0  0  0  0  0  0  0  0  0  0  0  0  # atno 10763 bound_to 10752
  154.0738  135.2878  155.3305 H   0  0  0  0  0  0  0  0  0  0  0  0  # atno 10764 bound_to 10752
  154.6576  135.5403  153.8043 H   0  0  0  0  0  0  0  0  0  0  0  0  # atno 10765 bound_to 10752
  141.0879  133.6638  156.3901 H   0  0  0  0  0  0  0  0  0  0  0  0  # atno 11005 bound_to 11000
  144.6800  139.9954  143.7484 LP  0  0  0  0  0  0  0  0  0  0  0  0  # atno 17320 bound_to 7965
  146.0099  139.3161  143.0876 LP  0  0  0  0  0  0  0  0  0  0  0  0  # atno 17321 bound_to 7965
  139.6718  144.7660  151.1769 LP  0  0  0  0  0  0  0  0  0  0  0  0  # atno 17342 bound_to 10162
  140.7615  143.5854  150.8851 LP  0  0  0  0  0  0  0  0  0  0  0  0  # atno 17343 bound_to 10162
  156.5040  130.8142  151.3143 LP  0  0  0  0  0  0  0  0  0  0  0  0  # atno 17370 bound_to 10713
  157.7444  130.9935  150.2675 LP  0  0  0  0  0  0  0  0  0  0  0  0  # atno 17371 bound_to 10713
  140.5319  134.6204  157.5353 LP  0  0  0  0  0  0  0  0  0  0  0  0  # atno 17394 bound_to 11000
  139.9700  134.7308  156.0060 LP  0  0  0  0  0  0  0  0  0  0  0  0  # atno 17395 bound_to 11000

$$$$
