AV-unprocessed.smi:551|AV-procd|sdf|2898|dock3
  -GOLD-   2262023393D 1   1.00000     0.00000
 Structure written by MMmdl.
 39 40  0  0  0  0  0  0  0  0  2 V2000
  150.8216  139.1278  154.7474 C   0  0  0  0  0  0  0  0  0  0  0  0
  150.0368  140.3350  155.2882 C   0  0  2  0  0  0  0  0  0  0  0  0
  149.4196  141.1836  154.1517 C   0  0  0  0  0  0  0  0  0  0  0  0
  147.9555  141.2389  154.2096 N   0  0  0  0  0  0  0  0  0  0  0  0
  147.1850  141.9692  155.0781 C   0  0  0  0  0  0  0  0  0  0  0  0
  145.8784  141.7048  154.7580 C   0  0  0  0  0  0  0  0  0  0  0  0
  145.9067  140.8274  153.7069 N   0  3  0  0  0  0  0  0  0  0  0  0
  147.1709  140.5472  153.3735 C   0  0  0  0  0  0  0  0  0  0  0  0
  150.8490  141.1239  156.2193 N   0  0  0  0  0  0  0  0  0  0  0  0
  150.4833  141.6027  157.4209 C   0  0  0  0  0  0  0  0  0  0  0  0
  149.3632  141.4414  157.9054 O   0  0  0  0  0  0  0  0  0  0  0  0
  151.5592  142.3669  158.2027 C   0  0  0  0  0  0  0  0  0  0  0  0
  151.9046  141.6318  159.5157 C   0  0  0  0  0  0  0  0  0  0  0  0
  152.9735  142.3918  160.3175 C   0  0  0  0  0  0  0  0  0  0  0  0
  152.5319  143.8357  160.6028 C   0  0  0  0  0  0  0  0  0  0  0  0
  152.1781  144.5765  159.3033 C   0  0  0  0  0  0  0  0  0  0  0  0
  151.1113  143.8142  158.5000 C   0  0  0  0  0  0  0  0  0  0  0  0
  150.1774  138.4800  154.1523 H   0  0  0  0  0  0  0  0  0  0  0  0
  151.2292  138.5267  155.5608 H   0  0  0  0  0  0  0  0  0  0  0  0
  151.6521  139.4364  154.1120 H   0  0  0  0  0  0  0  0  0  0  0  0
  149.2153  139.9384  155.8858 H   0  0  0  0  0  0  0  0  0  0  0  0
  149.7967  142.2066  154.1643 H   0  0  0  0  0  0  0  0  0  0  0  0
  149.6948  140.7682  153.1813 H   0  0  0  0  0  0  0  0  0  0  0  0
  147.6140  142.6027  155.8416 H   0  0  0  0  0  0  0  0  0  0  0  0
  144.9552  142.0664  155.1876 H   0  0  0  0  0  0  0  0  0  0  0  0
  147.4941  139.8899  152.5860 H   0  0  0  0  0  0  0  0  0  0  0  0
  151.7925  141.3236  155.9193 H   0  0  0  0  0  0  0  0  0  0  0  0
  152.4619  142.4124  157.5905 H   0  0  0  0  0  0  0  0  0  0  0  0
  151.0100  141.5186  160.1305 H   0  0  0  0  0  0  0  0  0  0  0  0
  152.2598  140.6230  159.3005 H   0  0  0  0  0  0  0  0  0  0  0  0
  153.1737  141.8726  161.2553 H   0  0  0  0  0  0  0  0  0  0  0  0
  153.9119  142.3991  159.7617 H   0  0  0  0  0  0  0  0  0  0  0  0
  151.6656  143.8285  161.2655 H   0  0  0  0  0  0  0  0  0  0  0  0
  153.3220  144.3688  161.1321 H   0  0  0  0  0  0  0  0  0  0  0  0
  151.8221  145.5809  159.5342 H   0  0  0  0  0  0  0  0  0  0  0  0
  153.0758  144.6983  158.6959 H   0  0  0  0  0  0  0  0  0  0  0  0
  150.9102  144.3445  157.5682 H   0  0  0  0  0  0  0  0  0  0  0  0
  150.1755  143.8122  159.0614 H   0  0  0  0  0  0  0  0  0  0  0  0
  145.0904  140.4455  153.2458 H   0  0  0  0  0  0  0  0  0  0  0  0
  1  2  1  0  0  0  0
  1 18  1  0  0  0  0
  1 19  1  0  0  0  0
  1 20  1  0  0  0  0
  2  3  1  0  0  0  0
  2  9  1  0  0  0  0
  2 21  1  0  0  0  0
  3  4  1  0  0  0  0
  3 22  1  0  0  0  0
  3 23  1  0  0  0  0
  4  8  1  0  0  0  0
  4  5  1  0  0  0  0
  5  6  2  0  0  0  0
  5 24  1  0  0  0  0
  6  7  1  0  0  0  0
  6 25  1  0  0  0  0
  7  8  2  0  0  0  0
  7 39  1  0  0  0  0
  8 26  1  0  0  0  0
  9 10  1  0  0  0  0
  9 27  1  0  0  0  0
 10 11  2  0  0  0  0
 10 12  1  0  0  0  0
 12 17  1  0  0  0  0
 12 13  1  0  0  0  0
 12 28  1  0  0  0  0
 13 14  1  0  0  0  0
 13 29  1  0  0  0  0
 13 30  1  0  0  0  0
 14 15  1  0  0  0  0
 14 31  1  0  0  0  0
 14 32  1  0  0  0  0
 15 16  1  0  0  0  0
 15 33  1  0  0  0  0
 15 34  1  0  0  0  0
 16 17  1  0  0  0  0
 16 35  1  0  0  0  0
 16 36  1  0  0  0  0
 17 37  1  0  0  0  0
 17 38  1  0  0  0  0
M  CHG  1   7   1
M  END
> <s_m_source_file>
AV-unprocessed.smi

> <i_m_source_file_index>
551

> <i_lp_mmshare_version>
43012

> <i_f3d_flags>
0

> <s_epik_input>
W2NIXTFuW2NIXVtjSF1uMVtDSDJdW0NAQEhdKFtDSDNdKVtOSF1DKD1PKVtDSF0yW0NIMl1bQ0gyXVtDSDJdW0NIMl1bQ0gyXTI=

> <s_epik_cmdline>
J2VwaWtfcHl0aG9uJywgJy1waCcsICc3LjAnLCAnLXRuJywgJzgnLCAnLW1hJywgJzIwMCcsICctbWV0YWxfYmluZGluZycsICctaW1hZScsICc8aW5maWxlLm1hZT4nLCAnLW9tYWUnLCAnPG91dGZpbGUubWFlPic=

> <r_lp_tautomer_probability>
1

> <r_epik_Ionization_Penalty>
0.244425

> <r_epik_Ionization_Penalty_Charging>
0

> <r_epik_Ionization_Penalty_Neutral>
0.244425

> <r_epik_State_Penalty>
0.23553

> <r_epik_Charging_Adjusted_Penalty>
0.23553

> <i_epik_Tot_Q>
1

> <i_epik_Tot_abs_Q>
1

> <r_epik_Metal_State_Penalty>
0.528799

> <b_epik_Metal_Only>
0

> <s_lp_Force_Field>
OPLS_2005

> <r_lp_Energy>
14.3189

> <b_lp_Chiralities_Consistent>
1

> <s_lp_Variant>
AV-unprocessed.smi:551-1

> <Gold.Version>
5.8.1

> <Gold.Id.Protein>
6NUR|6NUR_protein|mol2

> <Gold.PLP.Fitness>
46.5482

> <Gold.PLP.PLP>
-36.8756

> <Gold.PLP.part.hbond>
-1.0000

> <Gold.PLP.part.metal>
0.0000

> <Gold.PLP.part.buried>
-0.4069

> <Gold.PLP.part.nonpolar>
-35.6759

> <Gold.PLP.part.repulsive>
0.1738

> <Gold.PLP.ligand.clash>
0.0000

> <Gold.PLP.ligand.torsion>
1.1728

> <Gold.PLP.Chemscore.Hbond>
2.0000

> <Gold.PLP.Chemscore.CHOScore>
1.9882

> <Gold.PLP.Chemscore.Metal>
0.0000

> <Gold.Chemscore.Hbonds>
donor molecule, donor type, donor heavy atom, donor atom, acceptor molecule, acceptor atom, score
      L1  H     7    39       P1 10175  2.00
      L1  C     5    24       P1  8028  1.00
      L1  C     8    26       P1  7957  0.97

> <Gold.PLP.Chemscore.Internal.Correction>
0.0535

> <Gold.Rescore>
     Score         DG    S(hbond)    S(metal)    S(lipo)     H(rot)  DE(clash)    DE(int)     intcor
     14.28     -15.59       0.96        0.00      98.36       1.80       0.12       1.18       ----

> <Gold.Chemscore.Fitness>
14.2785

> <Gold.Chemscore.DG>
-15.5864

> <Gold.Chemscore.ZeroCoef>
-5.4800

> <Gold.Chemscore.Hbond>
0.9595

> <Gold.Chemscore.Metal>
0.0000

> <Gold.Chemscore.Lipo>
98.3550

> <Gold.Chemscore.Internal_Hbond>
0.0000

> <Gold.Chemscore.DEClash>
0.1243

> <Gold.Chemscore.DEInternal>
1.1836

> <Gold.Chemscore.Rot>
1.7991

> <Gold.Chemscore.Internal.Correction>
   9.000000E+99

> <Gold.Chemscore.Hbonds>
donor molecule, donor type, donor heavy atom, donor atom, acceptor molecule, acceptor atom, score
      L1  H     7    39       P1 10175  0.96

> <Gold.Chemscore.Hbond.Weighted>
-3.2047

> <Gold.Chemscore.Metal.Weighted>
-0.0000

> <Gold.Chemscore.Lipo.Weighted>
-11.5075

> <Gold.Chemscore.Internal_Hbond.Weighted>
0.0000

> <Gold.Chemscore.DEClash.Weighted>
0.1243

> <Gold.Chemscore.DEInternal.Weighted>
1.1836

> <Gold.Chemscore.Rot.Weighted>
4.6058

> <Gold.Chemscore.Internal.Correction.Weighted>
   9.000000E+99

> <Gold.Protein.RotatedTorsions>
[ 6907 6896 6895 6894 ] final  103.40 input  -60.11 | X-H torsion
[ 7974 7965 7964 7962 ] final -174.38 input  175.53 | X-H torsion
[ 8008 7997 7996 7995 ] final -155.72 input   59.86 | X-H torsion
[ 10167 10162 10161 10158 ] final   49.62 input  -65.29 | X-H torsion
[ 10718 10713 10712 10709 ] final   29.63 input   66.30 | X-H torsion
[ 10763 10752 10751 10750 ] final  142.94 input  -60.55 | X-H torsion
[ 11005 11000 10999 10996 ] final  169.64 input  -57.11 | X-H torsion

> <Gold.Protein.ActiveResidues>
 VAL166  LYS551  ARG553  GLY616  TRP617  ASP618  TYR619  PRO620  LYS621  CYS622 
 ASP623  PHE694  ASN695  SER759  ASP760  ASP761  ALA762  ILE779  LEU786  VAL792 
 PHE793  MET794  SER795  GLU796  ALA797  LYS798  CYS799  TRP800  GLU811  SER814 

> <Gold.Protein.RotatedAtoms>
  152.5296  133.9832  159.7815 H   0  0  0  0  0  0  0  0  0  0  0  0  # atno 6907 bound_to 6896
  151.0082  133.5983  159.2693 H   0  0  0  0  0  0  0  0  0  0  0  0  # atno 6908 bound_to 6896
  151.3067  135.0790  159.9311 H   0  0  0  0  0  0  0  0  0  0  0  0  # atno 6909 bound_to 6896
  144.7132  140.1480  143.6386 H   0  0  0  0  0  0  0  0  0  0  0  0  # atno 7974 bound_to 7965
  155.7061  140.0772  157.2390 H   0  0  0  0  0  0  0  0  0  0  0  0  # atno 8008 bound_to 7997
  154.4065  140.1638  156.2298 H   0  0  0  0  0  0  0  0  0  0  0  0  # atno 8009 bound_to 7997
  155.9324  140.3390  155.6263 H   0  0  0  0  0  0  0  0  0  0  0  0  # atno 8010 bound_to 7997
  140.2810  144.3156  150.6264 H   0  0  0  0  0  0  0  0  0  0  0  0  # atno 10167 bound_to 10162
  157.2491  130.7106  149.6396 H   0  0  0  0  0  0  0  0  0  0  0  0  # atno 10718 bound_to 10713
  153.9641  135.2957  155.3431 H   0  0  0  0  0  0  0  0  0  0  0  0  # atno 10763 bound_to 10752
  154.7358  135.5047  153.9043 H   0  0  0  0  0  0  0  0  0  0  0  0  # atno 10764 bound_to 10752
  153.0932  135.6713  153.9924 H   0  0  0  0  0  0  0  0  0  0  0  0  # atno 10765 bound_to 10752
  140.2999  134.7604  157.3908 H   0  0  0  0  0  0  0  0  0  0  0  0  # atno 11005 bound_to 11000
  145.9142  139.2506  143.1419 LP  0  0  0  0  0  0  0  0  0  0  0  0  # atno 17320 bound_to 7965
  145.9685  140.8779  143.0174 LP  0  0  0  0  0  0  0  0  0  0  0  0  # atno 17321 bound_to 7965
  140.5812  143.2172  151.7426 LP  0  0  0  0  0  0  0  0  0  0  0  0  # atno 17342 bound_to 10162
  139.4962  144.4078  152.0113 LP  0  0  0  0  0  0  0  0  0  0  0  0  # atno 17343 bound_to 10162
  155.9667  130.4433  150.5417 LP  0  0  0  0  0  0  0  0  0  0  0  0  # atno 17370 bound_to 10713
  157.3297  131.0697  151.1870 LP  0  0  0  0  0  0  0  0  0  0  0  0  # atno 17371 bound_to 10713
  140.1118  134.5335  155.8259 LP  0  0  0  0  0  0  0  0  0  0  0  0  # atno 17394 bound_to 11000
  141.2130  133.6727  156.6704 LP  0  0  0  0  0  0  0  0  0  0  0  0  # atno 17395 bound_to 11000

$$$$
