AV-unprocessed.smi:3118|AV-procd|sdf|11887|dock5
  -GOLD-   2272017273D 1   1.00000     0.00000
 Structure written by MMmdl.
 33 34  0  0  0  0  0  0  0  0  2 V2000
  149.1472  141.3407  155.1881 C   0  0  0  0  0  0  0  0  0  0  0  0
  150.1930  141.1629  156.3053 C   0  0  1  0  0  0  0  0  0  0  0  0
  151.4396  140.3785  155.8495 C   0  0  0  0  0  0  0  0  0  0  0  0
  151.1349  138.9987  155.4571 N   0  0  0  0  0  0  0  0  0  0  0  0
  151.5901  137.8491  156.0500 C   0  0  0  0  0  0  0  0  0  0  0  0
  151.0447  136.8049  155.3484 C   0  0  0  0  0  0  0  0  0  0  0  0
  150.2846  137.3607  154.3544 N   0  3  0  0  0  0  0  0  0  0  0  0
  150.3429  138.6949  154.4200 C   0  0  0  0  0  0  0  0  0  0  0  0
  150.6088  142.4654  156.8186 N   0  0  0  0  0  0  0  0  0  0  0  0
  151.5216  142.6662  157.7820 C   0  0  0  0  0  0  0  0  0  0  0  0
  152.1291  141.7491  158.3358 O   0  0  0  0  0  0  0  0  0  0  0  0
  151.7784  144.1282  158.1711 C   0  0  0  0  0  0  0  0  0  0  0  0
  152.6967  144.3271  159.3909 C   0  0  0  0  0  0  0  0  0  0  0  0
  151.7138  145.3825  159.9064 C   0  0  0  0  0  0  0  0  0  0  0  0
  150.6477  144.7675  158.9952 C   0  0  0  0  0  0  0  0  0  0  0  0
  148.7652  140.3807  154.8407 H   0  0  0  0  0  0  0  0  0  0  0  0
  149.5708  141.8627  154.3294 H   0  0  0  0  0  0  0  0  0  0  0  0
  148.2895  141.9171  155.5361 H   0  0  0  0  0  0  0  0  0  0  0  0
  149.7286  140.6018  157.1187 H   0  0  0  0  0  0  0  0  0  0  0  0
  151.9204  140.8766  155.0058 H   0  0  0  0  0  0  0  0  0  0  0  0
  152.1769  140.3331  156.6525 H   0  0  0  0  0  0  0  0  0  0  0  0
  152.2487  137.8599  156.9066 H   0  0  0  0  0  0  0  0  0  0  0  0
  151.1386  135.7366  155.4784 H   0  0  0  0  0  0  0  0  0  0  0  0
  149.8432  139.3888  153.7675 H   0  0  0  0  0  0  0  0  0  0  0  0
  150.1619  143.2778  156.4183 H   0  0  0  0  0  0  0  0  0  0  0  0
  152.0771  144.7571  157.3301 H   0  0  0  0  0  0  0  0  0  0  0  0
  152.7674  143.4618  160.0522 H   0  0  0  0  0  0  0  0  0  0  0  0
  153.6838  144.7233  159.1507 H   0  0  0  0  0  0  0  0  0  0  0  0
  151.4934  145.3173  160.9723 H   0  0  0  0  0  0  0  0  0  0  0  0
  151.9892  146.3958  159.6104 H   0  0  0  0  0  0  0  0  0  0  0  0
  150.0533  145.5017  158.4503 H   0  0  0  0  0  0  0  0  0  0  0  0
  150.0118  144.0489  159.5159 H   0  0  0  0  0  0  0  0  0  0  0  0
  149.7536  136.8395  153.6677 H   0  0  0  0  0  0  0  0  0  0  0  0
  1  2  1  0  0  0  0
  1 16  1  0  0  0  0
  1 17  1  0  0  0  0
  1 18  1  0  0  0  0
  2  3  1  0  0  0  0
  2  9  1  0  0  0  0
  2 19  1  0  0  0  0
  3  4  1  0  0  0  0
  3 20  1  0  0  0  0
  3 21  1  0  0  0  0
  4  8  1  0  0  0  0
  4  5  1  0  0  0  0
  5  6  2  0  0  0  0
  5 22  1  0  0  0  0
  6  7  1  0  0  0  0
  6 23  1  0  0  0  0
  7  8  2  0  0  0  0
  7 33  1  0  0  0  0
  8 24  1  0  0  0  0
  9 10  1  0  0  0  0
  9 25  1  0  0  0  0
 10 11  2  0  0  0  0
 10 12  1  0  0  0  0
 12 15  1  0  0  0  0
 12 13  1  0  0  0  0
 12 26  1  0  0  0  0
 13 14  1  0  0  0  0
 13 27  1  0  0  0  0
 13 28  1  0  0  0  0
 14 15  1  0  0  0  0
 14 29  1  0  0  0  0
 14 30  1  0  0  0  0
 15 31  1  0  0  0  0
 15 32  1  0  0  0  0
M  CHG  1   7   1
M  END
> <s_m_source_file>
AV-unprocessed.smi

> <i_m_source_file_index>
3118

> <i_lp_mmshare_version>
43012

> <i_f3d_flags>
0

> <s_epik_input>
W0NIMl0xW0NIMl1bQ0gyXVtDSF0xQyg9TylbTkhdW0NASF0oW0NIM10pW0NIMl1uMltjSF1bY0hdbltjSF0y

> <s_epik_cmdline>
J2VwaWtfcHl0aG9uJywgJy1waCcsICc3LjAnLCAnLXRuJywgJzgnLCAnLW1hJywgJzIwMCcsICctbWV0YWxfYmluZGluZycsICctaW1hZScsICc8aW5maWxlLm1hZT4nLCAnLW9tYWUnLCAnPG91dGZpbGUubWFlPic=

> <r_lp_tautomer_probability>
1

> <r_epik_Ionization_Penalty>
0.244425

> <r_epik_Ionization_Penalty_Charging>
0

> <r_epik_Ionization_Penalty_Neutral>
0.244425

> <r_epik_State_Penalty>
0.23553

> <r_epik_Charging_Adjusted_Penalty>
0.23553

> <i_epik_Tot_Q>
1

> <i_epik_Tot_abs_Q>
1

> <r_epik_Metal_State_Penalty>
0.5288

> <b_epik_Metal_Only>
0

> <s_lp_Force_Field>
OPLS_2005

> <r_lp_Energy>
14.8718

> <b_lp_Chiralities_Consistent>
1

> <s_lp_Variant>
AV-unprocessed.smi:3118-2

> <Gold.Version>
5.8.1

> <Gold.Id.Protein>
6NUR|6NUR_protein|mol2

> <Gold.PLP.Fitness>
49.2767

> <Gold.PLP.PLP>
-37.3615

> <Gold.PLP.part.hbond>
-2.8349

> <Gold.PLP.part.metal>
0.0000

> <Gold.PLP.part.buried>
-3.1762

> <Gold.PLP.part.nonpolar>
-31.9201

> <Gold.PLP.part.repulsive>
0.1277

> <Gold.PLP.ligand.clash>
0.0000

> <Gold.PLP.ligand.torsion>
0.2506

> <Gold.PLP.Chemscore.Hbond>
3.0000

> <Gold.PLP.Chemscore.CHOScore>
1.0000

> <Gold.PLP.Chemscore.Metal>
0.0000

> <Gold.Chemscore.Hbonds>
donor molecule, donor type, donor heavy atom, donor atom, acceptor molecule, acceptor atom, score
      L1  H     7    33       P1  7948  1.98
      L1  H     9    25       P1  8028  0.91
      L1  C     8    24       P1  7957  0.59

> <Gold.PLP.Chemscore.Internal.Correction>
0.4164

> <Gold.Rescore>
     Score         DG    S(hbond)    S(metal)    S(lipo)     H(rot)  DE(clash)    DE(int)     intcor
     14.33     -16.54       1.91        0.00      80.65       1.86       0.65       1.56       ----

> <Gold.Chemscore.Fitness>
14.3307

> <Gold.Chemscore.DG>
-16.5370

> <Gold.Chemscore.ZeroCoef>
-5.4800

> <Gold.Chemscore.Hbond>
1.9078

> <Gold.Chemscore.Metal>
0.0000

> <Gold.Chemscore.Lipo>
80.6533

> <Gold.Chemscore.Internal_Hbond>
0.0000

> <Gold.Chemscore.DEClash>
0.6471

> <Gold.Chemscore.DEInternal>
1.5593

> <Gold.Chemscore.Rot>
1.8561

> <Gold.Chemscore.Internal.Correction>
   9.000000E+99

> <Gold.Chemscore.Hbonds>
donor molecule, donor type, donor heavy atom, donor atom, acceptor molecule, acceptor atom, score
      L1  H     7    33       P1  7948  0.55
      L1  H     9    25       P1  8028  0.89

> <Gold.Chemscore.Hbond.Weighted>
-6.3722

> <Gold.Chemscore.Metal.Weighted>
-0.0000

> <Gold.Chemscore.Lipo.Weighted>
-9.4364

> <Gold.Chemscore.Internal_Hbond.Weighted>
0.0000

> <Gold.Chemscore.DEClash.Weighted>
0.6471

> <Gold.Chemscore.DEInternal.Weighted>
1.5593

> <Gold.Chemscore.Rot.Weighted>
4.7516

> <Gold.Chemscore.Internal.Correction.Weighted>
   9.000000E+99

> <Gold.Protein.RotatedTorsions>
[ 6907 6896 6895 6894 ] final    5.88 input  -60.11 | X-H torsion
[ 7974 7965 7964 7962 ] final  127.90 input  175.53 | X-H torsion
[ 8008 7997 7996 7995 ] final  169.52 input   59.86 | X-H torsion
[ 10167 10162 10161 10158 ] final -167.09 input  -65.29 | X-H torsion
[ 10718 10713 10712 10709 ] final -143.20 input   66.30 | X-H torsion
[ 10763 10752 10751 10750 ] final -100.45 input  -60.55 | X-H torsion
[ 11005 11000 10999 10996 ] final    9.46 input  -57.11 | X-H torsion

> <Gold.Protein.ActiveResidues>
 VAL166  LYS551  ARG553  GLY616  TRP617  ASP618  TYR619  PRO620  LYS621  CYS622 
 ASP623  PHE694  ASN695  SER759  ASP760  ASP761  ALA762  ILE779  LEU786  VAL792 
 PHE793  MET794  SER795  GLU796  ALA797  LYS798  CYS799  TRP800  GLU811  SER814 

> <Gold.Protein.RotatedAtoms>
  151.6647  135.0984  160.0186 H   0  0  0  0  0  0  0  0  0  0  0  0  # atno 6907 bound_to 6896
  152.3926  133.6696  159.6258 H   0  0  0  0  0  0  0  0  0  0  0  0  # atno 6908 bound_to 6896
  150.7839  133.8845  159.3336 H   0  0  0  0  0  0  0  0  0  0  0  0  # atno 6909 bound_to 6896
  145.0454  139.3927  143.5081 H   0  0  0  0  0  0  0  0  0  0  0  0  # atno 7974 bound_to 7965
  156.1449  140.1562  156.8862 H   0  0  0  0  0  0  0  0  0  0  0  0  # atno 8008 bound_to 7997
  154.5020  140.0823  156.7855 H   0  0  0  0  0  0  0  0  0  0  0  0  # atno 8009 bound_to 7997
  155.4007  140.3414  155.4259 H   0  0  0  0  0  0  0  0  0  0  0  0  # atno 8010 bound_to 7997
  139.6072  144.0889  152.1805 H   0  0  0  0  0  0  0  0  0  0  0  0  # atno 10167 bound_to 10162
  156.3551  130.7709  151.1868 H   0  0  0  0  0  0  0  0  0  0  0  0  # atno 10718 bound_to 10713
  154.7580  135.4935  153.9410 H   0  0  0  0  0  0  0  0  0  0  0  0  # atno 10763 bound_to 10752
  153.1218  135.6733  153.9331 H   0  0  0  0  0  0  0  0  0  0  0  0  # atno 10764 bound_to 10752
  153.9061  135.3104  155.3427 H   0  0  0  0  0  0  0  0  0  0  0  0  # atno 10765 bound_to 10752
  140.5255  134.0517  155.7857 H   0  0  0  0  0  0  0  0  0  0  0  0  # atno 11005 bound_to 11000
  146.3513  140.0077  142.8670 LP  0  0  0  0  0  0  0  0  0  0  0  0  # atno 17320 bound_to 7965
  145.1594  140.9665  143.4386 LP  0  0  0  0  0  0  0  0  0  0  0  0  # atno 17321 bound_to 7965
  140.0499  144.5941  150.7344 LP  0  0  0  0  0  0  0  0  0  0  0  0  # atno 17342 bound_to 10162
  140.7293  143.2671  151.4009 LP  0  0  0  0  0  0  0  0  0  0  0  0  # atno 17343 bound_to 10162
  157.7466  131.0416  150.4655 LP  0  0  0  0  0  0  0  0  0  0  0  0  # atno 17370 bound_to 10713
  156.4856  130.4083  149.6436 LP  0  0  0  0  0  0  0  0  0  0  0  0  # atno 17371 bound_to 10713
  141.1311  133.9301  157.2534 LP  0  0  0  0  0  0  0  0  0  0  0  0  # atno 17394 bound_to 11000
  139.9582  135.0160  156.9189 LP  0  0  0  0  0  0  0  0  0  0  0  0  # atno 17395 bound_to 11000

$$$$
