AV-unprocessed.smi:1591|AV-procd|sdf|6399|dock6
  -GOLD-   22720 7 33D 1   1.00000     0.00000
 Structure written by MMmdl.
 51 54  0  0  0  0  0  0  0  0  2 V2000
  150.0441  134.4726  155.0916 C   0  0  0  0  0  0  0  0  0  0  0  0
  149.7203  135.9626  154.9021 C   0  0  0  0  0  0  0  0  0  0  0  0
  149.6039  136.7521  156.2300 C   0  0  2  0  0  0  0  0  0  0  0  0
  148.5344  136.1632  157.0394 N   0  0  0  0  0  0  0  0  0  0  0  0
  148.6534  135.1263  157.8833 C   0  0  0  0  0  0  0  0  0  0  0  0
  149.6867  134.4724  158.0213 O   0  0  0  0  0  0  0  0  0  0  0  0
  147.4086  134.7910  158.7091 C   0  0  0  0  0  0  0  0  0  0  0  0
  147.4960  135.3909  160.0491 N   0  0  0  0  0  0  0  0  0  0  0  0
  147.3146  134.5325  161.1484 C   0  0  0  0  0  0  0  0  0  0  0  0
  147.3399  134.9845  162.4162 C   0  0  0  0  0  0  0  0  0  0  0  0
  147.5626  136.4079  162.6360 C   0  0  0  0  0  0  0  0  0  0  0  0
  147.5878  136.8390  163.7871 O   0  0  0  0  0  0  0  0  0  0  0  0
  147.7339  137.2004  161.5377 N   0  5  0  0  0  0  0  0  0  0  0  0
  147.7031  136.7269  160.2531 C   0  0  0  0  0  0  0  0  0  0  0  0
  147.8550  137.4623  159.2776 O   0  0  0  0  0  0  0  0  0  0  0  0
  149.3885  138.2974  156.0785 C   0  0  0  0  0  0  0  0  0  0  0  0
  150.3908  138.9348  155.0719 C   0  0  0  0  0  0  0  0  0  0  0  0
  150.1345  140.4516  154.9326 C   0  0  1  0  0  0  0  0  0  0  0  0
  148.7026  140.6915  154.4120 C   0  0  0  0  0  0  0  0  0  0  0  0
  147.6939  140.0995  155.4169 C   0  0  2  0  0  0  0  0  0  0  0  0
  147.8575  140.7822  156.7883 C   0  0  0  0  0  0  0  0  0  0  0  0
  149.2905  140.5404  157.3001 C   0  0  2  0  0  0  0  0  0  0  0  0
  150.3067  141.1367  156.3041 C   0  0  0  0  0  0  0  0  0  0  0  0
  149.5435  139.0245  157.4464 C   0  0  0  0  0  0  0  0  0  0  0  0
  147.9453  138.5850  155.5605 C   0  0  0  0  0  0  0  0  0  0  0  0
  150.1864  133.9839  154.1276 H   0  0  0  0  0  0  0  0  0  0  0  0
  149.2412  133.9467  155.6088 H   0  0  0  0  0  0  0  0  0  0  0  0
  150.9597  134.3402  155.6689 H   0  0  0  0  0  0  0  0  0  0  0  0
  150.5100  136.3837  154.2826 H   0  0  0  0  0  0  0  0  0  0  0  0
  148.7992  136.0490  154.3258 H   0  0  0  0  0  0  0  0  0  0  0  0
  150.5562  136.6152  156.7455 H   0  0  0  0  0  0  0  0  0  0  0  0
  147.6378  136.6252  156.9986 H   0  0  0  0  0  0  0  0  0  0  0  0
  146.5125  135.1451  158.1964 H   0  0  0  0  0  0  0  0  0  0  0  0
  147.2961  133.7072  158.7621 H   0  0  0  0  0  0  0  0  0  0  0  0
  147.1470  133.4952  160.8977 H   0  0  0  0  0  0  0  0  0  0  0  0
  147.1954  134.3118  163.2485 H   0  0  0  0  0  0  0  0  0  0  0  0
  151.4182  138.7753  155.3992 H   0  0  0  0  0  0  0  0  0  0  0  0
  150.3063  138.4648  154.0914 H   0  0  0  0  0  0  0  0  0  0  0  0
  150.8499  140.8738  154.2263 H   0  0  0  0  0  0  0  0  0  0  0  0
  148.5217  141.7587  154.2786 H   0  0  0  0  0  0  0  0  0  0  0  0
  148.5738  140.2311  153.4315 H   0  0  0  0  0  0  0  0  0  0  0  0
  146.6802  140.2641  155.0501 H   0  0  0  0  0  0  0  0  0  0  0  0
  147.6589  141.8516  156.7057 H   0  0  0  0  0  0  0  0  0  0  0  0
  147.1300  140.3864  157.4979 H   0  0  0  0  0  0  0  0  0  0  0  0
  149.4120  141.0218  158.2709 H   0  0  0  0  0  0  0  0  0  0  0  0
  151.3240  140.9980  156.6720 H   0  0  0  0  0  0  0  0  0  0  0  0
  150.1567  142.2130  156.2104 H   0  0  0  0  0  0  0  0  0  0  0  0
  148.8556  138.6012  158.1797 H   0  0  0  0  0  0  0  0  0  0  0  0
  150.5459  138.8891  157.8505 H   0  0  0  0  0  0  0  0  0  0  0  0
  147.7753  138.1189  154.5898 H   0  0  0  0  0  0  0  0  0  0  0  0
  147.2079  138.1500  156.2367 H   0  0  0  0  0  0  0  0  0  0  0  0
  1  2  1  0  0  0  0
  1 26  1  0  0  0  0
  1 27  1  0  0  0  0
  1 28  1  0  0  0  0
  2  3  1  0  0  0  0
  2 29  1  0  0  0  0
  2 30  1  0  0  0  0
  3  4  1  0  0  0  0
  3 16  1  0  0  0  0
  3 31  1  0  0  0  0
  4  5  1  0  0  0  0
  4 32  1  0  0  0  0
  5  6  2  0  0  0  0
  5  7  1  0  0  0  0
  7  8  1  0  0  0  0
  7 33  1  0  0  0  0
  7 34  1  0  0  0  0
  8 14  1  0  0  0  0
  8  9  1  0  0  0  0
  9 10  2  0  0  0  0
  9 35  1  0  0  0  0
 10 11  1  0  0  0  0
 10 36  1  0  0  0  0
 11 12  2  0  0  0  0
 11 13  1  0  0  0  0
 13 14  1  0  0  0  0
 14 15  2  0  0  0  0
 16 24  1  0  0  0  0
 16 25  1  0  0  0  0
 16 17  1  0  0  0  0
 17 18  1  0  0  0  0
 17 37  1  0  0  0  0
 17 38  1  0  0  0  0
 18 23  1  0  0  0  0
 18 19  1  0  0  0  0
 18 39  1  0  0  0  0
 19 20  1  0  0  0  0
 19 40  1  0  0  0  0
 19 41  1  0  0  0  0
 20 21  1  0  0  0  0
 20 25  1  0  0  0  0
 20 42  1  0  0  0  0
 21 22  1  0  0  0  0
 21 43  1  0  0  0  0
 21 44  1  0  0  0  0
 22 23  1  0  0  0  0
 22 24  1  0  0  0  0
 22 45  1  0  0  0  0
 23 46  1  0  0  0  0
 23 47  1  0  0  0  0
 24 48  1  0  0  0  0
 24 49  1  0  0  0  0
 25 50  1  0  0  0  0
 25 51  1  0  0  0  0
M  CHG  1  13  -1
M  END
> <s_m_source_file>
AV-unprocessed.smi

> <i_m_source_file_index>
1591

> <i_lp_mmshare_version>
43012

> <i_f3d_flags>
0

> <s_epik_input>
W0NIMl0xW0NASF0oW0NIMl0yKVtDSDJdW0NASF0oW0NIMl0zKVtDSDJdW0NAQEhdMVtDSDJdQzIzW0NASF0oW0NIMl1bQ0gzXSlbTkhdQyg9TylbQ0gyXW40W2NIXVtjSF1jKD1PKVtuSF1jND1P

> <s_epik_cmdline>
J2VwaWtfcHl0aG9uJywgJy1waCcsICc3LjAnLCAnLXRuJywgJzgnLCAnLW1hJywgJzIwMCcsICctbWV0YWxfYmluZGluZycsICctaW1hZScsICc8aW5maWxlLm1hZT4nLCAnLW9tYWUnLCAnPG91dGZpbGUubWFlPic=

> <r_lp_tautomer_probability>
0.999537

> <r_epik_Ionization_Penalty>
3.13902

> <r_epik_Ionization_Penalty_Charging>
2.97334e-08

> <r_epik_Ionization_Penalty_Neutral>
3.13902

> <r_epik_State_Penalty>
3.13814

> <r_epik_Charging_Adjusted_Penalty>
3.13814

> <i_epik_Tot_Q>
-1

> <i_epik_Tot_abs_Q>
1

> <r_epik_Metal_State_Penalty>
0.465244

> <b_epik_Metal_Only>
1

> <s_lp_Force_Field>
OPLS_2005

> <r_lp_Energy>
48.864

> <b_lp_Chiralities_Consistent>
1

> <s_lp_Variant>
AV-unprocessed.smi:1591-3

> <Gold.Version>
5.8.1

> <Gold.Id.Protein>
6NUR|6NUR_protein|mol2

> <Gold.PLP.Fitness>
42.6317

> <Gold.PLP.PLP>
-32.0175

> <Gold.PLP.part.hbond>
-3.7741

> <Gold.PLP.part.metal>
0.0000

> <Gold.PLP.part.buried>
-1.0995

> <Gold.PLP.part.nonpolar>
-27.2924

> <Gold.PLP.part.repulsive>
0.0705

> <Gold.PLP.ligand.clash>
0.0000

> <Gold.PLP.ligand.torsion>
0.8499

> <Gold.PLP.Chemscore.Hbond>
4.0752

> <Gold.PLP.Chemscore.CHOScore>
0.0000

> <Gold.PLP.Chemscore.Metal>
0.0000

> <Gold.Chemscore.Hbonds>
donor molecule, donor type, donor heavy atom, donor atom, acceptor molecule, acceptor atom, score
      P1  H  6896  6907       L1     6  1.00
      P1  H  6931  6943       L1    13  2.00
      P1  H  6934  6947       L1    13  0.88

> <Gold.PLP.Chemscore.Internal.Correction>
0.0884

> <Gold.Rescore>
     Score         DG    S(hbond)    S(metal)    S(lipo)     H(rot)  DE(clash)    DE(int)     intcor
      7.89     -14.27       1.70        0.00      70.00       1.99       1.58       4.80       ----

> <Gold.Chemscore.Fitness>
7.8912

> <Gold.Chemscore.DG>
-14.2667

> <Gold.Chemscore.ZeroCoef>
-5.4800

> <Gold.Chemscore.Hbond>
1.7006

> <Gold.Chemscore.Metal>
0.0000

> <Gold.Chemscore.Lipo>
70.0025

> <Gold.Chemscore.Internal_Hbond>
0.0000

> <Gold.Chemscore.DEClash>
1.5752

> <Gold.Chemscore.DEInternal>
4.8003

> <Gold.Chemscore.Rot>
1.9858

> <Gold.Chemscore.Internal.Correction>
   9.000000E+99

> <Gold.Chemscore.Hbonds>
donor molecule, donor type, donor heavy atom, donor atom, acceptor molecule, acceptor atom, score
      P1  H  6896  6907       L1     6  0.98
      P1  H  6931  6943       L1    13  0.49
      P1  H  6934  6947       L1    13  0.03

> <Gold.Chemscore.Hbond.Weighted>
-5.6800

> <Gold.Chemscore.Metal.Weighted>
-0.0000

> <Gold.Chemscore.Lipo.Weighted>
-8.1903

> <Gold.Chemscore.Internal_Hbond.Weighted>
0.0000

> <Gold.Chemscore.DEClash.Weighted>
1.5752

> <Gold.Chemscore.DEInternal.Weighted>
4.8003

> <Gold.Chemscore.Rot.Weighted>
5.0836

> <Gold.Chemscore.Internal.Correction.Weighted>
   9.000000E+99

> <Gold.Protein.RotatedTorsions>
[ 6907 6896 6895 6894 ] final -102.70 input  -60.11 | X-H torsion
[ 7974 7965 7964 7962 ] final   39.24 input  175.53 | X-H torsion
[ 8008 7997 7996 7995 ] final   39.51 input   59.86 | X-H torsion
[ 10167 10162 10161 10158 ] final -171.48 input  -65.29 | X-H torsion
[ 10718 10713 10712 10709 ] final -120.51 input   66.30 | X-H torsion
[ 10763 10752 10751 10750 ] final  120.79 input  -60.55 | X-H torsion
[ 11005 11000 10999 10996 ] final   39.30 input  -57.11 | X-H torsion

> <Gold.Protein.ActiveResidues>
 VAL166  LYS551  ARG553  GLY616  TRP617  ASP618  TYR619  PRO620  LYS621  CYS622 
 ASP623  PHE694  ASN695  SER759  ASP760  ASP761  ALA762  ILE779  LEU786  VAL792 
 PHE793  MET794  SER795  GLU796  ALA797  LYS798  CYS799  TRP800  GLU811  SER814 

> <Gold.Protein.RotatedAtoms>
  150.7207  134.0541  159.3808 H   0  0  0  0  0  0  0  0  0  0  0  0  # atno 6907 bound_to 6896
  151.8519  135.0552  160.0469 H   0  0  0  0  0  0  0  0  0  0  0  0  # atno 6908 bound_to 6896
  152.2784  133.5411  159.5518 H   0  0  0  0  0  0  0  0  0  0  0  0  # atno 6909 bound_to 6896
  146.1000  139.5676  142.9420 H   0  0  0  0  0  0  0  0  0  0  0  0  # atno 7974 bound_to 7965
  155.2379  140.3343  155.4295 H   0  0  0  0  0  0  0  0  0  0  0  0  # atno 8008 bound_to 7997
  156.2268  140.1833  156.7388 H   0  0  0  0  0  0  0  0  0  0  0  0  # atno 8009 bound_to 7997
  154.5912  140.0638  156.9226 H   0  0  0  0  0  0  0  0  0  0  0  0  # atno 8010 bound_to 7997
  139.5800  144.1445  152.1502 H   0  0  0  0  0  0  0  0  0  0  0  0  # atno 10167 bound_to 10162
  156.1264  130.6362  150.9549 H   0  0  0  0  0  0  0  0  0  0  0  0  # atno 10718 bound_to 10713
  153.6040  135.3443  155.2955 H   0  0  0  0  0  0  0  0  0  0  0  0  # atno 10763 bound_to 10752
  154.8631  135.4234  154.2382 H   0  0  0  0  0  0  0  0  0  0  0  0  # atno 10764 bound_to 10752
  153.3217  135.7038  153.7096 H   0  0  0  0  0  0  0  0  0  0  0  0  # atno 10765 bound_to 10752
  140.2041  134.3834  155.8081 H   0  0  0  0  0  0  0  0  0  0  0  0  # atno 11005 bound_to 11000
  145.5873  141.0374  143.2089 LP  0  0  0  0  0  0  0  0  0  0  0  0  # atno 17320 bound_to 7965
  144.7425  139.7410  143.7305 LP  0  0  0  0  0  0  0  0  0  0  0  0  # atno 17321 bound_to 7965
  140.0996  144.5551  150.6998 LP  0  0  0  0  0  0  0  0  0  0  0  0  # atno 17342 bound_to 10162
  140.7079  143.2482  151.4670 LP  0  0  0  0  0  0  0  0  0  0  0  0  # atno 17343 bound_to 10162
  157.6445  131.0906  150.8182 LP  0  0  0  0  0  0  0  0  0  0  0  0  # atno 17370 bound_to 10713
  156.8272  130.5004  149.5336 LP  0  0  0  0  0  0  0  0  0  0  0  0  # atno 17371 bound_to 10713
  141.2227  133.7109  156.8308 LP  0  0  0  0  0  0  0  0  0  0  0  0  # atno 17394 bound_to 11000
  140.2022  134.8889  157.3181 LP  0  0  0  0  0  0  0  0  0  0  0  0  # atno 17395 bound_to 11000

$$$$
