AV-unprocessed.smi:945|AV-procd|sdf|4233|dock5
  -GOLD-   22720 2143D 1   1.00000     0.00000
 Structure written by MMmdl.
 31 32  0  0  0  0  0  0  0  0  1 V2000
  152.0785  145.6904  160.0109 C   0  0  0  0  0  0  0  0  0  0  0  0
  151.9891  144.7523  158.8024 C   0  0  0  0  0  0  0  0  0  0  0  0
  152.2508  143.3284  159.1633 C   0  0  0  0  0  0  0  0  0  0  0  0
  151.9726  142.3017  158.3554 N   0  0  0  0  0  0  0  0  0  0  0  0
  152.2743  141.0645  158.9329 C   0  0  0  0  0  0  0  0  0  0  0  0
  152.0206  139.8009  158.1686 C   0  0  0  0  0  0  0  0  0  0  0  0
  151.7611  140.0712  156.6773 C   0  0  0  0  0  0  0  0  0  0  0  0
  150.4820  140.7378  156.4619 N   0  0  0  0  0  0  0  0  0  0  0  0
  149.7726  140.6985  155.3238 C   0  0  0  0  0  0  0  0  0  0  0  0
  150.1477  140.0908  154.3198 O   0  0  0  0  0  0  0  0  0  0  0  0
  148.4864  141.4557  155.3855 C   0  0  0  0  0  0  0  0  0  0  0  0
  147.2106  140.6941  155.0889 C   0  0  0  0  0  0  0  0  0  0  0  0
  147.7414  141.6879  154.0867 C   0  0  0  0  0  0  0  0  0  0  0  0
  152.7804  141.1700  160.2045 C   0  0  0  0  0  0  0  0  0  0  0  0
  152.8910  142.8289  160.7247 S   0  0  0  0  0  0  0  0  0  0  0  0
  151.8823  146.7217  159.7177 H   0  0  0  0  0  0  0  0  0  0  0  0
  153.0693  145.6546  160.4648 H   0  0  0  0  0  0  0  0  0  0  0  0
  151.3499  145.4171  160.7749 H   0  0  0  0  0  0  0  0  0  0  0  0
  151.0010  144.8250  158.3466 H   0  0  0  0  0  0  0  0  0  0  0  0
  152.7076  145.0577  158.0413 H   0  0  0  0  0  0  0  0  0  0  0  0
  152.8720  139.1270  158.2739 H   0  0  0  0  0  0  0  0  0  0  0  0
  151.1688  139.2746  158.6008 H   0  0  0  0  0  0  0  0  0  0  0  0
  152.5703  140.6669  156.2510 H   0  0  0  0  0  0  0  0  0  0  0  0
  151.7460  139.1304  156.1263 H   0  0  0  0  0  0  0  0  0  0  0  0
  150.1035  141.2596  157.2392 H   0  0  0  0  0  0  0  0  0  0  0  0
  148.4212  142.2439  156.1341 H   0  0  0  0  0  0  0  0  0  0  0  0
  147.2822  139.6385  154.8323 H   0  0  0  0  0  0  0  0  0  0  0  0
  146.3270  140.9685  155.6615 H   0  0  0  0  0  0  0  0  0  0  0  0
  147.2184  142.6359  153.9812 H   0  0  0  0  0  0  0  0  0  0  0  0
  148.1640  141.2911  153.1652 H   0  0  0  0  0  0  0  0  0  0  0  0
  153.0866  140.3740  160.8672 H   0  0  0  0  0  0  0  0  0  0  0  0
  1  2  1  0  0  0  0
  1 16  1  0  0  0  0
  1 17  1  0  0  0  0
  1 18  1  0  0  0  0
  2  3  1  0  0  0  0
  2 19  1  0  0  0  0
  2 20  1  0  0  0  0
  3 15  1  0  0  0  0
  3  4  2  0  0  0  0
  4  5  1  0  0  0  0
  5  6  1  0  0  0  0
  5 14  2  0  0  0  0
  6  7  1  0  0  0  0
  6 21  1  0  0  0  0
  6 22  1  0  0  0  0
  7  8  1  0  0  0  0
  7 23  1  0  0  0  0
  7 24  1  0  0  0  0
  8  9  1  0  0  0  0
  8 25  1  0  0  0  0
  9 10  2  0  0  0  0
  9 11  1  0  0  0  0
 11 13  1  0  0  0  0
 11 12  1  0  0  0  0
 11 26  1  0  0  0  0
 12 13  1  0  0  0  0
 12 27  1  0  0  0  0
 12 28  1  0  0  0  0
 13 29  1  0  0  0  0
 13 30  1  0  0  0  0
 14 15  1  0  0  0  0
 14 31  1  0  0  0  0
M  END
> <s_m_source_file>
AV-unprocessed.smi

> <i_m_source_file_index>
945

> <i_lp_mmshare_version>
43012

> <i_f3d_flags>
0

> <s_epik_input>
W0NIM11bQ0gyXWMxbmMoW2NIXXMxKVtDSDJdW0NIMl1bTkhdQyg9TylbQ0hdMltDSDJdW0NIMl0y

> <s_epik_cmdline>
J2VwaWtfcHl0aG9uJywgJy1waCcsICc3LjAnLCAnLXRuJywgJzgnLCAnLW1hJywgJzIwMCcsICctbWV0YWxfYmluZGluZycsICctaW1hZScsICc8aW5maWxlLm1hZT4nLCAnLW9tYWUnLCAnPG91dGZpbGUubWFlPic=

> <r_epik_Ionization_Penalty>
0.00109668

> <r_epik_Ionization_Penalty_Charging>
0

> <r_epik_Ionization_Penalty_Neutral>
0.00109668

> <r_epik_State_Penalty>
0.000719322

> <r_epik_Charging_Adjusted_Penalty>
0.000719322

> <i_epik_Tot_Q>
0

> <i_epik_Tot_abs_Q>
0

> <r_epik_Metal_State_Penalty>
-0

> <b_epik_Metal_Only>
0

> <s_lp_Force_Field>
OPLS_2005

> <r_lp_Energy>
-3.93776

> <b_lp_Chiralities_Consistent>
1

> <s_lp_Variant>
AV-unprocessed.smi:945-1

> <Gold.Version>
5.8.1

> <Gold.Id.Protein>
6NUR|6NUR_protein|mol2

> <Gold.PLP.Fitness>
38.5964

> <Gold.PLP.PLP>
-36.7131

> <Gold.PLP.part.hbond>
-0.8765

> <Gold.PLP.part.metal>
0.0000

> <Gold.PLP.part.buried>
-4.6422

> <Gold.PLP.part.nonpolar>
-31.5134

> <Gold.PLP.part.repulsive>
0.6703

> <Gold.PLP.ligand.clash>
0.0000

> <Gold.PLP.ligand.torsion>
0.6130

> <Gold.PLP.Chemscore.Hbond>
1.0000

> <Gold.PLP.Chemscore.CHOScore>
0.0000

> <Gold.PLP.Chemscore.Metal>
0.0000

> <Gold.Chemscore.Hbonds>
donor molecule, donor type, donor heavy atom, donor atom, acceptor molecule, acceptor atom, score
      P1  H  7989  7998       L1    10  1.00

> <Gold.PLP.Chemscore.Internal.Correction>
0.1094

> <Gold.Rescore>
     Score         DG    S(hbond)    S(metal)    S(lipo)     H(rot)  DE(clash)    DE(int)     intcor
     15.06     -15.74       0.91        0.00      96.18       1.58       0.09       0.60       ----

> <Gold.Chemscore.Fitness>
15.0615

> <Gold.Chemscore.DG>
-15.7450

> <Gold.Chemscore.ZeroCoef>
-5.4800

> <Gold.Chemscore.Hbond>
0.9122

> <Gold.Chemscore.Metal>
0.0000

> <Gold.Chemscore.Lipo>
96.1762

> <Gold.Chemscore.Internal_Hbond>
0.0000

> <Gold.Chemscore.DEClash>
0.0859

> <Gold.Chemscore.DEInternal>
0.5976

> <Gold.Chemscore.Rot>
1.5760

> <Gold.Chemscore.Internal.Correction>
   9.000000E+99

> <Gold.Chemscore.Hbonds>
donor molecule, donor type, donor heavy atom, donor atom, acceptor molecule, acceptor atom, score
      P1  H  7989  7998       L1    10  0.85

> <Gold.Chemscore.Hbond.Weighted>
-3.0469

> <Gold.Chemscore.Metal.Weighted>
-0.0000

> <Gold.Chemscore.Lipo.Weighted>
-11.2526

> <Gold.Chemscore.Internal_Hbond.Weighted>
0.0000

> <Gold.Chemscore.DEClash.Weighted>
0.0859

> <Gold.Chemscore.DEInternal.Weighted>
0.5976

> <Gold.Chemscore.Rot.Weighted>
4.0346

> <Gold.Chemscore.Internal.Correction.Weighted>
   9.000000E+99

> <Gold.Protein.RotatedTorsions>
[ 6907 6896 6895 6894 ] final  129.98 input  -60.11 | X-H torsion
[ 7974 7965 7964 7962 ] final  -17.44 input  175.53 | X-H torsion
[ 8008 7997 7996 7995 ] final  -37.37 input   59.86 | X-H torsion
[ 10167 10162 10161 10158 ] final  -18.96 input  -65.29 | X-H torsion
[ 10718 10713 10712 10709 ] final  -74.37 input   66.30 | X-H torsion
[ 10763 10752 10751 10750 ] final   51.26 input  -60.55 | X-H torsion
[ 11005 11000 10999 10996 ] final   68.60 input  -57.11 | X-H torsion

> <Gold.Protein.ActiveResidues>
 VAL166  LYS551  ARG553  GLY616  TRP617  ASP618  TYR619  PRO620  LYS621  CYS622 
 ASP623  PHE694  ASN695  SER759  ASP760  ASP761  ALA762  ILE779  LEU786  VAL792 
 PHE793  MET794  SER795  GLU796  ALA797  LYS798  CYS799  TRP800  GLU811  SER814 

> <Gold.Protein.RotatedAtoms>
  152.3571  133.6250  159.5986 H   0  0  0  0  0  0  0  0  0  0  0  0  # atno 6907 bound_to 6896
  150.7576  133.9483  159.3486 H   0  0  0  0  0  0  0  0  0  0  0  0  # atno 6908 bound_to 6896
  151.7326  135.0872  160.0354 H   0  0  0  0  0  0  0  0  0  0  0  0  # atno 6909 bound_to 6896
  146.1941  140.3779  142.8447 H   0  0  0  0  0  0  0  0  0  0  0  0  # atno 7974 bound_to 7965
  154.4055  140.1606  156.2525 H   0  0  0  0  0  0  0  0  0  0  0  0  # atno 8008 bound_to 7997
  155.9106  140.3427  155.6073 H   0  0  0  0  0  0  0  0  0  0  0  0  # atno 8009 bound_to 7997
  155.7340  140.0784  157.2267 H   0  0  0  0  0  0  0  0  0  0  0  0  # atno 8010 bound_to 7997
  140.7264  143.4865  151.0048 H   0  0  0  0  0  0  0  0  0  0  0  0  # atno 10167 bound_to 10162
  156.0245  130.4415  150.2882 H   0  0  0  0  0  0  0  0  0  0  0  0  # atno 10718 bound_to 10713
  152.9785  135.5851  154.4387 H   0  0  0  0  0  0  0  0  0  0  0  0  # atno 10763 bound_to 10752
  154.3991  135.2768  155.2109 H   0  0  0  0  0  0  0  0  0  0  0  0  # atno 10764 bound_to 10752
  154.3948  135.6117  153.5918 H   0  0  0  0  0  0  0  0  0  0  0  0  # atno 10765 bound_to 10752
  139.9702  134.6913  156.0463 H   0  0  0  0  0  0  0  0  0  0  0  0  # atno 11005 bound_to 11000
  144.8544  140.7049  143.6147 LP  0  0  0  0  0  0  0  0  0  0  0  0  # atno 17320 bound_to 7965
  145.3700  139.1661  143.4337 LP  0  0  0  0  0  0  0  0  0  0  0  0  # atno 17321 bound_to 7965
  139.8566  143.7368  152.3175 LP  0  0  0  0  0  0  0  0  0  0  0  0  # atno 17342 bound_to 10162
  139.7569  144.7518  151.0422 LP  0  0  0  0  0  0  0  0  0  0  0  0  # atno 17343 bound_to 10162
  157.0986  131.0189  151.3094 LP  0  0  0  0  0  0  0  0  0  0  0  0  # atno 17370 bound_to 10713
  157.4798  130.7758  149.7403 LP  0  0  0  0  0  0  0  0  0  0  0  0  # atno 17371 bound_to 10713
  141.1381  133.6570  156.3652 LP  0  0  0  0  0  0  0  0  0  0  0  0  # atno 17394 bound_to 11000
  140.5310  134.6212  157.5350 LP  0  0  0  0  0  0  0  0  0  0  0  0  # atno 17395 bound_to 11000

$$$$
