AV-unprocessed.smi:3017|AV-procd|sdf|11477|dock9
  -GOLD-   2272016413D 1   1.00000     0.00000
 Structure written by MMmdl.
 37 38  0  0  0  0  0  0  0  0  1 V2000
  153.3842  142.6604  162.3229 C   0  0  0  0  0  0  0  0  0  0  0  0
  153.2069  142.8727  160.8127 C   0  0  2  0  0  0  0  0  0  0  0  0
  152.2019  144.0029  160.5178 C   0  0  0  0  0  0  0  0  0  0  0  0
  152.0187  144.2131  159.0066 C   0  0  0  0  0  0  0  0  0  0  0  0
  151.5945  142.9097  158.3138 C   0  0  0  0  0  0  0  0  0  0  0  0
  152.5985  141.7777  158.5877 C   0  0  2  0  0  0  0  0  0  0  0  0
  152.0851  140.6033  157.9739 O   0  0  0  0  0  0  0  0  0  0  0  0
  152.3023  140.5262  156.5705 C   0  0  0  0  0  0  0  0  0  0  0  0
  150.9552  140.3945  155.8597 C   0  0  0  0  0  0  0  0  0  0  0  0
  150.8902  139.7660  154.8033 O   0  0  0  0  0  0  0  0  0  0  0  0
  149.9128  141.0096  156.4493 N   0  0  0  0  0  0  0  0  0  0  0  0
  148.5582  141.0417  156.0274 C   0  0  0  0  0  0  0  0  0  0  0  0
  148.3365  140.7809  154.6545 C   0  0  0  0  0  0  0  0  0  0  0  0
  147.1028  140.7794  154.1021 N   0  0  0  0  0  0  0  0  0  0  0  0
  146.0701  141.0423  154.9309 C   0  0  0  0  0  0  0  0  0  0  0  0
  146.2717  141.3035  156.3009 C   0  0  0  0  0  0  0  0  0  0  0  0
  147.5075  141.3033  156.8466 N   0  0  0  0  0  0  0  0  0  0  0  0
  152.7799  141.5705  160.1062 C   0  0  0  0  0  0  0  0  0  0  0  0
  152.4495  142.3532  162.7928 H   0  0  0  0  0  0  0  0  0  0  0  0
  153.7170  143.5767  162.8114 H   0  0  0  0  0  0  0  0  0  0  0  0
  154.1285  141.8902  162.5265 H   0  0  0  0  0  0  0  0  0  0  0  0
  154.1751  143.1717  160.4083 H   0  0  0  0  0  0  0  0  0  0  0  0
  151.2380  143.7672  160.9712 H   0  0  0  0  0  0  0  0  0  0  0  0
  152.5391  144.9326  160.9772 H   0  0  0  0  0  0  0  0  0  0  0  0
  151.2738  144.9888  158.8269 H   0  0  0  0  0  0  0  0  0  0  0  0
  152.9517  144.5727  158.5708 H   0  0  0  0  0  0  0  0  0  0  0  0
  150.6045  142.6164  158.6660 H   0  0  0  0  0  0  0  0  0  0  0  0
  151.5040  143.0743  157.2396 H   0  0  0  0  0  0  0  0  0  0  0  0
  153.5536  142.0488  158.1336 H   0  0  0  0  0  0  0  0  0  0  0  0
  152.8034  141.4264  156.2118 H   0  0  0  0  0  0  0  0  0  0  0  0
  152.9291  139.6706  156.3178 H   0  0  0  0  0  0  0  0  0  0  0  0
  150.1139  141.4960  157.3111 H   0  0  0  0  0  0  0  0  0  0  0  0
  149.1597  140.5710  153.9870 H   0  0  0  0  0  0  0  0  0  0  0  0
  145.0798  141.0445  154.4999 H   0  0  0  0  0  0  0  0  0  0  0  0
  145.4417  141.5129  156.9591 H   0  0  0  0  0  0  0  0  0  0  0  0
  153.5248  140.7979  160.2957 H   0  0  0  0  0  0  0  0  0  0  0  0
  151.8452  141.2090  160.5370 H   0  0  0  0  0  0  0  0  0  0  0  0
  1  2  1  0  0  0  0
  1 19  1  0  0  0  0
  1 20  1  0  0  0  0
  1 21  1  0  0  0  0
  2 18  1  0  0  0  0
  2  3  1  0  0  0  0
  2 22  1  0  0  0  0
  3  4  1  0  0  0  0
  3 23  1  0  0  0  0
  3 24  1  0  0  0  0
  4  5  1  0  0  0  0
  4 25  1  0  0  0  0
  4 26  1  0  0  0  0
  5  6  1  0  0  0  0
  5 27  1  0  0  0  0
  5 28  1  0  0  0  0
  6  7  1  0  0  0  0
  6 18  1  0  0  0  0
  6 29  1  0  0  0  0
  7  8  1  0  0  0  0
  8  9  1  0  0  0  0
  8 30  1  0  0  0  0
  8 31  1  0  0  0  0
  9 10  2  0  0  0  0
  9 11  1  0  0  0  0
 11 12  1  0  0  0  0
 11 32  1  0  0  0  0
 12 17  1  0  0  0  0
 12 13  2  0  0  0  0
 13 14  1  0  0  0  0
 13 33  1  0  0  0  0
 14 15  2  0  0  0  0
 15 16  1  0  0  0  0
 15 34  1  0  0  0  0
 16 17  2  0  0  0  0
 16 35  1  0  0  0  0
 18 36  1  0  0  0  0
 18 37  1  0  0  0  0
M  END
> <s_m_source_file>
AV-unprocessed.smi

> <i_m_source_file_index>
3017

> <i_lp_mmshare_version>
43012

> <i_f3d_flags>
0

> <s_epik_input>
W0NIM11bQ0BASF0xW0NIMl1bQ0gyXVtDSDJdW0NASF0oW0NIMl0xKU9bQ0gyXUMoPU8pW05IXWMyW2NIXW5bY0hdW2NIXW4y

> <s_epik_cmdline>
J2VwaWtfcHl0aG9uJywgJy1waCcsICc3LjAnLCAnLXRuJywgJzgnLCAnLW1hJywgJzIwMCcsICctbWV0YWxfYmluZGluZycsICctaW1hZScsICc8aW5maWxlLm1hZT4nLCAnLW9tYWUnLCAnPG91dGZpbGUubWFlPic=

> <r_lp_tautomer_probability>
1

> <r_epik_Ionization_Penalty>
2.89243e-06

> <r_epik_Ionization_Penalty_Charging>
0

> <r_epik_Ionization_Penalty_Neutral>
2.89243e-06

> <r_epik_State_Penalty>
-0

> <r_epik_Charging_Adjusted_Penalty>
0

> <i_epik_Tot_Q>
0

> <i_epik_Tot_abs_Q>
0

> <r_epik_Metal_State_Penalty>
-0

> <b_epik_Metal_Only>
0

> <s_lp_Force_Field>
OPLS_2005

> <r_lp_Energy>
19.9912

> <b_lp_Chiralities_Consistent>
1

> <s_lp_Variant>
AV-unprocessed.smi:3017-3

> <Gold.Version>
5.8.1

> <Gold.Id.Protein>
6NUR|6NUR_protein|mol2

> <Gold.PLP.Fitness>
43.5019

> <Gold.PLP.PLP>
-38.3745

> <Gold.PLP.part.hbond>
-1.0000

> <Gold.PLP.part.metal>
0.0000

> <Gold.PLP.part.buried>
-3.8675

> <Gold.PLP.part.nonpolar>
-33.6108

> <Gold.PLP.part.repulsive>
0.9785

> <Gold.PLP.ligand.clash>
0.0000

> <Gold.PLP.ligand.torsion>
1.0351

> <Gold.PLP.Chemscore.Hbond>
1.0000

> <Gold.PLP.Chemscore.CHOScore>
1.3974

> <Gold.PLP.Chemscore.Metal>
0.0000

> <Gold.Chemscore.Hbonds>
donor molecule, donor type, donor heavy atom, donor atom, acceptor molecule, acceptor atom, score
      P1  H  7989  7998       L1    10  1.00
      L1  C    13    33       P1  7957  0.05
      L1  C    15    34       P1 10175  1.00

> <Gold.PLP.Chemscore.Internal.Correction>
0.0054

> <Gold.Rescore>
     Score         DG    S(hbond)    S(metal)    S(lipo)     H(rot)  DE(clash)    DE(int)     intcor
     14.04     -16.73       0.99        0.00     100.95       1.51       0.11       2.57       ----

> <Gold.Chemscore.Fitness>
14.0436

> <Gold.Chemscore.DG>
-16.7288

> <Gold.Chemscore.ZeroCoef>
-5.4800

> <Gold.Chemscore.Hbond>
0.9906

> <Gold.Chemscore.Metal>
0.0000

> <Gold.Chemscore.Lipo>
100.9464

> <Gold.Chemscore.Internal_Hbond>
0.0000

> <Gold.Chemscore.DEClash>
0.1143

> <Gold.Chemscore.DEInternal>
2.5709

> <Gold.Chemscore.Rot>
1.5119

> <Gold.Chemscore.Internal.Correction>
   9.000000E+99

> <Gold.Chemscore.Hbonds>
donor molecule, donor type, donor heavy atom, donor atom, acceptor molecule, acceptor atom, score
      P1  H  7989  7998       L1    10  0.55

> <Gold.Chemscore.Hbond.Weighted>
-3.3087

> <Gold.Chemscore.Metal.Weighted>
-0.0000

> <Gold.Chemscore.Lipo.Weighted>
-11.8107

> <Gold.Chemscore.Internal_Hbond.Weighted>
0.0000

> <Gold.Chemscore.DEClash.Weighted>
0.1143

> <Gold.Chemscore.DEInternal.Weighted>
2.5709

> <Gold.Chemscore.Rot.Weighted>
3.8706

> <Gold.Chemscore.Internal.Correction.Weighted>
   9.000000E+99

> <Gold.Protein.RotatedTorsions>
[ 6907 6896 6895 6894 ] final  -95.46 input  -60.11 | X-H torsion
[ 7974 7965 7964 7962 ] final   78.50 input  175.53 | X-H torsion
[ 8008 7997 7996 7995 ] final  151.24 input   59.86 | X-H torsion
[ 10167 10162 10161 10158 ] final  102.08 input  -65.29 | X-H torsion
[ 10718 10713 10712 10709 ] final   37.11 input   66.30 | X-H torsion
[ 10763 10752 10751 10750 ] final  -44.76 input  -60.55 | X-H torsion
[ 11005 11000 10999 10996 ] final  -66.21 input  -57.11 | X-H torsion

> <Gold.Protein.ActiveResidues>
 VAL166  LYS551  ARG553  GLY616  TRP617  ASP618  TYR619  PRO620  LYS621  CYS622 
 ASP623  PHE694  ASN695  SER759  ASP760  ASP761  ALA762  ILE779  LEU786  VAL792 
 PHE793  MET794  SER795  GLU796  ALA797  LYS798  CYS799  TRP800  GLU811  SER814 

> <Gold.Protein.RotatedAtoms>
  150.6964  134.1654  159.4191 H   0  0  0  0  0  0  0  0  0  0  0  0  # atno 6907 bound_to 6896
  151.9633  135.0110  160.0558 H   0  0  0  0  0  0  0  0  0  0  0  0  # atno 6908 bound_to 6896
  152.1907  133.4736  159.5043 H   0  0  0  0  0  0  0  0  0  0  0  0  # atno 6909 bound_to 6896
  145.6763  139.2511  143.1840 H   0  0  0  0  0  0  0  0  0  0  0  0  # atno 7974 bound_to 7965
  156.2682  140.2053  156.6144 H   0  0  0  0  0  0  0  0  0  0  0  0  # atno 8008 bound_to 7997
  154.6806  140.0540  157.0286 H   0  0  0  0  0  0  0  0  0  0  0  0  # atno 8009 bound_to 7997
  155.1006  140.3205  155.4551 H   0  0  0  0  0  0  0  0  0  0  0  0  # atno 8010 bound_to 7997
  139.7381  144.7018  151.0617 H   0  0  0  0  0  0  0  0  0  0  0  0  # atno 10167 bound_to 10162
  157.3429  130.7557  149.6924 H   0  0  0  0  0  0  0  0  0  0  0  0  # atno 10718 bound_to 10713
  154.0173  135.6673  153.4770 H   0  0  0  0  0  0  0  0  0  0  0  0  # atno 10763 bound_to 10752
  153.0595  135.5036  154.8056 H   0  0  0  0  0  0  0  0  0  0  0  0  # atno 10764 bound_to 10752
  154.6959  135.3070  154.9377 H   0  0  0  0  0  0  0  0  0  0  0  0  # atno 10765 bound_to 10752
  141.1476  133.6695  156.6105 H   0  0  0  0  0  0  0  0  0  0  0  0  # atno 11005 bound_to 11000
  146.1003  140.7552  142.9552 LP  0  0  0  0  0  0  0  0  0  0  0  0  # atno 17320 bound_to 7965
  144.7040  140.3776  143.7133 LP  0  0  0  0  0  0  0  0  0  0  0  0  # atno 17321 bound_to 7965
  140.7782  143.4958  150.9834 LP  0  0  0  0  0  0  0  0  0  0  0  0  # atno 17342 bound_to 10162
  139.8646  143.7270  152.3171 LP  0  0  0  0  0  0  0  0  0  0  0  0  # atno 17343 bound_to 10162
  155.9710  130.4162  150.4221 LP  0  0  0  0  0  0  0  0  0  0  0  0  # atno 17370 bound_to 10713
  157.2271  131.0496  151.2513 LP  0  0  0  0  0  0  0  0  0  0  0  0  # atno 17371 bound_to 10713
  140.3618  134.7681  157.4539 LP  0  0  0  0  0  0  0  0  0  0  0  0  # atno 17394 bound_to 11000
  140.0779  134.5772  155.8571 LP  0  0  0  0  0  0  0  0  0  0  0  0  # atno 17395 bound_to 11000

$$$$
