AV-unprocessed.smi:2651|AV-procd|sdf|10292|dock9
  -GOLD-   2272014303D 1   1.00000     0.00000
 Structure written by MMmdl.
 43 44  0  0  0  0  0  0  0  0  1 V2000
  151.9592  140.1154  156.2742 C   0  0  0  0  0  0  0  0  0  0  0  0
  151.6402  138.7240  155.8466 C   0  0  0  0  0  0  0  0  0  0  0  0
  150.6292  138.1897  155.0984 C   0  0  0  0  0  0  0  0  0  0  0  0
  150.9355  136.8030  155.0913 C   0  0  0  0  0  0  0  0  0  0  0  0
  150.1038  135.8788  154.4099 N   0  0  0  0  0  0  0  0  0  0  0  0
  149.7594  134.6407  154.8019 C   0  0  0  0  0  0  0  0  0  0  0  0
  150.1381  134.0983  155.8399 O   0  0  0  0  0  0  0  0  0  0  0  0
  148.9351  134.0693  153.9078 N   0  0  0  0  0  0  0  0  0  0  0  0
  148.3011  132.7425  153.9463 C   0  0  1  0  0  0  0  0  0  0  0  0
  149.3872  131.6441  154.0742 C   0  0  0  0  0  0  0  0  0  0  0  0
  147.3644  132.6574  155.1874 C   0  0  0  0  0  0  0  0  0  0  0  0
  148.0807  132.7076  156.4051 O   0  0  0  0  0  0  0  0  0  0  0  0
  147.5022  132.5708  152.6048 C   0  0  0  0  0  0  0  0  0  0  0  0
  146.5349  133.7485  152.3043 C   0  0  0  0  0  0  0  0  0  0  0  0
  145.8008  133.5749  150.9649 C   0  0  0  0  0  0  0  0  0  0  0  0
  145.0323  132.2488  150.9186 C   0  0  0  0  0  0  0  0  0  0  0  0
  145.9750  131.0694  151.1860 C   0  0  0  0  0  0  0  0  0  0  0  0
  146.7122  131.2356  152.5243 C   0  0  0  0  0  0  0  0  0  0  0  0
  152.0371  136.5172  155.7682 N   0  0  0  0  0  0  0  0  0  0  0  0
  152.4942  137.7470  156.2559 O   0  0  0  0  0  0  0  0  0  0  0  0
  151.1175  140.7828  156.0879 H   0  0  0  0  0  0  0  0  0  0  0  0
  152.8221  140.4982  155.7294 H   0  0  0  0  0  0  0  0  0  0  0  0
  152.1876  140.1505  157.3397 H   0  0  0  0  0  0  0  0  0  0  0  0
  149.8032  138.7090  154.6360 H   0  0  0  0  0  0  0  0  0  0  0  0
  149.7153  136.2017  153.5364 H   0  0  0  0  0  0  0  0  0  0  0  0
  148.7049  134.6234  153.0960 H   0  0  0  0  0  0  0  0  0  0  0  0
  148.9670  130.6520  153.9069 H   0  0  0  0  0  0  0  0  0  0  0  0
  149.8387  131.6316  155.0664 H   0  0  0  0  0  0  0  0  0  0  0  0
  150.2011  131.7838  153.3632 H   0  0  0  0  0  0  0  0  0  0  0  0
  146.6482  133.4793  155.1974 H   0  0  0  0  0  0  0  0  0  0  0  0
  146.7686  131.7447  155.1729 H   0  0  0  0  0  0  0  0  0  0  0  0
  148.3091  131.8254  156.6552 H   0  0  0  0  0  0  0  0  0  0  0  0
  148.2279  132.5585  151.7903 H   0  0  0  0  0  0  0  0  0  0  0  0
  145.7979  133.8476  153.1016 H   0  0  0  0  0  0  0  0  0  0  0  0
  147.0757  134.6930  152.2671 H   0  0  0  0  0  0  0  0  0  0  0  0
  145.1136  134.4068  150.8081 H   0  0  0  0  0  0  0  0  0  0  0  0
  146.5202  133.6106  150.1458 H   0  0  0  0  0  0  0  0  0  0  0  0
  144.2350  132.2593  151.6632 H   0  0  0  0  0  0  0  0  0  0  0  0
  144.5503  132.1296  149.9478 H   0  0  0  0  0  0  0  0  0  0  0  0
  145.4100  130.1369  151.1877 H   0  0  0  0  0  0  0  0  0  0  0  0
  146.7008  130.9889  150.3759 H   0  0  0  0  0  0  0  0  0  0  0  0
  147.3799  130.3836  152.6440 H   0  0  0  0  0  0  0  0  0  0  0  0
  145.9884  131.1755  153.3376 H   0  0  0  0  0  0  0  0  0  0  0  0
  1  2  1  0  0  0  0
  1 21  1  0  0  0  0
  1 22  1  0  0  0  0
  1 23  1  0  0  0  0
  2 20  1  0  0  0  0
  2  3  2  0  0  0  0
  3  4  1  0  0  0  0
  3 24  1  0  0  0  0
  4  5  1  0  0  0  0
  4 19  2  0  0  0  0
  5  6  1  0  0  0  0
  5 25  1  0  0  0  0
  6  7  2  0  0  0  0
  6  8  1  0  0  0  0
  8  9  1  0  0  0  0
  8 26  1  0  0  0  0
  9 10  1  0  0  0  0
  9 11  1  0  0  0  0
  9 13  1  0  0  0  0
 10 27  1  0  0  0  0
 10 28  1  0  0  0  0
 10 29  1  0  0  0  0
 11 12  1  0  0  0  0
 11 30  1  0  0  0  0
 11 31  1  0  0  0  0
 12 32  1  0  0  0  0
 13 18  1  0  0  0  0
 13 14  1  0  0  0  0
 13 33  1  0  0  0  0
 14 15  1  0  0  0  0
 14 34  1  0  0  0  0
 14 35  1  0  0  0  0
 15 16  1  0  0  0  0
 15 36  1  0  0  0  0
 15 37  1  0  0  0  0
 16 17  1  0  0  0  0
 16 38  1  0  0  0  0
 16 39  1  0  0  0  0
 17 18  1  0  0  0  0
 17 40  1  0  0  0  0
 17 41  1  0  0  0  0
 18 42  1  0  0  0  0
 18 43  1  0  0  0  0
 19 20  1  0  0  0  0
M  END
> <s_m_source_file>
AV-unprocessed.smi

> <i_m_source_file_index>
2651

> <i_lp_mmshare_version>
43012

> <i_f3d_flags>
0

> <s_epik_input>
W0NIM11jMVtjSF1jKG5vMSlbTkhdQyg9TylbTkhdW0NAQF0oW0NIM10pKFtDSDJdW09IXSlbQ0hdMltDSDJdW0NIMl1bQ0gyXVtDSDJdW0NIMl0y

> <s_epik_cmdline>
J2VwaWtfcHl0aG9uJywgJy1waCcsICc3LjAnLCAnLXRuJywgJzgnLCAnLW1hJywgJzIwMCcsICctbWV0YWxfYmluZGluZycsICctaW1hZScsICc8aW5maWxlLm1hZT4nLCAnLW9tYWUnLCAnPG91dGZpbGUubWFlPic=

> <r_lp_tautomer_probability>
1

> <r_epik_Ionization_Penalty>
2.26451e-05

> <r_epik_Ionization_Penalty_Charging>
0

> <r_epik_Ionization_Penalty_Neutral>
2.26451e-05

> <r_epik_State_Penalty>
-0

> <r_epik_Charging_Adjusted_Penalty>
0

> <i_epik_Tot_Q>
0

> <i_epik_Tot_abs_Q>
0

> <r_epik_Metal_State_Penalty>
-0

> <b_epik_Metal_Only>
0

> <s_lp_Force_Field>
OPLS_2005

> <r_lp_Energy>
17.1045

> <b_lp_Chiralities_Consistent>
1

> <s_lp_Variant>
AV-unprocessed.smi:2651-1

> <Gold.Version>
5.8.1

> <Gold.Id.Protein>
6NUR|6NUR_protein|mol2

> <Gold.PLP.Fitness>
41.2756

> <Gold.PLP.PLP>
-33.0399

> <Gold.PLP.part.hbond>
-4.0000

> <Gold.PLP.part.metal>
0.0000

> <Gold.PLP.part.buried>
-1.8755

> <Gold.PLP.part.nonpolar>
-26.2319

> <Gold.PLP.part.repulsive>
0.1467

> <Gold.PLP.ligand.clash>
0.0000

> <Gold.PLP.ligand.torsion>
0.3861

> <Gold.PLP.Chemscore.Hbond>
2.9920

> <Gold.PLP.Chemscore.CHOScore>
0.0000

> <Gold.PLP.Chemscore.Metal>
0.0000

> <Gold.Chemscore.Hbonds>
donor molecule, donor type, donor heavy atom, donor atom, acceptor molecule, acceptor atom, score
      L1  H     5    25       P1  7948  1.00
      L1  H     8    26       P1  7948  0.95
      P1  H 10752 10765       L1    19  1.00

> <Gold.PLP.Chemscore.Internal.Correction>
0.0318

> <Gold.Rescore>
     Score         DG    S(hbond)    S(metal)    S(lipo)     H(rot)  DE(clash)    DE(int)     intcor
     14.97     -16.37       2.43        0.00      69.51       2.09       0.06       1.34       ----

> <Gold.Chemscore.Fitness>
14.9695

> <Gold.Chemscore.DG>
-16.3706

> <Gold.Chemscore.ZeroCoef>
-5.4800

> <Gold.Chemscore.Hbond>
2.4304

> <Gold.Chemscore.Metal>
0.0000

> <Gold.Chemscore.Lipo>
69.5085

> <Gold.Chemscore.Internal_Hbond>
0.0000

> <Gold.Chemscore.DEClash>
0.0564

> <Gold.Chemscore.DEInternal>
1.3447

> <Gold.Chemscore.Rot>
2.0935

> <Gold.Chemscore.Internal.Correction>
   9.000000E+99

> <Gold.Chemscore.Hbonds>
donor molecule, donor type, donor heavy atom, donor atom, acceptor molecule, acceptor atom, score
      L1  H     5    25       P1  7948  0.26
      L1  H     8    26       P1  7948  0.20
      P1  H 10752 10765       L1    19  0.68

> <Gold.Chemscore.Hbond.Weighted>
-8.1175

> <Gold.Chemscore.Metal.Weighted>
-0.0000

> <Gold.Chemscore.Lipo.Weighted>
-8.1325

> <Gold.Chemscore.Internal_Hbond.Weighted>
0.0000

> <Gold.Chemscore.DEClash.Weighted>
0.0564

> <Gold.Chemscore.DEInternal.Weighted>
1.3447

> <Gold.Chemscore.Rot.Weighted>
5.3594

> <Gold.Chemscore.Internal.Correction.Weighted>
   9.000000E+99

> <Gold.Protein.RotatedTorsions>
[ 6907 6896 6895 6894 ] final   85.00 input  -60.11 | X-H torsion
[ 7974 7965 7964 7962 ] final   77.45 input  175.53 | X-H torsion
[ 8008 7997 7996 7995 ] final  -79.71 input   59.86 | X-H torsion
[ 10167 10162 10161 10158 ] final  -73.99 input  -65.29 | X-H torsion
[ 10718 10713 10712 10709 ] final   47.58 input   66.30 | X-H torsion
[ 10763 10752 10751 10750 ] final -165.50 input  -60.55 | X-H torsion
[ 11005 11000 10999 10996 ] final  140.27 input  -57.11 | X-H torsion

> <Gold.Protein.ActiveResidues>
 VAL166  LYS551  ARG553  GLY616  TRP617  ASP618  TYR619  PRO620  LYS621  CYS622 
 ASP623  PHE694  ASN695  SER759  ASP760  ASP761  ALA762  ILE779  LEU786  VAL792 
 PHE793  MET794  SER795  GLU796  ALA797  LYS798  CYS799  TRP800  GLU811  SER814 

> <Gold.Protein.RotatedAtoms>
  152.5365  134.2653  159.8950 H   0  0  0  0  0  0  0  0  0  0  0  0  # atno 6907 bound_to 6896
  151.2612  133.4295  159.2624 H   0  0  0  0  0  0  0  0  0  0  0  0  # atno 6908 bound_to 6896
  151.0451  134.9649  159.8239 H   0  0  0  0  0  0  0  0  0  0  0  0  # atno 6909 bound_to 6896
  145.6899  139.2549  143.1766 H   0  0  0  0  0  0  0  0  0  0  0  0  # atno 7974 bound_to 7965
  154.5812  140.0674  156.9106 H   0  0  0  0  0  0  0  0  0  0  0  0  # atno 8008 bound_to 7997
  155.2460  140.3348  155.4269 H   0  0  0  0  0  0  0  0  0  0  0  0  # atno 8009 bound_to 7997
  156.2190  140.1791  156.7506 H   0  0  0  0  0  0  0  0  0  0  0  0  # atno 8010 bound_to 7997
  140.5064  143.2352  151.7666 H   0  0  0  0  0  0  0  0  0  0  0  0  # atno 10167 bound_to 10162
  157.4599  130.8190  149.7876 H   0  0  0  0  0  0  0  0  0  0  0  0  # atno 10718 bound_to 10713
  154.6926  135.2973  154.9458 H   0  0  0  0  0  0  0  0  0  0  0  0  # atno 10763 bound_to 10752
  154.0416  135.6656  153.4794 H   0  0  0  0  0  0  0  0  0  0  0  0  # atno 10764 bound_to 10752
  153.0623  135.5108  154.8026 H   0  0  0  0  0  0  0  0  0  0  0  0  # atno 10765 bound_to 10752
  140.0315  134.9349  157.0671 H   0  0  0  0  0  0  0  0  0  0  0  0  # atno 11005 bound_to 11000
  146.0891  140.7677  142.9604 LP  0  0  0  0  0  0  0  0  0  0  0  0  # atno 17320 bound_to 7965
  144.7000  140.3608  143.7164 LP  0  0  0  0  0  0  0  0  0  0  0  0  # atno 17321 bound_to 7965
  139.4885  144.4451  151.9719 LP  0  0  0  0  0  0  0  0  0  0  0  0  # atno 17342 bound_to 10162
  140.3542  144.3052  150.5944 LP  0  0  0  0  0  0  0  0  0  0  0  0  # atno 17343 bound_to 10162
  156.0024  130.3873  150.2555 LP  0  0  0  0  0  0  0  0  0  0  0  0  # atno 17370 bound_to 10713
  157.0732  131.0123  151.3183 LP  0  0  0  0  0  0  0  0  0  0  0  0  # atno 17371 bound_to 10713
  140.4218  134.1873  155.7165 LP  0  0  0  0  0  0  0  0  0  0  0  0  # atno 17394 bound_to 11000
  141.1833  133.8366  157.1178 LP  0  0  0  0  0  0  0  0  0  0  0  0  # atno 17395 bound_to 11000

$$$$
