AV-unprocessed.smi:3308|AV-procd|sdf|12714|dock9
  -GOLD-   2272019 53D 1   1.00000     0.00000
 Structure written by MMmdl.
 40 41  0  0  0  0  0  0  0  0  1 V2000
  153.2584  138.1681  155.6438 C   0  0  0  0  0  0  0  0  0  0  0  0
  152.0421  139.1033  155.4659 C   0  0  2  0  0  0  0  0  0  0  0  0
  151.4129  139.3138  156.7668 N   0  0  0  0  0  0  0  0  0  0  0  0
  151.4702  140.7102  157.2177 C   0  0  0  0  0  0  0  0  0  0  0  0
  152.4360  140.8759  158.3956 C   0  0  0  0  0  0  0  0  0  0  0  0
  153.2628  139.9895  158.6114 O   0  0  0  0  0  0  0  0  0  0  0  0
  152.3532  141.9867  159.1588 N   0  0  0  0  0  0  0  0  0  0  0  0
  153.2238  142.2409  160.3052 C   0  0  0  0  0  0  0  0  0  0  0  0
  152.6345  143.4619  161.0116 C   0  0  0  0  0  0  0  0  0  0  0  0
  151.8829  144.2000  159.9127 C   0  0  0  0  0  0  0  0  0  0  0  0
  151.4107  143.0906  158.9727 C   0  0  0  0  0  0  0  0  0  0  0  0
  150.9701  138.5333  154.4984 C   0  0  1  0  0  0  0  0  0  0  0  0
  150.4368  137.1590  154.9464 C   0  0  0  0  0  0  0  0  0  0  0  0
  149.8547  139.4551  154.3197 N   0  0  0  0  0  0  0  0  0  0  0  0
  148.6142  139.2110  153.7641 C   0  0  0  0  0  0  0  0  0  0  0  0
  147.9047  140.3761  153.8200 C   0  0  0  0  0  0  0  0  0  0  0  0
  148.8051  141.2903  154.4345 C   0  0  0  0  0  0  0  0  0  0  0  0
  149.9694  140.7372  154.7323 N   0  0  0  0  0  0  0  0  0  0  0  0
  153.7878  138.0139  154.7037 H   0  0  0  0  0  0  0  0  0  0  0  0
  152.9522  137.1887  156.0133 H   0  0  0  0  0  0  0  0  0  0  0  0
  153.9887  138.5717  156.3441 H   0  0  0  0  0  0  0  0  0  0  0  0
  152.3867  140.0583  155.0651 H   0  0  0  0  0  0  0  0  0  0  0  0
  151.8176  138.6809  157.4418 H   0  0  0  0  0  0  0  0  0  0  0  0
  151.7590  141.3725  156.4025 H   0  0  0  0  0  0  0  0  0  0  0  0
  150.4772  141.0286  157.5392 H   0  0  0  0  0  0  0  0  0  0  0  0
  153.2803  141.3834  160.9776 H   0  0  0  0  0  0  0  0  0  0  0  0
  154.2309  142.4559  159.9444 H   0  0  0  0  0  0  0  0  0  0  0  0
  151.9309  143.1360  161.7789 H   0  0  0  0  0  0  0  0  0  0  0  0
  153.3933  144.0784  161.4943 H   0  0  0  0  0  0  0  0  0  0  0  0
  151.0629  144.8086  160.2950 H   0  0  0  0  0  0  0  0  0  0  0  0
  152.5699  144.8608  159.3822 H   0  0  0  0  0  0  0  0  0  0  0  0
  151.3758  143.4424  157.9410 H   0  0  0  0  0  0  0  0  0  0  0  0
  150.4108  142.7560  159.2530 H   0  0  0  0  0  0  0  0  0  0  0  0
  151.4363  138.3991  153.5197 H   0  0  0  0  0  0  0  0  0  0  0  0
  151.2320  136.4144  154.9873 H   0  0  0  0  0  0  0  0  0  0  0  0
  149.6824  136.7875  154.2522 H   0  0  0  0  0  0  0  0  0  0  0  0
  149.9819  137.2100  155.9362 H   0  0  0  0  0  0  0  0  0  0  0  0
  148.3429  138.2384  153.3806 H   0  0  0  0  0  0  0  0  0  0  0  0
  146.8962  140.5494  153.4744 H   0  0  0  0  0  0  0  0  0  0  0  0
  148.6486  142.3324  154.6717 H   0  0  0  0  0  0  0  0  0  0  0  0
  1  2  1  0  0  0  0
  1 19  1  0  0  0  0
  1 20  1  0  0  0  0
  1 21  1  0  0  0  0
  2  3  1  0  0  0  0
  2 12  1  0  0  0  0
  2 22  1  0  0  0  0
  3  4  1  0  0  0  0
  3 23  1  0  0  0  0
  4  5  1  0  0  0  0
  4 24  1  0  0  0  0
  4 25  1  0  0  0  0
  5  6  2  0  0  0  0
  5  7  1  0  0  0  0
  7 11  1  0  0  0  0
  7  8  1  0  0  0  0
  8  9  1  0  0  0  0
  8 26  1  0  0  0  0
  8 27  1  0  0  0  0
  9 10  1  0  0  0  0
  9 28  1  0  0  0  0
  9 29  1  0  0  0  0
 10 11  1  0  0  0  0
 10 30  1  0  0  0  0
 10 31  1  0  0  0  0
 11 32  1  0  0  0  0
 11 33  1  0  0  0  0
 12 13  1  0  0  0  0
 12 14  1  0  0  0  0
 12 34  1  0  0  0  0
 13 35  1  0  0  0  0
 13 36  1  0  0  0  0
 13 37  1  0  0  0  0
 14 18  1  0  0  0  0
 14 15  1  0  0  0  0
 15 16  2  0  0  0  0
 15 38  1  0  0  0  0
 16 17  1  0  0  0  0
 16 39  1  0  0  0  0
 17 18  2  0  0  0  0
 17 40  1  0  0  0  0
M  END
> <s_m_source_file>
AV-unprocessed.smi

> <i_m_source_file_index>
3308

> <i_lp_mmshare_version>
43012

> <i_f3d_flags>
0

> <s_epik_input>
bjFbY0hdW2NIXVtjSF1uMVtDQEBIXShbQ0gzXSlbQ0BIXShbQ0gzXSlbTkhdW0NIMl1DKD1PKU4yW0NIMl1bQ0gyXVtDSDJdW0NIMl0y

> <s_epik_cmdline>
J2VwaWtfcHl0aG9uJywgJy1waCcsICc3LjAnLCAnLXRuJywgJzgnLCAnLW1hJywgJzIwMCcsICctbWV0YWxfYmluZGluZycsICctaW1hZScsICc8aW5maWxlLm1hZT4nLCAnLW9tYWUnLCAnPG91dGZpbGUubWFlPic=

> <r_lp_tautomer_probability>
1

> <r_epik_Ionization_Penalty>
0.918676

> <r_epik_Ionization_Penalty_Charging>
0

> <r_epik_Ionization_Penalty_Neutral>
0.918676

> <r_epik_State_Penalty>
0.958258

> <r_epik_Charging_Adjusted_Penalty>
0.958258

> <i_epik_Tot_Q>
0

> <i_epik_Tot_abs_Q>
0

> <r_epik_Metal_State_Penalty>
0.956879

> <b_epik_Metal_Only>
0

> <s_lp_Force_Field>
OPLS_2005

> <r_lp_Energy>
36.0541

> <b_lp_Chiralities_Consistent>
1

> <s_lp_Variant>
AV-unprocessed.smi:3308-7

> <Gold.Version>
5.8.1

> <Gold.Id.Protein>
6NUR|6NUR_protein|mol2

> <Gold.PLP.Fitness>
45.3713

> <Gold.PLP.PLP>
-39.5290

> <Gold.PLP.part.hbond>
-2.0000

> <Gold.PLP.part.metal>
0.0000

> <Gold.PLP.part.buried>
0.0472

> <Gold.PLP.part.nonpolar>
-37.1959

> <Gold.PLP.part.repulsive>
0.1123

> <Gold.PLP.ligand.clash>
0.0000

> <Gold.PLP.ligand.torsion>
1.7659

> <Gold.PLP.Chemscore.Hbond>
1.3072

> <Gold.PLP.Chemscore.CHOScore>
1.7951

> <Gold.PLP.Chemscore.Metal>
0.0000

> <Gold.Chemscore.Hbonds>
donor molecule, donor type, donor heavy atom, donor atom, acceptor molecule, acceptor atom, score
      P1  H  7989  7998       L1    18  0.29
      P1  H  7997  8008       L1     6  0.93
      L1  C    15    38       P1  7948  0.89
      L1  C    17    40       P1  8028  0.89

> <Gold.PLP.Chemscore.Internal.Correction>
0.0673

> <Gold.Rescore>
     Score         DG    S(hbond)    S(metal)    S(lipo)     H(rot)  DE(clash)    DE(int)     intcor
     15.45     -17.76       1.64        0.00      95.69       1.72       0.21       2.10       ----

> <Gold.Chemscore.Fitness>
15.4542

> <Gold.Chemscore.DG>
-17.7641

> <Gold.Chemscore.ZeroCoef>
-5.4800

> <Gold.Chemscore.Hbond>
1.6441

> <Gold.Chemscore.Metal>
0.0000

> <Gold.Chemscore.Lipo>
95.6920

> <Gold.Chemscore.Internal_Hbond>
0.0000

> <Gold.Chemscore.DEClash>
0.2094

> <Gold.Chemscore.DEInternal>
2.1005

> <Gold.Chemscore.Rot>
1.7200

> <Gold.Chemscore.Internal.Correction>
   9.000000E+99

> <Gold.Chemscore.Hbonds>
donor molecule, donor type, donor heavy atom, donor atom, acceptor molecule, acceptor atom, score
      P1  H  7989  7998       L1    18  0.01
      P1  H  7997  8008       L1     6  0.52

> <Gold.Chemscore.Hbond.Weighted>
-5.4913

> <Gold.Chemscore.Metal.Weighted>
-0.0000

> <Gold.Chemscore.Lipo.Weighted>
-11.1960

> <Gold.Chemscore.Internal_Hbond.Weighted>
0.0000

> <Gold.Chemscore.DEClash.Weighted>
0.2094

> <Gold.Chemscore.DEInternal.Weighted>
2.1005

> <Gold.Chemscore.Rot.Weighted>
4.4031

> <Gold.Chemscore.Internal.Correction.Weighted>
   9.000000E+99

> <Gold.Protein.RotatedTorsions>
[ 6907 6896 6895 6894 ] final   87.18 input  -60.11 | X-H torsion
[ 7974 7965 7964 7962 ] final -121.49 input  175.53 | X-H torsion
[ 8008 7997 7996 7995 ] final  -89.63 input   59.86 | X-H torsion
[ 10167 10162 10161 10158 ] final   73.62 input  -65.29 | X-H torsion
[ 10718 10713 10712 10709 ] final   57.26 input   66.30 | X-H torsion
[ 10763 10752 10751 10750 ] final  -64.76 input  -60.55 | X-H torsion
[ 11005 11000 10999 10996 ] final   51.02 input  -57.11 | X-H torsion

> <Gold.Protein.ActiveResidues>
 VAL166  LYS551  ARG553  GLY616  TRP617  ASP618  TYR619  PRO620  LYS621  CYS622 
 ASP623  PHE694  ASN695  SER759  ASP760  ASP761  ALA762  ILE779  LEU786  VAL792 
 PHE793  MET794  SER795  GLU796  ALA797  LYS798  CYS799  TRP800  GLU811  SER814 

> <Gold.Protein.RotatedAtoms>
  152.5407  134.2316  159.8827 H   0  0  0  0  0  0  0  0  0  0  0  0  # atno 6907 bound_to 6896
  151.2288  133.4455  159.2610 H   0  0  0  0  0  0  0  0  0  0  0  0  # atno 6908 bound_to 6896
  151.0735  134.9827  159.8376 H   0  0  0  0  0  0  0  0  0  0  0  0  # atno 6909 bound_to 6896
  145.0397  140.8135  143.4273 H   0  0  0  0  0  0  0  0  0  0  0  0  # atno 7974 bound_to 7965
  154.6889  140.0539  157.0343 H   0  0  0  0  0  0  0  0  0  0  0  0  # atno 8008 bound_to 7997
  155.0844  140.3213  155.4573 H   0  0  0  0  0  0  0  0  0  0  0  0  # atno 8009 bound_to 7997
  156.2721  140.2059  156.5972 H   0  0  0  0  0  0  0  0  0  0  0  0  # atno 8010 bound_to 7997
  140.0225  144.5529  150.7571 H   0  0  0  0  0  0  0  0  0  0  0  0  # atno 10167 bound_to 10162
  157.5499  130.8758  149.8948 H   0  0  0  0  0  0  0  0  0  0  0  0  # atno 10718 bound_to 10713
  154.3349  135.6169  153.5569 H   0  0  0  0  0  0  0  0  0  0  0  0  # atno 10763 bound_to 10752
  152.9808  135.5756  154.4919 H   0  0  0  0  0  0  0  0  0  0  0  0  # atno 10764 bound_to 10752
  154.4612  135.2856  155.1688 H   0  0  0  0  0  0  0  0  0  0  0  0  # atno 10765 bound_to 10752
  140.0967  134.5135  155.8800 H   0  0  0  0  0  0  0  0  0  0  0  0  # atno 11005 bound_to 11000
  145.1663  139.2429  143.5365 LP  0  0  0  0  0  0  0  0  0  0  0  0  # atno 17320 bound_to 7965
  146.3508  140.1403  142.8594 LP  0  0  0  0  0  0  0  0  0  0  0  0  # atno 17321 bound_to 7965
  140.7336  143.2719  151.3860 LP  0  0  0  0  0  0  0  0  0  0  0  0  # atno 17342 bound_to 10162
  139.6130  144.1059  152.2318 LP  0  0  0  0  0  0  0  0  0  0  0  0  # atno 17343 bound_to 10162
  156.0568  130.3707  150.1073 LP  0  0  0  0  0  0  0  0  0  0  0  0  # atno 17370 bound_to 10713
  156.9246  130.9694  151.3543 LP  0  0  0  0  0  0  0  0  0  0  0  0  # atno 17371 bound_to 10713
  141.2094  133.6683  156.6437 LP  0  0  0  0  0  0  0  0  0  0  0  0  # atno 17394 bound_to 11000
  140.3276  134.7956  157.4301 LP  0  0  0  0  0  0  0  0  0  0  0  0  # atno 17395 bound_to 11000

$$$$
