AV-unprocessed.smi:910|AV-procd|sdf|4120|dock4
  -GOLD-   22720 2 23D 1   1.00000     0.00000
 Structure written by MMmdl.
 46 47  0  0  0  0  0  0  0  0  1 V2000
  146.0010  134.2499  162.3496 C   0  0  0  0  0  0  0  0  0  0  0  0
  147.0787  135.0824  161.6901 C   0  0  0  0  0  0  0  0  0  0  0  0
  147.5544  134.7935  160.4399 N   0  0  0  0  0  0  0  0  0  0  0  0
  148.5204  135.7336  160.1156 C   0  0  0  0  0  0  0  0  0  0  0  0
  149.2131  135.8117  159.0215 N   0  0  0  0  0  0  0  0  0  0  0  0
  150.1331  136.8382  158.8665 C   0  0  0  0  0  0  0  0  0  0  0  0
  151.0897  137.1291  159.5918 O   0  0  0  0  0  0  0  0  0  0  0  0
  149.8681  137.5272  157.7466 N   0  0  0  0  0  0  0  0  0  0  0  0
  150.6474  138.6502  157.2351 C   0  0  0  0  0  0  0  0  0  0  0  0
  150.5962  139.8536  158.1873 C   0  0  0  0  0  0  0  0  0  0  0  0
  151.2774  140.9427  157.5819 O   0  0  0  0  0  0  0  0  0  0  0  0
  151.4439  142.0782  158.4214 C   0  0  2  0  0  0  0  0  0  0  0  0
  151.1669  143.3650  157.6161 C   0  0  0  0  0  0  0  0  0  0  0  0
  151.4729  144.6235  158.4411 C   0  0  0  0  0  0  0  0  0  0  0  0
  152.9166  144.6035  158.9627 C   0  0  0  0  0  0  0  0  0  0  0  0
  153.1922  143.3288  159.7743 C   0  0  0  0  0  0  0  0  0  0  0  0
  152.8929  142.0551  158.9582 C   0  0  1  0  0  0  0  0  0  0  0  0
  153.1678  140.7955  159.7967 C   0  0  0  0  0  0  0  0  0  0  0  0
  148.6133  136.5825  161.1947 O   0  0  0  0  0  0  0  0  0  0  0  0
  147.7229  136.1591  162.1339 C   0  0  0  0  0  0  0  0  0  0  0  0
  147.6162  136.9297  163.4305 C   0  0  0  0  0  0  0  0  0  0  0  0
  145.1317  134.8683  162.5742 H   0  0  0  0  0  0  0  0  0  0  0  0
  146.3710  133.8231  163.2819 H   0  0  0  0  0  0  0  0  0  0  0  0
  145.6839  133.4340  161.6996 H   0  0  0  0  0  0  0  0  0  0  0  0
  147.2251  134.0182  159.8833 H   0  0  0  0  0  0  0  0  0  0  0  0
  149.0760  137.2363  157.1920 H   0  0  0  0  0  0  0  0  0  0  0  0
  151.6792  138.3229  157.1059 H   0  0  0  0  0  0  0  0  0  0  0  0
  150.2862  138.9344  156.2455 H   0  0  0  0  0  0  0  0  0  0  0  0
  149.5583  140.1205  158.3866 H   0  0  0  0  0  0  0  0  0  0  0  0
  151.0546  139.5965  159.1434 H   0  0  0  0  0  0  0  0  0  0  0  0
  150.7623  142.0244  159.2727 H   0  0  0  0  0  0  0  0  0  0  0  0
  151.7767  143.3676  156.7115 H   0  0  0  0  0  0  0  0  0  0  0  0
  150.1284  143.3953  157.2873 H   0  0  0  0  0  0  0  0  0  0  0  0
  151.3083  145.5148  157.8351 H   0  0  0  0  0  0  0  0  0  0  0  0
  150.7805  144.6873  159.2814 H   0  0  0  0  0  0  0  0  0  0  0  0
  153.6112  144.6608  158.1235 H   0  0  0  0  0  0  0  0  0  0  0  0
  153.1015  145.4839  159.5787 H   0  0  0  0  0  0  0  0  0  0  0  0
  154.2320  143.3252  160.1027 H   0  0  0  0  0  0  0  0  0  0  0  0
  152.5839  143.3378  160.6798 H   0  0  0  0  0  0  0  0  0  0  0  0
  153.5711  142.0394  158.1034 H   0  0  0  0  0  0  0  0  0  0  0  0
  152.5089  140.7448  160.6641 H   0  0  0  0  0  0  0  0  0  0  0  0
  154.1962  140.7824  160.1586 H   0  0  0  0  0  0  0  0  0  0  0  0
  153.0169  139.8869  159.2127 H   0  0  0  0  0  0  0  0  0  0  0  0
  147.1072  136.3382  164.1918 H   0  0  0  0  0  0  0  0  0  0  0  0
  147.0558  137.8515  163.2750 H   0  0  0  0  0  0  0  0  0  0  0  0
  148.6091  137.1864  163.8002 H   0  0  0  0  0  0  0  0  0  0  0  0
  1 22  1  0  0  0  0
  1 23  1  0  0  0  0
  1 24  1  0  0  0  0
  1  2  1  0  0  0  0
  2  3  1  0  0  0  0
  2 20  2  0  0  0  0
  3 25  1  0  0  0  0
  3  4  1  0  0  0  0
  4 19  1  0  0  0  0
  4  5  2  0  0  0  0
  5  6  1  0  0  0  0
  6  8  1  0  0  0  0
  6  7  2  0  0  0  0
  8  9  1  0  0  0  0
  8 26  1  0  0  0  0
  9 10  1  0  0  0  0
  9 27  1  0  0  0  0
  9 28  1  0  0  0  0
 10 11  1  0  0  0  0
 10 29  1  0  0  0  0
 10 30  1  0  0  0  0
 11 12  1  0  0  0  0
 12 17  1  0  0  0  0
 12 13  1  0  0  0  0
 12 31  1  0  0  0  0
 13 14  1  0  0  0  0
 13 32  1  0  0  0  0
 13 33  1  0  0  0  0
 14 15  1  0  0  0  0
 14 34  1  0  0  0  0
 14 35  1  0  0  0  0
 15 16  1  0  0  0  0
 15 36  1  0  0  0  0
 15 37  1  0  0  0  0
 16 17  1  0  0  0  0
 16 38  1  0  0  0  0
 16 39  1  0  0  0  0
 17 18  1  0  0  0  0
 17 40  1  0  0  0  0
 18 41  1  0  0  0  0
 18 42  1  0  0  0  0
 18 43  1  0  0  0  0
 19 20  1  0  0  0  0
 20 21  1  0  0  0  0
 21 44  1  0  0  0  0
 21 45  1  0  0  0  0
 21 46  1  0  0  0  0
M  END
> <s_m_source_file>
AV-unprocessed.smi

> <i_m_source_file_index>
910

> <i_lp_mmshare_version>
43012

> <i_f3d_flags>
0

> <s_epik_input>
W0NIM11jMW5jKG9jMVtDSDNdKVtOSF1DKD1PKVtOSF1bQ0gyXVtDSDJdT1tDQEBIXTJbQ0gyXVtDSDJdW0NIMl1bQ0gyXVtDQEhdMltDSDNd

> <s_epik_cmdline>
J2VwaWtfcHl0aG9uJywgJy1waCcsICc3LjAnLCAnLXRuJywgJzgnLCAnLW1hJywgJzIwMCcsICctbWV0YWxfYmluZGluZycsICctaW1hZScsICc8aW5maWxlLm1hZT4nLCAnLW9tYWUnLCAnPG91dGZpbGUubWFlPic=

> <r_lp_tautomer_probability>
0.107061

> <r_epik_Ionization_Penalty>
0.727192

> <r_epik_Ionization_Penalty_Charging>
0.726719

> <r_epik_Ionization_Penalty_Neutral>
0.000473387

> <r_epik_State_Penalty>
2.53712

> <r_epik_Charging_Adjusted_Penalty>
3.26383

> <i_epik_Tot_Q>
0

> <i_epik_Tot_abs_Q>
0

> <r_epik_Metal_State_Penalty>
3.71015

> <b_epik_Metal_Only>
0

> <s_lp_Force_Field>
OPLS_2005

> <r_lp_Energy>
30.8071

> <b_lp_Chiralities_Consistent>
1

> <s_lp_Variant>
AV-unprocessed.smi:910-5

> <Gold.Version>
5.8.1

> <Gold.Id.Protein>
6NUR|6NUR_protein|mol2

> <Gold.PLP.Fitness>
45.2209

> <Gold.PLP.PLP>
-41.9665

> <Gold.PLP.part.hbond>
-2.8496

> <Gold.PLP.part.metal>
0.0000

> <Gold.PLP.part.buried>
-3.1615

> <Gold.PLP.part.nonpolar>
-35.9207

> <Gold.PLP.part.repulsive>
0.1309

> <Gold.PLP.ligand.clash>
0.0000

> <Gold.PLP.ligand.torsion>
1.1342

> <Gold.PLP.Chemscore.Hbond>
1.8234

> <Gold.PLP.Chemscore.CHOScore>
0.0000

> <Gold.PLP.Chemscore.Metal>
0.0000

> <Gold.Chemscore.Hbonds>
donor molecule, donor type, donor heavy atom, donor atom, acceptor molecule, acceptor atom, score
      P1  H  6896  6907       L1     5  0.44
      P1  H  6896  6908       L1     7  0.14
      P1  H  6931  6943       L1    19  1.00

> <Gold.PLP.Chemscore.Internal.Correction>
0.0527

> <Gold.Rescore>
     Score         DG    S(hbond)    S(metal)    S(lipo)     H(rot)  DE(clash)    DE(int)     intcor
     16.00     -18.34       1.00        0.00     117.66       1.66       0.13       2.20       ----

> <Gold.Chemscore.Fitness>
15.9991

> <Gold.Chemscore.DG>
-18.3376

> <Gold.Chemscore.ZeroCoef>
-5.4800

> <Gold.Chemscore.Hbond>
0.9985

> <Gold.Chemscore.Metal>
0.0000

> <Gold.Chemscore.Lipo>
117.6606

> <Gold.Chemscore.Internal_Hbond>
0.0000

> <Gold.Chemscore.DEClash>
0.1341

> <Gold.Chemscore.DEInternal>
2.2044

> <Gold.Chemscore.Rot>
1.6576

> <Gold.Chemscore.Internal.Correction>
   9.000000E+99

> <Gold.Chemscore.Hbonds>
donor molecule, donor type, donor heavy atom, donor atom, acceptor molecule, acceptor atom, score
      P1  H  6896  6907       L1     5  0.01
      P1  H  6896  6908       L1     7  0.05
      P1  H  6931  6943       L1    19  0.26

> <Gold.Chemscore.Hbond.Weighted>
-3.3348

> <Gold.Chemscore.Metal.Weighted>
-0.0000

> <Gold.Chemscore.Lipo.Weighted>
-13.7663

> <Gold.Chemscore.Internal_Hbond.Weighted>
0.0000

> <Gold.Chemscore.DEClash.Weighted>
0.1341

> <Gold.Chemscore.DEInternal.Weighted>
2.2044

> <Gold.Chemscore.Rot.Weighted>
4.2436

> <Gold.Chemscore.Internal.Correction.Weighted>
   9.000000E+99

> <Gold.Protein.RotatedTorsions>
[ 6907 6896 6895 6894 ] final  -91.45 input  -60.11 | X-H torsion
[ 7974 7965 7964 7962 ] final -134.91 input  175.53 | X-H torsion
[ 8008 7997 7996 7995 ] final  -40.45 input   59.86 | X-H torsion
[ 10167 10162 10161 10158 ] final  136.31 input  -65.29 | X-H torsion
[ 10718 10713 10712 10709 ] final   92.24 input   66.30 | X-H torsion
[ 10763 10752 10751 10750 ] final   83.41 input  -60.55 | X-H torsion
[ 11005 11000 10999 10996 ] final   25.94 input  -57.11 | X-H torsion

> <Gold.Protein.ActiveResidues>
 VAL166  LYS551  ARG553  GLY616  TRP617  ASP618  TYR619  PRO620  LYS621  CYS622 
 ASP623  PHE694  ASN695  SER759  ASP760  ASP761  ALA762  ILE779  LEU786  VAL792 
 PHE793  MET794  SER795  GLU796  ALA797  LYS798  CYS799  TRP800  GLU811  SER814 

> <Gold.Protein.RotatedAtoms>
  150.6893  134.2275  159.4421 H   0  0  0  0  0  0  0  0  0  0  0  0  # atno 6907 bound_to 6896
  152.0228  134.9810  160.0580 H   0  0  0  0  0  0  0  0  0  0  0  0  # atno 6908 bound_to 6896
  152.1381  133.4412  159.4790 H   0  0  0  0  0  0  0  0  0  0  0  0  # atno 6909 bound_to 6896
  144.9060  140.6834  143.5055 H   0  0  0  0  0  0  0  0  0  0  0  0  # atno 7974 bound_to 7965
  154.4012  140.1525  156.3029 H   0  0  0  0  0  0  0  0  0  0  0  0  # atno 8008 bound_to 7997
  155.8684  140.3450  155.5782 H   0  0  0  0  0  0  0  0  0  0  0  0  # atno 8009 bound_to 7997
  155.7802  140.0842  157.2054 H   0  0  0  0  0  0  0  0  0  0  0  0  # atno 8010 bound_to 7997
  139.5185  144.6471  151.5408 H   0  0  0  0  0  0  0  0  0  0  0  0  # atno 10167 bound_to 10162
  157.6959  131.0436  150.3852 H   0  0  0  0  0  0  0  0  0  0  0  0  # atno 10718 bound_to 10713
  153.1288  135.4692  154.9316 H   0  0  0  0  0  0  0  0  0  0  0  0  # atno 10763 bound_to 10752
  154.7645  135.3141  154.8315 H   0  0  0  0  0  0  0  0  0  0  0  0  # atno 10764 bound_to 10752
  153.8862  135.6889  153.4817 H   0  0  0  0  0  0  0  0  0  0  0  0  # atno 10765 bound_to 10752
  140.3424  134.2318  155.7688 H   0  0  0  0  0  0  0  0  0  0  0  0  # atno 11005 bound_to 11000
  145.3535  139.1700  143.4422 LP  0  0  0  0  0  0  0  0  0  0  0  0  # atno 17320 bound_to 7965
  146.3134  140.3589  142.8663 LP  0  0  0  0  0  0  0  0  0  0  0  0  # atno 17321 bound_to 7965
  140.6261  143.9166  150.6566 LP  0  0  0  0  0  0  0  0  0  0  0  0  # atno 17342 bound_to 10162
  140.2455  143.3632  152.1450 LP  0  0  0  0  0  0  0  0  0  0  0  0  # atno 17343 bound_to 10162
  156.4261  130.3962  149.6792 LP  0  0  0  0  0  0  0  0  0  0  0  0  # atno 17370 bound_to 10713
  156.4025  130.7682  151.2690 LP  0  0  0  0  0  0  0  0  0  0  0  0  # atno 17371 bound_to 10713
  141.2035  133.7911  157.0337 LP  0  0  0  0  0  0  0  0  0  0  0  0  # atno 17394 bound_to 11000
  140.0770  134.9670  157.1562 LP  0  0  0  0  0  0  0  0  0  0  0  0  # atno 17395 bound_to 11000

$$$$
