AV-unprocessed.smi:3202|AV-procd|sdf|12245|dock6
  -GOLD-   2272018 83D 1   1.00000     0.00000
 Structure written by MMmdl.
 43 44  0  0  0  0  0  0  0  0  2 V2000
  151.9087  128.8087  154.8441 C   0  0  0  0  0  0  0  0  0  0  0  0
  150.6172  129.3336  154.2894 C   0  0  0  0  0  0  0  0  0  0  0  0
  150.0923  130.6562  154.3786 C   0  0  0  0  0  0  0  0  0  0  0  0
  148.9002  130.5923  153.7127 C   0  0  0  0  0  0  0  0  0  0  0  0
  147.8620  131.6339  153.4437 C   0  0  0  0  0  0  0  0  0  0  0  0
  148.4205  132.9401  152.8476 C   0  0  2  0  0  0  0  0  0  0  0  0
  149.4671  133.6034  153.7579 C   0  0  0  0  0  0  0  0  0  0  0  0
  147.3101  133.8857  152.5977 N   0  3  0  0  0  0  0  0  0  0  0  0
  146.1164  133.3108  151.9364 C   0  0  2  0  0  0  0  0  0  0  0  0
  146.4274  132.6537  150.5848 C   0  0  0  0  0  0  0  0  0  0  0  0
  145.1149  132.7103  149.7929 C   0  0  0  0  0  0  0  0  0  0  0  0
  144.1584  133.6003  150.6011 C   0  0  0  0  0  0  0  0  0  0  0  0
  145.0213  134.3547  151.6297 C   0  0  0  0  0  0  0  0  0  0  0  0
  144.2057  134.7123  152.8865 C   0  0  0  0  0  0  0  0  0  0  0  0
  145.5846  135.6473  150.9939 C   0  0  0  0  0  0  0  0  0  0  0  0
  148.7763  129.2943  153.2724 N   0  0  0  0  0  0  0  0  0  0  0  0
  149.8170  128.5162  153.6219 N   0  0  0  0  0  0  0  0  0  0  0  0
  147.9985  128.9286  152.7416 H   0  0  0  0  0  0  0  0  0  0  0  0
  152.4989  129.6084  155.2920 H   0  0  0  0  0  0  0  0  0  0  0  0
  152.5144  128.3482  154.0632 H   0  0  0  0  0  0  0  0  0  0  0  0
  151.7286  128.0579  155.6138 H   0  0  0  0  0  0  0  0  0  0  0  0
  150.5269  131.5197  154.8603 H   0  0  0  0  0  0  0  0  0  0  0  0
  147.3233  131.8573  154.3659 H   0  0  0  0  0  0  0  0  0  0  0  0
  147.1212  131.2158  152.7610 H   0  0  0  0  0  0  0  0  0  0  0  0
  148.9080  132.6971  151.9021 H   0  0  0  0  0  0  0  0  0  0  0  0
  150.3293  132.9548  153.9151 H   0  0  0  0  0  0  0  0  0  0  0  0
  149.0484  133.8423  154.7361 H   0  0  0  0  0  0  0  0  0  0  0  0
  149.8373  134.5305  153.3193 H   0  0  0  0  0  0  0  0  0  0  0  0
  147.0183  134.2581  153.4900 H   0  0  0  0  0  0  0  0  0  0  0  0
  145.6902  132.5524  152.5964 H   0  0  0  0  0  0  0  0  0  0  0  0
  147.1956  133.2175  150.0534 H   0  0  0  0  0  0  0  0  0  0  0  0
  146.7942  131.6331  150.6981 H   0  0  0  0  0  0  0  0  0  0  0  0
  145.2914  133.1293  148.8015 H   0  0  0  0  0  0  0  0  0  0  0  0
  144.6896  131.7158  149.6543 H   0  0  0  0  0  0  0  0  0  0  0  0
  143.5794  134.2688  149.9625 H   0  0  0  0  0  0  0  0  0  0  0  0
  143.4407  132.9593  151.1156 H   0  0  0  0  0  0  0  0  0  0  0  0
  143.3849  135.3883  152.6439 H   0  0  0  0  0  0  0  0  0  0  0  0
  144.8272  135.2042  153.6353 H   0  0  0  0  0  0  0  0  0  0  0  0
  143.7725  133.8261  153.3517 H   0  0  0  0  0  0  0  0  0  0  0  0
  144.7788  136.3183  150.6940 H   0  0  0  0  0  0  0  0  0  0  0  0
  146.1806  135.4422  150.1046 H   0  0  0  0  0  0  0  0  0  0  0  0
  146.2141  136.1994  151.6923 H   0  0  0  0  0  0  0  0  0  0  0  0
  147.6523  134.6498  152.0326 H   0  0  0  0  0  0  0  0  0  0  0  0
  1 19  1  0  0  0  0
  1 20  1  0  0  0  0
  1 21  1  0  0  0  0
  1  2  1  0  0  0  0
  2 17  2  0  0  0  0
  2  3  1  0  0  0  0
  3  4  2  0  0  0  0
  3 22  1  0  0  0  0
  4 16  1  0  0  0  0
  4  5  1  0  0  0  0
  5  6  1  0  0  0  0
  5 23  1  0  0  0  0
  5 24  1  0  0  0  0
  6  7  1  0  0  0  0
  6  8  1  0  0  0  0
  6 25  1  0  0  0  0
  7 26  1  0  0  0  0
  7 27  1  0  0  0  0
  7 28  1  0  0  0  0
  8  9  1  0  0  0  0
  8 29  1  0  0  0  0
  8 43  1  0  0  0  0
  9 13  1  0  0  0  0
  9 10  1  0  0  0  0
  9 30  1  0  0  0  0
 10 11  1  0  0  0  0
 10 31  1  0  0  0  0
 10 32  1  0  0  0  0
 11 12  1  0  0  0  0
 11 33  1  0  0  0  0
 11 34  1  0  0  0  0
 12 13  1  0  0  0  0
 12 35  1  0  0  0  0
 12 36  1  0  0  0  0
 13 14  1  0  0  0  0
 13 15  1  0  0  0  0
 14 37  1  0  0  0  0
 14 38  1  0  0  0  0
 14 39  1  0  0  0  0
 15 40  1  0  0  0  0
 15 41  1  0  0  0  0
 15 42  1  0  0  0  0
 16 17  1  0  0  0  0
 16 18  1  0  0  0  0
M  CHG  1   8   1
M  END
> <s_m_source_file>
AV-unprocessed.smi

> <i_m_source_file_index>
3202

> <i_lp_mmshare_version>
43012

> <i_f3d_flags>
0

> <s_epik_input>
W0NIM11jMVtjSF1jKG5bbkhdMSlbQ0gyXVtDQEhdKFtDSDNdKVtOSF1bQ0BASF0oQzIoW0NIM10pW0NIM10pW0NIMl1bQ0gyXVtDSDJdMg==

> <s_epik_cmdline>
J2VwaWtfcHl0aG9uJywgJy1waCcsICc3LjAnLCAnLXRuJywgJzgnLCAnLW1hJywgJzIwMCcsICctbWV0YWxfYmluZGluZycsICctaW1hZScsICc8aW5maWxlLm1hZT4nLCAnLW9tYWUnLCAnPG91dGZpbGUubWFlPic=

> <r_lp_tautomer_probability>
0.5

> <r_epik_Ionization_Penalty>
0.000449684

> <r_epik_Ionization_Penalty_Charging>
0.000404963

> <r_epik_Ionization_Penalty_Neutral>
4.47208e-05

> <r_epik_State_Penalty>
0.41068

> <r_epik_Charging_Adjusted_Penalty>
0.411085

> <i_epik_Tot_Q>
1

> <i_epik_Tot_abs_Q>
1

> <r_epik_Metal_State_Penalty>
0.410687

> <b_epik_Metal_Only>
0

> <s_lp_Force_Field>
OPLS_2005

> <r_lp_Energy>
32.3092

> <b_lp_Chiralities_Consistent>
1

> <s_lp_Variant>
AV-unprocessed.smi:3202-5

> <Gold.Version>
5.8.1

> <Gold.Id.Protein>
6NUR|6NUR_protein|mol2

> <Gold.PLP.Fitness>
39.5881

> <Gold.PLP.PLP>
-34.0564

> <Gold.PLP.part.hbond>
-1.0000

> <Gold.PLP.part.metal>
0.0000

> <Gold.PLP.part.buried>
-3.3168

> <Gold.PLP.part.nonpolar>
-29.4887

> <Gold.PLP.part.repulsive>
0.1681

> <Gold.PLP.ligand.clash>
0.0000

> <Gold.PLP.ligand.torsion>
0.1673

> <Gold.PLP.Chemscore.Hbond>
1.9520

> <Gold.PLP.Chemscore.CHOScore>
0.0000

> <Gold.PLP.Chemscore.Metal>
0.0000

> <Gold.Chemscore.Hbonds>
donor molecule, donor type, donor heavy atom, donor atom, acceptor molecule, acceptor atom, score
      L1  H     8    43       P1  7948  1.92

> <Gold.PLP.Chemscore.Internal.Correction>
0.0102

> <Gold.Rescore>
     Score         DG    S(hbond)    S(metal)    S(lipo)     H(rot)  DE(clash)    DE(int)     intcor
     13.81     -13.89       0.86        0.00      79.19       1.46       0.00       0.08       ----

> <Gold.Chemscore.Fitness>
13.8106

> <Gold.Chemscore.DG>
-13.8894

> <Gold.Chemscore.ZeroCoef>
-5.4800

> <Gold.Chemscore.Hbond>
0.8626

> <Gold.Chemscore.Metal>
0.0000

> <Gold.Chemscore.Lipo>
79.1868

> <Gold.Chemscore.Internal_Hbond>
0.0000

> <Gold.Chemscore.DEClash>
0.0015

> <Gold.Chemscore.DEInternal>
0.0774

> <Gold.Chemscore.Rot>
1.4596

> <Gold.Chemscore.Internal.Correction>
   9.000000E+99

> <Gold.Chemscore.Hbonds>
donor molecule, donor type, donor heavy atom, donor atom, acceptor molecule, acceptor atom, score
      L1  H     8    43       P1  7948  0.49

> <Gold.Chemscore.Hbond.Weighted>
-2.8811

> <Gold.Chemscore.Metal.Weighted>
-0.0000

> <Gold.Chemscore.Lipo.Weighted>
-9.2649

> <Gold.Chemscore.Internal_Hbond.Weighted>
0.0000

> <Gold.Chemscore.DEClash.Weighted>
0.0015

> <Gold.Chemscore.DEInternal.Weighted>
0.0774

> <Gold.Chemscore.Rot.Weighted>
3.7365

> <Gold.Chemscore.Internal.Correction.Weighted>
   9.000000E+99

> <Gold.Protein.RotatedTorsions>
[ 6907 6896 6895 6894 ] final  164.65 input  -60.11 | X-H torsion
[ 7974 7965 7964 7962 ] final   79.70 input  175.53 | X-H torsion
[ 8008 7997 7996 7995 ] final   28.28 input   59.86 | X-H torsion
[ 10167 10162 10161 10158 ] final  -43.39 input  -65.29 | X-H torsion
[ 10718 10713 10712 10709 ] final   19.12 input   66.30 | X-H torsion
[ 10763 10752 10751 10750 ] final  -33.52 input  -60.55 | X-H torsion
[ 11005 11000 10999 10996 ] final  -70.87 input  -57.11 | X-H torsion

> <Gold.Protein.ActiveResidues>
 VAL166  LYS551  ARG553  GLY616  TRP617  ASP618  TYR619  PRO620  LYS621  CYS622 
 ASP623  PHE694  ASN695  SER759  ASP760  ASP761  ALA762  ILE779  LEU786  VAL792 
 PHE793  MET794  SER795  GLU796  ALA797  LYS798  CYS799  TRP800  GLU811  SER814 

> <Gold.Protein.RotatedAtoms>
  151.9066  133.3551  159.3848 H   0  0  0  0  0  0  0  0  0  0  0  0  # atno 6907 bound_to 6896
  150.7067  134.4774  159.5463 H   0  0  0  0  0  0  0  0  0  0  0  0  # atno 6908 bound_to 6896
  152.2373  134.8264  160.0516 H   0  0  0  0  0  0  0  0  0  0  0  0  # atno 6909 bound_to 6896
  145.6607  139.2471  143.1924 H   0  0  0  0  0  0  0  0  0  0  0  0  # atno 7974 bound_to 7965
  155.0562  140.3185  155.4675 H   0  0  0  0  0  0  0  0  0  0  0  0  # atno 8008 bound_to 7997
  156.2823  140.2137  156.5633 H   0  0  0  0  0  0  0  0  0  0  0  0  # atno 8009 bound_to 7997
  154.7169  140.0493  157.0591 H   0  0  0  0  0  0  0  0  0  0  0  0  # atno 8010 bound_to 7997
  140.6935  143.2985  151.3345 H   0  0  0  0  0  0  0  0  0  0  0  0  # atno 10167 bound_to 10162
  157.1059  130.6488  149.5884 H   0  0  0  0  0  0  0  0  0  0  0  0  # atno 10718 bound_to 10713
  153.8316  135.6865  153.4814 H   0  0  0  0  0  0  0  0  0  0  0  0  # atno 10763 bound_to 10752
  153.1507  135.4619  154.9631 H   0  0  0  0  0  0  0  0  0  0  0  0  # atno 10764 bound_to 10752
  154.7884  135.3293  154.7779 H   0  0  0  0  0  0  0  0  0  0  0  0  # atno 10765 bound_to 10752
  141.1582  133.6802  156.6820 H   0  0  0  0  0  0  0  0  0  0  0  0  # atno 11005 bound_to 11000
  146.1127  140.7408  142.9495 LP  0  0  0  0  0  0  0  0  0  0  0  0  # atno 17320 bound_to 7965
  144.7090  140.3965  143.7095 LP  0  0  0  0  0  0  0  0  0  0  0  0  # atno 17321 bound_to 7965
  139.6364  144.0622  152.2519 LP  0  0  0  0  0  0  0  0  0  0  0  0  # atno 17342 bound_to 10162
  140.0113  144.6221  150.7644 LP  0  0  0  0  0  0  0  0  0  0  0  0  # atno 17343 bound_to 10162
  155.9862  130.4895  150.7068 LP  0  0  0  0  0  0  0  0  0  0  0  0  # atno 17370 bound_to 10713
  157.4601  131.0882  151.0755 LP  0  0  0  0  0  0  0  0  0  0  0  0  # atno 17371 bound_to 10713
  140.3096  134.8097  157.4165 LP  0  0  0  0  0  0  0  0  0  0  0  0  # atno 17394 bound_to 11000
  140.1191  134.5244  155.8199 LP  0  0  0  0  0  0  0  0  0  0  0  0  # atno 17395 bound_to 11000

$$$$
