AV-unprocessed.smi:189|AV-procd|sdf|1482|dock1
  -GOLD-   2262019303D 1   1.00000     0.00000
 Structure written by MMmdl.
 53 57  0  0  0  0  0  0  0  0  1 V2000
  151.0157  139.7620  155.1407 C   0  0  0  0  0  0  0  0  0  0  0  0
  151.4432  140.6503  156.3253 C   0  0  1  0  0  0  0  0  0  0  0  0
  151.1474  142.1531  156.1651 C   0  0  0  0  0  0  0  0  0  0  0  0
  150.6703  142.6045  157.5530 C   0  0  2  0  0  0  0  0  0  0  0  0
  151.1214  144.0015  158.0256 C   0  0  0  0  0  0  0  0  0  0  0  0
  152.5543  144.0241  158.5750 C   0  0  0  0  0  0  0  0  0  0  0  0
  152.7347  142.9585  159.6632 C   0  0  0  0  0  0  0  0  0  0  0  0
  152.4723  141.5649  159.0824 C   0  0  0  0  0  0  0  0  0  0  0  0
  151.0493  141.4377  158.4890 C   0  0  2  0  0  0  0  0  0  0  0  0
  150.9436  140.2502  157.6461 N   0  0  0  0  0  0  0  0  0  0  0  0
  149.7580  139.6014  157.7424 C   0  0  0  0  0  0  0  0  0  0  0  0
  148.6577  140.0499  157.0813 N   0  0  0  0  0  0  0  0  0  0  0  0
  147.4946  139.4029  157.2030 C   0  0  0  0  0  0  0  0  0  0  0  0
  147.2159  138.3147  157.9246 N   0  0  0  0  0  0  0  0  0  0  0  0
  148.3185  137.8676  158.5923 C   0  0  0  0  0  0  0  0  0  0  0  0
  149.6173  138.4464  158.5540 C   0  0  0  0  0  0  0  0  0  0  0  0
  150.4889  137.7198  159.3546 N   0  0  0  0  0  0  0  0  0  0  0  0
  149.7451  136.7650  159.8434 C   0  0  0  0  0  0  0  0  0  0  0  0
  148.4256  136.7853  159.4483 N   0  0  0  0  0  0  0  0  0  0  0  0
  147.3812  135.8526  159.8438 C   0  0  0  0  0  0  0  0  0  0  0  0
  146.7203  136.1876  161.2049 C   0  0  1  0  0  0  0  0  0  0  0  0
  146.2252  137.5138  161.1634 O   0  0  0  0  0  0  0  0  0  0  0  0
  145.5849  135.2414  161.6024 C   0  0  0  0  0  0  0  0  0  0  0  0
  146.2721  134.2639  162.5436 C   0  0  0  0  0  0  0  0  0  0  0  0
  147.1358  135.1120  163.2795 O   0  0  0  0  0  0  0  0  0  0  0  0
  147.7185  136.0403  162.3720 C   0  0  0  0  0  0  0  0  0  0  0  0
  151.5425  140.0560  154.2329 H   0  0  0  0  0  0  0  0  0  0  0  0
  149.9488  139.8382  154.9321 H   0  0  0  0  0  0  0  0  0  0  0  0
  151.2491  138.7140  155.3305 H   0  0  0  0  0  0  0  0  0  0  0  0
  152.5259  140.5414  156.3907 H   0  0  0  0  0  0  0  0  0  0  0  0
  152.0468  142.6833  155.8509 H   0  0  0  0  0  0  0  0  0  0  0  0
  150.3757  142.3404  155.4174 H   0  0  0  0  0  0  0  0  0  0  0  0
  149.5816  142.6397  157.4997 H   0  0  0  0  0  0  0  0  0  0  0  0
  151.0145  144.7246  157.2165 H   0  0  0  0  0  0  0  0  0  0  0  0
  150.4475  144.3332  158.8164 H   0  0  0  0  0  0  0  0  0  0  0  0
  153.2660  143.8527  157.7667 H   0  0  0  0  0  0  0  0  0  0  0  0
  152.7783  145.0112  158.9804 H   0  0  0  0  0  0  0  0  0  0  0  0
  153.7469  143.0068  160.0658 H   0  0  0  0  0  0  0  0  0  0  0  0
  152.0568  143.1517  160.4956 H   0  0  0  0  0  0  0  0  0  0  0  0
  153.2306  141.3665  158.3249 H   0  0  0  0  0  0  0  0  0  0  0  0
  152.6143  140.8072  159.8537 H   0  0  0  0  0  0  0  0  0  0  0  0
  150.3365  141.3959  159.3149 H   0  0  0  0  0  0  0  0  0  0  0  0
  146.6686  139.8183  156.6451 H   0  0  0  0  0  0  0  0  0  0  0  0
  150.1396  136.0177  160.5166 H   0  0  0  0  0  0  0  0  0  0  0  0
  146.6266  135.8336  159.0565 H   0  0  0  0  0  0  0  0  0  0  0  0
  147.8144  134.8518  159.8726 H   0  0  0  0  0  0  0  0  0  0  0  0
  145.3123  137.4999  161.4076 H   0  0  0  0  0  0  0  0  0  0  0  0
  144.8140  135.7762  162.1598 H   0  0  0  0  0  0  0  0  0  0  0  0
  145.0921  134.7448  160.7681 H   0  0  0  0  0  0  0  0  0  0  0  0
  145.5716  133.7385  163.1928 H   0  0  0  0  0  0  0  0  0  0  0  0
  146.8551  133.5266  161.9894 H   0  0  0  0  0  0  0  0  0  0  0  0
  148.6730  135.6373  162.0302 H   0  0  0  0  0  0  0  0  0  0  0  0
  147.9278  136.9821  162.8812 H   0  0  0  0  0  0  0  0  0  0  0  0
  1  2  1  0  0  0  0
  1 27  1  0  0  0  0
  1 28  1  0  0  0  0
  1 29  1  0  0  0  0
  2 10  1  0  0  0  0
  2  3  1  0  0  0  0
  2 30  1  0  0  0  0
  3  4  1  0  0  0  0
  3 31  1  0  0  0  0
  3 32  1  0  0  0  0
  4  9  1  0  0  0  0
  4  5  1  0  0  0  0
  4 33  1  0  0  0  0
  5  6  1  0  0  0  0
  5 34  1  0  0  0  0
  5 35  1  0  0  0  0
  6  7  1  0  0  0  0
  6 36  1  0  0  0  0
  6 37  1  0  0  0  0
  7  8  1  0  0  0  0
  7 38  1  0  0  0  0
  7 39  1  0  0  0  0
  8  9  1  0  0  0  0
  8 40  1  0  0  0  0
  8 41  1  0  0  0  0
  9 10  1  0  0  0  0
  9 42  1  0  0  0  0
 10 11  1  0  0  0  0
 11 16  1  0  0  0  0
 11 12  2  0  0  0  0
 12 13  1  0  0  0  0
 13 14  2  0  0  0  0
 13 43  1  0  0  0  0
 14 15  1  0  0  0  0
 15 19  1  0  0  0  0
 15 16  2  0  0  0  0
 16 17  1  0  0  0  0
 17 18  2  0  0  0  0
 18 19  1  0  0  0  0
 18 44  1  0  0  0  0
 19 20  1  0  0  0  0
 20 21  1  0  0  0  0
 20 45  1  0  0  0  0
 20 46  1  0  0  0  0
 21 26  1  0  0  0  0
 21 22  1  0  0  0  0
 21 23  1  0  0  0  0
 22 47  1  0  0  0  0
 23 24  1  0  0  0  0
 23 48  1  0  0  0  0
 23 49  1  0  0  0  0
 24 25  1  0  0  0  0
 24 50  1  0  0  0  0
 24 51  1  0  0  0  0
 25 26  1  0  0  0  0
 26 52  1  0  0  0  0
 26 53  1  0  0  0  0
M  END
> <s_m_source_file>
AV-unprocessed.smi

> <i_m_source_file_index>
189

> <i_lp_mmshare_version>
43012

> <i_f3d_flags>
0

> <s_epik_input>
W0NIMl0xW0NIMl1bQ0gyXVtDSDJdW0NASF0oW0NASF0xMilOKFtDQEhdKFtDSDNdKVtDSDJdMiljKG5bY0hdbjMpYyhjMzQpbltjSF1uNFtDSDJdW0NAQF01KFtPSF0pW0NIMl1bQ0gyXU9bQ0gyXTU=

> <s_epik_cmdline>
J2VwaWtfcHl0aG9uJywgJy1waCcsICc3LjAnLCAnLXRuJywgJzgnLCAnLW1hJywgJzIwMCcsICctbWV0YWxfYmluZGluZycsICctaW1hZScsICc8aW5maWxlLm1hZT4nLCAnLW9tYWUnLCAnPG91dGZpbGUubWFlPic=

> <r_lp_tautomer_probability>
1

> <r_epik_Ionization_Penalty>
0.00594261

> <r_epik_Ionization_Penalty_Charging>
0

> <r_epik_Ionization_Penalty_Neutral>
0.00594261

> <r_epik_State_Penalty>
0.00429776

> <r_epik_Charging_Adjusted_Penalty>
0.00429776

> <i_epik_Tot_Q>
0

> <i_epik_Tot_abs_Q>
0

> <r_epik_Metal_State_Penalty>
-0

> <b_epik_Metal_Only>
0

> <s_lp_Force_Field>
OPLS_2005

> <r_lp_Energy>
63.5443

> <b_lp_Chiralities_Consistent>
1

> <s_lp_Variant>
AV-unprocessed.smi:189-8

> <Gold.Version>
5.8.1

> <Gold.Id.Protein>
6NUR|6NUR_protein|mol2

> <Gold.PLP.Fitness>
46.5627

> <Gold.PLP.PLP>
-45.0614

> <Gold.PLP.part.hbond>
-1.9280

> <Gold.PLP.part.metal>
0.0000

> <Gold.PLP.part.buried>
-4.3564

> <Gold.PLP.part.nonpolar>
-38.8486

> <Gold.PLP.part.repulsive>
0.0179

> <Gold.PLP.ligand.clash>
0.0000

> <Gold.PLP.ligand.torsion>
0.7818

> <Gold.PLP.Chemscore.Hbond>
1.0000

> <Gold.PLP.Chemscore.CHOScore>
0.0000

> <Gold.PLP.Chemscore.Metal>
0.0000

> <Gold.Chemscore.Hbonds>
donor molecule, donor type, donor heavy atom, donor atom, acceptor molecule, acceptor atom, score
      P1  H  6934  6947       L1    22  1.00

> <Gold.PLP.Chemscore.Internal.Correction>
0.0648

> <Gold.Rescore>
     Score         DG    S(hbond)    S(metal)    S(lipo)     H(rot)  DE(clash)    DE(int)     intcor
     17.22     -17.96       0.99        0.00     122.91       2.03       0.11       0.63       ----

> <Gold.Chemscore.Fitness>
17.2228

> <Gold.Chemscore.DG>
-17.9589

> <Gold.Chemscore.ZeroCoef>
-5.4800

> <Gold.Chemscore.Hbond>
0.9865

> <Gold.Chemscore.Metal>
0.0000

> <Gold.Chemscore.Lipo>
122.9066

> <Gold.Chemscore.Internal_Hbond>
0.0000

> <Gold.Chemscore.DEClash>
0.1074

> <Gold.Chemscore.DEInternal>
0.6287

> <Gold.Chemscore.Rot>
2.0297

> <Gold.Chemscore.Internal.Correction>
   9.000000E+99

> <Gold.Chemscore.Hbonds>
donor molecule, donor type, donor heavy atom, donor atom, acceptor molecule, acceptor atom, score
      P1  H  6934  6947       L1    22  0.99

> <Gold.Chemscore.Hbond.Weighted>
-3.2948

> <Gold.Chemscore.Metal.Weighted>
-0.0000

> <Gold.Chemscore.Lipo.Weighted>
-14.3801

> <Gold.Chemscore.Internal_Hbond.Weighted>
0.0000

> <Gold.Chemscore.DEClash.Weighted>
0.1074

> <Gold.Chemscore.DEInternal.Weighted>
0.6287

> <Gold.Chemscore.Rot.Weighted>
5.1960

> <Gold.Chemscore.Internal.Correction.Weighted>
   9.000000E+99

> <Gold.Protein.RotatedTorsions>
[ 6907 6896 6895 6894 ] final -117.10 input  -60.11 | X-H torsion
[ 7974 7965 7964 7962 ] final -100.39 input  175.53 | X-H torsion
[ 8008 7997 7996 7995 ] final  -78.35 input   59.86 | X-H torsion
[ 10167 10162 10161 10158 ] final -112.58 input  -65.29 | X-H torsion
[ 10718 10713 10712 10709 ] final  -10.49 input   66.30 | X-H torsion
[ 10763 10752 10751 10750 ] final    4.92 input  -60.55 | X-H torsion
[ 11005 11000 10999 10996 ] final   -8.35 input  -57.11 | X-H torsion

> <Gold.Protein.ActiveResidues>
 VAL166  LYS551  ARG553  GLY616  TRP617  ASP618  TYR619  PRO620  LYS621  CYS622 
 ASP623  PHE694  ASN695  SER759  ASP760  ASP761  ALA762  ILE779  LEU786  VAL792 
 PHE793  MET794  SER795  GLU796  ALA797  LYS798  CYS799  TRP800  GLU811  SER814 

> <Gold.Protein.RotatedAtoms>
  150.8109  133.8424  159.3182 H   0  0  0  0  0  0  0  0  0  0  0  0  # atno 6907 bound_to 6896
  151.6209  135.1030  160.0111 H   0  0  0  0  0  0  0  0  0  0  0  0  # atno 6908 bound_to 6896
  152.4201  133.7062  159.6509 H   0  0  0  0  0  0  0  0  0  0  0  0  # atno 6909 bound_to 6896
  145.2952  140.9363  143.2855 H   0  0  0  0  0  0  0  0  0  0  0  0  # atno 7974 bound_to 7965
  154.5681  140.0695  156.8923 H   0  0  0  0  0  0  0  0  0  0  0  0  # atno 8008 bound_to 7997
  155.2685  140.3363  155.4249 H   0  0  0  0  0  0  0  0  0  0  0  0  # atno 8009 bound_to 7997
  156.2097  140.1754  156.7708 H   0  0  0  0  0  0  0  0  0  0  0  0  # atno 8010 bound_to 7997
  140.1211  143.4442  152.1690 H   0  0  0  0  0  0  0  0  0  0  0  0  # atno 10167 bound_to 10162
  156.6728  130.5014  149.5995 H   0  0  0  0  0  0  0  0  0  0  0  0  # atno 10718 bound_to 10713
  153.2655  135.6927  153.7534 H   0  0  0  0  0  0  0  0  0  0  0  0  # atno 10763 bound_to 10752
  153.6577  135.3366  155.3119 H   0  0  0  0  0  0  0  0  0  0  0  0  # atno 10764 bound_to 10752
  154.8445  135.4469  154.1660 H   0  0  0  0  0  0  0  0  0  0  0  0  # atno 10765 bound_to 10752
  140.7226  133.8816  155.8832 H   0  0  0  0  0  0  0  0  0  0  0  0  # atno 11005 bound_to 11000
  144.9139  139.4494  143.6574 LP  0  0  0  0  0  0  0  0  0  0  0  0  # atno 17320 bound_to 7965
  146.3171  139.7962  142.8975 LP  0  0  0  0  0  0  0  0  0  0  0  0  # atno 17321 bound_to 7965
  139.5568  144.7378  151.4271 LP  0  0  0  0  0  0  0  0  0  0  0  0  # atno 17342 bound_to 10162
  140.6871  143.7948  150.7202 LP  0  0  0  0  0  0  0  0  0  0  0  0  # atno 17343 bound_to 10162
  156.1926  130.6569  151.1078 LP  0  0  0  0  0  0  0  0  0  0  0  0  # atno 17370 bound_to 10713
  157.7071  131.0751  150.6629 LP  0  0  0  0  0  0  0  0  0  0  0  0  # atno 17371 bound_to 10713
  140.9990  134.1175  157.4335 LP  0  0  0  0  0  0  0  0  0  0  0  0  # atno 17394 bound_to 11000
  139.8844  135.0063  156.6370 LP  0  0  0  0  0  0  0  0  0  0  0  0  # atno 17395 bound_to 11000

$$$$
