AV-unprocessed.smi:876|AV-procd|sdf|4024|dock7
  -GOLD-   22720 1513D 1   1.00000     0.00000
 Structure written by MMmdl.
 40 41  0  0  0  0  0  0  0  0  1 V2000
  153.3576  142.8386  162.5708 C   0  0  0  0  0  0  0  0  0  0  0  0
  153.3877  142.0014  161.3779 N   0  0  0  0  0  0  0  0  0  0  0  0
  154.4130  140.9724  161.2373 C   0  0  0  0  0  0  0  0  0  0  0  0
  152.4557  142.2131  160.3361 C   0  0  0  0  0  0  0  0  0  0  0  0
  151.9082  143.4953  160.0822 C   0  0  0  0  0  0  0  0  0  0  0  0
  150.9841  143.6571  159.0320 C   0  0  0  0  0  0  0  0  0  0  0  0
  150.6301  142.5337  158.2499 C   0  0  0  0  0  0  0  0  0  0  0  0
  149.6991  142.5591  157.1761 N   0  0  0  0  0  0  0  0  0  0  0  0
  148.8679  141.5884  156.7597 C   0  0  0  0  0  0  0  0  0  0  0  0
  148.7522  140.4764  157.2746 O   0  0  0  0  0  0  0  0  0  0  0  0
  148.1496  141.9886  155.7013 N   0  0  0  0  0  0  0  0  0  0  0  0
  147.1500  141.1760  155.0174 C   0  0  1  0  0  0  0  0  0  0  0  0
  146.6359  141.8862  153.7956 C   0  0  0  0  0  0  0  0  0  0  0  0
  146.8119  141.1825  152.6797 C   0  0  0  0  0  0  0  0  0  0  0  0
  147.5021  139.8640  152.9204 C   0  0  2  0  0  0  0  0  0  0  0  0
  146.6801  138.6627  152.4226 C   0  0  0  0  0  0  0  0  0  0  0  0
  146.6395  138.6371  151.0110 O   0  0  0  0  0  0  0  0  0  0  0  0
  147.7304  139.8518  154.4536 C   0  0  0  0  0  0  0  0  0  0  0  0
  151.2154  141.2975  158.5856 C   0  0  0  0  0  0  0  0  0  0  0  0
  152.1013  141.1382  159.5903 N   0  0  0  0  0  0  0  0  0  0  0  0
  146.3065  140.9789  155.6813 H   0  0  0  0  0  0  0  0  0  0  0  0
  148.4661  139.8869  152.4099 H   0  0  0  0  0  0  0  0  0  0  0  0
  152.4122  142.7172  163.1003 H   0  0  0  0  0  0  0  0  0  0  0  0
  153.4786  143.8894  162.3055 H   0  0  0  0  0  0  0  0  0  0  0  0
  154.1604  142.5766  163.2602 H   0  0  0  0  0  0  0  0  0  0  0  0
  155.0571  141.1885  160.3842 H   0  0  0  0  0  0  0  0  0  0  0  0
  153.9564  139.9935  161.0877 H   0  0  0  0  0  0  0  0  0  0  0  0
  155.0425  140.9131  162.1250 H   0  0  0  0  0  0  0  0  0  0  0  0
  152.1733  144.3579  160.6743 H   0  0  0  0  0  0  0  0  0  0  0  0
  150.5598  144.6340  158.8612 H   0  0  0  0  0  0  0  0  0  0  0  0
  149.6225  143.4430  156.6943 H   0  0  0  0  0  0  0  0  0  0  0  0
  148.3035  142.9197  155.3428 H   0  0  0  0  0  0  0  0  0  0  0  0
  146.1660  142.8573  153.8492 H   0  0  0  0  0  0  0  0  0  0  0  0
  146.5149  141.5028  151.6916 H   0  0  0  0  0  0  0  0  0  0  0  0
  147.1242  137.7299  152.7713 H   0  0  0  0  0  0  0  0  0  0  0  0
  145.6615  138.7010  152.8108 H   0  0  0  0  0  0  0  0  0  0  0  0
  145.7537  138.8142  150.7328 H   0  0  0  0  0  0  0  0  0  0  0  0
  148.7946  139.7508  154.6718 H   0  0  0  0  0  0  0  0  0  0  0  0
  147.2364  139.0000  154.9230 H   0  0  0  0  0  0  0  0  0  0  0  0
  150.9698  140.4050  158.0286 H   0  0  0  0  0  0  0  0  0  0  0  0
  1  2  1  0  0  0  0
  1 23  1  0  0  0  0
  1 24  1  0  0  0  0
  1 25  1  0  0  0  0
  2  3  1  0  0  0  0
  2  4  1  0  0  0  0
  3 26  1  0  0  0  0
  3 27  1  0  0  0  0
  3 28  1  0  0  0  0
  4 20  1  0  0  0  0
  4  5  2  0  0  0  0
  5  6  1  0  0  0  0
  5 29  1  0  0  0  0
  6  7  2  0  0  0  0
  6 30  1  0  0  0  0
  7  8  1  0  0  0  0
  7 19  1  0  0  0  0
  8  9  1  0  0  0  0
  8 31  1  0  0  0  0
  9 10  2  0  0  0  0
  9 11  1  0  0  0  0
 11 12  1  0  0  0  0
 11 32  1  0  0  0  0
 12 21  1  0  0  0  0
 12 18  1  0  0  0  0
 12 13  1  0  0  0  0
 13 14  2  0  0  0  0
 13 33  1  0  0  0  0
 14 15  1  0  0  0  0
 14 34  1  0  0  0  0
 15 22  1  0  0  0  0
 15 16  1  0  0  0  0
 15 18  1  0  0  0  0
 16 17  1  0  0  0  0
 16 35  1  0  0  0  0
 16 36  1  0  0  0  0
 17 37  1  0  0  0  0
 18 38  1  0  0  0  0
 18 39  1  0  0  0  0
 19 20  2  0  0  0  0
 19 40  1  0  0  0  0
M  END
> <s_m_source_file>
AV-unprocessed.smi

> <i_m_source_file_index>
876

> <i_lp_mmshare_version>
43012

> <i_f3d_flags>
0

> <s_epik_input>
W0NIM11OKFtDSDNdKWMxW2NIXVtjSF1jKFtjSF1uMSlbTkhdQyg9TylbTkhdW0NAQEhdMltDSF09W0NIXVtDQEBIXShbQ0gyXTIpW0NIMl1bT0hd

> <s_epik_cmdline>
J2VwaWtfcHl0aG9uJywgJy1waCcsICc3LjAnLCAnLXRuJywgJzgnLCAnLW1hJywgJzIwMCcsICctbWV0YWxfYmluZGluZycsICctaW1hZScsICc8aW5maWxlLm1hZT4nLCAnLW9tYWUnLCAnPG91dGZpbGUubWFlPic=

> <r_lp_tautomer_probability>
1

> <r_epik_Ionization_Penalty>
0.617998

> <r_epik_Ionization_Penalty_Charging>
0

> <r_epik_Ionization_Penalty_Neutral>
0.617998

> <r_epik_State_Penalty>
0.632637

> <r_epik_Charging_Adjusted_Penalty>
0.632637

> <i_epik_Tot_Q>
0

> <i_epik_Tot_abs_Q>
0

> <r_epik_Metal_State_Penalty>
0.305596

> <b_epik_Metal_Only>
0

> <s_lp_Force_Field>
OPLS_2005

> <r_lp_Energy>
20.6708

> <b_lp_Chiralities_Consistent>
1

> <s_lp_Variant>
AV-unprocessed.smi:876-6

> <Gold.Version>
5.8.1

> <Gold.Id.Protein>
6NUR|6NUR_protein|mol2

> <Gold.PLP.Fitness>
49.9080

> <Gold.PLP.PLP>
-39.7264

> <Gold.PLP.part.hbond>
-4.4224

> <Gold.PLP.part.metal>
0.0000

> <Gold.PLP.part.buried>
-3.7778

> <Gold.PLP.part.nonpolar>
-32.4465

> <Gold.PLP.part.repulsive>
0.1065

> <Gold.PLP.ligand.clash>
0.0000

> <Gold.PLP.ligand.torsion>
0.6367

> <Gold.PLP.Chemscore.Hbond>
3.8135

> <Gold.PLP.Chemscore.CHOScore>
0.0000

> <Gold.PLP.Chemscore.Metal>
0.0000

> <Gold.Chemscore.Hbonds>
donor molecule, donor type, donor heavy atom, donor atom, acceptor molecule, acceptor atom, score
      L1  H     8    31       P1  8028  1.00
      L1  H    11    32       P1  8028  0.99
      L1  H    17    37       P1 10171  0.86
      P1  H  7954  7966       L1    17  0.97

> <Gold.PLP.Chemscore.Internal.Correction>
0.0144

> <Gold.Rescore>
     Score         DG    S(hbond)    S(metal)    S(lipo)     H(rot)  DE(clash)    DE(int)     intcor
     18.91     -24.20       3.61        0.00      96.31       1.80       2.62       2.67       ----

> <Gold.Chemscore.Fitness>
18.9051

> <Gold.Chemscore.DG>
-24.1979

> <Gold.Chemscore.ZeroCoef>
-5.4800

> <Gold.Chemscore.Hbond>
3.6085

> <Gold.Chemscore.Metal>
0.0000

> <Gold.Chemscore.Lipo>
96.3116

> <Gold.Chemscore.Internal_Hbond>
0.0000

> <Gold.Chemscore.DEClash>
2.6220

> <Gold.Chemscore.DEInternal>
2.6708

> <Gold.Chemscore.Rot>
1.7980

> <Gold.Chemscore.Internal.Correction>
   9.000000E+99

> <Gold.Chemscore.Hbonds>
donor molecule, donor type, donor heavy atom, donor atom, acceptor molecule, acceptor atom, score
      L1  H     8    31       P1  8028  0.99
      L1  H    11    32       P1  8028  0.93
      L1  H    17    37       P1 10171  0.84
      P1  H  7954  7966       L1    17  0.86

> <Gold.Chemscore.Hbond.Weighted>
-12.0523

> <Gold.Chemscore.Metal.Weighted>
-0.0000

> <Gold.Chemscore.Lipo.Weighted>
-11.2685

> <Gold.Chemscore.Internal_Hbond.Weighted>
0.0000

> <Gold.Chemscore.DEClash.Weighted>
2.6220

> <Gold.Chemscore.DEInternal.Weighted>
2.6708

> <Gold.Chemscore.Rot.Weighted>
4.6029

> <Gold.Chemscore.Internal.Correction.Weighted>
   9.000000E+99

> <Gold.Protein.RotatedTorsions>
[ 6907 6896 6895 6894 ] final  153.56 input  -60.11 | X-H torsion
[ 7974 7965 7964 7962 ] final  -32.86 input  175.53 | X-H torsion
[ 8008 7997 7996 7995 ] final    0.93 input   59.86 | X-H torsion
[ 10167 10162 10161 10158 ] final   63.71 input  -65.29 | X-H torsion
[ 10718 10713 10712 10709 ] final  152.64 input   66.30 | X-H torsion
[ 10763 10752 10751 10750 ] final -132.78 input  -60.55 | X-H torsion
[ 11005 11000 10999 10996 ] final  -38.08 input  -57.11 | X-H torsion

> <Gold.Protein.ActiveResidues>
 VAL166  LYS551  ARG553  GLY616  TRP617  ASP618  TYR619  PRO620  LYS621  CYS622 
 ASP623  PHE694  ASN695  SER759  ASP760  ASP761  ALA762  ILE779  LEU786  VAL792 
 PHE793  MET794  SER795  GLU796  ALA797  LYS798  CYS799  TRP800  GLU811  SER814 

> <Gold.Protein.RotatedAtoms>
  152.0710  133.4106  159.4458 H   0  0  0  0  0  0  0  0  0  0  0  0  # atno 6907 bound_to 6896
  150.6863  134.3092  159.4748 H   0  0  0  0  0  0  0  0  0  0  0  0  # atno 6908 bound_to 6896
  152.0923  134.9398  160.0622 H   0  0  0  0  0  0  0  0  0  0  0  0  # atno 6909 bound_to 6896
  146.0956  140.5845  142.8844 H   0  0  0  0  0  0  0  0  0  0  0  0  # atno 7974 bound_to 7965
  154.6737  140.2617  155.6980 H   0  0  0  0  0  0  0  0  0  0  0  0  # atno 8008 bound_to 7997
  156.2669  140.2824  156.1178 H   0  0  0  0  0  0  0  0  0  0  0  0  # atno 8009 bound_to 7997
  155.1131  140.0376  157.2719 H   0  0  0  0  0  0  0  0  0  0  0  0  # atno 8010 bound_to 7997
  140.1301  144.4651  150.6870 H   0  0  0  0  0  0  0  0  0  0  0  0  # atno 10167 bound_to 10162
  157.2551  131.0787  151.1704 H   0  0  0  0  0  0  0  0  0  0  0  0  # atno 10718 bound_to 10713
  154.8740  135.3787  154.4465 H   0  0  0  0  0  0  0  0  0  0  0  0  # atno 10763 bound_to 10752
  153.5145  135.7029  153.5768 H   0  0  0  0  0  0  0  0  0  0  0  0  # atno 10764 bound_to 10752
  153.4043  135.3940  155.1974 H   0  0  0  0  0  0  0  0  0  0  0  0  # atno 10765 bound_to 10752
  141.0000  133.6960  156.2006 H   0  0  0  0  0  0  0  0  0  0  0  0  # atno 11005 bound_to 11000
  144.7393  140.4897  143.6881 LP  0  0  0  0  0  0  0  0  0  0  0  0  # atno 17320 bound_to 7965
  145.5954  139.1499  143.3159 LP  0  0  0  0  0  0  0  0  0  0  0  0  # atno 17321 bound_to 7965
  140.6822  143.2332  151.5354 LP  0  0  0  0  0  0  0  0  0  0  0  0  # atno 17342 bound_to 10162
  139.5524  144.2361  152.1554 LP  0  0  0  0  0  0  0  0  0  0  0  0  # atno 17343 bound_to 10162
  157.3236  130.6949  149.6283 LP  0  0  0  0  0  0  0  0  0  0  0  0  # atno 17370 bound_to 10713
  155.9665  130.4328  150.4979 LP  0  0  0  0  0  0  0  0  0  0  0  0  # atno 17371 bound_to 10713
  140.6904  134.4672  157.5588 LP  0  0  0  0  0  0  0  0  0  0  0  0  # atno 17394 bound_to 11000
  139.9034  134.8504  156.1802 LP  0  0  0  0  0  0  0  0  0  0  0  0  # atno 17395 bound_to 11000

$$$$
