AV-unprocessed.smi:1338|AV-procd|sdf|5501|dock4
  -GOLD-   22720 5 83D 1   1.00000     0.00000
 Structure written by MMmdl.
 39 40  0  0  0  0  0  0  0  0  2 V2000
  147.5720  136.4658  161.0190 C   0  0  0  0  0  0  0  0  0  0  0  0
  148.2608  137.0756  159.8167 C   0  0  0  0  0  0  0  0  0  0  0  0
  147.6488  137.9617  159.1279 N   0  0  0  0  0  0  0  0  0  0  0  0
  148.2863  138.5344  158.0141 C   0  0  0  0  0  0  0  0  0  0  0  0
  147.4845  139.5806  157.2592 C   0  0  0  0  0  0  0  0  0  0  0  0
  149.5472  138.1600  157.6524 C   0  0  0  0  0  0  0  0  0  0  0  0
  150.2860  138.7567  156.4552 C   0  0  0  0  0  0  0  0  0  0  0  0
  151.3707  139.7790  156.7985 C   0  0  0  0  0  0  0  0  0  0  0  0
  152.5179  139.6256  156.3799 O   0  0  0  0  0  0  0  0  0  0  0  0
  150.9951  140.8182  157.5603 N   0  0  0  0  0  0  0  0  0  0  0  0
  151.8656  141.9062  157.9935 C   0  0  0  0  0  0  0  0  0  0  0  0
  151.9468  141.9583  159.5337 C   0  0  0  0  0  0  0  0  0  0  0  0
  152.7948  143.1477  160.0126 C   0  0  0  0  0  0  0  0  0  0  0  0
  152.2668  144.4739  159.4439 C   0  0  0  0  0  0  0  0  0  0  0  0
  152.1921  144.4277  157.9096 C   0  0  0  0  0  0  0  0  0  0  0  0
  151.3428  143.2403  157.4278 C   0  0  0  0  0  0  0  0  0  0  0  0
  150.2156  137.1311  158.4697 C   0  0  0  0  0  0  0  0  0  0  0  0
  151.3488  136.7476  158.1822 O   0  0  0  0  0  0  0  0  0  0  0  0
  149.5329  136.6296  159.5383 N   0  5  0  0  0  0  0  0  0  0  0  0
  146.5202  136.7527  161.0569 H   0  0  0  0  0  0  0  0  0  0  0  0
  148.0526  136.8026  161.9378 H   0  0  0  0  0  0  0  0  0  0  0  0
  147.6267  135.3774  160.9783 H   0  0  0  0  0  0  0  0  0  0  0  0
  148.0122  140.5340  157.2447 H   0  0  0  0  0  0  0  0  0  0  0  0
  146.5129  139.7457  157.7262 H   0  0  0  0  0  0  0  0  0  0  0  0
  147.3101  139.2616  156.2317 H   0  0  0  0  0  0  0  0  0  0  0  0
  150.7280  137.9420  155.8811 H   0  0  0  0  0  0  0  0  0  0  0  0
  149.5860  139.2248  155.7627 H   0  0  0  0  0  0  0  0  0  0  0  0
  150.0304  140.8621  157.8549 H   0  0  0  0  0  0  0  0  0  0  0  0
  152.8672  141.7390  157.5923 H   0  0  0  0  0  0  0  0  0  0  0  0
  150.9432  142.0388  159.9537 H   0  0  0  0  0  0  0  0  0  0  0  0
  152.3699  141.0307  159.9210 H   0  0  0  0  0  0  0  0  0  0  0  0
  152.7993  143.1855  161.1023 H   0  0  0  0  0  0  0  0  0  0  0  0
  153.8311  143.0040  159.7041 H   0  0  0  0  0  0  0  0  0  0  0  0
  151.2765  144.6791  159.8528 H   0  0  0  0  0  0  0  0  0  0  0  0
  152.9085  145.2964  159.7610 H   0  0  0  0  0  0  0  0  0  0  0  0
  151.7756  145.3609  157.5294 H   0  0  0  0  0  0  0  0  0  0  0  0
  153.1987  144.3479  157.4972 H   0  0  0  0  0  0  0  0  0  0  0  0
  151.3416  143.2087  156.3374 H   0  0  0  0  0  0  0  0  0  0  0  0
  150.3064  143.3917  157.7334 H   0  0  0  0  0  0  0  0  0  0  0  0
  1  2  1  0  0  0  0
  1 20  1  0  0  0  0
  1 21  1  0  0  0  0
  1 22  1  0  0  0  0
  2 19  1  0  0  0  0
  2  3  2  0  0  0  0
  3  4  1  0  0  0  0
  4  5  1  0  0  0  0
  4  6  2  0  0  0  0
  5 23  1  0  0  0  0
  5 24  1  0  0  0  0
  5 25  1  0  0  0  0
  6  7  1  0  0  0  0
  6 17  1  0  0  0  0
  7  8  1  0  0  0  0
  7 26  1  0  0  0  0
  7 27  1  0  0  0  0
  8  9  2  0  0  0  0
  8 10  1  0  0  0  0
 10 11  1  0  0  0  0
 10 28  1  0  0  0  0
 11 16  1  0  0  0  0
 11 12  1  0  0  0  0
 11 29  1  0  0  0  0
 12 13  1  0  0  0  0
 12 30  1  0  0  0  0
 12 31  1  0  0  0  0
 13 14  1  0  0  0  0
 13 32  1  0  0  0  0
 13 33  1  0  0  0  0
 14 15  1  0  0  0  0
 14 34  1  0  0  0  0
 14 35  1  0  0  0  0
 15 16  1  0  0  0  0
 15 36  1  0  0  0  0
 15 37  1  0  0  0  0
 16 38  1  0  0  0  0
 16 39  1  0  0  0  0
 17 18  2  0  0  0  0
 17 19  1  0  0  0  0
M  CHG  1  19  -1
M  END
> <s_m_source_file>
AV-unprocessed.smi

> <i_m_source_file_index>
1338

> <i_lp_mmshare_version>
43012

> <i_f3d_flags>
0

> <s_epik_input>
W0NIM11jMW5jKFtDSDNdKWMoYyg9TylbbkhdMSlbQ0gyXUMoPU8pW05IXVtDSF0yW0NIMl1bQ0gyXVtDSDJdW0NIMl1bQ0gyXTI=

> <s_epik_cmdline>
J2VwaWtfcHl0aG9uJywgJy1waCcsICc3LjAnLCAnLXRuJywgJzgnLCAnLW1hJywgJzIwMCcsICctbWV0YWxfYmluZGluZycsICctaW1hZScsICc8aW5maWxlLm1hZT4nLCAnLW9tYWUnLCAnPG91dGZpbGUubWFlPic=

> <r_lp_tautomer_probability>
0.839158

> <r_epik_Ionization_Penalty>
6.66811

> <r_epik_Ionization_Penalty_Charging>
7.5907e-08

> <r_epik_Ionization_Penalty_Neutral>
6.66811

> <r_epik_State_Penalty>
4.51402

> <r_epik_Charging_Adjusted_Penalty>
4.51402

> <i_epik_Tot_Q>
-1

> <i_epik_Tot_abs_Q>
1

> <r_epik_Metal_State_Penalty>
0.85041

> <b_epik_Metal_Only>
1

> <s_lp_Force_Field>
OPLS_2005

> <r_lp_Energy>
13.4348

> <b_lp_Chiralities_Consistent>
1

> <s_lp_Variant>
AV-unprocessed.smi:1338-3

> <Gold.Version>
5.8.1

> <Gold.Id.Protein>
6NUR|6NUR_protein|mol2

> <Gold.PLP.Fitness>
44.1139

> <Gold.PLP.PLP>
-34.8079

> <Gold.PLP.part.hbond>
-3.4376

> <Gold.PLP.part.metal>
0.0000

> <Gold.PLP.part.buried>
-5.0869

> <Gold.PLP.part.nonpolar>
-26.3693

> <Gold.PLP.part.repulsive>
0.0510

> <Gold.PLP.ligand.clash>
0.0000

> <Gold.PLP.ligand.torsion>
0.2447

> <Gold.PLP.Chemscore.Hbond>
3.2639

> <Gold.PLP.Chemscore.CHOScore>
0.0000

> <Gold.PLP.Chemscore.Metal>
0.0000

> <Gold.Chemscore.Hbonds>
donor molecule, donor type, donor heavy atom, donor atom, acceptor molecule, acceptor atom, score
      P1  H  6896  6907       L1    19  0.76
      P1  H  6934  6947       L1     3  0.19
      P1  H  7997  8009       L1     9  1.00

> <Gold.PLP.Chemscore.Internal.Correction>
0.0037

> <Gold.Rescore>
     Score         DG    S(hbond)    S(metal)    S(lipo)     H(rot)  DE(clash)    DE(int)     intcor
     18.21     -18.66       2.11        0.00      84.46       1.46       0.05       0.40       ----

> <Gold.Chemscore.Fitness>
18.2096

> <Gold.Chemscore.DG>
-18.6593

> <Gold.Chemscore.ZeroCoef>
-5.4800

> <Gold.Chemscore.Hbond>
2.1057

> <Gold.Chemscore.Metal>
0.0000

> <Gold.Chemscore.Lipo>
84.4575

> <Gold.Chemscore.Internal_Hbond>
0.0000

> <Gold.Chemscore.DEClash>
0.0517

> <Gold.Chemscore.DEInternal>
0.3980

> <Gold.Chemscore.Rot>
1.4591

> <Gold.Chemscore.Internal.Correction>
   9.000000E+99

> <Gold.Chemscore.Hbonds>
donor molecule, donor type, donor heavy atom, donor atom, acceptor molecule, acceptor atom, score
      P1  H  6896  6907       L1    19  0.03
      P1  H  6934  6947       L1     3  0.01
      P1  H  7997  8009       L1     9  1.00

> <Gold.Chemscore.Hbond.Weighted>
-7.0331

> <Gold.Chemscore.Metal.Weighted>
-0.0000

> <Gold.Chemscore.Lipo.Weighted>
-9.8815

> <Gold.Chemscore.Internal_Hbond.Weighted>
0.0000

> <Gold.Chemscore.DEClash.Weighted>
0.0517

> <Gold.Chemscore.DEInternal.Weighted>
0.3980

> <Gold.Chemscore.Rot.Weighted>
3.7353

> <Gold.Chemscore.Internal.Correction.Weighted>
   9.000000E+99

> <Gold.Protein.RotatedTorsions>
[ 6907 6896 6895 6894 ] final  -49.64 input  -60.11 | X-H torsion
[ 7974 7965 7964 7962 ] final -149.29 input  175.53 | X-H torsion
[ 8008 7997 7996 7995 ] final -166.30 input   59.86 | X-H torsion
[ 10167 10162 10161 10158 ] final  103.33 input  -65.29 | X-H torsion
[ 10718 10713 10712 10709 ] final  107.46 input   66.30 | X-H torsion
[ 10763 10752 10751 10750 ] final -167.09 input  -60.55 | X-H torsion
[ 11005 11000 10999 10996 ] final  -10.55 input  -57.11 | X-H torsion

> <Gold.Protein.ActiveResidues>
 VAL166  LYS551  ARG553  GLY616  TRP617  ASP618  TYR619  PRO620  LYS621  CYS622 
 ASP623  PHE694  ASN695  SER759  ASP760  ASP761  ALA762  ILE779  LEU786  VAL792 
 PHE793  MET794  SER795  GLU796  ALA797  LYS798  CYS799  TRP800  GLU811  SER814 

> <Gold.Protein.RotatedAtoms>
  150.8785  134.8172  159.7206 H   0  0  0  0  0  0  0  0  0  0  0  0  # atno 6907 bound_to 6896
  152.4762  134.4834  159.9682 H   0  0  0  0  0  0  0  0  0  0  0  0  # atno 6908 bound_to 6896
  151.4912  133.3486  159.2889 H   0  0  0  0  0  0  0  0  0  0  0  0  # atno 6909 bound_to 6896
  144.7976  140.5084  143.5729 H   0  0  0  0  0  0  0  0  0  0  0  0  # atno 7974 bound_to 7965
  155.8619  140.0979  157.1608 H   0  0  0  0  0  0  0  0  0  0  0  0  # atno 8008 bound_to 7997
  154.3991  140.1363  156.4034 H   0  0  0  0  0  0  0  0  0  0  0  0  # atno 8009 bound_to 7997
  155.7847  140.3457  155.5319 H   0  0  0  0  0  0  0  0  0  0  0  0  # atno 8010 bound_to 7997
  139.7272  144.7044  151.0779 H   0  0  0  0  0  0  0  0  0  0  0  0  # atno 10167 bound_to 10162
  157.6627  131.0873  150.6159 H   0  0  0  0  0  0  0  0  0  0  0  0  # atno 10718 bound_to 10713
  154.6768  135.2948  154.9668 H   0  0  0  0  0  0  0  0  0  0  0  0  # atno 10763 bound_to 10752
  154.0676  135.6622  153.4824 H   0  0  0  0  0  0  0  0  0  0  0  0  # atno 10764 bound_to 10752
  153.0521  135.5167  154.7790 H   0  0  0  0  0  0  0  0  0  0  0  0  # atno 10765 bound_to 10752
  140.7459  133.8632  155.9005 H   0  0  0  0  0  0  0  0  0  0  0  0  # atno 11005 bound_to 11000
  145.5633  139.1480  143.3329 LP  0  0  0  0  0  0  0  0  0  0  0  0  # atno 17320 bound_to 7965
  146.2249  140.5768  142.9001 LP  0  0  0  0  0  0  0  0  0  0  0  0  # atno 17321 bound_to 7965
  140.7765  143.5090  150.9677 LP  0  0  0  0  0  0  0  0  0  0  0  0  # atno 17342 bound_to 10162
  139.8777  143.7111  152.3160 LP  0  0  0  0  0  0  0  0  0  0  0  0  # atno 17343 bound_to 10162
  156.6461  130.4472  149.5735 LP  0  0  0  0  0  0  0  0  0  0  0  0  # atno 17370 bound_to 10713
  156.2173  130.6715  151.1331 LP  0  0  0  0  0  0  0  0  0  0  0  0  # atno 17371 bound_to 10713
  140.9794  134.1425  157.4507 LP  0  0  0  0  0  0  0  0  0  0  0  0  # atno 17394 bound_to 11000
  139.8797  135.0005  156.6017 LP  0  0  0  0  0  0  0  0  0  0  0  0  # atno 17395 bound_to 11000

$$$$
