AV-unprocessed.smi:671|AV-procd|sdf|3273|dock5
  -GOLD-   22720 0233D 1   1.00000     0.00000
 Structure written by MMmdl.
 49 50  0  0  0  0  0  0  0  0  1 V2000
  147.5385  138.0868  154.0501 C   0  0  0  0  0  0  0  0  0  0  0  0
  149.0229  138.1092  154.2822 C   0  0  0  0  0  0  0  0  0  0  0  0
  149.6421  136.9891  154.6147 N   0  0  0  0  0  0  0  0  0  0  0  0
  150.9354  137.3407  154.7605 N   0  0  0  0  0  0  0  0  0  0  0  0
  151.9080  136.3311  155.1311 C   0  0  0  0  0  0  0  0  0  0  0  0
  151.1347  138.6857  154.5158 C   0  0  0  0  0  0  0  0  0  0  0  0
  152.4844  139.3210  154.6113 C   0  0  0  0  0  0  0  0  0  0  0  0
  149.9135  139.2202  154.2022 C   0  0  0  0  0  0  0  0  0  0  0  0
  149.5619  140.6442  153.8559 C   0  0  0  0  0  0  0  0  0  0  0  0
  148.4617  141.2192  154.7762 C   0  0  2  0  0  0  0  0  0  0  0  0
  147.3252  141.8889  153.9879 C   0  0  0  0  0  0  0  0  0  0  0  0
  149.0292  142.1974  155.7077 N   0  0  0  0  0  0  0  0  0  0  0  0
  149.5553  141.9768  156.9268 C   0  0  0  0  0  0  0  0  0  0  0  0
  149.6012  140.8516  157.4201 O   0  0  0  0  0  0  0  0  0  0  0  0
  150.0003  143.0798  157.5513 N   0  0  0  0  0  0  0  0  0  0  0  0
  150.6050  143.1222  158.8789 C   0  0  2  0  0  0  0  0  0  0  0  0
  149.9826  144.2615  159.7073 C   0  0  0  0  0  0  0  0  0  0  0  0
  151.0619  145.3371  159.8232 C   0  0  0  0  0  0  0  0  0  0  0  0
  152.3668  144.5486  159.8084 C   0  0  0  0  0  0  0  0  0  0  0  0
  152.1187  143.4267  158.7941 C   0  0  1  0  0  0  0  0  0  0  0  0
  153.0116  142.1978  159.0160 C   0  0  0  0  0  0  0  0  0  0  0  0
  147.2616  138.7120  153.2020 H   0  0  0  0  0  0  0  0  0  0  0  0
  147.0038  138.4587  154.9237 H   0  0  0  0  0  0  0  0  0  0  0  0
  147.1775  137.0789  153.8437 H   0  0  0  0  0  0  0  0  0  0  0  0
  152.5474  136.1086  154.2766 H   0  0  0  0  0  0  0  0  0  0  0  0
  151.4089  135.4148  155.4493 H   0  0  0  0  0  0  0  0  0  0  0  0
  152.5242  136.6967  155.9529 H   0  0  0  0  0  0  0  0  0  0  0  0
  152.4853  140.3177  154.1713 H   0  0  0  0  0  0  0  0  0  0  0  0
  153.2335  138.7283  154.0859 H   0  0  0  0  0  0  0  0  0  0  0  0
  152.7938  139.4135  155.6524 H   0  0  0  0  0  0  0  0  0  0  0  0
  150.4581  141.2609  153.9252 H   0  0  0  0  0  0  0  0  0  0  0  0
  149.2447  140.7281  152.8162 H   0  0  0  0  0  0  0  0  0  0  0  0
  148.0169  140.4082  155.3549 H   0  0  0  0  0  0  0  0  0  0  0  0
  146.8232  141.1783  153.3312 H   0  0  0  0  0  0  0  0  0  0  0  0
  147.6978  142.7068  153.3704 H   0  0  0  0  0  0  0  0  0  0  0  0
  146.5697  142.2969  154.6600 H   0  0  0  0  0  0  0  0  0  0  0  0
  148.9731  143.1620  155.4139 H   0  0  0  0  0  0  0  0  0  0  0  0
  149.9142  143.9608  157.0663 H   0  0  0  0  0  0  0  0  0  0  0  0
  150.4249  142.1807  159.4018 H   0  0  0  0  0  0  0  0  0  0  0  0
  149.0566  144.6524  159.2836 H   0  0  0  0  0  0  0  0  0  0  0  0
  149.7426  143.8886  160.7040 H   0  0  0  0  0  0  0  0  0  0  0  0
  151.0212  145.9981  158.9566 H   0  0  0  0  0  0  0  0  0  0  0  0
  150.9500  145.9501  160.7180 H   0  0  0  0  0  0  0  0  0  0  0  0
  153.2260  145.1671  159.5473 H   0  0  0  0  0  0  0  0  0  0  0  0
  152.5477  144.1293  160.7993 H   0  0  0  0  0  0  0  0  0  0  0  0
  152.3432  143.8351  157.8067 H   0  0  0  0  0  0  0  0  0  0  0  0
  152.8364  141.7505  159.9950 H   0  0  0  0  0  0  0  0  0  0  0  0
  154.0667  142.4655  158.9548 H   0  0  0  0  0  0  0  0  0  0  0  0
  152.8195  141.4345  158.2617 H   0  0  0  0  0  0  0  0  0  0  0  0
  1  2  1  0  0  0  0
  1 22  1  0  0  0  0
  1 23  1  0  0  0  0
  1 24  1  0  0  0  0
  2  8  1  0  0  0  0
  2  3  2  0  0  0  0
  3  4  1  0  0  0  0
  4  5  1  0  0  0  0
  4  6  1  0  0  0  0
  5 25  1  0  0  0  0
  5 26  1  0  0  0  0
  5 27  1  0  0  0  0
  6  7  1  0  0  0  0
  6  8  2  0  0  0  0
  7 28  1  0  0  0  0
  7 29  1  0  0  0  0
  7 30  1  0  0  0  0
  8  9  1  0  0  0  0
  9 10  1  0  0  0  0
  9 31  1  0  0  0  0
  9 32  1  0  0  0  0
 10 11  1  0  0  0  0
 10 12  1  0  0  0  0
 10 33  1  0  0  0  0
 11 34  1  0  0  0  0
 11 35  1  0  0  0  0
 11 36  1  0  0  0  0
 12 13  1  0  0  0  0
 12 37  1  0  0  0  0
 13 14  2  0  0  0  0
 13 15  1  0  0  0  0
 15 16  1  0  0  0  0
 15 38  1  0  0  0  0
 16 20  1  0  0  0  0
 16 17  1  0  0  0  0
 16 39  1  0  0  0  0
 17 18  1  0  0  0  0
 17 40  1  0  0  0  0
 17 41  1  0  0  0  0
 18 19  1  0  0  0  0
 18 42  1  0  0  0  0
 18 43  1  0  0  0  0
 19 20  1  0  0  0  0
 19 44  1  0  0  0  0
 19 45  1  0  0  0  0
 20 21  1  0  0  0  0
 20 46  1  0  0  0  0
 21 47  1  0  0  0  0
 21 48  1  0  0  0  0
 21 49  1  0  0  0  0
M  END
> <s_m_source_file>
AV-unprocessed.smi

> <i_m_source_file_index>
671

> <i_lp_mmshare_version>
43012

> <i_f3d_flags>
0

> <s_epik_input>
W0NIM11jMW5uKFtDSDNdKWMoW0NIM10pYzFbQ0gyXVtDQEhdKFtDSDNdKVtOSF1DKD1PKVtOSF1bQ0BASF0yW0NIMl1bQ0gyXVtDSDJdW0NASF0yW0NIM10=

> <s_epik_cmdline>
J2VwaWtfcHl0aG9uJywgJy1waCcsICc3LjAnLCAnLXRuJywgJzgnLCAnLW1hJywgJzIwMCcsICctbWV0YWxfYmluZGluZycsICctaW1hZScsICc8aW5maWxlLm1hZT4nLCAnLW9tYWUnLCAnPG91dGZpbGUubWFlPic=

> <r_lp_tautomer_probability>
1

> <r_epik_Ionization_Penalty>
0.0126855

> <r_epik_Ionization_Penalty_Charging>
0

> <r_epik_Ionization_Penalty_Neutral>
0.0126855

> <r_epik_State_Penalty>
0.00977547

> <r_epik_Charging_Adjusted_Penalty>
0.00977547

> <i_epik_Tot_Q>
0

> <i_epik_Tot_abs_Q>
0

> <r_epik_Metal_State_Penalty>
0.00957132

> <b_epik_Metal_Only>
0

> <s_lp_Force_Field>
OPLS_2005

> <r_lp_Energy>
21.9144

> <b_lp_Chiralities_Consistent>
1

> <s_lp_Variant>
AV-unprocessed.smi:671-1

> <Gold.Version>
5.8.1

> <Gold.Id.Protein>
6NUR|6NUR_protein|mol2

> <Gold.PLP.Fitness>
42.4353

> <Gold.PLP.PLP>
-39.5186

> <Gold.PLP.part.hbond>
-1.8268

> <Gold.PLP.part.metal>
0.0000

> <Gold.PLP.part.buried>
-3.4746

> <Gold.PLP.part.nonpolar>
-34.6781

> <Gold.PLP.part.repulsive>
0.2921

> <Gold.PLP.ligand.clash>
0.0000

> <Gold.PLP.ligand.torsion>
1.2045

> <Gold.PLP.Chemscore.Hbond>
1.7680

> <Gold.PLP.Chemscore.CHOScore>
0.0000

> <Gold.PLP.Chemscore.Metal>
0.0000

> <Gold.Chemscore.Hbonds>
donor molecule, donor type, donor heavy atom, donor atom, acceptor molecule, acceptor atom, score
      L1  H    12    37       P1  8028  1.00
      L1  H    15    38       P1  8028  0.80

> <Gold.PLP.Chemscore.Internal.Correction>
0.0216

> <Gold.Rescore>
     Score         DG    S(hbond)    S(metal)    S(lipo)     H(rot)  DE(clash)    DE(int)     intcor
     17.30     -20.20       1.82        0.00     105.56       1.45       2.21       0.69       ----

> <Gold.Chemscore.Fitness>
17.3044

> <Gold.Chemscore.DG>
-20.2046

> <Gold.Chemscore.ZeroCoef>
-5.4800

> <Gold.Chemscore.Hbond>
1.8223

> <Gold.Chemscore.Metal>
0.0000

> <Gold.Chemscore.Lipo>
105.5554

> <Gold.Chemscore.Internal_Hbond>
0.0000

> <Gold.Chemscore.DEClash>
2.2061

> <Gold.Chemscore.DEInternal>
0.6942

> <Gold.Chemscore.Rot>
1.4499

> <Gold.Chemscore.Internal.Correction>
   9.000000E+99

> <Gold.Chemscore.Hbonds>
donor molecule, donor type, donor heavy atom, donor atom, acceptor molecule, acceptor atom, score
      L1  H    12    37       P1  8028  0.95
      L1  H    15    38       P1  8028  0.72

> <Gold.Chemscore.Hbond.Weighted>
-6.0865

> <Gold.Chemscore.Metal.Weighted>
-0.0000

> <Gold.Chemscore.Lipo.Weighted>
-12.3500

> <Gold.Chemscore.Internal_Hbond.Weighted>
0.0000

> <Gold.Chemscore.DEClash.Weighted>
2.2061

> <Gold.Chemscore.DEInternal.Weighted>
0.6942

> <Gold.Chemscore.Rot.Weighted>
3.7118

> <Gold.Chemscore.Internal.Correction.Weighted>
   9.000000E+99

> <Gold.Protein.RotatedTorsions>
[ 6907 6896 6895 6894 ] final -167.34 input  -60.11 | X-H torsion
[ 7974 7965 7964 7962 ] final  139.97 input  175.53 | X-H torsion
[ 8008 7997 7996 7995 ] final  118.21 input   59.86 | X-H torsion
[ 10167 10162 10161 10158 ] final   64.18 input  -65.29 | X-H torsion
[ 10718 10713 10712 10709 ] final  100.56 input   66.30 | X-H torsion
[ 10763 10752 10751 10750 ] final  129.65 input  -60.55 | X-H torsion
[ 11005 11000 10999 10996 ] final    1.60 input  -57.11 | X-H torsion

> <Gold.Protein.ActiveResidues>
 VAL166  LYS551  ARG553  GLY616  TRP617  ASP618  TYR619  PRO620  LYS621  CYS622 
 ASP623  PHE694  ASN695  SER759  ASP760  ASP761  ALA762  ILE779  LEU786  VAL792 
 PHE793  MET794  SER795  GLU796  ALA797  LYS798  CYS799  TRP800  GLU811  SER814 

> <Gold.Protein.RotatedAtoms>
  151.4580  133.3600  159.2804 H   0  0  0  0  0  0  0  0  0  0  0  0  # atno 6907 bound_to 6896
  150.9045  134.8461  159.7394 H   0  0  0  0  0  0  0  0  0  0  0  0  # atno 6908 bound_to 6896
  152.4898  134.4503  159.9624 H   0  0  0  0  0  0  0  0  0  0  0  0  # atno 6909 bound_to 6896
  144.9230  139.5143  143.5654 H   0  0  0  0  0  0  0  0  0  0  0  0  # atno 7974 bound_to 7965
  156.2534  140.2879  156.0799 H   0  0  0  0  0  0  0  0  0  0  0  0  # atno 8008 bound_to 7997
  155.1578  140.0399  157.2853 H   0  0  0  0  0  0  0  0  0  0  0  0  # atno 8009 bound_to 7997
  154.6414  140.2523  155.7324 H   0  0  0  0  0  0  0  0  0  0  0  0  # atno 8010 bound_to 7997
  140.1250  144.4696  150.6898 H   0  0  0  0  0  0  0  0  0  0  0  0  # atno 10167 bound_to 10162
  157.6851  131.0702  150.5120 H   0  0  0  0  0  0  0  0  0  0  0  0  # atno 10718 bound_to 10713
  153.7451  135.3218  155.3311 H   0  0  0  0  0  0  0  0  0  0  0  0  # atno 10763 bound_to 10752
  154.8282  135.4554  154.0987 H   0  0  0  0  0  0  0  0  0  0  0  0  # atno 10764 bound_to 10752
  153.2174  135.6943  153.8123 H   0  0  0  0  0  0  0  0  0  0  0  0  # atno 10765 bound_to 10752
  140.6137  133.9725  155.8190 H   0  0  0  0  0  0  0  0  0  0  0  0  # atno 11005 bound_to 11000
  146.3213  139.8123  142.8943 LP  0  0  0  0  0  0  0  0  0  0  0  0  # atno 17320 bound_to 7965
  145.3265  141.0256  143.3470 LP  0  0  0  0  0  0  0  0  0  0  0  0  # atno 17321 bound_to 7965
  140.6850  143.2345  151.5284 LP  0  0  0  0  0  0  0  0  0  0  0  0  # atno 17342 bound_to 10162
  139.5549  144.2301  152.1595 LP  0  0  0  0  0  0  0  0  0  0  0  0  # atno 17343 bound_to 10162
  156.5436  130.4214  149.6141 LP  0  0  0  0  0  0  0  0  0  0  0  0  # atno 17370 bound_to 10713
  156.2963  130.7152  151.2013 LP  0  0  0  0  0  0  0  0  0  0  0  0  # atno 17371 bound_to 10713
  141.0791  134.0090  157.3414 LP  0  0  0  0  0  0  0  0  0  0  0  0  # atno 17394 bound_to 11000
  139.9182  135.0198  156.7962 LP  0  0  0  0  0  0  0  0  0  0  0  0  # atno 17395 bound_to 11000

$$$$
