AV-unprocessed.smi:3034|AV-procd|sdf|11579|dock8
  -GOLD-   2272016543D 1   1.00000     0.00000
 Structure written by MMmdl.
 31 31  0  0  0  0  0  0  0  0  2 V2000
  151.0623  137.0904  154.0519 C   0  0  0  0  0  0  0  0  0  0  0  0
  151.2207  138.5866  153.7611 C   0  0  0  0  0  0  0  0  0  0  0  0
  151.6044  139.3831  155.0139 C   0  0  0  0  0  0  0  0  0  0  0  0
  153.2706  138.8869  155.6457 S   0  0  0  0  0  0  0  0  0  0  0  0
  153.2847  137.4143  155.6576 O   0  0  0  0  0  0  0  0  0  0  0  0
  154.2314  139.5417  154.7452 O   0  0  0  0  0  0  0  0  0  0  0  0
  153.3066  139.5579  157.1276 N   0  5  0  0  0  0  0  0  0  0  0  0
  152.3816  140.6214  157.5054 C   0  0  0  0  0  0  0  0  0  0  0  0
  152.9322  141.4253  158.7129 C   0  0  2  0  0  0  0  0  0  0  0  0
  153.0114  140.5521  159.8238 O   0  0  0  0  0  0  0  0  0  0  0  0
  152.1508  142.7018  159.0437 C   0  0  0  0  0  0  0  0  0  0  0  0
  152.6168  143.5804  160.0491 C   0  0  0  0  0  0  0  0  0  0  0  0
  151.8831  144.7507  160.3209 C   0  0  0  0  0  0  0  0  0  0  0  0
  150.7068  144.9994  159.5893 C   0  0  0  0  0  0  0  0  0  0  0  0
  150.3124  144.0597  158.6172 C   0  0  0  0  0  0  0  0  0  0  0  0
  151.0077  142.9342  158.3493 N   0  0  0  0  0  0  0  0  0  0  0  0
  150.7888  136.5452  153.1485 H   0  0  0  0  0  0  0  0  0  0  0  0
  150.2846  136.9152  154.7960 H   0  0  0  0  0  0  0  0  0  0  0  0
  151.9912  136.6636  154.4310 H   0  0  0  0  0  0  0  0  0  0  0  0
  151.9808  138.7277  152.9919 H   0  0  0  0  0  0  0  0  0  0  0  0
  150.2885  138.9749  153.3499 H   0  0  0  0  0  0  0  0  0  0  0  0
  151.6308  140.4498  154.7940 H   0  0  0  0  0  0  0  0  0  0  0  0
  150.8708  139.2192  155.8027 H   0  0  0  0  0  0  0  0  0  0  0  0
  152.1826  141.3103  156.6834 H   0  0  0  0  0  0  0  0  0  0  0  0
  151.4113  140.2000  157.7715 H   0  0  0  0  0  0  0  0  0  0  0  0
  153.9609  141.7139  158.4920 H   0  0  0  0  0  0  0  0  0  0  0  0
  153.7292  140.8330  160.3695 H   0  0  0  0  0  0  0  0  0  0  0  0
  153.5285  143.3698  160.5886 H   0  0  0  0  0  0  0  0  0  0  0  0
  152.2190  145.4467  161.0751 H   0  0  0  0  0  0  0  0  0  0  0  0
  150.1207  145.8884  159.7688 H   0  0  0  0  0  0  0  0  0  0  0  0
  149.4139  144.2162  158.0389 H   0  0  0  0  0  0  0  0  0  0  0  0
  1  2  1  0  0  0  0
  1 17  1  0  0  0  0
  1 18  1  0  0  0  0
  1 19  1  0  0  0  0
  2  3  1  0  0  0  0
  2 20  1  0  0  0  0
  2 21  1  0  0  0  0
  3  4  1  0  0  0  0
  3 22  1  0  0  0  0
  3 23  1  0  0  0  0
  4  5  2  0  0  0  0
  4  6  2  0  0  0  0
  4  7  1  0  0  0  0
  7  8  1  0  0  0  0
  8  9  1  0  0  0  0
  8 24  1  0  0  0  0
  8 25  1  0  0  0  0
  9 10  1  0  0  0  0
  9 11  1  0  0  0  0
  9 26  1  0  0  0  0
 10 27  1  0  0  0  0
 11 16  1  0  0  0  0
 11 12  2  0  0  0  0
 12 13  1  0  0  0  0
 12 28  1  0  0  0  0
 13 14  2  0  0  0  0
 13 29  1  0  0  0  0
 14 15  1  0  0  0  0
 14 30  1  0  0  0  0
 15 16  2  0  0  0  0
 15 31  1  0  0  0  0
M  CHG  1   7  -1
M  END
> <s_m_source_file>
AV-unprocessed.smi

> <i_m_source_file_index>
3034

> <i_lp_mmshare_version>
43012

> <i_f3d_flags>
0

> <s_epik_input>
W0NIM11bQ0gyXVtDSDJdUyg9TykoPU8pW05IXVtDSDJdW0NASF0oW09IXSljMVtjSF1bY0hdW2NIXVtjSF1uMQ==

> <s_epik_cmdline>
J2VwaWtfcHl0aG9uJywgJy1waCcsICc3LjAnLCAnLXRuJywgJzgnLCAnLW1hJywgJzIwMCcsICctbWV0YWxfYmluZGluZycsICctaW1hZScsICc8aW5maWxlLm1hZT4nLCAnLW9tYWUnLCAnPG91dGZpbGUubWFlPic=

> <r_epik_Ionization_Penalty>
6.18156

> <r_epik_Ionization_Penalty_Charging>
6.17474

> <r_epik_Ionization_Penalty_Neutral>
0.0068235

> <r_epik_State_Penalty>
6.17598

> <r_epik_Charging_Adjusted_Penalty>
12.3507

> <i_epik_Tot_Q>
-1

> <i_epik_Tot_abs_Q>
1

> <r_epik_Metal_State_Penalty>
2.11803

> <b_epik_Metal_Only>
1

> <s_lp_Force_Field>
OPLS_2005

> <r_lp_Energy>
-0.388479

> <b_lp_Chiralities_Consistent>
1

> <s_lp_Variant>
AV-unprocessed.smi:3034-3

> <Gold.Version>
5.8.1

> <Gold.Id.Protein>
6NUR|6NUR_protein|mol2

> <Gold.PLP.Fitness>
43.3858

> <Gold.PLP.PLP>
-31.8953

> <Gold.PLP.part.hbond>
-3.2525

> <Gold.PLP.part.metal>
0.0000

> <Gold.PLP.part.buried>
-4.3954

> <Gold.PLP.part.nonpolar>
-24.9411

> <Gold.PLP.part.repulsive>
0.1036

> <Gold.PLP.ligand.clash>
0.0000

> <Gold.PLP.ligand.torsion>
1.1005

> <Gold.PLP.Chemscore.Hbond>
3.1200

> <Gold.PLP.Chemscore.CHOScore>
1.0924

> <Gold.PLP.Chemscore.Metal>
0.0000

> <Gold.Chemscore.Hbonds>
donor molecule, donor type, donor heavy atom, donor atom, acceptor molecule, acceptor atom, score
      P1  H  7997  8008       L1     6  0.35
      P1  H  7997  8010       L1     7  0.79
      P1  H 10752 10764       L1     5  0.29
      L1  C    15    31       P1  8028  0.51
      L1  C    15    31       P1  8029  0.60

> <Gold.PLP.Chemscore.Internal.Correction>
1.0543

> <Gold.Rescore>
     Score         DG    S(hbond)    S(metal)    S(lipo)     H(rot)  DE(clash)    DE(int)     intcor
     12.32     -14.81       1.50        0.00      86.91       2.29       0.01       2.47       ----

> <Gold.Chemscore.Fitness>
12.3217

> <Gold.Chemscore.DG>
-14.8067

> <Gold.Chemscore.ZeroCoef>
-5.4800

> <Gold.Chemscore.Hbond>
1.5028

> <Gold.Chemscore.Metal>
0.0000

> <Gold.Chemscore.Lipo>
86.9115

> <Gold.Chemscore.Internal_Hbond>
0.0000

> <Gold.Chemscore.DEClash>
0.0149

> <Gold.Chemscore.DEInternal>
2.4701

> <Gold.Chemscore.Rot>
2.2895

> <Gold.Chemscore.Internal.Correction>
   9.000000E+99

> <Gold.Chemscore.Hbonds>
donor molecule, donor type, donor heavy atom, donor atom, acceptor molecule, acceptor atom, score
      P1  H  7997  8008       L1     6  0.29
      P1  H  7997  8010       L1     7  0.03
      P1  H 10752 10764       L1     5  0.26

> <Gold.Chemscore.Hbond.Weighted>
-5.0192

> <Gold.Chemscore.Metal.Weighted>
-0.0000

> <Gold.Chemscore.Lipo.Weighted>
-10.1686

> <Gold.Chemscore.Internal_Hbond.Weighted>
0.0000

> <Gold.Chemscore.DEClash.Weighted>
0.0149

> <Gold.Chemscore.DEInternal.Weighted>
2.4701

> <Gold.Chemscore.Rot.Weighted>
5.8612

> <Gold.Chemscore.Internal.Correction.Weighted>
   9.000000E+99

> <Gold.Protein.RotatedTorsions>
[ 6907 6896 6895 6894 ] final  120.70 input  -60.11 | X-H torsion
[ 7974 7965 7964 7962 ] final   20.49 input  175.53 | X-H torsion
[ 8008 7997 7996 7995 ] final   34.40 input   59.86 | X-H torsion
[ 10167 10162 10161 10158 ] final   19.29 input  -65.29 | X-H torsion
[ 10718 10713 10712 10709 ] final   -0.22 input   66.30 | X-H torsion
[ 10763 10752 10751 10750 ] final  -42.93 input  -60.55 | X-H torsion
[ 11005 11000 10999 10996 ] final  137.85 input  -57.11 | X-H torsion

> <Gold.Protein.ActiveResidues>
 VAL166  LYS551  ARG553  GLY616  TRP617  ASP618  TYR619  PRO620  LYS621  CYS622 
 ASP623  PHE694  ASN695  SER759  ASP760  ASP761  ALA762  ILE779  LEU786  VAL792 
 PHE793  MET794  SER795  GLU796  ALA797  LYS798  CYS799  TRP800  GLU811  SER814 

> <Gold.Protein.RotatedAtoms>
  152.4378  133.7393  159.6631 H   0  0  0  0  0  0  0  0  0  0  0  0  # atno 6907 bound_to 6896
  150.8264  133.8154  159.3123 H   0  0  0  0  0  0  0  0  0  0  0  0  # atno 6908 bound_to 6896
  151.5821  135.1060  160.0071 H   0  0  0  0  0  0  0  0  0  0  0  0  # atno 6909 bound_to 6896
  146.2109  139.8162  142.8689 H   0  0  0  0  0  0  0  0  0  0  0  0  # atno 7974 bound_to 7965
  155.1541  140.3277  155.4425 H   0  0  0  0  0  0  0  0  0  0  0  0  # atno 8008 bound_to 7997
  156.2564  140.1971  156.6602 H   0  0  0  0  0  0  0  0  0  0  0  0  # atno 8009 bound_to 7997
  154.6452  140.0565  156.9878 H   0  0  0  0  0  0  0  0  0  0  0  0  # atno 8010 bound_to 7997
  140.5590  143.9372  150.6629 H   0  0  0  0  0  0  0  0  0  0  0  0  # atno 10167 bound_to 10162
  156.8236  130.5465  149.5694 H   0  0  0  0  0  0  0  0  0  0  0  0  # atno 10718 bound_to 10713
  153.9871  135.6710  153.4752 H   0  0  0  0  0  0  0  0  0  0  0  0  # atno 10763 bound_to 10752
  153.0722  135.4968  154.8325 H   0  0  0  0  0  0  0  0  0  0  0  0  # atno 10764 bound_to 10752
  154.7131  135.3101  154.9129 H   0  0  0  0  0  0  0  0  0  0  0  0  # atno 10765 bound_to 10752
  140.0143  134.9425  157.0343 H   0  0  0  0  0  0  0  0  0  0  0  0  # atno 11005 bound_to 11000
  145.3144  141.0228  143.3536 LP  0  0  0  0  0  0  0  0  0  0  0  0  # atno 17320 bound_to 7965
  144.8912  139.4772  143.6677 LP  0  0  0  0  0  0  0  0  0  0  0  0  # atno 17321 bound_to 7965
  140.2818  143.3384  152.1144 LP  0  0  0  0  0  0  0  0  0  0  0  0  # atno 17342 bound_to 10162
  139.5061  144.6807  151.6014 LP  0  0  0  0  0  0  0  0  0  0  0  0  # atno 17343 bound_to 10162
  156.0974  130.5943  150.9837 LP  0  0  0  0  0  0  0  0  0  0  0  0  # atno 17370 bound_to 10713
  157.6443  131.0906  150.8185 LP  0  0  0  0  0  0  0  0  0  0  0  0  # atno 17371 bound_to 10713
  140.4499  134.1593  155.7180 LP  0  0  0  0  0  0  0  0  0  0  0  0  # atno 17394 bound_to 11000
  141.1732  133.8567  157.1505 LP  0  0  0  0  0  0  0  0  0  0  0  0  # atno 17395 bound_to 11000

$$$$
