AV-unprocessed.smi:1947|AV-procd|sdf|7871|dock9
  -GOLD-   2272010 23D 1   1.00000     0.00000
 Structure written by MMmdl.
 38 39  0  0  0  0  0  0  0  0  2 V2000
  150.9754  139.0226  154.9841 C   0  0  0  0  0  0  0  0  0  0  0  0
  149.7784  139.8036  154.4199 C   0  0  2  0  0  0  0  0  0  0  0  0
  149.2174  140.8125  155.4426 C   0  0  0  0  0  0  0  0  0  0  0  0
  148.0433  141.6151  154.8595 C   0  0  0  0  0  0  0  0  0  0  0  0
  146.9384  140.6866  154.3332 C   0  0  0  0  0  0  0  0  0  0  0  0
  147.4964  139.6823  153.3110 C   0  0  0  0  0  0  0  0  0  0  0  0
  148.6680  138.8648  153.8972 C   0  0  2  0  0  0  0  0  0  0  0  0
  148.2077  138.0653  154.9797 O   0  0  0  0  0  0  0  0  0  0  0  0
  147.0842  137.2499  154.6820 C   0  0  0  0  0  0  0  0  0  0  0  0
  147.5007  135.7820  154.8109 C   0  0  0  0  0  0  0  0  0  0  0  0
  147.4146  135.1219  153.5148 N   0  0  0  0  0  0  0  0  0  0  0  0
  146.5106  134.1956  153.1734 C   0  0  0  0  0  0  0  0  0  0  0  0
  145.6635  133.8327  153.9927 O   0  0  0  0  0  0  0  0  0  0  0  0
  146.6433  133.7497  151.9034 N   0  5  0  0  0  0  0  0  0  0  0  0
  145.5895  133.2192  151.2617 C   0  0  0  0  0  0  0  0  0  0  0  0
  145.7295  132.3861  150.2179 N   0  0  0  0  0  0  0  0  0  0  0  0
  144.5170  131.9604  149.6925 N   0  0  0  0  0  0  0  0  0  0  0  0
  143.4884  132.4915  150.3528 C   0  0  0  0  0  0  0  0  0  0  0  0
  143.9070  133.5609  151.6743 S   0  0  0  0  0  0  0  0  0  0  0  0
  150.6928  138.4339  155.8573 H   0  0  0  0  0  0  0  0  0  0  0  0
  151.7763  139.6982  155.2856 H   0  0  0  0  0  0  0  0  0  0  0  0
  151.3838  138.3388  154.2396 H   0  0  0  0  0  0  0  0  0  0  0  0
  150.1484  140.3757  153.5677 H   0  0  0  0  0  0  0  0  0  0  0  0
  148.8883  140.2870  156.3404 H   0  0  0  0  0  0  0  0  0  0  0  0
  150.0036  141.4982  155.7601 H   0  0  0  0  0  0  0  0  0  0  0  0
  147.6365  142.2836  155.6189 H   0  0  0  0  0  0  0  0  0  0  0  0
  148.4029  142.2503  154.0491 H   0  0  0  0  0  0  0  0  0  0  0  0
  146.4839  140.1487  155.1665 H   0  0  0  0  0  0  0  0  0  0  0  0
  146.1427  141.2768  153.8781 H   0  0  0  0  0  0  0  0  0  0  0  0
  146.6975  139.0279  152.9638 H   0  0  0  0  0  0  0  0  0  0  0  0
  147.8428  140.2236  152.4299 H   0  0  0  0  0  0  0  0  0  0  0  0
  149.0923  138.2244  153.1215 H   0  0  0  0  0  0  0  0  0  0  0  0
  146.2471  137.4551  155.3496 H   0  0  0  0  0  0  0  0  0  0  0  0
  146.7471  137.4589  153.6660 H   0  0  0  0  0  0  0  0  0  0  0  0
  148.5264  135.7194  155.1769 H   0  0  0  0  0  0  0  0  0  0  0  0
  146.8648  135.2697  155.5348 H   0  0  0  0  0  0  0  0  0  0  0  0
  148.0891  135.3968  152.8158 H   0  0  0  0  0  0  0  0  0  0  0  0
  142.4772  132.2546  150.0579 H   0  0  0  0  0  0  0  0  0  0  0  0
  1  2  1  0  0  0  0
  1 20  1  0  0  0  0
  1 21  1  0  0  0  0
  1 22  1  0  0  0  0
  2  7  1  0  0  0  0
  2  3  1  0  0  0  0
  2 23  1  0  0  0  0
  3  4  1  0  0  0  0
  3 24  1  0  0  0  0
  3 25  1  0  0  0  0
  4  5  1  0  0  0  0
  4 26  1  0  0  0  0
  4 27  1  0  0  0  0
  5  6  1  0  0  0  0
  5 28  1  0  0  0  0
  5 29  1  0  0  0  0
  6  7  1  0  0  0  0
  6 30  1  0  0  0  0
  6 31  1  0  0  0  0
  7  8  1  0  0  0  0
  7 32  1  0  0  0  0
  8  9  1  0  0  0  0
  9 10  1  0  0  0  0
  9 33  1  0  0  0  0
  9 34  1  0  0  0  0
 10 11  1  0  0  0  0
 10 35  1  0  0  0  0
 10 36  1  0  0  0  0
 11 12  1  0  0  0  0
 11 37  1  0  0  0  0
 12 13  2  0  0  0  0
 12 14  1  0  0  0  0
 14 15  1  0  0  0  0
 15 19  1  0  0  0  0
 15 16  2  0  0  0  0
 16 17  1  0  0  0  0
 17 18  2  0  0  0  0
 18 19  1  0  0  0  0
 18 38  1  0  0  0  0
M  CHG  1  14  -1
M  END
> <s_m_source_file>
AV-unprocessed.smi

> <i_m_source_file_index>
1947

> <i_lp_mmshare_version>
43012

> <i_f3d_flags>
0

> <s_epik_input>
W0NIM11bQ0BASF0xW0NIMl1bQ0gyXVtDSDJdW0NIMl1bQ0BIXTFPW0NIMl1bQ0gyXVtOSF1DKD1PKVtOSF1jMm5uW2NIXXMy

> <s_epik_cmdline>
J2VwaWtfcHl0aG9uJywgJy1waCcsICc3LjAnLCAnLXRuJywgJzgnLCAnLW1hJywgJzIwMCcsICctbWV0YWxfYmluZGluZycsICctaW1hZScsICc8aW5maWxlLm1hZT4nLCAnLW9tYWUnLCAnPG91dGZpbGUubWFlPic=

> <r_lp_tautomer_probability>
1

> <r_epik_Ionization_Penalty>
3.35961

> <r_epik_Ionization_Penalty_Charging>
3.31977

> <r_epik_Ionization_Penalty_Neutral>
0.0398394

> <r_epik_State_Penalty>
3.31759

> <r_epik_Charging_Adjusted_Penalty>
6.63736

> <i_epik_Tot_Q>
-1

> <i_epik_Tot_abs_Q>
1

> <r_epik_Metal_State_Penalty>
0.484557

> <b_epik_Metal_Only>
1

> <s_lp_Force_Field>
OPLS_2005

> <r_lp_Energy>
9.4778

> <b_lp_Chiralities_Consistent>
1

> <s_lp_Variant>
AV-unprocessed.smi:1947-7

> <Gold.Version>
5.8.1

> <Gold.Id.Protein>
6NUR|6NUR_protein|mol2

> <Gold.PLP.Fitness>
31.7868

> <Gold.PLP.PLP>
-26.1767

> <Gold.PLP.part.hbond>
-1.7534

> <Gold.PLP.part.metal>
0.0000

> <Gold.PLP.part.buried>
-2.3576

> <Gold.PLP.part.nonpolar>
-23.2847

> <Gold.PLP.part.repulsive>
0.6553

> <Gold.PLP.ligand.clash>
0.0000

> <Gold.PLP.ligand.torsion>
1.0491

> <Gold.PLP.Chemscore.Hbond>
1.0433

> <Gold.PLP.Chemscore.CHOScore>
1.5187

> <Gold.PLP.Chemscore.Metal>
0.0000

> <Gold.Chemscore.Hbonds>
donor molecule, donor type, donor heavy atom, donor atom, acceptor molecule, acceptor atom, score
      L1  H    11    37       P1  7948  0.96
      L1  C    18    38       P1 10186  0.46
      L1  C    18    38       P1 10952  0.91

> <Gold.PLP.Chemscore.Internal.Correction>
0.0223

> <Gold.Rescore>
     Score         DG    S(hbond)    S(metal)    S(lipo)     H(rot)  DE(clash)    DE(int)     intcor
      9.68     -12.12       1.19        0.00      64.16       1.90       0.20       2.23       ----

> <Gold.Chemscore.Fitness>
9.6827

> <Gold.Chemscore.DG>
-12.1159

> <Gold.Chemscore.ZeroCoef>
-5.4800

> <Gold.Chemscore.Hbond>
1.1942

> <Gold.Chemscore.Metal>
0.0000

> <Gold.Chemscore.Lipo>
64.1631

> <Gold.Chemscore.Internal_Hbond>
0.0000

> <Gold.Chemscore.DEClash>
0.2027

> <Gold.Chemscore.DEInternal>
2.2305

> <Gold.Chemscore.Rot>
1.8984

> <Gold.Chemscore.Internal.Correction>
   9.000000E+99

> <Gold.Chemscore.Hbonds>
donor molecule, donor type, donor heavy atom, donor atom, acceptor molecule, acceptor atom, score
      L1  H    11    37       P1  7948  0.91

> <Gold.Chemscore.Hbond.Weighted>
-3.9886

> <Gold.Chemscore.Metal.Weighted>
-0.0000

> <Gold.Chemscore.Lipo.Weighted>
-7.5071

> <Gold.Chemscore.Internal_Hbond.Weighted>
0.0000

> <Gold.Chemscore.DEClash.Weighted>
0.2027

> <Gold.Chemscore.DEInternal.Weighted>
2.2305

> <Gold.Chemscore.Rot.Weighted>
4.8598

> <Gold.Chemscore.Internal.Correction.Weighted>
   9.000000E+99

> <Gold.Protein.RotatedTorsions>
[ 6907 6896 6895 6894 ] final   78.25 input  -60.11 | X-H torsion
[ 7974 7965 7964 7962 ] final  155.18 input  175.53 | X-H torsion
[ 8008 7997 7996 7995 ] final   -9.40 input   59.86 | X-H torsion
[ 10167 10162 10161 10158 ] final  -47.18 input  -65.29 | X-H torsion
[ 10718 10713 10712 10709 ] final -145.37 input   66.30 | X-H torsion
[ 10763 10752 10751 10750 ] final   58.32 input  -60.55 | X-H torsion
[ 11005 11000 10999 10996 ] final   21.83 input  -57.11 | X-H torsion

> <Gold.Protein.ActiveResidues>
 VAL166  LYS551  ARG553  GLY616  TRP617  ASP618  TYR619  PRO620  LYS621  CYS622 
 ASP623  PHE694  ASN695  SER759  ASP760  ASP761  ALA762  ILE779  LEU786  VAL792 
 PHE793  MET794  SER795  GLU796  ALA797  LYS798  CYS799  TRP800  GLU811  SER814 

> <Gold.Protein.RotatedAtoms>
  152.5151  134.3693  159.9312 H   0  0  0  0  0  0  0  0  0  0  0  0  # atno 6907 bound_to 6896
  151.3647  133.3870  159.2701 H   0  0  0  0  0  0  0  0  0  0  0  0  # atno 6908 bound_to 6896
  150.9624  134.9029  159.7797 H   0  0  0  0  0  0  0  0  0  0  0  0  # atno 6909 bound_to 6896
  144.8041  139.7033  143.6169 H   0  0  0  0  0  0  0  0  0  0  0  0  # atno 7974 bound_to 7965
  154.5650  140.2356  155.8277 H   0  0  0  0  0  0  0  0  0  0  0  0  # atno 8008 bound_to 7997
  156.2061  140.3039  155.9588 H   0  0  0  0  0  0  0  0  0  0  0  0  # atno 8009 bound_to 7997
  155.2818  140.0423  157.3006 H   0  0  0  0  0  0  0  0  0  0  0  0  # atno 8010 bound_to 7997
  140.6786  143.2796  151.3889 H   0  0  0  0  0  0  0  0  0  0  0  0  # atno 10167 bound_to 10162
  156.3816  130.7840  151.2032 H   0  0  0  0  0  0  0  0  0  0  0  0  # atno 10718 bound_to 10713
  152.9868  135.5611  154.5534 H   0  0  0  0  0  0  0  0  0  0  0  0  # atno 10763 bound_to 10752
  154.4966  135.2795  155.1456 H   0  0  0  0  0  0  0  0  0  0  0  0  # atno 10764 bound_to 10752
  154.2903  135.6327  153.5436 H   0  0  0  0  0  0  0  0  0  0  0  0  # atno 10765 bound_to 10752
  140.3873  134.1857  155.7663 H   0  0  0  0  0  0  0  0  0  0  0  0  # atno 11005 bound_to 11000
  146.2329  139.5848  142.9543 LP  0  0  0  0  0  0  0  0  0  0  0  0  # atno 17320 bound_to 7965
  145.5481  141.0415  143.2294 LP  0  0  0  0  0  0  0  0  0  0  0  0  # atno 17321 bound_to 7965
  139.6094  144.1130  152.2283 LP  0  0  0  0  0  0  0  0  0  0  0  0  # atno 17342 bound_to 10162
  140.0539  144.5910  150.7314 LP  0  0  0  0  0  0  0  0  0  0  0  0  # atno 17343 bound_to 10162
  157.7493  131.0342  150.4308 LP  0  0  0  0  0  0  0  0  0  0  0  0  # atno 17370 bound_to 10713
  156.4553  130.4020  149.6610 LP  0  0  0  0  0  0  0  0  0  0  0  0  # atno 17371 bound_to 10713
  141.1903  133.8220  157.0924 LP  0  0  0  0  0  0  0  0  0  0  0  0  # atno 17394 bound_to 11000
  140.0433  134.9843  157.1002 LP  0  0  0  0  0  0  0  0  0  0  0  0  # atno 17395 bound_to 11000

$$$$
