AV-unprocessed.smi:2188|AV-procd|sdf|8881|dock3
  -GOLD-   2272012 83D 1   1.00000     0.00000
 Structure written by MMmdl.
 40 42  0  0  0  0  0  0  0  0  2 V2000
  151.3402  140.4792  155.7195 O   0  0  0  0  0  0  0  0  0  0  0  0
  150.8619  141.5111  156.1948 C   0  0  0  0  0  0  0  0  0  0  0  0
  149.7953  142.1036  155.6216 N   0  0  0  0  0  0  0  0  0  0  0  0
  149.0845  141.6331  154.4338 C   0  0  0  0  0  0  0  0  0  0  0  0
  147.5987  141.3284  154.7129 C   0  0  0  0  0  0  0  0  0  0  0  0
  147.2527  139.8510  154.6359 C   0  0  0  0  0  0  0  0  0  0  0  0
  146.5156  139.2267  155.6670 C   0  0  0  0  0  0  0  0  0  0  0  0
  146.2462  137.8448  155.5857 C   0  0  0  0  0  0  0  0  0  0  0  0
  146.7184  137.1177  154.4739 C   0  0  0  0  0  0  0  0  0  0  0  0
  147.4154  137.7494  153.5042 N   0  3  0  0  0  0  0  0  0  0  0  0
  147.6920  139.0713  153.5439 C   0  0  0  0  0  0  0  0  0  0  0  0
  151.3558  142.1968  157.4076 C   0  0  0  0  0  0  0  0  0  0  0  0
  150.8971  143.4436  157.7025 C   0  0  0  0  0  0  0  0  0  0  0  0
  151.3545  144.1711  158.8599 C   0  0  0  0  0  0  0  0  0  0  0  0
  152.2247  143.5701  159.6772 C   0  0  0  0  0  0  0  0  0  0  0  0
  152.7040  142.2795  159.4642 N   0  0  0  0  0  0  0  0  0  0  0  0
  153.5530  141.7115  160.5064 C   0  0  0  0  0  0  0  0  0  0  0  0
  154.6962  140.9268  159.8902 C   0  0  0  0  0  0  0  0  0  0  0  0
  153.9181  139.5437  158.9833 S   0  0  0  0  0  0  0  0  0  0  0  0
  154.9510  138.8961  158.1609 O   0  0  0  0  0  0  0  0  0  0  0  0
  153.1514  138.7382  159.9468 O   0  0  0  0  0  0  0  0  0  0  0  0
  152.8536  140.3853  158.0018 N   0  0  0  0  0  0  0  0  0  0  0  0
  152.3408  141.5459  158.2992 C   0  0  0  0  0  0  0  0  0  0  0  0
  149.4484  142.9511  156.0471 H   0  0  0  0  0  0  0  0  0  0  0  0
  149.1566  142.4103  153.6726 H   0  0  0  0  0  0  0  0  0  0  0  0
  149.5790  140.7555  154.0143 H   0  0  0  0  0  0  0  0  0  0  0  0
  147.3250  141.7107  155.6971 H   0  0  0  0  0  0  0  0  0  0  0  0
  146.9766  141.8664  153.9967 H   0  0  0  0  0  0  0  0  0  0  0  0
  146.1719  139.7954  156.5188 H   0  0  0  0  0  0  0  0  0  0  0  0
  145.6907  137.3490  156.3678 H   0  0  0  0  0  0  0  0  0  0  0  0
  146.5626  136.0579  154.3331 H   0  0  0  0  0  0  0  0  0  0  0  0
  148.2692  139.4581  152.7166 H   0  0  0  0  0  0  0  0  0  0  0  0
  150.1640  143.9398  157.0834 H   0  0  0  0  0  0  0  0  0  0  0  0
  151.0074  145.1744  159.0586 H   0  0  0  0  0  0  0  0  0  0  0  0
  152.6056  144.0651  160.5589 H   0  0  0  0  0  0  0  0  0  0  0  0
  153.9676  142.4981  161.1378 H   0  0  0  0  0  0  0  0  0  0  0  0
  152.9503  141.0760  161.1558 H   0  0  0  0  0  0  0  0  0  0  0  0
  155.2850  141.5300  159.1984 H   0  0  0  0  0  0  0  0  0  0  0  0
  155.3623  140.5170  160.6493 H   0  0  0  0  0  0  0  0  0  0  0  0
  147.7522  137.2040  152.7104 H   0  0  0  0  0  0  0  0  0  0  0  0
  1  2  2  0  0  0  0
  2  3  1  0  0  0  0
  2 12  1  0  0  0  0
  3  4  1  0  0  0  0
  3 24  1  0  0  0  0
  4  5  1  0  0  0  0
  4 25  1  0  0  0  0
  4 26  1  0  0  0  0
  5  6  1  0  0  0  0
  5 27  1  0  0  0  0
  5 28  1  0  0  0  0
  6 11  1  0  0  0  0
  6  7  2  0  0  0  0
  7  8  1  0  0  0  0
  7 29  1  0  0  0  0
  8  9  2  0  0  0  0
  8 30  1  0  0  0  0
  9 10  1  0  0  0  0
  9 31  1  0  0  0  0
 10 11  2  0  0  0  0
 10 40  1  0  0  0  0
 11 32  1  0  0  0  0
 12 23  1  0  0  0  0
 12 13  2  0  0  0  0
 13 14  1  0  0  0  0
 13 33  1  0  0  0  0
 14 15  2  0  0  0  0
 14 34  1  0  0  0  0
 15 16  1  0  0  0  0
 15 35  1  0  0  0  0
 16 23  1  0  0  0  0
 16 17  1  0  0  0  0
 17 18  1  0  0  0  0
 17 36  1  0  0  0  0
 17 37  1  0  0  0  0
 18 19  1  0  0  0  0
 18 38  1  0  0  0  0
 18 39  1  0  0  0  0
 19 20  2  0  0  0  0
 19 21  2  0  0  0  0
 19 22  1  0  0  0  0
 22 23  2  0  0  0  0
M  CHG  1  10   1
M  END
> <s_m_source_file>
AV-unprocessed.smi

> <i_m_source_file_index>
2188

> <i_lp_mmshare_version>
43012

> <i_f3d_flags>
0

> <s_epik_input>
W0NIMl0xW0NIMl1TKD1PKSg9TylOPUMoTjEyKUMoPVtDSF1bQ0hdPVtDSF0yKUMoPU8pW05IXVtDSDJdW0NIMl1jM1tjSF1bY0hdW2NIXW5bY0hdMw==

> <s_epik_cmdline>
J2VwaWtfcHl0aG9uJywgJy1waCcsICc3LjAnLCAnLXRuJywgJzgnLCAnLW1hJywgJzIwMCcsICctbWV0YWxfYmluZGluZycsICctaW1hZScsICc8aW5maWxlLm1hZT4nLCAnLW9tYWUnLCAnPG91dGZpbGUubWFlPic=

> <r_epik_Ionization_Penalty>
2.45954

> <r_epik_Ionization_Penalty_Charging>
2.45946

> <r_epik_Ionization_Penalty_Neutral>
8.13788e-05

> <r_epik_State_Penalty>
2.62155

> <r_epik_Charging_Adjusted_Penalty>
5.08101

> <i_epik_Tot_Q>
1

> <i_epik_Tot_abs_Q>
1

> <r_epik_Metal_State_Penalty>
2.74793

> <b_epik_Metal_Only>
0

> <s_lp_Force_Field>
OPLS_2005

> <r_lp_Energy>
33.7727

> <b_lp_Chiralities_Consistent>
1

> <s_lp_Variant>
AV-unprocessed.smi:2188-2

> <Gold.Version>
5.8.1

> <Gold.Id.Protein>
6NUR|6NUR_protein|mol2

> <Gold.PLP.Fitness>
49.6832

> <Gold.PLP.PLP>
-39.4657

> <Gold.PLP.part.hbond>
-4.5262

> <Gold.PLP.part.metal>
0.0000

> <Gold.PLP.part.buried>
-0.7387

> <Gold.PLP.part.nonpolar>
-33.1148

> <Gold.PLP.part.repulsive>
0.1895

> <Gold.PLP.ligand.clash>
1.4750

> <Gold.PLP.ligand.torsion>
0.5419

> <Gold.PLP.Chemscore.Hbond>
4.2209

> <Gold.PLP.Chemscore.CHOScore>
0.0000

> <Gold.PLP.Chemscore.Metal>
0.0000

> <Gold.Chemscore.Hbonds>
donor molecule, donor type, donor heavy atom, donor atom, acceptor molecule, acceptor atom, score
      L1  H     3    24       P1  8028  0.86
      L1  H    10    40       P1  7948  2.00
      P1  H  7989  7998       L1     1  0.34
      P1  H  7997  8010       L1    20  0.66

> <Gold.PLP.Chemscore.Internal.Correction>
0.1137

> <Gold.Rescore>
     Score         DG    S(hbond)    S(metal)    S(lipo)     H(rot)  DE(clash)    DE(int)     intcor
     18.19     -20.85       2.64        0.00      89.68       1.54       0.69       1.97       ----

> <Gold.Chemscore.Fitness>
18.1949

> <Gold.Chemscore.DG>
-20.8483

> <Gold.Chemscore.ZeroCoef>
-5.4800

> <Gold.Chemscore.Hbond>
2.6366

> <Gold.Chemscore.Metal>
0.0000

> <Gold.Chemscore.Lipo>
89.6826

> <Gold.Chemscore.Internal_Hbond>
0.0000

> <Gold.Chemscore.DEClash>
0.6871

> <Gold.Chemscore.DEInternal>
1.9663

> <Gold.Chemscore.Rot>
1.5355

> <Gold.Chemscore.Internal.Correction>
   9.000000E+99

> <Gold.Chemscore.Hbonds>
donor molecule, donor type, donor heavy atom, donor atom, acceptor molecule, acceptor atom, score
      L1  H     3    24       P1  8028  0.85
      L1  H    10    40       P1  7948  0.98
      P1  H  7989  7998       L1     1  0.19
      P1  H  7997  8010       L1    20  0.14

> <Gold.Chemscore.Hbond.Weighted>
-8.8064

> <Gold.Chemscore.Metal.Weighted>
-0.0000

> <Gold.Chemscore.Lipo.Weighted>
-10.4929

> <Gold.Chemscore.Internal_Hbond.Weighted>
0.0000

> <Gold.Chemscore.DEClash.Weighted>
0.6871

> <Gold.Chemscore.DEInternal.Weighted>
1.9663

> <Gold.Chemscore.Rot.Weighted>
3.9309

> <Gold.Chemscore.Internal.Correction.Weighted>
   9.000000E+99

> <Gold.Protein.RotatedTorsions>
[ 6907 6896 6895 6894 ] final  107.56 input  -60.11 | X-H torsion
[ 7974 7965 7964 7962 ] final -102.17 input  175.53 | X-H torsion
[ 8008 7997 7996 7995 ] final  -11.16 input   59.86 | X-H torsion
[ 10167 10162 10161 10158 ] final  174.00 input  -65.29 | X-H torsion
[ 10718 10713 10712 10709 ] final  166.24 input   66.30 | X-H torsion
[ 10763 10752 10751 10750 ] final -159.66 input  -60.55 | X-H torsion
[ 11005 11000 10999 10996 ] final    0.64 input  -57.11 | X-H torsion

> <Gold.Protein.ActiveResidues>
 VAL166  LYS551  ARG553  GLY616  TRP617  ASP618  TYR619  PRO620  LYS621  CYS622 
 ASP623  PHE694  ASN695  SER759  ASP760  ASP761  ALA762  ILE779  LEU786  VAL792 
 PHE793  MET794  SER795  GLU796  ALA797  LYS798  CYS799  TRP800  GLU811  SER814 

> <Gold.Protein.RotatedAtoms>
  152.5149  133.9216  159.7536 H   0  0  0  0  0  0  0  0  0  0  0  0  # atno 6907 bound_to 6896
  150.9586  133.6461  159.2765 H   0  0  0  0  0  0  0  0  0  0  0  0  # atno 6908 bound_to 6896
  151.3714  135.0928  159.9519 H   0  0  0  0  0  0  0  0  0  0  0  0  # atno 6909 bound_to 6896
  145.2722  140.9302  143.2979 H   0  0  0  0  0  0  0  0  0  0  0  0  # atno 7974 bound_to 7965
  154.5489  140.2310  155.8517 H   0  0  0  0  0  0  0  0  0  0  0  0  # atno 8008 bound_to 7997
  156.1929  140.3072  155.9329 H   0  0  0  0  0  0  0  0  0  0  0  0  # atno 8009 bound_to 7997
  155.3109  140.0435  157.3025 H   0  0  0  0  0  0  0  0  0  0  0  0  # atno 8010 bound_to 7997
  139.5127  144.3196  152.0215 H   0  0  0  0  0  0  0  0  0  0  0  0  # atno 10167 bound_to 10162
  157.0686  131.0360  151.2620 H   0  0  0  0  0  0  0  0  0  0  0  0  # atno 10718 bound_to 10713
  154.7456  135.3079  154.8651 H   0  0  0  0  0  0  0  0  0  0  0  0  # atno 10763 bound_to 10752
  153.9453  135.6770  153.4748 H   0  0  0  0  0  0  0  0  0  0  0  0  # atno 10764 bound_to 10752
  153.1052  135.4892  154.8865 H   0  0  0  0  0  0  0  0  0  0  0  0  # atno 10765 bound_to 10752
  140.6243  133.9633  155.8241 H   0  0  0  0  0  0  0  0  0  0  0  0  # atno 11005 bound_to 11000
  144.9325  139.4282  143.6488 LP  0  0  0  0  0  0  0  0  0  0  0  0  # atno 17320 bound_to 7965
  146.3243  139.8243  142.8920 LP  0  0  0  0  0  0  0  0  0  0  0  0  # atno 17321 bound_to 7965
  140.2638  144.4038  150.6176 LP  0  0  0  0  0  0  0  0  0  0  0  0  # atno 17342 bound_to 10162
  140.6138  143.2171  151.6833 LP  0  0  0  0  0  0  0  0  0  0  0  0  # atno 17343 bound_to 10162
  157.4896  130.7814  149.7494 LP  0  0  0  0  0  0  0  0  0  0  0  0  # atno 17370 bound_to 10713
  155.9957  130.3910  150.2809 LP  0  0  0  0  0  0  0  0  0  0  0  0  # atno 17371 bound_to 10713
  141.0720  134.0191  157.3512 LP  0  0  0  0  0  0  0  0  0  0  0  0  # atno 17394 bound_to 11000
  139.9141  135.0194  156.7811 LP  0  0  0  0  0  0  0  0  0  0  0  0  # atno 17395 bound_to 11000

$$$$
