AV-unprocessed.smi:678|AV-procd|sdf|3314|dock8
  -GOLD-   22720 0283D 1   1.00000     0.00000
 Structure written by MMmdl.
 51 52  0  0  0  0  0  0  0  0  2 V2000
  152.0498  141.2756  157.8929 C   0  0  0  0  0  0  0  0  0  0  0  0
  151.2602  140.8214  156.6777 C   0  0  0  0  0  0  0  0  0  0  0  0
  150.1709  141.4977  156.2525 C   0  0  0  0  0  0  0  0  0  0  0  0
  149.4158  141.0511  155.1071 C   0  0  0  0  0  0  0  0  0  0  0  0
  149.8202  139.9402  154.4750 C   0  0  0  0  0  0  0  0  0  0  0  0
  150.9511  139.2170  154.8968 N   0  0  0  0  0  0  0  0  0  0  0  0
  151.2987  138.0079  154.1308 C   0  0  0  0  0  0  0  0  0  0  0  0
  151.0959  136.7242  154.9458 C   0  0  0  0  0  0  0  0  0  0  0  0
  151.8273  136.4718  155.9036 O   0  0  0  0  0  0  0  0  0  0  0  0
  150.1032  135.9173  154.5427 N   0  0  0  0  0  0  0  0  0  0  0  0
  149.8002  134.6030  155.0995 C   0  0  0  0  0  0  0  0  0  0  0  0
  148.6076  133.9417  154.3821 C   0  0  1  0  0  0  0  0  0  0  0  0
  149.0144  133.1170  153.1355 C   0  0  0  0  0  0  0  0  0  0  0  0
  147.8560  132.4035  152.5401 N   0  3  2  0  0  0  0  0  0  0  0  0
  146.9662  133.2582  151.7082 C   0  0  0  0  0  0  0  0  0  0  0  0
  145.7153  132.5036  151.2087 C   0  0  0  0  0  0  0  0  0  0  0  0
  145.9423  131.9540  149.7928 C   0  0  0  0  0  0  0  0  0  0  0  0
  144.4581  133.3873  151.2499 C   0  0  0  0  0  0  0  0  0  0  0  0
  147.1407  131.6184  153.5747 C   0  0  0  0  0  0  0  0  0  0  0  0
  146.7802  132.4938  154.7870 C   0  0  0  0  0  0  0  0  0  0  0  0
  147.9648  133.0788  155.3141 O   0  0  0  0  0  0  0  0  0  0  0  0
  151.7057  139.6048  155.9728 C   0  0  0  0  0  0  0  0  0  0  0  0
  152.6984  138.9642  156.3259 O   0  0  0  0  0  0  0  0  0  0  0  0
  151.6825  142.2300  158.2714 H   0  0  0  0  0  0  0  0  0  0  0  0
  153.1051  141.3968  157.6452 H   0  0  0  0  0  0  0  0  0  0  0  0
  151.9653  140.5418  158.6946 H   0  0  0  0  0  0  0  0  0  0  0  0
  149.8487  142.3849  156.7779 H   0  0  0  0  0  0  0  0  0  0  0  0
  148.5444  141.5943  154.7715 H   0  0  0  0  0  0  0  0  0  0  0  0
  149.3054  139.5357  153.6157 H   0  0  0  0  0  0  0  0  0  0  0  0
  150.6994  137.9306  153.2227 H   0  0  0  0  0  0  0  0  0  0  0  0
  152.3331  138.0757  153.7873 H   0  0  0  0  0  0  0  0  0  0  0  0
  149.5436  136.2164  153.7570 H   0  0  0  0  0  0  0  0  0  0  0  0
  150.6753  133.9511  155.0806 H   0  0  0  0  0  0  0  0  0  0  0  0
  149.5530  134.7493  156.1513 H   0  0  0  0  0  0  0  0  0  0  0  0
  147.9067  134.7292  154.1015 H   0  0  0  0  0  0  0  0  0  0  0  0
  149.4903  133.7476  152.3871 H   0  0  0  0  0  0  0  0  0  0  0  0
  149.7588  132.3732  153.4223 H   0  0  0  0  0  0  0  0  0  0  0  0
  146.6342  134.1198  152.2892 H   0  0  0  0  0  0  0  0  0  0  0  0
  147.5251  133.6667  150.8663 H   0  0  0  0  0  0  0  0  0  0  0  0
  145.5334  131.6448  151.8526 H   0  0  0  0  0  0  0  0  0  0  0  0
  146.1407  132.7565  149.0815 H   0  0  0  0  0  0  0  0  0  0  0  0
  145.0700  131.4041  149.4384 H   0  0  0  0  0  0  0  0  0  0  0  0
  146.7905  131.2689  149.7691 H   0  0  0  0  0  0  0  0  0  0  0  0
  144.5686  134.2665  150.6145 H   0  0  0  0  0  0  0  0  0  0  0  0
  144.2458  133.7319  152.2621 H   0  0  0  0  0  0  0  0  0  0  0  0
  143.5821  132.8371  150.9050 H   0  0  0  0  0  0  0  0  0  0  0  0
  146.2518  131.1449  153.1565 H   0  0  0  0  0  0  0  0  0  0  0  0
  147.7933  130.8074  153.9002 H   0  0  0  0  0  0  0  0  0  0  0  0
  146.0599  133.2681  154.5181 H   0  0  0  0  0  0  0  0  0  0  0  0
  146.3152  131.8847  155.5622 H   0  0  0  0  0  0  0  0  0  0  0  0
  148.2355  131.7233  151.8970 H   0  0  0  0  0  0  0  0  0  0  0  0
  1  2  1  0  0  0  0
  1 24  1  0  0  0  0
  1 25  1  0  0  0  0
  1 26  1  0  0  0  0
  2 22  1  0  0  0  0
  2  3  2  0  0  0  0
  3  4  1  0  0  0  0
  3 27  1  0  0  0  0
  4  5  2  0  0  0  0
  4 28  1  0  0  0  0
  5  6  1  0  0  0  0
  5 29  1  0  0  0  0
  6  7  1  0  0  0  0
  6 22  1  0  0  0  0
  7  8  1  0  0  0  0
  7 30  1  0  0  0  0
  7 31  1  0  0  0  0
  8  9  2  0  0  0  0
  8 10  1  0  0  0  0
 10 11  1  0  0  0  0
 10 32  1  0  0  0  0
 11 12  1  0  0  0  0
 11 33  1  0  0  0  0
 11 34  1  0  0  0  0
 12 21  1  0  0  0  0
 12 13  1  0  0  0  0
 12 35  1  0  0  0  0
 13 14  1  0  0  0  0
 13 36  1  0  0  0  0
 13 37  1  0  0  0  0
 14 15  1  0  0  0  0
 14 19  1  0  0  0  0
 14 51  1  0  0  0  0
 15 16  1  0  0  0  0
 15 38  1  0  0  0  0
 15 39  1  0  0  0  0
 16 17  1  0  0  0  0
 16 18  1  0  0  0  0
 16 40  1  0  0  0  0
 17 41  1  0  0  0  0
 17 42  1  0  0  0  0
 17 43  1  0  0  0  0
 18 44  1  0  0  0  0
 18 45  1  0  0  0  0
 18 46  1  0  0  0  0
 19 20  1  0  0  0  0
 19 47  1  0  0  0  0
 19 48  1  0  0  0  0
 20 21  1  0  0  0  0
 20 49  1  0  0  0  0
 20 50  1  0  0  0  0
 22 23  2  0  0  0  0
M  CHG  1  14   1
M  END
> <s_m_source_file>
AV-unprocessed.smi

> <i_m_source_file_index>
678

> <i_lp_mmshare_version>
43012

> <i_f3d_flags>
0

> <s_epik_input>
W0NIM11jMVtjSF1bY0hdW2NIXW4oYzE9TylbQ0gyXUMoPU8pW05IXVtDSDJdW0NAQEhdMltDSDJdTihbQ0gyXVtDSDJdTzIpW0NIMl1bQ0hdKFtDSDNdKVtDSDNd

> <s_epik_cmdline>
J2VwaWtfcHl0aG9uJywgJy1waCcsICc3LjAnLCAnLXRuJywgJzgnLCAnLW1hJywgJzIwMCcsICctbWV0YWxfYmluZGluZycsICctaW1hZScsICc8aW5maWxlLm1hZT4nLCAnLW9tYWUnLCAnPG91dGZpbGUubWFlPic=

> <r_lp_tautomer_probability>
1

> <r_epik_Ionization_Penalty>
0.0975937

> <r_epik_Ionization_Penalty_Charging>
0.0975937

> <r_epik_Ionization_Penalty_Neutral>
6.27044e-08

> <r_epik_State_Penalty>
0.0877056

> <r_epik_Charging_Adjusted_Penalty>
0.185299

> <i_epik_Tot_Q>
1

> <i_epik_Tot_abs_Q>
1

> <r_epik_Metal_State_Penalty>
0.0877109

> <b_epik_Metal_Only>
0

> <s_lp_Force_Field>
OPLS_2005

> <r_lp_Energy>
27.4135

> <b_lp_Chiralities_Consistent>
1

> <s_lp_Variant>
AV-unprocessed.smi:678-2

> <Gold.Version>
5.8.1

> <Gold.Id.Protein>
6NUR|6NUR_protein|mol2

> <Gold.PLP.Fitness>
58.7248

> <Gold.PLP.PLP>
-45.6821

> <Gold.PLP.part.hbond>
-4.4516

> <Gold.PLP.part.metal>
0.0000

> <Gold.PLP.part.buried>
-3.8530

> <Gold.PLP.part.nonpolar>
-37.5675

> <Gold.PLP.part.repulsive>
0.1041

> <Gold.PLP.ligand.clash>
0.0000

> <Gold.PLP.ligand.torsion>
1.0423

> <Gold.PLP.Chemscore.Hbond>
4.0000

> <Gold.PLP.Chemscore.CHOScore>
0.9977

> <Gold.PLP.Chemscore.Metal>
0.0000

> <Gold.Chemscore.Hbonds>
donor molecule, donor type, donor heavy atom, donor atom, acceptor molecule, acceptor atom, score
      L1  H    10    32       P1  7948  1.00
      L1  H    14    51       P1 10747  1.00
      P1  H  7997  8008       L1    23  1.00
      P1  H 10752 10763       L1     9  0.95
      L1  C     5    29       P1  7957  1.00

> <Gold.PLP.Chemscore.Internal.Correction>
0.1342

> <Gold.Rescore>
     Score         DG    S(hbond)    S(metal)    S(lipo)     H(rot)  DE(clash)    DE(int)     intcor
     21.56     -24.13       3.55        0.00      99.31       1.89       0.26       2.32       ----

> <Gold.Chemscore.Fitness>
21.5574

> <Gold.Chemscore.DG>
-24.1324

> <Gold.Chemscore.ZeroCoef>
-5.4800

> <Gold.Chemscore.Hbond>
3.5522

> <Gold.Chemscore.Metal>
0.0000

> <Gold.Chemscore.Lipo>
99.3064

> <Gold.Chemscore.Internal_Hbond>
0.0000

> <Gold.Chemscore.DEClash>
0.2571

> <Gold.Chemscore.DEInternal>
2.3178

> <Gold.Chemscore.Rot>
1.8871

> <Gold.Chemscore.Internal.Correction>
   9.000000E+99

> <Gold.Chemscore.Hbonds>
donor molecule, donor type, donor heavy atom, donor atom, acceptor molecule, acceptor atom, score
      L1  H    10    32       P1  7948  0.58
      L1  H    14    51       P1 10747  0.98
      P1  H  7997  8008       L1    23  0.82
      P1  H 10752 10763       L1     9  0.22

> <Gold.Chemscore.Hbond.Weighted>
-11.8644

> <Gold.Chemscore.Metal.Weighted>
-0.0000

> <Gold.Chemscore.Lipo.Weighted>
-11.6189

> <Gold.Chemscore.Internal_Hbond.Weighted>
0.0000

> <Gold.Chemscore.DEClash.Weighted>
0.2571

> <Gold.Chemscore.DEInternal.Weighted>
2.3178

> <Gold.Chemscore.Rot.Weighted>
4.8309

> <Gold.Chemscore.Internal.Correction.Weighted>
   9.000000E+99

> <Gold.Protein.RotatedTorsions>
[ 6907 6896 6895 6894 ] final  151.76 input  -60.11 | X-H torsion
[ 7974 7965 7964 7962 ] final   54.84 input  175.53 | X-H torsion
[ 8008 7997 7996 7995 ] final  -52.05 input   59.86 | X-H torsion
[ 10167 10162 10161 10158 ] final  -88.69 input  -65.29 | X-H torsion
[ 10718 10713 10712 10709 ] final   47.62 input   66.30 | X-H torsion
[ 10763 10752 10751 10750 ] final   87.81 input  -60.55 | X-H torsion
[ 11005 11000 10999 10996 ] final  116.03 input  -57.11 | X-H torsion

> <Gold.Protein.ActiveResidues>
 VAL166  LYS551  ARG553  GLY616  TRP617  ASP618  TYR619  PRO620  LYS621  CYS622 
 ASP623  PHE694  ASN695  SER759  ASP760  ASP761  ALA762  ILE779  LEU786  VAL792 
 PHE793  MET794  SER795  GLU796  ALA797  LYS798  CYS799  TRP800  GLU811  SER814 

> <Gold.Protein.RotatedAtoms>
  152.0961  133.4225  159.4565 H   0  0  0  0  0  0  0  0  0  0  0  0  # atno 6907 bound_to 6896
  150.6863  134.2815  159.4638 H   0  0  0  0  0  0  0  0  0  0  0  0  # atno 6908 bound_to 6896
  152.0671  134.9557  160.0625 H   0  0  0  0  0  0  0  0  0  0  0  0  # atno 6909 bound_to 6896
  145.9566  139.4021  143.0273 H   0  0  0  0  0  0  0  0  0  0  0  0  # atno 7974 bound_to 7965
  154.4097  140.1233  156.4928 H   0  0  0  0  0  0  0  0  0  0  0  0  # atno 8008 bound_to 7997
  155.6973  140.3495  155.4899 H   0  0  0  0  0  0  0  0  0  0  0  0  # atno 8009 bound_to 7997
  155.9416  140.1088  157.1041 H   0  0  0  0  0  0  0  0  0  0  0  0  # atno 8010 bound_to 7997
  140.3722  143.2789  151.9486 H   0  0  0  0  0  0  0  0  0  0  0  0  # atno 10167 bound_to 10162
  157.4603  130.8192  149.7879 H   0  0  0  0  0  0  0  0  0  0  0  0  # atno 10718 bound_to 10713
  153.1705  135.4530  154.9896 H   0  0  0  0  0  0  0  0  0  0  0  0  # atno 10763 bound_to 10752
  154.7962  135.3238  154.7663 H   0  0  0  0  0  0  0  0  0  0  0  0  # atno 10764 bound_to 10752
  153.8140  135.6952  153.4891 H   0  0  0  0  0  0  0  0  0  0  0  0  # atno 10765 bound_to 10752
  139.9028  134.9592  156.7136 H   0  0  0  0  0  0  0  0  0  0  0  0  # atno 11005 bound_to 11000
  145.8097  140.9731  143.0955 LP  0  0  0  0  0  0  0  0  0  0  0  0  # atno 17320 bound_to 7965
  144.6806  139.9906  143.7484 LP  0  0  0  0  0  0  0  0  0  0  0  0  # atno 17321 bound_to 7965
  139.4802  144.5896  151.7794 LP  0  0  0  0  0  0  0  0  0  0  0  0  # atno 17342 bound_to 10162
  140.5022  144.1152  150.5974 LP  0  0  0  0  0  0  0  0  0  0  0  0  # atno 17343 bound_to 10162
  156.0025  130.3872  150.2550 LP  0  0  0  0  0  0  0  0  0  0  0  0  # atno 17370 bound_to 10713
  157.0727  131.0121  151.3184 LP  0  0  0  0  0  0  0  0  0  0  0  0  # atno 17371 bound_to 10713
  140.7056  133.9268  155.8052 LP  0  0  0  0  0  0  0  0  0  0  0  0  # atno 17394 bound_to 11000
  141.0339  134.0718  157.3982 LP  0  0  0  0  0  0  0  0  0  0  0  0  # atno 17395 bound_to 11000

$$$$
