AV-unprocessed.smi:108|AV-procd|sdf|1029|dock2
  -GOLD-   2262018 33D 1   1.00000     0.00000
 Structure written by MMmdl.
 59 62  0  0  0  0  0  0  0  0  1 V2000
  149.8437  135.3812  158.3405 O   0  0  0  0  0  0  0  0  0  0  0  0
  149.3007  136.1908  157.5853 C   0  0  0  0  0  0  0  0  0  0  0  0
  148.3600  137.2614  158.1805 C   0  0  0  0  0  0  0  0  0  0  0  0
  147.0688  136.7149  158.6530 N   0  0  0  0  0  0  0  0  0  0  0  0
  146.0860  136.3727  157.6922 C   0  0  0  0  0  0  0  0  0  0  0  0
  146.3016  136.4931  156.4852 O   0  0  0  0  0  0  0  0  0  0  0  0
  144.8187  135.8980  158.2337 C   0  0  0  0  0  0  0  0  0  0  0  0
  143.8106  135.5937  157.3986 F   0  0  0  0  0  0  0  0  0  0  0  0
  144.6330  135.7770  159.5641 C   0  0  0  0  0  0  0  0  0  0  0  0
  145.6175  136.0661  160.4932 N   0  0  0  0  0  0  0  0  0  0  0  0
  145.3484  136.0245  161.9841 C   0  0  2  0  0  0  0  0  0  0  0  0
  146.0493  134.8704  162.7220 C   0  0  0  0  0  0  0  0  0  0  0  0
  144.9124  133.8929  162.9476 C   0  0  0  0  0  0  0  0  0  0  0  0
  143.7255  134.8357  163.1012 C   0  0  0  0  0  0  0  0  0  0  0  0
  143.9707  135.8700  162.1565 O   0  0  0  0  0  0  0  0  0  0  0  0
  146.8476  136.6014  160.0471 C   0  0  0  0  0  0  0  0  0  0  0  0
  147.7077  136.9660  160.8525 O   0  0  0  0  0  0  0  0  0  0  0  0
  149.5000  136.1634  156.2436 N   0  0  0  0  0  0  0  0  0  0  0  0
  150.3490  135.1297  155.6268 C   0  0  0  0  0  0  0  0  0  0  0  0
  149.8119  134.6444  154.2627 C   0  0  0  0  0  0  0  0  0  0  0  0
  149.5561  133.1476  154.2074 C   0  0  0  0  0  0  0  0  0  0  0  0
  148.5967  132.6244  153.3139 C   0  0  0  0  0  0  0  0  0  0  0  0
  148.3766  131.2353  153.2458 C   0  0  0  0  0  0  0  0  0  0  0  0
  149.1123  130.3646  154.0727 C   0  0  0  0  0  0  0  0  0  0  0  0
  150.0680  130.8836  154.9677 C   0  0  0  0  0  0  0  0  0  0  0  0
  150.2899  132.2728  155.0353 C   0  0  0  0  0  0  0  0  0  0  0  0
  148.9024  137.1322  155.3081 C   0  0  0  0  0  0  0  0  0  0  0  0
  149.4333  138.5571  155.4234 C   0  0  0  0  0  0  0  0  0  0  0  0
  148.8866  139.6203  154.6679 C   0  0  0  0  0  0  0  0  0  0  0  0
  149.4044  140.9236  154.7969 C   0  0  0  0  0  0  0  0  0  0  0  0
  150.4660  141.1763  155.6860 C   0  0  0  0  0  0  0  0  0  0  0  0
  151.0078  140.1245  156.4490 C   0  0  0  0  0  0  0  0  0  0  0  0
  150.4916  138.8207  156.3186 C   0  0  0  0  0  0  0  0  0  0  0  0
  148.8738  137.7787  158.9913 H   0  0  0  0  0  0  0  0  0  0  0  0
  148.1851  138.0364  157.4336 H   0  0  0  0  0  0  0  0  0  0  0  0
  143.6619  135.4455  159.8948 H   0  0  0  0  0  0  0  0  0  0  0  0
  145.6870  136.9844  162.3776 H   0  0  0  0  0  0  0  0  0  0  0  0
  146.9085  134.4681  162.1856 H   0  0  0  0  0  0  0  0  0  0  0  0
  146.4027  135.2489  163.6821 H   0  0  0  0  0  0  0  0  0  0  0  0
  144.7713  133.2521  162.0773 H   0  0  0  0  0  0  0  0  0  0  0  0
  145.0641  133.2546  163.8185 H   0  0  0  0  0  0  0  0  0  0  0  0
  142.7690  134.3449  162.9201 H   0  0  0  0  0  0  0  0  0  0  0  0
  143.7053  135.2659  164.1037 H   0  0  0  0  0  0  0  0  0  0  0  0
  151.3623  135.5103  155.4934 H   0  0  0  0  0  0  0  0  0  0  0  0
  150.4586  134.2810  156.3042 H   0  0  0  0  0  0  0  0  0  0  0  0
  148.8873  135.1717  154.0257 H   0  0  0  0  0  0  0  0  0  0  0  0
  150.5144  134.9100  153.4718 H   0  0  0  0  0  0  0  0  0  0  0  0
  148.0342  133.2857  152.6703 H   0  0  0  0  0  0  0  0  0  0  0  0
  147.6449  130.8385  152.5575 H   0  0  0  0  0  0  0  0  0  0  0  0
  148.9442  129.2991  154.0199 H   0  0  0  0  0  0  0  0  0  0  0  0
  150.6328  130.2156  155.6010 H   0  0  0  0  0  0  0  0  0  0  0  0
  151.0287  132.6651  155.7189 H   0  0  0  0  0  0  0  0  0  0  0  0
  149.0567  136.8115  154.2773 H   0  0  0  0  0  0  0  0  0  0  0  0
  147.8182  137.1382  155.4216 H   0  0  0  0  0  0  0  0  0  0  0  0
  148.0697  139.4494  153.9828 H   0  0  0  0  0  0  0  0  0  0  0  0
  148.9861  141.7300  154.2128 H   0  0  0  0  0  0  0  0  0  0  0  0
  150.8628  142.1761  155.7840 H   0  0  0  0  0  0  0  0  0  0  0  0
  151.8200  140.3173  157.1342 H   0  0  0  0  0  0  0  0  0  0  0  0
  150.9140  138.0198  156.9078 H   0  0  0  0  0  0  0  0  0  0  0  0
  1  2  2  0  0  0  0
  2  3  1  0  0  0  0
  2 18  1  0  0  0  0
  3  4  1  0  0  0  0
  3 34  1  0  0  0  0
  3 35  1  0  0  0  0
  4 16  1  0  0  0  0
  4  5  1  0  0  0  0
  5  6  2  0  0  0  0
  5  7  1  0  0  0  0
  7  8  1  0  0  0  0
  7  9  2  0  0  0  0
  9 10  1  0  0  0  0
  9 36  1  0  0  0  0
 10 11  1  0  0  0  0
 10 16  1  0  0  0  0
 11 15  1  0  0  0  0
 11 12  1  0  0  0  0
 11 37  1  0  0  0  0
 12 13  1  0  0  0  0
 12 38  1  0  0  0  0
 12 39  1  0  0  0  0
 13 14  1  0  0  0  0
 13 40  1  0  0  0  0
 13 41  1  0  0  0  0
 14 15  1  0  0  0  0
 14 42  1  0  0  0  0
 14 43  1  0  0  0  0
 16 17  2  0  0  0  0
 18 19  1  0  0  0  0
 18 27  1  0  0  0  0
 19 20  1  0  0  0  0
 19 44  1  0  0  0  0
 19 45  1  0  0  0  0
 20 21  1  0  0  0  0
 20 46  1  0  0  0  0
 20 47  1  0  0  0  0
 21 26  1  0  0  0  0
 21 22  2  0  0  0  0
 22 23  1  0  0  0  0
 22 48  1  0  0  0  0
 23 24  2  0  0  0  0
 23 49  1  0  0  0  0
 24 25  1  0  0  0  0
 24 50  1  0  0  0  0
 25 26  2  0  0  0  0
 25 51  1  0  0  0  0
 26 52  1  0  0  0  0
 27 28  1  0  0  0  0
 27 53  1  0  0  0  0
 27 54  1  0  0  0  0
 28 33  1  0  0  0  0
 28 29  2  0  0  0  0
 29 30  1  0  0  0  0
 29 55  1  0  0  0  0
 30 31  2  0  0  0  0
 30 56  1  0  0  0  0
 31 32  1  0  0  0  0
 31 57  1  0  0  0  0
 32 33  2  0  0  0  0
 32 58  1  0  0  0  0
 33 59  1  0  0  0  0
M  END
> <s_m_source_file>
AV-unprocessed.smi

> <i_m_source_file_index>
108

> <i_lp_mmshare_version>
43012

> <i_f3d_flags>
0

> <s_epik_input>
W2NIXTFbY0hdW2NIXVtjSF1bY0hdYzFbQ0gyXVtDSDJdTihbQ0gyXWMyW2NIXVtjSF1bY0hdW2NIXVtjSF0yKUMoPU8pW0NIMl1uM2MoPU8pYyhGKVtjSF1uKGMzPU8pW0NAQEhdNFtDSDJdW0NIMl1bQ0gyXU80

> <s_epik_cmdline>
J2VwaWtfcHl0aG9uJywgJy1waCcsICc3LjAnLCAnLXRuJywgJzgnLCAnLW1hJywgJzIwMCcsICctbWV0YWxfYmluZGluZycsICctaW1hZScsICc8aW5maWxlLm1hZT4nLCAnLW9tYWUnLCAnPG91dGZpbGUubWFlPic=

> <r_lp_tautomer_probability>
1

> <r_epik_Ionization_Penalty>
5.46209e-09

> <r_epik_Ionization_Penalty_Charging>
4.22697e-09

> <r_epik_Ionization_Penalty_Neutral>
1.23512e-09

> <r_epik_State_Penalty>
-0

> <r_epik_Charging_Adjusted_Penalty>
4.22697e-09

> <i_epik_Tot_Q>
0

> <i_epik_Tot_abs_Q>
0

> <r_epik_Metal_State_Penalty>
-0

> <b_epik_Metal_Only>
0

> <s_epik_Chemistry_Notes>
This compound contains an acetal/aminal-like group ( X-CH(R)-Y where X, Y are N, S, or O) that may be acid/base labile, releasing an aldehyde.

> <s_lp_Force_Field>
OPLS_2005

> <r_lp_Energy>
39.1501

> <b_lp_Chiralities_Consistent>
1

> <s_lp_Variant>
AV-unprocessed.smi:108-1

> <Gold.Version>
5.8.1

> <Gold.Id.Protein>
6NUR|6NUR_protein|mol2

> <Gold.PLP.Fitness>
48.6741

> <Gold.PLP.PLP>
-43.6478

> <Gold.PLP.part.hbond>
-2.9719

> <Gold.PLP.part.metal>
0.0000

> <Gold.PLP.part.buried>
-4.0018

> <Gold.PLP.part.nonpolar>
-36.0195

> <Gold.PLP.part.repulsive>
0.0237

> <Gold.PLP.ligand.clash>
0.0000

> <Gold.PLP.ligand.torsion>
1.8036

> <Gold.PLP.Chemscore.Hbond>
2.8016

> <Gold.PLP.Chemscore.CHOScore>
0.0000

> <Gold.PLP.Chemscore.Metal>
0.0000

> <Gold.Chemscore.Hbonds>
donor molecule, donor type, donor heavy atom, donor atom, acceptor molecule, acceptor atom, score
      P1  H  6896  6907       L1     1  1.00
      P1  H  6931  6943       L1    17  0.72
      P1  H  6934  6947       L1    17  0.65

> <Gold.PLP.Chemscore.Internal.Correction>
0.2288

> <Gold.Rescore>
     Score         DG    S(hbond)    S(metal)    S(lipo)     H(rot)  DE(clash)    DE(int)     intcor
     17.47     -19.87       2.40        0.00     104.23       2.28       0.09       2.31       ----

> <Gold.Chemscore.Fitness>
17.4687

> <Gold.Chemscore.DG>
-19.8685

> <Gold.Chemscore.ZeroCoef>
-5.4800

> <Gold.Chemscore.Hbond>
2.4008

> <Gold.Chemscore.Metal>
0.0000

> <Gold.Chemscore.Lipo>
104.2340

> <Gold.Chemscore.Internal_Hbond>
0.0000

> <Gold.Chemscore.DEClash>
0.0858

> <Gold.Chemscore.DEInternal>
2.3140

> <Gold.Chemscore.Rot>
2.2756

> <Gold.Chemscore.Internal.Correction>
   9.000000E+99

> <Gold.Chemscore.Hbonds>
donor molecule, donor type, donor heavy atom, donor atom, acceptor molecule, acceptor atom, score
      P1  H  6896  6907       L1     1  0.97
      P1  H  6931  6943       L1    17  0.70
      P1  H  6934  6947       L1    17  0.12

> <Gold.Chemscore.Hbond.Weighted>
-8.0186

> <Gold.Chemscore.Metal.Weighted>
-0.0000

> <Gold.Chemscore.Lipo.Weighted>
-12.1954

> <Gold.Chemscore.Internal_Hbond.Weighted>
0.0000

> <Gold.Chemscore.DEClash.Weighted>
0.0858

> <Gold.Chemscore.DEInternal.Weighted>
2.3140

> <Gold.Chemscore.Rot.Weighted>
5.8255

> <Gold.Chemscore.Internal.Correction.Weighted>
   9.000000E+99

> <Gold.Protein.RotatedTorsions>
[ 6907 6896 6895 6894 ] final  -76.98 input  -60.11 | X-H torsion
[ 7974 7965 7964 7962 ] final   33.02 input  175.53 | X-H torsion
[ 8008 7997 7996 7995 ] final  171.09 input   59.86 | X-H torsion
[ 10167 10162 10161 10158 ] final  -51.63 input  -65.29 | X-H torsion
[ 10718 10713 10712 10709 ] final   57.26 input   66.30 | X-H torsion
[ 10763 10752 10751 10750 ] final   62.33 input  -60.55 | X-H torsion
[ 11005 11000 10999 10996 ] final  105.62 input  -57.11 | X-H torsion

> <Gold.Protein.ActiveResidues>
 VAL166  LYS551  ARG553  GLY616  TRP617  ASP618  TYR619  PRO620  LYS621  CYS622 
 ASP623  PHE694  ASN695  SER759  ASP760  ASP761  ALA762  ILE779  LEU786  VAL792 
 PHE793  MET794  SER795  GLU796  ALA797  LYS798  CYS799  TRP800  GLU811  SER814 

> <Gold.Protein.RotatedAtoms>
  150.7011  134.4491  159.5327 H   0  0  0  0  0  0  0  0  0  0  0  0  # atno 6907 bound_to 6896
  152.2187  134.8431  160.0498 H   0  0  0  0  0  0  0  0  0  0  0  0  # atno 6908 bound_to 6896
  151.9289  133.3571  159.3960 H   0  0  0  0  0  0  0  0  0  0  0  0  # atno 6909 bound_to 6896
  146.1448  139.6450  142.9139 H   0  0  0  0  0  0  0  0  0  0  0  0  # atno 7974 bound_to 7965
  156.1304  140.1521  156.9074 H   0  0  0  0  0  0  0  0  0  0  0  0  # atno 8008 bound_to 7997
  154.4904  140.0853  156.7622 H   0  0  0  0  0  0  0  0  0  0  0  0  # atno 8009 bound_to 7997
  155.4266  140.3425  155.4278 H   0  0  0  0  0  0  0  0  0  0  0  0  # atno 8010 bound_to 7997
  140.6578  143.2612  151.4532 H   0  0  0  0  0  0  0  0  0  0  0  0  # atno 10167 bound_to 10162
  157.5500  130.8758  149.8948 H   0  0  0  0  0  0  0  0  0  0  0  0  # atno 10718 bound_to 10713
  152.9979  135.5469  154.6176 H   0  0  0  0  0  0  0  0  0  0  0  0  # atno 10763 bound_to 10752
  154.5483  135.2825  155.1034 H   0  0  0  0  0  0  0  0  0  0  0  0  # atno 10764 bound_to 10752
  154.2284  135.6438  153.5220 H   0  0  0  0  0  0  0  0  0  0  0  0  # atno 10765 bound_to 10752
  139.8804  134.9342  156.5541 H   0  0  0  0  0  0  0  0  0  0  0  0  # atno 11005 bound_to 11000
  145.4963  141.0438  143.2565 LP  0  0  0  0  0  0  0  0  0  0  0  0  # atno 17320 bound_to 7965
  144.7833  139.6479  143.7145 LP  0  0  0  0  0  0  0  0  0  0  0  0  # atno 17321 bound_to 7965
  139.5805  144.1721  152.1961 LP  0  0  0  0  0  0  0  0  0  0  0  0  # atno 17342 bound_to 10162
  140.1044  144.5511  150.6967 LP  0  0  0  0  0  0  0  0  0  0  0  0  # atno 17343 bound_to 10162
  156.0568  130.3707  150.1072 LP  0  0  0  0  0  0  0  0  0  0  0  0  # atno 17370 bound_to 10713
  156.9246  130.9694  151.3543 LP  0  0  0  0  0  0  0  0  0  0  0  0  # atno 17371 bound_to 10713
  140.8218  133.8348  155.8902 LP  0  0  0  0  0  0  0  0  0  0  0  0  # atno 17394 bound_to 11000
  140.9411  134.1899  157.4797 LP  0  0  0  0  0  0  0  0  0  0  0  0  # atno 17395 bound_to 11000

$$$$
