AV-unprocessed.smi:1395|AV-procd|sdf|5673|dock3
  -GOLD-   22720 5293D 1   1.00000     0.00000
 Structure written by MMmdl.
 42 43  0  0  0  0  0  0  0  0  3 V2000
  151.5973  144.6486  157.9016 C   0  0  0  0  0  0  0  0  0  0  0  0
  151.8667  143.2244  158.3593 C   0  0  0  0  0  0  0  0  0  0  0  0
  152.8310  142.9929  159.3634 C   0  0  0  0  0  0  0  0  0  0  0  0
  153.0797  141.6754  159.7847 C   0  0  0  0  0  0  0  0  0  0  0  0
  152.3489  140.6385  159.1800 C   0  0  0  0  0  0  0  0  0  0  0  0
  151.4254  140.8507  158.2202 N   0  0  0  0  0  0  0  0  0  0  0  0
  151.1744  142.1163  157.8010 C   0  0  0  0  0  0  0  0  0  0  0  0
  150.2091  142.4149  156.7982 N   0  0  0  0  0  0  0  0  0  0  0  0
  149.7079  141.6016  155.8518 C   0  0  0  0  0  0  0  0  0  0  0  0
  150.0601  140.4396  155.6484 O   0  0  0  0  0  0  0  0  0  0  0  0
  148.7579  142.2210  155.1358 N   0  0  0  0  0  0  0  0  0  0  0  0
  148.0011  141.6254  154.0344 C   0  0  2  0  0  0  0  0  0  0  0  0
  146.9372  142.6115  153.5221 C   0  0  0  0  0  0  0  0  0  0  0  0
  145.7922  142.8021  154.5346 C   0  0  0  0  0  0  0  0  0  0  0  0
  145.1709  141.5047  154.9055 N   0  3  2  0  0  0  0  0  0  0  0  0
  143.9936  141.6831  155.7919 C   0  0  0  0  0  0  0  0  0  0  0  0
  143.2678  140.3483  155.9895 C   0  0  0  0  0  0  0  0  0  0  0  0
  142.7973  139.8415  154.8336 N   0  5  0  0  0  0  0  0  0  0  0  0
  143.1618  139.8779  157.1202 O   0  0  0  0  0  0  0  0  0  0  0  0
  146.1727  140.5484  155.4501 C   0  0  0  0  0  0  0  0  0  0  0  0
  147.3150  140.3084  154.4485 C   0  0  0  0  0  0  0  0  0  0  0  0
  152.2058  145.3649  158.4545 H   0  0  0  0  0  0  0  0  0  0  0  0
  150.5500  144.9086  158.0571 H   0  0  0  0  0  0  0  0  0  0  0  0
  151.8296  144.7583  156.8419 H   0  0  0  0  0  0  0  0  0  0  0  0
  153.3755  143.8131  159.8081 H   0  0  0  0  0  0  0  0  0  0  0  0
  153.8112  141.4651  160.5508 H   0  0  0  0  0  0  0  0  0  0  0  0
  152.5080  139.6117  159.4741 H   0  0  0  0  0  0  0  0  0  0  0  0
  149.8438  143.3553  156.8199 H   0  0  0  0  0  0  0  0  0  0  0  0
  148.5413  143.1788  155.3692 H   0  0  0  0  0  0  0  0  0  0  0  0
  148.6993  141.4216  153.2205 H   0  0  0  0  0  0  0  0  0  0  0  0
  147.3941  143.5737  153.2873 H   0  0  0  0  0  0  0  0  0  0  0  0
  146.5238  142.2366  152.5848 H   0  0  0  0  0  0  0  0  0  0  0  0
  146.1580  143.2997  155.4340 H   0  0  0  0  0  0  0  0  0  0  0  0
  145.0379  143.4573  154.0974 H   0  0  0  0  0  0  0  0  0  0  0  0
  144.2923  142.1456  156.7352 H   0  0  0  0  0  0  0  0  0  0  0  0
  143.2788  142.3638  155.3275 H   0  0  0  0  0  0  0  0  0  0  0  0
  143.0399  140.3063  153.9506 H   0  0  0  0  0  0  0  0  0  0  0  0
  146.5690  140.9295  156.3924 H   0  0  0  0  0  0  0  0  0  0  0  0
  145.6992  139.5927  155.6755 H   0  0  0  0  0  0  0  0  0  0  0  0
  146.9109  139.8214  153.5601 H   0  0  0  0  0  0  0  0  0  0  0  0
  148.0380  139.6083  154.8684 H   0  0  0  0  0  0  0  0  0  0  0  0
  144.8145  141.1018  154.0504 H   0  0  0  0  0  0  0  0  0  0  0  0
  1  2  1  0  0  0  0
  1 22  1  0  0  0  0
  1 23  1  0  0  0  0
  1 24  1  0  0  0  0
  2  7  1  0  0  0  0
  2  3  2  0  0  0  0
  3  4  1  0  0  0  0
  3 25  1  0  0  0  0
  4  5  2  0  0  0  0
  4 26  1  0  0  0  0
  5  6  1  0  0  0  0
  5 27  1  0  0  0  0
  6  7  2  0  0  0  0
  7  8  1  0  0  0  0
  8  9  1  0  0  0  0
  8 28  1  0  0  0  0
  9 10  2  0  0  0  0
  9 11  1  0  0  0  0
 11 12  1  0  0  0  0
 11 29  1  0  0  0  0
 12 21  1  0  0  0  0
 12 13  1  0  0  0  0
 12 30  1  0  0  0  0
 13 14  1  0  0  0  0
 13 31  1  0  0  0  0
 13 32  1  0  0  0  0
 14 15  1  0  0  0  0
 14 33  1  0  0  0  0
 14 34  1  0  0  0  0
 15 16  1  0  0  0  0
 15 20  1  0  0  0  0
 15 42  1  0  0  0  0
 16 17  1  0  0  0  0
 16 35  1  0  0  0  0
 16 36  1  0  0  0  0
 17 18  1  0  0  0  0
 17 19  2  0  0  0  0
 18 37  1  0  0  0  0
 20 21  1  0  0  0  0
 20 38  1  0  0  0  0
 20 39  1  0  0  0  0
 21 40  1  0  0  0  0
 21 41  1  0  0  0  0
M  CHG  1  15   1
M  CHG  1  18  -1
M  END
> <s_m_source_file>
AV-unprocessed.smi

> <i_m_source_file_index>
1395

> <i_lp_mmshare_version>
43012

> <i_f3d_flags>
0

> <s_epik_input>
W0NIM11jMVtjSF1bY0hdW2NIXW5jMVtOSF1DKD1PKVtOSF1bQ0hdMltDSDJdW0NIMl1OKFtDSDJdW0NIMl0yKVtDSDJdQyg9TylbTkgyXQ==

> <s_epik_cmdline>
J2VwaWtfcHl0aG9uJywgJy1waCcsICc3LjAnLCAnLXRuJywgJzgnLCAnLW1hJywgJzIwMCcsICctbWV0YWxfYmluZGluZycsICctaW1hZScsICc8aW5maWxlLm1hZT4nLCAnLW9tYWUnLCAnPG91dGZpbGUubWFlPic=

> <r_epik_Ionization_Penalty>
5.72885

> <r_epik_Ionization_Penalty_Charging>
5.7288

> <r_epik_Ionization_Penalty_Neutral>
4.54304e-05

> <r_epik_State_Penalty>
6.54882

> <r_epik_Charging_Adjusted_Penalty>
12.2776

> <i_epik_Tot_Q>
0

> <i_epik_Tot_abs_Q>
2

> <r_epik_Metal_State_Penalty>
2.51297

> <b_epik_Metal_Only>
1

> <s_lp_Force_Field>
OPLS_2005

> <r_lp_Energy>
8.5501

> <b_lp_Chiralities_Consistent>
1

> <s_lp_Variant>
AV-unprocessed.smi:1395-5

> <Gold.Version>
5.8.1

> <Gold.Id.Protein>
6NUR|6NUR_protein|mol2

> <Gold.PLP.Fitness>
50.9898

> <Gold.PLP.PLP>
-36.7501

> <Gold.PLP.part.hbond>
-3.9671

> <Gold.PLP.part.metal>
0.0000

> <Gold.PLP.part.buried>
-6.3779

> <Gold.PLP.part.nonpolar>
-26.3291

> <Gold.PLP.part.repulsive>
0.2901

> <Gold.PLP.ligand.clash>
0.0000

> <Gold.PLP.ligand.torsion>
0.1419

> <Gold.PLP.Chemscore.Hbond>
4.8320

> <Gold.PLP.Chemscore.CHOScore>
0.0000

> <Gold.PLP.Chemscore.Metal>
0.0000

> <Gold.Chemscore.Hbonds>
donor molecule, donor type, donor heavy atom, donor atom, acceptor molecule, acceptor atom, score
      L1  H     8    28       P1  8028  0.85
      L1  H    11    29       P1  8028  1.00
      L1  H    15    42       P1 10175  2.00
      L1  H    18    37       P1 10175  1.00

> <Gold.PLP.Chemscore.Internal.Correction>
0.0274

> <Gold.Rescore>
     Score         DG    S(hbond)    S(metal)    S(lipo)     H(rot)  DE(clash)    DE(int)     intcor
     19.30     -23.00       3.81        0.00      83.21       1.93       1.11       2.59       ----

> <Gold.Chemscore.Fitness>
19.3015

> <Gold.Chemscore.DG>
-22.9978

> <Gold.Chemscore.ZeroCoef>
-5.4800

> <Gold.Chemscore.Hbond>
3.8124

> <Gold.Chemscore.Metal>
0.0000

> <Gold.Chemscore.Lipo>
83.2111

> <Gold.Chemscore.Internal_Hbond>
0.0000

> <Gold.Chemscore.DEClash>
1.1110

> <Gold.Chemscore.DEInternal>
2.5853

> <Gold.Chemscore.Rot>
1.9341

> <Gold.Chemscore.Internal.Correction>
   9.000000E+99

> <Gold.Chemscore.Hbonds>
donor molecule, donor type, donor heavy atom, donor atom, acceptor molecule, acceptor atom, score
      L1  H     8    28       P1  8028  0.78
      L1  H    11    29       P1  8028  0.97
      L1  H    15    42       P1 10175  0.74
      L1  H    18    37       P1 10175  0.95

> <Gold.Chemscore.Hbond.Weighted>
-12.7334

> <Gold.Chemscore.Metal.Weighted>
-0.0000

> <Gold.Chemscore.Lipo.Weighted>
-9.7357

> <Gold.Chemscore.Internal_Hbond.Weighted>
0.0000

> <Gold.Chemscore.DEClash.Weighted>
1.1110

> <Gold.Chemscore.DEInternal.Weighted>
2.5853

> <Gold.Chemscore.Rot.Weighted>
4.9512

> <Gold.Chemscore.Internal.Correction.Weighted>
   9.000000E+99

> <Gold.Protein.RotatedTorsions>
[ 6907 6896 6895 6894 ] final  -97.42 input  -60.11 | X-H torsion
[ 7974 7965 7964 7962 ] final  -54.93 input  175.53 | X-H torsion
[ 8008 7997 7996 7995 ] final  -17.52 input   59.86 | X-H torsion
[ 10167 10162 10161 10158 ] final -146.09 input  -65.29 | X-H torsion
[ 10718 10713 10712 10709 ] final  132.09 input   66.30 | X-H torsion
[ 10763 10752 10751 10750 ] final  158.08 input  -60.55 | X-H torsion
[ 11005 11000 10999 10996 ] final   74.09 input  -57.11 | X-H torsion

> <Gold.Protein.ActiveResidues>
 VAL166  LYS551  ARG553  GLY616  TRP617  ASP618  TYR619  PRO620  LYS621  CYS622 
 ASP623  PHE694  ASN695  SER759  ASP760  ASP761  ALA762  ILE779  LEU786  VAL792 
 PHE793  MET794  SER795  GLU796  ALA797  LYS798  CYS799  TRP800  GLU811  SER814 

> <Gold.Protein.RotatedAtoms>
  150.7016  134.1351  159.4083 H   0  0  0  0  0  0  0  0  0  0  0  0  # atno 6907 bound_to 6896
  151.9337  135.0243  160.0540 H   0  0  0  0  0  0  0  0  0  0  0  0  # atno 6908 bound_to 6896
  152.2154  133.4907  159.5169 H   0  0  0  0  0  0  0  0  0  0  0  0  # atno 6909 bound_to 6896
  145.8800  140.8151  142.9844 H   0  0  0  0  0  0  0  0  0  0  0  0  # atno 7974 bound_to 7965
  154.4972  140.2140  155.9422 H   0  0  0  0  0  0  0  0  0  0  0  0  # atno 8008 bound_to 7997
  156.1386  140.3184  155.8428 H   0  0  0  0  0  0  0  0  0  0  0  0  # atno 8009 bound_to 7997
  155.4162  140.0494  157.3019 H   0  0  0  0  0  0  0  0  0  0  0  0  # atno 8010 bound_to 7997
  139.7745  143.8190  152.2630 H   0  0  0  0  0  0  0  0  0  0  0  0  # atno 10167 bound_to 10162
  157.4905  131.1090  150.9563 H   0  0  0  0  0  0  0  0  0  0  0  0  # atno 10718 bound_to 10713
  154.2103  135.2786  155.2960 H   0  0  0  0  0  0  0  0  0  0  0  0  # atno 10763 bound_to 10752
  154.5783  135.5597  153.7164 H   0  0  0  0  0  0  0  0  0  0  0  0  # atno 10764 bound_to 10752
  153.0066  135.6338  154.2242 H   0  0  0  0  0  0  0  0  0  0  0  0  # atno 10765 bound_to 10752
  139.9408  134.7403  156.1105 H   0  0  0  0  0  0  0  0  0  0  0  0  # atno 11005 bound_to 11000
  144.6727  140.1369  143.7440 LP  0  0  0  0  0  0  0  0  0  0  0  0  # atno 17320 bound_to 7965
  145.9035  139.2444  143.1480 LP  0  0  0  0  0  0  0  0  0  0  0  0  # atno 17321 bound_to 7965
  139.8234  144.7286  150.9543 LP  0  0  0  0  0  0  0  0  0  0  0  0  # atno 17342 bound_to 10162
  140.7815  143.4137  151.0951 LP  0  0  0  0  0  0  0  0  0  0  0  0  # atno 17343 bound_to 10162
  157.0266  130.5695  149.5338 LP  0  0  0  0  0  0  0  0  0  0  0  0  # atno 17370 bound_to 10713
  156.0171  130.5265  150.8165 LP  0  0  0  0  0  0  0  0  0  0  0  0  # atno 17371 bound_to 10713
  141.1041  133.6666  156.2823 LP  0  0  0  0  0  0  0  0  0  0  0  0  # atno 17394 bound_to 11000
  140.5957  134.5606  157.5508 LP  0  0  0  0  0  0  0  0  0  0  0  0  # atno 17395 bound_to 11000

$$$$
