AV-unprocessed.smi:644|AV-procd|sdf|3155|dock7
  -GOLD-   22720 0 73D 1   1.00000     0.00000
 Structure written by MMmdl.
 37 39  0  0  0  0  0  0  0  0  1 V2000
  153.7026  142.0923  161.0750 C   0  0  0  0  0  0  0  0  0  0  0  0
  152.8468  142.0011  159.8240 C   0  0  0  0  0  0  0  0  0  0  0  0
  152.8207  140.7898  159.0965 C   0  0  0  0  0  0  0  0  0  0  0  0
  152.0359  140.6628  157.9295 C   0  0  0  0  0  0  0  0  0  0  0  0
  151.8609  139.5866  157.0765 N   0  0  0  0  0  0  0  0  0  0  0  0
  151.0150  140.0885  156.1814 C   0  0  0  0  0  0  0  0  0  0  0  0
  150.6177  141.3635  156.3559 N   0  0  0  0  0  0  0  0  0  0  0  0
  149.7051  142.1206  155.5173 C   0  0  0  0  0  0  0  0  0  0  0  0
  148.9109  141.2211  154.5510 C   0  0  2  0  0  0  0  0  0  0  0  0
  149.7589  140.7879  153.5041 O   0  0  0  0  0  0  0  0  0  0  0  0
  147.6993  141.9494  153.9481 C   0  0  0  0  0  0  0  0  0  0  0  0
  146.4263  142.3035  155.1942 S   0  0  0  0  0  0  0  0  0  0  0  0
  145.5750  143.5538  154.3042 C   0  0  0  0  0  0  0  0  0  0  0  0
  145.9024  143.9384  153.0646 N   0  0  0  0  0  0  0  0  0  0  0  0
  145.0687  144.9439  152.5917 N   0  0  0  0  0  0  0  0  0  0  0  0
  144.1453  145.2804  153.4966 C   0  0  0  0  0  0  0  0  0  0  0  0
  144.2038  144.3990  155.0121 S   0  0  0  0  0  0  0  0  0  0  0  0
  151.2731  141.7901  157.5058 C   0  0  0  0  0  0  0  0  0  0  0  0
  151.2921  143.0011  158.2200 C   0  0  0  0  0  0  0  0  0  0  0  0
  152.0798  143.1104  159.3851 C   0  0  0  0  0  0  0  0  0  0  0  0
  152.0910  144.4212  160.1518 C   0  0  0  0  0  0  0  0  0  0  0  0
  154.2422  141.1624  161.2566 H   0  0  0  0  0  0  0  0  0  0  0  0
  153.0819  142.2947  161.9482 H   0  0  0  0  0  0  0  0  0  0  0  0
  154.4378  142.8915  160.9787 H   0  0  0  0  0  0  0  0  0  0  0  0
  153.4040  139.9445  159.4308 H   0  0  0  0  0  0  0  0  0  0  0  0
  150.6593  139.4937  155.3527 H   0  0  0  0  0  0  0  0  0  0  0  0
  149.0241  142.6709  156.1676 H   0  0  0  0  0  0  0  0  0  0  0  0
  150.2765  142.8661  154.9619 H   0  0  0  0  0  0  0  0  0  0  0  0
  148.5629  140.3393  155.0905 H   0  0  0  0  0  0  0  0  0  0  0  0
  149.2776  140.1842  152.9591 H   0  0  0  0  0  0  0  0  0  0  0  0
  148.0140  142.8986  153.5127 H   0  0  0  0  0  0  0  0  0  0  0  0
  147.2638  141.3591  153.1409 H   0  0  0  0  0  0  0  0  0  0  0  0
  143.4255  146.0528  153.2700 H   0  0  0  0  0  0  0  0  0  0  0  0
  150.7031  143.8377  157.8740 H   0  0  0  0  0  0  0  0  0  0  0  0
  151.4282  145.1562  159.6942 H   0  0  0  0  0  0  0  0  0  0  0  0
  153.0960  144.8430  160.1714 H   0  0  0  0  0  0  0  0  0  0  0  0
  151.7594  144.2670  161.1789 H   0  0  0  0  0  0  0  0  0  0  0  0
  1  2  1  0  0  0  0
  1 22  1  0  0  0  0
  1 23  1  0  0  0  0
  1 24  1  0  0  0  0
  2 20  1  0  0  0  0
  2  3  2  0  0  0  0
  3  4  1  0  0  0  0
  3 25  1  0  0  0  0
  4 18  2  0  0  0  0
  4  5  1  0  0  0  0
  5  6  2  0  0  0  0
  6  7  1  0  0  0  0
  6 26  1  0  0  0  0
  7  8  1  0  0  0  0
  7 18  1  0  0  0  0
  8  9  1  0  0  0  0
  8 27  1  0  0  0  0
  8 28  1  0  0  0  0
  9 10  1  0  0  0  0
  9 11  1  0  0  0  0
  9 29  1  0  0  0  0
 10 30  1  0  0  0  0
 11 12  1  0  0  0  0
 11 31  1  0  0  0  0
 11 32  1  0  0  0  0
 12 13  1  0  0  0  0
 13 17  1  0  0  0  0
 13 14  2  0  0  0  0
 14 15  1  0  0  0  0
 15 16  2  0  0  0  0
 16 17  1  0  0  0  0
 16 33  1  0  0  0  0
 18 19  1  0  0  0  0
 19 20  2  0  0  0  0
 19 34  1  0  0  0  0
 20 21  1  0  0  0  0
 21 35  1  0  0  0  0
 21 36  1  0  0  0  0
 21 37  1  0  0  0  0
M  END
> <s_m_source_file>
AV-unprocessed.smi

> <i_m_source_file_index>
644

> <i_lp_mmshare_version>
43012

> <i_f3d_flags>
0

> <s_epik_input>
W0NIM11jKFtjSF0xKWMoW0NIM10pW2NIXWMoYzEyKW4oW2NIXW4yKVtDSDJdW0NASF0oW09IXSlbQ0gyXVNjM25uW2NIXXMz

> <s_epik_cmdline>
J2VwaWtfcHl0aG9uJywgJy1waCcsICc3LjAnLCAnLXRuJywgJzgnLCAnLW1hJywgJzIwMCcsICctbWV0YWxfYmluZGluZycsICctaW1hZScsICc8aW5maWxlLm1hZT4nLCAnLW9tYWUnLCAnPG91dGZpbGUubWFlPic=

> <r_lp_tautomer_probability>
1

> <r_epik_Ionization_Penalty>
0.105397

> <r_epik_Ionization_Penalty_Charging>
0

> <r_epik_Ionization_Penalty_Neutral>
0.105397

> <r_epik_State_Penalty>
0.0952713

> <r_epik_Charging_Adjusted_Penalty>
0.0952713

> <i_epik_Tot_Q>
0

> <i_epik_Tot_abs_Q>
0

> <r_epik_Metal_State_Penalty>
0.0807681

> <b_epik_Metal_Only>
0

> <s_lp_Force_Field>
OPLS_2005

> <r_lp_Energy>
9.27729

> <b_lp_Chiralities_Consistent>
1

> <s_lp_Variant>
AV-unprocessed.smi:644-1

> <Gold.Version>
5.8.1

> <Gold.Id.Protein>
6NUR|6NUR_protein|mol2

> <Gold.PLP.Fitness>
52.7872

> <Gold.PLP.PLP>
-48.2014

> <Gold.PLP.part.hbond>
-3.6059

> <Gold.PLP.part.metal>
0.0000

> <Gold.PLP.part.buried>
-1.2304

> <Gold.PLP.part.nonpolar>
-42.6054

> <Gold.PLP.part.repulsive>
0.3938

> <Gold.PLP.ligand.clash>
0.0000

> <Gold.PLP.ligand.torsion>
0.4155

> <Gold.PLP.Chemscore.Hbond>
1.7840

> <Gold.PLP.Chemscore.CHOScore>
0.0000

> <Gold.PLP.Chemscore.Metal>
0.0000

> <Gold.Chemscore.Hbonds>
donor molecule, donor type, donor heavy atom, donor atom, acceptor molecule, acceptor atom, score
      L1  H    10    30       P1  7957  0.43
      P1  H  7989  7998       L1    10  0.35
      P1  H  8011  8017       L1    10  1.00

> <Gold.PLP.Chemscore.Internal.Correction>
0.0649

> <Gold.Rescore>
     Score         DG    S(hbond)    S(metal)    S(lipo)     H(rot)  DE(clash)    DE(int)     intcor
     15.13     -17.08       0.93        0.00     126.36       2.46       1.51       0.44       ----

> <Gold.Chemscore.Fitness>
15.1345

> <Gold.Chemscore.DG>
-17.0826

> <Gold.Chemscore.ZeroCoef>
-5.4800

> <Gold.Chemscore.Hbond>
0.9319

> <Gold.Chemscore.Metal>
0.0000

> <Gold.Chemscore.Lipo>
126.3643

> <Gold.Chemscore.Internal_Hbond>
0.0000

> <Gold.Chemscore.DEClash>
1.5111

> <Gold.Chemscore.DEInternal>
0.4370

> <Gold.Chemscore.Rot>
2.4588

> <Gold.Chemscore.Internal.Correction>
   9.000000E+99

> <Gold.Chemscore.Hbonds>
donor molecule, donor type, donor heavy atom, donor atom, acceptor molecule, acceptor atom, score
      L1  H    10    30       P1  7957  0.42
      P1  H  7989  7998       L1    10  0.36
      P1  H  8011  8017       L1    10  0.10

> <Gold.Chemscore.Hbond.Weighted>
-3.1125

> <Gold.Chemscore.Metal.Weighted>
-0.0000

> <Gold.Chemscore.Lipo.Weighted>
-14.7846

> <Gold.Chemscore.Internal_Hbond.Weighted>
0.0000

> <Gold.Chemscore.DEClash.Weighted>
1.5111

> <Gold.Chemscore.DEInternal.Weighted>
0.4370

> <Gold.Chemscore.Rot.Weighted>
6.2946

> <Gold.Chemscore.Internal.Correction.Weighted>
   9.000000E+99

> <Gold.Protein.RotatedTorsions>
[ 6907 6896 6895 6894 ] final   -0.08 input  -60.11 | X-H torsion
[ 7974 7965 7964 7962 ] final -174.02 input  175.53 | X-H torsion
[ 8008 7997 7996 7995 ] final  -74.49 input   59.86 | X-H torsion
[ 10167 10162 10161 10158 ] final  -46.62 input  -65.29 | X-H torsion
[ 10718 10713 10712 10709 ] final  -48.21 input   66.30 | X-H torsion
[ 10763 10752 10751 10750 ] final   72.41 input  -60.55 | X-H torsion
[ 11005 11000 10999 10996 ] final  -74.71 input  -57.11 | X-H torsion

> <Gold.Protein.ActiveResidues>
 VAL166  LYS551  ARG553  GLY616  TRP617  ASP618  TYR619  PRO620  LYS621  CYS622 
 ASP623  PHE694  ASN695  SER759  ASP760  ASP761  ALA762  ILE779  LEU786  VAL792 
 PHE793  MET794  SER795  GLU796  ALA797  LYS798  CYS799  TRP800  GLU811  SER814 

> <Gold.Protein.RotatedAtoms>
  151.5680  135.1063  159.9988 H   0  0  0  0  0  0  0  0  0  0  0  0  # atno 6907 bound_to 6896
  152.4414  133.7452  159.6674 H   0  0  0  0  0  0  0  0  0  0  0  0  # atno 6908 bound_to 6896
  150.8321  133.8005  159.3118 H   0  0  0  0  0  0  0  0  0  0  0  0  # atno 6909 bound_to 6896
  144.7134  140.1534  143.6382 H   0  0  0  0  0  0  0  0  0  0  0  0  # atno 7974 bound_to 7965
  154.5335  140.0760  156.8387 H   0  0  0  0  0  0  0  0  0  0  0  0  # atno 8008 bound_to 7997
  155.3325  140.3402  155.4221 H   0  0  0  0  0  0  0  0  0  0  0  0  # atno 8009 bound_to 7997
  156.1805  140.1650  156.8269 H   0  0  0  0  0  0  0  0  0  0  0  0  # atno 8010 bound_to 7997
  140.6810  143.2822  151.3808 H   0  0  0  0  0  0  0  0  0  0  0  0  # atno 10167 bound_to 10162
  156.2010  130.4156  149.9241 H   0  0  0  0  0  0  0  0  0  0  0  0  # atno 10718 bound_to 10713
  153.0457  135.5101  154.7739 H   0  0  0  0  0  0  0  0  0  0  0  0  # atno 10763 bound_to 10752
  154.6641  135.2943  154.9830 H   0  0  0  0  0  0  0  0  0  0  0  0  # atno 10764 bound_to 10752
  154.0671  135.6683  153.4872 H   0  0  0  0  0  0  0  0  0  0  0  0  # atno 10765 bound_to 10752
  141.1638  133.6921  156.7406 H   0  0  0  0  0  0  0  0  0  0  0  0  # atno 11005 bound_to 11000
  145.9096  139.2479  143.1445 LP  0  0  0  0  0  0  0  0  0  0  0  0  # atno 17320 bound_to 7965
  145.9730  140.8745  143.0153 LP  0  0  0  0  0  0  0  0  0  0  0  0  # atno 17321 bound_to 7965
  139.6132  144.1055  152.2320 LP  0  0  0  0  0  0  0  0  0  0  0  0  # atno 17342 bound_to 10162
  140.0476  144.5958  150.7361 LP  0  0  0  0  0  0  0  0  0  0  0  0  # atno 17343 bound_to 10162
  156.6950  130.8911  151.3593 LP  0  0  0  0  0  0  0  0  0  0  0  0  # atno 17370 bound_to 10713
  157.6985  130.9308  150.0716 LP  0  0  0  0  0  0  0  0  0  0  0  0  # atno 17371 bound_to 10713
  140.2677  134.8417  157.3818 LP  0  0  0  0  0  0  0  0  0  0  0  0  # atno 17394 bound_to 11000
  140.1551  134.4800  155.7934 LP  0  0  0  0  0  0  0  0  0  0  0  0  # atno 17395 bound_to 11000

$$$$
