AV-unprocessed.smi:24|AV-procd|sdf|177|dock3
  -GOLD-   2262015433D 1   1.00000     0.00000
 Structure written by MMmdl.
 61 65  0  0  0  0  0  0  0  0  1 V2000
  137.0329  139.9706  154.2688 C   0  0  0  0  0  0  0  0  0  0  0  0
  137.6533  138.9741  155.0680 O   0  0  0  0  0  0  0  0  0  0  0  0
  138.9387  138.5929  154.7475 C   0  0  0  0  0  0  0  0  0  0  0  0
  139.4928  137.5258  155.4829 C   0  0  0  0  0  0  0  0  0  0  0  0
  140.7987  137.0704  155.2218 C   0  0  0  0  0  0  0  0  0  0  0  0
  141.5804  137.6845  154.2189 C   0  0  0  0  0  0  0  0  0  0  0  0
  142.9981  137.2059  153.9080 C   0  0  2  0  0  0  0  0  0  0  0  0
  143.1316  136.7067  152.4667 C   0  0  0  0  0  0  0  0  0  0  0  0
  143.6095  135.3088  152.6748 C   0  0  0  0  0  0  0  0  0  0  0  0
  143.8670  134.3970  151.5383 C   0  0  0  0  0  0  0  0  0  0  0  0
  143.7378  133.0015  151.7243 C   0  0  0  0  0  0  0  0  0  0  0  0
  143.9882  132.1326  150.6443 C   0  0  0  0  0  0  0  0  0  0  0  0
  144.3650  132.6526  149.3902 C   0  0  0  0  0  0  0  0  0  0  0  0
  144.4927  134.0442  149.2098 C   0  0  0  0  0  0  0  0  0  0  0  0
  144.2441  134.9235  150.2821 C   0  0  0  0  0  0  0  0  0  0  0  0
  143.7651  134.9930  153.9069 N   0  0  0  0  0  0  0  0  0  0  0  0
  143.4494  136.0506  154.6956 N   0  0  0  0  0  0  0  0  0  0  0  0
  143.6370  136.0573  156.0341 C   0  0  0  0  0  0  0  0  0  0  0  0
  143.4646  137.0727  156.7108 O   0  0  0  0  0  0  0  0  0  0  0  0
  144.0868  134.7468  156.7141 C   0  0  0  0  0  0  0  0  0  0  0  0
  144.3424  134.8915  158.1642 N   0  0  0  0  0  0  0  0  0  0  0  0
  143.2317  134.9705  159.0396 C   0  0  0  0  0  0  0  0  0  0  0  0
  142.0766  134.9338  158.6125 O   0  0  0  0  0  0  0  0  0  0  0  0
  143.5562  135.0931  160.4550 C   0  0  0  0  0  0  0  0  0  0  0  0
  142.5674  135.1187  161.3647 F   0  0  0  0  0  0  0  0  0  0  0  0
  144.8371  135.1627  160.8711 C   0  0  0  0  0  0  0  0  0  0  0  0
  145.9154  135.1446  160.0014 N   0  0  0  0  0  0  0  0  0  0  0  0
  147.3593  135.1539  160.4823 C   0  0  1  0  0  0  0  0  0  0  0  0
  147.7252  136.3564  161.3620 C   0  0  0  0  0  0  0  0  0  0  0  0
  147.5583  135.8175  162.7804 C   0  0  0  0  0  0  0  0  0  0  0  0
  147.1562  134.3498  162.5976 C   0  0  0  0  0  0  0  0  0  0  0  0
  147.5681  134.0295  161.2757 O   0  0  0  0  0  0  0  0  0  0  0  0
  145.6807  134.9674  158.6188 C   0  0  0  0  0  0  0  0  0  0  0  0
  146.6217  134.8880  157.8260 O   0  0  0  0  0  0  0  0  0  0  0  0
  141.0295  138.7472  153.4747 C   0  0  0  0  0  0  0  0  0  0  0  0
  139.7219  139.2014  153.7351 C   0  0  0  0  0  0  0  0  0  0  0  0
  136.0300  140.1637  154.6496 H   0  0  0  0  0  0  0  0  0  0  0  0
  136.9354  139.6460  153.2321 H   0  0  0  0  0  0  0  0  0  0  0  0
  137.5850  140.9106  154.3034 H   0  0  0  0  0  0  0  0  0  0  0  0
  138.9089  137.0487  156.2563 H   0  0  0  0  0  0  0  0  0  0  0  0
  141.1937  136.2462  155.7973 H   0  0  0  0  0  0  0  0  0  0  0  0
  143.6967  138.0283  154.0746 H   0  0  0  0  0  0  0  0  0  0  0  0
  142.1805  136.7180  151.9323 H   0  0  0  0  0  0  0  0  0  0  0  0
  143.8569  137.2964  151.9049 H   0  0  0  0  0  0  0  0  0  0  0  0
  143.4502  132.5836  152.6783 H   0  0  0  0  0  0  0  0  0  0  0  0
  143.8917  131.0653  150.7783 H   0  0  0  0  0  0  0  0  0  0  0  0
  144.5566  131.9829  148.5647 H   0  0  0  0  0  0  0  0  0  0  0  0
  144.7829  134.4376  148.2467 H   0  0  0  0  0  0  0  0  0  0  0  0
  144.3501  135.9857  150.1188 H   0  0  0  0  0  0  0  0  0  0  0  0
  143.3292  133.9803  156.5423 H   0  0  0  0  0  0  0  0  0  0  0  0
  144.9684  134.3704  156.1927 H   0  0  0  0  0  0  0  0  0  0  0  0
  145.0012  135.2245  161.9350 H   0  0  0  0  0  0  0  0  0  0  0  0
  147.9670  135.1257  159.5765 H   0  0  0  0  0  0  0  0  0  0  0  0
  148.7736  136.5986  161.1853 H   0  0  0  0  0  0  0  0  0  0  0  0
  147.1391  137.2450  161.1292 H   0  0  0  0  0  0  0  0  0  0  0  0
  148.5017  135.8929  163.3220 H   0  0  0  0  0  0  0  0  0  0  0  0
  146.8059  136.3679  163.3456 H   0  0  0  0  0  0  0  0  0  0  0  0
  147.6277  133.6935  163.3291 H   0  0  0  0  0  0  0  0  0  0  0  0
  146.0759  134.2277  162.6854 H   0  0  0  0  0  0  0  0  0  0  0  0
  141.6112  139.2219  152.6982 H   0  0  0  0  0  0  0  0  0  0  0  0
  139.3424  140.0195  153.1426 H   0  0  0  0  0  0  0  0  0  0  0  0
  1  2  1  0  0  0  0
  1 37  1  0  0  0  0
  1 38  1  0  0  0  0
  1 39  1  0  0  0  0
  2  3  1  0  0  0  0
  3 36  1  0  0  0  0
  3  4  2  0  0  0  0
  4  5  1  0  0  0  0
  4 40  1  0  0  0  0
  5  6  2  0  0  0  0
  5 41  1  0  0  0  0
  6  7  1  0  0  0  0
  6 35  1  0  0  0  0
  7 17  1  0  0  0  0
  7  8  1  0  0  0  0
  7 42  1  0  0  0  0
  8  9  1  0  0  0  0
  8 43  1  0  0  0  0
  8 44  1  0  0  0  0
  9 10  1  0  0  0  0
  9 16  2  0  0  0  0
 10 15  1  0  0  0  0
 10 11  2  0  0  0  0
 11 12  1  0  0  0  0
 11 45  1  0  0  0  0
 12 13  2  0  0  0  0
 12 46  1  0  0  0  0
 13 14  1  0  0  0  0
 13 47  1  0  0  0  0
 14 15  2  0  0  0  0
 14 48  1  0  0  0  0
 15 49  1  0  0  0  0
 16 17  1  0  0  0  0
 17 18  1  0  0  0  0
 18 19  2  0  0  0  0
 18 20  1  0  0  0  0
 20 21  1  0  0  0  0
 20 50  1  0  0  0  0
 20 51  1  0  0  0  0
 21 33  1  0  0  0  0
 21 22  1  0  0  0  0
 22 23  2  0  0  0  0
 22 24  1  0  0  0  0
 24 25  1  0  0  0  0
 24 26  2  0  0  0  0
 26 27  1  0  0  0  0
 26 52  1  0  0  0  0
 27 28  1  0  0  0  0
 27 33  1  0  0  0  0
 28 32  1  0  0  0  0
 28 29  1  0  0  0  0
 28 53  1  0  0  0  0
 29 30  1  0  0  0  0
 29 54  1  0  0  0  0
 29 55  1  0  0  0  0
 30 31  1  0  0  0  0
 30 56  1  0  0  0  0
 30 57  1  0  0  0  0
 31 32  1  0  0  0  0
 31 58  1  0  0  0  0
 31 59  1  0  0  0  0
 33 34  2  0  0  0  0
 35 36  2  0  0  0  0
 35 60  1  0  0  0  0
 36 61  1  0  0  0  0
M  END
> <s_m_source_file>
AV-unprocessed.smi

> <i_m_source_file_index>
24

> <i_lp_mmshare_version>
43012

> <i_f3d_flags>
0

> <s_epik_input>
W0NIM11PYzFbY0hdW2NIXWMoW2NIXVtjSF0xKVtDQEBIXTJbQ0gyXUMoYzNbY0hdW2NIXVtjSF1bY0hdW2NIXTMpPU5OMkMoPU8pW0NIMl1uNGMoPU8pYyhGKVtjSF1uKGM0PU8pW0NAQEhdNVtDSDJdW0NIMl1bQ0gyXU81

> <s_epik_cmdline>
J2VwaWtfcHl0aG9uJywgJy1waCcsICc3LjAnLCAnLXRuJywgJzgnLCAnLW1hJywgJzIwMCcsICctbWV0YWxfYmluZGluZycsICctaW1hZScsICc8aW5maWxlLm1hZT4nLCAnLW9tYWUnLCAnPG91dGZpbGUubWFlPic=

> <r_lp_tautomer_probability>
1

> <r_epik_Ionization_Penalty>
1.46326e-08

> <r_epik_Ionization_Penalty_Charging>
4.53232e-09

> <r_epik_Ionization_Penalty_Neutral>
1.01002e-08

> <r_epik_State_Penalty>
-0

> <r_epik_Charging_Adjusted_Penalty>
4.53232e-09

> <i_epik_Tot_Q>
0

> <i_epik_Tot_abs_Q>
0

> <r_epik_Metal_State_Penalty>
-0

> <b_epik_Metal_Only>
0

> <s_epik_Chemistry_Notes>
This compound has an imine and may undergo hydrolysis. This compound contains an acetal/aminal-like group ( X-CH(R)-Y where X, Y are N, S, or O) that may be acid/base labile, releasing an aldehyde.

> <s_lp_Force_Field>
OPLS_2005

> <r_lp_Energy>
47.9394

> <b_lp_Chiralities_Consistent>
1

> <s_lp_Variant>
AV-unprocessed.smi:24-3

> <Gold.Version>
5.8.1

> <Gold.Id.Protein>
6NUR|6NUR_protein|mol2

> <Gold.PLP.Fitness>
46.0942

> <Gold.PLP.PLP>
-44.2124

> <Gold.PLP.part.hbond>
-1.0000

> <Gold.PLP.part.metal>
0.0000

> <Gold.PLP.part.buried>
-1.8445

> <Gold.PLP.part.nonpolar>
-41.5374

> <Gold.PLP.part.repulsive>
0.0800

> <Gold.PLP.ligand.clash>
0.0000

> <Gold.PLP.ligand.torsion>
0.6614

> <Gold.PLP.Chemscore.Hbond>
1.0000

> <Gold.PLP.Chemscore.CHOScore>
0.0000

> <Gold.PLP.Chemscore.Metal>
0.0000

> <Gold.Chemscore.Hbonds>
donor molecule, donor type, donor heavy atom, donor atom, acceptor molecule, acceptor atom, score
      P1  H 11000 11005       L1    23  1.00

> <Gold.PLP.Chemscore.Internal.Correction>
0.2045

> <Gold.Rescore>
     Score         DG    S(hbond)    S(metal)    S(lipo)     H(rot)  DE(clash)    DE(int)     intcor
     15.53     -18.84       0.98        0.00     129.26       1.98       1.47       1.83       ----

> <Gold.Chemscore.Fitness>
15.5342

> <Gold.Chemscore.DG>
-18.8368

> <Gold.Chemscore.ZeroCoef>
-5.4800

> <Gold.Chemscore.Hbond>
0.9848

> <Gold.Chemscore.Metal>
0.0000

> <Gold.Chemscore.Lipo>
129.2625

> <Gold.Chemscore.Internal_Hbond>
0.0000

> <Gold.Chemscore.DEClash>
1.4695

> <Gold.Chemscore.DEInternal>
1.8330

> <Gold.Chemscore.Rot>
1.9750

> <Gold.Chemscore.Internal.Correction>
   9.000000E+99

> <Gold.Chemscore.Hbonds>
donor molecule, donor type, donor heavy atom, donor atom, acceptor molecule, acceptor atom, score
      P1  H 11000 11005       L1    23  0.95

> <Gold.Chemscore.Hbond.Weighted>
-3.2891

> <Gold.Chemscore.Metal.Weighted>
-0.0000

> <Gold.Chemscore.Lipo.Weighted>
-15.1237

> <Gold.Chemscore.Internal_Hbond.Weighted>
0.0000

> <Gold.Chemscore.DEClash.Weighted>
1.4695

> <Gold.Chemscore.DEInternal.Weighted>
1.8330

> <Gold.Chemscore.Rot.Weighted>
5.0561

> <Gold.Chemscore.Internal.Correction.Weighted>
   9.000000E+99

> <Gold.Protein.RotatedTorsions>
[ 6907 6896 6895 6894 ] final  168.83 input  -60.11 | X-H torsion
[ 7974 7965 7964 7962 ] final   28.38 input  175.53 | X-H torsion
[ 8008 7997 7996 7995 ] final -148.43 input   59.86 | X-H torsion
[ 10167 10162 10161 10158 ] final   13.86 input  -65.29 | X-H torsion
[ 10718 10713 10712 10709 ] final   71.13 input   66.30 | X-H torsion
[ 10763 10752 10751 10750 ] final -150.60 input  -60.55 | X-H torsion
[ 11005 11000 10999 10996 ] final -158.91 input  -57.11 | X-H torsion

> <Gold.Protein.ActiveResidues>
 VAL166  LYS551  ARG553  GLY616  TRP617  ASP618  TYR619  PRO620  LYS621  CYS622 
 ASP623  PHE694  ASN695  SER759  ASP760  ASP761  ALA762  ILE779  LEU786  VAL792 
 PHE793  MET794  SER795  GLU796  ALA797  LYS798  CYS799  TRP800  GLU811  SER814 

> <Gold.Protein.RotatedAtoms>
  151.8415  133.3424  159.3644 H   0  0  0  0  0  0  0  0  0  0  0  0  # atno 6907 bound_to 6896
  150.7233  134.5387  159.5746 H   0  0  0  0  0  0  0  0  0  0  0  0  # atno 6908 bound_to 6896
  152.2861  134.7774  160.0438 H   0  0  0  0  0  0  0  0  0  0  0  0  # atno 6909 bound_to 6896
  146.1732  139.7064  142.8953 H   0  0  0  0  0  0  0  0  0  0  0  0  # atno 7974 bound_to 7965
  155.5915  140.0653  157.2757 H   0  0  0  0  0  0  0  0  0  0  0  0  # atno 8008 bound_to 7997
  154.4304  140.1834  156.1126 H   0  0  0  0  0  0  0  0  0  0  0  0  # atno 8009 bound_to 7997
  156.0229  140.3315  155.7061 H   0  0  0  0  0  0  0  0  0  0  0  0  # atno 8010 bound_to 7997
  140.5974  143.8673  150.6932 H   0  0  0  0  0  0  0  0  0  0  0  0  # atno 10167 bound_to 10162
  157.6436  130.9512  150.0746 H   0  0  0  0  0  0  0  0  0  0  0  0  # atno 10718 bound_to 10713
  154.8109  135.3280  154.7308 H   0  0  0  0  0  0  0  0  0  0  0  0  # atno 10763 bound_to 10752
  153.7957  135.6907  153.4868 H   0  0  0  0  0  0  0  0  0  0  0  0  # atno 10764 bound_to 10752
  153.1887  135.4559  155.0067 H   0  0  0  0  0  0  0  0  0  0  0  0  # atno 10765 bound_to 10752
  140.6484  134.4477  157.5234 H   0  0  0  0  0  0  0  0  0  0  0  0  # atno 11005 bound_to 11000
  145.4283  141.0413  143.2925 LP  0  0  0  0  0  0  0  0  0  0  0  0  # atno 17320 bound_to 7965
  144.8195  139.5816  143.6993 LP  0  0  0  0  0  0  0  0  0  0  0  0  # atno 17321 bound_to 7965
  140.2211  143.3808  152.1642 LP  0  0  0  0  0  0  0  0  0  0  0  0  # atno 17342 bound_to 10162
  139.5268  144.7111  151.5202 LP  0  0  0  0  0  0  0  0  0  0  0  0  # atno 17343 bound_to 10162
  156.1740  130.3647  149.9126 LP  0  0  0  0  0  0  0  0  0  0  0  0  # atno 17370 bound_to 10713
  156.7094  130.8964  151.3608 LP  0  0  0  0  0  0  0  0  0  0  0  0  # atno 17371 bound_to 10713
  139.9055  134.8460  156.1725 LP  0  0  0  0  0  0  0  0  0  0  0  0  # atno 17394 bound_to 11000
  141.0555  133.6867  156.1852 LP  0  0  0  0  0  0  0  0  0  0  0  0  # atno 17395 bound_to 11000

$$$$
