AV-unprocessed.smi:148|AV-procd|sdf|1205|dock1
  -GOLD-   2262018373D 1   1.00000     0.00000
 Structure written by MMmdl.
 63 67  0  0  0  0  0  0  0  0  1 V2000
  148.4568  139.5147  152.9540 O   0  0  0  0  0  0  0  0  0  0  0  0
  147.3357  140.2460  153.4047 C   0  0  0  0  0  0  0  0  0  0  0  0
  147.4770  140.5945  154.9052 C   0  0  1  0  0  0  0  0  0  0  0  0
  148.5546  141.6905  155.1048 C   0  0  0  0  0  0  0  0  0  0  0  0
  149.3800  141.4852  156.2821 N   0  0  0  0  0  0  0  0  0  0  0  0
  149.0843  141.8605  157.5738 C   0  0  0  0  0  0  0  0  0  0  0  0
  149.9909  141.5571  158.4623 N   0  0  0  0  0  0  0  0  0  0  0  0
  150.9896  140.9352  157.7241 C   0  0  0  0  0  0  0  0  0  0  0  0
  152.2489  140.3672  158.0512 C   0  0  0  0  0  0  0  0  0  0  0  0
  152.7090  140.3354  159.3249 N   0  0  0  0  0  0  0  0  0  0  0  0
  153.5531  139.1500  159.4896 C   0  0  0  0  0  0  0  0  0  0  0  0
  153.9418  138.9252  160.9556 C   0  0  0  0  0  0  0  0  0  0  0  0
  154.6063  140.1815  161.5246 C   0  0  0  0  0  0  0  0  0  0  0  0
  153.6599  141.3766  161.3640 C   0  0  0  0  0  0  0  0  0  0  0  0
  153.2454  141.5928  159.8839 C   0  0  2  0  0  0  0  0  0  0  0  0
  152.2855  142.8144  159.6967 C   0  0  2  0  0  0  0  0  0  0  0  0
  152.7040  143.7960  158.5886 C   0  0  0  0  0  0  0  0  0  0  0  0
  152.0633  145.1477  158.9448 C   0  0  0  0  0  0  0  0  0  0  0  0
  151.3796  144.9595  160.3041 C   0  0  0  0  0  0  0  0  0  0  0  0
  152.0458  143.7250  160.9128 C   0  0  1  0  0  0  0  0  0  0  0  0
  151.2168  143.1319  161.8901 O   0  0  0  0  0  0  0  0  0  0  0  0
  152.9765  139.8137  157.0439 N   0  0  0  0  0  0  0  0  0  0  0  0
  152.5108  139.8395  155.7914 C   0  0  0  0  0  0  0  0  0  0  0  0
  151.3627  140.3477  155.3376 N   0  0  0  0  0  0  0  0  0  0  0  0
  150.6248  140.8861  156.3506 C   0  0  0  0  0  0  0  0  0  0  0  0
  146.1266  140.9497  155.5892 C   0  0  2  0  0  0  0  0  0  0  0  0
  145.0937  139.8227  155.6498 C   0  0  0  0  0  0  0  0  0  0  0  0
  143.7987  140.4751  155.1643 C   0  0  0  0  0  0  0  0  0  0  0  0
  144.0137  141.8645  155.3542 O   0  0  0  0  0  0  0  0  0  0  0  0
  145.3540  142.1218  154.9728 C   0  0  0  0  0  0  0  0  0  0  0  0
  148.5535  139.6545  152.0244 H   0  0  0  0  0  0  0  0  0  0  0  0
  147.2396  141.1462  152.7976 H   0  0  0  0  0  0  0  0  0  0  0  0
  146.4520  139.6395  153.2127 H   0  0  0  0  0  0  0  0  0  0  0  0
  147.8343  139.6947  155.4085 H   0  0  0  0  0  0  0  0  0  0  0  0
  149.2179  141.7367  154.2404 H   0  0  0  0  0  0  0  0  0  0  0  0
  148.0823  142.6707  155.1826 H   0  0  0  0  0  0  0  0  0  0  0  0
  148.1655  142.3621  157.8407 H   0  0  0  0  0  0  0  0  0  0  0  0
  153.0346  138.2645  159.1180 H   0  0  0  0  0  0  0  0  0  0  0  0
  154.4547  139.2651  158.8854 H   0  0  0  0  0  0  0  0  0  0  0  0
  153.0529  138.6791  161.5382 H   0  0  0  0  0  0  0  0  0  0  0  0
  154.6157  138.0722  161.0371 H   0  0  0  0  0  0  0  0  0  0  0  0
  154.8513  140.0330  162.5766 H   0  0  0  0  0  0  0  0  0  0  0  0
  155.5457  140.3768  161.0060 H   0  0  0  0  0  0  0  0  0  0  0  0
  152.7813  141.1904  161.9805 H   0  0  0  0  0  0  0  0  0  0  0  0
  154.1415  142.2637  161.7718 H   0  0  0  0  0  0  0  0  0  0  0  0
  154.1572  141.8128  159.3263 H   0  0  0  0  0  0  0  0  0  0  0  0
  151.3061  142.4564  159.3787 H   0  0  0  0  0  0  0  0  0  0  0  0
  153.7850  143.9186  158.5434 H   0  0  0  0  0  0  0  0  0  0  0  0
  152.3844  143.4429  157.6074 H   0  0  0  0  0  0  0  0  0  0  0  0
  152.8333  145.9175  159.0101 H   0  0  0  0  0  0  0  0  0  0  0  0
  151.3468  145.4672  158.1871 H   0  0  0  0  0  0  0  0  0  0  0  0
  151.4646  145.8397  160.9421 H   0  0  0  0  0  0  0  0  0  0  0  0
  150.3166  144.7702  160.1447 H   0  0  0  0  0  0  0  0  0  0  0  0
  152.9840  144.0309  161.3739 H   0  0  0  0  0  0  0  0  0  0  0  0
  150.9602  143.7964  162.5110 H   0  0  0  0  0  0  0  0  0  0  0  0
  153.1473  139.3852  155.0463 H   0  0  0  0  0  0  0  0  0  0  0  0
  146.3199  141.2121  156.6298 H   0  0  0  0  0  0  0  0  0  0  0  0
  145.3495  138.9501  155.0497 H   0  0  0  0  0  0  0  0  0  0  0  0
  144.9828  139.4793  156.6792 H   0  0  0  0  0  0  0  0  0  0  0  0
  143.6429  140.2770  154.1027 H   0  0  0  0  0  0  0  0  0  0  0  0
  142.9212  140.1261  155.7092 H   0  0  0  0  0  0  0  0  0  0  0  0
  145.6961  143.0891  155.3414 H   0  0  0  0  0  0  0  0  0  0  0  0
  145.4130  142.1322  153.8844 H   0  0  0  0  0  0  0  0  0  0  0  0
  1  2  1  0  0  0  0
  1 31  1  0  0  0  0
  2  3  1  0  0  0  0
  2 32  1  0  0  0  0
  2 33  1  0  0  0  0
  3  4  1  0  0  0  0
  3 26  1  0  0  0  0
  3 34  1  0  0  0  0
  4  5  1  0  0  0  0
  4 35  1  0  0  0  0
  4 36  1  0  0  0  0
  5 25  1  0  0  0  0
  5  6  1  0  0  0  0
  6  7  2  0  0  0  0
  6 37  1  0  0  0  0
  7  8  1  0  0  0  0
  8 25  2  0  0  0  0
  8  9  1  0  0  0  0
  9 10  1  0  0  0  0
  9 22  2  0  0  0  0
 10 15  1  0  0  0  0
 10 11  1  0  0  0  0
 11 12  1  0  0  0  0
 11 38  1  0  0  0  0
 11 39  1  0  0  0  0
 12 13  1  0  0  0  0
 12 40  1  0  0  0  0
 12 41  1  0  0  0  0
 13 14  1  0  0  0  0
 13 42  1  0  0  0  0
 13 43  1  0  0  0  0
 14 15  1  0  0  0  0
 14 44  1  0  0  0  0
 14 45  1  0  0  0  0
 15 16  1  0  0  0  0
 15 46  1  0  0  0  0
 16 20  1  0  0  0  0
 16 17  1  0  0  0  0
 16 47  1  0  0  0  0
 17 18  1  0  0  0  0
 17 48  1  0  0  0  0
 17 49  1  0  0  0  0
 18 19  1  0  0  0  0
 18 50  1  0  0  0  0
 18 51  1  0  0  0  0
 19 20  1  0  0  0  0
 19 52  1  0  0  0  0
 19 53  1  0  0  0  0
 20 21  1  0  0  0  0
 20 54  1  0  0  0  0
 21 55  1  0  0  0  0
 22 23  1  0  0  0  0
 23 24  2  0  0  0  0
 23 56  1  0  0  0  0
 24 25  1  0  0  0  0
 26 30  1  0  0  0  0
 26 27  1  0  0  0  0
 26 57  1  0  0  0  0
 27 28  1  0  0  0  0
 27 58  1  0  0  0  0
 27 59  1  0  0  0  0
 28 29  1  0  0  0  0
 28 60  1  0  0  0  0
 28 61  1  0  0  0  0
 29 30  1  0  0  0  0
 30 62  1  0  0  0  0
 30 63  1  0  0  0  0
M  END
> <s_m_source_file>
AV-unprocessed.smi

> <i_m_source_file_index>
148

> <i_lp_mmshare_version>
43012

> <i_f3d_flags>
0

> <s_epik_input>
W0NIMl0xT1tDSDJdW0NIMl1bQ0BIXTFbQ0BIXShbQ0gyXVtPSF0pW0NIMl1uKFtjSF1uMiljKGMyMyluW2NIXW5jM040W0NIMl1bQ0gyXVtDSDJdW0NIMl1bQ0BIXTRbQ0BASF01W0NIMl1bQ0gyXVtDSDJdW0NASF01W09IXQ==

> <s_epik_cmdline>
J2VwaWtfcHl0aG9uJywgJy1waCcsICc3LjAnLCAnLXRuJywgJzgnLCAnLW1hJywgJzIwMCcsICctbWV0YWxfYmluZGluZycsICctaW1hZScsICc8aW5maWxlLm1hZT4nLCAnLW9tYWUnLCAnPG91dGZpbGUubWFlPic=

> <r_lp_tautomer_probability>
1

> <r_epik_Ionization_Penalty>
0.00556303

> <r_epik_Ionization_Penalty_Charging>
0

> <r_epik_Ionization_Penalty_Neutral>
0.00556303

> <r_epik_State_Penalty>
0.00401767

> <r_epik_Charging_Adjusted_Penalty>
0.00401767

> <i_epik_Tot_Q>
0

> <i_epik_Tot_abs_Q>
0

> <r_epik_Metal_State_Penalty>
-0

> <b_epik_Metal_Only>
0

> <s_lp_Force_Field>
OPLS_2005

> <r_lp_Energy>
67.6364

> <b_lp_Chiralities_Consistent>
1

> <s_lp_Variant>
AV-unprocessed.smi:148-4

> <Gold.Version>
5.8.1

> <Gold.Id.Protein>
6NUR|6NUR_protein|mol2

> <Gold.PLP.Fitness>
61.3989

> <Gold.PLP.PLP>
-56.4361

> <Gold.PLP.part.hbond>
-5.2251

> <Gold.PLP.part.metal>
0.0000

> <Gold.PLP.part.buried>
-4.8995

> <Gold.PLP.part.nonpolar>
-46.3696

> <Gold.PLP.part.repulsive>
0.1839

> <Gold.PLP.ligand.clash>
0.0000

> <Gold.PLP.ligand.torsion>
2.9138

> <Gold.PLP.Chemscore.Hbond>
3.2880

> <Gold.PLP.Chemscore.CHOScore>
0.0000

> <Gold.PLP.Chemscore.Metal>
0.0000

> <Gold.Chemscore.Hbonds>
donor molecule, donor type, donor heavy atom, donor atom, acceptor molecule, acceptor atom, score
      L1  H     1    31       P1  7957  0.51
      P1  H  6933  6945       L1    21  0.58
      P1  H  7989  7998       L1    24  0.96
      P1  H  7997  8010       L1    22  0.80

> <Gold.PLP.Chemscore.Internal.Correction>
0.9264

> <Gold.Rescore>
     Score         DG    S(hbond)    S(metal)    S(lipo)     H(rot)  DE(clash)    DE(int)     intcor
     13.00     -17.10       1.58        0.00     126.73       3.32       0.33       3.76       ----

> <Gold.Chemscore.Fitness>
13.0034

> <Gold.Chemscore.DG>
-17.0953

> <Gold.Chemscore.ZeroCoef>
-5.4800

> <Gold.Chemscore.Hbond>
1.5831

> <Gold.Chemscore.Metal>
0.0000

> <Gold.Chemscore.Lipo>
126.7338

> <Gold.Chemscore.Internal_Hbond>
0.0000

> <Gold.Chemscore.DEClash>
0.3303

> <Gold.Chemscore.DEInternal>
3.7616

> <Gold.Chemscore.Rot>
3.3203

> <Gold.Chemscore.Internal.Correction>
   9.000000E+99

> <Gold.Chemscore.Hbonds>
donor molecule, donor type, donor heavy atom, donor atom, acceptor molecule, acceptor atom, score
      L1  H     1    31       P1  7957  0.49
      P1  H  6933  6945       L1    21  0.20
      P1  H  7989  7998       L1    24  0.55
      P1  H  7997  8010       L1    22  0.16

> <Gold.Chemscore.Hbond.Weighted>
-5.2874

> <Gold.Chemscore.Metal.Weighted>
-0.0000

> <Gold.Chemscore.Lipo.Weighted>
-14.8279

> <Gold.Chemscore.Internal_Hbond.Weighted>
0.0000

> <Gold.Chemscore.DEClash.Weighted>
0.3303

> <Gold.Chemscore.DEInternal.Weighted>
3.7616

> <Gold.Chemscore.Rot.Weighted>
8.5000

> <Gold.Chemscore.Internal.Correction.Weighted>
   9.000000E+99

> <Gold.Protein.RotatedTorsions>
[ 6907 6896 6895 6894 ] final  169.45 input  -60.11 | X-H torsion
[ 7974 7965 7964 7962 ] final   69.71 input  175.53 | X-H torsion
[ 8008 7997 7996 7995 ] final   53.50 input   59.86 | X-H torsion
[ 10167 10162 10161 10158 ] final  -44.16 input  -65.29 | X-H torsion
[ 10718 10713 10712 10709 ] final   66.34 input   66.30 | X-H torsion
[ 10763 10752 10751 10750 ] final  -74.42 input  -60.55 | X-H torsion
[ 11005 11000 10999 10996 ] final  -34.46 input  -57.11 | X-H torsion

> <Gold.Protein.ActiveResidues>
 VAL166  LYS551  ARG553  GLY616  TRP617  ASP618  TYR619  PRO620  LYS621  CYS622 
 ASP623  PHE694  ASN695  SER759  ASP760  ASP761  ALA762  ILE779  LEU786  VAL792 
 PHE793  MET794  SER795  GLU796  ALA797  LYS798  CYS799  TRP800  GLU811  SER814 

> <Gold.Protein.RotatedAtoms>
  151.8317  133.3409  159.3615 H   0  0  0  0  0  0  0  0  0  0  0  0  # atno 6907 bound_to 6896
  150.7262  134.5476  159.5788 H   0  0  0  0  0  0  0  0  0  0  0  0  # atno 6908 bound_to 6896
  152.2930  134.7700  160.0425 H   0  0  0  0  0  0  0  0  0  0  0  0  # atno 6909 bound_to 6896
  145.7871  139.2916  143.1232 H   0  0  0  0  0  0  0  0  0  0  0  0  # atno 7974 bound_to 7965
  155.4693  140.3464  155.4323 H   0  0  0  0  0  0  0  0  0  0  0  0  # atno 8008 bound_to 7997
  156.1111  140.1461  156.9366 H   0  0  0  0  0  0  0  0  0  0  0  0  # atno 8009 bound_to 7997
  154.4757  140.0886  156.7234 H   0  0  0  0  0  0  0  0  0  0  0  0  # atno 8010 bound_to 7997
  140.6907  143.2945  151.3455 H   0  0  0  0  0  0  0  0  0  0  0  0  # atno 10167 bound_to 10162
  157.6163  130.9263  150.0096 H   0  0  0  0  0  0  0  0  0  0  0  0  # atno 10718 bound_to 10713
  154.4728  135.5865  153.6334 H   0  0  0  0  0  0  0  0  0  0  0  0  # atno 10763 bound_to 10752
  152.9837  135.6071  154.3344 H   0  0  0  0  0  0  0  0  0  0  0  0  # atno 10764 bound_to 10752
  154.3228  135.2843  155.2490 H   0  0  0  0  0  0  0  0  0  0  0  0  # atno 10765 bound_to 10752
  140.9718  133.7105  156.1536 H   0  0  0  0  0  0  0  0  0  0  0  0  # atno 11005 bound_to 11000
  146.0015  140.8516  143.0016 LP  0  0  0  0  0  0  0  0  0  0  0  0  # atno 17320 bound_to 7965
  144.6787  140.2358  143.7350 LP  0  0  0  0  0  0  0  0  0  0  0  0  # atno 17321 bound_to 7965
  139.6307  144.0726  152.2474 LP  0  0  0  0  0  0  0  0  0  0  0  0  # atno 17342 bound_to 10162
  140.0199  144.6160  150.7575 LP  0  0  0  0  0  0  0  0  0  0  0  0  # atno 17343 bound_to 10162
  156.1287  130.3644  149.9767 LP  0  0  0  0  0  0  0  0  0  0  0  0  # atno 17370 bound_to 10713
  156.7833  130.9229  151.3646 LP  0  0  0  0  0  0  0  0  0  0  0  0  # atno 17371 bound_to 10713
  140.7317  134.4247  157.5565 LP  0  0  0  0  0  0  0  0  0  0  0  0  # atno 17394 bound_to 11000
  139.8915  134.8778  156.2316 LP  0  0  0  0  0  0  0  0  0  0  0  0  # atno 17395 bound_to 11000

$$$$
