AV-unprocessed.smi:34|AV-procd|sdf|227|dock10
  -GOLD-   2262015553D 1   1.00000     0.00000
 Structure written by MMmdl.
 55 59  0  0  0  0  0  0  0  0  1 V2000
  153.9198  140.9800  159.1138 O   0  0  0  0  0  0  0  0  0  0  0  0
  152.8949  141.3897  158.5675 C   0  0  0  0  0  0  0  0  0  0  0  0
  152.2589  140.6688  157.4792 N   0  0  0  0  0  0  0  0  0  0  0  0
  152.5893  139.4560  156.9773 C   0  0  0  0  0  0  0  0  0  0  0  0
  153.8641  138.9842  156.9935 N   0  0  0  0  0  0  0  0  0  0  0  0
  154.1417  137.7764  156.4934 C   0  0  0  0  0  0  0  0  0  0  0  0
  153.3094  136.8896  155.9432 N   0  0  0  0  0  0  0  0  0  0  0  0
  152.0268  137.3552  155.9302 C   0  0  0  0  0  0  0  0  0  0  0  0
  151.5891  138.6150  156.4237 C   0  0  0  0  0  0  0  0  0  0  0  0
  150.2181  138.7395  156.2399 N   0  0  0  0  0  0  0  0  0  0  0  0
  149.8717  137.6161  155.6703 C   0  0  0  0  0  0  0  0  0  0  0  0
  150.8994  136.7213  155.4548 N   0  0  0  0  0  0  0  0  0  0  0  0
  150.8623  135.3576  154.8314 C   0  0  2  0  0  0  0  0  0  0  0  0
  149.5948  135.1766  154.2691 O   0  0  0  0  0  0  0  0  0  0  0  0
  148.8142  134.2550  155.0366 C   0  0  1  0  0  0  0  0  0  0  0  0
  148.6220  132.9886  154.1896 C   0  0  0  0  0  0  0  0  0  0  0  0
  147.5848  133.2059  153.2467 O   0  0  0  0  0  0  0  0  0  0  0  0
  147.0208  132.1630  152.6070 C   0  0  0  0  0  0  0  0  0  0  0  0
  147.4249  131.0025  152.7046 O   0  0  0  0  0  0  0  0  0  0  0  0
  145.8493  132.5598  151.7735 C   0  0  0  0  0  0  0  0  0  0  0  0
  145.2069  131.5867  150.9728 C   0  0  0  0  0  0  0  0  0  0  0  0
  144.0965  131.9309  150.1777 C   0  0  0  0  0  0  0  0  0  0  0  0
  143.6152  133.2530  150.1731 C   0  0  0  0  0  0  0  0  0  0  0  0
  144.2456  134.2305  150.9647 C   0  0  0  0  0  0  0  0  0  0  0  0
  145.3558  133.8880  151.7611 C   0  0  0  0  0  0  0  0  0  0  0  0
  149.6065  134.0020  156.3253 C   0  0  2  0  0  0  0  0  0  0  0  0
  149.2247  134.8947  157.2413 F   0  0  0  0  0  0  0  0  0  0  0  0
  151.0362  134.2433  155.8747 C   0  0  2  0  0  0  0  0  0  0  0  0
  151.9038  134.5374  156.9540 O   0  0  0  0  0  0  0  0  0  0  0  0
  152.2863  142.7144  158.9251 C   0  0  0  0  0  0  0  0  0  0  0  0
  152.5640  143.3045  160.1788 C   0  0  0  0  0  0  0  0  0  0  0  0
  151.9832  144.5388  160.5302 C   0  0  0  0  0  0  0  0  0  0  0  0
  151.1136  145.1891  159.6346 C   0  0  0  0  0  0  0  0  0  0  0  0
  150.8219  144.6026  158.3885 C   0  0  0  0  0  0  0  0  0  0  0  0
  151.4028  143.3685  158.0356 C   0  0  0  0  0  0  0  0  0  0  0  0
  151.4674  141.1247  157.0497 H   0  0  0  0  0  0  0  0  0  0  0  0
  155.1788  137.4786  156.5427 H   0  0  0  0  0  0  0  0  0  0  0  0
  148.8477  137.4110  155.3936 H   0  0  0  0  0  0  0  0  0  0  0  0
  151.6414  135.3817  154.0687 H   0  0  0  0  0  0  0  0  0  0  0  0
  147.8402  134.6962  155.2525 H   0  0  0  0  0  0  0  0  0  0  0  0
  149.5424  132.7517  153.6546 H   0  0  0  0  0  0  0  0  0  0  0  0
  148.3894  132.1377  154.8315 H   0  0  0  0  0  0  0  0  0  0  0  0
  145.5578  130.5646  150.9612 H   0  0  0  0  0  0  0  0  0  0  0  0
  143.6135  131.1794  149.5709 H   0  0  0  0  0  0  0  0  0  0  0  0
  142.7639  133.5171  149.5631 H   0  0  0  0  0  0  0  0  0  0  0  0
  143.8773  135.2457  150.9617 H   0  0  0  0  0  0  0  0  0  0  0  0
  145.8160  134.6631  152.3561 H   0  0  0  0  0  0  0  0  0  0  0  0
  149.4496  133.0124  156.7556 H   0  0  0  0  0  0  0  0  0  0  0  0
  151.4079  133.3602  155.3537 H   0  0  0  0  0  0  0  0  0  0  0  0
  152.7551  134.7536  156.6048 H   0  0  0  0  0  0  0  0  0  0  0  0
  153.2282  142.8172  160.8780 H   0  0  0  0  0  0  0  0  0  0  0  0
  152.2045  144.9856  161.4882 H   0  0  0  0  0  0  0  0  0  0  0  0
  150.6676  146.1350  159.9046 H   0  0  0  0  0  0  0  0  0  0  0  0
  150.1495  145.0981  157.7037 H   0  0  0  0  0  0  0  0  0  0  0  0
  151.1581  142.9314  157.0783 H   0  0  0  0  0  0  0  0  0  0  0  0
  1  2  2  0  0  0  0
  2  3  1  0  0  0  0
  2 30  1  0  0  0  0
  3  4  1  0  0  0  0
  3 36  1  0  0  0  0
  4  9  1  0  0  0  0
  4  5  2  0  0  0  0
  5  6  1  0  0  0  0
  6  7  2  0  0  0  0
  6 37  1  0  0  0  0
  7  8  1  0  0  0  0
  8 12  1  0  0  0  0
  8  9  2  0  0  0  0
  9 10  1  0  0  0  0
 10 11  2  0  0  0  0
 11 12  1  0  0  0  0
 11 38  1  0  0  0  0
 12 13  1  0  0  0  0
 13 28  1  0  0  0  0
 13 14  1  0  0  0  0
 13 39  1  0  0  0  0
 14 15  1  0  0  0  0
 15 16  1  0  0  0  0
 15 26  1  0  0  0  0
 15 40  1  0  0  0  0
 16 17  1  0  0  0  0
 16 41  1  0  0  0  0
 16 42  1  0  0  0  0
 17 18  1  0  0  0  0
 18 19  2  0  0  0  0
 18 20  1  0  0  0  0
 20 25  1  0  0  0  0
 20 21  2  0  0  0  0
 21 22  1  0  0  0  0
 21 43  1  0  0  0  0
 22 23  2  0  0  0  0
 22 44  1  0  0  0  0
 23 24  1  0  0  0  0
 23 45  1  0  0  0  0
 24 25  2  0  0  0  0
 24 46  1  0  0  0  0
 25 47  1  0  0  0  0
 26 27  1  0  0  0  0
 26 28  1  0  0  0  0
 26 48  1  0  0  0  0
 28 29  1  0  0  0  0
 28 49  1  0  0  0  0
 29 50  1  0  0  0  0
 30 35  1  0  0  0  0
 30 31  2  0  0  0  0
 31 32  1  0  0  0  0
 31 51  1  0  0  0  0
 32 33  2  0  0  0  0
 32 52  1  0  0  0  0
 33 34  1  0  0  0  0
 33 53  1  0  0  0  0
 34 35  2  0  0  0  0
 34 54  1  0  0  0  0
 35 55  1  0  0  0  0
M  END
> <s_m_source_file>
AV-unprocessed.smi

> <i_m_source_file_index>
34

> <i_lp_mmshare_version>
43012

> <i_f3d_flags>
0

> <s_epik_input>
W2NIXTFbY0hdW2NIXVtjSF1bY0hdYzFDKD1PKVtOSF1jKG5bY0hdbjIpYyhjMjMpbltjSF1uM1tDQEBIXTRPW0NASF0oW0NAQEhdKEYpW0NASF00W09IXSlbQ0gyXU9DKD1PKWM1W2NIXVtjSF1bY0hdW2NIXVtjSF01

> <s_epik_cmdline>
J2VwaWtfcHl0aG9uJywgJy1waCcsICc3LjAnLCAnLXRuJywgJzgnLCAnLW1hJywgJzIwMCcsICctbWV0YWxfYmluZGluZycsICctaW1hZScsICc8aW5maWxlLm1hZT4nLCAnLW9tYWUnLCAnPG91dGZpbGUubWFlPic=

> <r_lp_tautomer_probability>
1

> <r_epik_Ionization_Penalty>
0.00257489

> <r_epik_Ionization_Penalty_Charging>
0

> <r_epik_Ionization_Penalty_Neutral>
0.00257489

> <r_epik_State_Penalty>
0.00519398

> <r_epik_Charging_Adjusted_Penalty>
0.00519398

> <i_epik_Tot_Q>
0

> <i_epik_Tot_abs_Q>
0

> <r_epik_Metal_State_Penalty>
0.335891

> <b_epik_Metal_Only>
0

> <s_epik_Chemistry_Notes>
This compound has an ester and may undergo hydrolysis at high or low pH. This compound contains an acetal/aminal-like group ( X-CH(R)-Y where X, Y are N, S, or O) that may be acid/base labile, releasing an aldehyde.

> <s_lp_Force_Field>
OPLS_2005

> <r_lp_Energy>
52.3338

> <b_lp_Chiralities_Consistent>
1

> <s_lp_Variant>
AV-unprocessed.smi:34-13

> <Gold.Version>
5.8.1

> <Gold.Id.Protein>
6NUR|6NUR_protein|mol2

> <Gold.PLP.Fitness>
59.2187

> <Gold.PLP.PLP>
-54.2310

> <Gold.PLP.part.hbond>
-2.4350

> <Gold.PLP.part.metal>
0.0000

> <Gold.PLP.part.buried>
-7.5542

> <Gold.PLP.part.nonpolar>
-46.4662

> <Gold.PLP.part.repulsive>
1.9786

> <Gold.PLP.ligand.clash>
0.0000

> <Gold.PLP.ligand.torsion>
0.8787

> <Gold.PLP.Chemscore.Hbond>
1.9840

> <Gold.PLP.Chemscore.CHOScore>
0.0000

> <Gold.PLP.Chemscore.Metal>
0.0000

> <Gold.Chemscore.Hbonds>
donor molecule, donor type, donor heavy atom, donor atom, acceptor molecule, acceptor atom, score
      P1  H  7997  8008       L1     5  0.33
      P1  H 10752 10765       L1     7  0.54

> <Gold.PLP.Chemscore.Internal.Correction>
0.7932

> <Gold.Rescore>
     Score         DG    S(hbond)    S(metal)    S(lipo)     H(rot)  DE(clash)    DE(int)     intcor
     15.61     -18.83       1.46        0.00     131.84       2.72       0.02       3.20       ----

> <Gold.Chemscore.Fitness>
15.6063

> <Gold.Chemscore.DG>
-18.8278

> <Gold.Chemscore.ZeroCoef>
-5.4800

> <Gold.Chemscore.Hbond>
1.4641

> <Gold.Chemscore.Metal>
0.0000

> <Gold.Chemscore.Lipo>
131.8360

> <Gold.Chemscore.Internal_Hbond>
0.0000

> <Gold.Chemscore.DEClash>
0.0195

> <Gold.Chemscore.DEInternal>
3.2020

> <Gold.Chemscore.Rot>
2.7215

> <Gold.Chemscore.Internal.Correction>
   9.000000E+99

> <Gold.Chemscore.Hbonds>
donor molecule, donor type, donor heavy atom, donor atom, acceptor molecule, acceptor atom, score
      P1  H  7997  8008       L1     5  0.27
      P1  H 10752 10765       L1     7  0.44

> <Gold.Chemscore.Hbond.Weighted>
-4.8900

> <Gold.Chemscore.Metal.Weighted>
-0.0000

> <Gold.Chemscore.Lipo.Weighted>
-15.4248

> <Gold.Chemscore.Internal_Hbond.Weighted>
0.0000

> <Gold.Chemscore.DEClash.Weighted>
0.0195

> <Gold.Chemscore.DEInternal.Weighted>
3.2020

> <Gold.Chemscore.Rot.Weighted>
6.9670

> <Gold.Chemscore.Internal.Correction.Weighted>
   9.000000E+99

> <Gold.Protein.RotatedTorsions>
[ 6907 6896 6895 6894 ] final  171.87 input  -60.11 | X-H torsion
[ 7974 7965 7964 7962 ] final -171.27 input  175.53 | X-H torsion
[ 8008 7997 7996 7995 ] final -101.55 input   59.86 | X-H torsion
[ 10167 10162 10161 10158 ] final  174.57 input  -65.29 | X-H torsion
[ 10718 10713 10712 10709 ] final  -74.86 input   66.30 | X-H torsion
[ 10763 10752 10751 10750 ] final -129.88 input  -60.55 | X-H torsion
[ 11005 11000 10999 10996 ] final  -16.49 input  -57.11 | X-H torsion

> <Gold.Protein.ActiveResidues>
 VAL166  LYS551  ARG553  GLY616  TRP617  ASP618  TYR619  PRO620  LYS621  CYS622 
 ASP623  PHE694  ASN695  SER759  ASP760  ASP761  ALA762  ILE779  LEU786  VAL792 
 PHE793  MET794  SER795  GLU796  ALA797  LYS798  CYS799  TRP800  GLU811  SER814 

> <Gold.Protein.RotatedAtoms>
  151.7933  133.3361  159.3505 H   0  0  0  0  0  0  0  0  0  0  0  0  # atno 6907 bound_to 6896
  150.7384  134.5822  159.5954 H   0  0  0  0  0  0  0  0  0  0  0  0  # atno 6908 bound_to 6896
  152.3195  134.7400  160.0368 H   0  0  0  0  0  0  0  0  0  0  0  0  # atno 6909 bound_to 6896
  144.7159  140.1947  143.6345 H   0  0  0  0  0  0  0  0  0  0  0  0  # atno 7974 bound_to 7965
  154.8441  140.0434  157.1561 H   0  0  0  0  0  0  0  0  0  0  0  0  # atno 8008 bound_to 7997
  154.9014  140.3000  155.5295 H   0  0  0  0  0  0  0  0  0  0  0  0  # atno 8009 bound_to 7997
  156.2993  140.2375  156.4042 H   0  0  0  0  0  0  0  0  0  0  0  0  # atno 8010 bound_to 7997
  139.5146  144.3132  152.0272 H   0  0  0  0  0  0  0  0  0  0  0  0  # atno 10167 bound_to 10162
  156.0228  130.4427  150.2955 H   0  0  0  0  0  0  0  0  0  0  0  0  # atno 10718 bound_to 10713
  154.8757  135.3881  154.3992 H   0  0  0  0  0  0  0  0  0  0  0  0  # atno 10763 bound_to 10752
  153.4719  135.7030  153.5994 H   0  0  0  0  0  0  0  0  0  0  0  0  # atno 10764 bound_to 10752
  153.4447  135.3848  155.2217 H   0  0  0  0  0  0  0  0  0  0  0  0  # atno 10765 bound_to 10752
  140.8073  133.8168  155.9528 H   0  0  0  0  0  0  0  0  0  0  0  0  # atno 11005 bound_to 11000
  145.8735  139.2285  143.1647 LP  0  0  0  0  0  0  0  0  0  0  0  0  # atno 17320 bound_to 7965
  146.0062  140.8476  142.9994 LP  0  0  0  0  0  0  0  0  0  0  0  0  # atno 17321 bound_to 7965
  140.2576  144.4102  150.6198 LP  0  0  0  0  0  0  0  0  0  0  0  0  # atno 17342 bound_to 10162
  140.6180  143.2174  151.6751 LP  0  0  0  0  0  0  0  0  0  0  0  0  # atno 17343 bound_to 10162
  157.1058  131.0208  151.3067 LP  0  0  0  0  0  0  0  0  0  0  0  0  # atno 17370 bound_to 10713
  157.4743  130.7727  149.7353 LP  0  0  0  0  0  0  0  0  0  0  0  0  # atno 17371 bound_to 10713
  140.9234  134.2113  157.4912 LP  0  0  0  0  0  0  0  0  0  0  0  0  # atno 17394 bound_to 11000
  139.8717  134.9802  156.5066 LP  0  0  0  0  0  0  0  0  0  0  0  0  # atno 17395 bound_to 11000

$$$$
