AV-unprocessed.smi:583|AV-procd|sdf|2997|dock5
  -GOLD-   2262023503D 1   1.00000     0.00000
 Structure written by MMmdl.
 35 36  0  0  0  0  0  0  0  0  1 V2000
  151.5836  141.1953  157.4058 O   0  0  0  0  0  0  0  0  0  0  0  0
  151.0435  142.2978  157.3260 C   0  0  0  0  0  0  0  0  0  0  0  0
  151.7034  143.5026  158.0191 C   0  0  0  0  0  0  0  0  0  0  0  0
  152.2077  143.2412  159.3796 N   0  0  0  0  0  0  0  0  0  0  0  0
  153.0643  142.1345  159.5426 C   0  0  0  0  0  0  0  0  0  0  0  0
  153.6043  141.7939  160.7287 C   0  0  0  0  0  0  0  0  0  0  0  0
  154.4855  140.5641  160.8833 C   0  0  0  0  0  0  0  0  0  0  0  0
  155.5521  140.6708  160.0921 F   0  0  0  0  0  0  0  0  0  0  0  0
  154.9110  140.4331  162.1401 F   0  0  0  0  0  0  0  0  0  0  0  0
  153.8274  139.4542  160.5451 F   0  0  0  0  0  0  0  0  0  0  0  0
  153.2308  142.6116  161.8661 C   0  0  0  0  0  0  0  0  0  0  0  0
  152.4096  143.6708  161.7284 C   0  0  0  0  0  0  0  0  0  0  0  0
  151.8536  144.0458  160.4265 C   0  0  0  0  0  0  0  0  0  0  0  0
  151.1199  145.0240  160.2844 O   0  0  0  0  0  0  0  0  0  0  0  0
  149.8967  142.4968  156.6539 N   0  0  0  0  0  0  0  0  0  0  0  0
  149.1429  141.4662  155.9490 C   0  0  2  0  0  0  0  0  0  0  0  0
  149.1534  141.6804  154.4215 C   0  0  0  0  0  0  0  0  0  0  0  0
  148.0572  140.8100  153.7955 C   0  0  0  0  0  0  0  0  0  0  0  0
  146.7304  140.6788  155.0532 S   0  0  0  0  0  0  0  0  0  0  0  0
  145.6131  141.5617  154.6856 O   0  0  0  0  0  0  0  0  0  0  0  0
  146.5042  139.2582  155.3602 O   0  0  0  0  0  0  0  0  0  0  0  0
  147.6808  141.4536  156.4148 C   0  0  0  0  0  0  0  0  0  0  0  0
  152.5088  143.8686  157.3797 H   0  0  0  0  0  0  0  0  0  0  0  0
  150.9764  144.3156  158.0410 H   0  0  0  0  0  0  0  0  0  0  0  0
  153.2584  141.5802  158.6355 H   0  0  0  0  0  0  0  0  0  0  0  0
  153.6193  142.3740  162.8456 H   0  0  0  0  0  0  0  0  0  0  0  0
  152.1550  144.2593  162.5977 H   0  0  0  0  0  0  0  0  0  0  0  0
  149.5173  143.4324  156.6343 H   0  0  0  0  0  0  0  0  0  0  0  0
  149.5729  140.4863  156.1652 H   0  0  0  0  0  0  0  0  0  0  0  0
  148.9336  142.7270  154.2051 H   0  0  0  0  0  0  0  0  0  0  0  0
  150.1293  141.4644  153.9854 H   0  0  0  0  0  0  0  0  0  0  0  0
  147.6603  141.2255  152.8692 H   0  0  0  0  0  0  0  0  0  0  0  0
  148.4300  139.8053  153.5951 H   0  0  0  0  0  0  0  0  0  0  0  0
  147.5318  140.8991  157.3414 H   0  0  0  0  0  0  0  0  0  0  0  0
  147.2984  142.4661  156.5493 H   0  0  0  0  0  0  0  0  0  0  0  0
  1  2  2  0  0  0  0
  2  3  1  0  0  0  0
  2 15  1  0  0  0  0
  3  4  1  0  0  0  0
  3 23  1  0  0  0  0
  3 24  1  0  0  0  0
  4 13  1  0  0  0  0
  4  5  1  0  0  0  0
  5  6  2  0  0  0  0
  5 25  1  0  0  0  0
  6  7  1  0  0  0  0
  6 11  1  0  0  0  0
  7  8  1  0  0  0  0
  7  9  1  0  0  0  0
  7 10  1  0  0  0  0
 11 12  2  0  0  0  0
 11 26  1  0  0  0  0
 12 13  1  0  0  0  0
 12 27  1  0  0  0  0
 13 14  2  0  0  0  0
 15 16  1  0  0  0  0
 15 28  1  0  0  0  0
 16 22  1  0  0  0  0
 16 17  1  0  0  0  0
 16 29  1  0  0  0  0
 17 18  1  0  0  0  0
 17 30  1  0  0  0  0
 17 31  1  0  0  0  0
 18 19  1  0  0  0  0
 18 32  1  0  0  0  0
 18 33  1  0  0  0  0
 19 20  2  0  0  0  0
 19 21  2  0  0  0  0
 19 22  1  0  0  0  0
 22 34  1  0  0  0  0
 22 35  1  0  0  0  0
M  END
> <s_m_source_file>
AV-unprocessed.smi

> <i_m_source_file_index>
583

> <i_lp_mmshare_version>
43012

> <i_f3d_flags>
0

> <s_epik_input>
Tz1TMSg9TylbQ0gyXVtDSDJdW0NASF0oW0NIMl0xKVtOSF1DKD1PKVtDSDJdbjJbY0hdYyhDKEYpKEYpRilbY0hdW2NIXWMyPU8=

> <s_epik_cmdline>
J2VwaWtfcHl0aG9uJywgJy1waCcsICc3LjAnLCAnLXRuJywgJzgnLCAnLW1hJywgJzIwMCcsICctbWV0YWxfYmluZGluZycsICctaW1hZScsICc8aW5maWxlLm1hZT4nLCAnLW9tYWUnLCAnPG91dGZpbGUubWFlPic=

> <r_lp_tautomer_probability>
1

> <r_epik_Ionization_Penalty>
1.22016e-07

> <r_epik_Ionization_Penalty_Charging>
1.48237e-08

> <r_epik_Ionization_Penalty_Neutral>
1.07193e-07

> <r_epik_State_Penalty>
-0

> <r_epik_Charging_Adjusted_Penalty>
1.48237e-08

> <i_epik_Tot_Q>
0

> <i_epik_Tot_abs_Q>
0

> <r_epik_Metal_State_Penalty>
-0

> <b_epik_Metal_Only>
0

> <s_lp_Force_Field>
OPLS_2005

> <r_lp_Energy>
16.6381

> <b_lp_Chiralities_Consistent>
1

> <s_lp_Variant>
AV-unprocessed.smi:583-1

> <Gold.Version>
5.8.1

> <Gold.Id.Protein>
6NUR|6NUR_protein|mol2

> <Gold.PLP.Fitness>
49.6001

> <Gold.PLP.PLP>
-47.3804

> <Gold.PLP.part.hbond>
-1.0000

> <Gold.PLP.part.metal>
0.0000

> <Gold.PLP.part.buried>
-3.1350

> <Gold.PLP.part.nonpolar>
-42.4835

> <Gold.PLP.part.repulsive>
0.4389

> <Gold.PLP.ligand.clash>
0.0000

> <Gold.PLP.ligand.torsion>
0.3485

> <Gold.PLP.Chemscore.Hbond>
0.9600

> <Gold.PLP.Chemscore.CHOScore>
0.0000

> <Gold.PLP.Chemscore.Metal>
0.0000

> <Gold.Chemscore.Hbonds>
donor molecule, donor type, donor heavy atom, donor atom, acceptor molecule, acceptor atom, score
      L1  H    15    28       P1  8028  0.94

> <Gold.PLP.Chemscore.Internal.Correction>
0.0367

> <Gold.Rescore>
     Score         DG    S(hbond)    S(metal)    S(lipo)     H(rot)  DE(clash)    DE(int)     intcor
     13.22     -14.70       0.98        0.00      88.85       1.73       0.02       1.47       ----

> <Gold.Chemscore.Fitness>
13.2165

> <Gold.Chemscore.DG>
-14.7013

> <Gold.Chemscore.ZeroCoef>
-5.4800

> <Gold.Chemscore.Hbond>
0.9755

> <Gold.Chemscore.Metal>
0.0000

> <Gold.Chemscore.Lipo>
88.8510

> <Gold.Chemscore.Internal_Hbond>
0.0000

> <Gold.Chemscore.DEClash>
0.0194

> <Gold.Chemscore.DEInternal>
1.4654

> <Gold.Chemscore.Rot>
1.7314

> <Gold.Chemscore.Internal.Correction>
   9.000000E+99

> <Gold.Chemscore.Hbonds>
donor molecule, donor type, donor heavy atom, donor atom, acceptor molecule, acceptor atom, score
      L1  H    15    28       P1  8028  0.91

> <Gold.Chemscore.Hbond.Weighted>
-3.2581

> <Gold.Chemscore.Metal.Weighted>
-0.0000

> <Gold.Chemscore.Lipo.Weighted>
-10.3956

> <Gold.Chemscore.Internal_Hbond.Weighted>
0.0000

> <Gold.Chemscore.DEClash.Weighted>
0.0194

> <Gold.Chemscore.DEInternal.Weighted>
1.4654

> <Gold.Chemscore.Rot.Weighted>
4.4324

> <Gold.Chemscore.Internal.Correction.Weighted>
   9.000000E+99

> <Gold.Protein.RotatedTorsions>
[ 6907 6896 6895 6894 ] final   28.12 input  -60.11 | X-H torsion
[ 7974 7965 7964 7962 ] final   85.15 input  175.53 | X-H torsion
[ 8008 7997 7996 7995 ] final -100.73 input   59.86 | X-H torsion
[ 10167 10162 10161 10158 ] final   78.78 input  -65.29 | X-H torsion
[ 10718 10713 10712 10709 ] final  -23.37 input   66.30 | X-H torsion
[ 10763 10752 10751 10750 ] final  176.50 input  -60.55 | X-H torsion
[ 11005 11000 10999 10996 ] final  -41.31 input  -57.11 | X-H torsion

> <Gold.Protein.ActiveResidues>
 VAL166  LYS551  ARG553  GLY616  TRP617  ASP618  TYR619  PRO620  LYS621  CYS622 
 ASP623  PHE694  ASN695  SER759  ASP760  ASP761  ALA762  ILE779  LEU786  VAL792 
 PHE793  MET794  SER795  GLU796  ALA797  LYS798  CYS799  TRP800  GLU811  SER814 

> <Gold.Protein.RotatedAtoms>
  152.0123  134.9869  160.0568 H   0  0  0  0  0  0  0  0  0  0  0  0  # atno 6907 bound_to 6896
  152.1417  133.4463  159.4778 H   0  0  0  0  0  0  0  0  0  0  0  0  # atno 6908 bound_to 6896
  150.6866  134.2215  159.4442 H   0  0  0  0  0  0  0  0  0  0  0  0  # atno 6909 bound_to 6896
  145.5893  139.2336  143.2308 H   0  0  0  0  0  0  0  0  0  0  0  0  # atno 7974 bound_to 7965
  154.8326  140.0439  157.1487 H   0  0  0  0  0  0  0  0  0  0  0  0  # atno 8008 bound_to 7997
  154.9135  140.3017  155.5233 H   0  0  0  0  0  0  0  0  0  0  0  0  # atno 8009 bound_to 7997
  156.2988  140.2354  156.4177 H   0  0  0  0  0  0  0  0  0  0  0  0  # atno 8010 bound_to 7997
  139.9673  144.5919  150.8017 H   0  0  0  0  0  0  0  0  0  0  0  0  # atno 10167 bound_to 10162
  156.4920  130.4568  149.6750 H   0  0  0  0  0  0  0  0  0  0  0  0  # atno 10718 bound_to 10713
  154.4819  135.2775  155.1564 H   0  0  0  0  0  0  0  0  0  0  0  0  # atno 10763 bound_to 10752
  154.3270  135.6198  153.5537 H   0  0  0  0  0  0  0  0  0  0  0  0  # atno 10764 bound_to 10752
  152.9876  135.5756  154.5222 H   0  0  0  0  0  0  0  0  0  0  0  0  # atno 10765 bound_to 10752
  141.0237  133.6851  156.2440 H   0  0  0  0  0  0  0  0  0  0  0  0  # atno 11005 bound_to 11000
  146.1659  140.6719  142.9256 LP  0  0  0  0  0  0  0  0  0  0  0  0  # atno 17320 bound_to 7965
  144.7358  140.4805  143.6904 LP  0  0  0  0  0  0  0  0  0  0  0  0  # atno 17321 bound_to 7965
  140.7534  143.3007  151.3088 LP  0  0  0  0  0  0  0  0  0  0  0  0  # atno 17342 bound_to 10162
  139.6508  144.0366  152.2625 LP  0  0  0  0  0  0  0  0  0  0  0  0  # atno 17343 bound_to 10162
  156.3417  130.7385  151.2331 LP  0  0  0  0  0  0  0  0  0  0  0  0  # atno 17370 bound_to 10713
  157.7472  131.0402  150.4585 LP  0  0  0  0  0  0  0  0  0  0  0  0  # atno 17371 bound_to 10713
  140.6529  134.5049  157.5578 LP  0  0  0  0  0  0  0  0  0  0  0  0  # atno 17394 bound_to 11000
  139.9162  134.8241  156.1359 LP  0  0  0  0  0  0  0  0  0  0  0  0  # atno 17395 bound_to 11000

$$$$
