AV-unprocessed.smi:2095|AV-procd|sdf|8554|dock7
  -GOLD-   2272011273D 1   1.00000     0.00000
 Structure written by MMmdl.
 42 43  0  0  0  0  0  0  0  0  2 V2000
  144.8921  134.5019  150.3338 C   0  0  0  0  0  0  0  0  0  0  0  0
  145.7925  135.0884  151.4306 C   0  0  2  0  0  0  0  0  0  0  0  0
  145.5094  134.4362  152.7919 C   0  0  0  0  0  0  0  0  0  0  0  0
  146.4029  135.0612  153.8663 C   0  0  0  0  0  0  0  0  0  0  0  0
  146.2199  136.5850  153.9043 C   0  0  0  0  0  0  0  0  0  0  0  0
  146.5170  137.2083  152.5828 N   0  3  2  0  0  0  0  0  0  0  0  0
  146.5430  138.7072  152.6633 C   0  0  2  0  0  0  0  0  0  0  0  0
  146.9980  139.4028  151.3554 C   0  0  0  0  0  0  0  0  0  0  0  0
  147.4256  139.1522  153.8585 C   0  0  0  0  0  0  0  0  0  0  0  0
  148.6784  138.4058  153.9306 N   0  0  0  0  0  0  0  0  0  0  0  0
  149.8382  138.8699  154.4234 C   0  0  0  0  0  0  0  0  0  0  0  0
  149.9993  140.0262  154.8115 O   0  0  0  0  0  0  0  0  0  0  0  0
  150.9850  137.8638  154.5210 C   0  0  0  0  0  0  0  0  0  0  0  0
  151.7423  138.0708  155.7418 N   0  0  0  0  0  0  0  0  0  0  0  0
  152.2382  139.1831  156.2878 C   0  0  0  0  0  0  0  0  0  0  0  0
  152.9049  138.9258  157.4023 N   0  0  0  0  0  0  0  0  0  0  0  0
  152.7901  137.5512  157.5272 N   0  0  0  0  0  0  0  0  0  0  0  0
  152.1018  137.0382  156.5446 N   0  0  0  0  0  0  0  0  0  0  0  0
  145.6481  136.6227  151.5186 C   0  0  0  0  0  0  0  0  0  0  0  0
  143.8384  134.6879  150.5441 H   0  0  0  0  0  0  0  0  0  0  0  0
  145.0287  133.4234  150.2485 H   0  0  0  0  0  0  0  0  0  0  0  0
  145.1193  134.9397  149.3615 H   0  0  0  0  0  0  0  0  0  0  0  0
  146.8256  134.8645  151.1596 H   0  0  0  0  0  0  0  0  0  0  0  0
  144.4605  134.5698  153.0610 H   0  0  0  0  0  0  0  0  0  0  0  0
  145.6853  133.3610  152.7422 H   0  0  0  0  0  0  0  0  0  0  0  0
  146.1656  134.6331  154.8409 H   0  0  0  0  0  0  0  0  0  0  0  0
  147.4479  134.8193  153.6670 H   0  0  0  0  0  0  0  0  0  0  0  0
  145.1968  136.8277  154.1969 H   0  0  0  0  0  0  0  0  0  0  0  0
  146.8662  136.9872  154.6823 H   0  0  0  0  0  0  0  0  0  0  0  0
  145.5211  139.0445  152.8464 H   0  0  0  0  0  0  0  0  0  0  0  0
  146.9864  140.4884  151.4485 H   0  0  0  0  0  0  0  0  0  0  0  0
  146.3352  139.1803  150.5193 H   0  0  0  0  0  0  0  0  0  0  0  0
  148.0120  139.1114  151.0789 H   0  0  0  0  0  0  0  0  0  0  0  0
  147.7014  140.2021  153.7785 H   0  0  0  0  0  0  0  0  0  0  0  0
  146.8591  139.0643  154.7871 H   0  0  0  0  0  0  0  0  0  0  0  0
  148.6491  137.4432  153.6268 H   0  0  0  0  0  0  0  0  0  0  0  0
  150.5930  136.8459  154.5133 H   0  0  0  0  0  0  0  0  0  0  0  0
  151.6517  137.9622  153.6627 H   0  0  0  0  0  0  0  0  0  0  0  0
  152.1228  140.1704  155.8653 H   0  0  0  0  0  0  0  0  0  0  0  0
  145.9215  137.0205  150.5419 H   0  0  0  0  0  0  0  0  0  0  0  0
  144.6086  136.8988  151.7036 H   0  0  0  0  0  0  0  0  0  0  0  0
  147.4573  136.9332  152.3368 H   0  0  0  0  0  0  0  0  0  0  0  0
  1  2  1  0  0  0  0
  1 20  1  0  0  0  0
  1 21  1  0  0  0  0
  1 22  1  0  0  0  0
  2 19  1  0  0  0  0
  2  3  1  0  0  0  0
  2 23  1  0  0  0  0
  3  4  1  0  0  0  0
  3 24  1  0  0  0  0
  3 25  1  0  0  0  0
  4  5  1  0  0  0  0
  4 26  1  0  0  0  0
  4 27  1  0  0  0  0
  5  6  1  0  0  0  0
  5 28  1  0  0  0  0
  5 29  1  0  0  0  0
  6  7  1  0  0  0  0
  6 19  1  0  0  0  0
  6 42  1  0  0  0  0
  7  8  1  0  0  0  0
  7  9  1  0  0  0  0
  7 30  1  0  0  0  0
  8 31  1  0  0  0  0
  8 32  1  0  0  0  0
  8 33  1  0  0  0  0
  9 10  1  0  0  0  0
  9 34  1  0  0  0  0
  9 35  1  0  0  0  0
 10 11  1  0  0  0  0
 10 36  1  0  0  0  0
 11 12  2  0  0  0  0
 11 13  1  0  0  0  0
 13 14  1  0  0  0  0
 13 37  1  0  0  0  0
 13 38  1  0  0  0  0
 14 18  1  0  0  0  0
 14 15  1  0  0  0  0
 15 16  2  0  0  0  0
 15 39  1  0  0  0  0
 16 17  1  0  0  0  0
 17 18  2  0  0  0  0
 19 40  1  0  0  0  0
 19 41  1  0  0  0  0
M  CHG  1   6   1
M  END
> <s_m_source_file>
AV-unprocessed.smi

> <i_m_source_file_index>
2095

> <i_lp_mmshare_version>
43012

> <i_f3d_flags>
0

> <s_epik_input>
W0NIM11bQ0BASF0xW0NIMl1bQ0gyXVtDSDJdTihbQ0gyXTEpW0NASF0oW0NIM10pW0NIMl1bTkhdQyg9TylbQ0gyXW4yW2NIXW5ubjI=

> <s_epik_cmdline>
J2VwaWtfcHl0aG9uJywgJy1waCcsICc3LjAnLCAnLXRuJywgJzgnLCAnLW1hJywgJzIwMCcsICctbWV0YWxfYmluZGluZycsICctaW1hZScsICc8aW5maWxlLm1hZT4nLCAnLW9tYWUnLCAnPG91dGZpbGUubWFlPic=

> <r_lp_tautomer_probability>
1

> <r_epik_Ionization_Penalty>
0.00268321

> <r_epik_Ionization_Penalty_Charging>
0.00267875

> <r_epik_Ionization_Penalty_Neutral>
4.46125e-06

> <r_epik_State_Penalty>
0.00186642

> <r_epik_Charging_Adjusted_Penalty>
0.00454517

> <i_epik_Tot_Q>
1

> <i_epik_Tot_abs_Q>
1

> <r_epik_Metal_State_Penalty>
-0

> <b_epik_Metal_Only>
0

> <s_lp_Force_Field>
OPLS_2005

> <r_lp_Energy>
25.312

> <b_lp_Chiralities_Consistent>
1

> <s_lp_Variant>
AV-unprocessed.smi:2095-1

> <Gold.Version>
5.8.1

> <Gold.Id.Protein>
6NUR|6NUR_protein|mol2

> <Gold.PLP.Fitness>
47.4073

> <Gold.PLP.PLP>
-31.8836

> <Gold.PLP.part.hbond>
-5.4903

> <Gold.PLP.part.metal>
0.0000

> <Gold.PLP.part.buried>
0.8032

> <Gold.PLP.part.nonpolar>
-27.3658

> <Gold.PLP.part.repulsive>
0.1735

> <Gold.PLP.ligand.clash>
0.0000

> <Gold.PLP.ligand.torsion>
0.8651

> <Gold.PLP.Chemscore.Hbond>
5.7280

> <Gold.PLP.Chemscore.CHOScore>
0.0000

> <Gold.PLP.Chemscore.Metal>
0.0000

> <Gold.Chemscore.Hbonds>
donor molecule, donor type, donor heavy atom, donor atom, acceptor molecule, acceptor atom, score
      L1  H     6    42       P1  7948  2.00
      L1  H    10    36       P1  7948  0.56
      P1  H  7989  7998       L1    12  0.44
      P1  H  7997  8008       L1    16  0.30
      P1  H 10752 10764       L1    18  0.08

> <Gold.PLP.Chemscore.Internal.Correction>
0.0700

> <Gold.Rescore>
     Score         DG    S(hbond)    S(metal)    S(lipo)     H(rot)  DE(clash)    DE(int)     intcor
     15.73     -18.58       4.02        0.00      55.03       2.64       0.81       2.04       ----

> <Gold.Chemscore.Fitness>
15.7285

> <Gold.Chemscore.DG>
-18.5835

> <Gold.Chemscore.ZeroCoef>
-5.4800

> <Gold.Chemscore.Hbond>
4.0220

> <Gold.Chemscore.Metal>
0.0000

> <Gold.Chemscore.Lipo>
55.0289

> <Gold.Chemscore.Internal_Hbond>
0.0000

> <Gold.Chemscore.DEClash>
0.8107

> <Gold.Chemscore.DEInternal>
2.0442

> <Gold.Chemscore.Rot>
2.6439

> <Gold.Chemscore.Internal.Correction>
   9.000000E+99

> <Gold.Chemscore.Hbonds>
donor molecule, donor type, donor heavy atom, donor atom, acceptor molecule, acceptor atom, score
      L1  H     6    42       P1  7948  1.00
      L1  H    10    36       P1  7948  0.55
      P1  H  7989  7998       L1    12  0.21
      P1  H 10752 10764       L1    18  0.05

> <Gold.Chemscore.Hbond.Weighted>
-13.4335

> <Gold.Chemscore.Metal.Weighted>
-0.0000

> <Gold.Chemscore.Lipo.Weighted>
-6.4384

> <Gold.Chemscore.Internal_Hbond.Weighted>
0.0000

> <Gold.Chemscore.DEClash.Weighted>
0.8107

> <Gold.Chemscore.DEInternal.Weighted>
2.0442

> <Gold.Chemscore.Rot.Weighted>
6.7685

> <Gold.Chemscore.Internal.Correction.Weighted>
   9.000000E+99

> <Gold.Protein.RotatedTorsions>
[ 6907 6896 6895 6894 ] final   69.06 input  -60.11 | X-H torsion
[ 7974 7965 7964 7962 ] final   27.98 input  175.53 | X-H torsion
[ 8008 7997 7996 7995 ] final  -57.87 input   59.86 | X-H torsion
[ 10167 10162 10161 10158 ] final -123.42 input  -65.29 | X-H torsion
[ 10718 10713 10712 10709 ] final   17.87 input   66.30 | X-H torsion
[ 10763 10752 10751 10750 ] final  -32.68 input  -60.55 | X-H torsion
[ 11005 11000 10999 10996 ] final   -9.98 input  -57.11 | X-H torsion

> <Gold.Protein.ActiveResidues>
 VAL166  LYS551  ARG553  GLY616  TRP617  ASP618  TYR619  PRO620  LYS621  CYS622 
 ASP623  PHE694  ASN695  SER759  ASP760  ASP761  ALA762  ILE779  LEU786  VAL792 
 PHE793  MET794  SER795  GLU796  ALA797  LYS798  CYS799  TRP800  GLU811  SER814 

> <Gold.Protein.RotatedAtoms>
  152.4662  134.5070  159.9742 H   0  0  0  0  0  0  0  0  0  0  0  0  # atno 6907 bound_to 6896
  151.5108  133.3479  159.2892 H   0  0  0  0  0  0  0  0  0  0  0  0  # atno 6908 bound_to 6896
  150.8647  134.8036  159.7172 H   0  0  0  0  0  0  0  0  0  0  0  0  # atno 6909 bound_to 6896
  146.1754  139.7117  142.8938 H   0  0  0  0  0  0  0  0  0  0  0  0  # atno 7974 bound_to 7965
  154.4285  140.1097  156.5866 H   0  0  0  0  0  0  0  0  0  0  0  0  # atno 8008 bound_to 7997
  155.6056  140.3493  155.4588 H   0  0  0  0  0  0  0  0  0  0  0  0  # atno 8009 bound_to 7997
  156.0139  140.1225  157.0415 H   0  0  0  0  0  0  0  0  0  0  0  0  # atno 8010 bound_to 7997
  140.0037  143.5514  152.2292 H   0  0  0  0  0  0  0  0  0  0  0  0  # atno 10167 bound_to 10162
  157.0882  130.6416  149.5842 H   0  0  0  0  0  0  0  0  0  0  0  0  # atno 10718 bound_to 10713
  153.8177  135.6877  153.4831 H   0  0  0  0  0  0  0  0  0  0  0  0  # atno 10763 bound_to 10752
  153.1589  135.4588  154.9741 H   0  0  0  0  0  0  0  0  0  0  0  0  # atno 10764 bound_to 10752
  154.7941  135.3312  154.7652 H   0  0  0  0  0  0  0  0  0  0  0  0  # atno 10765 bound_to 10752
  140.7399  133.8679  155.8959 H   0  0  0  0  0  0  0  0  0  0  0  0  # atno 11005 bound_to 11000
  145.4226  141.0408  143.2955 LP  0  0  0  0  0  0  0  0  0  0  0  0  # atno 17320 bound_to 7965
  144.8228  139.5762  143.6979 LP  0  0  0  0  0  0  0  0  0  0  0  0  # atno 17321 bound_to 7965
  139.6253  144.7636  151.2651 LP  0  0  0  0  0  0  0  0  0  0  0  0  # atno 17342 bound_to 10162
  140.7409  143.6574  150.8194 LP  0  0  0  0  0  0  0  0  0  0  0  0  # atno 17343 bound_to 10162
  155.9905  130.4956  150.7260 LP  0  0  0  0  0  0  0  0  0  0  0  0  # atno 17370 bound_to 10713
  157.4743  131.0896  151.0607 LP  0  0  0  0  0  0  0  0  0  0  0  0  # atno 17371 bound_to 10713
  140.9846  134.1360  157.4464 LP  0  0  0  0  0  0  0  0  0  0  0  0  # atno 17394 bound_to 11000
  139.8808  135.0021  156.6108 LP  0  0  0  0  0  0  0  0  0  0  0  0  # atno 17395 bound_to 11000

$$$$
