AV-unprocessed.smi:2757|AV-procd|sdf|10621|dock4
  -GOLD-   2272015 63D 1   1.00000     0.00000
 Structure written by MMmdl.
 32 33  0  0  0  0  0  0  0  0  2 V2000
  144.2493  132.9915  157.8403 C   0  0  0  0  0  0  0  0  0  0  0  0
  144.7773  132.9171  156.4870 N   0  0  0  0  0  0  0  0  0  0  0  0
  146.0815  132.9800  156.1802 C   0  0  0  0  0  0  0  0  0  0  0  0
  146.9746  133.1122  157.0178 O   0  0  0  0  0  0  0  0  0  0  0  0
  146.3975  132.8591  154.7183 C   0  0  0  0  0  0  0  0  0  0  0  0
  147.6635  132.3681  154.2835 C   0  0  0  0  0  0  0  0  0  0  0  0
  147.5780  132.3973  152.9213 C   0  0  0  0  0  0  0  0  0  0  0  0
  146.3282  132.8809  152.5956 N   0  0  0  0  0  0  0  0  0  0  0  0
  145.7658  133.0977  151.2711 C   0  0  1  0  0  0  0  0  0  0  0  0
  145.8861  131.8393  150.3874 C   0  0  0  0  0  0  0  0  0  0  0  0
  145.2669  132.0970  149.0054 C   0  0  0  0  0  0  0  0  0  0  0  0
  143.8151  132.5880  149.1366 C   0  0  0  0  0  0  0  0  0  0  0  0
  143.7432  133.7899  149.9963 N   0  3  0  0  0  0  0  0  0  0  0  0
  144.2970  133.5661  151.3500 C   0  0  0  0  0  0  0  0  0  0  0  0
  145.6051  133.1704  153.7006 N   0  0  0  0  0  0  0  0  0  0  0  0
  143.1602  132.9509  157.8175 H   0  0  0  0  0  0  0  0  0  0  0  0
  144.5459  133.9232  158.3239 H   0  0  0  0  0  0  0  0  0  0  0  0
  144.6091  132.1563  158.4423 H   0  0  0  0  0  0  0  0  0  0  0  0
  144.1146  132.8027  155.7338 H   0  0  0  0  0  0  0  0  0  0  0  0
  148.5042  132.0417  154.8783 H   0  0  0  0  0  0  0  0  0  0  0  0
  148.2966  132.1155  152.1657 H   0  0  0  0  0  0  0  0  0  0  0  0
  146.3488  133.8933  150.8038 H   0  0  0  0  0  0  0  0  0  0  0  0
  146.9324  131.5514  150.2796 H   0  0  0  0  0  0  0  0  0  0  0  0
  145.3777  130.9961  150.8570 H   0  0  0  0  0  0  0  0  0  0  0  0
  145.8599  132.8405  148.4712 H   0  0  0  0  0  0  0  0  0  0  0  0
  145.3002  131.1861  148.4068 H   0  0  0  0  0  0  0  0  0  0  0  0
  143.4060  132.8269  148.1546 H   0  0  0  0  0  0  0  0  0  0  0  0
  143.1866  131.8047  149.5625 H   0  0  0  0  0  0  0  0  0  0  0  0
  144.2651  134.5332  149.5543 H   0  0  0  0  0  0  0  0  0  0  0  0
  143.6800  132.8280  151.8647 H   0  0  0  0  0  0  0  0  0  0  0  0
  144.2238  134.4938  151.9184 H   0  0  0  0  0  0  0  0  0  0  0  0
  142.7779  134.0752  150.0805 H   0  0  0  0  0  0  0  0  0  0  0  0
  1  2  1  0  0  0  0
  1 16  1  0  0  0  0
  1 17  1  0  0  0  0
  1 18  1  0  0  0  0
  2  3  1  0  0  0  0
  2 19  1  0  0  0  0
  3  4  2  0  0  0  0
  3  5  1  0  0  0  0
  5 15  2  0  0  0  0
  5  6  1  0  0  0  0
  6  7  2  0  0  0  0
  6 20  1  0  0  0  0
  7  8  1  0  0  0  0
  7 21  1  0  0  0  0
  8  9  1  0  0  0  0
  8 15  1  0  0  0  0
  9 14  1  0  0  0  0
  9 10  1  0  0  0  0
  9 22  1  0  0  0  0
 10 11  1  0  0  0  0
 10 23  1  0  0  0  0
 10 24  1  0  0  0  0
 11 12  1  0  0  0  0
 11 25  1  0  0  0  0
 11 26  1  0  0  0  0
 12 13  1  0  0  0  0
 12 27  1  0  0  0  0
 12 28  1  0  0  0  0
 13 14  1  0  0  0  0
 13 29  1  0  0  0  0
 13 32  1  0  0  0  0
 14 30  1  0  0  0  0
 14 31  1  0  0  0  0
M  CHG  1  13   1
M  END
> <s_m_source_file>
AV-unprocessed.smi

> <i_m_source_file_index>
2757

> <i_lp_mmshare_version>
43012

> <i_f3d_flags>
0

> <s_epik_input>
W0NIM11bTkhdQyg9TyljMVtjSF1bY0hdbihuMSlbQ0BASF0yW0NIMl1bQ0gyXVtDSDJdW05IXVtDSDJdMg==

> <s_epik_cmdline>
J2VwaWtfcHl0aG9uJywgJy1waCcsICc3LjAnLCAnLXRuJywgJzgnLCAnLW1hJywgJzIwMCcsICctbWV0YWxfYmluZGluZycsICctaW1hZScsICc8aW5maWxlLm1hZT4nLCAnLW9tYWUnLCAnPG91dGZpbGUubWFlPic=

> <r_lp_tautomer_probability>
1

> <r_epik_Ionization_Penalty>
0.000652722

> <r_epik_Ionization_Penalty_Charging>
0.000651447

> <r_epik_Ionization_Penalty_Neutral>
1.27533e-06

> <r_epik_State_Penalty>
0.000412577

> <r_epik_Charging_Adjusted_Penalty>
0.00106402

> <i_epik_Tot_Q>
1

> <i_epik_Tot_abs_Q>
1

> <r_epik_Metal_State_Penalty>
-0

> <b_epik_Metal_Only>
0

> <s_lp_Force_Field>
OPLS_2005

> <r_lp_Energy>
20.0976

> <b_lp_Chiralities_Consistent>
1

> <s_lp_Variant>
AV-unprocessed.smi:2757-2

> <Gold.Version>
5.8.1

> <Gold.Id.Protein>
6NUR|6NUR_protein|mol2

> <Gold.PLP.Fitness>
34.5481

> <Gold.PLP.PLP>
-23.2559

> <Gold.PLP.part.hbond>
-2.0000

> <Gold.PLP.part.metal>
0.0000

> <Gold.PLP.part.buried>
-2.7472

> <Gold.PLP.part.nonpolar>
-18.8023

> <Gold.PLP.part.repulsive>
0.1531

> <Gold.PLP.ligand.clash>
0.0000

> <Gold.PLP.ligand.torsion>
0.3633

> <Gold.PLP.Chemscore.Hbond>
3.0000

> <Gold.PLP.Chemscore.CHOScore>
1.0000

> <Gold.PLP.Chemscore.Metal>
0.0000

> <Gold.Chemscore.Hbonds>
donor molecule, donor type, donor heavy atom, donor atom, acceptor molecule, acceptor atom, score
      L1  H     2    19       P1 10957  1.00
      L1  H    13    32       P1 10186  2.00
      L1  C     7    21       P1 10747  1.00

> <Gold.PLP.Chemscore.Internal.Correction>
0.0189

> <Gold.Rescore>
     Score         DG    S(hbond)    S(metal)    S(lipo)     H(rot)  DE(clash)    DE(int)     intcor
     16.58     -17.01       1.98        0.00      63.98       1.00       0.02       0.41       ----

> <Gold.Chemscore.Fitness>
16.5807

> <Gold.Chemscore.DG>
-17.0116

> <Gold.Chemscore.ZeroCoef>
-5.4800

> <Gold.Chemscore.Hbond>
1.9779

> <Gold.Chemscore.Metal>
0.0000

> <Gold.Chemscore.Lipo>
63.9769

> <Gold.Chemscore.Internal_Hbond>
0.0000

> <Gold.Chemscore.DEClash>
0.0236

> <Gold.Chemscore.DEInternal>
0.4074

> <Gold.Chemscore.Rot>
1.0000

> <Gold.Chemscore.Internal.Correction>
   9.000000E+99

> <Gold.Chemscore.Hbonds>
donor molecule, donor type, donor heavy atom, donor atom, acceptor molecule, acceptor atom, score
      L1  H     2    19       P1 10957  0.91
      L1  H    13    32       P1 10186  0.98

> <Gold.Chemscore.Hbond.Weighted>
-6.6063

> <Gold.Chemscore.Metal.Weighted>
-0.0000

> <Gold.Chemscore.Lipo.Weighted>
-7.4853

> <Gold.Chemscore.Internal_Hbond.Weighted>
0.0000

> <Gold.Chemscore.DEClash.Weighted>
0.0236

> <Gold.Chemscore.DEInternal.Weighted>
0.4074

> <Gold.Chemscore.Rot.Weighted>
2.5600

> <Gold.Chemscore.Internal.Correction.Weighted>
   9.000000E+99

> <Gold.Protein.RotatedTorsions>
[ 6907 6896 6895 6894 ] final   -3.93 input  -60.11 | X-H torsion
[ 7974 7965 7964 7962 ] final  107.00 input  175.53 | X-H torsion
[ 8008 7997 7996 7995 ] final   90.10 input   59.86 | X-H torsion
[ 10167 10162 10161 10158 ] final -163.56 input  -65.29 | X-H torsion
[ 10718 10713 10712 10709 ] final   26.32 input   66.30 | X-H torsion
[ 10763 10752 10751 10750 ] final    6.85 input  -60.55 | X-H torsion
[ 11005 11000 10999 10996 ] final   -3.77 input  -57.11 | X-H torsion

> <Gold.Protein.ActiveResidues>
 VAL166  LYS551  ARG553  GLY616  TRP617  ASP618  TYR619  PRO620  LYS621  CYS622 
 ASP623  PHE694  ASN695  SER759  ASP760  ASP761  ALA762  ILE779  LEU786  VAL792 
 PHE793  MET794  SER795  GLU796  ALA797  LYS798  CYS799  TRP800  GLU811  SER814 

> <Gold.Protein.RotatedAtoms>
  151.5058  135.1063  159.9840 H   0  0  0  0  0  0  0  0  0  0  0  0  # atno 6907 bound_to 6896
  152.4683  133.7967  159.6941 H   0  0  0  0  0  0  0  0  0  0  0  0  # atno 6908 bound_to 6896
  150.8678  133.7486  159.2997 H   0  0  0  0  0  0  0  0  0  0  0  0  # atno 6909 bound_to 6896
  145.2993  139.2575  143.3823 H   0  0  0  0  0  0  0  0  0  0  0  0  # atno 7974 bound_to 7965
  156.0080  140.3353  155.6911 H   0  0  0  0  0  0  0  0  0  0  0  0  # atno 8008 bound_to 7997
  155.6198  140.0674  157.2699 H   0  0  0  0  0  0  0  0  0  0  0  0  # atno 8009 bound_to 7997
  154.4271  140.1778  156.1348 H   0  0  0  0  0  0  0  0  0  0  0  0  # atno 8010 bound_to 7997
  139.6312  144.0435  152.2017 H   0  0  0  0  0  0  0  0  0  0  0  0  # atno 10167 bound_to 10162
  157.2053  130.6909  149.6205 H   0  0  0  0  0  0  0  0  0  0  0  0  # atno 10718 bound_to 10713
  153.2430  135.6905  153.7762 H   0  0  0  0  0  0  0  0  0  0  0  0  # atno 10763 bound_to 10752
  153.6884  135.3317  155.3197 H   0  0  0  0  0  0  0  0  0  0  0  0  # atno 10764 bound_to 10752
  154.8363  135.4539  154.1359 H   0  0  0  0  0  0  0  0  0  0  0  0  # atno 10765 bound_to 10752
  140.6730  133.9220  155.8506 H   0  0  0  0  0  0  0  0  0  0  0  0  # atno 11005 bound_to 11000
  146.3158  140.3503  142.8655 LP  0  0  0  0  0  0  0  0  0  0  0  0  # atno 17320 bound_to 7965
  144.9107  140.7754  143.5809 LP  0  0  0  0  0  0  0  0  0  0  0  0  # atno 17321 bound_to 7965
  140.0101  144.6230  150.7654 LP  0  0  0  0  0  0  0  0  0  0  0  0  # atno 17342 bound_to 10162
  140.7440  143.2854  151.3477 LP  0  0  0  0  0  0  0  0  0  0  0  0  # atno 17343 bound_to 10162
  155.9696  130.4569  150.5942 LP  0  0  0  0  0  0  0  0  0  0  0  0  # atno 17370 bound_to 10713
  157.3726  131.0768  151.1544 LP  0  0  0  0  0  0  0  0  0  0  0  0  # atno 17371 bound_to 10713
  141.0377  134.0665  157.3939 LP  0  0  0  0  0  0  0  0  0  0  0  0  # atno 17394 bound_to 11000
  139.8975  135.0151  156.7106 LP  0  0  0  0  0  0  0  0  0  0  0  0  # atno 17395 bound_to 11000

$$$$
