AV-unprocessed.smi:1487|AV-procd|sdf|6011|dock6
  -GOLD-   22720 6113D 1   1.00000     0.00000
 Structure written by MMmdl.
 48 50  0  0  0  0  0  0  0  0  2 V2000
  153.2404  142.4925  160.9560 C   0  0  0  0  0  0  0  0  0  0  0  0
  152.4222  142.2683  159.6967 C   0  0  0  0  0  0  0  0  0  0  0  0
  152.7110  141.1523  158.8796 C   0  0  0  0  0  0  0  0  0  0  0  0
  151.9728  140.9072  157.7012 C   0  0  0  0  0  0  0  0  0  0  0  0
  152.0833  139.8919  156.7667 N   0  0  0  0  0  0  0  0  0  0  0  0
  151.1201  140.2114  155.9082 C   0  0  0  0  0  0  0  0  0  0  0  0
  150.4005  141.3188  156.1725 N   0  0  0  0  0  0  0  0  0  0  0  0
  149.3093  141.8584  155.3805 C   0  0  0  0  0  0  0  0  0  0  0  0
  148.8327  140.8773  154.2927 C   0  0  2  0  0  0  0  0  0  0  0  0
  149.6576  141.0089  153.1508 O   0  0  0  0  0  0  0  0  0  0  0  0
  147.3735  141.1483  153.8776 C   0  0  0  0  0  0  0  0  0  0  0  0
  146.6649  139.9106  153.4634 N   0  3  1  0  0  0  0  0  0  0  0  0
  147.3693  139.1619  152.3894 C   0  0  0  0  0  0  0  0  0  0  0  0
  146.5090  137.9965  151.8778 C   0  0  0  0  0  0  0  0  0  0  0  0
  146.1242  137.0525  153.0259 C   0  0  0  0  0  0  0  0  0  0  0  0
  145.4725  137.8270  154.1840 C   0  0  2  0  0  0  0  0  0  0  0  0
  144.1799  138.2678  153.8182 O   0  0  0  0  0  0  0  0  0  0  0  0
  146.3271  139.0348  154.6164 C   0  0  0  0  0  0  0  0  0  0  0  0
  150.9297  141.8168  157.3587 C   0  0  0  0  0  0  0  0  0  0  0  0
  150.6345  142.9322  158.1625 C   0  0  0  0  0  0  0  0  0  0  0  0
  151.3812  143.1616  159.3372 C   0  0  0  0  0  0  0  0  0  0  0  0
  151.0528  144.3668  160.2005 C   0  0  0  0  0  0  0  0  0  0  0  0
  153.9668  141.6934  161.1066 H   0  0  0  0  0  0  0  0  0  0  0  0
  152.5934  142.5243  161.8329 H   0  0  0  0  0  0  0  0  0  0  0  0
  153.7865  143.4340  160.8929 H   0  0  0  0  0  0  0  0  0  0  0  0
  153.5046  140.4723  159.1528 H   0  0  0  0  0  0  0  0  0  0  0  0
  150.9280  139.6073  155.0334 H   0  0  0  0  0  0  0  0  0  0  0  0
  148.4877  142.0997  156.0564 H   0  0  0  0  0  0  0  0  0  0  0  0
  149.6305  142.8007  154.9343 H   0  0  0  0  0  0  0  0  0  0  0  0
  148.9380  139.8614  154.6728 H   0  0  0  0  0  0  0  0  0  0  0  0
  149.5207  140.2587  152.5915 H   0  0  0  0  0  0  0  0  0  0  0  0
  146.8223  141.6209  154.6920 H   0  0  0  0  0  0  0  0  0  0  0  0
  147.3776  141.8693  153.0584 H   0  0  0  0  0  0  0  0  0  0  0  0
  147.6019  139.8219  151.5545 H   0  0  0  0  0  0  0  0  0  0  0  0
  148.3218  138.7873  152.7683 H   0  0  0  0  0  0  0  0  0  0  0  0
  145.6092  138.3875  151.4009 H   0  0  0  0  0  0  0  0  0  0  0  0
  147.0495  137.4440  151.1087 H   0  0  0  0  0  0  0  0  0  0  0  0
  145.4598  136.2657  152.6664 H   0  0  0  0  0  0  0  0  0  0  0  0
  147.0220  136.5523  153.3915 H   0  0  0  0  0  0  0  0  0  0  0  0
  145.3477  137.1570  155.0354 H   0  0  0  0  0  0  0  0  0  0  0  0
  144.2614  138.8846  153.1062 H   0  0  0  0  0  0  0  0  0  0  0  0
  147.2519  138.6861  155.0791 H   0  0  0  0  0  0  0  0  0  0  0  0
  145.7921  139.6058  155.3770 H   0  0  0  0  0  0  0  0  0  0  0  0
  149.8401  143.6062  157.8778 H   0  0  0  0  0  0  0  0  0  0  0  0
  150.2525  144.9638  159.7623 H   0  0  0  0  0  0  0  0  0  0  0  0
  151.9270  145.0089  160.3105 H   0  0  0  0  0  0  0  0  0  0  0  0
  150.7292  144.0489  161.1918 H   0  0  0  0  0  0  0  0  0  0  0  0
  145.7787  140.2114  153.0818 H   0  0  0  0  0  0  0  0  0  0  0  0
  1  2  1  0  0  0  0
  1 23  1  0  0  0  0
  1 24  1  0  0  0  0
  1 25  1  0  0  0  0
  2 21  1  0  0  0  0
  2  3  2  0  0  0  0
  3  4  1  0  0  0  0
  3 26  1  0  0  0  0
  4 19  2  0  0  0  0
  4  5  1  0  0  0  0
  5  6  2  0  0  0  0
  6  7  1  0  0  0  0
  6 27  1  0  0  0  0
  7  8  1  0  0  0  0
  7 19  1  0  0  0  0
  8  9  1  0  0  0  0
  8 28  1  0  0  0  0
  8 29  1  0  0  0  0
  9 10  1  0  0  0  0
  9 11  1  0  0  0  0
  9 30  1  0  0  0  0
 10 31  1  0  0  0  0
 11 12  1  0  0  0  0
 11 32  1  0  0  0  0
 11 33  1  0  0  0  0
 12 18  1  0  0  0  0
 12 13  1  0  0  0  0
 12 48  1  0  0  0  0
 13 14  1  0  0  0  0
 13 34  1  0  0  0  0
 13 35  1  0  0  0  0
 14 15  1  0  0  0  0
 14 36  1  0  0  0  0
 14 37  1  0  0  0  0
 15 16  1  0  0  0  0
 15 38  1  0  0  0  0
 15 39  1  0  0  0  0
 16 17  1  0  0  0  0
 16 18  1  0  0  0  0
 16 40  1  0  0  0  0
 17 41  1  0  0  0  0
 18 42  1  0  0  0  0
 18 43  1  0  0  0  0
 19 20  1  0  0  0  0
 20 21  2  0  0  0  0
 20 44  1  0  0  0  0
 21 22  1  0  0  0  0
 22 45  1  0  0  0  0
 22 46  1  0  0  0  0
 22 47  1  0  0  0  0
M  CHG  1  12   1
M  END
> <s_m_source_file>
AV-unprocessed.smi

> <i_m_source_file_index>
1487

> <i_lp_mmshare_version>
43012

> <i_f3d_flags>
0

> <s_epik_input>
W0NIM11jKFtjSF0xKWMoW0NIM10pW2NIXWMoYzEyKW4oW2NIXW4yKVtDSDJdW0NASF0oW09IXSlbQ0gyXU4zW0NIMl1bQ0gyXVtDSDJdW0NAQEhdKFtPSF0pW0NIMl0z

> <s_epik_cmdline>
J2VwaWtfcHl0aG9uJywgJy1waCcsICc3LjAnLCAnLXRuJywgJzgnLCAnLW1hJywgJzIwMCcsICctbWV0YWxfYmluZGluZycsICctaW1hZScsICc8aW5maWxlLm1hZT4nLCAnLW9tYWUnLCAnPG91dGZpbGUubWFlPic=

> <r_epik_Ionization_Penalty>
0.0940186

> <r_epik_Ionization_Penalty_Charging>
0.00679686

> <r_epik_Ionization_Penalty_Neutral>
0.0872218

> <r_epik_State_Penalty>
0.0799311

> <r_epik_Charging_Adjusted_Penalty>
0.086728

> <i_epik_Tot_Q>
1

> <i_epik_Tot_abs_Q>
1

> <r_epik_Metal_State_Penalty>
7.95545e-05

> <b_epik_Metal_Only>
0

> <s_lp_Force_Field>
OPLS_2005

> <r_lp_Energy>
22.5409

> <b_lp_Chiralities_Consistent>
1

> <s_lp_Variant>
AV-unprocessed.smi:1487-5

> <Gold.Version>
5.8.1

> <Gold.Id.Protein>
6NUR|6NUR_protein|mol2

> <Gold.PLP.Fitness>
56.1407

> <Gold.PLP.PLP>
-43.3782

> <Gold.PLP.part.hbond>
-4.0986

> <Gold.PLP.part.metal>
0.0000

> <Gold.PLP.part.buried>
-1.1631

> <Gold.PLP.part.nonpolar>
-38.6981

> <Gold.PLP.part.repulsive>
0.0000

> <Gold.PLP.ligand.clash>
0.0000

> <Gold.PLP.ligand.torsion>
0.8246

> <Gold.PLP.Chemscore.Hbond>
4.7888

> <Gold.PLP.Chemscore.CHOScore>
0.0000

> <Gold.PLP.Chemscore.Metal>
0.0000

> <Gold.Chemscore.Hbonds>
donor molecule, donor type, donor heavy atom, donor atom, acceptor molecule, acceptor atom, score
      L1  H    10    31       P1  7957  0.54
      L1  H    12    48       P1 10175  1.17
      L1  H    17    41       P1 10175  0.88
      P1  H  7989  7998       L1    10  0.13
      P1  H  7997  8009       L1     5  0.29
      P1  H  8011  8017       L1    10  1.00

> <Gold.PLP.Chemscore.Internal.Correction>
0.0451

> <Gold.Rescore>
     Score         DG    S(hbond)    S(metal)    S(lipo)     H(rot)  DE(clash)    DE(int)     intcor
     21.91     -24.11       3.43        0.00     119.86       2.67       1.40       0.79       ----

> <Gold.Chemscore.Fitness>
21.9146

> <Gold.Chemscore.DG>
-24.1068

> <Gold.Chemscore.ZeroCoef>
-5.4800

> <Gold.Chemscore.Hbond>
3.4255

> <Gold.Chemscore.Metal>
0.0000

> <Gold.Chemscore.Lipo>
119.8623

> <Gold.Chemscore.Internal_Hbond>
0.0000

> <Gold.Chemscore.DEClash>
1.4047

> <Gold.Chemscore.DEInternal>
0.7875

> <Gold.Chemscore.Rot>
2.6712

> <Gold.Chemscore.Internal.Correction>
   9.000000E+99

> <Gold.Chemscore.Hbonds>
donor molecule, donor type, donor heavy atom, donor atom, acceptor molecule, acceptor atom, score
      L1  H    10    31       P1  7957  0.52
      L1  H    12    48       P1 10175  0.57
      L1  H    17    41       P1 10175  0.87
      P1  H  7989  7998       L1    10  0.04
      P1  H  7997  8009       L1     5  0.04
      P1  H  8011  8017       L1    10  0.84

> <Gold.Chemscore.Hbond.Weighted>
-11.4412

> <Gold.Chemscore.Metal.Weighted>
-0.0000

> <Gold.Chemscore.Lipo.Weighted>
-14.0239

> <Gold.Chemscore.Internal_Hbond.Weighted>
0.0000

> <Gold.Chemscore.DEClash.Weighted>
1.4047

> <Gold.Chemscore.DEInternal.Weighted>
0.7875

> <Gold.Chemscore.Rot.Weighted>
6.8383

> <Gold.Chemscore.Internal.Correction.Weighted>
   9.000000E+99

> <Gold.Protein.RotatedTorsions>
[ 6907 6896 6895 6894 ] final  129.02 input  -60.11 | X-H torsion
[ 7974 7965 7964 7962 ] final -152.22 input  175.53 | X-H torsion
[ 8008 7997 7996 7995 ] final -166.99 input   59.86 | X-H torsion
[ 10167 10162 10161 10158 ] final   55.65 input  -65.29 | X-H torsion
[ 10718 10713 10712 10709 ] final  168.38 input   66.30 | X-H torsion
[ 10763 10752 10751 10750 ] final  170.52 input  -60.55 | X-H torsion
[ 11005 11000 10999 10996 ] final  -80.31 input  -57.11 | X-H torsion

> <Gold.Protein.ActiveResidues>
 VAL166  LYS551  ARG553  GLY616  TRP617  ASP618  TYR619  PRO620  LYS621  CYS622 
 ASP623  PHE694  ASN695  SER759  ASP760  ASP761  ALA762  ILE779  LEU786  VAL792 
 PHE793  MET794  SER795  GLU796  ALA797  LYS798  CYS799  TRP800  GLU811  SER814 

> <Gold.Protein.RotatedAtoms>
  152.3664  133.6362  159.6053 H   0  0  0  0  0  0  0  0  0  0  0  0  # atno 6907 bound_to 6896
  150.7637  133.9341  159.3445 H   0  0  0  0  0  0  0  0  0  0  0  0  # atno 6908 bound_to 6896
  151.7171  135.0902  160.0329 H   0  0  0  0  0  0  0  0  0  0  0  0  # atno 6909 bound_to 6896
  144.7806  140.4692  143.5842 H   0  0  0  0  0  0  0  0  0  0  0  0  # atno 7974 bound_to 7965
  155.8715  140.0994  157.1547 H   0  0  0  0  0  0  0  0  0  0  0  0  # atno 8008 bound_to 7997
  154.3997  140.1346  156.4147 H   0  0  0  0  0  0  0  0  0  0  0  0  # atno 8009 bound_to 7997
  155.7745  140.3460  155.5267 H   0  0  0  0  0  0  0  0  0  0  0  0  # atno 8010 bound_to 7997
  140.2172  144.3827  150.6465 H   0  0  0  0  0  0  0  0  0  0  0  0  # atno 10167 bound_to 10162
  157.0379  131.0278  151.2723 H   0  0  0  0  0  0  0  0  0  0  0  0  # atno 10718 bound_to 10713
  154.3987  135.2755  155.2110 H   0  0  0  0  0  0  0  0  0  0  0  0  # atno 10763 bound_to 10752
  154.4145  135.6014  153.5976 H   0  0  0  0  0  0  0  0  0  0  0  0  # atno 10764 bound_to 10752
  152.9831  135.5957  154.4252 H   0  0  0  0  0  0  0  0  0  0  0  0  # atno 10765 bound_to 10752
  141.1668  133.7144  156.8254 H   0  0  0  0  0  0  0  0  0  0  0  0  # atno 11005 bound_to 11000
  145.6061  139.1508  143.3102 LP  0  0  0  0  0  0  0  0  0  0  0  0  # atno 17320 bound_to 7965
  146.2012  140.6180  142.9101 LP  0  0  0  0  0  0  0  0  0  0  0  0  # atno 17321 bound_to 7965
  140.6281  143.2184  151.6553 LP  0  0  0  0  0  0  0  0  0  0  0  0  # atno 17342 bound_to 10162
  139.5157  144.3368  152.0776 LP  0  0  0  0  0  0  0  0  0  0  0  0  # atno 17343 bound_to 10162
  157.5127  130.7949  149.7723 LP  0  0  0  0  0  0  0  0  0  0  0  0  # atno 17370 bound_to 10713
  156.0048  130.3861  150.2472 LP  0  0  0  0  0  0  0  0  0  0  0  0  # atno 17371 bound_to 10713
  140.2089  134.8842  157.3253 LP  0  0  0  0  0  0  0  0  0  0  0  0  # atno 17394 bound_to 11000
  140.2107  134.4141  155.7614 LP  0  0  0  0  0  0  0  0  0  0  0  0  # atno 17395 bound_to 11000

$$$$
