AV-unprocessed.smi:1111|AV-procd|sdf|4793|dock1
  -GOLD-   22720 3343D 1   1.00000     0.00000
 Structure written by MMmdl.
 32 33  0  0  0  0  0  0  0  0  1 V2000
  148.1797  139.8778  156.6079 C   0  0  0  0  0  0  0  0  0  0  0  0
  149.6821  139.8179  156.2618 C   0  0  2  0  0  0  0  0  0  0  0  0
  150.2919  141.1493  156.3616 N   0  0  0  0  0  0  0  0  0  0  0  0
  150.4201  141.9324  157.4466 C   0  0  0  0  0  0  0  0  0  0  0  0
  149.9370  141.6722  158.5476 O   0  0  0  0  0  0  0  0  0  0  0  0
  151.2540  143.1988  157.2595 C   0  0  0  0  0  0  0  0  0  0  0  0
  151.4020  143.9023  158.5204 N   0  0  0  0  0  0  0  0  0  0  0  0
  150.8768  145.1439  158.8572 C   0  0  0  0  0  0  0  0  0  0  0  0
  151.2939  145.4115  160.1415 C   0  0  0  0  0  0  0  0  0  0  0  0
  152.0701  144.3553  160.6124 N   0  0  0  0  0  0  0  0  0  0  0  0
  152.0915  143.5009  159.5976 C   0  0  0  0  0  0  0  0  0  0  0  0
  149.8783  139.3387  154.8036 C   0  0  0  0  0  0  0  0  0  0  0  0
  151.3440  138.9376  154.5847 C   0  0  0  0  0  0  0  0  0  0  0  0
  151.9363  138.3138  156.2008 S   0  0  0  0  0  0  0  0  0  0  0  0
  152.0287  136.8464  156.1638 O   0  0  0  0  0  0  0  0  0  0  0  0
  153.0758  139.1355  156.6362 O   0  0  0  0  0  0  0  0  0  0  0  0
  150.4408  138.7999  157.1432 C   0  0  0  0  0  0  0  0  0  0  0  0
  147.6959  138.9158  156.4355 H   0  0  0  0  0  0  0  0  0  0  0  0
  147.6623  140.6183  155.9971 H   0  0  0  0  0  0  0  0  0  0  0  0
  148.0122  140.1344  157.6539 H   0  0  0  0  0  0  0  0  0  0  0  0
  150.7301  141.4857  155.5164 H   0  0  0  0  0  0  0  0  0  0  0  0
  152.2415  142.9461  156.8711 H   0  0  0  0  0  0  0  0  0  0  0  0
  150.7790  143.8615  156.5349 H   0  0  0  0  0  0  0  0  0  0  0  0
  150.2722  145.7212  158.1734 H   0  0  0  0  0  0  0  0  0  0  0  0
  151.0985  146.2770  160.7572 H   0  0  0  0  0  0  0  0  0  0  0  0
  152.6252  142.5624  159.6369 H   0  0  0  0  0  0  0  0  0  0  0  0
  149.2581  138.4575  154.6327 H   0  0  0  0  0  0  0  0  0  0  0  0
  149.5575  140.0865  154.0770 H   0  0  0  0  0  0  0  0  0  0  0  0
  151.4659  138.1732  153.8174 H   0  0  0  0  0  0  0  0  0  0  0  0
  151.9502  139.8027  154.3149 H   0  0  0  0  0  0  0  0  0  0  0  0
  150.7224  139.1678  158.1295 H   0  0  0  0  0  0  0  0  0  0  0  0
  149.8431  137.8992  157.2855 H   0  0  0  0  0  0  0  0  0  0  0  0
  1  2  1  0  0  0  0
  1 18  1  0  0  0  0
  1 19  1  0  0  0  0
  1 20  1  0  0  0  0
  2 17  1  0  0  0  0
  2  3  1  0  0  0  0
  2 12  1  0  0  0  0
  3  4  1  0  0  0  0
  3 21  1  0  0  0  0
  4  5  2  0  0  0  0
  4  6  1  0  0  0  0
  6  7  1  0  0  0  0
  6 22  1  0  0  0  0
  6 23  1  0  0  0  0
  7 11  1  0  0  0  0
  7  8  1  0  0  0  0
  8  9  2  0  0  0  0
  8 24  1  0  0  0  0
  9 10  1  0  0  0  0
  9 25  1  0  0  0  0
 10 11  2  0  0  0  0
 11 26  1  0  0  0  0
 12 13  1  0  0  0  0
 12 27  1  0  0  0  0
 12 28  1  0  0  0  0
 13 14  1  0  0  0  0
 13 29  1  0  0  0  0
 13 30  1  0  0  0  0
 14 15  2  0  0  0  0
 14 16  2  0  0  0  0
 14 17  1  0  0  0  0
 17 31  1  0  0  0  0
 17 32  1  0  0  0  0
M  END
> <s_m_source_file>
AV-unprocessed.smi

> <i_m_source_file_index>
1111

> <i_lp_mmshare_version>
43012

> <i_f3d_flags>
0

> <s_epik_input>
Tz1TKD1PKShbQ0gyXTEpW0NIMl1bQ0gyXVtDQEBdMShbQ0gzXSlbTkhdQyg9TylbQ0gyXW4yW2NIXVtjSF1uW2NIXTI=

> <s_epik_cmdline>
J2VwaWtfcHl0aG9uJywgJy1waCcsICc3LjAnLCAnLXRuJywgJzgnLCAnLW1hJywgJzIwMCcsICctbWV0YWxfYmluZGluZycsICctaW1hZScsICc8aW5maWxlLm1hZT4nLCAnLW9tYWUnLCAnPG91dGZpbGUubWFlPic=

> <r_lp_tautomer_probability>
1

> <r_epik_Ionization_Penalty>
0.246342

> <r_epik_Ionization_Penalty_Charging>
0.246341

> <r_epik_Ionization_Penalty_Neutral>
5.91248e-07

> <r_epik_State_Penalty>
0.237514

> <r_epik_Charging_Adjusted_Penalty>
0.483856

> <i_epik_Tot_Q>
0

> <i_epik_Tot_abs_Q>
0

> <r_epik_Metal_State_Penalty>
0.166715

> <b_epik_Metal_Only>
0

> <s_lp_Force_Field>
OPLS_2005

> <r_lp_Energy>
5.38439

> <b_lp_Chiralities_Consistent>
1

> <s_lp_Variant>
AV-unprocessed.smi:1111-2

> <Gold.Version>
5.8.1

> <Gold.Id.Protein>
6NUR|6NUR_protein|mol2

> <Gold.PLP.Fitness>
39.4492

> <Gold.PLP.PLP>
-30.6175

> <Gold.PLP.part.hbond>
-1.9740

> <Gold.PLP.part.metal>
0.0000

> <Gold.PLP.part.buried>
-5.1652

> <Gold.PLP.part.nonpolar>
-24.3578

> <Gold.PLP.part.repulsive>
0.1820

> <Gold.PLP.ligand.clash>
0.0000

> <Gold.PLP.ligand.torsion>
0.0809

> <Gold.PLP.Chemscore.Hbond>
1.9913

> <Gold.PLP.Chemscore.CHOScore>
0.9999

> <Gold.PLP.Chemscore.Metal>
0.0000

> <Gold.Chemscore.Hbonds>
donor molecule, donor type, donor heavy atom, donor atom, acceptor molecule, acceptor atom, score
      P1  H  7997  8008       L1    16  1.00
      P1  H 10752 10765       L1    15  0.80
      L1  C     8    24       P1  8029  1.00

> <Gold.PLP.Chemscore.Internal.Correction>
0.0201

> <Gold.Rescore>
     Score         DG    S(hbond)    S(metal)    S(lipo)     H(rot)  DE(clash)    DE(int)     intcor
     13.66     -13.90       1.94        0.00      54.34       1.73       0.01       0.22       ----

> <Gold.Chemscore.Fitness>
13.6633

> <Gold.Chemscore.DG>
-13.8964

> <Gold.Chemscore.ZeroCoef>
-5.4800

> <Gold.Chemscore.Hbond>
1.9446

> <Gold.Chemscore.Metal>
0.0000

> <Gold.Chemscore.Lipo>
54.3362

> <Gold.Chemscore.Internal_Hbond>
0.0000

> <Gold.Chemscore.DEClash>
0.0149

> <Gold.Chemscore.DEInternal>
0.2182

> <Gold.Chemscore.Rot>
1.7328

> <Gold.Chemscore.Internal.Correction>
   9.000000E+99

> <Gold.Chemscore.Hbonds>
donor molecule, donor type, donor heavy atom, donor atom, acceptor molecule, acceptor atom, score
      P1  H  7997  8008       L1    16  0.97
      P1  H 10752 10765       L1    15  0.75

> <Gold.Chemscore.Hbond.Weighted>
-6.4951

> <Gold.Chemscore.Metal.Weighted>
-0.0000

> <Gold.Chemscore.Lipo.Weighted>
-6.3573

> <Gold.Chemscore.Internal_Hbond.Weighted>
0.0000

> <Gold.Chemscore.DEClash.Weighted>
0.0149

> <Gold.Chemscore.DEInternal.Weighted>
0.2182

> <Gold.Chemscore.Rot.Weighted>
4.4360

> <Gold.Chemscore.Internal.Correction.Weighted>
   9.000000E+99

> <Gold.Protein.RotatedTorsions>
[ 6907 6896 6895 6894 ] final   88.16 input  -60.11 | X-H torsion
[ 7974 7965 7964 7962 ] final -144.59 input  175.53 | X-H torsion
[ 8008 7997 7996 7995 ] final  -37.80 input   59.86 | X-H torsion
[ 10167 10162 10161 10158 ] final -131.75 input  -65.29 | X-H torsion
[ 10718 10713 10712 10709 ] final  146.46 input   66.30 | X-H torsion
[ 10763 10752 10751 10750 ] final -140.34 input  -60.55 | X-H torsion
[ 11005 11000 10999 10996 ] final  178.68 input  -57.11 | X-H torsion

> <Gold.Protein.ActiveResidues>
 VAL166  LYS551  ARG553  GLY616  TRP617  ASP618  TYR619  PRO620  LYS621  CYS622 
 ASP623  PHE694  ASN695  SER759  ASP760  ASP761  ALA762  ILE779  LEU786  VAL792 
 PHE793  MET794  SER795  GLU796  ALA797  LYS798  CYS799  TRP800  GLU811  SER814 

> <Gold.Protein.RotatedAtoms>
  152.5421  134.2164  159.8770 H   0  0  0  0  0  0  0  0  0  0  0  0  # atno 6907 bound_to 6896
  151.2144  133.4531  159.2606 H   0  0  0  0  0  0  0  0  0  0  0  0  # atno 6908 bound_to 6896
  151.0866  134.9903  159.8438 H   0  0  0  0  0  0  0  0  0  0  0  0  # atno 6909 bound_to 6896
  144.8287  140.5691  143.5530 H   0  0  0  0  0  0  0  0  0  0  0  0  # atno 7974 bound_to 7965
  154.4047  140.1594  156.2596 H   0  0  0  0  0  0  0  0  0  0  0  0  # atno 8008 bound_to 7997
  155.9048  140.3431  155.6031 H   0  0  0  0  0  0  0  0  0  0  0  0  # atno 8009 bound_to 7997
  155.7405  140.0792  157.2238 H   0  0  0  0  0  0  0  0  0  0  0  0  # atno 8010 bound_to 7997
  139.9157  143.6441  152.2565 H   0  0  0  0  0  0  0  0  0  0  0  0  # atno 10167 bound_to 10162
  157.3329  131.0923  151.1147 H   0  0  0  0  0  0  0  0  0  0  0  0  # atno 10718 bound_to 10713
  154.8581  135.3556  154.5692 H   0  0  0  0  0  0  0  0  0  0  0  0  # atno 10763 bound_to 10752
  153.6305  135.7002  153.5282 H   0  0  0  0  0  0  0  0  0  0  0  0  # atno 10764 bound_to 10752
  153.3054  135.4194  155.1248 H   0  0  0  0  0  0  0  0  0  0  0  0  # atno 10765 bound_to 10752
  140.3978  134.6804  157.4545 H   0  0  0  0  0  0  0  0  0  0  0  0  # atno 11005 bound_to 11000
  145.4943  139.1487  143.3692 LP  0  0  0  0  0  0  0  0  0  0  0  0  # atno 17320 bound_to 7965
  146.2591  140.5082  142.8861 LP  0  0  0  0  0  0  0  0  0  0  0  0  # atno 17321 bound_to 7965
  139.6904  144.7647  151.1448 LP  0  0  0  0  0  0  0  0  0  0  0  0  # atno 17342 bound_to 10162
  140.7674  143.5597  150.9113 LP  0  0  0  0  0  0  0  0  0  0  0  0  # atno 17343 bound_to 10162
  157.2388  130.6560  149.5881 LP  0  0  0  0  0  0  0  0  0  0  0  0  # atno 17370 bound_to 10713
  155.9698  130.4575  150.5964 LP  0  0  0  0  0  0  0  0  0  0  0  0  # atno 17371 bound_to 10713
  140.0358  134.6339  155.9045 LP  0  0  0  0  0  0  0  0  0  0  0  0  # atno 17394 bound_to 11000
  141.1868  133.6558  156.5253 LP  0  0  0  0  0  0  0  0  0  0  0  0  # atno 17395 bound_to 11000

$$$$
