AV-unprocessed.smi:2775|AV-procd|sdf|10693|dock7
  -GOLD-   2272015133D 1   1.00000     0.00000
 Structure written by MMmdl.
 42 45  0  0  0  0  0  0  0  0  1 V2000
  142.2770  145.7263  159.1114 C   0  0  0  0  0  0  0  0  0  0  0  0
  143.5055  145.0100  159.6400 C   0  0  0  0  0  0  0  0  0  0  0  0
  143.4832  144.7017  160.9548 N   0  0  0  0  0  0  0  0  0  0  0  0
  144.5489  144.0582  161.4736 C   0  0  0  0  0  0  0  0  0  0  0  0
  145.6810  143.6979  160.7180 C   0  0  0  0  0  0  0  0  0  0  0  0
  145.7136  144.0319  159.3428 C   0  0  0  0  0  0  0  0  0  0  0  0
  146.7912  143.7111  158.4725 N   0  0  0  0  0  0  0  0  0  0  0  0
  147.5421  142.5951  158.3991 C   0  0  0  0  0  0  0  0  0  0  0  0
  147.4162  141.6092  159.1215 O   0  0  0  0  0  0  0  0  0  0  0  0
  148.4885  142.6435  157.4451 N   0  0  0  0  0  0  0  0  0  0  0  0
  149.4623  141.6031  157.1090 C   0  0  1  0  0  0  0  0  0  0  0  0
  149.7123  141.4994  155.5928 C   0  0  2  0  0  0  0  0  0  0  0  0
  149.3435  140.2383  154.8593 C   0  0  0  0  0  0  0  0  0  0  0  0
  150.6714  139.4781  154.7963 C   0  0  0  0  0  0  0  0  0  0  0  0
  151.4491  140.0205  155.8610 O   0  0  0  0  0  0  0  0  0  0  0  0
  151.2036  141.4229  155.9007 C   0  0  2  0  0  0  0  0  0  0  0  0
  150.9399  142.0107  157.2923 C   0  0  0  0  0  0  0  0  0  0  0  0
  151.3779  143.4524  157.6143 C   0  0  0  0  0  0  0  0  0  0  0  0
  151.7085  142.9921  159.0367 C   0  0  0  0  0  0  0  0  0  0  0  0
  151.7500  141.5533  158.5135 C   0  0  0  0  0  0  0  0  0  0  0  0
  144.5919  144.6945  158.7911 C   0  0  0  0  0  0  0  0  0  0  0  0
  144.5512  145.1151  157.1105 Cl  0  0  0  0  0  0  0  0  0  0  0  0
  142.5531  146.6958  158.6965 H   0  0  0  0  0  0  0  0  0  0  0  0
  141.5395  145.8937  159.8975 H   0  0  0  0  0  0  0  0  0  0  0  0
  141.8044  145.1364  158.3259 H   0  0  0  0  0  0  0  0  0  0  0  0
  144.4961  143.8170  162.5251 H   0  0  0  0  0  0  0  0  0  0  0  0
  146.4842  143.1692  161.2059 H   0  0  0  0  0  0  0  0  0  0  0  0
  147.0609  144.4539  157.8440 H   0  0  0  0  0  0  0  0  0  0  0  0
  148.5366  143.4892  156.8952 H   0  0  0  0  0  0  0  0  0  0  0  0
  149.2498  140.6235  157.5428 H   0  0  0  0  0  0  0  0  0  0  0  0
  149.4653  142.4220  155.0639 H   0  0  0  0  0  0  0  0  0  0  0  0
  148.5968  139.6690  155.4138 H   0  0  0  0  0  0  0  0  0  0  0  0
  148.9446  140.4329  153.8635 H   0  0  0  0  0  0  0  0  0  0  0  0
  150.5452  138.4003  154.9003 H   0  0  0  0  0  0  0  0  0  0  0  0
  151.1796  139.6734  153.8509 H   0  0  0  0  0  0  0  0  0  0  0  0
  151.8326  142.0111  155.2309 H   0  0  0  0  0  0  0  0  0  0  0  0
  152.2693  143.7516  157.0610 H   0  0  0  0  0  0  0  0  0  0  0  0
  150.6028  144.2159  157.5522 H   0  0  0  0  0  0  0  0  0  0  0  0
  152.6577  143.3621  159.4250 H   0  0  0  0  0  0  0  0  0  0  0  0
  150.8922  143.1654  159.7386 H   0  0  0  0  0  0  0  0  0  0  0  0
  151.2469  140.8251  159.1501 H   0  0  0  0  0  0  0  0  0  0  0  0
  152.7585  141.2300  158.2510 H   0  0  0  0  0  0  0  0  0  0  0  0
  1  2  1  0  0  0  0
  1 23  1  0  0  0  0
  1 24  1  0  0  0  0
  1 25  1  0  0  0  0
  2 21  1  0  0  0  0
  2  3  2  0  0  0  0
  3  4  1  0  0  0  0
  4  5  2  0  0  0  0
  4 26  1  0  0  0  0
  5  6  1  0  0  0  0
  5 27  1  0  0  0  0
  6  7  1  0  0  0  0
  6 21  2  0  0  0  0
  7  8  1  0  0  0  0
  7 28  1  0  0  0  0
  8  9  2  0  0  0  0
  8 10  1  0  0  0  0
 10 11  1  0  0  0  0
 10 29  1  0  0  0  0
 11 17  1  0  0  0  0
 11 12  1  0  0  0  0
 11 30  1  0  0  0  0
 12 16  1  0  0  0  0
 12 13  1  0  0  0  0
 12 31  1  0  0  0  0
 13 14  1  0  0  0  0
 13 32  1  0  0  0  0
 13 33  1  0  0  0  0
 14 15  1  0  0  0  0
 14 34  1  0  0  0  0
 14 35  1  0  0  0  0
 15 16  1  0  0  0  0
 16 17  1  0  0  0  0
 16 36  1  0  0  0  0
 17 20  1  0  0  0  0
 17 18  1  0  0  0  0
 18 19  1  0  0  0  0
 18 37  1  0  0  0  0
 18 38  1  0  0  0  0
 19 20  1  0  0  0  0
 19 39  1  0  0  0  0
 19 40  1  0  0  0  0
 20 41  1  0  0  0  0
 20 42  1  0  0  0  0
 21 22  1  0  0  0  0
M  END
> <s_m_source_file>
AV-unprocessed.smi

> <i_m_source_file_index>
2775

> <i_lp_mmshare_version>
43012

> <i_f3d_flags>
0

> <s_epik_input>
W0NIM11jMW5bY0hdW2NIXWMoYzFDbClbTkhdQyg9TylbTkhdW0NAQEhdMltDQEhdKFtDSDJdW0NIMl1PMylbQ0BASF0zQzI0W0NIMl1bQ0gyXVtDSDJdNA==

> <s_epik_cmdline>
J2VwaWtfcHl0aG9uJywgJy1waCcsICc3LjAnLCAnLXRuJywgJzgnLCAnLW1hJywgJzIwMCcsICctbWV0YWxfYmluZGluZycsICctaW1hZScsICc8aW5maWxlLm1hZT4nLCAnLW9tYWUnLCAnPG91dGZpbGUubWFlPic=

> <r_epik_Ionization_Penalty>
0.01026

> <r_epik_Ionization_Penalty_Charging>
0

> <r_epik_Ionization_Penalty_Neutral>
0.01026

> <r_epik_State_Penalty>
0.00780685

> <r_epik_Charging_Adjusted_Penalty>
0.00780685

> <i_epik_Tot_Q>
0

> <i_epik_Tot_abs_Q>
0

> <r_epik_Metal_State_Penalty>
0.00767411

> <b_epik_Metal_Only>
0

> <s_lp_Force_Field>
OPLS_2005

> <r_lp_Energy>
55.7344

> <b_lp_Chiralities_Consistent>
1

> <s_lp_Variant>
AV-unprocessed.smi:2775-6

> <Gold.Version>
5.8.1

> <Gold.Id.Protein>
6NUR|6NUR_protein|mol2

> <Gold.PLP.Fitness>
37.2385

> <Gold.PLP.PLP>
-30.9381

> <Gold.PLP.part.hbond>
-3.4729

> <Gold.PLP.part.metal>
0.0000

> <Gold.PLP.part.buried>
-2.6066

> <Gold.PLP.part.nonpolar>
-25.0668

> <Gold.PLP.part.repulsive>
0.3506

> <Gold.PLP.ligand.clash>
0.0000

> <Gold.PLP.ligand.torsion>
0.4748

> <Gold.PLP.Chemscore.Hbond>
2.3520

> <Gold.PLP.Chemscore.CHOScore>
0.0000

> <Gold.PLP.Chemscore.Metal>
0.0000

> <Gold.Chemscore.Hbonds>
donor molecule, donor type, donor heavy atom, donor atom, acceptor molecule, acceptor atom, score
      L1  H     7    28       P1  8029  1.00
      L1  H    10    29       P1  8028  1.00
      P1  H  6934  6946       L1     9  0.35

> <Gold.PLP.Chemscore.Internal.Correction>
0.1940

> <Gold.Rescore>
     Score         DG    S(hbond)    S(metal)    S(lipo)     H(rot)  DE(clash)    DE(int)     intcor
     16.43     -17.13       1.13        0.00      89.17       1.00       0.23       0.47       ----

> <Gold.Chemscore.Fitness>
16.4285

> <Gold.Chemscore.DG>
-17.1286

> <Gold.Chemscore.ZeroCoef>
-5.4800

> <Gold.Chemscore.Hbond>
1.1304

> <Gold.Chemscore.Metal>
0.0000

> <Gold.Chemscore.Lipo>
89.1717

> <Gold.Chemscore.Internal_Hbond>
0.0000

> <Gold.Chemscore.DEClash>
0.2349

> <Gold.Chemscore.DEInternal>
0.4651

> <Gold.Chemscore.Rot>
1.0000

> <Gold.Chemscore.Internal.Correction>
   9.000000E+99

> <Gold.Chemscore.Hbonds>
donor molecule, donor type, donor heavy atom, donor atom, acceptor molecule, acceptor atom, score
      L1  H     7    28       P1  8029  0.25
      L1  H    10    29       P1  8028  0.26
      P1  H  6934  6946       L1     9  0.34

> <Gold.Chemscore.Hbond.Weighted>
-3.7755

> <Gold.Chemscore.Metal.Weighted>
-0.0000

> <Gold.Chemscore.Lipo.Weighted>
-10.4331

> <Gold.Chemscore.Internal_Hbond.Weighted>
0.0000

> <Gold.Chemscore.DEClash.Weighted>
0.2349

> <Gold.Chemscore.DEInternal.Weighted>
0.4651

> <Gold.Chemscore.Rot.Weighted>
2.5600

> <Gold.Chemscore.Internal.Correction.Weighted>
   9.000000E+99

> <Gold.Protein.RotatedTorsions>
[ 6907 6896 6895 6894 ] final  169.05 input  -60.11 | X-H torsion
[ 7974 7965 7964 7962 ] final   23.05 input  175.53 | X-H torsion
[ 8008 7997 7996 7995 ] final -112.47 input   59.86 | X-H torsion
[ 10167 10162 10161 10158 ] final  -44.80 input  -65.29 | X-H torsion
[ 10718 10713 10712 10709 ] final  -71.97 input   66.30 | X-H torsion
[ 10763 10752 10751 10750 ] final -162.49 input  -60.55 | X-H torsion
[ 11005 11000 10999 10996 ] final  159.58 input  -57.11 | X-H torsion

> <Gold.Protein.ActiveResidues>
 VAL166  LYS551  ARG553  GLY616  TRP617  ASP618  TYR619  PRO620  LYS621  CYS622 
 ASP623  PHE694  ASN695  SER759  ASP760  ASP761  ALA762  ILE779  LEU786  VAL792 
 PHE793  MET794  SER795  GLU796  ALA797  LYS798  CYS799  TRP800  GLU811  SER814 

> <Gold.Protein.RotatedAtoms>
  151.8380  133.3419  159.3633 H   0  0  0  0  0  0  0  0  0  0  0  0  # atno 6907 bound_to 6896
  150.7243  134.5419  159.5761 H   0  0  0  0  0  0  0  0  0  0  0  0  # atno 6908 bound_to 6896
  152.2886  134.7748  160.0433 H   0  0  0  0  0  0  0  0  0  0  0  0  # atno 6909 bound_to 6896
  146.2001  139.7799  142.8767 H   0  0  0  0  0  0  0  0  0  0  0  0  # atno 7974 bound_to 7965
  155.0057  140.0394  157.2378 H   0  0  0  0  0  0  0  0  0  0  0  0  # atno 8008 bound_to 7997
  154.7505  140.2766  155.6274 H   0  0  0  0  0  0  0  0  0  0  0  0  # atno 8009 bound_to 7997
  156.2884  140.2648  156.2257 H   0  0  0  0  0  0  0  0  0  0  0  0  # atno 8010 bound_to 7997
  140.6883  143.2912  151.3547 H   0  0  0  0  0  0  0  0  0  0  0  0  # atno 10167 bound_to 10162
  156.0340  130.4362  150.2523 H   0  0  0  0  0  0  0  0  0  0  0  0  # atno 10718 bound_to 10713
  154.7209  135.3025  154.9049 H   0  0  0  0  0  0  0  0  0  0  0  0  # atno 10763 bound_to 10752
  153.9921  135.6717  153.4759 H   0  0  0  0  0  0  0  0  0  0  0  0  # atno 10764 bound_to 10752
  153.0833  135.4997  154.8464 H   0  0  0  0  0  0  0  0  0  0  0  0  # atno 10765 bound_to 10752
  140.1976  134.8361  157.2982 H   0  0  0  0  0  0  0  0  0  0  0  0  # atno 11005 bound_to 11000
  145.3511  141.0307  143.3338 LP  0  0  0  0  0  0  0  0  0  0  0  0  # atno 17320 bound_to 7965
  144.8666  139.5099  143.6787 LP  0  0  0  0  0  0  0  0  0  0  0  0  # atno 17321 bound_to 7965
  139.6261  144.0811  152.2435 LP  0  0  0  0  0  0  0  0  0  0  0  0  # atno 17342 bound_to 10162
  140.0271  144.6109  150.7518 LP  0  0  0  0  0  0  0  0  0  0  0  0  # atno 17343 bound_to 10162
  157.0623  131.0093  151.3218 LP  0  0  0  0  0  0  0  0  0  0  0  0  # atno 17370 bound_to 10713
  157.5061  130.7910  149.7655 LP  0  0  0  0  0  0  0  0  0  0  0  0  # atno 17371 bound_to 10713
  140.2090  134.4162  155.7623 LP  0  0  0  0  0  0  0  0  0  0  0  0  # atno 17394 bound_to 11000
  141.2227  133.7109  156.8307 LP  0  0  0  0  0  0  0  0  0  0  0  0  # atno 17395 bound_to 11000

$$$$
