AV-unprocessed.smi:2055|AV-procd|sdf|8335|dock2
  -GOLD-   2272011 03D 1   1.00000     0.00000
 Structure written by MMmdl.
 43 44  0  0  0  0  0  0  0  0  1 V2000
  150.1124  132.8996  152.9344 C   0  0  0  0  0  0  0  0  0  0  0  0
  150.7760  133.7396  154.0365 C   0  0  1  0  0  0  0  0  0  0  0  0
  152.2513  133.3513  154.2613 C   0  0  0  0  0  0  0  0  0  0  0  0
  152.3624  131.9741  154.5511 O   0  0  0  0  0  0  0  0  0  0  0  0
  150.6755  135.1531  153.6842 N   0  0  0  0  0  0  0  0  0  0  0  0
  151.4084  136.1391  154.2201 C   0  0  0  0  0  0  0  0  0  0  0  0
  152.2478  135.9748  155.1053 O   0  0  0  0  0  0  0  0  0  0  0  0
  151.1358  137.3232  153.6546 N   0  0  0  0  0  0  0  0  0  0  0  0
  151.8172  138.5752  153.9712 C   0  0  0  0  0  0  0  0  0  0  0  0
  150.9961  139.5767  154.7770 C   0  0  0  0  0  0  0  0  0  0  0  0
  149.6057  139.6522  154.5683 C   0  0  0  0  0  0  0  0  0  0  0  0
  148.8630  140.5840  155.3156 C   0  0  0  0  0  0  0  0  0  0  0  0
  149.4161  141.4107  156.2268 N   0  0  0  0  0  0  0  0  0  0  0  0
  150.7523  141.3531  156.4412 C   0  0  0  0  0  0  0  0  0  0  0  0
  151.2719  142.2249  157.4237 N   0  0  0  0  0  0  0  0  0  0  0  0
  150.6401  143.5275  157.6154 C   0  0  0  0  0  0  0  0  0  0  0  0
  151.5484  144.4479  158.4477 C   0  0  0  0  0  0  0  0  0  0  0  0
  151.8883  143.8077  159.6727 O   0  0  0  0  0  0  0  0  0  0  0  0
  152.6164  142.6039  159.4540 C   0  0  0  0  0  0  0  0  0  0  0  0
  151.7545  141.6087  158.6583 C   0  0  0  0  0  0  0  0  0  0  0  0
  151.5782  140.4505  155.7243 C   0  0  0  0  0  0  0  0  0  0  0  0
  150.1297  131.8380  153.1823 H   0  0  0  0  0  0  0  0  0  0  0  0
  150.6206  133.0256  151.9780 H   0  0  0  0  0  0  0  0  0  0  0  0
  149.0691  133.1852  152.7980 H   0  0  0  0  0  0  0  0  0  0  0  0
  150.2223  133.5775  154.9636 H   0  0  0  0  0  0  0  0  0  0  0  0
  152.8589  133.5925  153.3886 H   0  0  0  0  0  0  0  0  0  0  0  0
  152.6711  133.8995  155.1054 H   0  0  0  0  0  0  0  0  0  0  0  0
  152.3149  131.4915  153.7400 H   0  0  0  0  0  0  0  0  0  0  0  0
  150.0127  135.3931  152.9618 H   0  0  0  0  0  0  0  0  0  0  0  0
  150.4302  137.3581  152.9338 H   0  0  0  0  0  0  0  0  0  0  0  0
  152.7144  138.3344  154.5415 H   0  0  0  0  0  0  0  0  0  0  0  0
  152.1572  139.0482  153.0482 H   0  0  0  0  0  0  0  0  0  0  0  0
  149.1157  139.0095  153.8516 H   0  0  0  0  0  0  0  0  0  0  0  0
  147.7950  140.6673  155.1793 H   0  0  0  0  0  0  0  0  0  0  0  0
  150.4452  144.0001  156.6520 H   0  0  0  0  0  0  0  0  0  0  0  0
  149.6816  143.3925  158.1182 H   0  0  0  0  0  0  0  0  0  0  0  0
  152.4539  144.7036  157.8949 H   0  0  0  0  0  0  0  0  0  0  0  0
  151.0347  145.3842  158.6656 H   0  0  0  0  0  0  0  0  0  0  0  0
  153.5468  142.8199  158.9263 H   0  0  0  0  0  0  0  0  0  0  0  0
  152.8903  142.1748  160.4179 H   0  0  0  0  0  0  0  0  0  0  0  0
  150.8950  141.2993  159.2541 H   0  0  0  0  0  0  0  0  0  0  0  0
  152.3429  140.7132  158.4593 H   0  0  0  0  0  0  0  0  0  0  0  0
  152.6439  140.4246  155.8893 H   0  0  0  0  0  0  0  0  0  0  0  0
  1  2  1  0  0  0  0
  1 22  1  0  0  0  0
  1 23  1  0  0  0  0
  1 24  1  0  0  0  0
  2  3  1  0  0  0  0
  2  5  1  0  0  0  0
  2 25  1  0  0  0  0
  3  4  1  0  0  0  0
  3 26  1  0  0  0  0
  3 27  1  0  0  0  0
  4 28  1  0  0  0  0
  5  6  1  0  0  0  0
  5 29  1  0  0  0  0
  6  7  2  0  0  0  0
  6  8  1  0  0  0  0
  8  9  1  0  0  0  0
  8 30  1  0  0  0  0
  9 10  1  0  0  0  0
  9 31  1  0  0  0  0
  9 32  1  0  0  0  0
 10 21  1  0  0  0  0
 10 11  2  0  0  0  0
 11 12  1  0  0  0  0
 11 33  1  0  0  0  0
 12 13  2  0  0  0  0
 12 34  1  0  0  0  0
 13 14  1  0  0  0  0
 14 15  1  0  0  0  0
 14 21  2  0  0  0  0
 15 20  1  0  0  0  0
 15 16  1  0  0  0  0
 16 17  1  0  0  0  0
 16 35  1  0  0  0  0
 16 36  1  0  0  0  0
 17 18  1  0  0  0  0
 17 37  1  0  0  0  0
 17 38  1  0  0  0  0
 18 19  1  0  0  0  0
 19 20  1  0  0  0  0
 19 39  1  0  0  0  0
 19 40  1  0  0  0  0
 20 41  1  0  0  0  0
 20 42  1  0  0  0  0
 21 43  1  0  0  0  0
M  END
> <s_m_source_file>
AV-unprocessed.smi

> <i_m_source_file_index>
2055

> <i_lp_mmshare_version>
43012

> <i_f3d_flags>
0

> <s_epik_input>
W09IXVtDSDJdW0NAQEhdKFtDSDNdKVtOSF1DKD1PKVtOSF1bQ0gyXWMxW2NIXVtjSF1uYyhbY0hdMSlOMltDSDJdW0NIMl1PW0NIMl1bQ0gyXTI=

> <s_epik_cmdline>
J2VwaWtfcHl0aG9uJywgJy1waCcsICc3LjAnLCAnLXRuJywgJzgnLCAnLW1hJywgJzIwMCcsICctbWV0YWxfYmluZGluZycsICctaW1hZScsICc8aW5maWxlLm1hZT4nLCAnLW9tYWUnLCAnPG91dGZpbGUubWFlPic=

> <r_lp_tautomer_probability>
1

> <r_epik_Ionization_Penalty>
0.0122173

> <r_epik_Ionization_Penalty_Charging>
0

> <r_epik_Ionization_Penalty_Neutral>
0.0122173

> <r_epik_State_Penalty>
0.00940497

> <r_epik_Charging_Adjusted_Penalty>
0.00940497

> <i_epik_Tot_Q>
0

> <i_epik_Tot_abs_Q>
0

> <r_epik_Metal_State_Penalty>
0.00921475

> <b_epik_Metal_Only>
0

> <s_lp_Force_Field>
OPLS_2005

> <r_lp_Energy>
11.6971

> <b_lp_Chiralities_Consistent>
1

> <s_lp_Variant>
AV-unprocessed.smi:2055-2

> <Gold.Version>
5.8.1

> <Gold.Id.Protein>
6NUR|6NUR_protein|mol2

> <Gold.PLP.Fitness>
49.9575

> <Gold.PLP.PLP>
-42.8360

> <Gold.PLP.part.hbond>
-4.0000

> <Gold.PLP.part.metal>
0.0000

> <Gold.PLP.part.buried>
-3.9632

> <Gold.PLP.part.nonpolar>
-34.8252

> <Gold.PLP.part.repulsive>
0.3145

> <Gold.PLP.ligand.clash>
0.0000

> <Gold.PLP.ligand.torsion>
1.1564

> <Gold.PLP.Chemscore.Hbond>
2.9600

> <Gold.PLP.Chemscore.CHOScore>
0.0000

> <Gold.PLP.Chemscore.Metal>
0.0000

> <Gold.Chemscore.Hbonds>
donor molecule, donor type, donor heavy atom, donor atom, acceptor molecule, acceptor atom, score
      L1  H     8    30       P1  7948  0.28

> <Gold.PLP.Chemscore.Internal.Correction>
0.5543

> <Gold.Rescore>
     Score         DG    S(hbond)    S(metal)    S(lipo)     H(rot)  DE(clash)    DE(int)     intcor
     12.77     -13.95       1.41        0.00      91.44       2.70       0.28       0.91       ----

> <Gold.Chemscore.Fitness>
12.7651

> <Gold.Chemscore.DG>
-13.9511

> <Gold.Chemscore.ZeroCoef>
-5.4800

> <Gold.Chemscore.Hbond>
1.4051

> <Gold.Chemscore.Metal>
0.0000

> <Gold.Chemscore.Lipo>
91.4367

> <Gold.Chemscore.Internal_Hbond>
0.0000

> <Gold.Chemscore.DEClash>
0.2762

> <Gold.Chemscore.DEInternal>
0.9099

> <Gold.Chemscore.Rot>
2.7031

> <Gold.Chemscore.Internal.Correction>
   9.000000E+99

> <Gold.Chemscore.Hbonds>
donor molecule, donor type, donor heavy atom, donor atom, acceptor molecule, acceptor atom, score
      L1  H     8    30       P1  7948  0.01

> <Gold.Chemscore.Hbond.Weighted>
-4.6930

> <Gold.Chemscore.Metal.Weighted>
-0.0000

> <Gold.Chemscore.Lipo.Weighted>
-10.6981

> <Gold.Chemscore.Internal_Hbond.Weighted>
0.0000

> <Gold.Chemscore.DEClash.Weighted>
0.2762

> <Gold.Chemscore.DEInternal.Weighted>
0.9099

> <Gold.Chemscore.Rot.Weighted>
6.9199

> <Gold.Chemscore.Internal.Correction.Weighted>
   9.000000E+99

> <Gold.Protein.RotatedTorsions>
[ 6907 6896 6895 6894 ] final  -90.86 input  -60.11 | X-H torsion
[ 7974 7965 7964 7962 ] final  120.83 input  175.53 | X-H torsion
[ 8008 7997 7996 7995 ] final   36.17 input   59.86 | X-H torsion
[ 10167 10162 10161 10158 ] final  -40.32 input  -65.29 | X-H torsion
[ 10718 10713 10712 10709 ] final  -12.88 input   66.30 | X-H torsion
[ 10763 10752 10751 10750 ] final -154.99 input  -60.55 | X-H torsion
[ 11005 11000 10999 10996 ] final    5.67 input  -57.11 | X-H torsion

> <Gold.Protein.ActiveResidues>
 VAL166  LYS551  ARG553  GLY616  TRP617  ASP618  TYR619  PRO620  LYS621  CYS622 
 ASP623  PHE694  ASN695  SER759  ASP760  ASP761  ALA762  ILE779  LEU786  VAL792 
 PHE793  MET794  SER795  GLU796  ALA797  LYS798  CYS799  TRP800  GLU811  SER814 

> <Gold.Protein.RotatedAtoms>
  150.6886  134.2366  159.4455 H   0  0  0  0  0  0  0  0  0  0  0  0  # atno 6907 bound_to 6896
  152.0313  134.9763  160.0582 H   0  0  0  0  0  0  0  0  0  0  0  0  # atno 6908 bound_to 6896
  152.1302  133.4368  159.4754 H   0  0  0  0  0  0  0  0  0  0  0  0  # atno 6909 bound_to 6896
  145.1265  139.3355  143.4687 H   0  0  0  0  0  0  0  0  0  0  0  0  # atno 7974 bound_to 7965
  155.1830  140.3301  155.4372 H   0  0  0  0  0  0  0  0  0  0  0  0  # atno 8008 bound_to 7997
  156.2470  140.1923  156.6877 H   0  0  0  0  0  0  0  0  0  0  0  0  # atno 8009 bound_to 7997
  154.6258  140.0589  156.9657 H   0  0  0  0  0  0  0  0  0  0  0  0  # atno 8010 bound_to 7997
  140.7038  143.3161  151.2907 H   0  0  0  0  0  0  0  0  0  0  0  0  # atno 10167 bound_to 10162
  156.6383  130.4921  149.6104 H   0  0  0  0  0  0  0  0  0  0  0  0  # atno 10718 bound_to 10713
  154.7819  135.3177  154.7970 H   0  0  0  0  0  0  0  0  0  0  0  0  # atno 10763 bound_to 10752
  153.8679  135.6847  153.4781 H   0  0  0  0  0  0  0  0  0  0  0  0  # atno 10764 bound_to 10752
  153.1459  135.4720  154.9502 H   0  0  0  0  0  0  0  0  0  0  0  0  # atno 10765 bound_to 10752
  140.5681  134.0128  155.7998 H   0  0  0  0  0  0  0  0  0  0  0  0  # atno 11005 bound_to 11000
  146.3517  140.1246  142.8599 LP  0  0  0  0  0  0  0  0  0  0  0  0  # atno 17320 bound_to 7965
  145.0683  140.9137  143.4897 LP  0  0  0  0  0  0  0  0  0  0  0  0  # atno 17321 bound_to 7965
  139.6600  144.0207  152.2685 LP  0  0  0  0  0  0  0  0  0  0  0  0  # atno 17342 bound_to 10162
  139.9771  144.6454  150.7935 LP  0  0  0  0  0  0  0  0  0  0  0  0  # atno 17343 bound_to 10162
  156.2179  130.6719  151.1338 LP  0  0  0  0  0  0  0  0  0  0  0  0  # atno 17370 bound_to 10713
  157.7179  131.0699  150.6255 LP  0  0  0  0  0  0  0  0  0  0  0  0  # atno 17371 bound_to 10713
  141.1073  133.9673  157.2974 LP  0  0  0  0  0  0  0  0  0  0  0  0  # atno 17394 bound_to 11000
  139.9375  135.0195  156.8602 LP  0  0  0  0  0  0  0  0  0  0  0  0  # atno 17395 bound_to 11000

$$$$
