AV-unprocessed.smi:2198|AV-procd|sdf|8922|dock9
  -GOLD-   2272012143D 1   1.00000     0.00000
 Structure written by MMmdl.
 42 43  0  0  0  0  0  0  0  0  2 V2000
  153.9131  142.7196  163.7966 C   0  0  0  0  0  0  0  0  0  0  0  0
  153.4105  142.8021  162.3710 C   0  0  0  0  0  0  0  0  0  0  0  0
  152.6492  143.7714  162.0317 N   0  0  0  0  0  0  0  0  0  0  0  0
  152.1767  143.8506  160.7107 C   0  0  0  0  0  0  0  0  0  0  0  0
  151.2739  145.0323  160.4019 C   0  0  0  0  0  0  0  0  0  0  0  0
  152.5195  142.9131  159.7807 C   0  0  0  0  0  0  0  0  0  0  0  0
  152.0265  142.9495  158.3346 C   0  0  0  0  0  0  0  0  0  0  0  0
  150.7147  142.2088  158.0711 C   0  0  0  0  0  0  0  0  0  0  0  0
  149.6531  142.6638  158.4964 O   0  0  0  0  0  0  0  0  0  0  0  0
  150.8018  141.0681  157.3697 N   0  0  0  0  0  0  0  0  0  0  0  0
  149.6805  140.2018  157.0118 C   0  0  1  0  0  0  0  0  0  0  0  0
  148.6328  140.9571  156.1669 C   0  0  0  0  0  0  0  0  0  0  0  0
  149.1522  141.2788  154.7556 C   0  0  0  0  0  0  0  0  0  0  0  0
  149.6327  140.0095  154.0353 C   0  0  0  0  0  0  0  0  0  0  0  0
  150.7081  139.2669  154.8512 C   0  0  2  0  0  0  0  0  0  0  0  0
  151.1800  137.9965  154.1296 C   0  0  0  0  0  0  0  0  0  0  0  0
  150.1892  138.9494  156.2700 C   0  0  0  0  0  0  0  0  0  0  0  0
  153.4059  141.8161  160.2106 C   0  0  0  0  0  0  0  0  0  0  0  0
  153.7594  140.9518  159.4095 O   0  0  0  0  0  0  0  0  0  0  0  0
  153.8121  141.8039  161.5123 N   0  5  0  0  0  0  0  0  0  0  0  0
  153.6984  143.6391  164.3427 H   0  0  0  0  0  0  0  0  0  0  0  0
  154.9917  142.5592  163.8121 H   0  0  0  0  0  0  0  0  0  0  0  0
  153.4327  141.8909  164.3171 H   0  0  0  0  0  0  0  0  0  0  0  0
  150.3040  144.6923  160.0387 H   0  0  0  0  0  0  0  0  0  0  0  0
  151.7266  145.6725  159.6449 H   0  0  0  0  0  0  0  0  0  0  0  0
  151.1014  145.6396  161.2911 H   0  0  0  0  0  0  0  0  0  0  0  0
  151.9099  143.9776  157.9907 H   0  0  0  0  0  0  0  0  0  0  0  0
  152.8068  142.5391  157.6931 H   0  0  0  0  0  0  0  0  0  0  0  0
  151.7174  140.7737  157.0627 H   0  0  0  0  0  0  0  0  0  0  0  0
  149.2050  139.8682  157.9360 H   0  0  0  0  0  0  0  0  0  0  0  0
  147.7348  140.3438  156.0830 H   0  0  0  0  0  0  0  0  0  0  0  0
  148.3240  141.8744  156.6697 H   0  0  0  0  0  0  0  0  0  0  0  0
  148.3661  141.7602  154.1734 H   0  0  0  0  0  0  0  0  0  0  0  0
  149.9708  141.9967  154.8186 H   0  0  0  0  0  0  0  0  0  0  0  0
  148.7823  139.3493  153.8586 H   0  0  0  0  0  0  0  0  0  0  0  0
  150.0263  140.2749  153.0534 H   0  0  0  0  0  0  0  0  0  0  0  0
  151.5723  139.9262  154.9446 H   0  0  0  0  0  0  0  0  0  0  0  0
  150.3613  137.2889  153.9953 H   0  0  0  0  0  0  0  0  0  0  0  0
  151.9660  137.4934  154.6933 H   0  0  0  0  0  0  0  0  0  0  0  0
  151.5820  138.2316  153.1437 H   0  0  0  0  0  0  0  0  0  0  0  0
  150.9712  138.4646  156.8563 H   0  0  0  0  0  0  0  0  0  0  0  0
  149.3748  138.2269  156.1994 H   0  0  0  0  0  0  0  0  0  0  0  0
  1  2  1  0  0  0  0
  1 21  1  0  0  0  0
  1 22  1  0  0  0  0
  1 23  1  0  0  0  0
  2 20  1  0  0  0  0
  2  3  2  0  0  0  0
  3  4  1  0  0  0  0
  4  5  1  0  0  0  0
  4  6  2  0  0  0  0
  5 24  1  0  0  0  0
  5 25  1  0  0  0  0
  5 26  1  0  0  0  0
  6  7  1  0  0  0  0
  6 18  1  0  0  0  0
  7  8  1  0  0  0  0
  7 27  1  0  0  0  0
  7 28  1  0  0  0  0
  8  9  2  0  0  0  0
  8 10  1  0  0  0  0
 10 11  1  0  0  0  0
 10 29  1  0  0  0  0
 11 17  1  0  0  0  0
 11 12  1  0  0  0  0
 11 30  1  0  0  0  0
 12 13  1  0  0  0  0
 12 31  1  0  0  0  0
 12 32  1  0  0  0  0
 13 14  1  0  0  0  0
 13 33  1  0  0  0  0
 13 34  1  0  0  0  0
 14 15  1  0  0  0  0
 14 35  1  0  0  0  0
 14 36  1  0  0  0  0
 15 16  1  0  0  0  0
 15 17  1  0  0  0  0
 15 37  1  0  0  0  0
 16 38  1  0  0  0  0
 16 39  1  0  0  0  0
 16 40  1  0  0  0  0
 17 41  1  0  0  0  0
 17 42  1  0  0  0  0
 18 19  2  0  0  0  0
 18 20  1  0  0  0  0
M  CHG  1  20  -1
M  END
> <s_m_source_file>
AV-unprocessed.smi

> <i_m_source_file_index>
2198

> <i_lp_mmshare_version>
43012

> <i_f3d_flags>
0

> <s_epik_input>
W0NIM11jMW5jKFtDSDNdKWMoYyg9TylbbkhdMSlbQ0gyXUMoPU8pW05IXVtDQEBIXTJbQ0gyXVtDSDJdW0NIMl1bQ0BASF0oW0NIM10pW0NIMl0y

> <s_epik_cmdline>
J2VwaWtfcHl0aG9uJywgJy1waCcsICc3LjAnLCAnLXRuJywgJzgnLCAnLW1hJywgJzIwMCcsICctbWV0YWxfYmluZGluZycsICctaW1hZScsICc8aW5maWxlLm1hZT4nLCAnLW9tYWUnLCAnPG91dGZpbGUubWFlPic=

> <r_lp_tautomer_probability>
0.839158

> <r_epik_Ionization_Penalty>
6.67193

> <r_epik_Ionization_Penalty_Charging>
7.66837e-08

> <r_epik_Ionization_Penalty_Neutral>
6.67193

> <r_epik_State_Penalty>
4.51643

> <r_epik_Charging_Adjusted_Penalty>
4.51643

> <i_epik_Tot_Q>
-1

> <i_epik_Tot_abs_Q>
1

> <r_epik_Metal_State_Penalty>
0.851582

> <b_epik_Metal_Only>
1

> <s_lp_Force_Field>
OPLS_2005

> <r_lp_Energy>
13.9181

> <b_lp_Chiralities_Consistent>
1

> <s_lp_Variant>
AV-unprocessed.smi:2198-12

> <Gold.Version>
5.8.1

> <Gold.Id.Protein>
6NUR|6NUR_protein|mol2

> <Gold.PLP.Fitness>
39.7593

> <Gold.PLP.PLP>
-40.7363

> <Gold.PLP.part.hbond>
0.0000

> <Gold.PLP.part.metal>
0.0000

> <Gold.PLP.part.buried>
-3.5023

> <Gold.PLP.part.nonpolar>
-36.9425

> <Gold.PLP.part.repulsive>
0.3749

> <Gold.PLP.ligand.clash>
0.0000

> <Gold.PLP.ligand.torsion>
0.4922

> <Gold.PLP.Chemscore.Hbond>
0.0000

> <Gold.PLP.Chemscore.CHOScore>
0.0000

> <Gold.PLP.Chemscore.Metal>
0.0000

> <Gold.PLP.Chemscore.Internal.Correction>
0.0073

> <Gold.Rescore>
     Score         DG    S(hbond)    S(metal)    S(lipo)     H(rot)  DE(clash)    DE(int)     intcor
     13.66     -15.11       0.78        0.00      91.76       1.45       0.75       0.70       ----

> <Gold.Chemscore.Fitness>
13.6578

> <Gold.Chemscore.DG>
-15.1064

> <Gold.Chemscore.ZeroCoef>
-5.4800

> <Gold.Chemscore.Hbond>
0.7755

> <Gold.Chemscore.Metal>
0.0000

> <Gold.Chemscore.Lipo>
91.7553

> <Gold.Chemscore.Internal_Hbond>
0.0000

> <Gold.Chemscore.DEClash>
0.7504

> <Gold.Chemscore.DEInternal>
0.6981

> <Gold.Chemscore.Rot>
1.4450

> <Gold.Chemscore.Internal.Correction>
   9.000000E+99

> <Gold.Chemscore.Hbond.Weighted>
-2.5902

> <Gold.Chemscore.Metal.Weighted>
-0.0000

> <Gold.Chemscore.Lipo.Weighted>
-10.7354

> <Gold.Chemscore.Internal_Hbond.Weighted>
0.0000

> <Gold.Chemscore.DEClash.Weighted>
0.7504

> <Gold.Chemscore.DEInternal.Weighted>
0.6981

> <Gold.Chemscore.Rot.Weighted>
3.6992

> <Gold.Chemscore.Internal.Correction.Weighted>
   9.000000E+99

> <Gold.Protein.RotatedTorsions>
[ 6907 6896 6895 6894 ] final   59.81 input  -60.11 | X-H torsion
[ 7974 7965 7964 7962 ] final  -31.77 input  175.53 | X-H torsion
[ 8008 7997 7996 7995 ] final  -97.71 input   59.86 | X-H torsion
[ 10167 10162 10161 10158 ] final  175.90 input  -65.29 | X-H torsion
[ 10718 10713 10712 10709 ] final -102.90 input   66.30 | X-H torsion
[ 10763 10752 10751 10750 ] final  -44.04 input  -60.55 | X-H torsion
[ 11005 11000 10999 10996 ] final  -46.03 input  -57.11 | X-H torsion

> <Gold.Protein.ActiveResidues>
 VAL166  LYS551  ARG553  GLY616  TRP617  ASP618  TYR619  PRO620  LYS621  CYS622 
 ASP623  PHE694  ASN695  SER759  ASP760  ASP761  ALA762  ILE779  LEU786  VAL792 
 PHE793  MET794  SER795  GLU796  ALA797  LYS798  CYS799  TRP800  GLU811  SER814 

> <Gold.Protein.RotatedAtoms>
  152.3948  134.6383  160.0093 H   0  0  0  0  0  0  0  0  0  0  0  0  # atno 6907 bound_to 6896
  151.6606  133.3311  159.3181 H   0  0  0  0  0  0  0  0  0  0  0  0  # atno 6908 bound_to 6896
  150.7858  134.6884  159.6528 H   0  0  0  0  0  0  0  0  0  0  0  0  # atno 6909 bound_to 6896
  146.1041  140.5709  142.8807 H   0  0  0  0  0  0  0  0  0  0  0  0  # atno 7974 bound_to 7965
  154.7914  140.0461  157.1203 H   0  0  0  0  0  0  0  0  0  0  0  0  # atno 8008 bound_to 7997
  154.9587  140.3074  155.5021 H   0  0  0  0  0  0  0  0  0  0  0  0  # atno 8009 bound_to 7997
  156.2950  140.2274  156.4670 H   0  0  0  0  0  0  0  0  0  0  0  0  # atno 8010 bound_to 7997
  139.5194  144.2978  152.0406 H   0  0  0  0  0  0  0  0  0  0  0  0  # atno 10167 bound_to 10162
  156.0245  130.5442  150.7175 H   0  0  0  0  0  0  0  0  0  0  0  0  # atno 10718 bound_to 10713
  154.0056  135.6688  153.4762 H   0  0  0  0  0  0  0  0  0  0  0  0  # atno 10763 bound_to 10752
  153.0643  135.5010  154.8161 H   0  0  0  0  0  0  0  0  0  0  0  0  # atno 10764 bound_to 10752
  154.7027  135.3082  154.9281 H   0  0  0  0  0  0  0  0  0  0  0  0  # atno 10765 bound_to 10752
  141.0553  133.6728  156.3097 H   0  0  0  0  0  0  0  0  0  0  0  0  # atno 11005 bound_to 11000
  144.7457  140.5061  143.6837 LP  0  0  0  0  0  0  0  0  0  0  0  0  # atno 17320 bound_to 7965
  145.5795  139.1488  143.3243 LP  0  0  0  0  0  0  0  0  0  0  0  0  # atno 17321 bound_to 7965
  140.2426  144.4253  150.6253 LP  0  0  0  0  0  0  0  0  0  0  0  0  # atno 17342 bound_to 10162
  140.6280  143.2183  151.6556 LP  0  0  0  0  0  0  0  0  0  0  0  0  # atno 17343 bound_to 10162
  157.4798  131.0901  151.0549 LP  0  0  0  0  0  0  0  0  0  0  0  0  # atno 17370 bound_to 10713
  157.0985  130.5972  149.5455 LP  0  0  0  0  0  0  0  0  0  0  0  0  # atno 17371 bound_to 10713
  140.5976  134.5587  157.5511 LP  0  0  0  0  0  0  0  0  0  0  0  0  # atno 17394 bound_to 11000
  139.9385  134.7831  156.0740 LP  0  0  0  0  0  0  0  0  0  0  0  0  # atno 17395 bound_to 11000

$$$$
