AV-unprocessed.smi:1021|AV-procd|sdf|4456|dock3
  -GOLD-   22720 2423D 1   1.00000     0.00000
 Structure written by MMmdl.
 43 45  0  0  0  0  0  0  0  0  2 V2000
  150.5151  137.9525  153.6248 O   0  0  0  0  0  0  0  0  0  0  0  0
  149.6190  138.8565  154.2352 C   0  0  0  0  0  0  0  0  0  0  0  0
  150.3630  139.7663  155.2226 C   0  0  0  0  0  0  0  0  0  0  0  0
  149.4336  140.7438  155.9587 C   0  0  0  0  0  0  0  0  0  0  0  0
  150.1909  141.6119  156.9098 C   0  0  0  0  0  0  0  0  0  0  0  0
  150.1941  142.9747  156.9104 N   0  3  0  0  0  0  0  0  0  0  0  0
  151.0200  143.4454  157.9317 C   0  0  0  0  0  0  0  0  0  0  0  0
  151.3348  144.7423  158.3256 C   0  0  0  0  0  0  0  0  0  0  0  0
  152.2192  144.8754  159.4161 C   0  0  0  0  0  0  0  0  0  0  0  0
  152.7549  143.7463  160.0695 C   0  0  0  0  0  0  0  0  0  0  0  0
  152.4289  142.4363  159.6605 C   0  0  0  0  0  0  0  0  0  0  0  0
  151.5524  142.3142  158.5827 C   0  0  0  0  0  0  0  0  0  0  0  0
  151.0134  141.2058  157.9208 N   0  0  0  0  0  0  0  0  0  0  0  0
  151.3778  139.8547  158.3760 C   0  0  0  0  0  0  0  0  0  0  0  0
  152.8708  139.5337  158.1593 C   0  0  2  0  0  0  0  0  0  0  0  0
  153.0645  139.2457  156.7903 O   0  0  0  0  0  0  0  0  0  0  0  0
  153.3560  138.4098  159.0646 C   0  0  0  0  0  0  0  0  0  0  0  0
  153.8854  137.2311  158.4962 C   0  0  0  0  0  0  0  0  0  0  0  0
  154.3632  136.1961  159.3230 C   0  0  0  0  0  0  0  0  0  0  0  0
  154.3136  136.3330  160.7234 C   0  0  0  0  0  0  0  0  0  0  0  0
  154.7751  135.3386  161.5179 F   0  0  0  0  0  0  0  0  0  0  0  0
  153.7854  137.5055  161.2967 C   0  0  0  0  0  0  0  0  0  0  0  0
  153.3083  138.5415  160.4704 C   0  0  0  0  0  0  0  0  0  0  0  0
  150.0208  137.2197  153.2897 H   0  0  0  0  0  0  0  0  0  0  0  0
  149.1146  139.4448  153.4681 H   0  0  0  0  0  0  0  0  0  0  0  0
  148.8529  138.2835  154.7578 H   0  0  0  0  0  0  0  0  0  0  0  0
  150.8693  139.1377  155.9558 H   0  0  0  0  0  0  0  0  0  0  0  0
  151.1470  140.3161  154.7003 H   0  0  0  0  0  0  0  0  0  0  0  0
  148.9075  141.3788  155.2452 H   0  0  0  0  0  0  0  0  0  0  0  0
  148.6681  140.1953  156.5061 H   0  0  0  0  0  0  0  0  0  0  0  0
  150.9265  145.6086  157.8258 H   0  0  0  0  0  0  0  0  0  0  0  0
  152.4924  145.8632  159.7580 H   0  0  0  0  0  0  0  0  0  0  0  0
  153.4299  143.8874  160.9012 H   0  0  0  0  0  0  0  0  0  0  0  0
  152.8441  141.5774  160.1668 H   0  0  0  0  0  0  0  0  0  0  0  0
  151.1158  139.7679  159.4310 H   0  0  0  0  0  0  0  0  0  0  0  0
  150.7457  139.1412  157.8455 H   0  0  0  0  0  0  0  0  0  0  0  0
  153.4657  140.4234  158.3685 H   0  0  0  0  0  0  0  0  0  0  0  0
  152.3236  139.5774  156.3061 H   0  0  0  0  0  0  0  0  0  0  0  0
  153.9353  137.1211  157.4228 H   0  0  0  0  0  0  0  0  0  0  0  0
  154.7699  135.2975  158.8830 H   0  0  0  0  0  0  0  0  0  0  0  0
  153.7489  137.6120  162.3708 H   0  0  0  0  0  0  0  0  0  0  0  0
  152.9147  139.4407  160.9212 H   0  0  0  0  0  0  0  0  0  0  0  0
  149.6672  143.5397  156.2566 H   0  0  0  0  0  0  0  0  0  0  0  0
  1  2  1  0  0  0  0
  1 24  1  0  0  0  0
  2  3  1  0  0  0  0
  2 25  1  0  0  0  0
  2 26  1  0  0  0  0
  3  4  1  0  0  0  0
  3 27  1  0  0  0  0
  3 28  1  0  0  0  0
  4  5  1  0  0  0  0
  4 29  1  0  0  0  0
  4 30  1  0  0  0  0
  5 13  1  0  0  0  0
  5  6  2  0  0  0  0
  6  7  1  0  0  0  0
  6 43  1  0  0  0  0
  7 12  2  0  0  0  0
  7  8  1  0  0  0  0
  8  9  2  0  0  0  0
  8 31  1  0  0  0  0
  9 10  1  0  0  0  0
  9 32  1  0  0  0  0
 10 11  2  0  0  0  0
 10 33  1  0  0  0  0
 11 12  1  0  0  0  0
 11 34  1  0  0  0  0
 12 13  1  0  0  0  0
 13 14  1  0  0  0  0
 14 15  1  0  0  0  0
 14 35  1  0  0  0  0
 14 36  1  0  0  0  0
 15 16  1  0  0  0  0
 15 17  1  0  0  0  0
 15 37  1  0  0  0  0
 16 38  1  0  0  0  0
 17 23  1  0  0  0  0
 17 18  2  0  0  0  0
 18 19  1  0  0  0  0
 18 39  1  0  0  0  0
 19 20  2  0  0  0  0
 19 40  1  0  0  0  0
 20 21  1  0  0  0  0
 20 22  1  0  0  0  0
 22 23  2  0  0  0  0
 22 41  1  0  0  0  0
 23 42  1  0  0  0  0
M  CHG  1   6   1
M  END
> <s_m_source_file>
AV-unprocessed.smi

> <i_m_source_file_index>
1021

> <i_lp_mmshare_version>
43012

> <i_f3d_flags>
0

> <s_epik_input>
W09IXVtDSDJdW0NIMl1bQ0gyXWMobjEpbihjKGMxMilbY0hdW2NIXVtjSF1bY0hdMilbQ0gyXVtDQEhdKFtPSF0pYzNbY0hdW2NIXWMoRilbY0hdW2NIXTM=

> <s_epik_cmdline>
J2VwaWtfcHl0aG9uJywgJy1waCcsICc3LjAnLCAnLXRuJywgJzgnLCAnLW1hJywgJzIwMCcsICctbWV0YWxfYmluZGluZycsICctaW1hZScsICc8aW5maWxlLm1hZT4nLCAnLW9tYWUnLCAnPG91dGZpbGUubWFlPic=

> <r_epik_Ionization_Penalty>
0.786441

> <r_epik_Ionization_Penalty_Charging>
0.786439

> <r_epik_Ionization_Penalty_Neutral>
1.96029e-06

> <r_epik_State_Penalty>
0.816472

> <r_epik_Charging_Adjusted_Penalty>
1.60291

> <i_epik_Tot_Q>
1

> <i_epik_Tot_abs_Q>
1

> <r_epik_Metal_State_Penalty>
4.73733

> <b_epik_Metal_Only>
0

> <s_lp_Force_Field>
OPLS_2005

> <r_lp_Energy>
17.0058

> <b_lp_Chiralities_Consistent>
1

> <s_lp_Variant>
AV-unprocessed.smi:1021-3

> <Gold.Version>
5.8.1

> <Gold.Id.Protein>
6NUR|6NUR_protein|mol2

> <Gold.PLP.Fitness>
55.9067

> <Gold.PLP.PLP>
-44.2440

> <Gold.PLP.part.hbond>
-3.9301

> <Gold.PLP.part.metal>
0.0000

> <Gold.PLP.part.buried>
-4.8011

> <Gold.PLP.part.nonpolar>
-36.4693

> <Gold.PLP.part.repulsive>
0.0217

> <Gold.PLP.ligand.clash>
0.0000

> <Gold.PLP.ligand.torsion>
0.2371

> <Gold.PLP.Chemscore.Hbond>
4.0000

> <Gold.PLP.Chemscore.CHOScore>
0.0000

> <Gold.PLP.Chemscore.Metal>
0.0000

> <Gold.Chemscore.Hbonds>
donor molecule, donor type, donor heavy atom, donor atom, acceptor molecule, acceptor atom, score
      L1  H     1    24       P1  7948  1.00
      L1  H     6    43       P1  8028  2.00
      P1  H  7997  8009       L1    16  1.00

> <Gold.PLP.Chemscore.Internal.Correction>
0.1369

> <Gold.Rescore>
     Score         DG    S(hbond)    S(metal)    S(lipo)     H(rot)  DE(clash)    DE(int)     intcor
     19.39     -19.81       2.34        0.00     124.89       3.16       0.22       0.19       ----

> <Gold.Chemscore.Fitness>
19.3936

> <Gold.Chemscore.DG>
-19.8101

> <Gold.Chemscore.ZeroCoef>
-5.4800

> <Gold.Chemscore.Hbond>
2.3379

> <Gold.Chemscore.Metal>
0.0000

> <Gold.Chemscore.Lipo>
124.8908

> <Gold.Chemscore.Internal_Hbond>
0.0000

> <Gold.Chemscore.DEClash>
0.2235

> <Gold.Chemscore.DEInternal>
0.1930

> <Gold.Chemscore.Rot>
3.1604

> <Gold.Chemscore.Internal.Correction>
   9.000000E+99

> <Gold.Chemscore.Hbonds>
donor molecule, donor type, donor heavy atom, donor atom, acceptor molecule, acceptor atom, score
      L1  H     1    24       P1  7948  0.24
      L1  H     6    43       P1  8028  0.93
      P1  H  7997  8009       L1    16  0.25

> <Gold.Chemscore.Hbond.Weighted>
-7.8086

> <Gold.Chemscore.Metal.Weighted>
-0.0000

> <Gold.Chemscore.Lipo.Weighted>
-14.6122

> <Gold.Chemscore.Internal_Hbond.Weighted>
0.0000

> <Gold.Chemscore.DEClash.Weighted>
0.2235

> <Gold.Chemscore.DEInternal.Weighted>
0.1930

> <Gold.Chemscore.Rot.Weighted>
8.0907

> <Gold.Chemscore.Internal.Correction.Weighted>
   9.000000E+99

> <Gold.Protein.RotatedTorsions>
[ 6907 6896 6895 6894 ] final  -83.66 input  -60.11 | X-H torsion
[ 7974 7965 7964 7962 ] final   91.53 input  175.53 | X-H torsion
[ 8008 7997 7996 7995 ] final -167.69 input   59.86 | X-H torsion
[ 10167 10162 10161 10158 ] final   93.40 input  -65.29 | X-H torsion
[ 10718 10713 10712 10709 ] final -124.77 input   66.30 | X-H torsion
[ 10763 10752 10751 10750 ] final   90.35 input  -60.55 | X-H torsion
[ 11005 11000 10999 10996 ] final    3.50 input  -57.11 | X-H torsion

> <Gold.Protein.ActiveResidues>
 VAL166  LYS551  ARG553  GLY616  TRP617  ASP618  TYR619  PRO620  LYS621  CYS622 
 ASP623  PHE694  ASN695  SER759  ASP760  ASP761  ALA762  ILE779  LEU786  VAL792 
 PHE793  MET794  SER795  GLU796  ALA797  LYS798  CYS799  TRP800  GLU811  SER814 

> <Gold.Protein.RotatedAtoms>
  150.6883  134.3477  159.4895 H   0  0  0  0  0  0  0  0  0  0  0  0  # atno 6907 bound_to 6896
  152.1322  134.9123  160.0567 H   0  0  0  0  0  0  0  0  0  0  0  0  # atno 6908 bound_to 6896
  152.0288  133.3894  159.4326 H   0  0  0  0  0  0  0  0  0  0  0  0  # atno 6909 bound_to 6896
  145.5044  139.2276  143.2759 H   0  0  0  0  0  0  0  0  0  0  0  0  # atno 7974 bound_to 7965
  155.8812  140.1009  157.1484 H   0  0  0  0  0  0  0  0  0  0  0  0  # atno 8008 bound_to 7997
  154.4005  140.1328  156.4262 H   0  0  0  0  0  0  0  0  0  0  0  0  # atno 8009 bound_to 7997
  155.7641  140.3462  155.5215 H   0  0  0  0  0  0  0  0  0  0  0  0  # atno 8010 bound_to 7997
  139.8183  144.6742  150.9551 H   0  0  0  0  0  0  0  0  0  0  0  0  # atno 10167 bound_to 10162
  156.1617  130.6606  151.0059 H   0  0  0  0  0  0  0  0  0  0  0  0  # atno 10718 bound_to 10713
  153.1967  135.4437  155.0216 H   0  0  0  0  0  0  0  0  0  0  0  0  # atno 10763 bound_to 10752
  154.8123  135.3299  154.7275 H   0  0  0  0  0  0  0  0  0  0  0  0  # atno 10764 bound_to 10752
  153.7724  135.6983  153.4959 H   0  0  0  0  0  0  0  0  0  0  0  0  # atno 10765 bound_to 10752
  140.5924  133.9911  155.8095 H   0  0  0  0  0  0  0  0  0  0  0  0  # atno 11005 bound_to 11000
  146.2206  140.5847  142.9019 LP  0  0  0  0  0  0  0  0  0  0  0  0  # atno 17320 bound_to 7965
  144.7762  140.5744  143.6636 LP  0  0  0  0  0  0  0  0  0  0  0  0  # atno 17321 bound_to 7965
  140.7814  143.4116  151.0983 LP  0  0  0  0  0  0  0  0  0  0  0  0  # atno 17342 bound_to 10162
  139.7778  143.8399  152.3132 LP  0  0  0  0  0  0  0  0  0  0  0  0  # atno 17343 bound_to 10162
  157.6737  131.0855  150.7548 LP  0  0  0  0  0  0  0  0  0  0  0  0  # atno 17370 bound_to 10713
  156.7610  130.4798  149.5437 LP  0  0  0  0  0  0  0  0  0  0  0  0  # atno 17371 bound_to 10713
  141.0926  133.9893  157.3213 LP  0  0  0  0  0  0  0  0  0  0  0  0  # atno 17394 bound_to 11000
  139.9268  135.0201  156.8262 LP  0  0  0  0  0  0  0  0  0  0  0  0  # atno 17395 bound_to 11000

$$$$
