AV-unprocessed.smi:2124|AV-procd|sdf|8672|dock6
  -GOLD-   2272011423D 1   1.00000     0.00000
 Structure written by MMmdl.
 46 48  0  0  0  0  0  0  0  0  2 V2000
  142.8821  134.4969  162.7784 C   0  0  0  0  0  0  0  0  0  0  0  0
  144.2762  134.9022  162.3500 C   0  0  0  0  0  0  0  0  0  0  0  0
  145.2068  134.0262  162.3575 N   0  0  0  0  0  0  0  0  0  0  0  0
  146.5011  134.3881  161.9479 C   0  0  0  0  0  0  0  0  0  0  0  0
  147.5359  133.2767  161.9656 C   0  0  0  0  0  0  0  0  0  0  0  0
  146.7845  135.6605  161.5461 C   0  0  0  0  0  0  0  0  0  0  0  0
  148.1648  136.0923  161.0464 C   0  0  0  0  0  0  0  0  0  0  0  0
  148.4479  135.7383  159.5860 C   0  0  0  0  0  0  0  0  0  0  0  0
  148.4506  134.5630  159.2201 O   0  0  0  0  0  0  0  0  0  0  0  0
  148.6404  136.7766  158.7592 N   0  0  0  0  0  0  0  0  0  0  0  0
  148.6449  136.7204  157.3022 C   0  0  2  0  0  0  0  0  0  0  0  0
  149.5801  135.5970  156.8283 C   0  0  0  0  0  0  0  0  0  0  0  0
  149.0567  138.1041  156.7452 C   0  0  1  0  0  0  0  0  0  0  0  0
  150.5614  138.4309  156.8688 C   0  0  0  0  0  0  0  0  0  0  0  0
  150.9344  138.8862  155.4448 C   0  0  1  0  0  0  0  0  0  0  0  0
  150.9789  137.6581  154.5167 C   0  0  0  0  0  0  0  0  0  0  0  0
  149.4897  137.3039  154.3523 C   0  0  0  0  0  0  0  0  0  0  0  0
  148.7906  138.3554  155.2376 C   0  0  2  0  0  0  0  0  0  0  0  0
  149.6591  139.5823  154.9834 C   0  0  0  0  0  0  0  0  0  0  0  0
  145.6838  136.6409  161.5544 C   0  0  0  0  0  0  0  0  0  0  0  0
  145.8811  137.7986  161.1878 O   0  0  0  0  0  0  0  0  0  0  0  0
  144.4566  136.2114  161.9642 N   0  5  0  0  0  0  0  0  0  0  0  0
  142.9210  133.6787  163.4984 H   0  0  0  0  0  0  0  0  0  0  0  0
  142.3059  134.1685  161.9134 H   0  0  0  0  0  0  0  0  0  0  0  0
  142.3596  135.3330  163.2448 H   0  0  0  0  0  0  0  0  0  0  0  0
  147.9451  133.1161  160.9683 H   0  0  0  0  0  0  0  0  0  0  0  0
  147.0987  132.3354  162.3012 H   0  0  0  0  0  0  0  0  0  0  0  0
  148.3536  133.5256  162.6418 H   0  0  0  0  0  0  0  0  0  0  0  0
  148.3155  137.1637  161.1816 H   0  0  0  0  0  0  0  0  0  0  0  0
  148.9249  135.6229  161.6713 H   0  0  0  0  0  0  0  0  0  0  0  0
  148.6424  137.6994  159.1707 H   0  0  0  0  0  0  0  0  0  0  0  0
  147.6386  136.4906  156.9482 H   0  0  0  0  0  0  0  0  0  0  0  0
  149.5876  135.5219  155.7407 H   0  0  0  0  0  0  0  0  0  0  0  0
  149.2620  134.6306  157.2205 H   0  0  0  0  0  0  0  0  0  0  0  0
  150.6056  135.7682  157.1572 H   0  0  0  0  0  0  0  0  0  0  0  0
  148.4976  138.8624  157.2971 H   0  0  0  0  0  0  0  0  0  0  0  0
  150.7186  139.2333  157.5905 H   0  0  0  0  0  0  0  0  0  0  0  0
  151.1601  137.5773  157.1892 H   0  0  0  0  0  0  0  0  0  0  0  0
  151.8363  139.4977  155.4031 H   0  0  0  0  0  0  0  0  0  0  0  0
  151.4200  137.9126  153.5524 H   0  0  0  0  0  0  0  0  0  0  0  0
  151.5566  136.8374  154.9434 H   0  0  0  0  0  0  0  0  0  0  0  0
  149.1832  137.4206  153.3119 H   0  0  0  0  0  0  0  0  0  0  0  0
  149.2649  136.2777  154.6401 H   0  0  0  0  0  0  0  0  0  0  0  0
  147.7363  138.4951  154.9953 H   0  0  0  0  0  0  0  0  0  0  0  0
  149.3873  140.4426  155.5977 H   0  0  0  0  0  0  0  0  0  0  0  0
  149.6843  139.8855  153.9351 H   0  0  0  0  0  0  0  0  0  0  0  0
  1  2  1  0  0  0  0
  1 23  1  0  0  0  0
  1 24  1  0  0  0  0
  1 25  1  0  0  0  0
  2 22  1  0  0  0  0
  2  3  2  0  0  0  0
  3  4  1  0  0  0  0
  4  5  1  0  0  0  0
  4  6  2  0  0  0  0
  5 26  1  0  0  0  0
  5 27  1  0  0  0  0
  5 28  1  0  0  0  0
  6  7  1  0  0  0  0
  6 20  1  0  0  0  0
  7  8  1  0  0  0  0
  7 29  1  0  0  0  0
  7 30  1  0  0  0  0
  8  9  2  0  0  0  0
  8 10  1  0  0  0  0
 10 11  1  0  0  0  0
 10 31  1  0  0  0  0
 11 12  1  0  0  0  0
 11 13  1  0  0  0  0
 11 32  1  0  0  0  0
 12 33  1  0  0  0  0
 12 34  1  0  0  0  0
 12 35  1  0  0  0  0
 13 18  1  0  0  0  0
 13 14  1  0  0  0  0
 13 36  1  0  0  0  0
 14 15  1  0  0  0  0
 14 37  1  0  0  0  0
 14 38  1  0  0  0  0
 15 19  1  0  0  0  0
 15 16  1  0  0  0  0
 15 39  1  0  0  0  0
 16 17  1  0  0  0  0
 16 40  1  0  0  0  0
 16 41  1  0  0  0  0
 17 18  1  0  0  0  0
 17 42  1  0  0  0  0
 17 43  1  0  0  0  0
 18 19  1  0  0  0  0
 18 44  1  0  0  0  0
 19 45  1  0  0  0  0
 19 46  1  0  0  0  0
 20 21  2  0  0  0  0
 20 22  1  0  0  0  0
M  CHG  1  22  -1
M  END
> <s_m_source_file>
AV-unprocessed.smi

> <i_m_source_file_index>
2124

> <i_lp_mmshare_version>
43012

> <i_f3d_flags>
0

> <s_epik_input>
W0NIM11jMW5jKFtDSDNdKWMoYyg9TylbbkhdMSlbQ0gyXUMoPU8pW05IXVtDQEhdKFtDSDNdKVtDQEhdKFtDSDJdW0NASF0yMylbQ0BIXShbQ0gyXTMpW0NIMl1bQ0gyXTI=

> <s_epik_cmdline>
J2VwaWtfcHl0aG9uJywgJy1waCcsICc3LjAnLCAnLXRuJywgJzgnLCAnLW1hJywgJzIwMCcsICctbWV0YWxfYmluZGluZycsICctaW1hZScsICc8aW5maWxlLm1hZT4nLCAnLW9tYWUnLCAnPG91dGZpbGUubWFlPic=

> <r_lp_tautomer_probability>
0.839158

> <r_epik_Ionization_Penalty>
6.63797

> <r_epik_Ionization_Penalty_Charging>
7.48558e-08

> <r_epik_Ionization_Penalty_Neutral>
6.63797

> <r_epik_State_Penalty>
4.49496

> <r_epik_Charging_Adjusted_Penalty>
4.49496

> <i_epik_Tot_Q>
-1

> <i_epik_Tot_abs_Q>
1

> <r_epik_Metal_State_Penalty>
0.841241

> <b_epik_Metal_Only>
1

> <s_lp_Force_Field>
OPLS_2005

> <r_lp_Energy>
53.1649

> <b_lp_Chiralities_Consistent>
1

> <s_lp_Variant>
AV-unprocessed.smi:2124-23

> <Gold.Version>
5.8.1

> <Gold.Id.Protein>
6NUR|6NUR_protein|mol2

> <Gold.PLP.Fitness>
37.2987

> <Gold.PLP.PLP>
-33.1625

> <Gold.PLP.part.hbond>
-2.0000

> <Gold.PLP.part.metal>
0.0000

> <Gold.PLP.part.buried>
-5.4966

> <Gold.PLP.part.nonpolar>
-26.3246

> <Gold.PLP.part.repulsive>
0.2631

> <Gold.PLP.ligand.clash>
0.0000

> <Gold.PLP.ligand.torsion>
0.5658

> <Gold.PLP.Chemscore.Hbond>
1.7433

> <Gold.PLP.Chemscore.CHOScore>
0.0000

> <Gold.PLP.Chemscore.Metal>
0.0000

> <Gold.Chemscore.Hbonds>
donor molecule, donor type, donor heavy atom, donor atom, acceptor molecule, acceptor atom, score
      P1  H  6896  6907       L1     9  0.24
      P1  H  6934  6947       L1    21  0.99

> <Gold.PLP.Chemscore.Internal.Correction>
0.0380

> <Gold.Rescore>
     Score         DG    S(hbond)    S(metal)    S(lipo)     H(rot)  DE(clash)    DE(int)     intcor
     14.45     -16.56       1.90        0.00      75.68       1.61       0.06       2.05       ----

> <Gold.Chemscore.Fitness>
14.4499

> <Gold.Chemscore.DG>
-16.5599

> <Gold.Chemscore.ZeroCoef>
-5.4800

> <Gold.Chemscore.Hbond>
1.8965

> <Gold.Chemscore.Metal>
0.0000

> <Gold.Chemscore.Lipo>
75.6817

> <Gold.Chemscore.Internal_Hbond>
0.0000

> <Gold.Chemscore.DEClash>
0.0618

> <Gold.Chemscore.DEInternal>
2.0482

> <Gold.Chemscore.Rot>
1.6051

> <Gold.Chemscore.Internal.Correction>
   9.000000E+99

> <Gold.Chemscore.Hbonds>
donor molecule, donor type, donor heavy atom, donor atom, acceptor molecule, acceptor atom, score
      P1  H  6896  6907       L1     9  0.01
      P1  H  6934  6947       L1    21  0.94

> <Gold.Chemscore.Hbond.Weighted>
-6.3342

> <Gold.Chemscore.Metal.Weighted>
-0.0000

> <Gold.Chemscore.Lipo.Weighted>
-8.8548

> <Gold.Chemscore.Internal_Hbond.Weighted>
0.0000

> <Gold.Chemscore.DEClash.Weighted>
0.0618

> <Gold.Chemscore.DEInternal.Weighted>
2.0482

> <Gold.Chemscore.Rot.Weighted>
4.1090

> <Gold.Chemscore.Internal.Correction.Weighted>
   9.000000E+99

> <Gold.Protein.RotatedTorsions>
[ 6907 6896 6895 6894 ] final  -74.04 input  -60.11 | X-H torsion
[ 7974 7965 7964 7962 ] final  112.08 input  175.53 | X-H torsion
[ 8008 7997 7996 7995 ] final  155.44 input   59.86 | X-H torsion
[ 10167 10162 10161 10158 ] final  -68.42 input  -65.29 | X-H torsion
[ 10718 10713 10712 10709 ] final    8.07 input   66.30 | X-H torsion
[ 10763 10752 10751 10750 ] final   62.14 input  -60.55 | X-H torsion
[ 11005 11000 10999 10996 ] final   -9.06 input  -57.11 | X-H torsion

> <Gold.Protein.ActiveResidues>
 VAL166  LYS551  ARG553  GLY616  TRP617  ASP618  TYR619  PRO620  LYS621  CYS622 
 ASP623  PHE694  ASN695  SER759  ASP760  ASP761  ALA762  ILE779  LEU786  VAL792 
 PHE793  MET794  SER795  GLU796  ALA797  LYS798  CYS799  TRP800  GLU811  SER814 

> <Gold.Protein.RotatedAtoms>
  150.7108  134.4928  159.5523 H   0  0  0  0  0  0  0  0  0  0  0  0  # atno 6907 bound_to 6896
  152.2542  134.8098  160.0450 H   0  0  0  0  0  0  0  0  0  0  0  0  # atno 6908 bound_to 6896
  151.8835  133.3465  159.3811 H   0  0  0  0  0  0  0  0  0  0  0  0  # atno 6909 bound_to 6896
  145.2340  139.2807  143.4153 H   0  0  0  0  0  0  0  0  0  0  0  0  # atno 7974 bound_to 7965
  156.2478  140.1939  156.6801 H   0  0  0  0  0  0  0  0  0  0  0  0  # atno 8008 bound_to 7997
  154.6328  140.0593  156.9779 H   0  0  0  0  0  0  0  0  0  0  0  0  # atno 8009 bound_to 7997
  155.1684  140.3266  155.4400 H   0  0  0  0  0  0  0  0  0  0  0  0  # atno 8010 bound_to 7997
  140.5509  143.2312  151.6914 H   0  0  0  0  0  0  0  0  0  0  0  0  # atno 10167 bound_to 10162
  156.9463  130.5880  149.5654 H   0  0  0  0  0  0  0  0  0  0  0  0  # atno 10718 bound_to 10713
  152.9973  135.5475  154.6146 H   0  0  0  0  0  0  0  0  0  0  0  0  # atno 10763 bound_to 10752
  154.5459  135.2823  155.1055 H   0  0  0  0  0  0  0  0  0  0  0  0  # atno 10764 bound_to 10752
  154.2314  135.6433  153.5229 H   0  0  0  0  0  0  0  0  0  0  0  0  # atno 10765 bound_to 10752
  140.7301  133.8756  155.8887 H   0  0  0  0  0  0  0  0  0  0  0  0  # atno 11005 bound_to 11000
  146.3345  140.2684  142.8605 LP  0  0  0  0  0  0  0  0  0  0  0  0  # atno 17320 bound_to 7965
  144.9650  140.8313  143.5490 LP  0  0  0  0  0  0  0  0  0  0  0  0  # atno 17321 bound_to 7965
  139.5027  144.3820  152.0366 LP  0  0  0  0  0  0  0  0  0  0  0  0  # atno 17342 bound_to 10162
  140.2937  144.3725  150.6081 LP  0  0  0  0  0  0  0  0  0  0  0  0  # atno 17343 bound_to 10162
  156.0382  130.5468  150.8706 LP  0  0  0  0  0  0  0  0  0  0  0  0  # atno 17370 bound_to 10713
  157.5752  131.0946  150.9357 LP  0  0  0  0  0  0  0  0  0  0  0  0  # atno 17371 bound_to 10713
  140.9928  134.1256  157.4392 LP  0  0  0  0  0  0  0  0  0  0  0  0  # atno 17394 bound_to 11000
  139.8828  135.0045  156.6256 LP  0  0  0  0  0  0  0  0  0  0  0  0  # atno 17395 bound_to 11000

$$$$
