AV-unprocessed.smi:3232|AV-procd|sdf|12339|dock6
  -GOLD-   2272018203D 1   1.00000     0.00000
 Structure written by MMmdl.
 40 41  0  0  0  0  0  0  0  0  2 V2000
  146.4594  138.5054  151.8995 C   0  0  0  0  0  0  0  0  0  0  0  0
  146.0002  137.7143  153.1315 C   0  0  0  0  0  0  0  0  0  0  0  0
  146.2677  136.2619  152.9967 N   0  3  2  0  0  0  0  0  0  0  0  0
  145.4206  135.5658  152.0056 C   0  0  0  0  0  0  0  0  0  0  0  0
  145.4506  134.1020  152.4239 C   0  0  0  0  0  0  0  0  0  0  0  0
  145.4592  134.1841  153.9462 C   0  0  0  0  0  0  0  0  0  0  0  0
  146.1861  135.5050  154.2719 C   0  0  1  0  0  0  0  0  0  0  0  0
  147.5951  135.3022  154.8667 C   0  0  0  0  0  0  0  0  0  0  0  0
  148.5481  136.2969  154.3857 N   0  0  0  0  0  0  0  0  0  0  0  0
  149.1925  137.1832  155.1622 C   0  0  0  0  0  0  0  0  0  0  0  0
  149.0433  137.2291  156.3840 O   0  0  0  0  0  0  0  0  0  0  0  0
  150.1557  138.1467  154.4464 C   0  0  2  0  0  0  0  0  0  0  0  0
  151.6100  138.0300  154.9468 C   0  0  0  0  0  0  0  0  0  0  0  0
  149.6668  139.5182  154.5251 N   0  0  0  0  0  0  0  0  0  0  0  0
  148.4685  140.0217  154.2214 C   0  0  0  0  0  0  0  0  0  0  0  0
  148.3567  141.3222  154.4516 N   0  0  0  0  0  0  0  0  0  0  0  0
  149.6084  141.5767  154.9356 C   0  0  0  0  0  0  0  0  0  0  0  0
  150.4298  140.5296  155.0098 N   0  0  0  0  0  0  0  0  0  0  0  0
  146.3045  139.5742  152.0489 H   0  0  0  0  0  0  0  0  0  0  0  0
  145.9049  138.2174  151.0063 H   0  0  0  0  0  0  0  0  0  0  0  0
  147.5205  138.3489  151.7034 H   0  0  0  0  0  0  0  0  0  0  0  0
  146.5360  138.0890  154.0048 H   0  0  0  0  0  0  0  0  0  0  0  0
  144.9389  137.8836  153.3189 H   0  0  0  0  0  0  0  0  0  0  0  0
  144.3974  135.9414  152.0612 H   0  0  0  0  0  0  0  0  0  0  0  0
  145.7812  135.7138  150.9872 H   0  0  0  0  0  0  0  0  0  0  0  0
  144.6089  133.5300  152.0325 H   0  0  0  0  0  0  0  0  0  0  0  0
  146.3709  133.6339  152.0718 H   0  0  0  0  0  0  0  0  0  0  0  0
  144.4325  134.2359  154.3115 H   0  0  0  0  0  0  0  0  0  0  0  0
  145.9192  133.3055  154.3993 H   0  0  0  0  0  0  0  0  0  0  0  0
  145.5720  136.0621  154.9822 H   0  0  0  0  0  0  0  0  0  0  0  0
  147.5550  135.3698  155.9545 H   0  0  0  0  0  0  0  0  0  0  0  0
  147.9671  134.3022  154.6366 H   0  0  0  0  0  0  0  0  0  0  0  0
  148.7212  136.3230  153.3910 H   0  0  0  0  0  0  0  0  0  0  0  0
  150.1542  137.8666  153.3918 H   0  0  0  0  0  0  0  0  0  0  0  0
  151.9930  137.0173  154.8151 H   0  0  0  0  0  0  0  0  0  0  0  0
  151.7002  138.2831  156.0041 H   0  0  0  0  0  0  0  0  0  0  0  0
  152.2662  138.7002  154.3909 H   0  0  0  0  0  0  0  0  0  0  0  0
  147.6590  139.4242  153.8281 H   0  0  0  0  0  0  0  0  0  0  0  0
  149.9213  142.5618  155.2490 H   0  0  0  0  0  0  0  0  0  0  0  0
  147.2202  136.1592  152.6768 H   0  0  0  0  0  0  0  0  0  0  0  0
  1  2  1  0  0  0  0
  1 19  1  0  0  0  0
  1 20  1  0  0  0  0
  1 21  1  0  0  0  0
  2  3  1  0  0  0  0
  2 22  1  0  0  0  0
  2 23  1  0  0  0  0
  3  7  1  0  0  0  0
  3  4  1  0  0  0  0
  3 40  1  0  0  0  0
  4  5  1  0  0  0  0
  4 24  1  0  0  0  0
  4 25  1  0  0  0  0
  5  6  1  0  0  0  0
  5 26  1  0  0  0  0
  5 27  1  0  0  0  0
  6  7  1  0  0  0  0
  6 28  1  0  0  0  0
  6 29  1  0  0  0  0
  7  8  1  0  0  0  0
  7 30  1  0  0  0  0
  8  9  1  0  0  0  0
  8 31  1  0  0  0  0
  8 32  1  0  0  0  0
  9 10  1  0  0  0  0
  9 33  1  0  0  0  0
 10 11  2  0  0  0  0
 10 12  1  0  0  0  0
 12 13  1  0  0  0  0
 12 14  1  0  0  0  0
 12 34  1  0  0  0  0
 13 35  1  0  0  0  0
 13 36  1  0  0  0  0
 13 37  1  0  0  0  0
 14 18  1  0  0  0  0
 14 15  1  0  0  0  0
 15 16  2  0  0  0  0
 15 38  1  0  0  0  0
 16 17  1  0  0  0  0
 17 18  2  0  0  0  0
 17 39  1  0  0  0  0
M  CHG  1   3   1
M  END
> <s_m_source_file>
AV-unprocessed.smi

> <i_m_source_file_index>
3232

> <i_lp_mmshare_version>
43012

> <i_f3d_flags>
0

> <s_epik_input>
W0NIM11bQ0gyXU4xW0NIMl1bQ0gyXVtDSDJdW0NASF0xW0NIMl1bTkhdQyg9TylbQ0BIXShbQ0gzXSluMltjSF1uW2NIXW4y

> <s_epik_cmdline>
J2VwaWtfcHl0aG9uJywgJy1waCcsICc3LjAnLCAnLXRuJywgJzgnLCAnLW1hJywgJzIwMCcsICctbWV0YWxfYmluZGluZycsICctaW1hZScsICc8aW5maWxlLm1hZT4nLCAnLW9tYWUnLCAnPG91dGZpbGUubWFlPic=

> <r_lp_tautomer_probability>
1

> <r_epik_Ionization_Penalty>
0.00177695

> <r_epik_Ionization_Penalty_Charging>
0.00176881

> <r_epik_Ionization_Penalty_Neutral>
8.13528e-06

> <r_epik_State_Penalty>
0.00119827

> <r_epik_Charging_Adjusted_Penalty>
0.00296709

> <i_epik_Tot_Q>
1

> <i_epik_Tot_abs_Q>
1

> <r_epik_Metal_State_Penalty>
-0

> <b_epik_Metal_Only>
0

> <s_lp_Force_Field>
OPLS_2005

> <r_lp_Energy>
33.6963

> <b_lp_Chiralities_Consistent>
1

> <s_lp_Variant>
AV-unprocessed.smi:3232-1

> <Gold.Version>
5.8.1

> <Gold.Id.Protein>
6NUR|6NUR_protein|mol2

> <Gold.PLP.Fitness>
39.8000

> <Gold.PLP.PLP>
-26.3237

> <Gold.PLP.part.hbond>
-2.9776

> <Gold.PLP.part.metal>
0.0000

> <Gold.PLP.part.buried>
-3.2012

> <Gold.PLP.part.nonpolar>
-21.9462

> <Gold.PLP.part.repulsive>
0.2505

> <Gold.PLP.ligand.clash>
0.0000

> <Gold.PLP.ligand.torsion>
0.7047

> <Gold.PLP.Chemscore.Hbond>
3.9190

> <Gold.PLP.Chemscore.CHOScore>
1.0000

> <Gold.PLP.Chemscore.Metal>
0.0000

> <Gold.Chemscore.Hbonds>
donor molecule, donor type, donor heavy atom, donor atom, acceptor molecule, acceptor atom, score
      L1  H     3    40       P1  7948  2.00
      L1  H     9    33       P1  7948  1.00
      P1  H  7989  7998       L1    18  0.98
      L1  C    17    39       P1  8028  1.00

> <Gold.PLP.Chemscore.Internal.Correction>
0.1286

> <Gold.Rescore>
     Score         DG    S(hbond)    S(metal)    S(lipo)     H(rot)  DE(clash)    DE(int)     intcor
     11.79     -12.96       2.75        0.00      39.96       2.49       0.05       1.12       ----

> <Gold.Chemscore.Fitness>
11.7940

> <Gold.Chemscore.DG>
-12.9622

> <Gold.Chemscore.ZeroCoef>
-5.4800

> <Gold.Chemscore.Hbond>
2.7473

> <Gold.Chemscore.Metal>
0.0000

> <Gold.Chemscore.Lipo>
39.9647

> <Gold.Chemscore.Internal_Hbond>
0.0000

> <Gold.Chemscore.DEClash>
0.0462

> <Gold.Chemscore.DEInternal>
1.1220

> <Gold.Chemscore.Rot>
2.4882

> <Gold.Chemscore.Internal.Correction>
   9.000000E+99

> <Gold.Chemscore.Hbonds>
donor molecule, donor type, donor heavy atom, donor atom, acceptor molecule, acceptor atom, score
      L1  H     3    40       P1  7948  1.00
      L1  H     9    33       P1  7948  0.94
      P1  H  7989  7998       L1    18  0.10

> <Gold.Chemscore.Hbond.Weighted>
-9.1761

> <Gold.Chemscore.Metal.Weighted>
-0.0000

> <Gold.Chemscore.Lipo.Weighted>
-4.6759

> <Gold.Chemscore.Internal_Hbond.Weighted>
0.0000

> <Gold.Chemscore.DEClash.Weighted>
0.0462

> <Gold.Chemscore.DEInternal.Weighted>
1.1220

> <Gold.Chemscore.Rot.Weighted>
6.3697

> <Gold.Chemscore.Internal.Correction.Weighted>
   9.000000E+99

> <Gold.Protein.RotatedTorsions>
[ 6907 6896 6895 6894 ] final   15.85 input  -60.11 | X-H torsion
[ 7974 7965 7964 7962 ] final  118.71 input  175.53 | X-H torsion
[ 8008 7997 7996 7995 ] final  101.53 input   59.86 | X-H torsion
[ 10167 10162 10161 10158 ] final   93.06 input  -65.29 | X-H torsion
[ 10718 10713 10712 10709 ] final  151.27 input   66.30 | X-H torsion
[ 10763 10752 10751 10750 ] final  179.62 input  -60.55 | X-H torsion
[ 11005 11000 10999 10996 ] final  -68.76 input  -57.11 | X-H torsion

> <Gold.Protein.ActiveResidues>
 VAL166  LYS551  ARG553  GLY616  TRP617  ASP618  TYR619  PRO620  LYS621  CYS622 
 ASP623  PHE694  ASN695  SER759  ASP760  ASP761  ALA762  ILE779  LEU786  VAL792 
 PHE793  MET794  SER795  GLU796  ALA797  LYS798  CYS799  TRP800  GLU811  SER814 

> <Gold.Protein.RotatedAtoms>
  151.8246  135.0641  160.0429 H   0  0  0  0  0  0  0  0  0  0  0  0  # atno 6907 bound_to 6896
  152.2925  133.5571  159.5575 H   0  0  0  0  0  0  0  0  0  0  0  0  # atno 6908 bound_to 6896
  150.7236  134.0324  159.3780 H   0  0  0  0  0  0  0  0  0  0  0  0  # atno 6909 bound_to 6896
  145.1518  139.3206  143.4562 H   0  0  0  0  0  0  0  0  0  0  0  0  # atno 7974 bound_to 7965
  156.1308  140.3196  155.8346 H   0  0  0  0  0  0  0  0  0  0  0  0  # atno 8008 bound_to 7997
  155.4335  140.0520  157.3033 H   0  0  0  0  0  0  0  0  0  0  0  0  # atno 8009 bound_to 7997
  154.4898  140.2087  155.9587 H   0  0  0  0  0  0  0  0  0  0  0  0  # atno 8010 bound_to 7997
  139.8216  144.6728  150.9511 H   0  0  0  0  0  0  0  0  0  0  0  0  # atno 10167 bound_to 10162
  157.2728  131.0820  151.1587 H   0  0  0  0  0  0  0  0  0  0  0  0  # atno 10718 bound_to 10713
  154.5230  135.2795  155.1246 H   0  0  0  0  0  0  0  0  0  0  0  0  # atno 10763 bound_to 10752
  154.2796  135.6288  153.5345 H   0  0  0  0  0  0  0  0  0  0  0  0  # atno 10764 bound_to 10752
  152.9941  135.5648  154.5724 H   0  0  0  0  0  0  0  0  0  0  0  0  # atno 10765 bound_to 10752
  141.1539  133.6748  156.6496 H   0  0  0  0  0  0  0  0  0  0  0  0  # atno 11005 bound_to 11000
  146.3493  140.1596  142.8591 LP  0  0  0  0  0  0  0  0  0  0  0  0  # atno 17320 bound_to 7965
  145.0422  140.8954  143.5045 LP  0  0  0  0  0  0  0  0  0  0  0  0  # atno 17321 bound_to 7965
  140.7813  143.4086  151.1030 LP  0  0  0  0  0  0  0  0  0  0  0  0  # atno 17342 bound_to 10162
  139.7746  143.8444  152.3127 LP  0  0  0  0  0  0  0  0  0  0  0  0  # atno 17343 bound_to 10162
  157.3052  130.6862  149.6186 LP  0  0  0  0  0  0  0  0  0  0  0  0  # atno 17370 bound_to 10713
  155.9663  130.4380  150.5198 LP  0  0  0  0  0  0  0  0  0  0  0  0  # atno 17371 bound_to 10713
  140.3331  134.7912  157.4341 LP  0  0  0  0  0  0  0  0  0  0  0  0  # atno 17394 bound_to 11000
  140.1000  134.5485  155.8362 LP  0  0  0  0  0  0  0  0  0  0  0  0  # atno 17395 bound_to 11000

$$$$
