AV-unprocessed.smi:2397|AV-procd|sdf|9496|dock6
  -GOLD-   2272013123D 1   1.00000     0.00000
 Structure written by MMmdl.
 37 38  0  0  0  0  0  0  0  0  2 V2000
  153.1204  142.6097  160.2083 C   0  0  0  0  0  0  0  0  0  0  0  0
  152.3790  143.3779  159.1037 C   0  0  0  0  0  0  0  0  0  0  0  0
  151.7209  144.6709  159.6090 C   0  0  0  0  0  0  0  0  0  0  0  0
  151.3922  142.4911  158.3581 C   0  0  0  0  0  0  0  0  0  0  0  0
  150.0925  142.8267  158.3510 N   0  3  0  0  0  0  0  0  0  0  0  0
  149.2013  142.0462  157.6940 C   0  0  0  0  0  0  0  0  0  0  0  0
  149.6296  140.8890  157.0185 C   0  0  0  0  0  0  0  0  0  0  0  0
  151.0097  140.5959  157.0589 C   0  0  0  0  0  0  0  0  0  0  0  0
  151.5809  139.4701  156.4311 N   0  0  0  0  0  0  0  0  0  0  0  0
  152.3690  138.6858  157.3806 C   0  0  0  0  0  0  0  0  0  0  0  0
  153.1382  137.5693  156.6616 C   0  0  0  0  0  0  0  0  0  0  0  0
  152.2176  136.7673  155.9363 O   0  0  0  0  0  0  0  0  0  0  0  0
  151.5605  137.5157  154.9211 C   0  0  0  0  0  0  0  0  0  0  0  0
  150.7287  138.6643  155.5402 C   0  0  2  0  0  0  0  0  0  0  0  0
  150.0477  139.4260  154.3846 C   0  0  0  0  0  0  0  0  0  0  0  0
  149.3696  138.7226  153.4712 N   0  0  0  0  0  0  0  0  0  0  0  0
  150.1523  140.6480  154.3116 O   0  0  0  0  0  0  0  0  0  0  0  0
  151.8586  141.4016  157.7320 N   0  0  0  0  0  0  0  0  0  0  0  0
  153.6376  141.7400  159.8020 H   0  0  0  0  0  0  0  0  0  0  0  0
  152.4342  142.2592  160.9801 H   0  0  0  0  0  0  0  0  0  0  0  0
  153.8664  143.2410  160.6918 H   0  0  0  0  0  0  0  0  0  0  0  0
  153.1384  143.6836  158.3818 H   0  0  0  0  0  0  0  0  0  0  0  0
  151.2679  145.2277  158.7882 H   0  0  0  0  0  0  0  0  0  0  0  0
  152.4534  145.3231  160.0851 H   0  0  0  0  0  0  0  0  0  0  0  0
  150.9401  144.4611  160.3407 H   0  0  0  0  0  0  0  0  0  0  0  0
  148.1723  142.3726  157.7317 H   0  0  0  0  0  0  0  0  0  0  0  0
  148.9173  140.2646  156.5003 H   0  0  0  0  0  0  0  0  0  0  0  0
  153.0792  139.3197  157.9135 H   0  0  0  0  0  0  0  0  0  0  0  0
  151.7044  138.2532  158.1302 H   0  0  0  0  0  0  0  0  0  0  0  0
  153.8955  137.9807  155.9919 H   0  0  0  0  0  0  0  0  0  0  0  0
  153.6592  136.9440  157.3867 H   0  0  0  0  0  0  0  0  0  0  0  0
  152.2996  137.8977  154.2138 H   0  0  0  0  0  0  0  0  0  0  0  0
  150.9159  136.8353  154.3631 H   0  0  0  0  0  0  0  0  0  0  0  0
  149.9463  138.2039  156.1454 H   0  0  0  0  0  0  0  0  0  0  0  0
  148.9334  139.1955  152.6927 H   0  0  0  0  0  0  0  0  0  0  0  0
  149.3151  137.7173  153.5519 H   0  0  0  0  0  0  0  0  0  0  0  0
  149.7679  143.6630  158.8374 H   0  0  0  0  0  0  0  0  0  0  0  0
  1  2  1  0  0  0  0
  1 19  1  0  0  0  0
  1 20  1  0  0  0  0
  1 21  1  0  0  0  0
  2  3  1  0  0  0  0
  2  4  1  0  0  0  0
  2 22  1  0  0  0  0
  3 23  1  0  0  0  0
  3 24  1  0  0  0  0
  3 25  1  0  0  0  0
  4 18  1  0  0  0  0
  4  5  2  0  0  0  0
  5  6  1  0  0  0  0
  5 37  1  0  0  0  0
  6  7  2  0  0  0  0
  6 26  1  0  0  0  0
  7  8  1  0  0  0  0
  7 27  1  0  0  0  0
  8  9  1  0  0  0  0
  8 18  2  0  0  0  0
  9 14  1  0  0  0  0
  9 10  1  0  0  0  0
 10 11  1  0  0  0  0
 10 28  1  0  0  0  0
 10 29  1  0  0  0  0
 11 12  1  0  0  0  0
 11 30  1  0  0  0  0
 11 31  1  0  0  0  0
 12 13  1  0  0  0  0
 13 14  1  0  0  0  0
 13 32  1  0  0  0  0
 13 33  1  0  0  0  0
 14 15  1  0  0  0  0
 14 34  1  0  0  0  0
 15 16  1  0  0  0  0
 15 17  2  0  0  0  0
 16 35  1  0  0  0  0
 16 36  1  0  0  0  0
M  CHG  1   5   1
M  END
> <s_m_source_file>
AV-unprocessed.smi

> <i_m_source_file_index>
2397

> <i_lp_mmshare_version>
43012

> <i_f3d_flags>
0

> <s_epik_input>
W0NIM11bQ0hdKFtDSDNdKWMxbltjSF1bY0hdYyhuMSlOMltDSDJdW0NIMl1PW0NIMl1bQ0BIXTJDKD1PKVtOSDJd

> <s_epik_cmdline>
J2VwaWtfcHl0aG9uJywgJy1waCcsICc3LjAnLCAnLXRuJywgJzgnLCAnLW1hJywgJzIwMCcsICctbWV0YWxfYmluZGluZycsICctaW1hZScsICc8aW5maWxlLm1hZT4nLCAnLW9tYWUnLCAnPG91dGZpbGUubWFlPic=

> <r_lp_tautomer_probability>
0.999336

> <r_epik_Ionization_Penalty>
1.74009

> <r_epik_Ionization_Penalty_Charging>
1.74009

> <r_epik_Ionization_Penalty_Neutral>
2.46902e-07

> <r_epik_State_Penalty>
1.8491

> <r_epik_Charging_Adjusted_Penalty>
3.5892

> <i_epik_Tot_Q>
1

> <i_epik_Tot_abs_Q>
1

> <r_epik_Metal_State_Penalty>
1.87997

> <b_epik_Metal_Only>
0

> <s_lp_Force_Field>
OPLS_2005

> <r_lp_Energy>
12.8895

> <b_lp_Chiralities_Consistent>
1

> <s_lp_Variant>
AV-unprocessed.smi:2397-4

> <Gold.Version>
5.8.1

> <Gold.Id.Protein>
6NUR|6NUR_protein|mol2

> <Gold.PLP.Fitness>
39.9130

> <Gold.PLP.PLP>
-31.8918

> <Gold.PLP.part.hbond>
-3.9912

> <Gold.PLP.part.metal>
0.0000

> <Gold.PLP.part.buried>
-4.5691

> <Gold.PLP.part.nonpolar>
-23.8393

> <Gold.PLP.part.repulsive>
0.3136

> <Gold.PLP.ligand.clash>
0.0000

> <Gold.PLP.ligand.torsion>
0.2785

> <Gold.PLP.Chemscore.Hbond>
2.7617

> <Gold.PLP.Chemscore.CHOScore>
0.0000

> <Gold.PLP.Chemscore.Metal>
0.0000

> <Gold.Chemscore.Hbonds>
donor molecule, donor type, donor heavy atom, donor atom, acceptor molecule, acceptor atom, score
      L1  H    16    35       P1  7957  0.67
      L1  H    16    36       P1  7948  0.23
      P1  H  7989  7998       L1    17  0.78
      P1  H 10752 10765       L1    12  1.00

> <Gold.PLP.Chemscore.Internal.Correction>
0.2932

> <Gold.Rescore>
     Score         DG    S(hbond)    S(metal)    S(lipo)     H(rot)  DE(clash)    DE(int)     intcor
     11.91     -15.81       2.29        0.00      61.72       1.77       0.11       3.80       ----

> <Gold.Chemscore.Fitness>
11.9068

> <Gold.Chemscore.DG>
-15.8144

> <Gold.Chemscore.ZeroCoef>
-5.4800

> <Gold.Chemscore.Hbond>
2.2902

> <Gold.Chemscore.Metal>
0.0000

> <Gold.Chemscore.Lipo>
61.7156

> <Gold.Chemscore.Internal_Hbond>
0.0000

> <Gold.Chemscore.DEClash>
0.1059

> <Gold.Chemscore.DEInternal>
3.8017

> <Gold.Chemscore.Rot>
1.7717

> <Gold.Chemscore.Internal.Correction>
   9.000000E+99

> <Gold.Chemscore.Hbonds>
donor molecule, donor type, donor heavy atom, donor atom, acceptor molecule, acceptor atom, score
      L1  H    16    35       P1  7957  0.66
      L1  H    16    36       P1  7948  0.22
      P1  H  7989  7998       L1    17  0.35
      P1  H 10752 10765       L1    12  0.29

> <Gold.Chemscore.Hbond.Weighted>
-7.6494

> <Gold.Chemscore.Metal.Weighted>
-0.0000

> <Gold.Chemscore.Lipo.Weighted>
-7.2207

> <Gold.Chemscore.Internal_Hbond.Weighted>
0.0000

> <Gold.Chemscore.DEClash.Weighted>
0.1059

> <Gold.Chemscore.DEInternal.Weighted>
3.8017

> <Gold.Chemscore.Rot.Weighted>
4.5357

> <Gold.Chemscore.Internal.Correction.Weighted>
   9.000000E+99

> <Gold.Protein.RotatedTorsions>
[ 6907 6896 6895 6894 ] final -151.33 input  -60.11 | X-H torsion
[ 7974 7965 7964 7962 ] final   20.95 input  175.53 | X-H torsion
[ 8008 7997 7996 7995 ] final   92.81 input   59.86 | X-H torsion
[ 10167 10162 10161 10158 ] final  -43.36 input  -65.29 | X-H torsion
[ 10718 10713 10712 10709 ] final -114.78 input   66.30 | X-H torsion
[ 10763 10752 10751 10750 ] final -154.95 input  -60.55 | X-H torsion
[ 11005 11000 10999 10996 ] final   12.71 input  -57.11 | X-H torsion

> <Gold.Protein.ActiveResidues>
 VAL166  LYS551  ARG553  GLY616  TRP617  ASP618  TYR619  PRO620  LYS621  CYS622 
 ASP623  PHE694  ASN695  SER759  ASP760  ASP761  ALA762  ILE779  LEU786  VAL792 
 PHE793  MET794  SER795  GLU796  ALA797  LYS798  CYS799  TRP800  GLU811  SER814 

> <Gold.Protein.RotatedAtoms>
  151.2116  133.4553  159.2598 H   0  0  0  0  0  0  0  0  0  0  0  0  # atno 6907 bound_to 6896
  151.0971  134.9951  159.8441 H   0  0  0  0  0  0  0  0  0  0  0  0  # atno 6908 bound_to 6896
  152.5440  134.2045  159.8778 H   0  0  0  0  0  0  0  0  0  0  0  0  # atno 6909 bound_to 6896
  146.2091  139.8096  142.8703 H   0  0  0  0  0  0  0  0  0  0  0  0  # atno 7974 bound_to 7965
  156.0396  140.3321  155.7229 H   0  0  0  0  0  0  0  0  0  0  0  0  # atno 8008 bound_to 7997
  155.5764  140.0633  157.2812 H   0  0  0  0  0  0  0  0  0  0  0  0  # atno 8009 bound_to 7997
  154.4387  140.1852  156.0920 H   0  0  0  0  0  0  0  0  0  0  0  0  # atno 8010 bound_to 7997
  140.6936  143.2987  151.3342 H   0  0  0  0  0  0  0  0  0  0  0  0  # atno 10167 bound_to 10162
  156.0852  130.6045  150.8819 H   0  0  0  0  0  0  0  0  0  0  0  0  # atno 10718 bound_to 10713
  154.7822  135.3178  154.7964 H   0  0  0  0  0  0  0  0  0  0  0  0  # atno 10763 bound_to 10752
  153.8672  135.6847  153.4782 H   0  0  0  0  0  0  0  0  0  0  0  0  # atno 10764 bound_to 10752
  153.1462  135.4718  154.9508 H   0  0  0  0  0  0  0  0  0  0  0  0  # atno 10765 bound_to 10752
  140.4890  134.0860  155.7767 H   0  0  0  0  0  0  0  0  0  0  0  0  # atno 11005 bound_to 11000
  145.3209  141.0244  143.3501 LP  0  0  0  0  0  0  0  0  0  0  0  0  # atno 17320 bound_to 7965
  144.8867  139.4830  143.6697 LP  0  0  0  0  0  0  0  0  0  0  0  0  # atno 17321 bound_to 7965
  139.6366  144.0619  152.2521 LP  0  0  0  0  0  0  0  0  0  0  0  0  # atno 17342 bound_to 10162
  140.0110  144.6223  150.7647 LP  0  0  0  0  0  0  0  0  0  0  0  0  # atno 17343 bound_to 10162
  157.5984  131.0942  150.9002 LP  0  0  0  0  0  0  0  0  0  0  0  0  # atno 17370 bound_to 10713
  156.9164  130.5299  149.5279 LP  0  0  0  0  0  0  0  0  0  0  0  0  # atno 17371 bound_to 10713
  141.1494  133.8997  157.2136 LP  0  0  0  0  0  0  0  0  0  0  0  0  # atno 17394 bound_to 11000
  139.9781  135.0107  156.9681 LP  0  0  0  0  0  0  0  0  0  0  0  0  # atno 17395 bound_to 11000

$$$$
