AV-unprocessed.smi:3241|AV-procd|sdf|12391|dock9
  -GOLD-   2272018263D 1   1.00000     0.00000
 Structure written by MMmdl.
 43 44  0  0  0  0  0  0  0  0  1 V2000
  150.0770  140.2136  155.1222 C   0  0  0  0  0  0  0  0  0  0  0  0
  148.8745  141.1702  155.1223 C   0  0  2  0  0  0  0  0  0  0  0  0
  147.9658  140.9508  156.3490 C   0  0  0  0  0  0  0  0  0  0  0  0
  146.7838  141.9337  156.3608 C   0  0  0  0  0  0  0  0  0  0  0  0
  145.9784  141.8554  155.0552 C   0  0  0  0  0  0  0  0  0  0  0  0
  146.8807  142.0747  153.8302 C   0  0  0  0  0  0  0  0  0  0  0  0
  148.0675  141.0887  153.8073 C   0  0  2  0  0  0  0  0  0  0  0  0
  147.5683  139.7623  153.6517 O   0  0  0  0  0  0  0  0  0  0  0  0
  147.0713  139.4261  152.3605 C   0  0  0  0  0  0  0  0  0  0  0  0
  146.2209  138.1462  152.3740 C   0  0  0  0  0  0  0  0  0  0  0  0
  145.7864  137.8009  151.0261 N   0  0  0  0  0  0  0  0  0  0  0  0
  146.0170  136.4051  150.6690 C   0  0  0  0  0  0  0  0  0  0  0  0
  144.7891  135.5363  150.9831 C   0  0  0  0  0  0  0  0  0  0  0  0
  144.9996  134.1454  150.6185 N   0  0  0  0  0  0  0  0  0  0  0  0
  144.2051  133.3370  149.8329 C   0  0  0  0  0  0  0  0  0  0  0  0
  144.7998  132.1090  149.7812 C   0  0  0  0  0  0  0  0  0  0  0  0
  145.9697  132.2666  150.5759 C   0  0  0  0  0  0  0  0  0  0  0  0
  146.0874  133.4865  151.0744 N   0  0  0  0  0  0  0  0  0  0  0  0
  149.7578  139.1716  155.0868 H   0  0  0  0  0  0  0  0  0  0  0  0
  150.6813  140.3443  156.0202 H   0  0  0  0  0  0  0  0  0  0  0  0
  150.7216  140.3940  154.2616 H   0  0  0  0  0  0  0  0  0  0  0  0
  149.2770  142.1819  155.1927 H   0  0  0  0  0  0  0  0  0  0  0  0
  147.5874  139.9277  156.3522 H   0  0  0  0  0  0  0  0  0  0  0  0
  148.5436  141.0666  157.2665 H   0  0  0  0  0  0  0  0  0  0  0  0
  146.1343  141.7234  157.2110 H   0  0  0  0  0  0  0  0  0  0  0  0
  147.1550  142.9498  156.4996 H   0  0  0  0  0  0  0  0  0  0  0  0
  145.4908  140.8824  154.9817 H   0  0  0  0  0  0  0  0  0  0  0  0
  145.1808  142.5983  155.0659 H   0  0  0  0  0  0  0  0  0  0  0  0
  146.2890  141.9888  152.9195 H   0  0  0  0  0  0  0  0  0  0  0  0
  147.2629  143.0960  153.8455 H   0  0  0  0  0  0  0  0  0  0  0  0
  148.7309  141.3529  152.9818 H   0  0  0  0  0  0  0  0  0  0  0  0
  146.4966  140.2625  151.9602 H   0  0  0  0  0  0  0  0  0  0  0  0
  147.9235  139.2938  151.6933 H   0  0  0  0  0  0  0  0  0  0  0  0
  146.7768  137.3213  152.8196 H   0  0  0  0  0  0  0  0  0  0  0  0
  145.3488  138.3054  153.0091 H   0  0  0  0  0  0  0  0  0  0  0  0
  144.8078  138.0391  150.9001 H   0  0  0  0  0  0  0  0  0  0  0  0
  146.2589  136.3235  149.6087 H   0  0  0  0  0  0  0  0  0  0  0  0
  146.8801  136.0234  151.2153 H   0  0  0  0  0  0  0  0  0  0  0  0
  144.5724  135.5757  152.0512 H   0  0  0  0  0  0  0  0  0  0  0  0
  143.9046  135.9184  150.4706 H   0  0  0  0  0  0  0  0  0  0  0  0
  143.2912  133.6982  149.3850 H   0  0  0  0  0  0  0  0  0  0  0  0
  144.4517  131.2309  149.2579 H   0  0  0  0  0  0  0  0  0  0  0  0
  146.7309  131.5353  150.8050 H   0  0  0  0  0  0  0  0  0  0  0  0
  1  2  1  0  0  0  0
  1 19  1  0  0  0  0
  1 20  1  0  0  0  0
  1 21  1  0  0  0  0
  2  7  1  0  0  0  0
  2  3  1  0  0  0  0
  2 22  1  0  0  0  0
  3  4  1  0  0  0  0
  3 23  1  0  0  0  0
  3 24  1  0  0  0  0
  4  5  1  0  0  0  0
  4 25  1  0  0  0  0
  4 26  1  0  0  0  0
  5  6  1  0  0  0  0
  5 27  1  0  0  0  0
  5 28  1  0  0  0  0
  6  7  1  0  0  0  0
  6 29  1  0  0  0  0
  6 30  1  0  0  0  0
  7  8  1  0  0  0  0
  7 31  1  0  0  0  0
  8  9  1  0  0  0  0
  9 10  1  0  0  0  0
  9 32  1  0  0  0  0
  9 33  1  0  0  0  0
 10 11  1  0  0  0  0
 10 34  1  0  0  0  0
 10 35  1  0  0  0  0
 11 12  1  0  0  0  0
 11 36  1  0  0  0  0
 12 13  1  0  0  0  0
 12 37  1  0  0  0  0
 12 38  1  0  0  0  0
 13 14  1  0  0  0  0
 13 39  1  0  0  0  0
 13 40  1  0  0  0  0
 14 18  1  0  0  0  0
 14 15  1  0  0  0  0
 15 16  2  0  0  0  0
 15 41  1  0  0  0  0
 16 17  1  0  0  0  0
 16 42  1  0  0  0  0
 17 18  2  0  0  0  0
 17 43  1  0  0  0  0
M  END
> <s_m_source_file>
AV-unprocessed.smi

> <i_m_source_file_index>
3241

> <i_lp_mmshare_version>
43012

> <i_f3d_flags>
0

> <s_epik_input>
W0NIM11bQ0BASF0xW0NIMl1bQ0gyXVtDSDJdW0NIMl1bQ0BIXTFPW0NIMl1bQ0gyXVtOSF1bQ0gyXVtDSDJdbjJbY0hdW2NIXVtjSF1uMg==

> <s_epik_cmdline>
J2VwaWtfcHl0aG9uJywgJy1waCcsICc3LjAnLCAnLXRuJywgJzgnLCAnLW1hJywgJzIwMCcsICctbWV0YWxfYmluZGluZycsICctaW1hZScsICc8aW5maWxlLm1hZT4nLCAnLW9tYWUnLCAnPG91dGZpbGUubWFlPic=

> <r_lp_tautomer_probability>
1

> <r_epik_Ionization_Penalty>
2.47055

> <r_epik_Ionization_Penalty_Charging>
0

> <r_epik_Ionization_Penalty_Neutral>
2.47055

> <r_epik_State_Penalty>
2.6322

> <r_epik_Charging_Adjusted_Penalty>
2.6322

> <i_epik_Tot_Q>
0

> <i_epik_Tot_abs_Q>
0

> <r_epik_Metal_State_Penalty>
2.63108

> <b_epik_Metal_Only>
0

> <s_lp_Force_Field>
OPLS_2005

> <r_lp_Energy>
17.4206

> <b_lp_Chiralities_Consistent>
1

> <s_lp_Variant>
AV-unprocessed.smi:3241-7

> <Gold.Version>
5.8.1

> <Gold.Id.Protein>
6NUR|6NUR_protein|mol2

> <Gold.PLP.Fitness>
43.3728

> <Gold.PLP.PLP>
-36.7192

> <Gold.PLP.part.hbond>
-0.5082

> <Gold.PLP.part.metal>
0.0000

> <Gold.PLP.part.buried>
-3.0729

> <Gold.PLP.part.nonpolar>
-33.4085

> <Gold.PLP.part.repulsive>
0.3417

> <Gold.PLP.ligand.clash>
0.0000

> <Gold.PLP.ligand.torsion>
0.7596

> <Gold.PLP.Chemscore.Hbond>
0.6880

> <Gold.PLP.Chemscore.CHOScore>
2.0000

> <Gold.PLP.Chemscore.Metal>
0.0000

> <Gold.Chemscore.Hbonds>
donor molecule, donor type, donor heavy atom, donor atom, acceptor molecule, acceptor atom, score
      L1  H    11    36       P1 10171  0.78
      L1  C    15    41       P1 10186  1.00
      L1  C    17    43       P1 10747  1.00

> <Gold.PLP.Chemscore.Internal.Correction>
0.1088

> <Gold.Rescore>
     Score         DG    S(hbond)    S(metal)    S(lipo)     H(rot)  DE(clash)    DE(int)     intcor
     13.76     -14.81       0.83        0.00      95.07       1.79       0.26       0.79       ----

> <Gold.Chemscore.Fitness>
13.7637

> <Gold.Chemscore.DG>
-14.8061

> <Gold.Chemscore.ZeroCoef>
-5.4800

> <Gold.Chemscore.Hbond>
0.8339

> <Gold.Chemscore.Metal>
0.0000

> <Gold.Chemscore.Lipo>
95.0730

> <Gold.Chemscore.Internal_Hbond>
0.0000

> <Gold.Chemscore.DEClash>
0.2553

> <Gold.Chemscore.DEInternal>
0.7871

> <Gold.Chemscore.Rot>
1.7901

> <Gold.Chemscore.Internal.Correction>
   9.000000E+99

> <Gold.Chemscore.Hbonds>
donor molecule, donor type, donor heavy atom, donor atom, acceptor molecule, acceptor atom, score
      L1  H    11    36       P1 10171  0.73

> <Gold.Chemscore.Hbond.Weighted>
-2.7853

> <Gold.Chemscore.Metal.Weighted>
-0.0000

> <Gold.Chemscore.Lipo.Weighted>
-11.1235

> <Gold.Chemscore.Internal_Hbond.Weighted>
0.0000

> <Gold.Chemscore.DEClash.Weighted>
0.2553

> <Gold.Chemscore.DEInternal.Weighted>
0.7871

> <Gold.Chemscore.Rot.Weighted>
4.5827

> <Gold.Chemscore.Internal.Correction.Weighted>
   9.000000E+99

> <Gold.Protein.RotatedTorsions>
[ 6907 6896 6895 6894 ] final  143.16 input  -60.11 | X-H torsion
[ 7974 7965 7964 7962 ] final   45.54 input  175.53 | X-H torsion
[ 8008 7997 7996 7995 ] final  172.00 input   59.86 | X-H torsion
[ 10167 10162 10161 10158 ] final  130.52 input  -65.29 | X-H torsion
[ 10718 10713 10712 10709 ] final  -21.53 input   66.30 | X-H torsion
[ 10763 10752 10751 10750 ] final  170.24 input  -60.55 | X-H torsion
[ 11005 11000 10999 10996 ] final    4.67 input  -57.11 | X-H torsion

> <Gold.Protein.ActiveResidues>
 VAL166  LYS551  ARG553  GLY616  TRP617  ASP618  TYR619  PRO620  LYS621  CYS622 
 ASP623  PHE694  ASN695  SER759  ASP760  ASP761  ALA762  ILE779  LEU786  VAL792 
 PHE793  MET794  SER795  GLU796  ALA797  LYS798  CYS799  TRP800  GLU811  SER814 

> <Gold.Protein.RotatedAtoms>
  152.2098  133.4902  159.5103 H   0  0  0  0  0  0  0  0  0  0  0  0  # atno 6907 bound_to 6896
  150.6987  134.1482  159.4139 H   0  0  0  0  0  0  0  0  0  0  0  0  # atno 6908 bound_to 6896
  151.9401  135.0217  160.0586 H   0  0  0  0  0  0  0  0  0  0  0  0  # atno 6909 bound_to 6896
  146.0471  139.4953  142.9742 H   0  0  0  0  0  0  0  0  0  0  0  0  # atno 7974 bound_to 7965
  156.1217  140.1497  156.9195 H   0  0  0  0  0  0  0  0  0  0  0  0  # atno 8008 bound_to 7997
  154.4841  140.0870  156.7486 H   0  0  0  0  0  0  0  0  0  0  0  0  # atno 8009 bound_to 7997
  155.4416  140.3431  155.4293 H   0  0  0  0  0  0  0  0  0  0  0  0  # atno 8010 bound_to 7997
  139.5426  144.6744  151.4576 H   0  0  0  0  0  0  0  0  0  0  0  0  # atno 10167 bound_to 10162
  156.5168  130.4623  149.6618 H   0  0  0  0  0  0  0  0  0  0  0  0  # atno 10718 bound_to 10713
  154.3948  135.2754  155.2133 H   0  0  0  0  0  0  0  0  0  0  0  0  # atno 10763 bound_to 10752
  154.4183  135.6006  153.5998 H   0  0  0  0  0  0  0  0  0  0  0  0  # atno 10764 bound_to 10752
  152.9831  135.5966  154.4208 H   0  0  0  0  0  0  0  0  0  0  0  0  # atno 10765 bound_to 10752
  140.5793  134.0028  155.8041 H   0  0  0  0  0  0  0  0  0  0  0  0  # atno 11005 bound_to 11000
  145.6788  141.0197  143.1618 LP  0  0  0  0  0  0  0  0  0  0  0  0  # atno 17320 bound_to 7965
  144.7103  139.8396  143.7416 LP  0  0  0  0  0  0  0  0  0  0  0  0  # atno 17321 bound_to 7965
  140.6662  143.8393  150.6944 LP  0  0  0  0  0  0  0  0  0  0  0  0  # atno 17342 bound_to 10162
  140.1803  143.4120  152.1938 LP  0  0  0  0  0  0  0  0  0  0  0  0  # atno 17343 bound_to 10162
  156.3187  130.7269  151.2176 LP  0  0  0  0  0  0  0  0  0  0  0  0  # atno 17370 bound_to 10713
  157.7442  131.0461  150.4879 LP  0  0  0  0  0  0  0  0  0  0  0  0  # atno 17371 bound_to 10713
  141.1006  133.9774  157.3085 LP  0  0  0  0  0  0  0  0  0  0  0  0  # atno 17394 bound_to 11000
  139.9325  135.0199  156.8446 LP  0  0  0  0  0  0  0  0  0  0  0  0  # atno 17395 bound_to 11000

$$$$
