AV-unprocessed.smi:2332|AV-procd|sdf|9319|dock7
  -GOLD-   2272012543D 1   1.00000     0.00000
 Structure written by MMmdl.
 32 33  0  0  0  0  0  0  0  0  1 V2000
  154.1163  136.1203  163.4299 C   0  0  0  0  0  0  0  0  0  0  0  0
  154.1884  137.3000  162.5819 N   0  0  0  0  0  0  0  0  0  0  0  0
  154.0144  137.2891  161.2516 C   0  0  0  0  0  0  0  0  0  0  0  0
  153.7834  136.2580  160.6187 O   0  0  0  0  0  0  0  0  0  0  0  0
  154.1372  138.6353  160.5211 C   0  0  1  0  0  0  0  0  0  0  0  0
  152.9287  138.9069  159.5959 C   0  0  0  0  0  0  0  0  0  0  0  0
  153.0150  140.2415  159.0073 N   0  0  0  0  0  0  0  0  0  0  0  0
  152.1135  140.4998  157.9517 C   0  0  0  0  0  0  0  0  0  0  0  0
  150.9938  141.3405  158.1615 C   0  0  0  0  0  0  0  0  0  0  0  0
  150.1093  141.5881  157.0936 C   0  0  0  0  0  0  0  0  0  0  0  0
  150.3662  140.9881  155.8464 C   0  0  0  0  0  0  0  0  0  0  0  0
  149.4839  141.2128  154.7143 C   0  0  0  0  0  0  0  0  0  0  0  0
  148.7815  141.3917  153.8125 N   0  0  0  0  0  0  0  0  0  0  0  0
  151.4999  140.1611  155.7265 C   0  0  0  0  0  0  0  0  0  0  0  0
  152.3495  139.9199  156.7479 N   0  0  0  0  0  0  0  0  0  0  0  0
  153.2353  141.2987  159.9914 C   0  0  0  0  0  0  0  0  0  0  0  0
  154.4400  140.9562  160.8808 C   0  0  0  0  0  0  0  0  0  0  0  0
  154.2364  139.6845  161.4853 O   0  0  0  0  0  0  0  0  0  0  0  0
  154.2496  136.4041  164.4737 H   0  0  0  0  0  0  0  0  0  0  0  0
  154.8981  135.4064  163.1676 H   0  0  0  0  0  0  0  0  0  0  0  0
  153.1476  135.6285  163.3312 H   0  0  0  0  0  0  0  0  0  0  0  0
  154.3751  138.1849  163.0317 H   0  0  0  0  0  0  0  0  0  0  0  0
  155.0548  138.6040  159.9310 H   0  0  0  0  0  0  0  0  0  0  0  0
  152.8900  138.1392  158.8240 H   0  0  0  0  0  0  0  0  0  0  0  0
  151.9974  138.8347  160.1599 H   0  0  0  0  0  0  0  0  0  0  0  0
  150.7955  141.7834  159.1262 H   0  0  0  0  0  0  0  0  0  0  0  0
  149.2488  142.2255  157.2376 H   0  0  0  0  0  0  0  0  0  0  0  0
  151.7366  139.6770  154.7901 H   0  0  0  0  0  0  0  0  0  0  0  0
  153.4159  142.2502  159.4896 H   0  0  0  0  0  0  0  0  0  0  0  0
  152.3403  141.4157  160.6041 H   0  0  0  0  0  0  0  0  0  0  0  0
  155.3652  140.9541  160.3020 H   0  0  0  0  0  0  0  0  0  0  0  0
  154.5549  141.7066  161.6628 H   0  0  0  0  0  0  0  0  0  0  0  0
  1  2  1  0  0  0  0
  1 19  1  0  0  0  0
  1 20  1  0  0  0  0
  1 21  1  0  0  0  0
  2  3  1  0  0  0  0
  2 22  1  0  0  0  0
  3  4  2  0  0  0  0
  3  5  1  0  0  0  0
  5 18  1  0  0  0  0
  5  6  1  0  0  0  0
  5 23  1  0  0  0  0
  6  7  1  0  0  0  0
  6 24  1  0  0  0  0
  6 25  1  0  0  0  0
  7  8  1  0  0  0  0
  7 16  1  0  0  0  0
  8 15  1  0  0  0  0
  8  9  2  0  0  0  0
  9 10  1  0  0  0  0
  9 26  1  0  0  0  0
 10 11  2  0  0  0  0
 10 27  1  0  0  0  0
 11 12  1  0  0  0  0
 11 14  1  0  0  0  0
 12 13  3  0  0  0  0
 14 15  2  0  0  0  0
 14 28  1  0  0  0  0
 16 17  1  0  0  0  0
 16 29  1  0  0  0  0
 16 30  1  0  0  0  0
 17 18  1  0  0  0  0
 17 31  1  0  0  0  0
 17 32  1  0  0  0  0
M  END
> <s_m_source_file>
AV-unprocessed.smi

> <i_m_source_file_index>
2332

> <i_lp_mmshare_version>
43012

> <i_f3d_flags>
0

> <s_epik_input>
W0NIM11bTkhdQyg9TylbQ0BASF0xW0NIMl1OKFtDSDJdW0NIMl1PMSljMltjSF1bY0hdYyhDI04pW2NIXW4y

> <s_epik_cmdline>
J2VwaWtfcHl0aG9uJywgJy1waCcsICc3LjAnLCAnLXRuJywgJzgnLCAnLW1hJywgJzIwMCcsICctbWV0YWxfYmluZGluZycsICctaW1hZScsICc8aW5maWxlLm1hZT4nLCAnLW9tYWUnLCAnPG91dGZpbGUubWFlPic=

> <r_lp_tautomer_probability>
1

> <r_epik_Ionization_Penalty>
6.95229e-08

> <r_epik_Ionization_Penalty_Charging>
0

> <r_epik_Ionization_Penalty_Neutral>
6.95229e-08

> <r_epik_State_Penalty>
-0

> <r_epik_Charging_Adjusted_Penalty>
0

> <i_epik_Tot_Q>
0

> <i_epik_Tot_abs_Q>
0

> <r_epik_Metal_State_Penalty>
-0

> <b_epik_Metal_Only>
0

> <s_lp_Force_Field>
OPLS_2005

> <r_lp_Energy>
17.7289

> <b_lp_Chiralities_Consistent>
1

> <s_lp_Variant>
AV-unprocessed.smi:2332-2

> <Gold.Version>
5.8.1

> <Gold.Id.Protein>
6NUR|6NUR_protein|mol2

> <Gold.PLP.Fitness>
40.3941

> <Gold.PLP.PLP>
-33.4428

> <Gold.PLP.part.hbond>
-2.8513

> <Gold.PLP.part.metal>
0.0000

> <Gold.PLP.part.buried>
-4.6882

> <Gold.PLP.part.nonpolar>
-27.2636

> <Gold.PLP.part.repulsive>
0.5485

> <Gold.PLP.ligand.clash>
0.0000

> <Gold.PLP.ligand.torsion>
0.6601

> <Gold.PLP.Chemscore.Hbond>
2.6455

> <Gold.PLP.Chemscore.CHOScore>
0.0000

> <Gold.PLP.Chemscore.Metal>
0.0000

> <Gold.Chemscore.Hbonds>
donor molecule, donor type, donor heavy atom, donor atom, acceptor molecule, acceptor atom, score
      P1  H  6896  6908       L1     4  0.80
      P1  H  7997  8008       L1    15  1.00
      P1  H  8011  8017       L1    13  0.71

> <Gold.PLP.Chemscore.Internal.Correction>
0.3350

> <Gold.Rescore>
     Score         DG    S(hbond)    S(metal)    S(lipo)     H(rot)  DE(clash)    DE(int)     intcor
     16.77     -17.82       2.51        0.00      63.45       1.35       0.21       0.84       ----

> <Gold.Chemscore.Fitness>
16.7681

> <Gold.Chemscore.DG>
-17.8181

> <Gold.Chemscore.ZeroCoef>
-5.4800

> <Gold.Chemscore.Hbond>
2.5059

> <Gold.Chemscore.Metal>
0.0000

> <Gold.Chemscore.Lipo>
63.4522

> <Gold.Chemscore.Internal_Hbond>
0.0000

> <Gold.Chemscore.DEClash>
0.2101

> <Gold.Chemscore.DEInternal>
0.8400

> <Gold.Chemscore.Rot>
1.3498

> <Gold.Chemscore.Internal.Correction>
   9.000000E+99

> <Gold.Chemscore.Hbonds>
donor molecule, donor type, donor heavy atom, donor atom, acceptor molecule, acceptor atom, score
      P1  H  6896  6908       L1     4  0.79
      P1  H  7997  8008       L1    15  0.32
      P1  H  8011  8017       L1    13  0.50

> <Gold.Chemscore.Hbond.Weighted>
-8.3698

> <Gold.Chemscore.Metal.Weighted>
-0.0000

> <Gold.Chemscore.Lipo.Weighted>
-7.4239

> <Gold.Chemscore.Internal_Hbond.Weighted>
0.0000

> <Gold.Chemscore.DEClash.Weighted>
0.2101

> <Gold.Chemscore.DEInternal.Weighted>
0.8400

> <Gold.Chemscore.Rot.Weighted>
3.4556

> <Gold.Chemscore.Internal.Correction.Weighted>
   9.000000E+99

> <Gold.Protein.RotatedTorsions>
[ 6907 6896 6895 6894 ] final  -76.07 input  -60.11 | X-H torsion
[ 7974 7965 7964 7962 ] final   84.19 input  175.53 | X-H torsion
[ 8008 7997 7996 7995 ] final  -56.30 input   59.86 | X-H torsion
[ 10167 10162 10161 10158 ] final  170.40 input  -65.29 | X-H torsion
[ 10718 10713 10712 10709 ] final -144.08 input   66.30 | X-H torsion
[ 10763 10752 10751 10750 ] final   56.79 input  -60.55 | X-H torsion
[ 11005 11000 10999 10996 ] final   73.12 input  -57.11 | X-H torsion

> <Gold.Protein.ActiveResidues>
 VAL166  LYS551  ARG553  GLY616  TRP617  ASP618  TYR619  PRO620  LYS621  CYS622 
 ASP623  PHE694  ASN695  SER759  ASP760  ASP761  ALA762  ILE779  LEU786  VAL792 
 PHE793  MET794  SER795  GLU796  ALA797  LYS798  CYS799  TRP800  GLU811  SER814 

> <Gold.Protein.RotatedAtoms>
  150.7039  134.4626  159.5387 H   0  0  0  0  0  0  0  0  0  0  0  0  # atno 6907 bound_to 6896
  152.2298  134.8330  160.0484 H   0  0  0  0  0  0  0  0  0  0  0  0  # atno 6908 bound_to 6896
  151.9150  133.3536  159.3914 H   0  0  0  0  0  0  0  0  0  0  0  0  # atno 6909 bound_to 6896
  145.6020  139.2354  143.2240 H   0  0  0  0  0  0  0  0  0  0  0  0  # atno 7974 bound_to 7965
  154.4225  140.1133  156.5616 H   0  0  0  0  0  0  0  0  0  0  0  0  # atno 8008 bound_to 7997
  155.6305  140.3495  155.4662 H   0  0  0  0  0  0  0  0  0  0  0  0  # atno 8009 bound_to 7997
  155.9951  140.1187  157.0590 H   0  0  0  0  0  0  0  0  0  0  0  0  # atno 8010 bound_to 7997
  139.5017  144.3600  151.9834 H   0  0  0  0  0  0  0  0  0  0  0  0  # atno 10167 bound_to 10162
  156.3658  130.7762  151.1936 H   0  0  0  0  0  0  0  0  0  0  0  0  # atno 10718 bound_to 10713
  152.9838  135.5664  154.5286 H   0  0  0  0  0  0  0  0  0  0  0  0  # atno 10763 bound_to 10752
  154.4761  135.2787  155.1608 H   0  0  0  0  0  0  0  0  0  0  0  0  # atno 10764 bound_to 10752
  154.3136  135.6283  153.5529 H   0  0  0  0  0  0  0  0  0  0  0  0  # atno 10765 bound_to 10752
  139.9456  134.7319  156.0988 H   0  0  0  0  0  0  0  0  0  0  0  0  # atno 11005 bound_to 11000
  146.1569  140.6845  142.9296 LP  0  0  0  0  0  0  0  0  0  0  0  0  # atno 17320 bound_to 7965
  144.7306  140.4659  143.6941 LP  0  0  0  0  0  0  0  0  0  0  0  0  # atno 17321 bound_to 7965
  140.3037  144.3618  150.6053 LP  0  0  0  0  0  0  0  0  0  0  0  0  # atno 17342 bound_to 10162
  140.5853  143.2170  151.7352 LP  0  0  0  0  0  0  0  0  0  0  0  0  # atno 17343 bound_to 10162
  157.7478  131.0387  150.4514 LP  0  0  0  0  0  0  0  0  0  0  0  0  # atno 17370 bound_to 10713
  156.4732  130.4057  149.6505 LP  0  0  0  0  0  0  0  0  0  0  0  0  # atno 17371 bound_to 10713
  141.1105  133.6645  156.2968 LP  0  0  0  0  0  0  0  0  0  0  0  0  # atno 17394 bound_to 11000
  140.5843  134.5714  157.5486 LP  0  0  0  0  0  0  0  0  0  0  0  0  # atno 17395 bound_to 11000

$$$$
