AV-unprocessed.smi:3094|AV-procd|sdf|11791|dock1
  -GOLD-   2272017163D 1   1.00000     0.00000
 Structure written by MMmdl.
 29 30  0  0  0  0  0  0  0  0  1 V2000
  149.8728  142.0873  157.3076 C   0  0  0  0  0  0  0  0  0  0  0  0
  151.3975  141.9220  157.2557 C   0  0  1  0  0  0  0  0  0  0  0  0
  152.0429  142.2381  158.6215 C   0  0  0  0  0  0  0  0  0  0  0  0
  151.8054  143.6046  159.0492 N   0  0  0  0  0  0  0  0  0  0  0  0
  152.1520  144.1724  160.2683 C   0  0  0  0  0  0  0  0  0  0  0  0
  151.7205  145.4790  160.2297 C   0  0  0  0  0  0  0  0  0  0  0  0
  151.1166  145.7377  159.0014 N   0  0  0  0  0  0  0  0  0  0  0  0
  151.2071  144.5825  158.3552 C   0  0  0  0  0  0  0  0  0  0  0  0
  151.7135  140.5579  156.8324 N   0  0  0  0  0  0  0  0  0  0  0  0
  151.3971  140.0089  155.6486 C   0  0  0  0  0  0  0  0  0  0  0  0
  150.7783  140.6111  154.7703 O   0  0  0  0  0  0  0  0  0  0  0  0
  151.8798  138.6053  155.4856 C   0  0  0  0  0  0  0  0  0  0  0  0
  153.0134  138.3680  154.5091 C   0  0  0  0  0  0  0  0  0  0  0  0
  151.6170  137.9161  154.1619 C   0  0  0  0  0  0  0  0  0  0  0  0
  149.5985  143.1017  157.5983 H   0  0  0  0  0  0  0  0  0  0  0  0
  149.4219  141.4019  158.0263 H   0  0  0  0  0  0  0  0  0  0  0  0
  149.4228  141.8930  156.3334 H   0  0  0  0  0  0  0  0  0  0  0  0
  151.7708  142.6351  156.5183 H   0  0  0  0  0  0  0  0  0  0  0  0
  151.6385  141.5770  159.3890 H   0  0  0  0  0  0  0  0  0  0  0  0
  153.1186  142.0575  158.5903 H   0  0  0  0  0  0  0  0  0  0  0  0
  152.6549  143.6130  161.0433 H   0  0  0  0  0  0  0  0  0  0  0  0
  151.7981  146.2464  160.9858 H   0  0  0  0  0  0  0  0  0  0  0  0
  150.8207  144.4424  157.3561 H   0  0  0  0  0  0  0  0  0  0  0  0
  152.2258  139.9882  157.4902 H   0  0  0  0  0  0  0  0  0  0  0  0
  151.8666  137.9793  156.3767 H   0  0  0  0  0  0  0  0  0  0  0  0
  153.4152  139.2201  153.9629 H   0  0  0  0  0  0  0  0  0  0  0  0
  153.7451  137.6088  154.7781 H   0  0  0  0  0  0  0  0  0  0  0  0
  151.4022  136.8499  154.1946 H   0  0  0  0  0  0  0  0  0  0  0  0
  151.0938  138.4661  153.3814 H   0  0  0  0  0  0  0  0  0  0  0  0
  1  2  1  0  0  0  0
  1 15  1  0  0  0  0
  1 16  1  0  0  0  0
  1 17  1  0  0  0  0
  2  3  1  0  0  0  0
  2  9  1  0  0  0  0
  2 18  1  0  0  0  0
  3  4  1  0  0  0  0
  3 19  1  0  0  0  0
  3 20  1  0  0  0  0
  4  8  1  0  0  0  0
  4  5  1  0  0  0  0
  5  6  2  0  0  0  0
  5 21  1  0  0  0  0
  6  7  1  0  0  0  0
  6 22  1  0  0  0  0
  7  8  2  0  0  0  0
  8 23  1  0  0  0  0
  9 10  1  0  0  0  0
  9 24  1  0  0  0  0
 10 11  2  0  0  0  0
 10 12  1  0  0  0  0
 12 14  1  0  0  0  0
 12 13  1  0  0  0  0
 12 25  1  0  0  0  0
 13 14  1  0  0  0  0
 13 26  1  0  0  0  0
 13 27  1  0  0  0  0
 14 28  1  0  0  0  0
 14 29  1  0  0  0  0
M  END
> <s_m_source_file>
AV-unprocessed.smi

> <i_m_source_file_index>
3094

> <i_lp_mmshare_version>
43012

> <i_f3d_flags>
0

> <s_epik_input>
W0NIMl0xW0NIMl1bQ0hdMUMoPU8pW05IXVtDQEhdKFtDSDNdKVtDSDJdbjJbY0hdW2NIXW5bY0hdMg==

> <s_epik_cmdline>
J2VwaWtfcHl0aG9uJywgJy1waCcsICc3LjAnLCAnLXRuJywgJzgnLCAnLW1hJywgJzIwMCcsICctbWV0YWxfYmluZGluZycsICctaW1hZScsICc8aW5maWxlLm1hZT4nLCAnLW9tYWUnLCAnPG91dGZpbGUubWFlPic=

> <r_lp_tautomer_probability>
1

> <r_epik_Ionization_Penalty>
0.642614

> <r_epik_Ionization_Penalty_Charging>
0.642614

> <r_epik_Ionization_Penalty_Neutral>
4.09963e-08

> <r_epik_State_Penalty>
0.660429

> <r_epik_Charging_Adjusted_Penalty>
1.30304

> <i_epik_Tot_Q>
0

> <i_epik_Tot_abs_Q>
0

> <r_epik_Metal_State_Penalty>
0.31224

> <b_epik_Metal_Only>
0

> <s_lp_Force_Field>
OPLS_2005

> <r_lp_Energy>
7.79034

> <b_lp_Chiralities_Consistent>
1

> <s_lp_Variant>
AV-unprocessed.smi:3094-4

> <Gold.Version>
5.8.1

> <Gold.Id.Protein>
6NUR|6NUR_protein|mol2

> <Gold.PLP.Fitness>
40.1526

> <Gold.PLP.PLP>
-34.3007

> <Gold.PLP.part.hbond>
-2.2658

> <Gold.PLP.part.metal>
0.0000

> <Gold.PLP.part.buried>
-3.4036

> <Gold.PLP.part.nonpolar>
-28.0364

> <Gold.PLP.part.repulsive>
0.3756

> <Gold.PLP.ligand.clash>
0.0000

> <Gold.PLP.ligand.torsion>
0.1536

> <Gold.PLP.Chemscore.Hbond>
1.0000

> <Gold.PLP.Chemscore.CHOScore>
1.0000

> <Gold.PLP.Chemscore.Metal>
0.0000

> <Gold.Chemscore.Hbonds>
donor molecule, donor type, donor heavy atom, donor atom, acceptor molecule, acceptor atom, score
      P1  H  7989  7998       L1    11  0.99
      L1  C     8    23       P1  8028  0.94

> <Gold.PLP.Chemscore.Internal.Correction>
0.1592

> <Gold.Rescore>
     Score         DG    S(hbond)    S(metal)    S(lipo)     H(rot)  DE(clash)    DE(int)     intcor
     11.27     -12.22       0.96        0.00      70.34       1.83       0.64       0.31       ----

> <Gold.Chemscore.Fitness>
11.2683

> <Gold.Chemscore.DG>
-12.2211

> <Gold.Chemscore.ZeroCoef>
-5.4800

> <Gold.Chemscore.Hbond>
0.9606

> <Gold.Chemscore.Metal>
0.0000

> <Gold.Chemscore.Lipo>
70.3376

> <Gold.Chemscore.Internal_Hbond>
0.0000

> <Gold.Chemscore.DEClash>
0.6415

> <Gold.Chemscore.DEInternal>
0.3113

> <Gold.Chemscore.Rot>
1.8347

> <Gold.Chemscore.Internal.Correction>
   9.000000E+99

> <Gold.Chemscore.Hbonds>
donor molecule, donor type, donor heavy atom, donor atom, acceptor molecule, acceptor atom, score
      P1  H  7989  7998       L1    11  0.76

> <Gold.Chemscore.Hbond.Weighted>
-3.2085

> <Gold.Chemscore.Metal.Weighted>
-0.0000

> <Gold.Chemscore.Lipo.Weighted>
-8.2295

> <Gold.Chemscore.Internal_Hbond.Weighted>
0.0000

> <Gold.Chemscore.DEClash.Weighted>
0.6415

> <Gold.Chemscore.DEInternal.Weighted>
0.3113

> <Gold.Chemscore.Rot.Weighted>
4.6969

> <Gold.Chemscore.Internal.Correction.Weighted>
   9.000000E+99

> <Gold.Protein.RotatedTorsions>
[ 6907 6896 6895 6894 ] final -133.03 input  -60.11 | X-H torsion
[ 7974 7965 7964 7962 ] final  155.86 input  175.53 | X-H torsion
[ 8008 7997 7996 7995 ] final  -70.85 input   59.86 | X-H torsion
[ 10167 10162 10161 10158 ] final   57.28 input  -65.29 | X-H torsion
[ 10718 10713 10712 10709 ] final  119.10 input   66.30 | X-H torsion
[ 10763 10752 10751 10750 ] final  110.75 input  -60.55 | X-H torsion
[ 11005 11000 10999 10996 ] final  100.18 input  -57.11 | X-H torsion

> <Gold.Protein.ActiveResidues>
 VAL166  LYS551  ARG553  GLY616  TRP617  ASP618  TYR619  PRO620  LYS621  CYS622 
 ASP623  PHE694  ASN695  SER759  ASP760  ASP761  ALA762  ILE779  LEU786  VAL792 
 PHE793  MET794  SER795  GLU796  ALA797  LYS798  CYS799  TRP800  GLU811  SER814 

> <Gold.Protein.RotatedAtoms>
  150.9693  133.6361  159.2740 H   0  0  0  0  0  0  0  0  0  0  0  0  # atno 6907 bound_to 6896
  151.3656  135.0911  159.9458 H   0  0  0  0  0  0  0  0  0  0  0  0  # atno 6908 bound_to 6896
  152.5177  133.9257  159.7611 H   0  0  0  0  0  0  0  0  0  0  0  0  # atno 6909 bound_to 6896
  144.7999  139.7125  143.6186 H   0  0  0  0  0  0  0  0  0  0  0  0  # atno 7974 bound_to 7965
  154.5043  140.0826  156.7861 H   0  0  0  0  0  0  0  0  0  0  0  0  # atno 8008 bound_to 7997
  155.3931  140.3433  155.4234 H   0  0  0  0  0  0  0  0  0  0  0  0  # atno 8009 bound_to 7997
  156.1495  140.1554  156.8780 H   0  0  0  0  0  0  0  0  0  0  0  0  # atno 8010 bound_to 7997
  140.1997  144.4001  150.6534 H   0  0  0  0  0  0  0  0  0  0  0  0  # atno 10167 bound_to 10162
  157.5985  131.1054  150.7849 H   0  0  0  0  0  0  0  0  0  0  0  0  # atno 10718 bound_to 10713
  153.4534  135.3738  155.2297 H   0  0  0  0  0  0  0  0  0  0  0  0  # atno 10763 bound_to 10752
  154.8756  135.3891  154.4011 H   0  0  0  0  0  0  0  0  0  0  0  0  # atno 10764 bound_to 10752
  153.4574  135.7086  153.6135 H   0  0  0  0  0  0  0  0  0  0  0  0  # atno 10765 bound_to 10752
  139.8771  134.9129  156.4717 H   0  0  0  0  0  0  0  0  0  0  0  0  # atno 11005 bound_to 11000
  146.2277  139.5754  142.9576 LP  0  0  0  0  0  0  0  0  0  0  0  0  # atno 17320 bound_to 7965
  145.5580  141.0407  143.2242 LP  0  0  0  0  0  0  0  0  0  0  0  0  # atno 17321 bound_to 7965
  140.6399  143.2201  151.6313 LP  0  0  0  0  0  0  0  0  0  0  0  0  # atno 17342 bound_to 10162
  139.5222  144.3169  152.0944 LP  0  0  0  0  0  0  0  0  0  0  0  0  # atno 17343 bound_to 10162
  156.8254  130.4998  149.5338 LP  0  0  0  0  0  0  0  0  0  0  0  0  # atno 17370 bound_to 10713
  156.1053  130.5999  150.9960 LP  0  0  0  0  0  0  0  0  0  0  0  0  # atno 17371 bound_to 10713
  140.8791  133.7931  155.9447 LP  0  0  0  0  0  0  0  0  0  0  0  0  # atno 17394 bound_to 11000
  140.8873  134.2538  157.5113 LP  0  0  0  0  0  0  0  0  0  0  0  0  # atno 17395 bound_to 11000

$$$$
