AV-unprocessed.smi:3301|AV-procd|sdf|12654|dock1
  -GOLD-   2272018593D 1   1.00000     0.00000
 Structure written by MMmdl.
 36 37  0  0  0  0  0  0  0  0  1 V2000
  150.9618  139.3955  155.0187 C   0  0  0  0  0  0  0  0  0  0  0  0
  150.5206  140.4715  156.0198 C   0  0  2  0  0  0  0  0  0  0  0  0
  149.9230  141.6988  155.2981 C   0  0  0  0  0  0  0  0  0  0  0  0
  148.5648  141.4739  154.8370 N   0  0  0  0  0  0  0  0  0  0  0  0
  148.1548  140.6192  153.8223 C   0  0  0  0  0  0  0  0  0  0  0  0
  146.7878  140.7483  153.7274 C   0  0  0  0  0  0  0  0  0  0  0  0
  146.3362  141.6621  154.6766 N   0  0  0  0  0  0  0  0  0  0  0  0
  147.4440  142.0467  155.2973 C   0  0  0  0  0  0  0  0  0  0  0  0
  151.6686  140.8579  156.8399 N   0  0  0  0  0  0  0  0  0  0  0  0
  151.7550  140.7300  158.1734 C   0  0  0  0  0  0  0  0  0  0  0  0
  150.8716  140.2205  158.8641 O   0  0  0  0  0  0  0  0  0  0  0  0
  153.0423  141.2497  158.8229 C   0  0  0  0  0  0  0  0  0  0  0  0
  152.7705  142.1218  159.9652 N   0  0  0  0  0  0  0  0  0  0  0  0
  151.8668  143.2534  159.8405 C   0  0  0  0  0  0  0  0  0  0  0  0
  152.0541  144.0558  161.1360 C   0  0  0  0  0  0  0  0  0  0  0  0
  152.8034  143.1263  162.0972 C   0  0  0  0  0  0  0  0  0  0  0  0
  153.2937  142.0089  161.1926 C   0  0  0  0  0  0  0  0  0  0  0  0
  154.0699  141.1335  161.5728 O   0  0  0  0  0  0  0  0  0  0  0  0
  150.1215  139.0572  154.4118 H   0  0  0  0  0  0  0  0  0  0  0  0
  151.3673  138.5232  155.5325 H   0  0  0  0  0  0  0  0  0  0  0  0
  151.7301  139.7718  154.3422 H   0  0  0  0  0  0  0  0  0  0  0  0
  149.7484  140.0256  156.6493 H   0  0  0  0  0  0  0  0  0  0  0  0
  149.9311  142.5705  155.9541 H   0  0  0  0  0  0  0  0  0  0  0  0
  150.5308  141.9565  154.4300 H   0  0  0  0  0  0  0  0  0  0  0  0
  148.8507  140.0159  153.2582 H   0  0  0  0  0  0  0  0  0  0  0  0
  146.1005  140.2574  153.0544 H   0  0  0  0  0  0  0  0  0  0  0  0
  147.4416  142.7689  156.1003 H   0  0  0  0  0  0  0  0  0  0  0  0
  152.4475  141.2818  156.3570 H   0  0  0  0  0  0  0  0  0  0  0  0
  153.6391  140.3960  159.1466 H   0  0  0  0  0  0  0  0  0  0  0  0
  153.6438  141.7889  158.0887 H   0  0  0  0  0  0  0  0  0  0  0  0
  152.0954  143.8519  158.9576 H   0  0  0  0  0  0  0  0  0  0  0  0
  150.8431  142.8875  159.7507 H   0  0  0  0  0  0  0  0  0  0  0  0
  152.6539  144.9458  160.9406 H   0  0  0  0  0  0  0  0  0  0  0  0
  151.1001  144.3872  161.5473 H   0  0  0  0  0  0  0  0  0  0  0  0
  153.6332  143.6293  162.5947 H   0  0  0  0  0  0  0  0  0  0  0  0
  152.1363  142.7138  162.8546 H   0  0  0  0  0  0  0  0  0  0  0  0
  1  2  1  0  0  0  0
  1 19  1  0  0  0  0
  1 20  1  0  0  0  0
  1 21  1  0  0  0  0
  2  3  1  0  0  0  0
  2  9  1  0  0  0  0
  2 22  1  0  0  0  0
  3  4  1  0  0  0  0
  3 23  1  0  0  0  0
  3 24  1  0  0  0  0
  4  8  1  0  0  0  0
  4  5  1  0  0  0  0
  5  6  2  0  0  0  0
  5 25  1  0  0  0  0
  6  7  1  0  0  0  0
  6 26  1  0  0  0  0
  7  8  2  0  0  0  0
  8 27  1  0  0  0  0
  9 10  1  0  0  0  0
  9 28  1  0  0  0  0
 10 11  2  0  0  0  0
 10 12  1  0  0  0  0
 12 13  1  0  0  0  0
 12 29  1  0  0  0  0
 12 30  1  0  0  0  0
 13 17  1  0  0  0  0
 13 14  1  0  0  0  0
 14 15  1  0  0  0  0
 14 31  1  0  0  0  0
 14 32  1  0  0  0  0
 15 16  1  0  0  0  0
 15 33  1  0  0  0  0
 15 34  1  0  0  0  0
 16 17  1  0  0  0  0
 16 35  1  0  0  0  0
 16 36  1  0  0  0  0
 17 18  2  0  0  0  0
M  END
> <s_m_source_file>
AV-unprocessed.smi

> <i_m_source_file_index>
3301

> <i_lp_mmshare_version>
43012

> <i_f3d_flags>
0

> <s_epik_input>
W2NIXTFuW2NIXVtjSF1uMVtDSDJdW0NAQEhdKFtDSDNdKVtOSF1DKD1PKVtDSDJdTjJbQ0gyXVtDSDJdW0NIMl1DMj1P

> <s_epik_cmdline>
J2VwaWtfcHl0aG9uJywgJy1waCcsICc3LjAnLCAnLXRuJywgJzgnLCAnLW1hJywgJzIwMCcsICctbWV0YWxfYmluZGluZycsICctaW1hZScsICc8aW5maWxlLm1hZT4nLCAnLW9tYWUnLCAnPG91dGZpbGUubWFlPic=

> <r_lp_tautomer_probability>
1

> <r_epik_Ionization_Penalty>
0.623868

> <r_epik_Ionization_Penalty_Charging>
0.623868

> <r_epik_Ionization_Penalty_Neutral>
4.45089e-08

> <r_epik_State_Penalty>
0.640129

> <r_epik_Charging_Adjusted_Penalty>
1.264

> <i_epik_Tot_Q>
0

> <i_epik_Tot_abs_Q>
0

> <r_epik_Metal_State_Penalty>
0.307431

> <b_epik_Metal_Only>
0

> <s_lp_Force_Field>
OPLS_2005

> <r_lp_Energy>
13.1823

> <b_lp_Chiralities_Consistent>
1

> <s_lp_Variant>
AV-unprocessed.smi:3301-3

> <Gold.Version>
5.8.1

> <Gold.Id.Protein>
6NUR|6NUR_protein|mol2

> <Gold.PLP.Fitness>
45.9890

> <Gold.PLP.PLP>
-38.5218

> <Gold.PLP.part.hbond>
0.0000

> <Gold.PLP.part.metal>
0.0000

> <Gold.PLP.part.buried>
-2.5608

> <Gold.PLP.part.nonpolar>
-35.3954

> <Gold.PLP.part.repulsive>
0.2597

> <Gold.PLP.ligand.clash>
0.0000

> <Gold.PLP.ligand.torsion>
0.3920

> <Gold.PLP.Chemscore.Hbond>
0.0000

> <Gold.PLP.Chemscore.CHOScore>
2.7111

> <Gold.PLP.Chemscore.Metal>
0.0000

> <Gold.Chemscore.Hbonds>
donor molecule, donor type, donor heavy atom, donor atom, acceptor molecule, acceptor atom, score
      L1  C     5    25       P1  7957  1.00
      L1  C     6    26       P1 10175  1.00
      L1  C     8    27       P1  8028  0.61

> <Gold.PLP.Chemscore.Internal.Correction>
0.1179

> <Gold.Rescore>
     Score         DG    S(hbond)    S(metal)    S(lipo)     H(rot)  DE(clash)    DE(int)     intcor
      8.49      -9.13       0.00        0.00      80.77       2.26       0.11       0.54       ----

> <Gold.Chemscore.Fitness>
8.4851

> <Gold.Chemscore.DG>
-9.1325

> <Gold.Chemscore.ZeroCoef>
-5.4800

> <Gold.Chemscore.Hbond>
0.0000

> <Gold.Chemscore.Metal>
0.0000

> <Gold.Chemscore.Lipo>
80.7691

> <Gold.Chemscore.Internal_Hbond>
0.0000

> <Gold.Chemscore.DEClash>
0.1077

> <Gold.Chemscore.DEInternal>
0.5397

> <Gold.Chemscore.Rot>
2.2647

> <Gold.Chemscore.Internal.Correction>
   9.000000E+99

> <Gold.Chemscore.Hbond.Weighted>
-0.0000

> <Gold.Chemscore.Metal.Weighted>
-0.0000

> <Gold.Chemscore.Lipo.Weighted>
-9.4500

> <Gold.Chemscore.Internal_Hbond.Weighted>
0.0000

> <Gold.Chemscore.DEClash.Weighted>
0.1077

> <Gold.Chemscore.DEInternal.Weighted>
0.5397

> <Gold.Chemscore.Rot.Weighted>
5.7975

> <Gold.Chemscore.Internal.Correction.Weighted>
   9.000000E+99

> <Gold.Protein.RotatedTorsions>
[ 6907 6896 6895 6894 ] final   78.68 input  -60.11 | X-H torsion
[ 7974 7965 7964 7962 ] final  -71.77 input  175.53 | X-H torsion
[ 8008 7997 7996 7995 ] final   72.52 input   59.86 | X-H torsion
[ 10167 10162 10161 10158 ] final  -47.91 input  -65.29 | X-H torsion
[ 10718 10713 10712 10709 ] final  149.27 input   66.30 | X-H torsion
[ 10763 10752 10751 10750 ] final  -46.31 input  -60.55 | X-H torsion
[ 11005 11000 10999 10996 ] final   19.11 input  -57.11 | X-H torsion

> <Gold.Protein.ActiveResidues>
 VAL166  LYS551  ARG553  GLY616  TRP617  ASP618  TYR619  PRO620  LYS621  CYS622 
 ASP623  PHE694  ASN695  SER759  ASP760  ASP761  ALA762  ILE779  LEU786  VAL792 
 PHE793  MET794  SER795  GLU796  ALA797  LYS798  CYS799  TRP800  GLU811  SER814 

> <Gold.Protein.RotatedAtoms>
  152.5169  134.3627  159.9290 H   0  0  0  0  0  0  0  0  0  0  0  0  # atno 6907 bound_to 6896
  151.3580  133.3894  159.2694 H   0  0  0  0  0  0  0  0  0  0  0  0  # atno 6908 bound_to 6896
  150.9674  134.9072  159.7826 H   0  0  0  0  0  0  0  0  0  0  0  0  # atno 6909 bound_to 6896
  145.6738  140.9212  143.0869 H   0  0  0  0  0  0  0  0  0  0  0  0  # atno 7974 bound_to 7965
  155.7700  140.3484  155.5242 H   0  0  0  0  0  0  0  0  0  0  0  0  # atno 8008 bound_to 7997
  155.8830  140.1005  157.1492 H   0  0  0  0  0  0  0  0  0  0  0  0  # atno 8009 bound_to 7997
  154.4026  140.1318  156.4208 H   0  0  0  0  0  0  0  0  0  0  0  0  # atno 8010 bound_to 7997
  140.6754  143.2763  151.3994 H   0  0  0  0  0  0  0  0  0  0  0  0  # atno 10167 bound_to 10162
  157.2982  131.0866  151.1410 H   0  0  0  0  0  0  0  0  0  0  0  0  # atno 10718 bound_to 10713
  154.0429  135.6641  153.4792 H   0  0  0  0  0  0  0  0  0  0  0  0  # atno 10763 bound_to 10752
  153.0494  135.5094  154.7825 H   0  0  0  0  0  0  0  0  0  0  0  0  # atno 10764 bound_to 10752
  154.6807  135.3044  154.9583 H   0  0  0  0  0  0  0  0  0  0  0  0  # atno 10765 bound_to 10752
  140.4173  134.1555  155.7670 H   0  0  0  0  0  0  0  0  0  0  0  0  # atno 11005 bound_to 11000
  144.7048  139.8607  143.7433 LP  0  0  0  0  0  0  0  0  0  0  0  0  # atno 17320 bound_to 7965
  146.1023  139.4019  143.0339 LP  0  0  0  0  0  0  0  0  0  0  0  0  # atno 17321 bound_to 7965
  139.6044  144.1227  152.2233 LP  0  0  0  0  0  0  0  0  0  0  0  0  # atno 17342 bound_to 10162
  140.0622  144.5847  150.7254 LP  0  0  0  0  0  0  0  0  0  0  0  0  # atno 17343 bound_to 10162
  157.2779  130.6736  149.6051 LP  0  0  0  0  0  0  0  0  0  0  0  0  # atno 17370 bound_to 10713
  155.9670  130.4459  150.5518 LP  0  0  0  0  0  0  0  0  0  0  0  0  # atno 17371 bound_to 10713
  141.1798  133.8438  157.1298 LP  0  0  0  0  0  0  0  0  0  0  0  0  # atno 17394 bound_to 11000
  140.0225  134.9939  157.0619 LP  0  0  0  0  0  0  0  0  0  0  0  0  # atno 17395 bound_to 11000

$$$$
