AV-unprocessed.smi:3155|AV-procd|sdf|12027|dock9
  -GOLD-   2272017443D 1   1.00000     0.00000
 Structure written by MMmdl.
 37 38  0  0  0  0  0  0  0  0  1 V2000
  150.6539  139.0757  154.7208 C   0  0  0  0  0  0  0  0  0  0  0  0
  150.4016  140.2234  155.7089 C   0  0  2  0  0  0  0  0  0  0  0  0
  149.8161  141.4535  154.9760 C   0  0  0  0  0  0  0  0  0  0  0  0
  148.3959  141.3502  154.6887 N   0  0  0  0  0  0  0  0  0  0  0  0
  147.3660  142.1285  155.1740 C   0  0  0  0  0  0  0  0  0  0  0  0
  146.2088  141.6676  154.6153 C   0  0  0  0  0  0  0  0  0  0  0  0
  146.6401  140.6028  153.7758 C   0  0  0  0  0  0  0  0  0  0  0  0
  147.9501  140.4213  153.8148 N   0  0  0  0  0  0  0  0  0  0  0  0
  151.6860  140.5415  156.3273 N   0  0  0  0  0  0  0  0  0  0  0  0
  151.5535  141.3370  157.5546 C   0  0  0  0  0  0  0  0  0  0  0  0
  152.5760  140.9131  158.6143 C   0  0  0  0  0  0  0  0  0  0  0  0
  153.2644  139.9140  158.4053 O   0  0  0  0  0  0  0  0  0  0  0  0
  152.6902  141.6437  159.7440 N   0  0  0  0  0  0  0  0  0  0  0  0
  151.8988  142.8433  160.0099 C   0  0  0  0  0  0  0  0  0  0  0  0
  152.5315  143.4923  161.2409 C   0  0  0  0  0  0  0  0  0  0  0  0
  153.1951  142.3336  161.9715 C   0  0  0  0  0  0  0  0  0  0  0  0
  153.6011  141.3713  160.8555 C   0  0  0  0  0  0  0  0  0  0  0  0
  149.7277  138.7688  154.2342 H   0  0  0  0  0  0  0  0  0  0  0  0
  151.0607  138.2000  155.2281 H   0  0  0  0  0  0  0  0  0  0  0  0
  151.3576  139.3657  153.9396 H   0  0  0  0  0  0  0  0  0  0  0  0
  149.6951  139.8559  156.4552 H   0  0  0  0  0  0  0  0  0  0  0  0
  149.9916  142.3614  155.5549 H   0  0  0  0  0  0  0  0  0  0  0  0
  150.3299  141.5942  154.0240 H   0  0  0  0  0  0  0  0  0  0  0  0
  147.5395  142.9323  155.8742 H   0  0  0  0  0  0  0  0  0  0  0  0
  145.2073  142.0374  154.7775 H   0  0  0  0  0  0  0  0  0  0  0  0
  146.0445  139.9631  153.1413 H   0  0  0  0  0  0  0  0  0  0  0  0
  152.2878  140.9863  155.6494 H   0  0  0  0  0  0  0  0  0  0  0  0
  151.6571  142.3997  157.3424 H   0  0  0  0  0  0  0  0  0  0  0  0
  150.5533  141.2005  157.9687 H   0  0  0  0  0  0  0  0  0  0  0  0
  151.8918  143.5287  159.1608 H   0  0  0  0  0  0  0  0  0  0  0  0
  150.8688  142.5495  160.2172 H   0  0  0  0  0  0  0  0  0  0  0  0
  153.2921  144.2079  160.9260 H   0  0  0  0  0  0  0  0  0  0  0  0
  151.8074  144.0246  161.8585 H   0  0  0  0  0  0  0  0  0  0  0  0
  154.0386  142.6474  162.5868 H   0  0  0  0  0  0  0  0  0  0  0  0
  152.4670  141.8500  162.6240 H   0  0  0  0  0  0  0  0  0  0  0  0
  153.5422  140.3369  161.1947 H   0  0  0  0  0  0  0  0  0  0  0  0
  154.6248  141.5706  160.5354 H   0  0  0  0  0  0  0  0  0  0  0  0
  1  2  1  0  0  0  0
  1 18  1  0  0  0  0
  1 19  1  0  0  0  0
  1 20  1  0  0  0  0
  2  3  1  0  0  0  0
  2  9  1  0  0  0  0
  2 21  1  0  0  0  0
  3  4  1  0  0  0  0
  3 22  1  0  0  0  0
  3 23  1  0  0  0  0
  4  8  1  0  0  0  0
  4  5  1  0  0  0  0
  5  6  2  0  0  0  0
  5 24  1  0  0  0  0
  6  7  1  0  0  0  0
  6 25  1  0  0  0  0
  7  8  2  0  0  0  0
  7 26  1  0  0  0  0
  9 10  1  0  0  0  0
  9 27  1  0  0  0  0
 10 11  1  0  0  0  0
 10 28  1  0  0  0  0
 10 29  1  0  0  0  0
 11 12  2  0  0  0  0
 11 13  1  0  0  0  0
 13 17  1  0  0  0  0
 13 14  1  0  0  0  0
 14 15  1  0  0  0  0
 14 30  1  0  0  0  0
 14 31  1  0  0  0  0
 15 16  1  0  0  0  0
 15 32  1  0  0  0  0
 15 33  1  0  0  0  0
 16 17  1  0  0  0  0
 16 34  1  0  0  0  0
 16 35  1  0  0  0  0
 17 36  1  0  0  0  0
 17 37  1  0  0  0  0
M  END
> <s_m_source_file>
AV-unprocessed.smi

> <i_m_source_file_index>
3155

> <i_lp_mmshare_version>
43012

> <i_f3d_flags>
0

> <s_epik_input>
bjFbY0hdW2NIXVtjSF1uMVtDSDJdW0NAQEhdKFtDSDNdKVtOSF1bQ0gyXUMoPU8pTjJbQ0gyXVtDSDJdW0NIMl1bQ0gyXTI=

> <s_epik_cmdline>
J2VwaWtfcHl0aG9uJywgJy1waCcsICc3LjAnLCAnLXRuJywgJzgnLCAnLW1hJywgJzIwMCcsICctbWV0YWxfYmluZGluZycsICctaW1hZScsICc8aW5maWxlLm1hZT4nLCAnLW9tYWUnLCAnPG91dGZpbGUubWFlPic=

> <r_lp_tautomer_probability>
1

> <r_epik_Ionization_Penalty>
1.00455

> <r_epik_Ionization_Penalty_Charging>
0

> <r_epik_Ionization_Penalty_Neutral>
1.00455

> <r_epik_State_Penalty>
1.05336

> <r_epik_Charging_Adjusted_Penalty>
1.05336

> <i_epik_Tot_Q>
0

> <i_epik_Tot_abs_Q>
0

> <r_epik_Metal_State_Penalty>
1.05331

> <b_epik_Metal_Only>
0

> <s_lp_Force_Field>
OPLS_2005

> <r_lp_Energy>
30.8586

> <b_lp_Chiralities_Consistent>
1

> <s_lp_Variant>
AV-unprocessed.smi:3155-3

> <Gold.Version>
5.8.1

> <Gold.Id.Protein>
6NUR|6NUR_protein|mol2

> <Gold.PLP.Fitness>
44.5030

> <Gold.PLP.PLP>
-37.1994

> <Gold.PLP.part.hbond>
-1.0000

> <Gold.PLP.part.metal>
0.0000

> <Gold.PLP.part.buried>
-1.7182

> <Gold.PLP.part.nonpolar>
-34.3308

> <Gold.PLP.part.repulsive>
0.1883

> <Gold.PLP.ligand.clash>
0.0000

> <Gold.PLP.ligand.torsion>
0.6326

> <Gold.PLP.Chemscore.Hbond>
1.0000

> <Gold.PLP.Chemscore.CHOScore>
1.8348

> <Gold.PLP.Chemscore.Metal>
0.0000

> <Gold.Chemscore.Hbonds>
donor molecule, donor type, donor heavy atom, donor atom, acceptor molecule, acceptor atom, score
      P1  H  7997  8009       L1    12  1.00
      L1  C     5    24       P1  8028  0.95
      L1  C     7    26       P1 10175  0.87

> <Gold.PLP.Chemscore.Internal.Correction>
0.0646

> <Gold.Rescore>
     Score         DG    S(hbond)    S(metal)    S(lipo)     H(rot)  DE(clash)    DE(int)     intcor
     13.75     -14.31       0.96        0.00      86.95       1.77       0.08       0.49       ----

> <Gold.Chemscore.Fitness>
13.7488

> <Gold.Chemscore.DG>
-14.3135

> <Gold.Chemscore.ZeroCoef>
-5.4800

> <Gold.Chemscore.Hbond>
0.9551

> <Gold.Chemscore.Metal>
0.0000

> <Gold.Chemscore.Lipo>
86.9464

> <Gold.Chemscore.Internal_Hbond>
0.0000

> <Gold.Chemscore.DEClash>
0.0785

> <Gold.Chemscore.DEInternal>
0.4862

> <Gold.Chemscore.Rot>
1.7693

> <Gold.Chemscore.Internal.Correction>
   9.000000E+99

> <Gold.Chemscore.Hbonds>
donor molecule, donor type, donor heavy atom, donor atom, acceptor molecule, acceptor atom, score
      P1  H  7997  8009       L1    12  0.94

> <Gold.Chemscore.Hbond.Weighted>
-3.1901

> <Gold.Chemscore.Metal.Weighted>
-0.0000

> <Gold.Chemscore.Lipo.Weighted>
-10.1727

> <Gold.Chemscore.Internal_Hbond.Weighted>
0.0000

> <Gold.Chemscore.DEClash.Weighted>
0.0785

> <Gold.Chemscore.DEInternal.Weighted>
0.4862

> <Gold.Chemscore.Rot.Weighted>
4.5294

> <Gold.Chemscore.Internal.Correction.Weighted>
   9.000000E+99

> <Gold.Protein.RotatedTorsions>
[ 6907 6896 6895 6894 ] final -174.77 input  -60.11 | X-H torsion
[ 7974 7965 7964 7962 ] final -124.87 input  175.53 | X-H torsion
[ 8008 7997 7996 7995 ] final  146.81 input   59.86 | X-H torsion
[ 10167 10162 10161 10158 ] final -123.74 input  -65.29 | X-H torsion
[ 10718 10713 10712 10709 ] final   61.27 input   66.30 | X-H torsion
[ 10763 10752 10751 10750 ] final -111.15 input  -60.55 | X-H torsion
[ 11005 11000 10999 10996 ] final  -96.47 input  -57.11 | X-H torsion

> <Gold.Protein.ActiveResidues>
 VAL166  LYS551  ARG553  GLY616  TRP617  ASP618  TYR619  PRO620  LYS621  CYS622 
 ASP623  PHE694  ASN695  SER759  ASP760  ASP761  ALA762  ILE779  LEU786  VAL792 
 PHE793  MET794  SER795  GLU796  ALA797  LYS798  CYS799  TRP800  GLU811  SER814 

> <Gold.Protein.RotatedAtoms>
  151.5778  133.3381  159.3002 H   0  0  0  0  0  0  0  0  0  0  0  0  # atno 6907 bound_to 6896
  150.8331  134.7595  159.6881 H   0  0  0  0  0  0  0  0  0  0  0  0  # atno 6908 bound_to 6896
  152.4411  134.5595  159.9941 H   0  0  0  0  0  0  0  0  0  0  0  0  # atno 6909 bound_to 6896
  145.0036  140.7842  143.4481 H   0  0  0  0  0  0  0  0  0  0  0  0  # atno 7974 bound_to 7965
  156.2844  140.2172  156.5437 H   0  0  0  0  0  0  0  0  0  0  0  0  # atno 8008 bound_to 7997
  154.7349  140.0492  157.0782 H   0  0  0  0  0  0  0  0  0  0  0  0  # atno 8009 bound_to 7997
  155.0306  140.3134  155.4763 H   0  0  0  0  0  0  0  0  0  0  0  0  # atno 8010 bound_to 7997
  140.0002  143.5548  152.2306 H   0  0  0  0  0  0  0  0  0  0  0  0  # atno 10167 bound_to 10162
  157.5815  130.8985  149.9440 H   0  0  0  0  0  0  0  0  0  0  0  0  # atno 10718 bound_to 10713
  154.8285  135.4538  154.0994 H   0  0  0  0  0  0  0  0  0  0  0  0  # atno 10763 bound_to 10752
  153.2288  135.6903  153.7921 H   0  0  0  0  0  0  0  0  0  0  0  0  # atno 10764 bound_to 10752
  153.7311  135.3327  155.3262 H   0  0  0  0  0  0  0  0  0  0  0  0  # atno 10765 bound_to 10752
  141.1410  133.8100  157.0576 H   0  0  0  0  0  0  0  0  0  0  0  0  # atno 11005 bound_to 11000
  145.2120  139.2200  143.5138 LP  0  0  0  0  0  0  0  0  0  0  0  0  # atno 17320 bound_to 7965
  146.3456  140.1960  142.8589 LP  0  0  0  0  0  0  0  0  0  0  0  0  # atno 17321 bound_to 7965
  139.6277  144.7639  151.2603 LP  0  0  0  0  0  0  0  0  0  0  0  0  # atno 17342 bound_to 10162
  140.7421  143.6535  150.8228 LP  0  0  0  0  0  0  0  0  0  0  0  0  # atno 17343 bound_to 10162
  156.0861  130.3668  150.0484 LP  0  0  0  0  0  0  0  0  0  0  0  0  # atno 17370 bound_to 10713
  156.8622  130.9496  151.3617 LP  0  0  0  0  0  0  0  0  0  0  0  0  # atno 17371 bound_to 10713
  140.0592  134.9764  157.1275 LP  0  0  0  0  0  0  0  0  0  0  0  0  # atno 17394 bound_to 11000
  140.3874  134.2222  155.7168 LP  0  0  0  0  0  0  0  0  0  0  0  0  # atno 17395 bound_to 11000

$$$$
