AV-unprocessed.smi:94|AV-procd|sdf|854|dock1
  -GOLD-   2262017303D 1   1.00000     0.00000
 Structure written by MMmdl.
 53 55  0  0  0  0  0  0  0  0  1 V2000
  154.1462  139.3342  160.4503 C   0  0  0  0  0  0  0  0  0  0  0  0
  153.1164  139.7215  159.5525 O   0  0  0  0  0  0  0  0  0  0  0  0
  152.8274  141.0650  159.4207 C   0  0  0  0  0  0  0  0  0  0  0  0
  153.5077  142.0791  160.1428 C   0  0  0  0  0  0  0  0  0  0  0  0
  153.1622  143.4331  159.9812 C   0  0  0  0  0  0  0  0  0  0  0  0
  152.1274  143.7973  159.1009 C   0  0  0  0  0  0  0  0  0  0  0  0
  151.7442  145.2528  158.9298 C   0  0  0  0  0  0  0  0  0  0  0  0
  151.4490  142.7998  158.3757 C   0  0  0  0  0  0  0  0  0  0  0  0
  151.7959  141.4356  158.5202 C   0  0  0  0  0  0  0  0  0  0  0  0
  151.0394  140.3626  157.7348 C   0  0  1  0  0  0  0  0  0  0  0  0
  151.6791  140.1444  156.3536 C   0  0  0  0  0  0  0  0  0  0  0  0
  150.9546  139.0951  158.4606 N   0  0  0  0  0  0  0  0  0  0  0  0
  149.8332  138.3949  158.6909 C   0  0  0  0  0  0  0  0  0  0  0  0
  148.7221  138.7479  158.2927 O   0  0  0  0  0  0  0  0  0  0  0  0
  150.0075  137.1064  159.5091 C   0  0  0  0  0  0  0  0  0  0  0  0
  148.7461  136.3598  159.7083 N   0  0  0  0  0  0  0  0  0  0  0  0
  148.0866  135.8331  158.5698 C   0  0  0  0  0  0  0  0  0  0  0  0
  148.5496  135.9822  157.4379 O   0  0  0  0  0  0  0  0  0  0  0  0
  146.8402  135.1236  158.8351 C   0  0  0  0  0  0  0  0  0  0  0  0
  146.1440  134.5960  157.8140 F   0  0  0  0  0  0  0  0  0  0  0  0
  146.3710  134.9912  160.0925 C   0  0  0  0  0  0  0  0  0  0  0  0
  147.0265  135.5079  161.1946 N   0  0  0  0  0  0  0  0  0  0  0  0
  146.4534  135.3535  162.5849 C   0  0  1  0  0  0  0  0  0  0  0  0
  145.1030  136.0731  162.6849 C   0  0  0  0  0  0  0  0  0  0  0  0
  144.1233  134.9381  162.4743 C   0  0  0  0  0  0  0  0  0  0  0  0
  144.8575  133.7749  163.1298 C   0  0  0  0  0  0  0  0  0  0  0  0
  146.2336  133.9948  162.8353 O   0  0  0  0  0  0  0  0  0  0  0  0
  148.2310  136.2237  161.0199 C   0  0  0  0  0  0  0  0  0  0  0  0
  148.8115  136.7264  161.9846 O   0  0  0  0  0  0  0  0  0  0  0  0
  154.2439  138.2488  160.4377 H   0  0  0  0  0  0  0  0  0  0  0  0
  153.9164  139.6316  161.4744 H   0  0  0  0  0  0  0  0  0  0  0  0
  155.1094  139.7541  160.1577 H   0  0  0  0  0  0  0  0  0  0  0  0
  154.3022  141.8450  160.8346 H   0  0  0  0  0  0  0  0  0  0  0  0
  153.6921  144.1901  160.5410 H   0  0  0  0  0  0  0  0  0  0  0  0
  150.6620  145.3579  158.8484 H   0  0  0  0  0  0  0  0  0  0  0  0
  152.1982  145.6570  158.0249 H   0  0  0  0  0  0  0  0  0  0  0  0
  152.0779  145.8504  159.7787 H   0  0  0  0  0  0  0  0  0  0  0  0
  150.6510  143.0933  157.7098 H   0  0  0  0  0  0  0  0  0  0  0  0
  150.0172  140.7155  157.5888 H   0  0  0  0  0  0  0  0  0  0  0  0
  151.6975  141.0720  155.7805 H   0  0  0  0  0  0  0  0  0  0  0  0
  151.1246  139.4108  155.7678 H   0  0  0  0  0  0  0  0  0  0  0  0
  152.7062  139.7898  156.4448 H   0  0  0  0  0  0  0  0  0  0  0  0
  151.8204  138.7288  158.8286 H   0  0  0  0  0  0  0  0  0  0  0  0
  150.7538  136.4748  159.0238 H   0  0  0  0  0  0  0  0  0  0  0  0
  150.4668  137.3703  160.4628 H   0  0  0  0  0  0  0  0  0  0  0  0
  145.4402  134.4615  160.2309 H   0  0  0  0  0  0  0  0  0  0  0  0
  147.2064  135.7316  163.2779 H   0  0  0  0  0  0  0  0  0  0  0  0
  145.0015  136.4829  163.6905 H   0  0  0  0  0  0  0  0  0  0  0  0
  145.0086  136.8838  161.9612 H   0  0  0  0  0  0  0  0  0  0  0  0
  143.1450  135.1280  162.9162 H   0  0  0  0  0  0  0  0  0  0  0  0
  143.9867  134.7487  161.4088 H   0  0  0  0  0  0  0  0  0  0  0  0
  144.7211  133.8011  164.2118 H   0  0  0  0  0  0  0  0  0  0  0  0
  144.5198  132.8042  162.7666 H   0  0  0  0  0  0  0  0  0  0  0  0
  1  2  1  0  0  0  0
  1 30  1  0  0  0  0
  1 31  1  0  0  0  0
  1 32  1  0  0  0  0
  2  3  1  0  0  0  0
  3  9  1  0  0  0  0
  3  4  2  0  0  0  0
  4  5  1  0  0  0  0
  4 33  1  0  0  0  0
  5  6  2  0  0  0  0
  5 34  1  0  0  0  0
  6  7  1  0  0  0  0
  6  8  1  0  0  0  0
  7 35  1  0  0  0  0
  7 36  1  0  0  0  0
  7 37  1  0  0  0  0
  8  9  2  0  0  0  0
  8 38  1  0  0  0  0
  9 10  1  0  0  0  0
 10 11  1  0  0  0  0
 10 12  1  0  0  0  0
 10 39  1  0  0  0  0
 11 40  1  0  0  0  0
 11 41  1  0  0  0  0
 11 42  1  0  0  0  0
 12 13  1  0  0  0  0
 12 43  1  0  0  0  0
 13 14  2  0  0  0  0
 13 15  1  0  0  0  0
 15 16  1  0  0  0  0
 15 44  1  0  0  0  0
 15 45  1  0  0  0  0
 16 28  1  0  0  0  0
 16 17  1  0  0  0  0
 17 18  2  0  0  0  0
 17 19  1  0  0  0  0
 19 20  1  0  0  0  0
 19 21  2  0  0  0  0
 21 22  1  0  0  0  0
 21 46  1  0  0  0  0
 22 23  1  0  0  0  0
 22 28  1  0  0  0  0
 23 27  1  0  0  0  0
 23 24  1  0  0  0  0
 23 47  1  0  0  0  0
 24 25  1  0  0  0  0
 24 48  1  0  0  0  0
 24 49  1  0  0  0  0
 25 26  1  0  0  0  0
 25 50  1  0  0  0  0
 25 51  1  0  0  0  0
 26 27  1  0  0  0  0
 26 52  1  0  0  0  0
 26 53  1  0  0  0  0
 28 29  2  0  0  0  0
M  END
> <s_m_source_file>
AV-unprocessed.smi

> <i_m_source_file_index>
94

> <i_lp_mmshare_version>
43012

> <i_f3d_flags>
0

> <s_epik_input>
W0NIM11PYzFbY0hdW2NIXWMoW0NIM10pW2NIXWMxW0NASF0oW0NIM10pW05IXUMoPU8pW0NIMl1uMmMoPU8pYyhGKVtjSF1uKGMyPU8pW0NAQEhdM1tDSDJdW0NIMl1bQ0gyXU8z

> <s_epik_cmdline>
J2VwaWtfcHl0aG9uJywgJy1waCcsICc3LjAnLCAnLXRuJywgJzgnLCAnLW1hJywgJzIwMCcsICctbWV0YWxfYmluZGluZycsICctaW1hZScsICc8aW5maWxlLm1hZT4nLCAnLW9tYWUnLCAnPG91dGZpbGUubWFlPic=

> <r_lp_tautomer_probability>
1

> <r_epik_Ionization_Penalty>
3.37009e-08

> <r_epik_Ionization_Penalty_Charging>
3.59856e-09

> <r_epik_Ionization_Penalty_Neutral>
3.01024e-08

> <r_epik_State_Penalty>
-0

> <r_epik_Charging_Adjusted_Penalty>
3.59856e-09

> <i_epik_Tot_Q>
0

> <i_epik_Tot_abs_Q>
0

> <r_epik_Metal_State_Penalty>
-0

> <b_epik_Metal_Only>
0

> <s_epik_Chemistry_Notes>
This compound contains an acetal/aminal-like group ( X-CH(R)-Y where X, Y are N, S, or O) that may be acid/base labile, releasing an aldehyde.

> <s_lp_Force_Field>
OPLS_2005

> <r_lp_Energy>
32.8189

> <b_lp_Chiralities_Consistent>
1

> <s_lp_Variant>
AV-unprocessed.smi:94-4

> <Gold.Version>
5.8.1

> <Gold.Id.Protein>
6NUR|6NUR_protein|mol2

> <Gold.PLP.Fitness>
50.3111

> <Gold.PLP.PLP>
-49.3472

> <Gold.PLP.part.hbond>
-1.3092

> <Gold.PLP.part.metal>
0.0000

> <Gold.PLP.part.buried>
-6.8168

> <Gold.PLP.part.nonpolar>
-41.7880

> <Gold.PLP.part.repulsive>
0.1498

> <Gold.PLP.ligand.clash>
0.0000

> <Gold.PLP.ligand.torsion>
0.9153

> <Gold.PLP.Chemscore.Hbond>
0.9100

> <Gold.PLP.Chemscore.CHOScore>
0.0000

> <Gold.PLP.Chemscore.Metal>
0.0000

> <Gold.Chemscore.Hbonds>
donor molecule, donor type, donor heavy atom, donor atom, acceptor molecule, acceptor atom, score
      P1  H  6931  6943       L1    29  0.99

> <Gold.PLP.Chemscore.Internal.Correction>
0.0646

> <Gold.Rescore>
     Score         DG    S(hbond)    S(metal)    S(lipo)     H(rot)  DE(clash)    DE(int)     intcor
     15.72     -16.69       0.99        0.00     118.63       2.34       0.06       0.90       ----

> <Gold.Chemscore.Fitness>
15.7233

> <Gold.Chemscore.DG>
-16.6882

> <Gold.Chemscore.ZeroCoef>
-5.4800

> <Gold.Chemscore.Hbond>
0.9915

> <Gold.Chemscore.Metal>
0.0000

> <Gold.Chemscore.Lipo>
118.6268

> <Gold.Chemscore.Internal_Hbond>
0.0000

> <Gold.Chemscore.DEClash>
0.0637

> <Gold.Chemscore.DEInternal>
0.9012

> <Gold.Chemscore.Rot>
2.3370

> <Gold.Chemscore.Internal.Correction>
   9.000000E+99

> <Gold.Chemscore.Hbonds>
donor molecule, donor type, donor heavy atom, donor atom, acceptor molecule, acceptor atom, score
      P1  H  6931  6943       L1    29  0.87

> <Gold.Chemscore.Hbond.Weighted>
-3.3115

> <Gold.Chemscore.Metal.Weighted>
-0.0000

> <Gold.Chemscore.Lipo.Weighted>
-13.8793

> <Gold.Chemscore.Internal_Hbond.Weighted>
0.0000

> <Gold.Chemscore.DEClash.Weighted>
0.0637

> <Gold.Chemscore.DEInternal.Weighted>
0.9012

> <Gold.Chemscore.Rot.Weighted>
5.9827

> <Gold.Chemscore.Internal.Correction.Weighted>
   9.000000E+99

> <Gold.Protein.RotatedTorsions>
[ 6907 6896 6895 6894 ] final  -56.72 input  -60.11 | X-H torsion
[ 7974 7965 7964 7962 ] final  -14.21 input  175.53 | X-H torsion
[ 8008 7997 7996 7995 ] final   10.98 input   59.86 | X-H torsion
[ 10167 10162 10161 10158 ] final   83.19 input  -65.29 | X-H torsion
[ 10718 10713 10712 10709 ] final   89.47 input   66.30 | X-H torsion
[ 10763 10752 10751 10750 ] final  153.04 input  -60.55 | X-H torsion
[ 11005 11000 10999 10996 ] final  170.41 input  -57.11 | X-H torsion

> <Gold.Protein.ActiveResidues>
 VAL166  LYS551  ARG553  GLY616  TRP617  ASP618  TYR619  PRO620  LYS621  CYS622 
 ASP623  PHE694  ASN695  SER759  ASP760  ASP761  ALA762  ILE779  LEU786  VAL792 
 PHE793  MET794  SER795  GLU796  ALA797  LYS798  CYS799  TRP800  GLU811  SER814 

> <Gold.Protein.RotatedAtoms>
  150.8144  134.7318  159.6716 H   0  0  0  0  0  0  0  0  0  0  0  0  # atno 6907 bound_to 6896
  152.4263  134.5858  159.9970 H   0  0  0  0  0  0  0  0  0  0  0  0  # atno 6908 bound_to 6896
  151.6059  133.3314  159.3093 H   0  0  0  0  0  0  0  0  0  0  0  0  # atno 6909 bound_to 6896
  146.2083  140.3315  142.8399 H   0  0  0  0  0  0  0  0  0  0  0  0  # atno 7974 bound_to 7965
  154.8007  140.2851  155.5923 H   0  0  0  0  0  0  0  0  0  0  0  0  # atno 8008 bound_to 7997
  156.2977  140.2587  156.2804 H   0  0  0  0  0  0  0  0  0  0  0  0  # atno 8009 bound_to 7997
  154.9561  140.0378  157.2157 H   0  0  0  0  0  0  0  0  0  0  0  0  # atno 8010 bound_to 7997
  139.9209  144.6213  150.8441 H   0  0  0  0  0  0  0  0  0  0  0  0  # atno 10167 bound_to 10162
  157.6955  131.0334  150.3431 H   0  0  0  0  0  0  0  0  0  0  0  0  # atno 10718 bound_to 10713
  154.1297  135.2827  155.3188 H   0  0  0  0  0  0  0  0  0  0  0  0  # atno 10763 bound_to 10752
  154.6364  135.5417  153.7742 H   0  0  0  0  0  0  0  0  0  0  0  0  # atno 10764 bound_to 10752
  153.0285  135.6475  154.1448 H   0  0  0  0  0  0  0  0  0  0  0  0  # atno 10765 bound_to 10752
  140.3081  134.7539  157.3969 H   0  0  0  0  0  0  0  0  0  0  0  0  # atno 11005 bound_to 11000
  144.8849  140.7449  143.5963 LP  0  0  0  0  0  0  0  0  0  0  0  0  # atno 17320 bound_to 7965
  145.3236  139.1781  143.4574 LP  0  0  0  0  0  0  0  0  0  0  0  0  # atno 17321 bound_to 7965
  140.7662  143.3297  151.2436 LP  0  0  0  0  0  0  0  0  0  0  0  0  # atno 17342 bound_to 10162
  139.6862  143.9769  152.2835 LP  0  0  0  0  0  0  0  0  0  0  0  0  # atno 17343 bound_to 10162
  156.3889  130.3894  149.7045 LP  0  0  0  0  0  0  0  0  0  0  0  0  # atno 17370 bound_to 10713
  156.4402  130.7857  151.2878 LP  0  0  0  0  0  0  0  0  0  0  0  0  # atno 17371 bound_to 10713
  140.1049  134.5423  155.8318 LP  0  0  0  0  0  0  0  0  0  0  0  0  # atno 17394 bound_to 11000
  141.2114  133.6706  156.6580 LP  0  0  0  0  0  0  0  0  0  0  0  0  # atno 17395 bound_to 11000

$$$$
