AV-unprocessed.smi:3220|AV-procd|sdf|12299|dock10
  -GOLD-   2272018143D 1   1.00000     0.00000
 Structure written by MMmdl.
 33 34  0  0  0  0  0  0  0  0  1 V2000
  153.4548  139.4575  159.6832 C   0  0  0  0  0  0  0  0  0  0  0  0
  153.0073  140.7673  159.0203 C   0  0  2  0  0  0  0  0  0  0  0  0
  152.6203  141.8267  160.0747 C   0  0  0  0  0  0  0  0  0  0  0  0
  152.2697  143.1064  159.4843 N   0  0  0  0  0  0  0  0  0  0  0  0
  152.2632  144.3517  160.0771 C   0  0  0  0  0  0  0  0  0  0  0  0
  151.8478  145.2479  159.1344 C   0  0  0  0  0  0  0  0  0  0  0  0
  151.6258  144.4454  157.9805 C   0  0  0  0  0  0  0  0  0  0  0  0
  151.8834  143.1649  158.1917 N   0  0  0  0  0  0  0  0  0  0  0  0
  151.8823  140.4866  158.1288 N   0  0  0  0  0  0  0  0  0  0  0  0
  151.9452  139.8010  156.9763 C   0  0  0  0  0  0  0  0  0  0  0  0
  152.9810  139.2975  156.5407 O   0  0  0  0  0  0  0  0  0  0  0  0
  150.6352  139.6680  156.1933 C   0  0  1  0  0  0  0  0  0  0  0  0
  149.4068  140.2092  156.9484 C   0  0  0  0  0  0  0  0  0  0  0  0
  149.0129  141.4432  156.1602 C   0  0  0  0  0  0  0  0  0  0  0  0
  149.4975  141.0898  154.7617 C   0  0  0  0  0  0  0  0  0  0  0  0
  150.7414  140.4546  155.0084 O   0  0  0  0  0  0  0  0  0  0  0  0
  154.3073  139.6234  160.3426 H   0  0  0  0  0  0  0  0  0  0  0  0
  153.7566  138.7228  158.9359 H   0  0  0  0  0  0  0  0  0  0  0  0
  152.6539  139.0185  160.2792 H   0  0  0  0  0  0  0  0  0  0  0  0
  153.8555  141.1398  158.4429 H   0  0  0  0  0  0  0  0  0  0  0  0
  151.7813  141.4782  160.6787 H   0  0  0  0  0  0  0  0  0  0  0  0
  153.4505  141.9910  160.7632 H   0  0  0  0  0  0  0  0  0  0  0  0
  152.5436  144.4931  161.1104 H   0  0  0  0  0  0  0  0  0  0  0  0
  151.7199  146.3137  159.2513 H   0  0  0  0  0  0  0  0  0  0  0  0
  151.2882  144.7532  157.0019 H   0  0  0  0  0  0  0  0  0  0  0  0
  150.9836  140.8547  158.4053 H   0  0  0  0  0  0  0  0  0  0  0  0
  150.4645  138.6269  155.9135 H   0  0  0  0  0  0  0  0  0  0  0  0
  148.6030  139.4728  156.9155 H   0  0  0  0  0  0  0  0  0  0  0  0
  149.5941  140.4390  157.9985 H   0  0  0  0  0  0  0  0  0  0  0  0
  147.9444  141.6562  156.2021 H   0  0  0  0  0  0  0  0  0  0  0  0
  149.5525  142.3148  156.5331 H   0  0  0  0  0  0  0  0  0  0  0  0
  148.8168  140.3878  154.2778 H   0  0  0  0  0  0  0  0  0  0  0  0
  149.6117  141.9630  154.1191 H   0  0  0  0  0  0  0  0  0  0  0  0
  1  2  1  0  0  0  0
  1 17  1  0  0  0  0
  1 18  1  0  0  0  0
  1 19  1  0  0  0  0
  2  3  1  0  0  0  0
  2  9  1  0  0  0  0
  2 20  1  0  0  0  0
  3  4  1  0  0  0  0
  3 21  1  0  0  0  0
  3 22  1  0  0  0  0
  4  8  1  0  0  0  0
  4  5  1  0  0  0  0
  5  6  2  0  0  0  0
  5 23  1  0  0  0  0
  6  7  1  0  0  0  0
  6 24  1  0  0  0  0
  7  8  2  0  0  0  0
  7 25  1  0  0  0  0
  9 10  1  0  0  0  0
  9 26  1  0  0  0  0
 10 11  2  0  0  0  0
 10 12  1  0  0  0  0
 12 16  1  0  0  0  0
 12 13  1  0  0  0  0
 12 27  1  0  0  0  0
 13 14  1  0  0  0  0
 13 28  1  0  0  0  0
 13 29  1  0  0  0  0
 14 15  1  0  0  0  0
 14 30  1  0  0  0  0
 14 31  1  0  0  0  0
 15 16  1  0  0  0  0
 15 32  1  0  0  0  0
 15 33  1  0  0  0  0
M  END
> <s_m_source_file>
AV-unprocessed.smi

> <i_m_source_file_index>
3220

> <i_lp_mmshare_version>
43012

> <i_f3d_flags>
0

> <s_epik_input>
bjFbY0hdW2NIXVtjSF1uMVtDSDJdW0NAQEhdKFtDSDNdKVtOSF1DKD1PKVtDQEBIXTJbQ0gyXVtDSDJdW0NIMl1PMg==

> <s_epik_cmdline>
J2VwaWtfcHl0aG9uJywgJy1waCcsICc3LjAnLCAnLXRuJywgJzgnLCAnLW1hJywgJzIwMCcsICctbWV0YWxfYmluZGluZycsICctaW1hZScsICc8aW5maWxlLm1hZT4nLCAnLW9tYWUnLCAnPG91dGZpbGUubWFlPic=

> <r_lp_tautomer_probability>
1

> <r_epik_Ionization_Penalty>
0.00033363

> <r_epik_Ionization_Penalty_Charging>
0

> <r_epik_Ionization_Penalty_Neutral>
0.00033363

> <r_epik_State_Penalty>
-0

> <r_epik_Charging_Adjusted_Penalty>
0

> <i_epik_Tot_Q>
0

> <i_epik_Tot_abs_Q>
0

> <r_epik_Metal_State_Penalty>
-0

> <b_epik_Metal_Only>
0

> <s_lp_Force_Field>
OPLS_2005

> <r_lp_Energy>
17.4241

> <b_lp_Chiralities_Consistent>
1

> <s_lp_Variant>
AV-unprocessed.smi:3220-3

> <Gold.Version>
5.8.1

> <Gold.Id.Protein>
6NUR|6NUR_protein|mol2

> <Gold.PLP.Fitness>
42.4279

> <Gold.PLP.PLP>
-34.5088

> <Gold.PLP.part.hbond>
-2.0000

> <Gold.PLP.part.metal>
0.0000

> <Gold.PLP.part.buried>
-4.3123

> <Gold.PLP.part.nonpolar>
-28.3227

> <Gold.PLP.part.repulsive>
0.2027

> <Gold.PLP.ligand.clash>
0.0000

> <Gold.PLP.ligand.torsion>
0.5494

> <Gold.PLP.Chemscore.Hbond>
2.0000

> <Gold.PLP.Chemscore.CHOScore>
1.0000

> <Gold.PLP.Chemscore.Metal>
0.0000

> <Gold.Chemscore.Hbonds>
donor molecule, donor type, donor heavy atom, donor atom, acceptor molecule, acceptor atom, score
      P1  H  7989  7998       L1    16  1.00
      P1  H  7997  8009       L1    11  1.00
      L1  C     7    25       P1  8028  0.55

> <Gold.PLP.Chemscore.Internal.Correction>
0.0180

> <Gold.Rescore>
     Score         DG    S(hbond)    S(metal)    S(lipo)     H(rot)  DE(clash)    DE(int)     intcor
     15.93     -17.08       1.78        0.00      83.87       1.62       0.09       1.06       ----

> <Gold.Chemscore.Fitness>
15.9349

> <Gold.Chemscore.DG>
-17.0821

> <Gold.Chemscore.ZeroCoef>
-5.4800

> <Gold.Chemscore.Hbond>
1.7789

> <Gold.Chemscore.Metal>
0.0000

> <Gold.Chemscore.Lipo>
83.8666

> <Gold.Chemscore.Internal_Hbond>
0.0000

> <Gold.Chemscore.DEClash>
0.0890

> <Gold.Chemscore.DEInternal>
1.0582

> <Gold.Chemscore.Rot>
1.6219

> <Gold.Chemscore.Internal.Correction>
   9.000000E+99

> <Gold.Chemscore.Hbonds>
donor molecule, donor type, donor heavy atom, donor atom, acceptor molecule, acceptor atom, score
      P1  H  7989  7998       L1    16  0.25
      P1  H  7997  8009       L1    11  0.97

> <Gold.Chemscore.Hbond.Weighted>
-5.9417

> <Gold.Chemscore.Metal.Weighted>
-0.0000

> <Gold.Chemscore.Lipo.Weighted>
-9.8124

> <Gold.Chemscore.Internal_Hbond.Weighted>
0.0000

> <Gold.Chemscore.DEClash.Weighted>
0.0890

> <Gold.Chemscore.DEInternal.Weighted>
1.0582

> <Gold.Chemscore.Rot.Weighted>
4.1520

> <Gold.Chemscore.Internal.Correction.Weighted>
   9.000000E+99

> <Gold.Protein.RotatedTorsions>
[ 6907 6896 6895 6894 ] final  173.13 input  -60.11 | X-H torsion
[ 7974 7965 7964 7962 ] final   55.16 input  175.53 | X-H torsion
[ 8008 7997 7996 7995 ] final -167.66 input   59.86 | X-H torsion
[ 10167 10162 10161 10158 ] final -128.84 input  -65.29 | X-H torsion
[ 10718 10713 10712 10709 ] final  -69.81 input   66.30 | X-H torsion
[ 10763 10752 10751 10750 ] final   28.23 input  -60.55 | X-H torsion
[ 11005 11000 10999 10996 ] final    0.35 input  -57.11 | X-H torsion

> <Gold.Protein.ActiveResidues>
 VAL166  LYS551  ARG553  GLY616  TRP617  ASP618  TYR619  PRO620  LYS621  CYS622 
 ASP623  PHE694  ASN695  SER759  ASP760  ASP761  ALA762  ILE779  LEU786  VAL792 
 PHE793  MET794  SER795  GLU796  ALA797  LYS798  CYS799  TRP800  GLU811  SER814 

> <Gold.Protein.RotatedAtoms>
  151.7732  133.3343  159.3450 H   0  0  0  0  0  0  0  0  0  0  0  0  # atno 6907 bound_to 6896
  150.7454  134.6000  159.6041 H   0  0  0  0  0  0  0  0  0  0  0  0  # atno 6908 bound_to 6896
  152.3327  134.7240  160.0336 H   0  0  0  0  0  0  0  0  0  0  0  0  # atno 6909 bound_to 6896
  145.9534  139.3992  143.0292 H   0  0  0  0  0  0  0  0  0  0  0  0  # atno 7974 bound_to 7965
  155.8808  140.1008  157.1486 H   0  0  0  0  0  0  0  0  0  0  0  0  # atno 8008 bound_to 7997
  154.4005  140.1329  156.4257 H   0  0  0  0  0  0  0  0  0  0  0  0  # atno 8009 bound_to 7997
  155.7645  140.3462  155.5217 H   0  0  0  0  0  0  0  0  0  0  0  0  # atno 8010 bound_to 7997
  139.9461  143.6108  152.2489 H   0  0  0  0  0  0  0  0  0  0  0  0  # atno 10167 bound_to 10162
  156.0437  130.4319  150.2202 H   0  0  0  0  0  0  0  0  0  0  0  0  # atno 10718 bound_to 10713
  153.0505  135.6518  154.0706 H   0  0  0  0  0  0  0  0  0  0  0  0  # atno 10763 bound_to 10752
  154.0396  135.2904  155.3358 H   0  0  0  0  0  0  0  0  0  0  0  0  # atno 10764 bound_to 10752
  154.6790  135.5327  153.8304 H   0  0  0  0  0  0  0  0  0  0  0  0  # atno 10765 bound_to 10752
  140.6276  133.9605  155.8257 H   0  0  0  0  0  0  0  0  0  0  0  0  # atno 11005 bound_to 11000
  145.8140  140.9712  143.0933 LP  0  0  0  0  0  0  0  0  0  0  0  0  # atno 17320 bound_to 7965
  144.6800  139.9957  143.7484 LP  0  0  0  0  0  0  0  0  0  0  0  0  # atno 17321 bound_to 7965
  139.6666  144.7662  151.1862 LP  0  0  0  0  0  0  0  0  0  0  0  0  # atno 17342 bound_to 10162
  140.7597  143.5929  150.8778 LP  0  0  0  0  0  0  0  0  0  0  0  0  # atno 17343 bound_to 10162
  157.0295  131.0003  151.3316 LP  0  0  0  0  0  0  0  0  0  0  0  0  # atno 17370 bound_to 10713
  157.5288  130.8045  149.7892 LP  0  0  0  0  0  0  0  0  0  0  0  0  # atno 17371 bound_to 10713
  141.0698  134.0222  157.3542 LP  0  0  0  0  0  0  0  0  0  0  0  0  # atno 17394 bound_to 11000
  139.9129  135.0193  156.7764 LP  0  0  0  0  0  0  0  0  0  0  0  0  # atno 17395 bound_to 11000

$$$$
