AV-unprocessed.smi:3252|AV-procd|sdf|12439|dock10
  -GOLD-   2272018333D 1   1.00000     0.00000
 Structure written by MMmdl.
 37 38  0  0  0  0  0  0  0  0  2 V2000
  146.9431  128.3181  151.7222 C   0  0  0  0  0  0  0  0  0  0  0  0
  147.9335  128.9895  152.6842 C   0  0  0  0  0  0  0  0  0  0  0  0
  147.9323  130.4691  152.5654 N   0  3  1  0  0  0  0  0  0  0  0  0
  146.5714  131.0419  152.6928 C   0  0  0  0  0  0  0  0  0  0  0  0
  146.6108  132.5690  152.5201 C   0  0  0  0  0  0  0  0  0  0  0  0
  147.5076  133.1304  153.4700 O   0  0  0  0  0  0  0  0  0  0  0  0
  148.8423  132.6677  153.2905 C   0  0  1  0  0  0  0  0  0  0  0  0
  149.7450  133.3925  154.3037 C   0  0  0  0  0  0  0  0  0  0  0  0
  149.3374  134.7741  154.5299 N   0  0  0  0  0  0  0  0  0  0  0  0
  149.0638  135.2639  155.8154 C   0  0  0  0  0  0  0  0  0  0  0  0
  149.1605  136.6532  156.0411 C   0  0  0  0  0  0  0  0  0  0  0  0
  148.8884  137.1544  157.3292 C   0  0  0  0  0  0  0  0  0  0  0  0
  148.5304  136.2486  158.3471 C   0  0  0  0  0  0  0  0  0  0  0  0
  148.2430  136.7151  159.6927 C   0  0  0  0  0  0  0  0  0  0  0  0
  148.0139  137.0866  160.7642 N   0  0  0  0  0  0  0  0  0  0  0  0
  148.4589  134.8778  158.0268 C   0  0  0  0  0  0  0  0  0  0  0  0
  148.7182  134.3921  156.7933 N   0  0  0  0  0  0  0  0  0  0  0  0
  148.8640  131.1418  153.5045 C   0  0  0  0  0  0  0  0  0  0  0  0
  146.9017  127.2444  151.9053 H   0  0  0  0  0  0  0  0  0  0  0  0
  147.2277  128.4547  150.6793 H   0  0  0  0  0  0  0  0  0  0  0  0
  145.9357  128.7140  151.8525 H   0  0  0  0  0  0  0  0  0  0  0  0
  147.6488  128.7156  153.7011 H   0  0  0  0  0  0  0  0  0  0  0  0
  148.9414  128.6014  152.5303 H   0  0  0  0  0  0  0  0  0  0  0  0
  145.9118  130.6053  151.9419 H   0  0  0  0  0  0  0  0  0  0  0  0
  146.1581  130.7880  153.6704 H   0  0  0  0  0  0  0  0  0  0  0  0
  146.9135  132.8414  151.5076 H   0  0  0  0  0  0  0  0  0  0  0  0
  145.6184  132.9907  152.6798 H   0  0  0  0  0  0  0  0  0  0  0  0
  149.1740  132.8904  152.2747 H   0  0  0  0  0  0  0  0  0  0  0  0
  149.7268  132.8667  155.2587 H   0  0  0  0  0  0  0  0  0  0  0  0
  150.7824  133.3746  153.9676 H   0  0  0  0  0  0  0  0  0  0  0  0
  149.2709  135.3948  153.7359 H   0  0  0  0  0  0  0  0  0  0  0  0
  149.4378  137.3276  155.2439 H   0  0  0  0  0  0  0  0  0  0  0  0
  148.9562  138.2148  157.5260 H   0  0  0  0  0  0  0  0  0  0  0  0
  148.1897  134.1469  158.7755 H   0  0  0  0  0  0  0  0  0  0  0  0
  148.5842  130.9014  154.5316 H   0  0  0  0  0  0  0  0  0  0  0  0
  149.8792  130.7750  153.3557 H   0  0  0  0  0  0  0  0  0  0  0  0
  148.2462  130.6861  151.6301 H   0  0  0  0  0  0  0  0  0  0  0  0
  1  2  1  0  0  0  0
  1 19  1  0  0  0  0
  1 20  1  0  0  0  0
  1 21  1  0  0  0  0
  2  3  1  0  0  0  0
  2 22  1  0  0  0  0
  2 23  1  0  0  0  0
  3 18  1  0  0  0  0
  3  4  1  0  0  0  0
  3 37  1  0  0  0  0
  4  5  1  0  0  0  0
  4 24  1  0  0  0  0
  4 25  1  0  0  0  0
  5  6  1  0  0  0  0
  5 26  1  0  0  0  0
  5 27  1  0  0  0  0
  6  7  1  0  0  0  0
  7  8  1  0  0  0  0
  7 18  1  0  0  0  0
  7 28  1  0  0  0  0
  8  9  1  0  0  0  0
  8 29  1  0  0  0  0
  8 30  1  0  0  0  0
  9 10  1  0  0  0  0
  9 31  1  0  0  0  0
 10 17  1  0  0  0  0
 10 11  2  0  0  0  0
 11 12  1  0  0  0  0
 11 32  1  0  0  0  0
 12 13  2  0  0  0  0
 12 33  1  0  0  0  0
 13 14  1  0  0  0  0
 13 16  1  0  0  0  0
 14 15  3  0  0  0  0
 16 17  2  0  0  0  0
 16 34  1  0  0  0  0
 18 35  1  0  0  0  0
 18 36  1  0  0  0  0
M  CHG  1   3   1
M  END
> <s_m_source_file>
AV-unprocessed.smi

> <i_m_source_file_index>
3252

> <i_lp_mmshare_version>
43012

> <i_f3d_flags>
0

> <s_epik_input>
W0NIM11bQ0gyXU4xW0NIMl1bQ0gyXU9bQ0BIXShbQ0gyXTEpW0NIMl1bTkhdYzJbY0hdW2NIXWMoQyNOKVtjSF1uMg==

> <s_epik_cmdline>
J2VwaWtfcHl0aG9uJywgJy1waCcsICc3LjAnLCAnLXRuJywgJzgnLCAnLW1hJywgJzIwMCcsICctbWV0YWxfYmluZGluZycsICctaW1hZScsICc8aW5maWxlLm1hZT4nLCAnLW9tYWUnLCAnPG91dGZpbGUubWFlPic=

> <r_epik_Ionization_Penalty>
0.178512

> <r_epik_Ionization_Penalty_Charging>
0.178504

> <r_epik_Ionization_Penalty_Neutral>
8.15545e-06

> <r_epik_State_Penalty>
0.167974

> <r_epik_Charging_Adjusted_Penalty>
0.346478

> <i_epik_Tot_Q>
1

> <i_epik_Tot_abs_Q>
1

> <r_epik_Metal_State_Penalty>
0.167974

> <b_epik_Metal_Only>
0

> <s_lp_Force_Field>
OPLS_2005

> <r_lp_Energy>
17.3379

> <b_lp_Chiralities_Consistent>
1

> <s_lp_Variant>
AV-unprocessed.smi:3252-1

> <Gold.Version>
5.8.1

> <Gold.Id.Protein>
6NUR|6NUR_protein|mol2

> <Gold.PLP.Fitness>
35.7649

> <Gold.PLP.PLP>
-25.6676

> <Gold.PLP.part.hbond>
-4.0000

> <Gold.PLP.part.metal>
0.0000

> <Gold.PLP.part.buried>
-3.2057

> <Gold.PLP.part.nonpolar>
-18.0702

> <Gold.PLP.part.repulsive>
0.1579

> <Gold.PLP.ligand.clash>
0.0000

> <Gold.PLP.ligand.torsion>
0.4080

> <Gold.PLP.Chemscore.Hbond>
3.6320

> <Gold.PLP.Chemscore.CHOScore>
0.0000

> <Gold.PLP.Chemscore.Metal>
0.0000

> <Gold.Chemscore.Hbonds>
donor molecule, donor type, donor heavy atom, donor atom, acceptor molecule, acceptor atom, score
      L1  H     3    37       P1 10747  1.00
      L1  H     9    31       P1  7948  0.98
      P1  H  6931  6943       L1    15  0.90
      P1  H  6934  6947       L1    15  0.62

> <Gold.PLP.Chemscore.Internal.Correction>
0.0174

> <Gold.Rescore>
     Score         DG    S(hbond)    S(metal)    S(lipo)     H(rot)  DE(clash)    DE(int)     intcor
     18.98     -19.36       3.47        0.00      51.79       1.47       0.01       0.38       ----

> <Gold.Chemscore.Fitness>
18.9754

> <Gold.Chemscore.DG>
-19.3643

> <Gold.Chemscore.ZeroCoef>
-5.4800

> <Gold.Chemscore.Hbond>
3.4680

> <Gold.Chemscore.Metal>
0.0000

> <Gold.Chemscore.Lipo>
51.7924

> <Gold.Chemscore.Internal_Hbond>
0.0000

> <Gold.Chemscore.DEClash>
0.0106

> <Gold.Chemscore.DEInternal>
0.3783

> <Gold.Chemscore.Rot>
1.4681

> <Gold.Chemscore.Internal.Correction>
   9.000000E+99

> <Gold.Chemscore.Hbonds>
donor molecule, donor type, donor heavy atom, donor atom, acceptor molecule, acceptor atom, score
      L1  H     3    37       P1 10747  0.93
      L1  H     9    31       P1  7948  0.36
      P1  H  6931  6943       L1    15  0.88
      P1  H  6934  6947       L1    15  0.58

> <Gold.Chemscore.Hbond.Weighted>
-11.5830

> <Gold.Chemscore.Metal.Weighted>
-0.0000

> <Gold.Chemscore.Lipo.Weighted>
-6.0597

> <Gold.Chemscore.Internal_Hbond.Weighted>
0.0000

> <Gold.Chemscore.DEClash.Weighted>
0.0106

> <Gold.Chemscore.DEInternal.Weighted>
0.3783

> <Gold.Chemscore.Rot.Weighted>
3.7584

> <Gold.Chemscore.Internal.Correction.Weighted>
   9.000000E+99

> <Gold.Protein.RotatedTorsions>
[ 6907 6896 6895 6894 ] final   16.50 input  -60.11 | X-H torsion
[ 7974 7965 7964 7962 ] final  128.16 input  175.53 | X-H torsion
[ 8008 7997 7996 7995 ] final -127.73 input   59.86 | X-H torsion
[ 10167 10162 10161 10158 ] final   97.09 input  -65.29 | X-H torsion
[ 10718 10713 10712 10709 ] final -165.72 input   66.30 | X-H torsion
[ 10763 10752 10751 10750 ] final   65.59 input  -60.55 | X-H torsion
[ 11005 11000 10999 10996 ] final -104.63 input  -57.11 | X-H torsion

> <Gold.Protein.ActiveResidues>
 VAL166  LYS551  ARG553  GLY616  TRP617  ASP618  TYR619  PRO620  LYS621  CYS622 
 ASP623  PHE694  ASN695  SER759  ASP760  ASP761  ALA762  ILE779  LEU786  VAL792 
 PHE793  MET794  SER795  GLU796  ALA797  LYS798  CYS799  TRP800  GLU811  SER814 

> <Gold.Protein.RotatedAtoms>
  151.8349  135.0609  160.0440 H   0  0  0  0  0  0  0  0  0  0  0  0  # atno 6907 bound_to 6896
  152.2853  133.5504  159.5531 H   0  0  0  0  0  0  0  0  0  0  0  0  # atno 6908 bound_to 6896
  150.7206  134.0423  159.3812 H   0  0  0  0  0  0  0  0  0  0  0  0  # atno 6909 bound_to 6896
  145.0426  139.3950  143.5094 H   0  0  0  0  0  0  0  0  0  0  0  0  # atno 7974 bound_to 7965
  155.2510  140.0432  157.2986 H   0  0  0  0  0  0  0  0  0  0  0  0  # atno 8008 bound_to 7997
  154.5769  140.2389  155.8079 H   0  0  0  0  0  0  0  0  0  0  0  0  # atno 8009 bound_to 7997
  156.2164  140.2983  155.9858 H   0  0  0  0  0  0  0  0  0  0  0  0  # atno 8010 bound_to 7997
  139.7833  144.6880  150.9992 H   0  0  0  0  0  0  0  0  0  0  0  0  # atno 10167 bound_to 10162
  156.6576  130.9033  151.3024 H   0  0  0  0  0  0  0  0  0  0  0  0  # atno 10718 bound_to 10713
  153.0103  135.5351  154.6690 H   0  0  0  0  0  0  0  0  0  0  0  0  # atno 10763 bound_to 10752
  154.5880  135.2856  155.0667 H   0  0  0  0  0  0  0  0  0  0  0  0  # atno 10764 bound_to 10752
  154.1771  135.6522  153.5077 H   0  0  0  0  0  0  0  0  0  0  0  0  # atno 10765 bound_to 10752
  141.1091  133.8739  157.1635 H   0  0  0  0  0  0  0  0  0  0  0  0  # atno 11005 bound_to 11000
  146.3511  140.0034  142.8674 LP  0  0  0  0  0  0  0  0  0  0  0  0  # atno 17320 bound_to 7965
  145.1629  140.9682  143.4367 LP  0  0  0  0  0  0  0  0  0  0  0  0  # atno 17321 bound_to 7965
  140.7819  143.4459  151.0483 LP  0  0  0  0  0  0  0  0  0  0  0  0  # atno 17342 bound_to 10162
  139.8139  143.7913  152.3173 LP  0  0  0  0  0  0  0  0  0  0  0  0  # atno 17343 bound_to 10162
  157.7120  130.9452  150.1123 LP  0  0  0  0  0  0  0  0  0  0  0  0  # atno 17370 bound_to 10713
  156.2036  130.3662  149.8757 LP  0  0  0  0  0  0  0  0  0  0  0  0  # atno 17371 bound_to 10713
  139.9976  135.0040  157.0118 LP  0  0  0  0  0  0  0  0  0  0  0  0  # atno 17394 bound_to 11000
  140.4822  134.1277  155.7219 LP  0  0  0  0  0  0  0  0  0  0  0  0  # atno 17395 bound_to 11000

$$$$
