AV-unprocessed.smi:290|AV-procd|sdf|2226|dock6
  -GOLD-   2262022 83D 1   1.00000     0.00000
 Structure written by MMmdl.
 59 62  0  0  0  0  0  0  0  0  2 V2000
  147.6751  140.5841  157.3886 C   0  0  0  0  0  0  0  0  0  0  0  0
  148.8920  140.9739  156.5349 C   0  0  1  0  0  0  0  0  0  0  0  0
  149.8193  139.8928  156.5727 O   0  0  0  0  0  0  0  0  0  0  0  0
  150.5773  139.9066  155.3766 C   0  0  0  0  0  0  0  0  0  0  0  0
  149.5206  140.2207  154.3292 C   0  0  0  0  0  0  0  0  0  0  0  0
  148.6361  141.2530  155.0261 C   0  0  2  0  0  0  0  0  0  0  0  0
  149.1583  142.5381  154.7329 O   0  0  0  0  0  0  0  0  0  0  0  0
  147.1573  141.2169  154.5585 C   0  0  0  0  0  0  0  0  0  0  0  0
  146.7713  139.9473  153.9617 N   0  0  0  0  0  0  0  0  0  0  0  0
  146.9979  139.5446  152.6638 C   0  0  0  0  0  0  0  0  0  0  0  0
  146.5525  138.3553  152.3620 N   0  0  0  0  0  0  0  0  0  0  0  0
  145.9853  137.9019  153.5453 C   0  0  0  0  0  0  0  0  0  0  0  0
  145.3331  136.7020  153.9267 C   0  0  0  0  0  0  0  0  0  0  0  0
  145.1521  135.6889  153.0511 N   0  0  0  0  0  0  0  0  0  0  0  0
  146.3757  135.0163  152.6440 C   0  0  0  0  0  0  0  0  0  0  0  0
  146.0041  134.1795  151.4136 C   0  0  0  0  0  0  0  0  0  0  0  0
  144.6797  134.7872  150.9011 C   0  0  1  0  0  0  0  0  0  0  0  0
  143.5301  133.8313  150.8320 N   0  3  2  0  0  0  0  0  0  0  0  0
  142.9407  133.4391  152.1384 C   0  0  0  0  0  0  0  0  0  0  0  0
  143.7846  132.6558  149.9603 C   0  0  0  0  0  0  0  0  0  0  0  0
  143.9523  133.0517  148.4832 C   0  0  0  0  0  0  0  0  0  0  0  0
  142.7215  133.5081  147.9634 O   0  0  0  0  0  0  0  0  0  0  0  0
  144.4372  136.0008  151.8211 C   0  0  1  0  0  0  0  0  0  0  0  0
  142.9737  136.4391  152.0312 C   0  0  0  0  0  0  0  0  0  0  0  0
  144.8964  136.5923  155.2092 N   0  0  0  0  0  0  0  0  0  0  0  0
  145.0891  137.6000  156.0663 C   0  0  0  0  0  0  0  0  0  0  0  0
  145.6814  138.7772  155.8511 N   0  0  0  0  0  0  0  0  0  0  0  0
  146.1179  138.8861  154.5634 C   0  0  0  0  0  0  0  0  0  0  0  0
  144.8414  135.1858  149.8999 H   0  0  0  0  0  0  0  0  0  0  0  0
  144.9532  136.8433  151.3568 H   0  0  0  0  0  0  0  0  0  0  0  0
  146.9282  141.3780  157.4042 H   0  0  0  0  0  0  0  0  0  0  0  0
  147.9752  140.3990  158.4201 H   0  0  0  0  0  0  0  0  0  0  0  0
  147.2006  139.6740  157.0209 H   0  0  0  0  0  0  0  0  0  0  0  0
  149.3760  141.8340  157.0020 H   0  0  0  0  0  0  0  0  0  0  0  0
  151.3334  140.6918  155.4235 H   0  0  0  0  0  0  0  0  0  0  0  0
  151.0751  138.9527  155.2024 H   0  0  0  0  0  0  0  0  0  0  0  0
  149.9418  140.5639  153.3832 H   0  0  0  0  0  0  0  0  0  0  0  0
  148.9512  139.3125  154.1283 H   0  0  0  0  0  0  0  0  0  0  0  0
  149.3447  142.5832  153.8075 H   0  0  0  0  0  0  0  0  0  0  0  0
  146.4870  141.3965  155.3994 H   0  0  0  0  0  0  0  0  0  0  0  0
  146.9647  142.0101  153.8348 H   0  0  0  0  0  0  0  0  0  0  0  0
  147.5044  140.1675  151.9408 H   0  0  0  0  0  0  0  0  0  0  0  0
  147.1463  135.7445  152.3862 H   0  0  0  0  0  0  0  0  0  0  0  0
  146.7610  134.3903  153.4495 H   0  0  0  0  0  0  0  0  0  0  0  0
  146.7877  134.2460  150.6583 H   0  0  0  0  0  0  0  0  0  0  0  0
  145.9201  133.1271  151.6772 H   0  0  0  0  0  0  0  0  0  0  0  0
  143.5456  132.6921  152.6516 H   0  0  0  0  0  0  0  0  0  0  0  0
  141.9538  133.0037  151.9799 H   0  0  0  0  0  0  0  0  0  0  0  0
  142.8130  134.2903  152.8057 H   0  0  0  0  0  0  0  0  0  0  0  0
  144.6674  132.1223  150.3158 H   0  0  0  0  0  0  0  0  0  0  0  0
  142.9559  131.9490  150.0325 H   0  0  0  0  0  0  0  0  0  0  0  0
  144.7142  133.8181  148.3445 H   0  0  0  0  0  0  0  0  0  0  0  0
  144.2671  132.1843  147.9024 H   0  0  0  0  0  0  0  0  0  0  0  0
  142.4288  132.8999  147.3010 H   0  0  0  0  0  0  0  0  0  0  0  0
  142.4755  136.6013  151.0751 H   0  0  0  0  0  0  0  0  0  0  0  0
  142.9232  137.3769  152.5854 H   0  0  0  0  0  0  0  0  0  0  0  0
  142.3967  135.7036  152.5904 H   0  0  0  0  0  0  0  0  0  0  0  0
  144.7162  137.4407  157.0673 H   0  0  0  0  0  0  0  0  0  0  0  0
  142.7947  134.3401  150.3617 H   0  0  0  0  0  0  0  0  0  0  0  0
  1  2  1  0  0  0  0
  1 31  1  0  0  0  0
  1 32  1  0  0  0  0
  1 33  1  0  0  0  0
  2  6  1  0  0  0  0
  2  3  1  0  0  0  0
  2 34  1  0  0  0  0
  3  4  1  0  0  0  0
  4  5  1  0  0  0  0
  4 35  1  0  0  0  0
  4 36  1  0  0  0  0
  5  6  1  0  0  0  0
  5 37  1  0  0  0  0
  5 38  1  0  0  0  0
  6  7  1  0  0  0  0
  6  8  1  0  0  0  0
  7 39  1  0  0  0  0
  8  9  1  0  0  0  0
  8 40  1  0  0  0  0
  8 41  1  0  0  0  0
  9 28  1  0  0  0  0
  9 10  1  0  0  0  0
 10 11  2  0  0  0  0
 10 42  1  0  0  0  0
 11 12  1  0  0  0  0
 12 28  2  0  0  0  0
 12 13  1  0  0  0  0
 13 14  1  0  0  0  0
 13 25  2  0  0  0  0
 14 23  1  0  0  0  0
 14 15  1  0  0  0  0
 15 16  1  0  0  0  0
 15 43  1  0  0  0  0
 15 44  1  0  0  0  0
 16 17  1  0  0  0  0
 16 45  1  0  0  0  0
 16 46  1  0  0  0  0
 17 29  1  0  0  0  0
 17 18  1  0  0  0  0
 17 23  1  0  0  0  0
 18 19  1  0  0  0  0
 18 20  1  0  0  0  0
 18 59  1  0  0  0  0
 19 47  1  0  0  0  0
 19 48  1  0  0  0  0
 19 49  1  0  0  0  0
 20 21  1  0  0  0  0
 20 50  1  0  0  0  0
 20 51  1  0  0  0  0
 21 22  1  0  0  0  0
 21 52  1  0  0  0  0
 21 53  1  0  0  0  0
 22 54  1  0  0  0  0
 23 30  1  0  0  0  0
 23 24  1  0  0  0  0
 24 55  1  0  0  0  0
 24 56  1  0  0  0  0
 24 57  1  0  0  0  0
 25 26  1  0  0  0  0
 26 27  2  0  0  0  0
 26 58  1  0  0  0  0
 27 28  1  0  0  0  0
M  CHG  1  18   1
M  END
> <s_m_source_file>
AV-unprocessed.smi

> <i_m_source_file_index>
290

> <i_lp_mmshare_version>
43012

> <i_f3d_flags>
0

> <s_epik_input>
W0NIMl0xW0NIMl1PW0NAQEhdKFtDSDNdKVtDQEBdMShbT0hdKVtDSDJdbihbY0hdbjIpYyhjMjMpbltjSF1uYzNONFtDSDJdW0NIMl1bQ0BIXShbQ0BIXTRbQ0gzXSlOKFtDSDNdKVtDSDJdW0NIMl1bT0hd

> <s_epik_cmdline>
J2VwaWtfcHl0aG9uJywgJy1waCcsICc3LjAnLCAnLXRuJywgJzgnLCAnLW1hJywgJzIwMCcsICctbWV0YWxfYmluZGluZycsICctaW1hZScsICc8aW5maWxlLm1hZT4nLCAnLW9tYWUnLCAnPG91dGZpbGUubWFlPic=

> <r_lp_tautomer_probability>
1

> <r_epik_Ionization_Penalty>
0.0036983

> <r_epik_Ionization_Penalty_Charging>
0.0032725

> <r_epik_Ionization_Penalty_Neutral>
0.000425798

> <r_epik_State_Penalty>
-0

> <r_epik_Charging_Adjusted_Penalty>
0.0032725

> <i_epik_Tot_Q>
1

> <i_epik_Tot_abs_Q>
1

> <r_epik_Metal_State_Penalty>
-0

> <b_epik_Metal_Only>
0

> <s_lp_Force_Field>
OPLS_2005

> <r_lp_Energy>
69.8612

> <b_lp_Chiralities_Consistent>
1

> <s_lp_Variant>
AV-unprocessed.smi:290-12

> <Gold.Version>
5.8.1

> <Gold.Id.Protein>
6NUR|6NUR_protein|mol2

> <Gold.PLP.Fitness>
46.3289

> <Gold.PLP.PLP>
-35.2386

> <Gold.PLP.part.hbond>
-5.5435

> <Gold.PLP.part.metal>
0.0000

> <Gold.PLP.part.buried>
1.2298

> <Gold.PLP.part.nonpolar>
-30.9587

> <Gold.PLP.part.repulsive>
0.4355

> <Gold.PLP.ligand.clash>
0.0000

> <Gold.PLP.ligand.torsion>
1.3796

> <Gold.PLP.Chemscore.Hbond>
3.5420

> <Gold.PLP.Chemscore.CHOScore>
1.0000

> <Gold.PLP.Chemscore.Metal>
0.0000

> <Gold.Chemscore.Hbonds>
donor molecule, donor type, donor heavy atom, donor atom, acceptor molecule, acceptor atom, score
      L1  H    18    59       P1 10186  2.00
      L1  H    22    54       P1 10195  0.62
      P1  H 10192 10197       L1    22  0.85
      L1  C    10    42       P1  7957  1.00

> <Gold.PLP.Chemscore.Internal.Correction>
0.2235

> <Gold.Rescore>
     Score         DG    S(hbond)    S(metal)    S(lipo)     H(rot)  DE(clash)    DE(int)     intcor
      8.72     -12.12       1.77        0.00      86.42       3.67       1.96       1.44       ----

> <Gold.Chemscore.Fitness>
8.7229

> <Gold.Chemscore.DG>
-12.1249

> <Gold.Chemscore.ZeroCoef>
-5.4800

> <Gold.Chemscore.Hbond>
1.7719

> <Gold.Chemscore.Metal>
0.0000

> <Gold.Chemscore.Lipo>
86.4192

> <Gold.Chemscore.Internal_Hbond>
0.0000

> <Gold.Chemscore.DEClash>
1.9588

> <Gold.Chemscore.DEInternal>
1.4432

> <Gold.Chemscore.Rot>
3.6658

> <Gold.Chemscore.Internal.Correction>
   9.000000E+99

> <Gold.Chemscore.Hbonds>
donor molecule, donor type, donor heavy atom, donor atom, acceptor molecule, acceptor atom, score
      L1  H    18    59       P1 10186  0.71
      L1  H    22    54       P1 10195  0.62
      P1  H 10192 10197       L1    22  0.14

> <Gold.Chemscore.Hbond.Weighted>
-5.9183

> <Gold.Chemscore.Metal.Weighted>
-0.0000

> <Gold.Chemscore.Lipo.Weighted>
-10.1111

> <Gold.Chemscore.Internal_Hbond.Weighted>
0.0000

> <Gold.Chemscore.DEClash.Weighted>
1.9588

> <Gold.Chemscore.DEInternal.Weighted>
1.4432

> <Gold.Chemscore.Rot.Weighted>
9.3844

> <Gold.Chemscore.Internal.Correction.Weighted>
   9.000000E+99

> <Gold.Protein.RotatedTorsions>
[ 6907 6896 6895 6894 ] final -143.16 input  -60.11 | X-H torsion
[ 7974 7965 7964 7962 ] final -170.74 input  175.53 | X-H torsion
[ 8008 7997 7996 7995 ] final  125.91 input   59.86 | X-H torsion
[ 10167 10162 10161 10158 ] final   57.14 input  -65.29 | X-H torsion
[ 10718 10713 10712 10709 ] final -137.26 input   66.30 | X-H torsion
[ 10763 10752 10751 10750 ] final -103.88 input  -60.55 | X-H torsion
[ 11005 11000 10999 10996 ] final   54.54 input  -57.11 | X-H torsion

> <Gold.Protein.ActiveResidues>
 VAL166  LYS551  ARG553  GLY616  TRP617  ASP618  TYR619  PRO620  LYS621  CYS622 
 ASP623  PHE694  ASN695  SER759  ASP760  ASP761  ALA762  ILE779  LEU786  VAL792 
 PHE793  MET794  SER795  GLU796  ALA797  LYS798  CYS799  TRP800  GLU811  SER814 

> <Gold.Protein.RotatedAtoms>
  151.0967  133.5274  159.2611 H   0  0  0  0  0  0  0  0  0  0  0  0  # atno 6907 bound_to 6896
  151.2121  135.0485  159.8925 H   0  0  0  0  0  0  0  0  0  0  0  0  # atno 6908 bound_to 6896
  152.5439  134.0781  159.8277 H   0  0  0  0  0  0  0  0  0  0  0  0  # atno 6909 bound_to 6896
  144.7166  140.2027  143.6336 H   0  0  0  0  0  0  0  0  0  0  0  0  # atno 7974 bound_to 7965
  156.2848  140.2705  156.2025 H   0  0  0  0  0  0  0  0  0  0  0  0  # atno 8008 bound_to 7997
  155.0347  140.0386  157.2505 H   0  0  0  0  0  0  0  0  0  0  0  0  # atno 8009 bound_to 7997
  154.7325  140.2709  155.6449 H   0  0  0  0  0  0  0  0  0  0  0  0  # atno 8010 bound_to 7997
  140.2012  144.3986  150.6528 H   0  0  0  0  0  0  0  0  0  0  0  0  # atno 10167 bound_to 10162
  156.2861  130.7348  151.1360 H   0  0  0  0  0  0  0  0  0  0  0  0  # atno 10718 bound_to 10713
  154.7839  135.4807  153.9904 H   0  0  0  0  0  0  0  0  0  0  0  0  # atno 10763 bound_to 10752
  153.1532  135.6795  153.8858 H   0  0  0  0  0  0  0  0  0  0  0  0  # atno 10764 bound_to 10752
  153.8495  135.3169  155.3410 H   0  0  0  0  0  0  0  0  0  0  0  0  # atno 10765 bound_to 10752
  140.0678  134.5511  155.9079 H   0  0  0  0  0  0  0  0  0  0  0  0  # atno 11005 bound_to 11000
  145.8665  139.2249  143.1686 LP  0  0  0  0  0  0  0  0  0  0  0  0  # atno 17320 bound_to 7965
  146.0125  140.8422  142.9964 LP  0  0  0  0  0  0  0  0  0  0  0  0  # atno 17321 bound_to 7965
  140.6389  143.2200  151.6334 LP  0  0  0  0  0  0  0  0  0  0  0  0  # atno 17342 bound_to 10162
  139.5216  144.3187  152.0930 LP  0  0  0  0  0  0  0  0  0  0  0  0  # atno 17343 bound_to 10162
  157.7329  131.0596  150.5605 LP  0  0  0  0  0  0  0  0  0  0  0  0  # atno 17370 bound_to 10713
  156.5716  130.4281  149.6017 LP  0  0  0  0  0  0  0  0  0  0  0  0  # atno 17371 bound_to 10713
  141.2000  133.6610  156.5873 LP  0  0  0  0  0  0  0  0  0  0  0  0  # atno 17394 bound_to 11000
  140.3672  134.7637  157.4574 LP  0  0  0  0  0  0  0  0  0  0  0  0  # atno 17395 bound_to 11000

$$$$
