AV-unprocessed.smi:3032|AV-procd|sdf|11562|dock3
  -GOLD-   2272016523D 1   1.00000     0.00000
 Structure written by MMmdl.
 37 38  0  0  0  0  0  0  0  0  1 V2000
  151.7822  145.6608  160.0795 C   0  0  0  0  0  0  0  0  0  0  0  0
  152.1714  144.2763  159.5426 C   0  0  1  0  0  0  0  0  0  0  0  0
  152.8001  143.4011  160.6434 C   0  0  0  0  0  0  0  0  0  0  0  0
  153.1809  142.0112  160.1096 C   0  0  0  0  0  0  0  0  0  0  0  0
  151.9695  141.3057  159.4803 C   0  0  0  0  0  0  0  0  0  0  0  0
  151.3393  142.1659  158.3654 C   0  0  1  0  0  0  0  0  0  0  0  0
  150.1102  141.4756  157.7605 C   0  0  0  0  0  0  0  0  0  0  0  0
  149.7334  140.3878  158.1978 O   0  0  0  0  0  0  0  0  0  0  0  0
  149.4790  142.1327  156.7741 N   0  0  0  0  0  0  0  0  0  0  0  0
  148.2320  141.7120  156.1383 C   0  0  0  0  0  0  0  0  0  0  0  0
  148.4081  141.4256  154.6334 C   0  0  0  0  0  0  0  0  0  0  0  0
  149.1299  140.1480  154.3406 C   0  0  0  0  0  0  0  0  0  0  0  0
  148.5008  139.1149  153.7781 N   0  0  0  0  0  0  0  0  0  0  0  0
  149.5027  138.2220  153.6274 N   0  0  0  0  0  0  0  0  0  0  0  0
  150.6299  138.7593  154.0905 C   0  0  0  0  0  0  0  0  0  0  0  0
  150.4717  139.9884  154.5624 N   0  0  0  0  0  0  0  0  0  0  0  0
  150.9620  143.5601  158.9111 C   0  0  0  0  0  0  0  0  0  0  0  0
  151.0267  145.5846  160.8623 H   0  0  0  0  0  0  0  0  0  0  0  0
  151.3763  146.2893  159.2863 H   0  0  0  0  0  0  0  0  0  0  0  0
  152.6460  146.1768  160.4994 H   0  0  0  0  0  0  0  0  0  0  0  0
  152.9195  144.4248  158.7624 H   0  0  0  0  0  0  0  0  0  0  0  0
  153.6851  143.8910  161.0509 H   0  0  0  0  0  0  0  0  0  0  0  0
  152.0994  143.2909  161.4722 H   0  0  0  0  0  0  0  0  0  0  0  0
  153.9745  142.1086  159.3678 H   0  0  0  0  0  0  0  0  0  0  0  0
  153.5865  141.4020  160.9177 H   0  0  0  0  0  0  0  0  0  0  0  0
  152.2786  140.3392  159.0799 H   0  0  0  0  0  0  0  0  0  0  0  0
  151.2333  141.0964  160.2582 H   0  0  0  0  0  0  0  0  0  0  0  0
  152.0826  142.2989  157.5771 H   0  0  0  0  0  0  0  0  0  0  0  0
  149.8616  143.0195  156.4795 H   0  0  0  0  0  0  0  0  0  0  0  0
  147.8783  140.8123  156.6419 H   0  0  0  0  0  0  0  0  0  0  0  0
  147.4531  142.4625  156.2818 H   0  0  0  0  0  0  0  0  0  0  0  0
  147.4290  141.3892  154.1538 H   0  0  0  0  0  0  0  0  0  0  0  0
  148.9431  142.2517  154.1637 H   0  0  0  0  0  0  0  0  0  0  0  0
  151.5804  138.2465  154.0788 H   0  0  0  0  0  0  0  0  0  0  0  0
  150.1681  143.4687  159.6545 H   0  0  0  0  0  0  0  0  0  0  0  0
  150.5563  144.1732  158.1050 H   0  0  0  0  0  0  0  0  0  0  0  0
  149.3744  137.3072  153.2190 H   0  0  0  0  0  0  0  0  0  0  0  0
  1  2  1  0  0  0  0
  1 18  1  0  0  0  0
  1 19  1  0  0  0  0
  1 20  1  0  0  0  0
  2 17  1  0  0  0  0
  2  3  1  0  0  0  0
  2 21  1  0  0  0  0
  3  4  1  0  0  0  0
  3 22  1  0  0  0  0
  3 23  1  0  0  0  0
  4  5  1  0  0  0  0
  4 24  1  0  0  0  0
  4 25  1  0  0  0  0
  5  6  1  0  0  0  0
  5 26  1  0  0  0  0
  5 27  1  0  0  0  0
  6  7  1  0  0  0  0
  6 17  1  0  0  0  0
  6 28  1  0  0  0  0
  7  8  2  0  0  0  0
  7  9  1  0  0  0  0
  9 10  1  0  0  0  0
  9 29  1  0  0  0  0
 10 11  1  0  0  0  0
 10 30  1  0  0  0  0
 10 31  1  0  0  0  0
 11 32  1  0  0  0  0
 11 33  1  0  0  0  0
 11 12  1  0  0  0  0
 12 16  1  0  0  0  0
 12 13  2  0  0  0  0
 13 14  1  0  0  0  0
 14 15  1  0  0  0  0
 14 37  1  0  0  0  0
 15 16  2  0  0  0  0
 15 34  1  0  0  0  0
 17 35  1  0  0  0  0
 17 36  1  0  0  0  0
M  END
> <s_m_source_file>
AV-unprocessed.smi

> <i_m_source_file_index>
3032

> <i_lp_mmshare_version>
43012

> <i_f3d_flags>
0

> <s_epik_input>
W0NIM11bQ0BASF0xW0NIMl1bQ0gyXVtDSDJdW0NASF0oW0NIMl0xKUMoPU8pW05IXVtDSDJdW0NIMl1jMm5uW2NIXVtuSF0y

> <s_epik_cmdline>
J2VwaWtfcHl0aG9uJywgJy1waCcsICc3LjAnLCAnLXRuJywgJzgnLCAnLW1hJywgJzIwMCcsICctbWV0YWxfYmluZGluZycsICctaW1hZScsICc8aW5maWxlLm1hZT4nLCAnLW9tYWUnLCAnPG91dGZpbGUubWFlPic=

> <r_epik_Ionization_Penalty>
0.000752022

> <r_epik_Ionization_Penalty_Charging>
0

> <r_epik_Ionization_Penalty_Neutral>
0.000752022

> <r_epik_State_Penalty>
0.639926

> <r_epik_Charging_Adjusted_Penalty>
0.639926

> <i_epik_Tot_Q>
0

> <i_epik_Tot_abs_Q>
0

> <r_epik_Metal_State_Penalty>
0.76532

> <b_epik_Metal_Only>
0

> <s_lp_Force_Field>
OPLS_2005

> <r_lp_Energy>
8.74502

> <b_lp_Chiralities_Consistent>
1

> <s_lp_Variant>
AV-unprocessed.smi:3032-6

> <Gold.Version>
5.8.1

> <Gold.Id.Protein>
6NUR|6NUR_protein|mol2

> <Gold.PLP.Fitness>
44.8065

> <Gold.PLP.PLP>
-37.7166

> <Gold.PLP.part.hbond>
-3.8567

> <Gold.PLP.part.metal>
0.0000

> <Gold.PLP.part.buried>
-5.5802

> <Gold.PLP.part.nonpolar>
-29.5328

> <Gold.PLP.part.repulsive>
1.1894

> <Gold.PLP.ligand.clash>
0.0000

> <Gold.PLP.ligand.torsion>
0.1475

> <Gold.PLP.Chemscore.Hbond>
2.4545

> <Gold.PLP.Chemscore.CHOScore>
0.0000

> <Gold.PLP.Chemscore.Metal>
0.0000

> <Gold.Chemscore.Hbonds>
donor molecule, donor type, donor heavy atom, donor atom, acceptor molecule, acceptor atom, score
      L1  H     9    29       P1  8028  0.46
      L1  H    14    37       P1  7948  1.00
      P1  H  7989  7998       L1    16  1.00

> <Gold.PLP.Chemscore.Internal.Correction>
0.0215

> <Gold.Rescore>
     Score         DG    S(hbond)    S(metal)    S(lipo)     H(rot)  DE(clash)    DE(int)     intcor
     16.52     -16.83       2.17        0.00      84.36       2.25       0.03       0.28       ----

> <Gold.Chemscore.Fitness>
16.5197

> <Gold.Chemscore.DG>
-16.8338

> <Gold.Chemscore.ZeroCoef>
-5.4800

> <Gold.Chemscore.Hbond>
2.1690

> <Gold.Chemscore.Metal>
0.0000

> <Gold.Chemscore.Lipo>
84.3553

> <Gold.Chemscore.Internal_Hbond>
0.0000

> <Gold.Chemscore.DEClash>
0.0334

> <Gold.Chemscore.DEInternal>
0.2806

> <Gold.Chemscore.Rot>
2.2501

> <Gold.Chemscore.Internal.Correction>
   9.000000E+99

> <Gold.Chemscore.Hbonds>
donor molecule, donor type, donor heavy atom, donor atom, acceptor molecule, acceptor atom, score
      L1  H     9    29       P1  8028  0.46
      L1  H    14    37       P1  7948  0.91
      P1  H  7989  7998       L1    16  0.24

> <Gold.Chemscore.Hbond.Weighted>
-7.2445

> <Gold.Chemscore.Metal.Weighted>
-0.0000

> <Gold.Chemscore.Lipo.Weighted>
-9.8696

> <Gold.Chemscore.Internal_Hbond.Weighted>
0.0000

> <Gold.Chemscore.DEClash.Weighted>
0.0334

> <Gold.Chemscore.DEInternal.Weighted>
0.2806

> <Gold.Chemscore.Rot.Weighted>
5.7603

> <Gold.Chemscore.Internal.Correction.Weighted>
   9.000000E+99

> <Gold.Protein.RotatedTorsions>
[ 6907 6896 6895 6894 ] final   40.38 input  -60.11 | X-H torsion
[ 7974 7965 7964 7962 ] final  125.99 input  175.53 | X-H torsion
[ 8008 7997 7996 7995 ] final   62.23 input   59.86 | X-H torsion
[ 10167 10162 10161 10158 ] final -118.27 input  -65.29 | X-H torsion
[ 10718 10713 10712 10709 ] final  -52.60 input   66.30 | X-H torsion
[ 10763 10752 10751 10750 ] final  148.04 input  -60.55 | X-H torsion
[ 11005 11000 10999 10996 ] final   79.13 input  -57.11 | X-H torsion

> <Gold.Protein.ActiveResidues>
 VAL166  LYS551  ARG553  GLY616  TRP617  ASP618  TYR619  PRO620  LYS621  CYS622 
 ASP623  PHE694  ASN695  SER759  ASP760  ASP761  ALA762  ILE779  LEU786  VAL792 
 PHE793  MET794  SER795  GLU796  ALA797  LYS798  CYS799  TRP800  GLU811  SER814 

> <Gold.Protein.RotatedAtoms>
  152.1818  134.8748  160.0525 H   0  0  0  0  0  0  0  0  0  0  0  0  # atno 6907 bound_to 6896
  151.9669  133.3708  159.4064 H   0  0  0  0  0  0  0  0  0  0  0  0  # atno 6908 bound_to 6896
  150.6919  134.4104  159.5203 H   0  0  0  0  0  0  0  0  0  0  0  0  # atno 6909 bound_to 6896
  145.0667  139.3762  143.4978 H   0  0  0  0  0  0  0  0  0  0  0  0  # atno 7974 bound_to 7965
  155.6111  140.3495  155.4622 H   0  0  0  0  0  0  0  0  0  0  0  0  # atno 8008 bound_to 7997
  156.0154  140.1242  157.0436 H   0  0  0  0  0  0  0  0  0  0  0  0  # atno 8009 bound_to 7997
  154.4295  140.1073  156.5874 H   0  0  0  0  0  0  0  0  0  0  0  0  # atno 8010 bound_to 7997
  140.0593  143.4983  152.2040 H   0  0  0  0  0  0  0  0  0  0  0  0  # atno 10167 bound_to 10162
  156.1608  130.4150  149.9797 H   0  0  0  0  0  0  0  0  0  0  0  0  # atno 10718 bound_to 10713
  154.0483  135.2884  155.3344 H   0  0  0  0  0  0  0  0  0  0  0  0  # atno 10763 bound_to 10752
  154.6885  135.5235  153.8363 H   0  0  0  0  0  0  0  0  0  0  0  0  # atno 10764 bound_to 10752
  153.0571  135.6599  154.0681 H   0  0  0  0  0  0  0  0  0  0  0  0  # atno 10765 bound_to 10752
  139.9185  134.7818  156.1739 H   0  0  0  0  0  0  0  0  0  0  0  0  # atno 11005 bound_to 11000
  146.3527  140.0392  142.8644 LP  0  0  0  0  0  0  0  0  0  0  0  0  # atno 17320 bound_to 7965
  145.1342  140.9535  143.4526 LP  0  0  0  0  0  0  0  0  0  0  0  0  # atno 17321 bound_to 7965
  139.5903  144.7547  151.3416 LP  0  0  0  0  0  0  0  0  0  0  0  0  # atno 17342 bound_to 10162
  140.7179  143.7215  150.7692 LP  0  0  0  0  0  0  0  0  0  0  0  0  # atno 17343 bound_to 10162
  156.7627  130.9157  151.3642 LP  0  0  0  0  0  0  0  0  0  0  0  0  # atno 17370 bound_to 10713
  157.6730  130.9069  150.0085 LP  0  0  0  0  0  0  0  0  0  0  0  0  # atno 17371 bound_to 10713
  141.0684  133.6808  156.2090 LP  0  0  0  0  0  0  0  0  0  0  0  0  # atno 17394 bound_to 11000
  140.6548  134.5030  157.5580 LP  0  0  0  0  0  0  0  0  0  0  0  0  # atno 17395 bound_to 11000

$$$$
