AV-unprocessed.smi:109|AV-procd|sdf|1056|dock7
  -GOLD-   2262018123D 1   1.00000     0.00000
 Structure written by MMmdl.
 58 61  0  0  0  0  0  0  0  0  1 V2000
  151.8743  136.9744  154.8460 O   0  0  0  0  0  0  0  0  0  0  0  0
  151.7034  138.3704  154.7296 C   0  0  0  0  0  0  0  0  0  0  0  0
  151.7781  139.0232  156.1191 C   0  0  0  0  0  0  0  0  0  0  0  0
  151.1103  140.4155  156.1674 C   0  0  1  0  0  0  0  0  0  0  0  0
  149.6840  140.2717  156.4583 N   0  0  0  0  0  0  0  0  0  0  0  0
  148.7498  140.3797  155.4877 C   0  0  0  0  0  0  0  0  0  0  0  0
  148.5546  141.5470  154.8200 N   0  0  0  0  0  0  0  0  0  0  0  0
  147.6254  141.6230  153.8622 C   0  0  0  0  0  0  0  0  0  0  0  0
  146.7987  140.6710  153.4233 N   0  0  0  0  0  0  0  0  0  0  0  0
  146.9930  139.4969  154.0915 C   0  0  0  0  0  0  0  0  0  0  0  0
  147.9405  139.2719  155.1279 C   0  0  0  0  0  0  0  0  0  0  0  0
  147.8490  137.9593  155.5718 N   0  0  0  0  0  0  0  0  0  0  0  0
  146.9024  137.4427  154.8345 C   0  0  0  0  0  0  0  0  0  0  0  0
  146.3372  138.2985  153.9123 N   0  0  0  0  0  0  0  0  0  0  0  0
  145.2453  138.0380  152.9195 C   0  0  2  0  0  0  0  0  0  0  0  0
  144.3560  137.1304  153.5014 O   0  0  0  0  0  0  0  0  0  0  0  0
  144.3077  135.9146  152.7564 C   0  0  2  0  0  0  0  0  0  0  0  0
  144.0793  134.7095  153.6859 C   0  0  0  0  0  0  0  0  0  0  0  0
  142.7274  134.6488  154.0878 O   0  0  0  0  0  0  0  0  0  0  0  0
  145.5754  135.9010  151.8876 C   0  0  2  0  0  0  0  0  0  0  0  0
  146.6709  135.3002  152.5574 O   0  0  0  0  0  0  0  0  0  0  0  0
  145.7815  137.3879  151.6300 C   0  0  2  0  0  0  0  0  0  0  0  0
  147.1140  137.7215  151.2806 O   0  0  0  0  0  0  0  0  0  0  0  0
  151.7774  141.4034  157.1642 C   0  0  0  0  0  0  0  0  0  0  0  0
  151.9396  140.8089  158.5799 C   0  0  0  0  0  0  0  0  0  0  0  0
  152.6950  141.7724  159.5100 C   0  0  0  0  0  0  0  0  0  0  0  0
  152.0027  143.1428  159.5730 C   0  0  0  0  0  0  0  0  0  0  0  0
  151.8334  143.7437  158.1689 C   0  0  0  0  0  0  0  0  0  0  0  0
  151.0794  142.7808  157.2375 C   0  0  0  0  0  0  0  0  0  0  0  0
  144.7770  139.0101  152.7609 H   0  0  0  0  0  0  0  0  0  0  0  0
  143.4474  136.0111  152.0914 H   0  0  0  0  0  0  0  0  0  0  0  0
  145.4145  135.3538  150.9580 H   0  0  0  0  0  0  0  0  0  0  0  0
  145.1223  137.6978  150.8180 H   0  0  0  0  0  0  0  0  0  0  0  0
  151.0230  136.5646  154.8228 H   0  0  0  0  0  0  0  0  0  0  0  0
  152.4789  138.7691  154.0749 H   0  0  0  0  0  0  0  0  0  0  0  0
  150.7417  138.5678  154.2554 H   0  0  0  0  0  0  0  0  0  0  0  0
  151.3210  138.3610  156.8556 H   0  0  0  0  0  0  0  0  0  0  0  0
  152.8286  139.1056  156.3950 H   0  0  0  0  0  0  0  0  0  0  0  0
  151.2141  140.8395  155.1680 H   0  0  0  0  0  0  0  0  0  0  0  0
  149.4442  140.2095  157.4373 H   0  0  0  0  0  0  0  0  0  0  0  0
  147.5317  142.5834  153.3772 H   0  0  0  0  0  0  0  0  0  0  0  0
  146.5924  136.4147  154.9467 H   0  0  0  0  0  0  0  0  0  0  0  0
  144.3650  133.7717  153.2092 H   0  0  0  0  0  0  0  0  0  0  0  0
  144.6962  134.8094  154.5791 H   0  0  0  0  0  0  0  0  0  0  0  0
  142.5446  133.7736  154.3938 H   0  0  0  0  0  0  0  0  0  0  0  0
  147.4507  135.4431  152.0428 H   0  0  0  0  0  0  0  0  0  0  0  0
  147.6972  137.1155  151.7106 H   0  0  0  0  0  0  0  0  0  0  0  0
  152.7907  141.5837  156.8021 H   0  0  0  0  0  0  0  0  0  0  0  0
  150.9665  140.5892  159.0178 H   0  0  0  0  0  0  0  0  0  0  0  0
  152.4761  139.8610  158.5262 H   0  0  0  0  0  0  0  0  0  0  0  0
  152.7642  141.3447  160.5105 H   0  0  0  0  0  0  0  0  0  0  0  0
  153.7190  141.8957  159.1553 H   0  0  0  0  0  0  0  0  0  0  0  0
  151.0253  143.0368  160.0454 H   0  0  0  0  0  0  0  0  0  0  0  0
  152.5783  143.8224  160.2021 H   0  0  0  0  0  0  0  0  0  0  0  0
  151.2993  144.6921  158.2327 H   0  0  0  0  0  0  0  0  0  0  0  0
  152.8133  143.9687  157.7462 H   0  0  0  0  0  0  0  0  0  0  0  0
  151.0087  143.2225  156.2431 H   0  0  0  0  0  0  0  0  0  0  0  0
  150.0573  142.6670  157.5995 H   0  0  0  0  0  0  0  0  0  0  0  0
  1  2  1  0  0  0  0
  1 34  1  0  0  0  0
  2  3  1  0  0  0  0
  2 35  1  0  0  0  0
  2 36  1  0  0  0  0
  3  4  1  0  0  0  0
  3 37  1  0  0  0  0
  3 38  1  0  0  0  0
  4  5  1  0  0  0  0
  4 24  1  0  0  0  0
  4 39  1  0  0  0  0
  5  6  1  0  0  0  0
  5 40  1  0  0  0  0
  6 11  1  0  0  0  0
  6  7  2  0  0  0  0
  7  8  1  0  0  0  0
  8  9  2  0  0  0  0
  8 41  1  0  0  0  0
  9 10  1  0  0  0  0
 10 14  1  0  0  0  0
 10 11  2  0  0  0  0
 11 12  1  0  0  0  0
 12 13  2  0  0  0  0
 13 14  1  0  0  0  0
 13 42  1  0  0  0  0
 14 15  1  0  0  0  0
 15 30  1  0  0  0  0
 15 22  1  0  0  0  0
 15 16  1  0  0  0  0
 16 17  1  0  0  0  0
 17 31  1  0  0  0  0
 17 18  1  0  0  0  0
 17 20  1  0  0  0  0
 18 19  1  0  0  0  0
 18 43  1  0  0  0  0
 18 44  1  0  0  0  0
 19 45  1  0  0  0  0
 20 32  1  0  0  0  0
 20 21  1  0  0  0  0
 20 22  1  0  0  0  0
 21 46  1  0  0  0  0
 22 33  1  0  0  0  0
 22 23  1  0  0  0  0
 23 47  1  0  0  0  0
 24 29  1  0  0  0  0
 24 25  1  0  0  0  0
 24 48  1  0  0  0  0
 25 26  1  0  0  0  0
 25 49  1  0  0  0  0
 25 50  1  0  0  0  0
 26 27  1  0  0  0  0
 26 51  1  0  0  0  0
 26 52  1  0  0  0  0
 27 28  1  0  0  0  0
 27 53  1  0  0  0  0
 27 54  1  0  0  0  0
 28 29  1  0  0  0  0
 28 55  1  0  0  0  0
 28 56  1  0  0  0  0
 29 57  1  0  0  0  0
 29 58  1  0  0  0  0
M  END
> <s_m_source_file>
AV-unprocessed.smi

> <i_m_source_file_index>
109

> <i_lp_mmshare_version>
43012

> <i_f3d_flags>
0

> <s_epik_input>
W0NIMl0xW0NIMl1bQ0gyXVtDSDJdW0NIMl1bQ0hdMVtDQEhdKFtDSDJdW0NIMl1bT0hdKVtOSF1jKG5bY0hdbjIpYyhjMjMpbltjSF1uM1tDQEBIXTRPW0NASF0oW0NIMl1bT0hdKVtDQEBIXShbT0hdKVtDQEhdNFtPSF0=

> <s_epik_cmdline>
J2VwaWtfcHl0aG9uJywgJy1waCcsICc3LjAnLCAnLXRuJywgJzgnLCAnLW1hJywgJzIwMCcsICctbWV0YWxfYmluZGluZycsICctaW1hZScsICc8aW5maWxlLm1hZT4nLCAnLW9tYWUnLCAnPG91dGZpbGUubWFlPic=

> <r_lp_tautomer_probability>
1

> <r_epik_Ionization_Penalty>
0.000793976

> <r_epik_Ionization_Penalty_Charging>
0

> <r_epik_Ionization_Penalty_Neutral>
0.000793976

> <r_epik_State_Penalty>
-0

> <r_epik_Charging_Adjusted_Penalty>
0

> <i_epik_Tot_Q>
0

> <i_epik_Tot_abs_Q>
0

> <r_epik_Metal_State_Penalty>
-0

> <b_epik_Metal_Only>
0

> <s_epik_Chemistry_Notes>
This compound contains an acetal/aminal-like group ( X-CH(R)-Y where X, Y are N, S, or O) that may be acid/base labile, releasing an aldehyde.

> <s_lp_Force_Field>
OPLS_2005

> <r_lp_Energy>
58.3807

> <b_lp_Chiralities_Consistent>
1

> <s_lp_Variant>
AV-unprocessed.smi:109-26

> <Gold.Version>
5.8.1

> <Gold.Id.Protein>
6NUR|6NUR_protein|mol2

> <Gold.PLP.Fitness>
50.6333

> <Gold.PLP.PLP>
-40.6405

> <Gold.PLP.part.hbond>
-4.6023

> <Gold.PLP.part.metal>
0.0000

> <Gold.PLP.part.buried>
-5.2999

> <Gold.PLP.part.nonpolar>
-33.7203

> <Gold.PLP.part.repulsive>
0.5130

> <Gold.PLP.ligand.clash>
0.0000

> <Gold.PLP.ligand.torsion>
2.1577

> <Gold.PLP.Chemscore.Hbond>
4.5175

> <Gold.PLP.Chemscore.CHOScore>
0.0000

> <Gold.PLP.Chemscore.Metal>
0.0000

> <Gold.Chemscore.Hbonds>
donor molecule, donor type, donor heavy atom, donor atom, acceptor molecule, acceptor atom, score
      L1  H    19    45       P1 10957  0.98
      L1  H    21    46       P1  7948  1.00
      L1  H    23    47       P1  7948  0.96
      P1  H  7954  7966       L1    23  0.60
      P1  H 10752 10765       L1     1  1.00

> <Gold.PLP.Chemscore.Internal.Correction>
0.7558

> <Gold.Rescore>
     Score         DG    S(hbond)    S(metal)    S(lipo)     H(rot)  DE(clash)    DE(int)     intcor
     12.77     -15.05       3.81        0.00      92.64       5.47       0.21       2.08       ----

> <Gold.Chemscore.Fitness>
12.7703

> <Gold.Chemscore.DG>
-15.0522

> <Gold.Chemscore.ZeroCoef>
-5.4800

> <Gold.Chemscore.Hbond>
3.8105

> <Gold.Chemscore.Metal>
0.0000

> <Gold.Chemscore.Lipo>
92.6379

> <Gold.Chemscore.Internal_Hbond>
0.0000

> <Gold.Chemscore.DEClash>
0.2052

> <Gold.Chemscore.DEInternal>
2.0767

> <Gold.Chemscore.Rot>
5.4662

> <Gold.Chemscore.Internal.Correction>
   9.000000E+99

> <Gold.Chemscore.Hbonds>
donor molecule, donor type, donor heavy atom, donor atom, acceptor molecule, acceptor atom, score
      L1  H    19    45       P1 10957  0.91
      L1  H    21    46       P1  7948  0.95
      L1  H    23    47       P1  7948  0.89
      P1  H  7954  7966       L1    23  0.04
      P1  H 10752 10765       L1     1  0.33

> <Gold.Chemscore.Hbond.Weighted>
-12.7271

> <Gold.Chemscore.Metal.Weighted>
-0.0000

> <Gold.Chemscore.Lipo.Weighted>
-10.8386

> <Gold.Chemscore.Internal_Hbond.Weighted>
0.0000

> <Gold.Chemscore.DEClash.Weighted>
0.2052

> <Gold.Chemscore.DEInternal.Weighted>
2.0767

> <Gold.Chemscore.Rot.Weighted>
13.9935

> <Gold.Chemscore.Internal.Correction.Weighted>
   9.000000E+99

> <Gold.Protein.RotatedTorsions>
[ 6907 6896 6895 6894 ] final  -69.80 input  -60.11 | X-H torsion
[ 7974 7965 7964 7962 ] final   86.80 input  175.53 | X-H torsion
[ 8008 7997 7996 7995 ] final  139.34 input   59.86 | X-H torsion
[ 10167 10162 10161 10158 ] final   73.25 input  -65.29 | X-H torsion
[ 10718 10713 10712 10709 ] final  161.57 input   66.30 | X-H torsion
[ 10763 10752 10751 10750 ] final  167.86 input  -60.55 | X-H torsion
[ 11005 11000 10999 10996 ] final -120.49 input  -57.11 | X-H torsion

> <Gold.Protein.ActiveResidues>
 VAL166  LYS551  ARG553  GLY616  TRP617  ASP618  TYR619  PRO620  LYS621  CYS622 
 ASP623  PHE694  ASN695  SER759  ASP760  ASP761  ALA762  ILE779  LEU786  VAL792 
 PHE793  MET794  SER795  GLU796  ALA797  LYS798  CYS799  TRP800  GLU811  SER814 

> <Gold.Protein.RotatedAtoms>
  150.7288  134.5544  159.5810 H   0  0  0  0  0  0  0  0  0  0  0  0  # atno 6907 bound_to 6896
  152.3023  134.7593  160.0364 H   0  0  0  0  0  0  0  0  0  0  0  0  # atno 6908 bound_to 6896
  151.8169  133.3354  159.3609 H   0  0  0  0  0  0  0  0  0  0  0  0  # atno 6909 bound_to 6896
  145.5675  139.2310  143.2425 H   0  0  0  0  0  0  0  0  0  0  0  0  # atno 7974 bound_to 7965
  156.2990  140.2370  156.4222 H   0  0  0  0  0  0  0  0  0  0  0  0  # atno 8008 bound_to 7997
  154.8345  140.0431  157.1520 H   0  0  0  0  0  0  0  0  0  0  0  0  # atno 8009 bound_to 7997
  154.9171  140.2998  155.5239 H   0  0  0  0  0  0  0  0  0  0  0  0  # atno 8010 bound_to 7997
  140.0265  144.5499  150.7540 H   0  0  0  0  0  0  0  0  0  0  0  0  # atno 10167 bound_to 10162
  157.1346  131.0525  151.2355 H   0  0  0  0  0  0  0  0  0  0  0  0  # atno 10718 bound_to 10713
  154.3601  135.2753  155.2324 H   0  0  0  0  0  0  0  0  0  0  0  0  # atno 10763 bound_to 10752
  154.4516  135.5929  153.6199 H   0  0  0  0  0  0  0  0  0  0  0  0  # atno 10764 bound_to 10752
  152.9844  135.6043  154.3821 H   0  0  0  0  0  0  0  0  0  0  0  0  # atno 10765 bound_to 10752
  141.0140  134.0223  157.3375 H   0  0  0  0  0  0  0  0  0  0  0  0  # atno 11005 bound_to 11000
  146.1808  140.6501  142.9190 LP  0  0  0  0  0  0  0  0  0  0  0  0  # atno 17320 bound_to 7965
  144.7453  140.5052  143.6840 LP  0  0  0  0  0  0  0  0  0  0  0  0  # atno 17321 bound_to 7965
  140.7320  143.2701  151.3916 LP  0  0  0  0  0  0  0  0  0  0  0  0  # atno 17342 bound_to 10162
  139.6105  144.1109  152.2293 LP  0  0  0  0  0  0  0  0  0  0  0  0  # atno 17343 bound_to 10162
  157.4361  130.7518  149.7030 LP  0  0  0  0  0  0  0  0  0  0  0  0  # atno 17370 bound_to 10713
  155.9801  130.4033  150.3550 LP  0  0  0  0  0  0  0  0  0  0  0  0  # atno 17371 bound_to 10713
  139.9106  135.0189  156.7675 LP  0  0  0  0  0  0  0  0  0  0  0  0  # atno 17394 bound_to 11000
  140.6686  133.9580  155.7844 LP  0  0  0  0  0  0  0  0  0  0  0  0  # atno 17395 bound_to 11000

$$$$
