AV-unprocessed.smi:155|AV-procd|sdf|1279|dock7
  -GOLD-   2262018553D 1   1.00000     0.00000
 Structure written by MMmdl.
 64 67  0  0  0  0  0  0  0  0  3 V2000
  146.5257  138.7653  151.4903 C   0  0  0  0  0  0  0  0  0  0  0  0
  146.9052  138.0370  152.7214 N   0  3  0  0  0  0  0  0  0  0  0  0
  145.8072  137.1635  153.1959 C   0  0  0  0  0  0  0  0  0  0  0  0
  147.4239  138.9497  153.7718 C   0  0  0  0  0  0  0  0  0  0  0  0
  148.7921  139.5631  153.4059 C   0  0  0  0  0  0  0  0  0  0  0  0
  149.7094  139.6611  154.5729 N   0  3  2  0  0  0  0  0  0  0  0  0
  149.8176  141.0446  155.1095 C   0  0  0  0  0  0  0  0  0  0  0  0
  149.7845  141.0351  156.6479 C   0  0  0  0  0  0  0  0  0  0  0  0
  151.0751  140.5049  157.2944 C   0  0  0  0  0  0  0  0  0  0  0  0
  151.4356  139.1703  156.8203 N   0  0  0  0  0  0  0  0  0  0  0  0
  150.8671  138.0397  157.3410 C   0  0  0  0  0  0  0  0  0  0  0  0
  150.3612  138.1106  158.6026 N   0  0  0  0  0  0  0  0  0  0  0  0
  149.7927  137.0512  159.1819 C   0  0  0  0  0  0  0  0  0  0  0  0
  149.6260  135.8257  158.6894 N   0  0  0  0  0  0  0  0  0  0  0  0
  150.1250  135.7322  157.4251 C   0  0  0  0  0  0  0  0  0  0  0  0
  150.7567  136.7737  156.6808 C   0  0  0  0  0  0  0  0  0  0  0  0
  151.1339  136.2739  155.4370 N   0  0  0  0  0  0  0  0  0  0  0  0
  150.7407  135.0308  155.4414 C   0  0  0  0  0  0  0  0  0  0  0  0
  150.1230  134.6228  156.5983 N   0  0  0  0  0  0  0  0  0  0  0  0
  149.5802  133.3038  156.8728 C   0  0  0  0  0  0  0  0  0  0  0  0
  150.6846  132.2486  157.0805 C   0  0  2  0  0  0  0  0  0  0  0  0
  151.7887  132.8036  157.7712 O   0  0  0  0  0  0  0  0  0  0  0  0
  151.1512  131.5967  155.7632 C   0  0  2  0  0  0  0  0  0  0  0  0
  150.0484  130.9476  154.9083 C   0  0  0  0  0  0  0  0  0  0  0  0
  150.4962  129.5026  154.7792 C   0  0  0  0  0  0  0  0  0  0  0  0
  152.0005  129.5986  154.9963 C   0  0  0  0  0  0  0  0  0  0  0  0
  152.1133  130.5765  156.0167 O   0  0  0  0  0  0  0  0  0  0  0  0
  152.0444  139.1243  155.4876 C   0  0  0  0  0  0  0  0  0  0  0  0
  151.0270  139.0067  154.3293 C   0  0  0  0  0  0  0  0  0  0  0  0
  145.7065  139.4597  151.6829 H   0  0  0  0  0  0  0  0  0  0  0  0
  146.2083  138.0701  150.7121 H   0  0  0  0  0  0  0  0  0  0  0  0
  147.3704  139.3327  151.0980 H   0  0  0  0  0  0  0  0  0  0  0  0
  144.9521  137.7542  153.5278 H   0  0  0  0  0  0  0  0  0  0  0  0
  146.1302  136.5320  154.0233 H   0  0  0  0  0  0  0  0  0  0  0  0
  145.4714  136.5011  152.3970 H   0  0  0  0  0  0  0  0  0  0  0  0
  146.7092  139.7645  153.8997 H   0  0  0  0  0  0  0  0  0  0  0  0
  147.4671  138.4197  154.7240 H   0  0  0  0  0  0  0  0  0  0  0  0
  149.2774  139.0043  152.6049 H   0  0  0  0  0  0  0  0  0  0  0  0
  148.6084  140.5678  153.0221 H   0  0  0  0  0  0  0  0  0  0  0  0
  150.7084  141.5466  154.7286 H   0  0  0  0  0  0  0  0  0  0  0  0
  148.9741  141.6483  154.7732 H   0  0  0  0  0  0  0  0  0  0  0  0
  149.6209  142.0528  157.0032 H   0  0  0  0  0  0  0  0  0  0  0  0
  148.9241  140.4596  156.9909 H   0  0  0  0  0  0  0  0  0  0  0  0
  151.8915  141.1857  157.0506 H   0  0  0  0  0  0  0  0  0  0  0  0
  151.0185  140.5361  158.3807 H   0  0  0  0  0  0  0  0  0  0  0  0
  149.4161  137.2086  160.1819 H   0  0  0  0  0  0  0  0  0  0  0  0
  150.8874  134.3747  154.5953 H   0  0  0  0  0  0  0  0  0  0  0  0
  148.9514  133.3703  157.7613 H   0  0  0  0  0  0  0  0  0  0  0  0
  148.9240  133.0191  156.0494 H   0  0  0  0  0  0  0  0  0  0  0  0
  150.2879  131.4587  157.7198 H   0  0  0  0  0  0  0  0  0  0  0  0
  152.5824  132.4949  157.3606 H   0  0  0  0  0  0  0  0  0  0  0  0
  151.6485  132.3560  155.1575 H   0  0  0  0  0  0  0  0  0  0  0  0
  149.0515  131.0256  155.3432 H   0  0  0  0  0  0  0  0  0  0  0  0
  150.0139  131.4214  153.9267 H   0  0  0  0  0  0  0  0  0  0  0  0
  150.0475  128.9026  155.5720 H   0  0  0  0  0  0  0  0  0  0  0  0
  150.2306  129.0554  153.8210 H   0  0  0  0  0  0  0  0  0  0  0  0
  152.4466  128.6502  155.2959 H   0  0  0  0  0  0  0  0  0  0  0  0
  152.5038  129.9494  154.0940 H   0  0  0  0  0  0  0  0  0  0  0  0
  152.6174  140.0415  155.3483 H   0  0  0  0  0  0  0  0  0  0  0  0
  152.7861  138.3269  155.4268 H   0  0  0  0  0  0  0  0  0  0  0  0
  150.8515  137.9460  154.1535 H   0  0  0  0  0  0  0  0  0  0  0  0
  151.4757  139.3976  153.4150 H   0  0  0  0  0  0  0  0  0  0  0  0
  147.6685  137.4290  152.4597 H   0  0  0  0  0  0  0  0  0  0  0  0
  149.2651  139.1334  155.3109 H   0  0  0  0  0  0  0  0  0  0  0  0
  1  2  1  0  0  0  0
  1 30  1  0  0  0  0
  1 31  1  0  0  0  0
  1 32  1  0  0  0  0
  2  3  1  0  0  0  0
  2  4  1  0  0  0  0
  2 63  1  0  0  0  0
  3 33  1  0  0  0  0
  3 34  1  0  0  0  0
  3 35  1  0  0  0  0
  4  5  1  0  0  0  0
  4 36  1  0  0  0  0
  4 37  1  0  0  0  0
  5  6  1  0  0  0  0
  5 38  1  0  0  0  0
  5 39  1  0  0  0  0
  6 29  1  0  0  0  0
  6  7  1  0  0  0  0
  6 64  1  0  0  0  0
  7  8  1  0  0  0  0
  7 40  1  0  0  0  0
  7 41  1  0  0  0  0
  8  9  1  0  0  0  0
  8 42  1  0  0  0  0
  8 43  1  0  0  0  0
  9 10  1  0  0  0  0
  9 44  1  0  0  0  0
  9 45  1  0  0  0  0
 10 11  1  0  0  0  0
 10 28  1  0  0  0  0
 11 16  1  0  0  0  0
 11 12  2  0  0  0  0
 12 13  1  0  0  0  0
 13 14  2  0  0  0  0
 13 46  1  0  0  0  0
 14 15  1  0  0  0  0
 15 19  1  0  0  0  0
 15 16  2  0  0  0  0
 16 17  1  0  0  0  0
 17 18  2  0  0  0  0
 18 19  1  0  0  0  0
 18 47  1  0  0  0  0
 19 20  1  0  0  0  0
 20 21  1  0  0  0  0
 20 48  1  0  0  0  0
 20 49  1  0  0  0  0
 21 22  1  0  0  0  0
 21 23  1  0  0  0  0
 21 50  1  0  0  0  0
 22 51  1  0  0  0  0
 23 27  1  0  0  0  0
 23 24  1  0  0  0  0
 23 52  1  0  0  0  0
 24 25  1  0  0  0  0
 24 53  1  0  0  0  0
 24 54  1  0  0  0  0
 25 26  1  0  0  0  0
 25 55  1  0  0  0  0
 25 56  1  0  0  0  0
 26 27  1  0  0  0  0
 26 57  1  0  0  0  0
 26 58  1  0  0  0  0
 28 29  1  0  0  0  0
 28 59  1  0  0  0  0
 28 60  1  0  0  0  0
 29 61  1  0  0  0  0
 29 62  1  0  0  0  0
M  CHG  1   2   1
M  CHG  1   6   1
M  END
> <s_m_source_file>
AV-unprocessed.smi

> <i_m_source_file_index>
155

> <i_lp_mmshare_version>
43012

> <i_f3d_flags>
0

> <s_epik_input>
W0NIM11OKFtDSDNdKVtDSDJdW0NIMl1OMVtDSDJdW0NIMl1bQ0gyXU4oW0NIMl1bQ0gyXTEpYyhuW2NIXW4yKWMoYzIzKW5bY0hdbjNbQ0gyXVtDQEhdKFtPSF0pW0NAQEhdNFtDSDJdW0NIMl1bQ0gyXU80

> <s_epik_cmdline>
J2VwaWtfcHl0aG9uJywgJy1waCcsICc3LjAnLCAnLXRuJywgJzgnLCAnLW1hJywgJzIwMCcsICctbWV0YWxfYmluZGluZycsICctaW1hZScsICc8aW5maWxlLm1hZT4nLCAnLW9tYWUnLCAnPG91dGZpbGUubWFlPic=

> <r_lp_tautomer_probability>
1

> <r_epik_Ionization_Penalty>
3.0333

> <r_epik_Ionization_Penalty_Charging>
3.03317

> <r_epik_Ionization_Penalty_Neutral>
0.000131872

> <r_epik_State_Penalty>
1.99939

> <r_epik_Charging_Adjusted_Penalty>
5.03256

> <i_epik_Tot_Q>
2

> <i_epik_Tot_abs_Q>
2

> <r_epik_Metal_State_Penalty>
2.00021

> <b_epik_Metal_Only>
0

> <s_lp_Force_Field>
OPLS_2005

> <r_lp_Energy>
62.7096

> <b_lp_Chiralities_Consistent>
1

> <s_lp_Variant>
AV-unprocessed.smi:155-13

> <Gold.Version>
5.8.1

> <Gold.Id.Protein>
6NUR|6NUR_protein|mol2

> <Gold.PLP.Fitness>
49.5389

> <Gold.PLP.PLP>
-39.2667

> <Gold.PLP.part.hbond>
-3.8152

> <Gold.PLP.part.metal>
0.0000

> <Gold.PLP.part.buried>
1.4574

> <Gold.PLP.part.nonpolar>
-36.9963

> <Gold.PLP.part.repulsive>
0.2744

> <Gold.PLP.ligand.clash>
0.0000

> <Gold.PLP.ligand.torsion>
1.5645

> <Gold.PLP.Chemscore.Hbond>
4.3365

> <Gold.PLP.Chemscore.CHOScore>
0.0000

> <Gold.PLP.Chemscore.Metal>
0.0000

> <Gold.Chemscore.Hbonds>
donor molecule, donor type, donor heavy atom, donor atom, acceptor molecule, acceptor atom, score
      L1  H     2    63       P1  7948  2.00
      P1  H  6896  6907       L1    14  1.00
      P1  H  6896  6909       L1    22  0.98
      P1  H 10752 10765       L1    17  0.28

> <Gold.PLP.Chemscore.Internal.Correction>
0.3916

> <Gold.Rescore>
     Score         DG    S(hbond)    S(metal)    S(lipo)     H(rot)  DE(clash)    DE(int)     intcor
     11.19     -16.97       2.15        0.00      97.09       2.75       1.96       3.82       ----

> <Gold.Chemscore.Fitness>
11.1924

> <Gold.Chemscore.DG>
-16.9742

> <Gold.Chemscore.ZeroCoef>
-5.4800

> <Gold.Chemscore.Hbond>
2.1476

> <Gold.Chemscore.Metal>
0.0000

> <Gold.Chemscore.Lipo>
97.0902

> <Gold.Chemscore.Internal_Hbond>
0.0000

> <Gold.Chemscore.DEClash>
1.9569

> <Gold.Chemscore.DEInternal>
3.8250

> <Gold.Chemscore.Rot>
2.7493

> <Gold.Chemscore.Internal.Correction>
   9.000000E+99

> <Gold.Chemscore.Hbonds>
donor molecule, donor type, donor heavy atom, donor atom, acceptor molecule, acceptor atom, score
      L1  H     2    63       P1  7948  1.00
      P1  H  6896  6907       L1    14  0.21
      P1  H  6896  6909       L1    22  0.90
      P1  H 10752 10765       L1    17  0.01

> <Gold.Chemscore.Hbond.Weighted>
-7.1729

> <Gold.Chemscore.Metal.Weighted>
-0.0000

> <Gold.Chemscore.Lipo.Weighted>
-11.3596

> <Gold.Chemscore.Internal_Hbond.Weighted>
0.0000

> <Gold.Chemscore.DEClash.Weighted>
1.9569

> <Gold.Chemscore.DEInternal.Weighted>
3.8250

> <Gold.Chemscore.Rot.Weighted>
7.0383

> <Gold.Chemscore.Internal.Correction.Weighted>
   9.000000E+99

> <Gold.Protein.RotatedTorsions>
[ 6907 6896 6895 6894 ] final  -60.77 input  -60.11 | X-H torsion
[ 7974 7965 7964 7962 ] final   60.89 input  175.53 | X-H torsion
[ 8008 7997 7996 7995 ] final -164.68 input   59.86 | X-H torsion
[ 10167 10162 10161 10158 ] final  100.95 input  -65.29 | X-H torsion
[ 10718 10713 10712 10709 ] final   -5.99 input   66.30 | X-H torsion
[ 10763 10752 10751 10750 ] final  178.61 input  -60.55 | X-H torsion
[ 11005 11000 10999 10996 ] final  -35.46 input  -57.11 | X-H torsion

> <Gold.Protein.ActiveResidues>
 VAL166  LYS551  ARG553  GLY616  TRP617  ASP618  TYR619  PRO620  LYS621  CYS622 
 ASP623  PHE694  ASN695  SER759  ASP760  ASP761  ALA762  ILE779  LEU786  VAL792 
 PHE793  MET794  SER795  GLU796  ALA797  LYS798  CYS799  TRP800  GLU811  SER814 

> <Gold.Protein.RotatedAtoms>
  150.7832  134.6793  159.6434 H   0  0  0  0  0  0  0  0  0  0  0  0  # atno 6907 bound_to 6896
  152.3922  134.6420  160.0112 H   0  0  0  0  0  0  0  0  0  0  0  0  # atno 6908 bound_to 6896
  151.6717  133.3277  159.3234 H   0  0  0  0  0  0  0  0  0  0  0  0  # atno 6909 bound_to 6896
  145.8909  139.3510  143.0650 H   0  0  0  0  0  0  0  0  0  0  0  0  # atno 7974 bound_to 7965
  155.8391  140.0945  157.1746 H   0  0  0  0  0  0  0  0  0  0  0  0  # atno 8008 bound_to 7997
  154.3981  140.1404  156.3767 H   0  0  0  0  0  0  0  0  0  0  0  0  # atno 8009 bound_to 7997
  155.8084  140.3450  155.5446 H   0  0  0  0  0  0  0  0  0  0  0  0  # atno 8010 bound_to 7997
  139.7481  144.6992  151.0473 H   0  0  0  0  0  0  0  0  0  0  0  0  # atno 10167 bound_to 10162
  156.7385  130.5202  149.5829 H   0  0  0  0  0  0  0  0  0  0  0  0  # atno 10718 bound_to 10713
  154.5099  135.2788  155.1351 H   0  0  0  0  0  0  0  0  0  0  0  0  # atno 10763 bound_to 10752
  154.2951  135.6259  153.5405 H   0  0  0  0  0  0  0  0  0  0  0  0  # atno 10764 bound_to 10752
  152.9917  135.5683  154.5562 H   0  0  0  0  0  0  0  0  0  0  0  0  # atno 10765 bound_to 10752
  140.9798  133.7063  156.1664 H   0  0  0  0  0  0  0  0  0  0  0  0  # atno 11005 bound_to 11000
  145.8909  140.9304  143.0552 LP  0  0  0  0  0  0  0  0  0  0  0  0  # atno 17320 bound_to 7965
  144.6730  140.0905  143.7465 LP  0  0  0  0  0  0  0  0  0  0  0  0  # atno 17321 bound_to 7965
  140.7794  143.4842  150.9978 LP  0  0  0  0  0  0  0  0  0  0  0  0  # atno 17342 bound_to 10162
  139.8530  143.7414  152.3177 LP  0  0  0  0  0  0  0  0  0  0  0  0  # atno 17343 bound_to 10162
  156.1481  130.6291  151.0558 LP  0  0  0  0  0  0  0  0  0  0  0  0  # atno 17370 bound_to 10713
  157.6829  131.0833  150.7322 LP  0  0  0  0  0  0  0  0  0  0  0  0  # atno 17371 bound_to 10713
  140.7204  134.4365  157.5575 LP  0  0  0  0  0  0  0  0  0  0  0  0  # atno 17394 bound_to 11000
  139.8945  134.8704  156.2172 LP  0  0  0  0  0  0  0  0  0  0  0  0  # atno 17395 bound_to 11000

$$$$
