AV-unprocessed.smi:1678|AV-procd|sdf|6728|dock7
  -GOLD-   22720 7473D 1   1.00000     0.00000
 Structure written by MMmdl.
 43 44  0  0  0  0  0  0  0  0  1 V2000
  147.5393  132.9336  152.4686 C   0  0  0  0  0  0  0  0  0  0  0  0
  146.3262  133.0489  151.5597 C   0  0  0  0  0  0  0  0  0  0  0  0
  145.7153  131.8740  151.0720 C   0  0  0  0  0  0  0  0  0  0  0  0
  144.5944  131.9818  150.2313 C   0  0  0  0  0  0  0  0  0  0  0  0
  144.1289  133.2687  149.9113 C   0  0  0  0  0  0  0  0  0  0  0  0
  144.7066  134.3964  150.3725 N   0  0  0  0  0  0  0  0  0  0  0  0
  145.7896  134.3104  151.1856 C   0  0  0  0  0  0  0  0  0  0  0  0
  146.4495  135.4580  151.7097 N   0  0  0  0  0  0  0  0  0  0  0  0
  145.9075  136.5398  152.2968 C   0  0  0  0  0  0  0  0  0  0  0  0
  144.7039  136.7249  152.4801 O   0  0  0  0  0  0  0  0  0  0  0  0
  146.8533  137.4142  152.6696 N   0  0  0  0  0  0  0  0  0  0  0  0
  146.5966  138.6858  153.3349 C   0  0  0  0  0  0  0  0  0  0  0  0
  147.8056  139.6344  153.2281 C   0  0  0  0  0  0  0  0  0  0  0  0
  148.6523  139.5520  154.4251 N   0  0  0  0  0  0  0  0  0  0  0  0
  148.7458  138.2320  155.0707 C   0  0  0  0  0  0  0  0  0  0  0  0
  150.1313  137.5607  154.9192 C   0  0  0  0  0  0  0  0  0  0  0  0
  151.3416  138.5078  154.8012 C   0  0  0  0  0  0  0  0  0  0  0  0
  151.4490  139.5714  155.9138 C   0  0  0  0  0  0  0  0  0  0  0  0
  150.2026  140.4593  156.1415 C   0  0  0  0  0  0  0  0  0  0  0  0
  149.3155  140.6361  154.8985 C   0  0  0  0  0  0  0  0  0  0  0  0
  149.2434  141.7487  154.3767 O   0  0  0  0  0  0  0  0  0  0  0  0
  147.7931  131.8908  152.6621 H   0  0  0  0  0  0  0  0  0  0  0  0
  147.3458  133.4147  153.4276 H   0  0  0  0  0  0  0  0  0  0  0  0
  148.4059  133.4101  152.0093 H   0  0  0  0  0  0  0  0  0  0  0  0
  146.0989  130.8997  151.3371 H   0  0  0  0  0  0  0  0  0  0  0  0
  144.1044  131.1017  149.8419 H   0  0  0  0  0  0  0  0  0  0  0  0
  143.2708  133.3975  149.2683 H   0  0  0  0  0  0  0  0  0  0  0  0
  147.4552  135.4506  151.6296 H   0  0  0  0  0  0  0  0  0  0  0  0
  147.8179  137.1852  152.4801 H   0  0  0  0  0  0  0  0  0  0  0  0
  145.7255  139.1430  152.8647 H   0  0  0  0  0  0  0  0  0  0  0  0
  146.3279  138.5106  154.3780 H   0  0  0  0  0  0  0  0  0  0  0  0
  148.3962  139.3949  152.3419 H   0  0  0  0  0  0  0  0  0  0  0  0
  147.4585  140.6556  153.0679 H   0  0  0  0  0  0  0  0  0  0  0  0
  148.4993  138.3333  156.1278 H   0  0  0  0  0  0  0  0  0  0  0  0
  147.9868  137.5492  154.6883 H   0  0  0  0  0  0  0  0  0  0  0  0
  150.2830  136.8752  155.7535 H   0  0  0  0  0  0  0  0  0  0  0  0
  150.1152  136.9350  154.0260 H   0  0  0  0  0  0  0  0  0  0  0  0
  152.2544  137.9115  154.7955 H   0  0  0  0  0  0  0  0  0  0  0  0
  151.3215  139.0001  153.8277 H   0  0  0  0  0  0  0  0  0  0  0  0
  151.6978  139.0767  156.8532 H   0  0  0  0  0  0  0  0  0  0  0  0
  152.3004  140.2146  155.6889 H   0  0  0  0  0  0  0  0  0  0  0  0
  149.5978  140.0560  156.9535 H   0  0  0  0  0  0  0  0  0  0  0  0
  150.5223  141.4406  156.4945 H   0  0  0  0  0  0  0  0  0  0  0  0
  1  2  1  0  0  0  0
  1 22  1  0  0  0  0
  1 23  1  0  0  0  0
  1 24  1  0  0  0  0
  2  7  1  0  0  0  0
  2  3  2  0  0  0  0
  3  4  1  0  0  0  0
  3 25  1  0  0  0  0
  4  5  2  0  0  0  0
  4 26  1  0  0  0  0
  5  6  1  0  0  0  0
  5 27  1  0  0  0  0
  6  7  2  0  0  0  0
  7  8  1  0  0  0  0
  8  9  1  0  0  0  0
  8 28  1  0  0  0  0
  9 10  2  0  0  0  0
  9 11  1  0  0  0  0
 11 12  1  0  0  0  0
 11 29  1  0  0  0  0
 12 13  1  0  0  0  0
 12 30  1  0  0  0  0
 12 31  1  0  0  0  0
 13 14  1  0  0  0  0
 13 32  1  0  0  0  0
 13 33  1  0  0  0  0
 14 20  1  0  0  0  0
 14 15  1  0  0  0  0
 15 16  1  0  0  0  0
 15 34  1  0  0  0  0
 15 35  1  0  0  0  0
 16 17  1  0  0  0  0
 16 36  1  0  0  0  0
 16 37  1  0  0  0  0
 17 18  1  0  0  0  0
 17 38  1  0  0  0  0
 17 39  1  0  0  0  0
 18 19  1  0  0  0  0
 18 40  1  0  0  0  0
 18 41  1  0  0  0  0
 19 20  1  0  0  0  0
 19 42  1  0  0  0  0
 19 43  1  0  0  0  0
 20 21  2  0  0  0  0
M  END
> <s_m_source_file>
AV-unprocessed.smi

> <i_m_source_file_index>
1678

> <i_lp_mmshare_version>
43012

> <i_f3d_flags>
0

> <s_epik_input>
W0NIM11jMVtjSF1bY0hdW2NIXW5jMVtOSF1DKD1PKVtOSF1bQ0gyXVtDSDJdTjJbQ0gyXVtDSDJdW0NIMl1bQ0gyXVtDSDJdQzI9Tw==

> <s_epik_cmdline>
J2VwaWtfcHl0aG9uJywgJy1waCcsICc3LjAnLCAnLXRuJywgJzgnLCAnLW1hJywgJzIwMCcsICctbWV0YWxfYmluZGluZycsICctaW1hZScsICc8aW5maWxlLm1hZT4nLCAnLW9tYWUnLCAnPG91dGZpbGUubWFlPic=

> <r_lp_tautomer_probability>
1

> <r_epik_Ionization_Penalty>
5.3034e-05

> <r_epik_Ionization_Penalty_Charging>
0

> <r_epik_Ionization_Penalty_Neutral>
5.3034e-05

> <r_epik_State_Penalty>
-0

> <r_epik_Charging_Adjusted_Penalty>
0

> <i_epik_Tot_Q>
0

> <i_epik_Tot_abs_Q>
0

> <r_epik_Metal_State_Penalty>
-0

> <b_epik_Metal_Only>
0

> <s_lp_Force_Field>
OPLS_2005

> <r_lp_Energy>
24.0679

> <b_lp_Chiralities_Consistent>
1

> <s_lp_Variant>
AV-unprocessed.smi:1678-1

> <Gold.Version>
5.8.1

> <Gold.Id.Protein>
6NUR|6NUR_protein|mol2

> <Gold.PLP.Fitness>
46.8032

> <Gold.PLP.PLP>
-38.6153

> <Gold.PLP.part.hbond>
-3.7629

> <Gold.PLP.part.metal>
0.0000

> <Gold.PLP.part.buried>
-0.7765

> <Gold.PLP.part.nonpolar>
-34.4213

> <Gold.PLP.part.repulsive>
0.6802

> <Gold.PLP.ligand.clash>
0.0000

> <Gold.PLP.ligand.torsion>
1.1364

> <Gold.PLP.Chemscore.Hbond>
2.4800

> <Gold.PLP.Chemscore.CHOScore>
1.0000

> <Gold.PLP.Chemscore.Metal>
0.0000

> <Gold.Chemscore.Hbonds>
donor molecule, donor type, donor heavy atom, donor atom, acceptor molecule, acceptor atom, score
      L1  H     8    28       P1  7948  1.00
      L1  H    11    29       P1  7948  1.00
      P1  H  8011  8017       L1    21  0.26
      L1  C     5    27       P1 10186  1.00

> <Gold.PLP.Chemscore.Internal.Correction>
0.0207

> <Gold.Rescore>
     Score         DG    S(hbond)    S(metal)    S(lipo)     H(rot)  DE(clash)    DE(int)     intcor
     17.03     -19.59       2.36        0.00      86.50       1.51       1.41       1.16       ----

> <Gold.Chemscore.Fitness>
17.0260

> <Gold.Chemscore.DG>
-19.5935

> <Gold.Chemscore.ZeroCoef>
-5.4800

> <Gold.Chemscore.Hbond>
2.3552

> <Gold.Chemscore.Metal>
0.0000

> <Gold.Chemscore.Lipo>
86.5006

> <Gold.Chemscore.Internal_Hbond>
0.0000

> <Gold.Chemscore.DEClash>
1.4119

> <Gold.Chemscore.DEInternal>
1.1557

> <Gold.Chemscore.Rot>
1.5131

> <Gold.Chemscore.Internal.Correction>
   9.000000E+99

> <Gold.Chemscore.Hbonds>
donor molecule, donor type, donor heavy atom, donor atom, acceptor molecule, acceptor atom, score
      L1  H     8    28       P1  7948  0.91
      L1  H    11    29       P1  7948  0.95
      P1  H  8011  8017       L1    21  0.26

> <Gold.Chemscore.Hbond.Weighted>
-7.8664

> <Gold.Chemscore.Metal.Weighted>
-0.0000

> <Gold.Chemscore.Lipo.Weighted>
-10.1206

> <Gold.Chemscore.Internal_Hbond.Weighted>
0.0000

> <Gold.Chemscore.DEClash.Weighted>
1.4119

> <Gold.Chemscore.DEInternal.Weighted>
1.1557

> <Gold.Chemscore.Rot.Weighted>
3.8735

> <Gold.Chemscore.Internal.Correction.Weighted>
   9.000000E+99

> <Gold.Protein.RotatedTorsions>
[ 6907 6896 6895 6894 ] final  -15.30 input  -60.11 | X-H torsion
[ 7974 7965 7964 7962 ] final  -74.38 input  175.53 | X-H torsion
[ 8008 7997 7996 7995 ] final    0.45 input   59.86 | X-H torsion
[ 10167 10162 10161 10158 ] final -132.27 input  -65.29 | X-H torsion
[ 10718 10713 10712 10709 ] final  -69.12 input   66.30 | X-H torsion
[ 10763 10752 10751 10750 ] final  -26.24 input  -60.55 | X-H torsion
[ 11005 11000 10999 10996 ] final  -33.12 input  -57.11 | X-H torsion

> <Gold.Protein.ActiveResidues>
 VAL166  LYS551  ARG553  GLY616  TRP617  ASP618  TYR619  PRO620  LYS621  CYS622 
 ASP623  PHE694  ASN695  SER759  ASP760  ASP761  ALA762  ILE779  LEU786  VAL792 
 PHE793  MET794  SER795  GLU796  ALA797  LYS798  CYS799  TRP800  GLU811  SER814 

> <Gold.Protein.RotatedAtoms>
  151.3261  135.0830  159.9322 H   0  0  0  0  0  0  0  0  0  0  0  0  # atno 6907 bound_to 6896
  152.5245  133.9589  159.7718 H   0  0  0  0  0  0  0  0  0  0  0  0  # atno 6908 bound_to 6896
  150.9919  133.6088  159.2737 H   0  0  0  0  0  0  0  0  0  0  0  0  # atno 6909 bound_to 6896
  145.6398  140.9314  143.1042 H   0  0  0  0  0  0  0  0  0  0  0  0  # atno 7974 bound_to 7965
  154.6682  140.2606  155.7035 H   0  0  0  0  0  0  0  0  0  0  0  0  # atno 8008 bound_to 7997
  156.2648  140.2834  156.1103 H   0  0  0  0  0  0  0  0  0  0  0  0  # atno 8009 bound_to 7997
  155.1207  140.0377  157.2739 H   0  0  0  0  0  0  0  0  0  0  0  0  # atno 8010 bound_to 7997
  139.9103  143.6502  152.2576 H   0  0  0  0  0  0  0  0  0  0  0  0  # atno 10167 bound_to 10162
  156.0471  130.4307  150.2101 H   0  0  0  0  0  0  0  0  0  0  0  0  # atno 10718 bound_to 10713
  153.7128  135.6949  153.5033 H   0  0  0  0  0  0  0  0  0  0  0  0  # atno 10763 bound_to 10752
  153.2260  135.4353  155.0541 H   0  0  0  0  0  0  0  0  0  0  0  0  # atno 10764 bound_to 10752
  154.8309  135.3472  154.6664 H   0  0  0  0  0  0  0  0  0  0  0  0  # atno 10765 bound_to 10752
  140.9608  133.7165  156.1367 H   0  0  0  0  0  0  0  0  0  0  0  0  # atno 11005 bound_to 11000
  144.7161  139.8190  143.7398 LP  0  0  0  0  0  0  0  0  0  0  0  0  # atno 17320 bound_to 7965
  146.1290  139.4321  143.0181 LP  0  0  0  0  0  0  0  0  0  0  0  0  # atno 17321 bound_to 7965
  139.6948  144.7642  151.1375 LP  0  0  0  0  0  0  0  0  0  0  0  0  # atno 17342 bound_to 10162
  140.7687  143.5539  150.9174 LP  0  0  0  0  0  0  0  0  0  0  0  0  # atno 17343 bound_to 10162
  157.0189  130.9973  151.3345 LP  0  0  0  0  0  0  0  0  0  0  0  0  # atno 17370 bound_to 10713
  157.5358  130.8088  149.7970 LP  0  0  0  0  0  0  0  0  0  0  0  0  # atno 17371 bound_to 10713
  140.7470  134.4087  157.5547 LP  0  0  0  0  0  0  0  0  0  0  0  0  # atno 17394 bound_to 11000
  139.8877  134.8874  156.2511 LP  0  0  0  0  0  0  0  0  0  0  0  0  # atno 17395 bound_to 11000

$$$$
