AV-unprocessed.smi:1513|AV-procd|sdf|6111|dock7
  -GOLD-   22720 6243D 1   1.00000     0.00000
 Structure written by MMmdl.
 33 34  0  0  0  0  0  0  0  0  2 V2000
  148.3401  144.0670  160.6952 N   0  5  0  0  0  0  0  0  0  0  0  0
  147.0706  143.8371  159.7284 S   0  0  0  0  0  0  0  0  0  0  0  0
  146.2846  142.6361  160.0500 O   0  0  0  0  0  0  0  0  0  0  0  0
  146.3475  145.0776  159.4085 O   0  0  0  0  0  0  0  0  0  0  0  0
  147.9806  143.4400  158.3236 N   0  0  0  0  0  0  0  0  0  0  0  0
  148.5360  142.0978  158.1594 C   0  0  0  0  0  0  0  0  0  0  0  0
  148.6876  141.6993  156.6991 C   0  0  0  0  0  0  0  0  0  0  0  0
  147.7115  142.0927  155.7598 C   0  0  0  0  0  0  0  0  0  0  0  0
  147.8710  141.7250  154.4111 C   0  0  0  0  0  0  0  0  0  0  0  0
  149.0067  140.9750  154.0534 C   0  0  0  0  0  0  0  0  0  0  0  0
  149.9485  140.5902  154.9397 N   0  0  0  0  0  0  0  0  0  0  0  0
  149.7960  140.9419  156.2397 C   0  0  0  0  0  0  0  0  0  0  0  0
  150.7816  140.5161  157.1440 N   0  0  0  0  0  0  0  0  0  0  0  0
  151.5285  139.3501  156.6903 C   0  0  0  0  0  0  0  0  0  0  0  0
  152.4544  138.8510  157.8131 C   0  0  0  0  0  0  0  0  0  0  0  0
  153.3001  139.9147  158.2443 O   0  0  0  0  0  0  0  0  0  0  0  0
  152.5552  141.0167  158.7562 C   0  0  0  0  0  0  0  0  0  0  0  0
  151.6404  141.5761  157.6531 C   0  0  0  0  0  0  0  0  0  0  0  0
  148.9055  144.8306  160.3051 H   0  0  0  0  0  0  0  0  0  0  0  0
  147.6360  143.8777  157.4699 H   0  0  0  0  0  0  0  0  0  0  0  0
  149.4965  142.0505  158.6732 H   0  0  0  0  0  0  0  0  0  0  0  0
  147.8871  141.3720  158.6500 H   0  0  0  0  0  0  0  0  0  0  0  0
  146.8510  142.6694  156.0656 H   0  0  0  0  0  0  0  0  0  0  0  0
  147.1405  142.0117  153.6692 H   0  0  0  0  0  0  0  0  0  0  0  0
  149.1636  140.6751  153.0279 H   0  0  0  0  0  0  0  0  0  0  0  0
  150.8392  138.5585  156.3940 H   0  0  0  0  0  0  0  0  0  0  0  0
  152.1187  139.6118  155.8111 H   0  0  0  0  0  0  0  0  0  0  0  0
  151.8750  138.4686  158.6543 H   0  0  0  0  0  0  0  0  0  0  0  0
  153.0717  138.0282  157.4529 H   0  0  0  0  0  0  0  0  0  0  0  0
  151.9716  140.7034  159.6236 H   0  0  0  0  0  0  0  0  0  0  0  0
  153.2469  141.7866  159.0976 H   0  0  0  0  0  0  0  0  0  0  0  0
  152.2437  141.9855  156.8417 H   0  0  0  0  0  0  0  0  0  0  0  0
  151.0296  142.3892  158.0472 H   0  0  0  0  0  0  0  0  0  0  0  0
  1  2  1  0  0  0  0
  1 19  1  0  0  0  0
  2  3  2  0  0  0  0
  2  4  2  0  0  0  0
  2  5  1  0  0  0  0
  5  6  1  0  0  0  0
  5 20  1  0  0  0  0
  6  7  1  0  0  0  0
  6 21  1  0  0  0  0
  6 22  1  0  0  0  0
  7 12  1  0  0  0  0
  7  8  2  0  0  0  0
  8  9  1  0  0  0  0
  8 23  1  0  0  0  0
  9 10  2  0  0  0  0
  9 24  1  0  0  0  0
 10 11  1  0  0  0  0
 10 25  1  0  0  0  0
 11 12  2  0  0  0  0
 12 13  1  0  0  0  0
 13 18  1  0  0  0  0
 13 14  1  0  0  0  0
 14 15  1  0  0  0  0
 14 26  1  0  0  0  0
 14 27  1  0  0  0  0
 15 16  1  0  0  0  0
 15 28  1  0  0  0  0
 15 29  1  0  0  0  0
 16 17  1  0  0  0  0
 17 18  1  0  0  0  0
 17 30  1  0  0  0  0
 17 31  1  0  0  0  0
 18 32  1  0  0  0  0
 18 33  1  0  0  0  0
M  CHG  1   1  -1
M  END
> <s_m_source_file>
AV-unprocessed.smi

> <i_m_source_file_index>
1513

> <i_lp_mmshare_version>
43012

> <i_f3d_flags>
0

> <s_epik_input>
W05IMl1TKD1PKSg9TylbTkhdW0NIMl1jMVtjSF1bY0hdW2NIXW5jMU4yW0NIMl1bQ0gyXU9bQ0gyXVtDSDJdMg==

> <s_epik_cmdline>
J2VwaWtfcHl0aG9uJywgJy1waCcsICc3LjAnLCAnLXRuJywgJzgnLCAnLW1hJywgJzIwMCcsICctbWV0YWxfYmluZGluZycsICctaW1hZScsICc8aW5maWxlLm1hZT4nLCAnLW9tYWUnLCAnPG91dGZpbGUubWFlPic=

> <r_lp_tautomer_probability>
1

> <r_epik_Ionization_Penalty>
2.76303

> <r_epik_Ionization_Penalty_Charging>
2.75358

> <r_epik_Ionization_Penalty_Neutral>
0.00945191

> <r_epik_State_Penalty>
2.93489

> <r_epik_Charging_Adjusted_Penalty>
5.68847

> <i_epik_Tot_Q>
-1

> <i_epik_Tot_abs_Q>
1

> <r_epik_Metal_State_Penalty>
0.838637

> <b_epik_Metal_Only>
1

> <s_lp_Force_Field>
OPLS_2005

> <r_lp_Energy>
17.6636

> <b_lp_Chiralities_Consistent>
1

> <s_lp_Variant>
AV-unprocessed.smi:1513-4

> <Gold.Version>
5.8.1

> <Gold.Id.Protein>
6NUR|6NUR_protein|mol2

> <Gold.PLP.Fitness>
35.4536

> <Gold.PLP.PLP>
-21.8837

> <Gold.PLP.part.hbond>
-5.1687

> <Gold.PLP.part.metal>
0.0000

> <Gold.PLP.part.buried>
0.2338

> <Gold.PLP.part.nonpolar>
-16.7160

> <Gold.PLP.part.repulsive>
0.7648

> <Gold.PLP.ligand.clash>
0.0000

> <Gold.PLP.ligand.torsion>
1.3349

> <Gold.PLP.Chemscore.Hbond>
4.3555

> <Gold.PLP.Chemscore.CHOScore>
1.0000

> <Gold.PLP.Chemscore.Metal>
0.0000

> <Gold.Chemscore.Hbonds>
donor molecule, donor type, donor heavy atom, donor atom, acceptor molecule, acceptor atom, score
      L1  H     5    20       P1  8029  0.03
      P1  H  6933  6944       L1     1  2.00
      P1  H  6934  6946       L1     3  1.00
      P1  H  7989  7998       L1    11  0.29
      P1  H  7997  8008       L1    16  1.00
      L1  C    10    25       P1  7957  0.97

> <Gold.PLP.Chemscore.Internal.Correction>
0.1732

> <Gold.Rescore>
     Score         DG    S(hbond)    S(metal)    S(lipo)     H(rot)  DE(clash)    DE(int)     intcor
     12.43     -14.35       2.82        0.00      48.88       2.45       0.42       1.50       ----

> <Gold.Chemscore.Fitness>
12.4310

> <Gold.Chemscore.DG>
-14.3537

> <Gold.Chemscore.ZeroCoef>
-5.4800

> <Gold.Chemscore.Hbond>
2.8202

> <Gold.Chemscore.Metal>
0.0000

> <Gold.Chemscore.Lipo>
48.8770

> <Gold.Chemscore.Internal_Hbond>
0.0000

> <Gold.Chemscore.DEClash>
0.4193

> <Gold.Chemscore.DEInternal>
1.5034

> <Gold.Chemscore.Rot>
2.4470

> <Gold.Chemscore.Internal.Correction>
   9.000000E+99

> <Gold.Chemscore.Hbonds>
donor molecule, donor type, donor heavy atom, donor atom, acceptor molecule, acceptor atom, score
      P1  H  6933  6944       L1     1  0.29
      P1  H  6934  6946       L1     3  0.97
      P1  H  7989  7998       L1    11  0.03
      P1  H  7997  8008       L1    16  0.49

> <Gold.Chemscore.Hbond.Weighted>
-9.4194

> <Gold.Chemscore.Metal.Weighted>
-0.0000

> <Gold.Chemscore.Lipo.Weighted>
-5.7186

> <Gold.Chemscore.Internal_Hbond.Weighted>
0.0000

> <Gold.Chemscore.DEClash.Weighted>
0.4193

> <Gold.Chemscore.DEInternal.Weighted>
1.5034

> <Gold.Chemscore.Rot.Weighted>
6.2642

> <Gold.Chemscore.Internal.Correction.Weighted>
   9.000000E+99

> <Gold.Protein.RotatedTorsions>
[ 6907 6896 6895 6894 ] final  163.15 input  -60.11 | X-H torsion
[ 7974 7965 7964 7962 ] final  -60.95 input  175.53 | X-H torsion
[ 8008 7997 7996 7995 ] final  -81.62 input   59.86 | X-H torsion
[ 10167 10162 10161 10158 ] final  -90.81 input  -65.29 | X-H torsion
[ 10718 10713 10712 10709 ] final   71.58 input   66.30 | X-H torsion
[ 10763 10752 10751 10750 ] final   50.27 input  -60.55 | X-H torsion
[ 11005 11000 10999 10996 ] final  108.10 input  -57.11 | X-H torsion

> <Gold.Protein.ActiveResidues>
 VAL166  LYS551  ARG553  GLY616  TRP617  ASP618  TYR619  PRO620  LYS621  CYS622 
 ASP623  PHE694  ASN695  SER759  ASP760  ASP761  ALA762  ILE779  LEU786  VAL792 
 PHE793  MET794  SER795  GLU796  ALA797  LYS798  CYS799  TRP800  GLU811  SER814 

> <Gold.Protein.RotatedAtoms>
  151.9297  133.3607  159.3925 H   0  0  0  0  0  0  0  0  0  0  0  0  # atno 6907 bound_to 6896
  150.7020  134.4551  159.5363 H   0  0  0  0  0  0  0  0  0  0  0  0  # atno 6908 bound_to 6896
  152.2189  134.8432  160.0539 H   0  0  0  0  0  0  0  0  0  0  0  0  # atno 6909 bound_to 6896
  145.8093  140.8608  143.0190 H   0  0  0  0  0  0  0  0  0  0  0  0  # atno 7974 bound_to 7965
  154.6002  140.0645  156.9357 H   0  0  0  0  0  0  0  0  0  0  0  0  # atno 8008 bound_to 7997
  155.2146  140.3325  155.4305 H   0  0  0  0  0  0  0  0  0  0  0  0  # atno 8009 bound_to 7997
  156.2313  140.1842  156.7219 H   0  0  0  0  0  0  0  0  0  0  0  0  # atno 8010 bound_to 7997
  140.3512  143.2890  151.9724 H   0  0  0  0  0  0  0  0  0  0  0  0  # atno 10167 bound_to 10162
  157.6458  130.9535  150.0809 H   0  0  0  0  0  0  0  0  0  0  0  0  # atno 10718 bound_to 10713
  152.9785  135.5884  154.4224 H   0  0  0  0  0  0  0  0  0  0  0  0  # atno 10763 bound_to 10752
  154.3847  135.2767  155.2192 H   0  0  0  0  0  0  0  0  0  0  0  0  # atno 10764 bound_to 10752
  154.4091  135.6086  153.5996 H   0  0  0  0  0  0  0  0  0  0  0  0  # atno 10765 bound_to 10752
  139.8838  134.9420  156.5920 H   0  0  0  0  0  0  0  0  0  0  0  0  # atno 11005 bound_to 11000
  144.6759  140.0372  143.7481 LP  0  0  0  0  0  0  0  0  0  0  0  0  # atno 17320 bound_to 7965
  145.9794  139.2930  143.1051 LP  0  0  0  0  0  0  0  0  0  0  0  0  # atno 17321 bound_to 7965
  139.4826  144.6074  151.7496 LP  0  0  0  0  0  0  0  0  0  0  0  0  # atno 17342 bound_to 10162
  140.5217  144.0868  150.6025 LP  0  0  0  0  0  0  0  0  0  0  0  0  # atno 17343 bound_to 10162
  156.1785  130.3649  149.9067 LP  0  0  0  0  0  0  0  0  0  0  0  0  # atno 17370 bound_to 10713
  156.7025  130.8938  151.3601 LP  0  0  0  0  0  0  0  0  0  0  0  0  # atno 17371 bound_to 10713
  140.7948  133.8553  155.8676 LP  0  0  0  0  0  0  0  0  0  0  0  0  # atno 17394 bound_to 11000
  140.9645  134.1612  157.4627 LP  0  0  0  0  0  0  0  0  0  0  0  0  # atno 17395 bound_to 11000

$$$$
