AV-unprocessed.smi:9|AV-procd|sdf|51|dock7
  -GOLD-   2262015173D 1   1.00000     0.00000
 Structure written by MMmdl.
 35 37  0  0  0  0  0  0  0  0  1 V2000
  150.6079  136.6240  159.1007 O   0  0  0  0  0  0  0  0  0  0  0  0
  150.5744  136.5096  157.8774 C   0  0  0  0  0  0  0  0  0  0  0  0
  150.9312  137.4971  157.0205 N   0  0  0  0  0  0  0  0  0  0  0  0
  150.8887  137.3599  155.6092 C   0  0  0  0  0  0  0  0  0  0  0  0
  151.3468  138.6353  154.9195 C   0  0  0  0  0  0  0  0  0  0  0  0
  150.3893  139.1283  154.1325 F   0  0  0  0  0  0  0  0  0  0  0  0
  151.6615  139.5664  155.8207 F   0  0  0  0  0  0  0  0  0  0  0  0
  152.4209  138.3973  154.1662 F   0  0  0  0  0  0  0  0  0  0  0  0
  150.5117  136.2932  154.9519 N   0  0  0  0  0  0  0  0  0  0  0  0
  150.1486  135.2728  155.8080 C   0  0  0  0  0  0  0  0  0  0  0  0
  150.1396  135.2750  157.1786 C   0  0  0  0  0  0  0  0  0  0  0  0
  149.6999  134.0574  157.6829 N   0  0  0  0  0  0  0  0  0  0  0  0
  149.4611  133.3610  156.5735 C   0  0  0  0  0  0  0  0  0  0  0  0
  149.7136  134.0098  155.4200 N   0  0  0  0  0  0  0  0  0  0  0  0
  149.5460  133.4940  154.0681 C   0  0  0  0  0  0  0  0  0  0  0  0
  148.0761  133.4576  153.5756 C   0  0  1  0  0  0  0  0  0  0  0  0
  147.5525  134.7662  153.7090 O   0  0  0  0  0  0  0  0  0  0  0  0
  147.9680  133.0139  152.0997 C   0  0  0  0  0  0  0  0  0  0  0  0
  146.5183  132.7241  151.6977 C   0  0  0  0  0  0  0  0  0  0  0  0
  145.8763  131.7556  152.6971 C   0  0  0  0  0  0  0  0  0  0  0  0
  145.9202  132.3309  153.9954 O   0  0  0  0  0  0  0  0  0  0  0  0
  147.2404  132.5336  154.4935 C   0  0  0  0  0  0  0  0  0  0  0  0
  151.2415  138.3743  157.4125 H   0  0  0  0  0  0  0  0  0  0  0  0
  149.0971  132.3442  156.5999 H   0  0  0  0  0  0  0  0  0  0  0  0
  150.1433  134.1158  153.3998 H   0  0  0  0  0  0  0  0  0  0  0  0
  149.9872  132.4973  154.0224 H   0  0  0  0  0  0  0  0  0  0  0  0
  148.0507  135.3441  153.1513 H   0  0  0  0  0  0  0  0  0  0  0  0
  148.3927  133.7641  151.4316 H   0  0  0  0  0  0  0  0  0  0  0  0
  148.5553  132.1060  151.9552 H   0  0  0  0  0  0  0  0  0  0  0  0
  145.9467  133.6523  151.6679 H   0  0  0  0  0  0  0  0  0  0  0  0
  146.4855  132.3048  150.6918 H   0  0  0  0  0  0  0  0  0  0  0  0
  144.8359  131.5740  152.4273 H   0  0  0  0  0  0  0  0  0  0  0  0
  146.3823  130.7889  152.6920 H   0  0  0  0  0  0  0  0  0  0  0  0
  147.7236  131.5598  154.5872 H   0  0  0  0  0  0  0  0  0  0  0  0
  147.1790  132.9440  155.5024 H   0  0  0  0  0  0  0  0  0  0  0  0
  1  2  2  0  0  0  0
  2 11  1  0  0  0  0
  2  3  1  0  0  0  0
  3 23  1  0  0  0  0
  3  4  1  0  0  0  0
  4  5  1  0  0  0  0
  4  9  2  0  0  0  0
  5  6  1  0  0  0  0
  5  7  1  0  0  0  0
  5  8  1  0  0  0  0
  9 10  1  0  0  0  0
 10 14  1  0  0  0  0
 10 11  2  0  0  0  0
 11 12  1  0  0  0  0
 12 13  2  0  0  0  0
 13 14  1  0  0  0  0
 13 24  1  0  0  0  0
 14 15  1  0  0  0  0
 15 16  1  0  0  0  0
 15 25  1  0  0  0  0
 15 26  1  0  0  0  0
 16 22  1  0  0  0  0
 16 17  1  0  0  0  0
 16 18  1  0  0  0  0
 17 27  1  0  0  0  0
 18 19  1  0  0  0  0
 18 28  1  0  0  0  0
 18 29  1  0  0  0  0
 19 20  1  0  0  0  0
 19 30  1  0  0  0  0
 19 31  1  0  0  0  0
 20 21  1  0  0  0  0
 20 32  1  0  0  0  0
 20 33  1  0  0  0  0
 21 22  1  0  0  0  0
 22 34  1  0  0  0  0
 22 35  1  0  0  0  0
M  END
> <s_m_source_file>
AV-unprocessed.smi

> <i_m_source_file_index>
9

> <i_lp_mmshare_version>
43012

> <i_f3d_flags>
0

> <s_epik_input>
RkMoRikoRiljKG4xKVtuSF1jKD1PKWMoYzEyKW5bY0hdbjJbQ0gyXVtDQEBdMyhbT0hdKVtDSDJdW0NIMl1bQ0gyXU9bQ0gyXTM=

> <s_epik_cmdline>
J2VwaWtfcHl0aG9uJywgJy1waCcsICc3LjAnLCAnLXRuJywgJzgnLCAnLW1hJywgJzIwMCcsICctbWV0YWxfYmluZGluZycsICctaW1hZScsICc8aW5maWxlLm1hZT4nLCAnLW9tYWUnLCAnPG91dGZpbGUubWFlPic=

> <r_lp_tautomer_probability>
0.85571

> <r_epik_Ionization_Penalty>
0.770127

> <r_epik_Ionization_Penalty_Charging>
0.770101

> <r_epik_Ionization_Penalty_Neutral>
2.64604e-05

> <r_epik_State_Penalty>
2.30539

> <r_epik_Charging_Adjusted_Penalty>
3.07549

> <i_epik_Tot_Q>
0

> <i_epik_Tot_abs_Q>
0

> <r_epik_Metal_State_Penalty>
2.4903

> <b_epik_Metal_Only>
0

> <s_lp_Force_Field>
OPLS_2005

> <r_lp_Energy>
27.1686

> <b_lp_Chiralities_Consistent>
1

> <s_lp_Variant>
AV-unprocessed.smi:9-3

> <Gold.Version>
5.8.1

> <Gold.Id.Protein>
6NUR|6NUR_protein|mol2

> <Gold.PLP.Fitness>
37.4425

> <Gold.PLP.PLP>
-30.2481

> <Gold.PLP.part.hbond>
-3.0000

> <Gold.PLP.part.metal>
0.0000

> <Gold.PLP.part.buried>
-1.8472

> <Gold.PLP.part.nonpolar>
-24.9788

> <Gold.PLP.part.repulsive>
0.3576

> <Gold.PLP.ligand.clash>
0.0000

> <Gold.PLP.ligand.torsion>
0.2455

> <Gold.PLP.Chemscore.Hbond>
2.5590

> <Gold.PLP.Chemscore.CHOScore>
0.0000

> <Gold.PLP.Chemscore.Metal>
0.0000

> <Gold.Chemscore.Hbonds>
donor molecule, donor type, donor heavy atom, donor atom, acceptor molecule, acceptor atom, score
      L1  H    17    27       P1  7948  1.00
      P1  H  6896  6907       L1     1  1.00
      P1  H  6896  6909       L1    12  0.60

> <Gold.PLP.Chemscore.Internal.Correction>
0.0085

> <Gold.Rescore>
     Score         DG    S(hbond)    S(metal)    S(lipo)     H(rot)  DE(clash)    DE(int)     intcor
     11.14     -11.73       1.98        0.00      43.58       2.14       0.33       0.26       ----

> <Gold.Chemscore.Fitness>
11.1369

> <Gold.Chemscore.DG>
-11.7282

> <Gold.Chemscore.ZeroCoef>
-5.4800

> <Gold.Chemscore.Hbond>
1.9823

> <Gold.Chemscore.Metal>
0.0000

> <Gold.Chemscore.Lipo>
43.5791

> <Gold.Chemscore.Internal_Hbond>
0.0000

> <Gold.Chemscore.DEClash>
0.3312

> <Gold.Chemscore.DEInternal>
0.2601

> <Gold.Chemscore.Rot>
2.1373

> <Gold.Chemscore.Internal.Correction>
   9.000000E+99

> <Gold.Chemscore.Hbonds>
donor molecule, donor type, donor heavy atom, donor atom, acceptor molecule, acceptor atom, score
      L1  H    17    27       P1  7948  1.00
      P1  H  6896  6907       L1     1  0.78
      P1  H  6896  6909       L1    12  0.32

> <Gold.Chemscore.Hbond.Weighted>
-6.6209

> <Gold.Chemscore.Metal.Weighted>
-0.0000

> <Gold.Chemscore.Lipo.Weighted>
-5.0987

> <Gold.Chemscore.Internal_Hbond.Weighted>
0.0000

> <Gold.Chemscore.DEClash.Weighted>
0.3312

> <Gold.Chemscore.DEInternal.Weighted>
0.2601

> <Gold.Chemscore.Rot.Weighted>
5.4714

> <Gold.Chemscore.Internal.Correction.Weighted>
   9.000000E+99

> <Gold.Protein.RotatedTorsions>
[ 6907 6896 6895 6894 ] final  -20.33 input  -60.11 | X-H torsion
[ 7974 7965 7964 7962 ] final  -21.20 input  175.53 | X-H torsion
[ 8008 7997 7996 7995 ] final  -71.19 input   59.86 | X-H torsion
[ 10167 10162 10161 10158 ] final  128.43 input  -65.29 | X-H torsion
[ 10718 10713 10712 10709 ] final   59.03 input   66.30 | X-H torsion
[ 10763 10752 10751 10750 ] final -169.93 input  -60.55 | X-H torsion
[ 11005 11000 10999 10996 ] final  -37.39 input  -57.11 | X-H torsion

> <Gold.Protein.ActiveResidues>
 VAL166  LYS551  ARG553  GLY616  TRP617  ASP618  TYR619  PRO620  LYS621  CYS622 
 ASP623  PHE694  ASN695  SER759  ASP760  ASP761  ALA762  ILE779  LEU786  VAL792 
 PHE793  MET794  SER795  GLU796  ALA797  LYS798  CYS799  TRP800  GLU811  SER814 

> <Gold.Protein.RotatedAtoms>
  151.2498  135.0618  159.9057 H   0  0  0  0  0  0  0  0  0  0  0  0  # atno 6907 bound_to 6896
  152.5381  134.0344  159.8050 H   0  0  0  0  0  0  0  0  0  0  0  0  # atno 6908 bound_to 6896
  151.0551  133.5542  159.2670 H   0  0  0  0  0  0  0  0  0  0  0  0  # atno 6909 bound_to 6896
  146.1746  140.4308  142.8518 H   0  0  0  0  0  0  0  0  0  0  0  0  # atno 7974 bound_to 7965
  154.5069  140.0820  156.7912 H   0  0  0  0  0  0  0  0  0  0  0  0  # atno 8008 bound_to 7997
  155.3873  140.3431  155.4231 H   0  0  0  0  0  0  0  0  0  0  0  0  # atno 8009 bound_to 7997
  156.1526  140.1563  156.8732 H   0  0  0  0  0  0  0  0  0  0  0  0  # atno 8010 bound_to 7997
  139.5528  144.6826  151.4273 H   0  0  0  0  0  0  0  0  0  0  0  0  # atno 10167 bound_to 10162
  157.5643  130.8859  149.9162 H   0  0  0  0  0  0  0  0  0  0  0  0  # atno 10718 bound_to 10713
  154.6470  135.2906  155.0033 H   0  0  0  0  0  0  0  0  0  0  0  0  # atno 10763 bound_to 10752
  154.1140  135.6558  153.4894 H   0  0  0  0  0  0  0  0  0  0  0  0  # atno 10764 bound_to 10752
  153.0356  135.5272  154.7362 H   0  0  0  0  0  0  0  0  0  0  0  0  # atno 10765 bound_to 10752
  140.9948  133.6986  156.1915 H   0  0  0  0  0  0  0  0  0  0  0  0  # atno 11005 bound_to 11000
  144.8216  140.6559  143.6349 LP  0  0  0  0  0  0  0  0  0  0  0  0  # atno 17320 bound_to 7965
  145.4246  139.1558  143.4055 LP  0  0  0  0  0  0  0  0  0  0  0  0  # atno 17321 bound_to 7965
  140.6794  143.8116  150.7101 LP  0  0  0  0  0  0  0  0  0  0  0  0  # atno 17342 bound_to 10162
  140.1565  143.4313  152.2096 LP  0  0  0  0  0  0  0  0  0  0  0  0  # atno 17343 bound_to 10162
  156.0693  130.3687  150.0810 LP  0  0  0  0  0  0  0  0  0  0  0  0  # atno 17370 bound_to 10713
  156.8971  130.9608  151.3581 LP  0  0  0  0  0  0  0  0  0  0  0  0  # atno 17371 bound_to 10713
  140.6982  134.4592  157.5587 LP  0  0  0  0  0  0  0  0  0  0  0  0  # atno 17394 bound_to 11000
  139.9009  134.8557  156.1898 LP  0  0  0  0  0  0  0  0  0  0  0  0  # atno 17395 bound_to 11000

$$$$
