AV-unprocessed.smi:1426|AV-procd|sdf|5806|dock7
  -GOLD-   22720 5463D 1   1.00000     0.00000
 Structure written by MMmdl.
 43 45  0  0  0  0  0  0  0  0  1 V2000
  145.5120  138.2722  153.4670 O   0  0  0  0  0  0  0  0  0  0  0  0
  146.5011  137.6928  153.0180 C   0  0  0  0  0  0  0  0  0  0  0  0
  146.4594  136.4731  152.4637 N   0  0  0  0  0  0  0  0  0  0  0  0
  145.2668  135.6413  152.3358 C   0  0  0  0  0  0  0  0  0  0  0  0
  145.3610  134.6948  151.1243 C   0  0  1  0  0  0  0  0  0  0  0  0
  146.4392  133.6319  151.2150 C   0  0  0  0  0  0  0  0  0  0  0  0
  145.9737  132.6184  150.1742 C   0  0  0  0  0  0  0  0  0  0  0  0
  144.5521  132.7119  150.1460 O   0  0  0  0  0  0  0  0  0  0  0  0
  144.1199  133.8274  150.9190 C   0  0  0  0  0  0  0  0  0  0  0  0
  147.7560  138.1716  153.0387 N   0  0  0  0  0  0  0  0  0  0  0  0
  148.2225  139.3918  153.6053 C   0  0  0  0  0  0  0  0  0  0  0  0
  147.4746  140.5926  153.5440 C   0  0  0  0  0  0  0  0  0  0  0  0
  148.0056  141.7620  154.1166 C   0  0  0  0  0  0  0  0  0  0  0  0
  149.2719  141.6924  154.7232 C   0  0  0  0  0  0  0  0  0  0  0  0
  150.0045  140.5616  154.7735 N   0  0  0  0  0  0  0  0  0  0  0  0
  149.4989  139.4281  154.2281 C   0  0  0  0  0  0  0  0  0  0  0  0
  150.3023  138.2699  154.2630 N   0  0  0  0  0  0  0  0  0  0  0  0
  151.6701  138.5298  154.7041 C   0  0  0  0  0  0  0  0  0  0  0  0
  152.0862  137.3304  155.5581 C   0  0  0  0  0  0  0  0  0  0  0  0
  150.7592  136.8271  156.1123 C   0  0  0  0  0  0  0  0  0  0  0  0
  149.8004  137.0811  154.9504 C   0  0  0  0  0  0  0  0  0  0  0  0
  147.3245  136.0783  152.1245 H   0  0  0  0  0  0  0  0  0  0  0  0
  145.0833  135.0780  153.2526 H   0  0  0  0  0  0  0  0  0  0  0  0
  144.4113  136.3056  152.2118 H   0  0  0  0  0  0  0  0  0  0  0  0
  145.5257  135.2815  150.2187 H   0  0  0  0  0  0  0  0  0  0  0  0
  147.4404  134.0138  151.0133 H   0  0  0  0  0  0  0  0  0  0  0  0
  146.4412  133.1759  152.2062 H   0  0  0  0  0  0  0  0  0  0  0  0
  146.3574  132.8833  149.1883 H   0  0  0  0  0  0  0  0  0  0  0  0
  146.3028  131.6049  150.4045 H   0  0  0  0  0  0  0  0  0  0  0  0
  143.7438  133.4580  151.8740 H   0  0  0  0  0  0  0  0  0  0  0  0
  143.3115  134.3653  150.4232 H   0  0  0  0  0  0  0  0  0  0  0  0
  148.4771  137.5423  152.7179 H   0  0  0  0  0  0  0  0  0  0  0  0
  146.5127  140.6400  153.0569 H   0  0  0  0  0  0  0  0  0  0  0  0
  147.4565  142.6913  154.0867 H   0  0  0  0  0  0  0  0  0  0  0  0
  149.7132  142.5702  155.1714 H   0  0  0  0  0  0  0  0  0  0  0  0
  152.3382  138.6623  153.8526 H   0  0  0  0  0  0  0  0  0  0  0  0
  151.7073  139.4424  155.3020 H   0  0  0  0  0  0  0  0  0  0  0  0
  152.5363  136.5630  154.9266 H   0  0  0  0  0  0  0  0  0  0  0  0
  152.8034  137.5923  156.3366 H   0  0  0  0  0  0  0  0  0  0  0  0
  150.7902  135.7807  156.4169 H   0  0  0  0  0  0  0  0  0  0  0  0
  150.4652  137.4257  156.9759 H   0  0  0  0  0  0  0  0  0  0  0  0
  148.7658  137.1586  155.2859 H   0  0  0  0  0  0  0  0  0  0  0  0
  149.8425  136.2497  154.2462 H   0  0  0  0  0  0  0  0  0  0  0  0
  1  2  2  0  0  0  0
  2  3  1  0  0  0  0
  2 10  1  0  0  0  0
  3  4  1  0  0  0  0
  3 22  1  0  0  0  0
  4  5  1  0  0  0  0
  4 23  1  0  0  0  0
  4 24  1  0  0  0  0
  5  9  1  0  0  0  0
  5  6  1  0  0  0  0
  5 25  1  0  0  0  0
  6  7  1  0  0  0  0
  6 26  1  0  0  0  0
  6 27  1  0  0  0  0
  7  8  1  0  0  0  0
  7 28  1  0  0  0  0
  7 29  1  0  0  0  0
  8  9  1  0  0  0  0
  9 30  1  0  0  0  0
  9 31  1  0  0  0  0
 10 11  1  0  0  0  0
 10 32  1  0  0  0  0
 11 16  1  0  0  0  0
 11 12  2  0  0  0  0
 12 13  1  0  0  0  0
 12 33  1  0  0  0  0
 13 14  2  0  0  0  0
 13 34  1  0  0  0  0
 14 15  1  0  0  0  0
 14 35  1  0  0  0  0
 15 16  2  0  0  0  0
 16 17  1  0  0  0  0
 17 21  1  0  0  0  0
 17 18  1  0  0  0  0
 18 19  1  0  0  0  0
 18 36  1  0  0  0  0
 18 37  1  0  0  0  0
 19 20  1  0  0  0  0
 19 38  1  0  0  0  0
 19 39  1  0  0  0  0
 20 21  1  0  0  0  0
 20 40  1  0  0  0  0
 20 41  1  0  0  0  0
 21 42  1  0  0  0  0
 21 43  1  0  0  0  0
M  END
> <s_m_source_file>
AV-unprocessed.smi

> <i_m_source_file_index>
1426

> <i_lp_mmshare_version>
43012

> <i_f3d_flags>
0

> <s_epik_input>
W0NIMl0xT1tDSDJdW0NIMl1bQ0BIXTFbQ0gyXVtOSF1DKD1PKVtOSF1jMltjSF1bY0hdW2NIXW5jMk4zW0NIMl1bQ0gyXVtDSDJdW0NIMl0z

> <s_epik_cmdline>
J2VwaWtfcHl0aG9uJywgJy1waCcsICc3LjAnLCAnLXRuJywgJzgnLCAnLW1hJywgJzIwMCcsICctbWV0YWxfYmluZGluZycsICctaW1hZScsICc8aW5maWxlLm1hZT4nLCAnLW9tYWUnLCAnPG91dGZpbGUubWFlPic=

> <r_lp_tautomer_probability>
1

> <r_epik_Ionization_Penalty>
0.0999657

> <r_epik_Ionization_Penalty_Charging>
0

> <r_epik_Ionization_Penalty_Neutral>
0.0999657

> <r_epik_State_Penalty>
0.0894442

> <r_epik_Charging_Adjusted_Penalty>
0.0894442

> <i_epik_Tot_Q>
0

> <i_epik_Tot_abs_Q>
0

> <r_epik_Metal_State_Penalty>
0.076486

> <b_epik_Metal_Only>
0

> <s_lp_Force_Field>
OPLS_2005

> <r_lp_Energy>
46.9111

> <b_lp_Chiralities_Consistent>
1

> <s_lp_Variant>
AV-unprocessed.smi:1426-2

> <Gold.Version>
5.8.1

> <Gold.Id.Protein>
6NUR|6NUR_protein|mol2

> <Gold.PLP.Fitness>
42.8535

> <Gold.PLP.PLP>
-32.4221

> <Gold.PLP.part.hbond>
-3.3969

> <Gold.PLP.part.metal>
0.0000

> <Gold.PLP.part.buried>
1.3425

> <Gold.PLP.part.nonpolar>
-31.0403

> <Gold.PLP.part.repulsive>
1.3036

> <Gold.PLP.ligand.clash>
0.0000

> <Gold.PLP.ligand.torsion>
0.5660

> <Gold.PLP.Chemscore.Hbond>
2.8151

> <Gold.PLP.Chemscore.CHOScore>
1.0000

> <Gold.PLP.Chemscore.Metal>
0.0000

> <Gold.Chemscore.Hbonds>
donor molecule, donor type, donor heavy atom, donor atom, acceptor molecule, acceptor atom, score
      L1  H     3    22       P1  7948  1.00
      L1  H    10    32       P1  7948  1.00
      P1  H  7989  7998       L1    15  0.77
      L1  C    14    35       P1  8028  1.00

> <Gold.PLP.Chemscore.Internal.Correction>
0.1180

> <Gold.Rescore>
     Score         DG    S(hbond)    S(metal)    S(lipo)     H(rot)  DE(clash)    DE(int)     intcor
     15.59     -18.31       1.94        0.00      84.38       1.38       0.27       2.46       ----

> <Gold.Chemscore.Fitness>
15.5853

> <Gold.Chemscore.DG>
-18.3112

> <Gold.Chemscore.ZeroCoef>
-5.4800

> <Gold.Chemscore.Hbond>
1.9431

> <Gold.Chemscore.Metal>
0.0000

> <Gold.Chemscore.Lipo>
84.3848

> <Gold.Chemscore.Internal_Hbond>
0.0000

> <Gold.Chemscore.DEClash>
0.2651

> <Gold.Chemscore.DEInternal>
2.4609

> <Gold.Chemscore.Rot>
1.3796

> <Gold.Chemscore.Internal.Correction>
   9.000000E+99

> <Gold.Chemscore.Hbonds>
donor molecule, donor type, donor heavy atom, donor atom, acceptor molecule, acceptor atom, score
      L1  H     3    22       P1  7948  0.94
      L1  H    10    32       P1  7948  0.95
      P1  H  7989  7998       L1    15  0.09

> <Gold.Chemscore.Hbond.Weighted>
-6.4899

> <Gold.Chemscore.Metal.Weighted>
-0.0000

> <Gold.Chemscore.Lipo.Weighted>
-9.8730

> <Gold.Chemscore.Internal_Hbond.Weighted>
0.0000

> <Gold.Chemscore.DEClash.Weighted>
0.2651

> <Gold.Chemscore.DEInternal.Weighted>
2.4609

> <Gold.Chemscore.Rot.Weighted>
3.5317

> <Gold.Chemscore.Internal.Correction.Weighted>
   9.000000E+99

> <Gold.Protein.RotatedTorsions>
[ 6907 6896 6895 6894 ] final    6.58 input  -60.11 | X-H torsion
[ 7974 7965 7964 7962 ] final   56.64 input  175.53 | X-H torsion
[ 8008 7997 7996 7995 ] final   82.96 input   59.86 | X-H torsion
[ 10167 10162 10161 10158 ] final  177.91 input  -65.29 | X-H torsion
[ 10718 10713 10712 10709 ] final -134.92 input   66.30 | X-H torsion
[ 10763 10752 10751 10750 ] final   45.98 input  -60.55 | X-H torsion
[ 11005 11000 10999 10996 ] final   21.74 input  -57.11 | X-H torsion

> <Gold.Protein.ActiveResidues>
 VAL166  LYS551  ARG553  GLY616  TRP617  ASP618  TYR619  PRO620  LYS621  CYS622 
 ASP623  PHE694  ASN695  SER759  ASP760  ASP761  ALA762  ILE779  LEU786  VAL792 
 PHE793  MET794  SER795  GLU796  ALA797  LYS798  CYS799  TRP800  GLU811  SER814 

> <Gold.Protein.RotatedAtoms>
  151.6761  135.0969  160.0206 H   0  0  0  0  0  0  0  0  0  0  0  0  # atno 6907 bound_to 6896
  152.3863  133.6612  159.6210 H   0  0  0  0  0  0  0  0  0  0  0  0  # atno 6908 bound_to 6896
  150.7788  133.8946  159.3364 H   0  0  0  0  0  0  0  0  0  0  0  0  # atno 6909 bound_to 6896
  145.9376  139.3861  143.0383 H   0  0  0  0  0  0  0  0  0  0  0  0  # atno 7974 bound_to 7965
  155.9176  140.3423  155.6147 H   0  0  0  0  0  0  0  0  0  0  0  0  # atno 8008 bound_to 7997
  155.7312  140.0796  157.2306 H   0  0  0  0  0  0  0  0  0  0  0  0  # atno 8009 bound_to 7997
  154.4065  140.1587  156.2498 H   0  0  0  0  0  0  0  0  0  0  0  0  # atno 8010 bound_to 7997
  139.5272  144.2743  152.0601 H   0  0  0  0  0  0  0  0  0  0  0  0  # atno 10167 bound_to 10162
  156.2606  130.7207  151.1140 H   0  0  0  0  0  0  0  0  0  0  0  0  # atno 10718 bound_to 10713
  152.9817  135.6022  154.3525 H   0  0  0  0  0  0  0  0  0  0  0  0  # atno 10763 bound_to 10752
  154.3214  135.2769  155.2519 H   0  0  0  0  0  0  0  0  0  0  0  0  # atno 10764 bound_to 10752
  154.4684  135.5948  153.6360 H   0  0  0  0  0  0  0  0  0  0  0  0  # atno 10765 bound_to 10752
  140.3882  134.1847  155.7663 H   0  0  0  0  0  0  0  0  0  0  0  0  # atno 11005 bound_to 11000
  145.8342  140.9615  143.0833 LP  0  0  0  0  0  0  0  0  0  0  0  0  # atno 17320 bound_to 7965
  144.6774  140.0202  143.7484 LP  0  0  0  0  0  0  0  0  0  0  0  0  # atno 17321 bound_to 7965
  140.2201  144.4475  150.6346 LP  0  0  0  0  0  0  0  0  0  0  0  0  # atno 17342 bound_to 10162
  140.6424  143.2206  151.6261 LP  0  0  0  0  0  0  0  0  0  0  0  0  # atno 17343 bound_to 10162
  157.7249  131.0657  150.5976 LP  0  0  0  0  0  0  0  0  0  0  0  0  # atno 17370 bound_to 10713
  156.6064  130.4368  149.5876 LP  0  0  0  0  0  0  0  0  0  0  0  0  # atno 17371 bound_to 10713
  141.1900  133.8227  157.0936 LP  0  0  0  0  0  0  0  0  0  0  0  0  # atno 17394 bound_to 11000
  140.0426  134.9846  157.0990 LP  0  0  0  0  0  0  0  0  0  0  0  0  # atno 17395 bound_to 11000

$$$$
