AV-unprocessed.smi:3322|AV-procd|sdf|12774|dock3
  -GOLD-   2272019113D 1   1.00000     0.00000
 Structure written by MMmdl.
 39 40  0  0  0  0  0  0  0  0  2 V2000
  145.5033  134.3772  155.0291 C   0  0  0  0  0  0  0  0  0  0  0  0
  146.6638  134.5529  154.0352 C   0  0  1  0  0  0  0  0  0  0  0  0
  146.4149  135.7581  153.2081 N   0  3  0  0  0  0  0  0  0  0  0  0
  145.1945  135.7079  152.3746 C   0  0  0  0  0  0  0  0  0  0  0  0
  145.5348  135.3349  150.9253 C   0  0  0  0  0  0  0  0  0  0  0  0
  145.3128  133.9252  150.6699 N   0  0  0  0  0  0  0  0  0  0  0  0
  144.1150  133.2507  150.5604 C   0  0  0  0  0  0  0  0  0  0  0  0
  144.4090  131.9399  150.3157 C   0  0  0  0  0  0  0  0  0  0  0  0
  145.8316  131.9099  150.2956 C   0  0  0  0  0  0  0  0  0  0  0  0
  146.3695  133.1003  150.5082 N   0  0  0  0  0  0  0  0  0  0  0  0
  148.0078  134.6430  154.7916 C   0  0  0  0  0  0  0  0  0  0  0  0
  148.1664  135.5797  155.5772 O   0  0  0  0  0  0  0  0  0  0  0  0
  148.9702  133.7080  154.5908 N   0  0  0  0  0  0  0  0  0  0  0  0
  148.8678  132.5018  153.7605 C   0  0  0  0  0  0  0  0  0  0  0  0
  149.0239  131.2663  154.6667 C   0  0  0  0  0  0  0  0  0  0  0  0
  150.2664  131.3286  155.3606 O   0  0  0  0  0  0  0  0  0  0  0  0
  150.3968  132.4986  156.1628 C   0  0  0  0  0  0  0  0  0  0  0  0
  150.2692  133.7467  155.2723 C   0  0  0  0  0  0  0  0  0  0  0  0
  145.6200  133.4795  155.6363 H   0  0  0  0  0  0  0  0  0  0  0  0
  144.5510  134.2902  154.5050 H   0  0  0  0  0  0  0  0  0  0  0  0
  145.4286  135.2265  155.7097 H   0  0  0  0  0  0  0  0  0  0  0  0
  146.6740  133.7087  153.3465 H   0  0  0  0  0  0  0  0  0  0  0  0
  146.3262  136.5500  153.8284 H   0  0  0  0  0  0  0  0  0  0  0  0
  144.4952  134.9786  152.7854 H   0  0  0  0  0  0  0  0  0  0  0  0
  144.7008  136.6801  152.4062 H   0  0  0  0  0  0  0  0  0  0  0  0
  144.9302  135.9143  150.2257 H   0  0  0  0  0  0  0  0  0  0  0  0
  146.5791  135.5654  150.7096 H   0  0  0  0  0  0  0  0  0  0  0  0
  143.1640  133.7527  150.6631 H   0  0  0  0  0  0  0  0  0  0  0  0
  143.7135  131.1260  150.1735 H   0  0  0  0  0  0  0  0  0  0  0  0
  146.4844  131.0647  150.1339 H   0  0  0  0  0  0  0  0  0  0  0  0
  147.9349  132.4150  153.2091 H   0  0  0  0  0  0  0  0  0  0  0  0
  149.6584  132.5168  153.0089 H   0  0  0  0  0  0  0  0  0  0  0  0
  148.2023  131.2013  155.3819 H   0  0  0  0  0  0  0  0  0  0  0  0
  149.0001  130.3548  154.0694 H   0  0  0  0  0  0  0  0  0  0  0  0
  149.6399  132.5006  156.9489 H   0  0  0  0  0  0  0  0  0  0  0  0
  151.3694  132.4826  156.6547 H   0  0  0  0  0  0  0  0  0  0  0  0
  151.0665  133.7588  154.5277 H   0  0  0  0  0  0  0  0  0  0  0  0
  150.4109  134.6428  155.8776 H   0  0  0  0  0  0  0  0  0  0  0  0
  147.2167  135.9042  152.6112 H   0  0  0  0  0  0  0  0  0  0  0  0
  1  2  1  0  0  0  0
  1 19  1  0  0  0  0
  1 20  1  0  0  0  0
  1 21  1  0  0  0  0
  2  3  1  0  0  0  0
  2 11  1  0  0  0  0
  2 22  1  0  0  0  0
  3  4  1  0  0  0  0
  3 23  1  0  0  0  0
  3 39  1  0  0  0  0
  4  5  1  0  0  0  0
  4 24  1  0  0  0  0
  4 25  1  0  0  0  0
  5  6  1  0  0  0  0
  5 26  1  0  0  0  0
  5 27  1  0  0  0  0
  6 10  1  0  0  0  0
  6  7  1  0  0  0  0
  7  8  2  0  0  0  0
  7 28  1  0  0  0  0
  8  9  1  0  0  0  0
  8 29  1  0  0  0  0
  9 10  2  0  0  0  0
  9 30  1  0  0  0  0
 11 12  2  0  0  0  0
 11 13  1  0  0  0  0
 13 18  1  0  0  0  0
 13 14  1  0  0  0  0
 14 15  1  0  0  0  0
 14 31  1  0  0  0  0
 14 32  1  0  0  0  0
 15 16  1  0  0  0  0
 15 33  1  0  0  0  0
 15 34  1  0  0  0  0
 16 17  1  0  0  0  0
 17 18  1  0  0  0  0
 17 35  1  0  0  0  0
 17 36  1  0  0  0  0
 18 37  1  0  0  0  0
 18 38  1  0  0  0  0
M  CHG  1   3   1
M  END
> <s_m_source_file>
AV-unprocessed.smi

> <i_m_source_file_index>
3322

> <i_lp_mmshare_version>
43012

> <i_f3d_flags>
0

> <s_epik_input>
W0NIMl0xW0NIMl1PW0NIMl1bQ0gyXU4xQyg9TylbQ0BIXShbQ0gzXSlbTkhdW0NIMl1bQ0gyXW4yW2NIXVtjSF1bY0hdbjI=

> <s_epik_cmdline>
J2VwaWtfcHl0aG9uJywgJy1waCcsICc3LjAnLCAnLXRuJywgJzgnLCAnLW1hJywgJzIwMCcsICctbWV0YWxfYmluZGluZycsICctaW1hZScsICc8aW5maWxlLm1hZT4nLCAnLW9tYWUnLCAnPG91dGZpbGUubWFlPic=

> <r_lp_tautomer_probability>
1

> <r_epik_Ionization_Penalty>
0.3254

> <r_epik_Ionization_Penalty_Charging>
0.325398

> <r_epik_Ionization_Penalty_Neutral>
2.29478e-06

> <r_epik_State_Penalty>
0.320187

> <r_epik_Charging_Adjusted_Penalty>
0.645585

> <i_epik_Tot_Q>
1

> <i_epik_Tot_abs_Q>
1

> <r_epik_Metal_State_Penalty>
0.320558

> <b_epik_Metal_Only>
0

> <s_lp_Force_Field>
OPLS_2005

> <r_lp_Energy>
25.7531

> <b_lp_Chiralities_Consistent>
1

> <s_lp_Variant>
AV-unprocessed.smi:3322-2

> <Gold.Version>
5.8.1

> <Gold.Id.Protein>
6NUR|6NUR_protein|mol2

> <Gold.PLP.Fitness>
41.7356

> <Gold.PLP.PLP>
-31.0835

> <Gold.PLP.part.hbond>
-1.0018

> <Gold.PLP.part.metal>
0.0000

> <Gold.PLP.part.buried>
-3.9257

> <Gold.PLP.part.nonpolar>
-25.6750

> <Gold.PLP.part.repulsive>
0.5568

> <Gold.PLP.ligand.clash>
0.0000

> <Gold.PLP.ligand.torsion>
0.6829

> <Gold.PLP.Chemscore.Hbond>
2.0000

> <Gold.PLP.Chemscore.CHOScore>
2.0000

> <Gold.PLP.Chemscore.Metal>
0.0000

> <Gold.Chemscore.Hbonds>
donor molecule, donor type, donor heavy atom, donor atom, acceptor molecule, acceptor atom, score
      L1  H     3    39       P1  7948  2.00
      L1  C     7    28       P1 10186  1.00
      L1  C     9    30       P1 10747  1.00

> <Gold.PLP.Chemscore.Internal.Correction>
0.0180

> <Gold.Rescore>
     Score         DG    S(hbond)    S(metal)    S(lipo)     H(rot)  DE(clash)    DE(int)     intcor
     11.22     -11.78       1.00        0.00      67.07       1.91       0.00       0.55       ----

> <Gold.Chemscore.Fitness>
11.2224

> <Gold.Chemscore.DG>
-11.7776

> <Gold.Chemscore.ZeroCoef>
-5.4800

> <Gold.Chemscore.Hbond>
0.9997

> <Gold.Chemscore.Metal>
0.0000

> <Gold.Chemscore.Lipo>
67.0677

> <Gold.Chemscore.Internal_Hbond>
0.0000

> <Gold.Chemscore.DEClash>
0.0025

> <Gold.Chemscore.DEInternal>
0.5527

> <Gold.Chemscore.Rot>
1.9095

> <Gold.Chemscore.Internal.Correction>
   9.000000E+99

> <Gold.Chemscore.Hbonds>
donor molecule, donor type, donor heavy atom, donor atom, acceptor molecule, acceptor atom, score
      L1  H     3    39       P1  7948  1.00

> <Gold.Chemscore.Hbond.Weighted>
-3.3391

> <Gold.Chemscore.Metal.Weighted>
-0.0000

> <Gold.Chemscore.Lipo.Weighted>
-7.8469

> <Gold.Chemscore.Internal_Hbond.Weighted>
0.0000

> <Gold.Chemscore.DEClash.Weighted>
0.0025

> <Gold.Chemscore.DEInternal.Weighted>
0.5527

> <Gold.Chemscore.Rot.Weighted>
4.8884

> <Gold.Chemscore.Internal.Correction.Weighted>
   9.000000E+99

> <Gold.Protein.RotatedTorsions>
[ 6907 6896 6895 6894 ] final   32.82 input  -60.11 | X-H torsion
[ 7974 7965 7964 7962 ] final  -92.21 input  175.53 | X-H torsion
[ 8008 7997 7996 7995 ] final  169.12 input   59.86 | X-H torsion
[ 10167 10162 10161 10158 ] final   35.29 input  -65.29 | X-H torsion
[ 10718 10713 10712 10709 ] final   71.33 input   66.30 | X-H torsion
[ 10763 10752 10751 10750 ] final -173.97 input  -60.55 | X-H torsion
[ 11005 11000 10999 10996 ] final -101.13 input  -57.11 | X-H torsion

> <Gold.Protein.ActiveResidues>
 VAL166  LYS551  ARG553  GLY616  TRP617  ASP618  TYR619  PRO620  LYS621  CYS622 
 ASP623  PHE694  ASN695  SER759  ASP760  ASP761  ALA762  ILE779  LEU786  VAL792 
 PHE793  MET794  SER795  GLU796  ALA797  LYS798  CYS799  TRP800  GLU811  SER814 

> <Gold.Protein.RotatedAtoms>
  152.0799  134.9478  160.0573 H   0  0  0  0  0  0  0  0  0  0  0  0  # atno 6907 bound_to 6896
  152.0771  133.4130  159.4493 H   0  0  0  0  0  0  0  0  0  0  0  0  # atno 6908 bound_to 6896
  150.6836  134.2945  159.4724 H   0  0  0  0  0  0  0  0  0  0  0  0  # atno 6909 bound_to 6896
  145.4028  140.9539  143.2278 H   0  0  0  0  0  0  0  0  0  0  0  0  # atno 7974 bound_to 7965
  156.1486  140.1572  156.8807 H   0  0  0  0  0  0  0  0  0  0  0  0  # atno 8008 bound_to 7997
  154.5050  140.0815  156.7913 H   0  0  0  0  0  0  0  0  0  0  0  0  # atno 8009 bound_to 7997
  155.3941  140.3411  155.4255 H   0  0  0  0  0  0  0  0  0  0  0  0  # atno 8010 bound_to 7997
  140.4236  144.1425  150.6150 H   0  0  0  0  0  0  0  0  0  0  0  0  # atno 10167 bound_to 10162
  157.6446  130.9523  150.0774 H   0  0  0  0  0  0  0  0  0  0  0  0  # atno 10718 bound_to 10713
  154.6017  135.2855  155.0528 H   0  0  0  0  0  0  0  0  0  0  0  0  # atno 10763 bound_to 10752
  154.1790  135.6460  153.5033 H   0  0  0  0  0  0  0  0  0  0  0  0  # atno 10764 bound_to 10752
  153.0159  135.5419  154.6739 H   0  0  0  0  0  0  0  0  0  0  0  0  # atno 10765 bound_to 10752
  141.1243  133.8454  157.1193 H   0  0  0  0  0  0  0  0  0  0  0  0  # atno 11005 bound_to 11000
  144.8362  139.5546  143.6921 LP  0  0  0  0  0  0  0  0  0  0  0  0  # atno 17320 bound_to 7965
  146.2743  139.6714  142.9274 LP  0  0  0  0  0  0  0  0  0  0  0  0  # atno 17321 bound_to 7965
  140.4506  143.2488  151.9352 LP  0  0  0  0  0  0  0  0  0  0  0  0  # atno 17342 bound_to 10162
  139.4783  144.5566  151.8305 LP  0  0  0  0  0  0  0  0  0  0  0  0  # atno 17343 bound_to 10162
  156.1760  130.3648  149.9099 LP  0  0  0  0  0  0  0  0  0  0  0  0  # atno 17370 bound_to 10713
  156.7063  130.8952  151.3605 LP  0  0  0  0  0  0  0  0  0  0  0  0  # atno 17371 bound_to 10713
  140.0227  134.9938  157.0624 LP  0  0  0  0  0  0  0  0  0  0  0  0  # atno 17394 bound_to 11000
  140.4413  134.1678  155.7174 LP  0  0  0  0  0  0  0  0  0  0  0  0  # atno 17395 bound_to 11000

$$$$
