AV-unprocessed.smi:3090|AV-procd|sdf|11775|dock1
  -GOLD-   2272017153D 1   1.00000     0.00000
 Structure written by MMmdl.
 22 22  0  0  0  0  0  0  0  0  2 V2000
  146.2389  129.4481  152.5750 C   0  0  0  0  0  0  0  0  0  0  0  0
  145.8580  130.7110  151.9799 N   0  0  0  0  0  0  0  0  0  0  0  0
  144.7548  130.9999  151.2065 C   0  0  0  0  0  0  0  0  0  0  0  0
  144.8208  132.3248  150.8727 C   0  0  0  0  0  0  0  0  0  0  0  0
  143.8676  133.1512  150.0502 C   0  0  1  0  0  0  0  0  0  0  0  0
  144.2801  134.5022  149.9850 O   0  0  0  0  0  0  0  0  0  0  0  0
  143.7713  132.6016  148.6162 C   0  0  0  0  0  0  0  0  0  0  0  0
  142.3721  132.4296  148.1881 N   0  3  0  0  0  0  0  0  0  0  0  0
  146.0213  132.7610  151.5037 C   0  0  0  0  0  0  0  0  0  0  0  0
  146.6381  131.7952  152.1641 N   0  0  0  0  0  0  0  0  0  0  0  0
  145.5020  128.6820  152.3317 H   0  0  0  0  0  0  0  0  0  0  0  0
  146.2962  129.5525  153.6589 H   0  0  0  0  0  0  0  0  0  0  0  0
  147.2116  129.1378  152.1922 H   0  0  0  0  0  0  0  0  0  0  0  0
  144.0201  130.2471  150.9602 H   0  0  0  0  0  0  0  0  0  0  0  0
  142.8759  133.1370  150.5045 H   0  0  0  0  0  0  0  0  0  0  0  0
  144.8542  134.6055  149.2406 H   0  0  0  0  0  0  0  0  0  0  0  0
  144.2826  133.2603  147.9128 H   0  0  0  0  0  0  0  0  0  0  0  0
  144.2613  131.6291  148.5552 H   0  0  0  0  0  0  0  0  0  0  0  0
  141.8130  133.1921  148.5430 H   0  0  0  0  0  0  0  0  0  0  0  0
  142.0200  131.5549  148.5508 H   0  0  0  0  0  0  0  0  0  0  0  0
  146.4593  133.7484  151.5018 H   0  0  0  0  0  0  0  0  0  0  0  0
  142.3269  132.4173  147.1793 H   0  0  0  0  0  0  0  0  0  0  0  0
  1  2  1  0  0  0  0
  1 11  1  0  0  0  0
  1 12  1  0  0  0  0
  1 13  1  0  0  0  0
  2 10  1  0  0  0  0
  2  3  1  0  0  0  0
  3  4  2  0  0  0  0
  3 14  1  0  0  0  0
  4  5  1  0  0  0  0
  4  9  1  0  0  0  0
  5  6  1  0  0  0  0
  5  7  1  0  0  0  0
  5 15  1  0  0  0  0
  6 16  1  0  0  0  0
  7  8  1  0  0  0  0
  7 17  1  0  0  0  0
  7 18  1  0  0  0  0
  8 19  1  0  0  0  0
  8 20  1  0  0  0  0
  8 22  1  0  0  0  0
  9 10  2  0  0  0  0
  9 21  1  0  0  0  0
M  CHG  1   8   1
M  END
> <s_m_source_file>
AV-unprocessed.smi

> <i_m_source_file_index>
3090

> <i_lp_mmshare_version>
43012

> <i_f3d_flags>
0

> <s_epik_input>
W0NIM11uMVtjSF1jKFtjSF1uMSlbQ0BIXShbT0hdKVtDSDJdW05IMl0=

> <s_epik_cmdline>
J2VwaWtfcHl0aG9uJywgJy1waCcsICc3LjAnLCAnLXRuJywgJzgnLCAnLW1hJywgJzIwMCcsICctbWV0YWxfYmluZGluZycsICctaW1hZScsICc8aW5maWxlLm1hZT4nLCAnLW9tYWUnLCAnPG91dGZpbGUubWFlPic=

> <r_lp_tautomer_probability>
1

> <r_epik_Ionization_Penalty>
0.014056

> <r_epik_Ionization_Penalty_Charging>
0.0140431

> <r_epik_Ionization_Penalty_Neutral>
1.29738e-05

> <r_epik_State_Penalty>
0.0109628

> <r_epik_Charging_Adjusted_Penalty>
0.0250059

> <i_epik_Tot_Q>
1

> <i_epik_Tot_abs_Q>
1

> <r_epik_Metal_State_Penalty>
0.0109636

> <b_epik_Metal_Only>
0

> <s_lp_Force_Field>
OPLS_2005

> <r_lp_Energy>
1.35566

> <b_lp_Chiralities_Consistent>
1

> <s_lp_Variant>
AV-unprocessed.smi:3090-2

> <Gold.Version>
5.8.1

> <Gold.Id.Protein>
6NUR|6NUR_protein|mol2

> <Gold.PLP.Fitness>
39.1253

> <Gold.PLP.PLP>
-25.4956

> <Gold.PLP.part.hbond>
-4.0928

> <Gold.PLP.part.metal>
0.0000

> <Gold.PLP.part.buried>
-4.9774

> <Gold.PLP.part.nonpolar>
-17.7472

> <Gold.PLP.part.repulsive>
0.6507

> <Gold.PLP.ligand.clash>
0.0000

> <Gold.PLP.ligand.torsion>
0.6864

> <Gold.PLP.Chemscore.Hbond>
5.0000

> <Gold.PLP.Chemscore.CHOScore>
0.0000

> <Gold.PLP.Chemscore.Metal>
0.0000

> <Gold.Chemscore.Hbonds>
donor molecule, donor type, donor heavy atom, donor atom, acceptor molecule, acceptor atom, score
      L1  H     6    16       P1  7921  0.91
      L1  H     8    19       P1 10186  2.00
      L1  H     8    20       P1 10952  1.00
      L1  H     8    22       P1 10195  1.00

> <Gold.PLP.Chemscore.Internal.Correction>
0.0024

> <Gold.Rescore>
     Score         DG    S(hbond)    S(metal)    S(lipo)     H(rot)  DE(clash)    DE(int)     intcor
     19.52     -20.63       3.97        0.00      58.91       1.96       0.43       0.69       ----

> <Gold.Chemscore.Fitness>
19.5204

> <Gold.Chemscore.DG>
-20.6349

> <Gold.Chemscore.ZeroCoef>
-5.4800

> <Gold.Chemscore.Hbond>
3.9723

> <Gold.Chemscore.Metal>
0.0000

> <Gold.Chemscore.Lipo>
58.9098

> <Gold.Chemscore.Internal_Hbond>
0.0000

> <Gold.Chemscore.DEClash>
0.4261

> <Gold.Chemscore.DEInternal>
0.6884

> <Gold.Chemscore.Rot>
1.9551

> <Gold.Chemscore.Internal.Correction>
   9.000000E+99

> <Gold.Chemscore.Hbonds>
donor molecule, donor type, donor heavy atom, donor atom, acceptor molecule, acceptor atom, score
      L1  H     6    16       P1  7921  0.89
      L1  H     8    19       P1 10186  1.00
      L1  H     8    20       P1 10952  0.97
      L1  H     8    22       P1 10195  0.95

> <Gold.Chemscore.Hbond.Weighted>
-13.2675

> <Gold.Chemscore.Metal.Weighted>
-0.0000

> <Gold.Chemscore.Lipo.Weighted>
-6.8924

> <Gold.Chemscore.Internal_Hbond.Weighted>
0.0000

> <Gold.Chemscore.DEClash.Weighted>
0.4261

> <Gold.Chemscore.DEInternal.Weighted>
0.6884

> <Gold.Chemscore.Rot.Weighted>
5.0051

> <Gold.Chemscore.Internal.Correction.Weighted>
   9.000000E+99

> <Gold.Protein.RotatedTorsions>
[ 6907 6896 6895 6894 ] final -130.62 input  -60.11 | X-H torsion
[ 7974 7965 7964 7962 ] final  -98.00 input  175.53 | X-H torsion
[ 8008 7997 7996 7995 ] final   49.11 input   59.86 | X-H torsion
[ 10167 10162 10161 10158 ] final   41.34 input  -65.29 | X-H torsion
[ 10718 10713 10712 10709 ] final   83.92 input   66.30 | X-H torsion
[ 10763 10752 10751 10750 ] final  -32.13 input  -60.55 | X-H torsion
[ 11005 11000 10999 10996 ] final  -89.60 input  -57.11 | X-H torsion

> <Gold.Protein.ActiveResidues>
 VAL166  LYS551  ARG553  GLY616  TRP617  ASP618  TYR619  PRO620  LYS621  CYS622 
 ASP623  PHE694  ASN695  SER759  ASP760  ASP761  ALA762  ILE779  LEU786  VAL792 
 PHE793  MET794  SER795  GLU796  ALA797  LYS798  CYS799  TRP800  GLU811  SER814 

> <Gold.Protein.RotatedAtoms>
  150.9418  133.6648  159.2788 H   0  0  0  0  0  0  0  0  0  0  0  0  # atno 6907 bound_to 6896
  151.4034  135.0973  159.9572 H   0  0  0  0  0  0  0  0  0  0  0  0  # atno 6908 bound_to 6896
  152.5073  133.8907  159.7447 H   0  0  0  0  0  0  0  0  0  0  0  0  # atno 6909 bound_to 6896
  145.3263  140.9432  143.2687 H   0  0  0  0  0  0  0  0  0  0  0  0  # atno 7974 bound_to 7965
  155.3967  140.3436  155.4254 H   0  0  0  0  0  0  0  0  0  0  0  0  # atno 8008 bound_to 7997
  156.1526  140.1576  156.8776 H   0  0  0  0  0  0  0  0  0  0  0  0  # atno 8009 bound_to 7997
  154.5066  140.0800  156.7888 H   0  0  0  0  0  0  0  0  0  0  0  0  # atno 8010 bound_to 7997
  140.3653  144.2175  150.6136 H   0  0  0  0  0  0  0  0  0  0  0  0  # atno 10167 bound_to 10162
  157.6888  131.0111  150.2595 H   0  0  0  0  0  0  0  0  0  0  0  0  # atno 10718 bound_to 10713
  153.8087  135.6884  153.4844 H   0  0  0  0  0  0  0  0  0  0  0  0  # atno 10763 bound_to 10752
  153.1642  135.4568  154.9812 H   0  0  0  0  0  0  0  0  0  0  0  0  # atno 10764 bound_to 10752
  154.7976  135.3325  154.7570 H   0  0  0  0  0  0  0  0  0  0  0  0  # atno 10765 bound_to 10752
  141.1581  133.7640  156.9618 H   0  0  0  0  0  0  0  0  0  0  0  0  # atno 11005 bound_to 11000
  144.8899  139.4788  143.6683 LP  0  0  0  0  0  0  0  0  0  0  0  0  # atno 17320 bound_to 7965
  146.3063  139.7591  142.9054 LP  0  0  0  0  0  0  0  0  0  0  0  0  # atno 17321 bound_to 7965
  140.5087  143.2297  151.8569 LP  0  0  0  0  0  0  0  0  0  0  0  0  # atno 17342 bound_to 10162
  139.4809  144.4975  151.9104 LP  0  0  0  0  0  0  0  0  0  0  0  0  # atno 17343 bound_to 10162
  156.3177  130.3781  149.7604 LP  0  0  0  0  0  0  0  0  0  0  0  0  # atno 17370 bound_to 10713
  156.5184  130.8204  151.3194 LP  0  0  0  0  0  0  0  0  0  0  0  0  # atno 17371 bound_to 10713
  140.1188  134.9430  157.2173 LP  0  0  0  0  0  0  0  0  0  0  0  0  # atno 17394 bound_to 11000
  140.3099  134.3035  155.7269 LP  0  0  0  0  0  0  0  0  0  0  0  0  # atno 17395 bound_to 11000

$$$$
