AV-unprocessed.smi:2124|AV-procd|sdf|8671|dock10
  -GOLD-   2272011423D 1   1.00000     0.00000
 Structure written by MMmdl.
 46 48  0  0  0  0  0  0  0  0  2 V2000
  149.0063  133.7074  155.4223 C   0  0  0  0  0  0  0  0  0  0  0  0
  149.6393  135.0824  155.4185 C   0  0  0  0  0  0  0  0  0  0  0  0
  149.0060  136.0607  154.8921 N   0  0  0  0  0  0  0  0  0  0  0  0
  149.5866  137.3405  154.8925 C   0  0  0  0  0  0  0  0  0  0  0  0
  148.7632  138.4440  154.2510 C   0  0  0  0  0  0  0  0  0  0  0  0
  150.8149  137.5577  155.4443 C   0  0  0  0  0  0  0  0  0  0  0  0
  151.4869  138.9303  155.4789 C   0  0  0  0  0  0  0  0  0  0  0  0
  152.0482  139.3802  156.8299 C   0  0  0  0  0  0  0  0  0  0  0  0
  153.1599  139.0068  157.2043 O   0  0  0  0  0  0  0  0  0  0  0  0
  151.2566  140.1982  157.5442 N   0  0  0  0  0  0  0  0  0  0  0  0
  151.5463  140.8107  158.8437 C   0  0  1  0  0  0  0  0  0  0  0  0
  152.4195  139.8770  159.7050 C   0  0  0  0  0  0  0  0  0  0  0  0
  152.1383  142.2403  158.7090 C   0  0  2  0  0  0  0  0  0  0  0  0
  152.3624  142.9471  160.0680 C   0  0  0  0  0  0  0  0  0  0  0  0
  151.6207  144.2848  159.8986 C   0  0  1  0  0  0  0  0  0  0  0  0
  152.3719  145.1673  158.8850 C   0  0  0  0  0  0  0  0  0  0  0  0
  152.0742  144.4701  157.5446 C   0  0  0  0  0  0  0  0  0  0  0  0
  151.2266  143.2575  157.9737 C   0  0  2  0  0  0  0  0  0  0  0  0
  150.3952  143.8555  159.1039 C   0  0  0  0  0  0  0  0  0  0  0  0
  151.5159  136.4019  156.0310 C   0  0  0  0  0  0  0  0  0  0  0  0
  152.6351  136.5394  156.5239 O   0  0  0  0  0  0  0  0  0  0  0  0
  150.8825  135.1949  155.9993 N   0  5  0  0  0  0  0  0  0  0  0  0
  148.1635  133.6616  154.7313 H   0  0  0  0  0  0  0  0  0  0  0  0
  148.6452  133.4638  156.4217 H   0  0  0  0  0  0  0  0  0  0  0  0
  149.7323  132.9506  155.1228 H   0  0  0  0  0  0  0  0  0  0  0  0
  148.4616  139.1777  154.9985 H   0  0  0  0  0  0  0  0  0  0  0  0
  147.8594  138.0442  153.7897 H   0  0  0  0  0  0  0  0  0  0  0  0
  149.3360  138.9524  153.4754 H   0  0  0  0  0  0  0  0  0  0  0  0
  152.3089  138.9277  154.7628 H   0  0  0  0  0  0  0  0  0  0  0  0
  150.8047  139.6983  155.1128 H   0  0  0  0  0  0  0  0  0  0  0  0
  150.3625  140.4325  157.1380 H   0  0  0  0  0  0  0  0  0  0  0  0
  150.5777  140.8912  159.3376 H   0  0  0  0  0  0  0  0  0  0  0  0
  152.5136  140.2475  160.7255 H   0  0  0  0  0  0  0  0  0  0  0  0
  153.4275  139.7781  159.3019 H   0  0  0  0  0  0  0  0  0  0  0  0
  151.9857  138.8783  159.7631 H   0  0  0  0  0  0  0  0  0  0  0  0
  153.0921  142.1686  158.1849 H   0  0  0  0  0  0  0  0  0  0  0  0
  151.9210  142.3841  160.8911 H   0  0  0  0  0  0  0  0  0  0  0  0
  153.4205  143.0843  160.2940 H   0  0  0  0  0  0  0  0  0  0  0  0
  151.4054  144.7870  160.8422 H   0  0  0  0  0  0  0  0  0  0  0  0
  151.9775  146.1841  158.8845 H   0  0  0  0  0  0  0  0  0  0  0  0
  153.4401  145.2212  159.0981 H   0  0  0  0  0  0  0  0  0  0  0  0
  151.5010  145.1283  156.8904 H   0  0  0  0  0  0  0  0  0  0  0  0
  152.9806  144.1802  157.0118 H   0  0  0  0  0  0  0  0  0  0  0  0
  150.6458  142.8402  157.1509 H   0  0  0  0  0  0  0  0  0  0  0  0
  149.7744  143.1245  159.6239 H   0  0  0  0  0  0  0  0  0  0  0  0
  149.7708  144.6927  158.7862 H   0  0  0  0  0  0  0  0  0  0  0  0
  1  2  1  0  0  0  0
  1 23  1  0  0  0  0
  1 24  1  0  0  0  0
  1 25  1  0  0  0  0
  2 22  1  0  0  0  0
  2  3  2  0  0  0  0
  3  4  1  0  0  0  0
  4  5  1  0  0  0  0
  4  6  2  0  0  0  0
  5 26  1  0  0  0  0
  5 27  1  0  0  0  0
  5 28  1  0  0  0  0
  6  7  1  0  0  0  0
  6 20  1  0  0  0  0
  7  8  1  0  0  0  0
  7 29  1  0  0  0  0
  7 30  1  0  0  0  0
  8  9  2  0  0  0  0
  8 10  1  0  0  0  0
 10 11  1  0  0  0  0
 10 31  1  0  0  0  0
 11 12  1  0  0  0  0
 11 13  1  0  0  0  0
 11 32  1  0  0  0  0
 12 33  1  0  0  0  0
 12 34  1  0  0  0  0
 12 35  1  0  0  0  0
 13 18  1  0  0  0  0
 13 14  1  0  0  0  0
 13 36  1  0  0  0  0
 14 15  1  0  0  0  0
 14 37  1  0  0  0  0
 14 38  1  0  0  0  0
 15 19  1  0  0  0  0
 15 16  1  0  0  0  0
 15 39  1  0  0  0  0
 16 17  1  0  0  0  0
 16 40  1  0  0  0  0
 16 41  1  0  0  0  0
 17 18  1  0  0  0  0
 17 42  1  0  0  0  0
 17 43  1  0  0  0  0
 18 19  1  0  0  0  0
 18 44  1  0  0  0  0
 19 45  1  0  0  0  0
 19 46  1  0  0  0  0
 20 21  2  0  0  0  0
 20 22  1  0  0  0  0
M  CHG  1  22  -1
M  END
> <s_m_source_file>
AV-unprocessed.smi

> <i_m_source_file_index>
2124

> <i_lp_mmshare_version>
43012

> <i_f3d_flags>
0

> <s_epik_input>
W0NIM11jMW5jKFtDSDNdKWMoYyg9TylbbkhdMSlbQ0gyXUMoPU8pW05IXVtDQEhdKFtDSDNdKVtDQEhdKFtDSDJdW0NASF0yMylbQ0BIXShbQ0gyXTMpW0NIMl1bQ0gyXTI=

> <s_epik_cmdline>
J2VwaWtfcHl0aG9uJywgJy1waCcsICc3LjAnLCAnLXRuJywgJzgnLCAnLW1hJywgJzIwMCcsICctbWV0YWxfYmluZGluZycsICctaW1hZScsICc8aW5maWxlLm1hZT4nLCAnLW9tYWUnLCAnPG91dGZpbGUubWFlPic=

> <r_lp_tautomer_probability>
0.839158

> <r_epik_Ionization_Penalty>
6.63797

> <r_epik_Ionization_Penalty_Charging>
7.48558e-08

> <r_epik_Ionization_Penalty_Neutral>
6.63797

> <r_epik_State_Penalty>
4.49496

> <r_epik_Charging_Adjusted_Penalty>
4.49496

> <i_epik_Tot_Q>
-1

> <i_epik_Tot_abs_Q>
1

> <r_epik_Metal_State_Penalty>
0.841241

> <b_epik_Metal_Only>
1

> <s_lp_Force_Field>
OPLS_2005

> <r_lp_Energy>
55.5878

> <b_lp_Chiralities_Consistent>
1

> <s_lp_Variant>
AV-unprocessed.smi:2124-22

> <Gold.Version>
5.8.1

> <Gold.Id.Protein>
6NUR|6NUR_protein|mol2

> <Gold.PLP.Fitness>
42.3979

> <Gold.PLP.PLP>
-38.8431

> <Gold.PLP.part.hbond>
-2.4624

> <Gold.PLP.part.metal>
0.0000

> <Gold.PLP.part.buried>
-4.8563

> <Gold.PLP.part.nonpolar>
-33.2604

> <Gold.PLP.part.repulsive>
0.2370

> <Gold.PLP.ligand.clash>
0.0234

> <Gold.PLP.ligand.torsion>
0.8065

> <Gold.PLP.Chemscore.Hbond>
1.7113

> <Gold.PLP.Chemscore.CHOScore>
0.0000

> <Gold.PLP.Chemscore.Metal>
0.0000

> <Gold.Chemscore.Hbonds>
donor molecule, donor type, donor heavy atom, donor atom, acceptor molecule, acceptor atom, score
      P1  H  7997  8010       L1     9  1.00
      P1  H 10752 10763       L1    21  0.77

> <Gold.PLP.Chemscore.Internal.Correction>
0.0574

> <Gold.Rescore>
     Score         DG    S(hbond)    S(metal)    S(lipo)     H(rot)  DE(clash)    DE(int)     intcor
     15.00     -20.02       1.59        0.00     114.09       1.61       0.12       4.89       ----

> <Gold.Chemscore.Fitness>
14.9984

> <Gold.Chemscore.DG>
-20.0169

> <Gold.Chemscore.ZeroCoef>
-5.4800

> <Gold.Chemscore.Hbond>
1.5861

> <Gold.Chemscore.Metal>
0.0000

> <Gold.Chemscore.Lipo>
114.0867

> <Gold.Chemscore.Internal_Hbond>
0.0000

> <Gold.Chemscore.DEClash>
0.1248

> <Gold.Chemscore.DEInternal>
4.8938

> <Gold.Chemscore.Rot>
1.6051

> <Gold.Chemscore.Internal.Correction>
   9.000000E+99

> <Gold.Chemscore.Hbonds>
donor molecule, donor type, donor heavy atom, donor atom, acceptor molecule, acceptor atom, score
      P1  H  7997  8010       L1     9  0.78
      P1  H 10752 10763       L1    21  0.22

> <Gold.Chemscore.Hbond.Weighted>
-5.2977

> <Gold.Chemscore.Metal.Weighted>
-0.0000

> <Gold.Chemscore.Lipo.Weighted>
-13.3481

> <Gold.Chemscore.Internal_Hbond.Weighted>
0.0000

> <Gold.Chemscore.DEClash.Weighted>
0.1248

> <Gold.Chemscore.DEInternal.Weighted>
4.8938

> <Gold.Chemscore.Rot.Weighted>
4.1090

> <Gold.Chemscore.Internal.Correction.Weighted>
   9.000000E+99

> <Gold.Protein.RotatedTorsions>
[ 6907 6896 6895 6894 ] final  172.19 input  -60.11 | X-H torsion
[ 7974 7965 7964 7962 ] final  160.49 input  175.53 | X-H torsion
[ 8008 7997 7996 7995 ] final   61.34 input   59.86 | X-H torsion
[ 10167 10162 10161 10158 ] final  -18.56 input  -65.29 | X-H torsion
[ 10718 10713 10712 10709 ] final  -69.12 input   66.30 | X-H torsion
[ 10763 10752 10751 10750 ] final  129.49 input  -60.55 | X-H torsion
[ 11005 11000 10999 10996 ] final   -8.57 input  -57.11 | X-H torsion

> <Gold.Protein.ActiveResidues>
 VAL166  LYS551  ARG553  GLY616  TRP617  ASP618  TYR619  PRO620  LYS621  CYS622 
 ASP623  PHE694  ASN695  SER759  ASP760  ASP761  ALA762  ILE779  LEU786  VAL792 
 PHE793  MET794  SER795  GLU796  ALA797  LYS798  CYS799  TRP800  GLU811  SER814 

> <Gold.Protein.RotatedAtoms>
  151.7883  133.3356  159.3491 H   0  0  0  0  0  0  0  0  0  0  0  0  # atno 6907 bound_to 6896
  150.7401  134.5867  159.5976 H   0  0  0  0  0  0  0  0  0  0  0  0  # atno 6908 bound_to 6896
  152.3228  134.7360  160.0361 H   0  0  0  0  0  0  0  0  0  0  0  0  # atno 6909 bound_to 6896
  144.7734  139.7765  143.6288 H   0  0  0  0  0  0  0  0  0  0  0  0  # atno 7974 bound_to 7965
  155.5967  140.3493  155.4582 H   0  0  0  0  0  0  0  0  0  0  0  0  # atno 8008 bound_to 7997
  156.0259  140.1264  157.0333 H   0  0  0  0  0  0  0  0  0  0  0  0  # atno 8009 bound_to 7997
  154.4333  140.1053  156.6016 H   0  0  0  0  0  0  0  0  0  0  0  0  # atno 8010 bound_to 7997
  140.7260  143.4905  150.9999 H   0  0  0  0  0  0  0  0  0  0  0  0  # atno 10167 bound_to 10162
  156.0471  130.4307  150.2102 H   0  0  0  0  0  0  0  0  0  0  0  0  # atno 10718 bound_to 10713
  153.7427  135.3222  155.3307 H   0  0  0  0  0  0  0  0  0  0  0  0  # atno 10763 bound_to 10752
  154.8290  135.4548  154.1011 H   0  0  0  0  0  0  0  0  0  0  0  0  # atno 10764 bound_to 10752
  153.2190  135.6945  153.8104 H   0  0  0  0  0  0  0  0  0  0  0  0  # atno 10765 bound_to 10752
  140.7249  133.8797  155.8848 H   0  0  0  0  0  0  0  0  0  0  0  0  # atno 11005 bound_to 11000
  146.1897  139.5131  142.9813 LP  0  0  0  0  0  0  0  0  0  0  0  0  # atno 17320 bound_to 7965
  145.6256  141.0314  143.1891 LP  0  0  0  0  0  0  0  0  0  0  0  0  # atno 17321 bound_to 7965
  139.8608  143.7316  152.3173 LP  0  0  0  0  0  0  0  0  0  0  0  0  # atno 17342 bound_to 10162
  139.7531  144.7528  151.0476 LP  0  0  0  0  0  0  0  0  0  0  0  0  # atno 17343 bound_to 10162
  157.0190  130.9973  151.3345 LP  0  0  0  0  0  0  0  0  0  0  0  0  # atno 17370 bound_to 10713
  157.5357  130.8087  149.7969 LP  0  0  0  0  0  0  0  0  0  0  0  0  # atno 17371 bound_to 10713
  140.9971  134.1200  157.4353 LP  0  0  0  0  0  0  0  0  0  0  0  0  # atno 17394 bound_to 11000
  139.8839  135.0058  156.6335 LP  0  0  0  0  0  0  0  0  0  0  0  0  # atno 17395 bound_to 11000

$$$$
