AV-unprocessed.smi:2141|AV-procd|sdf|8718|dock3
  -GOLD-   2272011483D 1   1.00000     0.00000
 Structure written by MMmdl.
 42 43  0  0  0  0  0  0  0  0  1 V2000
  153.2322  133.1532  165.5031 C   0  0  0  0  0  0  0  0  0  0  0  0
  154.7202  133.4945  164.4752 S   0  0  0  0  0  0  0  0  0  0  0  0
  155.8971  132.9198  165.1444 O   0  0  0  0  0  0  0  0  0  0  0  0
  154.4088  133.1360  163.0835 O   0  0  0  0  0  0  0  0  0  0  0  0
  154.8661  135.2142  164.5403 N   0  0  0  0  0  0  0  0  0  0  0  0
  154.0524  136.0760  163.6755 C   0  0  0  0  0  0  0  0  0  0  0  0
  154.4080  135.9121  162.1834 C   0  0  0  0  0  0  0  0  0  0  0  0
  153.8478  137.0305  161.3009 C   0  0  0  0  0  0  0  0  0  0  0  0
  153.0827  136.7481  160.3794 O   0  0  0  0  0  0  0  0  0  0  0  0
  154.2393  138.2775  161.6193 N   0  0  0  0  0  0  0  0  0  0  0  0
  153.8067  139.5040  161.0499 C   0  0  0  0  0  0  0  0  0  0  0  0
  153.1261  139.6123  159.8154 C   0  0  0  0  0  0  0  0  0  0  0  0
  152.7500  140.8887  159.3550 C   0  0  0  0  0  0  0  0  0  0  0  0
  153.0685  142.0274  160.1321 C   0  0  0  0  0  0  0  0  0  0  0  0
  152.6911  143.3144  159.6931 N   0  0  0  0  0  0  0  0  0  0  0  0
  151.9740  144.1326  160.6677 C   0  0  0  0  0  0  0  0  0  0  0  0
  151.9008  145.5936  160.1901 C   0  0  0  0  0  0  0  0  0  0  0  0
  151.3263  145.6488  158.8885 O   0  0  0  0  0  0  0  0  0  0  0  0
  152.1067  144.9365  157.9346 C   0  0  0  0  0  0  0  0  0  0  0  0
  152.1789  143.4523  158.3310 C   0  0  0  0  0  0  0  0  0  0  0  0
  153.7321  141.9189  161.3093 N   0  0  0  0  0  0  0  0  0  0  0  0
  154.0944  140.6948  161.7449 C   0  0  0  0  0  0  0  0  0  0  0  0
  153.0357  132.0814  165.5072 H   0  0  0  0  0  0  0  0  0  0  0  0
  152.3704  133.6737  165.0859 H   0  0  0  0  0  0  0  0  0  0  0  0
  153.4027  133.4889  166.5252 H   0  0  0  0  0  0  0  0  0  0  0  0
  155.8128  135.5479  164.7221 H   0  0  0  0  0  0  0  0  0  0  0  0
  152.9949  135.8617  163.8342 H   0  0  0  0  0  0  0  0  0  0  0  0
  154.2051  137.1116  163.9795 H   0  0  0  0  0  0  0  0  0  0  0  0
  155.4917  135.8666  162.0669 H   0  0  0  0  0  0  0  0  0  0  0  0
  154.0252  134.9581  161.8181 H   0  0  0  0  0  0  0  0  0  0  0  0
  154.8223  138.3615  162.4396 H   0  0  0  0  0  0  0  0  0  0  0  0
  152.8920  138.7485  159.2127 H   0  0  0  0  0  0  0  0  0  0  0  0
  152.2116  140.9768  158.4232 H   0  0  0  0  0  0  0  0  0  0  0  0
  150.9677  143.7303  160.7908 H   0  0  0  0  0  0  0  0  0  0  0  0
  152.4486  144.1028  161.6475 H   0  0  0  0  0  0  0  0  0  0  0  0
  151.2872  146.1808  160.8734 H   0  0  0  0  0  0  0  0  0  0  0  0
  152.8921  146.0496  160.1811 H   0  0  0  0  0  0  0  0  0  0  0  0
  151.6489  145.0406  156.9508 H   0  0  0  0  0  0  0  0  0  0  0  0
  153.1058  145.3703  157.8682 H   0  0  0  0  0  0  0  0  0  0  0  0
  152.8240  142.9219  157.6293 H   0  0  0  0  0  0  0  0  0  0  0  0
  151.1877  143.0008  158.2698 H   0  0  0  0  0  0  0  0  0  0  0  0
  154.6212  140.6663  162.6877 H   0  0  0  0  0  0  0  0  0  0  0  0
  1  2  1  0  0  0  0
  1 23  1  0  0  0  0
  1 24  1  0  0  0  0
  1 25  1  0  0  0  0
  2  3  2  0  0  0  0
  2  4  2  0  0  0  0
  2  5  1  0  0  0  0
  5  6  1  0  0  0  0
  5 26  1  0  0  0  0
  6  7  1  0  0  0  0
  6 27  1  0  0  0  0
  6 28  1  0  0  0  0
  7  8  1  0  0  0  0
  7 29  1  0  0  0  0
  7 30  1  0  0  0  0
  8  9  2  0  0  0  0
  8 10  1  0  0  0  0
 10 11  1  0  0  0  0
 10 31  1  0  0  0  0
 11 22  1  0  0  0  0
 11 12  2  0  0  0  0
 12 13  1  0  0  0  0
 12 32  1  0  0  0  0
 13 14  2  0  0  0  0
 13 33  1  0  0  0  0
 14 15  1  0  0  0  0
 14 21  1  0  0  0  0
 15 20  1  0  0  0  0
 15 16  1  0  0  0  0
 16 17  1  0  0  0  0
 16 34  1  0  0  0  0
 16 35  1  0  0  0  0
 17 18  1  0  0  0  0
 17 36  1  0  0  0  0
 17 37  1  0  0  0  0
 18 19  1  0  0  0  0
 19 20  1  0  0  0  0
 19 38  1  0  0  0  0
 19 39  1  0  0  0  0
 20 40  1  0  0  0  0
 20 41  1  0  0  0  0
 21 22  2  0  0  0  0
 22 42  1  0  0  0  0
M  END
> <s_m_source_file>
AV-unprocessed.smi

> <i_m_source_file_index>
2141

> <i_lp_mmshare_version>
43012

> <i_f3d_flags>
0

> <s_epik_input>
W0NIM11TKD1PKSg9TylbTkhdW0NIMl1bQ0gyXUMoPU8pW05IXWMxW2NIXVtjSF1jKG5bY0hdMSlOMltDSDJdW0NIMl1PW0NIMl1bQ0gyXTI=

> <s_epik_cmdline>
J2VwaWtfcHl0aG9uJywgJy1waCcsICc3LjAnLCAnLXRuJywgJzgnLCAnLW1hJywgJzIwMCcsICctbWV0YWxfYmluZGluZycsICctaW1hZScsICc8aW5maWxlLm1hZT4nLCAnLW9tYWUnLCAnPG91dGZpbGUubWFlPic=

> <r_lp_tautomer_probability>
1

> <r_epik_Ionization_Penalty>
0.000610192

> <r_epik_Ionization_Penalty_Charging>
0

> <r_epik_Ionization_Penalty_Neutral>
0.000610192

> <r_epik_State_Penalty>
0.000370803

> <r_epik_Charging_Adjusted_Penalty>
0.000370803

> <i_epik_Tot_Q>
0

> <i_epik_Tot_abs_Q>
0

> <r_epik_Metal_State_Penalty>
0.0170256

> <b_epik_Metal_Only>
0

> <s_lp_Force_Field>
OPLS_2005

> <r_lp_Energy>
9.95274

> <b_lp_Chiralities_Consistent>
1

> <s_lp_Variant>
AV-unprocessed.smi:2141-1

> <Gold.Version>
5.8.1

> <Gold.Id.Protein>
6NUR|6NUR_protein|mol2

> <Gold.PLP.Fitness>
48.0214

> <Gold.PLP.PLP>
-45.5343

> <Gold.PLP.part.hbond>
-2.0773

> <Gold.PLP.part.metal>
0.0000

> <Gold.PLP.part.buried>
-6.9969

> <Gold.PLP.part.nonpolar>
-36.0321

> <Gold.PLP.part.repulsive>
0.1994

> <Gold.PLP.ligand.clash>
0.0000

> <Gold.PLP.ligand.torsion>
0.8095

> <Gold.PLP.Chemscore.Hbond>
0.9100

> <Gold.PLP.Chemscore.CHOScore>
0.0000

> <Gold.PLP.Chemscore.Metal>
0.0000

> <Gold.Chemscore.Hbonds>
donor molecule, donor type, donor heavy atom, donor atom, acceptor molecule, acceptor atom, score
      P1  H  6896  6907       L1     9  1.00

> <Gold.PLP.Chemscore.Internal.Correction>
1.3762

> <Gold.Rescore>
     Score         DG    S(hbond)    S(metal)    S(lipo)     H(rot)  DE(clash)    DE(int)     intcor
     13.71     -16.10       1.00        0.00     105.90       1.99       0.26       2.13       ----

> <Gold.Chemscore.Fitness>
13.7098

> <Gold.Chemscore.DG>
-16.0978

> <Gold.Chemscore.ZeroCoef>
-5.4800

> <Gold.Chemscore.Hbond>
0.9966

> <Gold.Chemscore.Metal>
0.0000

> <Gold.Chemscore.Lipo>
105.8977

> <Gold.Chemscore.Internal_Hbond>
0.0000

> <Gold.Chemscore.DEClash>
0.2553

> <Gold.Chemscore.DEInternal>
2.1327

> <Gold.Chemscore.Rot>
1.9925

> <Gold.Chemscore.Internal.Correction>
   9.000000E+99

> <Gold.Chemscore.Hbonds>
donor molecule, donor type, donor heavy atom, donor atom, acceptor molecule, acceptor atom, score
      P1  H  6896  6907       L1     9  0.94

> <Gold.Chemscore.Hbond.Weighted>
-3.3286

> <Gold.Chemscore.Metal.Weighted>
-0.0000

> <Gold.Chemscore.Lipo.Weighted>
-12.3900

> <Gold.Chemscore.Internal_Hbond.Weighted>
0.0000

> <Gold.Chemscore.DEClash.Weighted>
0.2553

> <Gold.Chemscore.DEInternal.Weighted>
2.1327

> <Gold.Chemscore.Rot.Weighted>
5.1008

> <Gold.Chemscore.Internal.Correction.Weighted>
   9.000000E+99

> <Gold.Protein.RotatedTorsions>
[ 6907 6896 6895 6894 ] final   31.48 input  -60.11 | X-H torsion
[ 7974 7965 7964 7962 ] final   52.95 input  175.53 | X-H torsion
[ 8008 7997 7996 7995 ] final  -37.99 input   59.86 | X-H torsion
[ 10167 10162 10161 10158 ] final  -18.75 input  -65.29 | X-H torsion
[ 10718 10713 10712 10709 ] final   32.79 input   66.30 | X-H torsion
[ 10763 10752 10751 10750 ] final -139.14 input  -60.55 | X-H torsion
[ 11005 11000 10999 10996 ] final  153.22 input  -57.11 | X-H torsion

> <Gold.Protein.ActiveResidues>
 VAL166  LYS551  ARG553  GLY616  TRP617  ASP618  TYR619  PRO620  LYS621  CYS622 
 ASP623  PHE694  ASN695  SER759  ASP760  ASP761  ALA762  ILE779  LEU786  VAL792 
 PHE793  MET794  SER795  GLU796  ALA797  LYS798  CYS799  TRP800  GLU811  SER814 

> <Gold.Protein.RotatedAtoms>
  152.0608  134.9595  160.0574 H   0  0  0  0  0  0  0  0  0  0  0  0  # atno 6907 bound_to 6896
  152.0959  133.4220  159.4573 H   0  0  0  0  0  0  0  0  0  0  0  0  # atno 6908 bound_to 6896
  150.6838  134.2736  159.4642 H   0  0  0  0  0  0  0  0  0  0  0  0  # atno 6909 bound_to 6896
  145.9761  139.4196  143.0160 H   0  0  0  0  0  0  0  0  0  0  0  0  # atno 7974 bound_to 7965
  154.4044  140.1589  156.2627 H   0  0  0  0  0  0  0  0  0  0  0  0  # atno 8008 bound_to 7997
  155.9022  140.3432  155.6013 H   0  0  0  0  0  0  0  0  0  0  0  0  # atno 8009 bound_to 7997
  155.7434  140.0795  157.2225 H   0  0  0  0  0  0  0  0  0  0  0  0  # atno 8010 bound_to 7997
  140.7262  143.4885  151.0023 H   0  0  0  0  0  0  0  0  0  0  0  0  # atno 10167 bound_to 10162
  157.2897  130.7296  149.6603 H   0  0  0  0  0  0  0  0  0  0  0  0  # atno 10718 bound_to 10713
  154.8618  135.3591  154.5498 H   0  0  0  0  0  0  0  0  0  0  0  0  # atno 10763 bound_to 10752
  153.6116  135.7009  153.5349 H   0  0  0  0  0  0  0  0  0  0  0  0  # atno 10764 bound_to 10752
  153.3204  135.4153  155.1372 H   0  0  0  0  0  0  0  0  0  0  0  0  # atno 10765 bound_to 10752
  140.1378  134.8759  157.2290 H   0  0  0  0  0  0  0  0  0  0  0  0  # atno 11005 bound_to 11000
  145.7836  140.9845  143.1086 LP  0  0  0  0  0  0  0  0  0  0  0  0  # atno 17320 bound_to 7965
  144.6849  139.9595  143.7480 LP  0  0  0  0  0  0  0  0  0  0  0  0  # atno 17321 bound_to 7965
  139.8588  143.7341  152.3174 LP  0  0  0  0  0  0  0  0  0  0  0  0  # atno 17342 bound_to 10162
  139.7549  144.7523  151.0450 LP  0  0  0  0  0  0  0  0  0  0  0  0  # atno 17343 bound_to 10162
  155.9666  130.4312  150.4912 LP  0  0  0  0  0  0  0  0  0  0  0  0  # atno 17370 bound_to 10713
  157.2872  131.0619  151.2158 LP  0  0  0  0  0  0  0  0  0  0  0  0  # atno 17371 bound_to 10713
  140.2760  134.3404  155.7358 LP  0  0  0  0  0  0  0  0  0  0  0  0  # atno 17394 bound_to 11000
  141.2181  133.7451  156.9294 LP  0  0  0  0  0  0  0  0  0  0  0  0  # atno 17395 bound_to 11000

$$$$
