AV-unprocessed.smi:234|AV-procd|sdf|1792|dock7
  -GOLD-   2262020353D 1   1.00000     0.00000
 Structure written by MMmdl.
 59 62  0  0  0  0  0  0  0  0  1 V2000
  144.4301  132.5268  150.1515 C   0  0  0  0  0  0  0  0  0  0  0  0
  144.2461  133.4647  151.3516 C   0  0  0  0  0  0  0  0  0  0  0  0
  145.4346  133.5462  152.1256 O   0  0  0  0  0  0  0  0  0  0  0  0
  145.6706  132.4134  152.9564 C   0  0  1  0  0  0  0  0  0  0  0  0
  146.8978  131.6175  152.4979 C   0  0  0  0  0  0  0  0  0  0  0  0
  147.7158  132.5531  153.3968 C   0  0  2  0  0  0  0  0  0  0  0  0
  148.8253  131.9052  154.0985 N   0  0  0  0  0  0  0  0  0  0  0  0
  148.7210  130.4632  154.2764 C   0  0  0  0  0  0  0  0  0  0  0  0
  149.1805  132.5108  155.2526 C   0  0  0  0  0  0  0  0  0  0  0  0
  149.1880  131.7513  156.3754 N   0  0  0  0  0  0  0  0  0  0  0  0
  149.5469  132.2928  157.5435 C   0  0  0  0  0  0  0  0  0  0  0  0
  149.9240  133.5470  157.8027 N   0  0  0  0  0  0  0  0  0  0  0  0
  149.9098  134.3141  156.6747 C   0  0  0  0  0  0  0  0  0  0  0  0
  149.5464  133.8816  155.3687 C   0  0  0  0  0  0  0  0  0  0  0  0
  149.6359  134.9416  154.4750 N   0  0  0  0  0  0  0  0  0  0  0  0
  150.0361  135.9427  155.2096 C   0  0  0  0  0  0  0  0  0  0  0  0
  150.2425  135.6510  156.5396 N   0  0  0  0  0  0  0  0  0  0  0  0
  150.7031  136.5683  157.5709 C   0  0  0  0  0  0  0  0  0  0  0  0
  152.1244  137.1283  157.3128 C   0  0  2  0  0  0  0  0  0  0  0  0
  152.9206  136.0898  156.7681 O   0  0  0  0  0  0  0  0  0  0  0  0
  152.7932  137.6143  158.6029 C   0  0  0  0  0  0  0  0  0  0  0  0
  152.8272  139.1303  158.4518 C   0  0  0  0  0  0  0  0  0  0  0  0
  153.0096  139.3012  157.0579 O   0  0  0  0  0  0  0  0  0  0  0  0
  152.1347  138.3898  156.4085 C   0  0  1  0  0  0  0  0  0  0  0  0
  152.5508  138.1966  154.9405 C   0  0  0  0  0  0  0  0  0  0  0  0
  146.4408  132.7745  154.2533 C   0  0  0  0  0  0  0  0  0  0  0  0
  146.2206  134.1883  154.7973 C   0  0  0  0  0  0  0  0  0  0  0  0
  146.1855  131.8060  155.4203 C   0  0  0  0  0  0  0  0  0  0  0  0
  143.4962  132.4191  149.5997 H   0  0  0  0  0  0  0  0  0  0  0  0
  144.7392  131.5338  150.4781 H   0  0  0  0  0  0  0  0  0  0  0  0
  145.1808  132.8993  149.4554 H   0  0  0  0  0  0  0  0  0  0  0  0
  143.9122  134.4521  151.0302 H   0  0  0  0  0  0  0  0  0  0  0  0
  143.4610  133.0655  151.9935 H   0  0  0  0  0  0  0  0  0  0  0  0
  144.7835  131.8055  153.1376 H   0  0  0  0  0  0  0  0  0  0  0  0
  146.8809  130.5796  152.8344 H   0  0  0  0  0  0  0  0  0  0  0  0
  147.1357  131.6914  151.4366 H   0  0  0  0  0  0  0  0  0  0  0  0
  148.0041  133.4638  152.8684 H   0  0  0  0  0  0  0  0  0  0  0  0
  149.6014  130.0661  154.7835 H   0  0  0  0  0  0  0  0  0  0  0  0
  148.6391  129.9599  153.3141 H   0  0  0  0  0  0  0  0  0  0  0  0
  147.8401  130.2084  154.8667 H   0  0  0  0  0  0  0  0  0  0  0  0
  149.5331  131.6247  158.3918 H   0  0  0  0  0  0  0  0  0  0  0  0
  150.2014  136.9263  154.7945 H   0  0  0  0  0  0  0  0  0  0  0  0
  149.9857  137.3874  157.6382 H   0  0  0  0  0  0  0  0  0  0  0  0
  150.6662  136.0525  158.5316 H   0  0  0  0  0  0  0  0  0  0  0  0
  152.8205  135.3215  157.3090 H   0  0  0  0  0  0  0  0  0  0  0  0
  152.2717  137.3020  159.5084 H   0  0  0  0  0  0  0  0  0  0  0  0
  153.8180  137.2463  158.6768 H   0  0  0  0  0  0  0  0  0  0  0  0
  151.8800  139.5768  158.7587 H   0  0  0  0  0  0  0  0  0  0  0  0
  153.6303  139.5942  159.0246 H   0  0  0  0  0  0  0  0  0  0  0  0
  151.1491  138.8566  156.4306 H   0  0  0  0  0  0  0  0  0  0  0  0
  151.9050  137.4758  154.4379 H   0  0  0  0  0  0  0  0  0  0  0  0
  153.5790  137.8441  154.8572 H   0  0  0  0  0  0  0  0  0  0  0  0
  152.4824  139.1376  154.3944 H   0  0  0  0  0  0  0  0  0  0  0  0
  146.8332  134.3827  155.6778 H   0  0  0  0  0  0  0  0  0  0  0  0
  145.1794  134.3478  155.0787 H   0  0  0  0  0  0  0  0  0  0  0  0
  146.4765  134.9487  154.0593 H   0  0  0  0  0  0  0  0  0  0  0  0
  146.8363  132.0117  156.2702 H   0  0  0  0  0  0  0  0  0  0  0  0
  146.3507  130.7668  155.1362 H   0  0  0  0  0  0  0  0  0  0  0  0
  145.1575  131.8792  155.7760 H   0  0  0  0  0  0  0  0  0  0  0  0
  1  2  1  0  0  0  0
  1 29  1  0  0  0  0
  1 30  1  0  0  0  0
  1 31  1  0  0  0  0
  2  3  1  0  0  0  0
  2 32  1  0  0  0  0
  2 33  1  0  0  0  0
  3  4  1  0  0  0  0
  4 26  1  0  0  0  0
  4  5  1  0  0  0  0
  4 34  1  0  0  0  0
  5  6  1  0  0  0  0
  5 35  1  0  0  0  0
  5 36  1  0  0  0  0
  6  7  1  0  0  0  0
  6 26  1  0  0  0  0
  6 37  1  0  0  0  0
  7  8  1  0  0  0  0
  7  9  1  0  0  0  0
  8 38  1  0  0  0  0
  8 39  1  0  0  0  0
  8 40  1  0  0  0  0
  9 14  1  0  0  0  0
  9 10  2  0  0  0  0
 10 11  1  0  0  0  0
 11 12  2  0  0  0  0
 11 41  1  0  0  0  0
 12 13  1  0  0  0  0
 13 17  1  0  0  0  0
 13 14  2  0  0  0  0
 14 15  1  0  0  0  0
 15 16  2  0  0  0  0
 16 17  1  0  0  0  0
 16 42  1  0  0  0  0
 17 18  1  0  0  0  0
 18 19  1  0  0  0  0
 18 43  1  0  0  0  0
 18 44  1  0  0  0  0
 19 24  1  0  0  0  0
 19 20  1  0  0  0  0
 19 21  1  0  0  0  0
 20 45  1  0  0  0  0
 21 22  1  0  0  0  0
 21 46  1  0  0  0  0
 21 47  1  0  0  0  0
 22 23  1  0  0  0  0
 22 48  1  0  0  0  0
 22 49  1  0  0  0  0
 23 24  1  0  0  0  0
 24 25  1  0  0  0  0
 24 50  1  0  0  0  0
 25 51  1  0  0  0  0
 25 52  1  0  0  0  0
 25 53  1  0  0  0  0
 26 27  1  0  0  0  0
 26 28  1  0  0  0  0
 27 54  1  0  0  0  0
 27 55  1  0  0  0  0
 27 56  1  0  0  0  0
 28 57  1  0  0  0  0
 28 58  1  0  0  0  0
 28 59  1  0  0  0  0
M  END
> <s_m_source_file>
AV-unprocessed.smi

> <i_m_source_file_index>
234

> <i_lp_mmshare_version>
43012

> <i_f3d_flags>
0

> <s_epik_input>
W0NIM11bQ0gyXU9bQ0BASF0oQzEoW0NIM10pW0NIM10pW0NIMl1bQ0BIXTFOKFtDSDNdKWMobltjSF1uMiljKGMyMyluW2NIXW4zW0NIMl1bQ0BAXTQoW09IXSlbQ0gyXVtDSDJdT1tDQEhdNFtDSDNd

> <s_epik_cmdline>
J2VwaWtfcHl0aG9uJywgJy1waCcsICc3LjAnLCAnLXRuJywgJzgnLCAnLW1hJywgJzIwMCcsICctbWV0YWxfYmluZGluZycsICctaW1hZScsICc8aW5maWxlLm1hZT4nLCAnLW9tYWUnLCAnPG91dGZpbGUubWFlPic=

> <r_lp_tautomer_probability>
1

> <r_epik_Ionization_Penalty>
0.00349132

> <r_epik_Ionization_Penalty_Charging>
0

> <r_epik_Ionization_Penalty_Neutral>
0.00349132

> <r_epik_State_Penalty>
0.00242418

> <r_epik_Charging_Adjusted_Penalty>
0.00242418

> <i_epik_Tot_Q>
0

> <i_epik_Tot_abs_Q>
0

> <r_epik_Metal_State_Penalty>
-0

> <b_epik_Metal_Only>
0

> <s_lp_Force_Field>
OPLS_2005

> <r_lp_Energy>
49.6192

> <b_lp_Chiralities_Consistent>
1

> <s_lp_Variant>
AV-unprocessed.smi:234-8

> <Gold.Version>
5.8.1

> <Gold.Id.Protein>
6NUR|6NUR_protein|mol2

> <Gold.PLP.Fitness>
39.3751

> <Gold.PLP.PLP>
-32.7226

> <Gold.PLP.part.hbond>
-3.0000

> <Gold.PLP.part.metal>
0.0000

> <Gold.PLP.part.buried>
-5.5997

> <Gold.PLP.part.nonpolar>
-26.4465

> <Gold.PLP.part.repulsive>
1.5455

> <Gold.PLP.ligand.clash>
0.0000

> <Gold.PLP.ligand.torsion>
1.5945

> <Gold.PLP.Chemscore.Hbond>
3.0000

> <Gold.PLP.Chemscore.CHOScore>
0.0000

> <Gold.PLP.Chemscore.Metal>
0.0000

> <Gold.Chemscore.Hbonds>
donor molecule, donor type, donor heavy atom, donor atom, acceptor molecule, acceptor atom, score
      P1  H  6896  6909       L1    12  1.00
      P1  H  7997  8008       L1    23  1.00
      P1  H 10752 10764       L1    20  1.00

> <Gold.PLP.Chemscore.Internal.Correction>
0.8415

> <Gold.Rescore>
     Score         DG    S(hbond)    S(metal)    S(lipo)     H(rot)  DE(clash)    DE(int)     intcor
     13.98     -16.85       2.79        0.00      74.78       2.62       0.14       2.73       ----

> <Gold.Chemscore.Fitness>
13.9805

> <Gold.Chemscore.DG>
-16.8480

> <Gold.Chemscore.ZeroCoef>
-5.4800

> <Gold.Chemscore.Hbond>
2.7936

> <Gold.Chemscore.Metal>
0.0000

> <Gold.Chemscore.Lipo>
74.7815

> <Gold.Chemscore.Internal_Hbond>
0.0000

> <Gold.Chemscore.DEClash>
0.1394

> <Gold.Chemscore.DEInternal>
2.7280

> <Gold.Chemscore.Rot>
2.6219

> <Gold.Chemscore.Internal.Correction>
   9.000000E+99

> <Gold.Chemscore.Hbonds>
donor molecule, donor type, donor heavy atom, donor atom, acceptor molecule, acceptor atom, score
      P1  H  6896  6909       L1    12  0.72
      P1  H  7997  8008       L1    23  0.78
      P1  H 10752 10764       L1    20  0.47

> <Gold.Chemscore.Hbond.Weighted>
-9.3307

> <Gold.Chemscore.Metal.Weighted>
-0.0000

> <Gold.Chemscore.Lipo.Weighted>
-8.7494

> <Gold.Chemscore.Internal_Hbond.Weighted>
0.0000

> <Gold.Chemscore.DEClash.Weighted>
0.1394

> <Gold.Chemscore.DEInternal.Weighted>
2.7280

> <Gold.Chemscore.Rot.Weighted>
6.7121

> <Gold.Chemscore.Internal.Correction.Weighted>
   9.000000E+99

> <Gold.Protein.RotatedTorsions>
[ 6907 6896 6895 6894 ] final  -16.46 input  -60.11 | X-H torsion
[ 7974 7965 7964 7962 ] final  153.99 input  175.53 | X-H torsion
[ 8008 7997 7996 7995 ] final  -67.41 input   59.86 | X-H torsion
[ 10167 10162 10161 10158 ] final   33.53 input  -65.29 | X-H torsion
[ 10718 10713 10712 10709 ] final  -18.83 input   66.30 | X-H torsion
[ 10763 10752 10751 10750 ] final  -24.77 input  -60.55 | X-H torsion
[ 11005 11000 10999 10996 ] final  -74.29 input  -57.11 | X-H torsion

> <Gold.Protein.ActiveResidues>
 VAL166  LYS551  ARG553  GLY616  TRP617  ASP618  TYR619  PRO620  LYS621  CYS622 
 ASP623  PHE694  ASN695  SER759  ASP760  ASP761  ALA762  ILE779  LEU786  VAL792 
 PHE793  MET794  SER795  GLU796  ALA797  LYS798  CYS799  TRP800  GLU811  SER814 

> <Gold.Protein.RotatedAtoms>
  151.3082  135.0787  159.9262 H   0  0  0  0  0  0  0  0  0  0  0  0  # atno 6907 bound_to 6896
  152.5283  133.9763  159.7796 H   0  0  0  0  0  0  0  0  0  0  0  0  # atno 6908 bound_to 6896
  151.0062  133.5957  159.2719 H   0  0  0  0  0  0  0  0  0  0  0  0  # atno 6909 bound_to 6896
  144.8118  139.6873  143.6138 H   0  0  0  0  0  0  0  0  0  0  0  0  # atno 7974 bound_to 7965
  154.4798  140.0893  156.7350 H   0  0  0  0  0  0  0  0  0  0  0  0  # atno 8008 bound_to 7997
  155.4500  140.3457  155.4281 H   0  0  0  0  0  0  0  0  0  0  0  0  # atno 8009 bound_to 7997
  156.1174  140.1464  156.9242 H   0  0  0  0  0  0  0  0  0  0  0  0  # atno 8010 bound_to 7997
  140.4399  144.1203  150.6172 H   0  0  0  0  0  0  0  0  0  0  0  0  # atno 10167 bound_to 10162
  156.5540  130.4709  149.6438 H   0  0  0  0  0  0  0  0  0  0  0  0  # atno 10718 bound_to 10713
  153.6891  135.6962  153.5095 H   0  0  0  0  0  0  0  0  0  0  0  0  # atno 10763 bound_to 10752
  153.2426  135.4301  155.0713 H   0  0  0  0  0  0  0  0  0  0  0  0  # atno 10764 bound_to 10752
  154.8378  135.3511  154.6433 H   0  0  0  0  0  0  0  0  0  0  0  0  # atno 10765 bound_to 10752
  141.1633  133.6906  156.7342 H   0  0  0  0  0  0  0  0  0  0  0  0  # atno 11005 bound_to 11000
  146.2417  139.6016  142.9487 LP  0  0  0  0  0  0  0  0  0  0  0  0  # atno 17320 bound_to 7965
  145.5306  141.0427  143.2385 LP  0  0  0  0  0  0  0  0  0  0  0  0  # atno 17321 bound_to 7965
  140.4331  143.2559  151.9570 LP  0  0  0  0  0  0  0  0  0  0  0  0  # atno 17342 bound_to 10162
  139.4789  144.5725  151.8064 LP  0  0  0  0  0  0  0  0  0  0  0  0  # atno 17343 bound_to 10162
  156.2858  130.7097  151.1933 LP  0  0  0  0  0  0  0  0  0  0  0  0  # atno 17370 bound_to 10713
  157.7382  131.0543  150.5310 LP  0  0  0  0  0  0  0  0  0  0  0  0  # atno 17371 bound_to 10713
  140.2722  134.8383  157.3858 LP  0  0  0  0  0  0  0  0  0  0  0  0  # atno 17394 bound_to 11000
  140.1511  134.4849  155.7961 LP  0  0  0  0  0  0  0  0  0  0  0  0  # atno 17395 bound_to 11000

$$$$
