AV-unprocessed.smi:713|AV-procd|sdf|3481|dock7
  -GOLD-   22720 0473D 1   1.00000     0.00000
 Structure written by MMmdl.
 41 42  0  0  0  0  0  0  0  0  1 V2000
  153.0509  144.6925  157.5301 C   0  0  0  0  0  0  0  0  0  0  0  0
  151.5716  144.3203  157.7593 C   0  0  1  0  0  0  0  0  0  0  0  0
  151.2557  142.8541  157.4110 C   0  0  0  0  0  0  0  0  0  0  0  0
  151.7912  141.9294  158.0236 O   0  0  0  0  0  0  0  0  0  0  0  0
  150.3894  142.6566  156.4040 N   0  0  0  0  0  0  0  0  0  0  0  0
  149.9463  141.3576  155.9099 C   0  0  1  0  0  0  0  0  0  0  0  0
  149.1130  141.5582  154.6316 C   0  0  0  0  0  0  0  0  0  0  0  0
  148.6658  140.2188  154.0262 C   0  0  0  0  0  0  0  0  0  0  0  0
  149.8610  139.2797  153.7823 C   0  0  0  0  0  0  0  0  0  0  0  0
  150.7619  139.0865  155.0236 C   0  0  2  0  0  0  0  0  0  0  0  0
  150.0237  137.9669  156.3138 S   0  0  0  0  0  0  0  0  0  0  0  0
  151.1582  136.5178  156.2786 C   0  0  0  0  0  0  0  0  0  0  0  0
  150.1630  138.6253  157.6214 O   0  0  0  0  0  0  0  0  0  0  0  0
  148.6978  137.5030  155.8800 O   0  0  0  0  0  0  0  0  0  0  0  0
  151.1602  140.4473  155.6292 C   0  0  0  0  0  0  0  0  0  0  0  0
  151.1360  144.6398  159.1153 N   0  0  0  0  0  0  0  0  0  0  0  0
  149.8437  144.7402  159.5897 C   0  0  0  0  0  0  0  0  0  0  0  0
  149.9162  145.0184  160.9242 C   0  0  0  0  0  0  0  0  0  0  0  0
  151.3139  145.0636  161.1843 C   0  0  0  0  0  0  0  0  0  0  0  0
  152.0406  144.8308  160.1038 N   0  0  0  0  0  0  0  0  0  0  0  0
  153.3444  144.5249  156.4931 H   0  0  0  0  0  0  0  0  0  0  0  0
  153.7210  144.1084  158.1623 H   0  0  0  0  0  0  0  0  0  0  0  0
  153.2240  145.7462  157.7504 H   0  0  0  0  0  0  0  0  0  0  0  0
  150.9769  144.9331  157.0801 H   0  0  0  0  0  0  0  0  0  0  0  0
  149.9955  143.4705  155.9553 H   0  0  0  0  0  0  0  0  0  0  0  0
  149.3090  140.8962  156.6652 H   0  0  0  0  0  0  0  0  0  0  0  0
  148.2376  142.1719  154.8485 H   0  0  0  0  0  0  0  0  0  0  0  0
  149.6987  142.1070  153.8924 H   0  0  0  0  0  0  0  0  0  0  0  0
  147.9318  139.7468  154.6764 H   0  0  0  0  0  0  0  0  0  0  0  0
  148.1486  140.4002  153.0838 H   0  0  0  0  0  0  0  0  0  0  0  0
  149.5097  138.3209  153.4039 H   0  0  0  0  0  0  0  0  0  0  0  0
  150.4686  139.7044  152.9825 H   0  0  0  0  0  0  0  0  0  0  0  0
  151.6766  138.5864  154.7040 H   0  0  0  0  0  0  0  0  0  0  0  0
  150.8921  135.8354  157.0855 H   0  0  0  0  0  0  0  0  0  0  0  0
  152.1858  136.8530  156.4163 H   0  0  0  0  0  0  0  0  0  0  0  0
  151.0667  135.9940  155.3281 H   0  0  0  0  0  0  0  0  0  0  0  0
  151.8321  140.9548  154.9356 H   0  0  0  0  0  0  0  0  0  0  0  0
  151.7358  140.2922  156.5425 H   0  0  0  0  0  0  0  0  0  0  0  0
  148.9880  144.6051  158.9446 H   0  0  0  0  0  0  0  0  0  0  0  0
  149.0957  145.1642  161.6110 H   0  0  0  0  0  0  0  0  0  0  0  0
  151.8186  145.2528  162.1202 H   0  0  0  0  0  0  0  0  0  0  0  0
  1  2  1  0  0  0  0
  1 21  1  0  0  0  0
  1 22  1  0  0  0  0
  1 23  1  0  0  0  0
  2  3  1  0  0  0  0
  2 16  1  0  0  0  0
  2 24  1  0  0  0  0
  3  4  2  0  0  0  0
  3  5  1  0  0  0  0
  5  6  1  0  0  0  0
  5 25  1  0  0  0  0
  6 15  1  0  0  0  0
  6  7  1  0  0  0  0
  6 26  1  0  0  0  0
  7  8  1  0  0  0  0
  7 27  1  0  0  0  0
  7 28  1  0  0  0  0
  8  9  1  0  0  0  0
  8 29  1  0  0  0  0
  8 30  1  0  0  0  0
  9 10  1  0  0  0  0
  9 31  1  0  0  0  0
  9 32  1  0  0  0  0
 10 11  1  0  0  0  0
 10 15  1  0  0  0  0
 10 33  1  0  0  0  0
 11 12  1  0  0  0  0
 11 13  2  0  0  0  0
 11 14  2  0  0  0  0
 12 34  1  0  0  0  0
 12 35  1  0  0  0  0
 12 36  1  0  0  0  0
 15 37  1  0  0  0  0
 15 38  1  0  0  0  0
 16 20  1  0  0  0  0
 16 17  1  0  0  0  0
 17 18  2  0  0  0  0
 17 39  1  0  0  0  0
 18 19  1  0  0  0  0
 18 40  1  0  0  0  0
 19 20  2  0  0  0  0
 19 41  1  0  0  0  0
M  END
> <s_m_source_file>
AV-unprocessed.smi

> <i_m_source_file_index>
713

> <i_lp_mmshare_version>
43012

> <i_f3d_flags>
0

> <s_epik_input>
bjFbY0hdW2NIXVtjSF1uMVtDQEhdKFtDSDNdKUMoPU8pW05IXVtDQEBIXTJbQ0gyXVtDSDJdW0NIMl1bQ0BIXShbQ0gyXTIpUyg9TykoPU8pW0NIM10=

> <s_epik_cmdline>
J2VwaWtfcHl0aG9uJywgJy1waCcsICc3LjAnLCAnLXRuJywgJzgnLCAnLW1hJywgJzIwMCcsICctbWV0YWxfYmluZGluZycsICctaW1hZScsICc8aW5maWxlLm1hZT4nLCAnLW9tYWUnLCAnPG91dGZpbGUubWFlPic=

> <r_lp_tautomer_probability>
1

> <r_epik_Ionization_Penalty>
4.07816e-05

> <r_epik_Ionization_Penalty_Charging>
0

> <r_epik_Ionization_Penalty_Neutral>
4.07816e-05

> <r_epik_State_Penalty>
-0

> <r_epik_Charging_Adjusted_Penalty>
0

> <i_epik_Tot_Q>
0

> <i_epik_Tot_abs_Q>
0

> <r_epik_Metal_State_Penalty>
-0

> <b_epik_Metal_Only>
0

> <s_lp_Force_Field>
OPLS_2005

> <r_lp_Energy>
4.31355

> <b_lp_Chiralities_Consistent>
1

> <s_lp_Variant>
AV-unprocessed.smi:713-8

> <Gold.Version>
5.8.1

> <Gold.Id.Protein>
6NUR|6NUR_protein|mol2

> <Gold.PLP.Fitness>
37.1970

> <Gold.PLP.PLP>
-32.0361

> <Gold.PLP.part.hbond>
-1.0000

> <Gold.PLP.part.metal>
0.0000

> <Gold.PLP.part.buried>
5.3805

> <Gold.PLP.part.nonpolar>
-35.7940

> <Gold.PLP.part.repulsive>
0.2032

> <Gold.PLP.ligand.clash>
0.0000

> <Gold.PLP.ligand.torsion>
0.5592

> <Gold.PLP.Chemscore.Hbond>
1.0000

> <Gold.PLP.Chemscore.CHOScore>
0.9924

> <Gold.PLP.Chemscore.Metal>
0.0000

> <Gold.Chemscore.Hbonds>
donor molecule, donor type, donor heavy atom, donor atom, acceptor molecule, acceptor atom, score
      L1  H     5    25       P1  8028  1.00
      L1  C    17    39       P1  8029  1.00

> <Gold.PLP.Chemscore.Internal.Correction>
0.3020

> <Gold.Rescore>
     Score         DG    S(hbond)    S(metal)    S(lipo)     H(rot)  DE(clash)    DE(int)     intcor
     12.02     -16.06       1.00        0.00      99.79       1.72       2.39       1.66       ----

> <Gold.Chemscore.Fitness>
12.0177

> <Gold.Chemscore.DG>
-16.0645

> <Gold.Chemscore.ZeroCoef>
-5.4800

> <Gold.Chemscore.Hbond>
0.9955

> <Gold.Chemscore.Metal>
0.0000

> <Gold.Chemscore.Lipo>
99.7885

> <Gold.Chemscore.Internal_Hbond>
0.0000

> <Gold.Chemscore.DEClash>
2.3875

> <Gold.Chemscore.DEInternal>
1.6592

> <Gold.Chemscore.Rot>
1.7249

> <Gold.Chemscore.Internal.Correction>
   9.000000E+99

> <Gold.Chemscore.Hbonds>
donor molecule, donor type, donor heavy atom, donor atom, acceptor molecule, acceptor atom, score
      L1  H     5    25       P1  8028  0.99

> <Gold.Chemscore.Hbond.Weighted>
-3.3249

> <Gold.Chemscore.Metal.Weighted>
-0.0000

> <Gold.Chemscore.Lipo.Weighted>
-11.6753

> <Gold.Chemscore.Internal_Hbond.Weighted>
0.0000

> <Gold.Chemscore.DEClash.Weighted>
2.3875

> <Gold.Chemscore.DEInternal.Weighted>
1.6592

> <Gold.Chemscore.Rot.Weighted>
4.4157

> <Gold.Chemscore.Internal.Correction.Weighted>
   9.000000E+99

> <Gold.Protein.RotatedTorsions>
[ 6907 6896 6895 6894 ] final  179.33 input  -60.11 | X-H torsion
[ 7974 7965 7964 7962 ] final -106.26 input  175.53 | X-H torsion
[ 8008 7997 7996 7995 ] final  -23.25 input   59.86 | X-H torsion
[ 10167 10162 10161 10158 ] final   20.61 input  -65.29 | X-H torsion
[ 10718 10713 10712 10709 ] final  133.11 input   66.30 | X-H torsion
[ 10763 10752 10751 10750 ] final   11.37 input  -60.55 | X-H torsion
[ 11005 11000 10999 10996 ] final   95.67 input  -57.11 | X-H torsion

> <Gold.Protein.ActiveResidues>
 VAL166  LYS551  ARG553  GLY616  TRP617  ASP618  TYR619  PRO620  LYS621  CYS622 
 ASP623  PHE694  ASN695  SER759  ASP760  ASP761  ALA762  ILE779  LEU786  VAL792 
 PHE793  MET794  SER795  GLU796  ALA797  LYS798  CYS799  TRP800  GLU811  SER814 

> <Gold.Protein.RotatedAtoms>
  151.6735  133.3313  159.3201 H   0  0  0  0  0  0  0  0  0  0  0  0  # atno 6907 bound_to 6896
  150.7856  134.6842  159.6470 H   0  0  0  0  0  0  0  0  0  0  0  0  # atno 6908 bound_to 6896
  152.3925  134.6421  160.0154 H   0  0  0  0  0  0  0  0  0  0  0  0  # atno 6909 bound_to 6896
  145.2201  140.9131  143.3264 H   0  0  0  0  0  0  0  0  0  0  0  0  # atno 7974 bound_to 7965
  154.4596  140.1985  156.0282 H   0  0  0  0  0  0  0  0  0  0  0  0  # atno 8008 bound_to 7997
  156.0814  140.3271  155.7670 H   0  0  0  0  0  0  0  0  0  0  0  0  # atno 8009 bound_to 7997
  155.5106  140.0561  157.2915 H   0  0  0  0  0  0  0  0  0  0  0  0  # atno 8010 bound_to 7997
  140.5491  143.9542  150.6566 H   0  0  0  0  0  0  0  0  0  0  0  0  # atno 10167 bound_to 10162
  157.4805  131.1085  150.9687 H   0  0  0  0  0  0  0  0  0  0  0  0  # atno 10718 bound_to 10713
  153.1933  135.6845  153.8324 H   0  0  0  0  0  0  0  0  0  0  0  0  # atno 10763 bound_to 10752
  153.7615  135.3209  155.3339 H   0  0  0  0  0  0  0  0  0  0  0  0  # atno 10764 bound_to 10752
  154.8130  135.4704  154.0666 H   0  0  0  0  0  0  0  0  0  0  0  0  # atno 10765 bound_to 10752
  139.8787  134.8911  156.4045 H   0  0  0  0  0  0  0  0  0  0  0  0  # atno 11005 bound_to 11000
  144.9773  139.3819  143.6279 LP  0  0  0  0  0  0  0  0  0  0  0  0  # atno 17320 bound_to 7965
  146.3378  139.8898  142.8811 LP  0  0  0  0  0  0  0  0  0  0  0  0  # atno 17321 bound_to 7965
  140.2963  143.3290  152.1015 LP  0  0  0  0  0  0  0  0  0  0  0  0  # atno 17342 bound_to 10162
  139.5019  144.6724  151.6209 LP  0  0  0  0  0  0  0  0  0  0  0  0  # atno 17343 bound_to 10162
  157.0422  130.5753  149.5358 LP  0  0  0  0  0  0  0  0  0  0  0  0  # atno 17370 bound_to 10713
  156.0119  130.5211  150.8016 LP  0  0  0  0  0  0  0  0  0  0  0  0  # atno 17371 bound_to 10713
  140.9243  133.7623  155.9945 LP  0  0  0  0  0  0  0  0  0  0  0  0  # atno 17394 bound_to 11000
  140.8403  134.3074  157.5316 LP  0  0  0  0  0  0  0  0  0  0  0  0  # atno 17395 bound_to 11000

$$$$
