AV-unprocessed.smi:1307|AV-procd|sdf|5437|dock9
  -GOLD-   22720 5 03D 1   1.00000     0.00000
 Structure written by MMmdl.
 41 41  0  0  0  0  0  0  0  0  1 V2000
  152.7730  141.5839  160.0908 C   0  0  0  0  0  0  0  0  0  0  0  0
  152.5495  143.1097  160.0827 C   0  0  0  0  0  0  0  0  0  0  0  0
  152.3402  143.6044  161.5253 C   0  0  0  0  0  0  0  0  0  0  0  0
  151.3916  143.5342  159.1401 C   0  0  1  0  0  0  0  0  0  0  0  0
  151.2611  145.0616  158.9868 C   0  0  0  0  0  0  0  0  0  0  0  0
  151.5826  142.9417  157.8185 N   0  0  0  0  0  0  0  0  0  0  0  0
  151.2714  141.6836  157.4616 C   0  0  0  0  0  0  0  0  0  0  0  0
  150.7426  140.8825  158.2309 O   0  0  0  0  0  0  0  0  0  0  0  0
  151.5989  141.2369  156.0236 C   0  0  0  0  0  0  0  0  0  0  0  0
  150.5230  140.4707  155.3402 N   0  0  0  0  0  0  0  0  0  0  0  0
  150.7266  139.0960  155.0010 C   0  0  0  0  0  0  0  0  0  0  0  0
  152.0503  138.4141  155.3758 C   0  0  0  0  0  0  0  0  0  0  0  0
  152.0439  137.1262  155.0288 F   0  0  0  0  0  0  0  0  0  0  0  0
  153.0736  138.9816  154.7368 F   0  0  0  0  0  0  0  0  0  0  0  0
  152.2760  138.4513  156.6889 F   0  0  0  0  0  0  0  0  0  0  0  0
  149.7480  138.4067  154.3860 C   0  0  0  0  0  0  0  0  0  0  0  0
  148.5021  139.0474  154.0674 C   0  0  0  0  0  0  0  0  0  0  0  0
  148.2925  140.3458  154.3819 C   0  0  0  0  0  0  0  0  0  0  0  0
  147.0209  141.0453  154.0867 C   0  0  0  0  0  0  0  0  0  0  0  0
  146.0923  140.2767  153.5037 N   0  0  0  0  0  0  0  0  0  0  0  0
  146.7511  142.2229  154.3218 O   0  0  0  0  0  0  0  0  0  0  0  0
  149.3516  141.1387  155.0577 C   0  0  0  0  0  0  0  0  0  0  0  0
  149.2253  142.3255  155.3740 O   0  0  0  0  0  0  0  0  0  0  0  0
  151.8692  141.0541  160.3933 H   0  0  0  0  0  0  0  0  0  0  0  0
  153.5666  141.3068  160.7852 H   0  0  0  0  0  0  0  0  0  0  0  0
  153.0677  141.2078  159.1111 H   0  0  0  0  0  0  0  0  0  0  0  0
  153.4695  143.5656  159.7132 H   0  0  0  0  0  0  0  0  0  0  0  0
  151.4037  143.2303  161.9403 H   0  0  0  0  0  0  0  0  0  0  0  0
  152.3232  144.6922  161.5845 H   0  0  0  0  0  0  0  0  0  0  0  0
  153.1475  143.2672  162.1761 H   0  0  0  0  0  0  0  0  0  0  0  0
  150.4600  143.1506  159.5606 H   0  0  0  0  0  0  0  0  0  0  0  0
  150.9992  145.5417  159.9290 H   0  0  0  0  0  0  0  0  0  0  0  0
  150.4770  145.3213  158.2747 H   0  0  0  0  0  0  0  0  0  0  0  0
  152.1909  145.5056  158.6300 H   0  0  0  0  0  0  0  0  0  0  0  0
  152.0124  143.5324  157.1219 H   0  0  0  0  0  0  0  0  0  0  0  0
  151.8489  142.1302  155.4482 H   0  0  0  0  0  0  0  0  0  0  0  0
  152.5452  140.7054  156.0473 H   0  0  0  0  0  0  0  0  0  0  0  0
  149.8766  137.3660  154.1282 H   0  0  0  0  0  0  0  0  0  0  0  0
  147.7504  138.4459  153.5778 H   0  0  0  0  0  0  0  0  0  0  0  0
  145.1916  140.6640  153.2638 H   0  0  0  0  0  0  0  0  0  0  0  0
  146.2988  139.3080  153.3061 H   0  0  0  0  0  0  0  0  0  0  0  0
  1  2  1  0  0  0  0
  1 24  1  0  0  0  0
  1 25  1  0  0  0  0
  1 26  1  0  0  0  0
  2  3  1  0  0  0  0
  2  4  1  0  0  0  0
  2 27  1  0  0  0  0
  3 28  1  0  0  0  0
  3 29  1  0  0  0  0
  3 30  1  0  0  0  0
  4  5  1  0  0  0  0
  4  6  1  0  0  0  0
  4 31  1  0  0  0  0
  5 32  1  0  0  0  0
  5 33  1  0  0  0  0
  5 34  1  0  0  0  0
  6  7  1  0  0  0  0
  6 35  1  0  0  0  0
  7  8  2  0  0  0  0
  7  9  1  0  0  0  0
  9 10  1  0  0  0  0
  9 36  1  0  0  0  0
  9 37  1  0  0  0  0
 10 22  1  0  0  0  0
 10 11  1  0  0  0  0
 11 12  1  0  0  0  0
 11 16  2  0  0  0  0
 12 13  1  0  0  0  0
 12 14  1  0  0  0  0
 12 15  1  0  0  0  0
 16 17  1  0  0  0  0
 16 38  1  0  0  0  0
 17 18  2  0  0  0  0
 17 39  1  0  0  0  0
 18 19  1  0  0  0  0
 18 22  1  0  0  0  0
 19 20  1  0  0  0  0
 19 21  2  0  0  0  0
 20 40  1  0  0  0  0
 20 41  1  0  0  0  0
 22 23  2  0  0  0  0
M  END
> <s_m_source_file>
AV-unprocessed.smi

> <i_m_source_file_index>
1307

> <i_lp_mmshare_version>
43012

> <i_f3d_flags>
0

> <s_epik_input>
W0NIM11bQ0hdKFtDSDNdKVtDQEhdKFtDSDNdKVtOSF1DKD1PKVtDSDJdbjFjKEMoRikoRilGKVtjSF1bY0hdYyhjMT1PKUMoPU8pW05IMl0=

> <s_epik_cmdline>
J2VwaWtfcHl0aG9uJywgJy1waCcsICc3LjAnLCAnLXRuJywgJzgnLCAnLW1hJywgJzIwMCcsICctbWV0YWxfYmluZGluZycsICctaW1hZScsICc8aW5maWxlLm1hZT4nLCAnLW9tYWUnLCAnPG91dGZpbGUubWFlPic=

> <r_lp_tautomer_probability>
1

> <r_epik_Ionization_Penalty>
2.05992e-06

> <r_epik_Ionization_Penalty_Charging>
8.21357e-10

> <r_epik_Ionization_Penalty_Neutral>
2.0591e-06

> <r_epik_State_Penalty>
-0

> <r_epik_Charging_Adjusted_Penalty>
8.21357e-10

> <i_epik_Tot_Q>
0

> <i_epik_Tot_abs_Q>
0

> <r_epik_Metal_State_Penalty>
-0

> <b_epik_Metal_Only>
0

> <s_lp_Force_Field>
OPLS_2005

> <r_lp_Energy>
26.9387

> <b_lp_Chiralities_Consistent>
1

> <s_lp_Variant>
AV-unprocessed.smi:1307-2

> <Gold.Version>
5.8.1

> <Gold.Id.Protein>
6NUR|6NUR_protein|mol2

> <Gold.PLP.Fitness>
41.5520

> <Gold.PLP.PLP>
-39.7297

> <Gold.PLP.part.hbond>
-1.0000

> <Gold.PLP.part.metal>
0.0000

> <Gold.PLP.part.buried>
-2.1355

> <Gold.PLP.part.nonpolar>
-41.2536

> <Gold.PLP.part.repulsive>
4.6139

> <Gold.PLP.ligand.clash>
3.9233

> <Gold.PLP.ligand.torsion>
0.6154

> <Gold.PLP.Chemscore.Hbond>
0.9920

> <Gold.PLP.Chemscore.CHOScore>
0.0000

> <Gold.PLP.Chemscore.Metal>
0.0000

> <Gold.Chemscore.Hbonds>
donor molecule, donor type, donor heavy atom, donor atom, acceptor molecule, acceptor atom, score
      L1  H    20    40       P1 10175  0.99

> <Gold.PLP.Chemscore.Internal.Correction>
4.0005

> <Gold.Rescore>
     Score         DG    S(hbond)    S(metal)    S(lipo)     H(rot)  DE(clash)    DE(int)     intcor
      6.72     -14.53       1.00        0.00      92.12       1.97       2.38       5.44       ----

> <Gold.Chemscore.Fitness>
6.7194

> <Gold.Chemscore.DG>
-14.5343

> <Gold.Chemscore.ZeroCoef>
-5.4800

> <Gold.Chemscore.Hbond>
0.9956

> <Gold.Chemscore.Metal>
0.0000

> <Gold.Chemscore.Lipo>
92.1213

> <Gold.Chemscore.Internal_Hbond>
0.0000

> <Gold.Chemscore.DEClash>
2.3789

> <Gold.Chemscore.DEInternal>
5.4361

> <Gold.Chemscore.Rot>
1.9723

> <Gold.Chemscore.Internal.Correction>
   9.000000E+99

> <Gold.Chemscore.Hbonds>
donor molecule, donor type, donor heavy atom, donor atom, acceptor molecule, acceptor atom, score
      L1  H    20    40       P1 10175  0.82

> <Gold.Chemscore.Hbond.Weighted>
-3.3251

> <Gold.Chemscore.Metal.Weighted>
-0.0000

> <Gold.Chemscore.Lipo.Weighted>
-10.7782

> <Gold.Chemscore.Internal_Hbond.Weighted>
0.0000

> <Gold.Chemscore.DEClash.Weighted>
2.3789

> <Gold.Chemscore.DEInternal.Weighted>
5.4361

> <Gold.Chemscore.Rot.Weighted>
5.0490

> <Gold.Chemscore.Internal.Correction.Weighted>
   9.000000E+99

> <Gold.Protein.RotatedTorsions>
[ 6907 6896 6895 6894 ] final -171.06 input  -60.11 | X-H torsion
[ 7974 7965 7964 7962 ] final  -53.36 input  175.53 | X-H torsion
[ 8008 7997 7996 7995 ] final -108.91 input   59.86 | X-H torsion
[ 10167 10162 10161 10158 ] final  -59.15 input  -65.29 | X-H torsion
[ 10718 10713 10712 10709 ] final   16.44 input   66.30 | X-H torsion
[ 10763 10752 10751 10750 ] final    7.30 input  -60.55 | X-H torsion
[ 11005 11000 10999 10996 ] final    5.67 input  -57.11 | X-H torsion

> <Gold.Protein.ActiveResidues>
 VAL166  LYS551  ARG553  GLY616  TRP617  ASP618  TYR619  PRO620  LYS621  CYS622 
 ASP623  PHE694  ASN695  SER759  ASP760  ASP761  ALA762  ILE779  LEU786  VAL792 
 PHE793  MET794  SER795  GLU796  ALA797  LYS798  CYS799  TRP800  GLU811  SER814 

> <Gold.Protein.RotatedAtoms>
  151.5177  133.3472  159.2895 H   0  0  0  0  0  0  0  0  0  0  0  0  # atno 6907 bound_to 6896
  150.8672  134.8040  159.7138 H   0  0  0  0  0  0  0  0  0  0  0  0  # atno 6908 bound_to 6896
  152.4672  134.5056  159.9790 H   0  0  0  0  0  0  0  0  0  0  0  0  # atno 6909 bound_to 6896
  145.8977  140.8019  142.9759 H   0  0  0  0  0  0  0  0  0  0  0  0  # atno 7974 bound_to 7965
  154.9514  140.0401  157.2146 H   0  0  0  0  0  0  0  0  0  0  0  0  # atno 8008 bound_to 7997
  154.7975  140.2846  155.5924 H   0  0  0  0  0  0  0  0  0  0  0  0  # atno 8009 bound_to 7997
  156.2957  140.2561  156.2836 H   0  0  0  0  0  0  0  0  0  0  0  0  # atno 8010 bound_to 7997
  140.6153  143.2400  151.5612 H   0  0  0  0  0  0  0  0  0  0  0  0  # atno 10167 bound_to 10162
  157.0679  130.6336  149.5799 H   0  0  0  0  0  0  0  0  0  0  0  0  # atno 10718 bound_to 10713
  153.2378  135.6900  153.7817 H   0  0  0  0  0  0  0  0  0  0  0  0  # atno 10763 bound_to 10752
  153.6958  135.3305  155.3214 H   0  0  0  0  0  0  0  0  0  0  0  0  # atno 10764 bound_to 10752
  154.8342  135.4556  154.1288 H   0  0  0  0  0  0  0  0  0  0  0  0  # atno 10765 bound_to 10752
  140.5680  134.0129  155.7997 H   0  0  0  0  0  0  0  0  0  0  0  0  # atno 11005 bound_to 11000
  144.6734  140.1628  143.7421 LP  0  0  0  0  0  0  0  0  0  0  0  0  # atno 17320 bound_to 7965
  145.8830  139.2333  143.1594 LP  0  0  0  0  0  0  0  0  0  0  0  0  # atno 17321 bound_to 7965
  139.5393  144.2691  152.1318 LP  0  0  0  0  0  0  0  0  0  0  0  0  # atno 17342 bound_to 10162
  140.1899  144.4762  150.6484 LP  0  0  0  0  0  0  0  0  0  0  0  0  # atno 17343 bound_to 10162
  155.9959  130.5027  150.7476 LP  0  0  0  0  0  0  0  0  0  0  0  0  # atno 17370 bound_to 10713
  157.4902  131.0910  151.0436 LP  0  0  0  0  0  0  0  0  0  0  0  0  # atno 17371 bound_to 10713
  141.1073  133.9672  157.2973 LP  0  0  0  0  0  0  0  0  0  0  0  0  # atno 17394 bound_to 11000
  139.9375  135.0195  156.8603 LP  0  0  0  0  0  0  0  0  0  0  0  0  # atno 17395 bound_to 11000

$$$$
