AV-unprocessed.smi:2047|AV-procd|sdf|8317|dock2
  -GOLD-   2272010583D 1   1.00000     0.00000
 Structure written by MMmdl.
 43 45  0  0  0  0  0  0  0  0  2 V2000
  150.3809  133.9925  155.5691 O   0  0  0  0  0  0  0  0  0  0  0  0
  149.8419  134.5828  154.6334 C   0  0  0  0  0  0  0  0  0  0  0  0
  149.0613  134.0091  153.7021 N   0  0  0  0  0  0  0  0  0  0  0  0
  148.7015  132.6360  153.5725 C   0  0  0  0  0  0  0  0  0  0  0  0
  149.5016  131.5900  154.1008 C   0  0  0  0  0  0  0  0  0  0  0  0
  149.1006  130.2499  153.9375 C   0  0  0  0  0  0  0  0  0  0  0  0
  147.9113  129.9732  153.2405 C   0  0  0  0  0  0  0  0  0  0  0  0
  147.1811  130.9886  152.7349 N   0  3  0  0  0  0  0  0  0  0  0  0
  147.5167  132.2963  152.8632 C   0  0  0  0  0  0  0  0  0  0  0  0
  146.6927  133.2733  152.2664 N   0  0  0  0  0  0  0  0  0  0  0  0
  146.4655  133.0604  150.8392 C   0  0  0  0  0  0  0  0  0  0  0  0
  145.0149  133.4632  150.5648 C   0  0  0  0  0  0  0  0  0  0  0  0
  144.3325  133.2365  151.9079 C   0  0  0  0  0  0  0  0  0  0  0  0
  145.4245  133.6297  152.9007 C   0  0  0  0  0  0  0  0  0  0  0  0
  149.9496  135.9037  154.4318 N   0  0  0  0  0  0  0  0  0  0  0  0
  150.7210  136.8169  155.2705 C   0  0  2  0  0  0  0  0  0  0  0  0
  149.8747  137.4151  156.4131 C   0  0  0  0  0  0  0  0  0  0  0  0
  150.6217  138.6183  157.0024 C   0  0  0  0  0  0  0  0  0  0  0  0
  151.6039  139.3335  155.6296 S   0  0  0  0  0  0  0  0  0  0  0  0
  150.9574  140.5632  155.1469 O   0  0  0  0  0  0  0  0  0  0  0  0
  153.0259  139.3222  156.0048 O   0  0  0  0  0  0  0  0  0  0  0  0
  151.2784  137.9798  154.4381 C   0  0  0  0  0  0  0  0  0  0  0  0
  148.6093  134.6387  153.0554 H   0  0  0  0  0  0  0  0  0  0  0  0
  150.4266  131.7898  154.6196 H   0  0  0  0  0  0  0  0  0  0  0  0
  149.7015  129.4461  154.3374 H   0  0  0  0  0  0  0  0  0  0  0  0
  147.5292  128.9780  153.0645 H   0  0  0  0  0  0  0  0  0  0  0  0
  147.1594  133.6485  150.2382 H   0  0  0  0  0  0  0  0  0  0  0  0
  146.6130  132.0087  150.5866 H   0  0  0  0  0  0  0  0  0  0  0  0
  144.9669  134.5211  150.3021 H   0  0  0  0  0  0  0  0  0  0  0  0
  144.5623  132.8929  149.7530 H   0  0  0  0  0  0  0  0  0  0  0  0
  143.4185  133.8192  152.0280 H   0  0  0  0  0  0  0  0  0  0  0  0
  144.0822  132.1811  152.0258 H   0  0  0  0  0  0  0  0  0  0  0  0
  145.2635  133.1788  153.8800 H   0  0  0  0  0  0  0  0  0  0  0  0
  145.4206  134.7104  153.0473 H   0  0  0  0  0  0  0  0  0  0  0  0
  149.4682  136.3084  153.6421 H   0  0  0  0  0  0  0  0  0  0  0  0
  151.5667  136.2835  155.7091 H   0  0  0  0  0  0  0  0  0  0  0  0
  148.9214  137.7604  156.0101 H   0  0  0  0  0  0  0  0  0  0  0  0
  149.6450  136.6758  157.1810 H   0  0  0  0  0  0  0  0  0  0  0  0
  149.9532  139.3707  157.4209 H   0  0  0  0  0  0  0  0  0  0  0  0
  151.3157  138.2989  157.7804 H   0  0  0  0  0  0  0  0  0  0  0  0
  152.1924  137.7235  153.9018 H   0  0  0  0  0  0  0  0  0  0  0  0
  150.5425  138.3431  153.7200 H   0  0  0  0  0  0  0  0  0  0  0  0
  146.3298  130.7576  152.2225 H   0  0  0  0  0  0  0  0  0  0  0  0
  1  2  2  0  0  0  0
  2  3  1  0  0  0  0
  2 15  1  0  0  0  0
  3  4  1  0  0  0  0
  3 23  1  0  0  0  0
  4  9  1  0  0  0  0
  4  5  2  0  0  0  0
  5  6  1  0  0  0  0
  5 24  1  0  0  0  0
  6  7  2  0  0  0  0
  6 25  1  0  0  0  0
  7  8  1  0  0  0  0
  7 26  1  0  0  0  0
  8  9  2  0  0  0  0
  8 43  1  0  0  0  0
  9 10  1  0  0  0  0
 10 14  1  0  0  0  0
 10 11  1  0  0  0  0
 11 12  1  0  0  0  0
 11 27  1  0  0  0  0
 11 28  1  0  0  0  0
 12 13  1  0  0  0  0
 12 29  1  0  0  0  0
 12 30  1  0  0  0  0
 13 14  1  0  0  0  0
 13 31  1  0  0  0  0
 13 32  1  0  0  0  0
 14 33  1  0  0  0  0
 14 34  1  0  0  0  0
 15 16  1  0  0  0  0
 15 35  1  0  0  0  0
 16 22  1  0  0  0  0
 16 17  1  0  0  0  0
 16 36  1  0  0  0  0
 17 18  1  0  0  0  0
 17 37  1  0  0  0  0
 17 38  1  0  0  0  0
 18 19  1  0  0  0  0
 18 39  1  0  0  0  0
 18 40  1  0  0  0  0
 19 20  2  0  0  0  0
 19 21  2  0  0  0  0
 19 22  1  0  0  0  0
 22 41  1  0  0  0  0
 22 42  1  0  0  0  0
M  CHG  1   8   1
M  END
> <s_m_source_file>
AV-unprocessed.smi

> <i_m_source_file_index>
2047

> <i_lp_mmshare_version>
43012

> <i_f3d_flags>
0

> <s_epik_input>
Tz1TMSg9TylbQ0gyXVtDSDJdW0NASF0oW0NIMl0xKVtOSF1DKD1PKVtOSF1jMltjSF1bY0hdW2NIXW5jMk4zW0NIMl1bQ0gyXVtDSDJdW0NIMl0z

> <s_epik_cmdline>
J2VwaWtfcHl0aG9uJywgJy1waCcsICc3LjAnLCAnLXRuJywgJzgnLCAnLW1hJywgJzIwMCcsICctbWV0YWxfYmluZGluZycsICctaW1hZScsICc8aW5maWxlLm1hZT4nLCAnLW9tYWUnLCAnPG91dGZpbGUubWFlPic=

> <r_lp_tautomer_probability>
0.999994

> <r_epik_Ionization_Penalty>
1.20225

> <r_epik_Ionization_Penalty_Charging>
1.20223

> <r_epik_Ionization_Penalty_Neutral>
2.10783e-05

> <r_epik_State_Penalty>
1.26794

> <r_epik_Charging_Adjusted_Penalty>
2.47017

> <i_epik_Tot_Q>
1

> <i_epik_Tot_abs_Q>
1

> <r_epik_Metal_State_Penalty>
1.34322

> <b_epik_Metal_Only>
0

> <s_lp_Force_Field>
OPLS_2005

> <r_lp_Energy>
42.4659

> <b_lp_Chiralities_Consistent>
1

> <s_lp_Variant>
AV-unprocessed.smi:2047-3

> <Gold.Version>
5.8.1

> <Gold.Id.Protein>
6NUR|6NUR_protein|mol2

> <Gold.PLP.Fitness>
46.2243

> <Gold.PLP.PLP>
-36.0627

> <Gold.PLP.part.hbond>
-5.6473

> <Gold.PLP.part.metal>
0.0000

> <Gold.PLP.part.buried>
-4.2076

> <Gold.PLP.part.nonpolar>
-26.2966

> <Gold.PLP.part.repulsive>
0.2836

> <Gold.PLP.ligand.clash>
0.0000

> <Gold.PLP.ligand.torsion>
0.7269

> <Gold.PLP.Chemscore.Hbond>
3.8280

> <Gold.PLP.Chemscore.CHOScore>
0.0000

> <Gold.PLP.Chemscore.Metal>
0.0000

> <Gold.Chemscore.Hbonds>
donor molecule, donor type, donor heavy atom, donor atom, acceptor molecule, acceptor atom, score
      L1  H     3    23       P1  7948  0.83
      L1  H    15    35       P1  7948  0.98
      P1  H  7989  7998       L1    20  0.96
      P1  H  7997  8008       L1    21  1.00

> <Gold.PLP.Chemscore.Internal.Correction>
0.1314

> <Gold.Rescore>
     Score         DG    S(hbond)    S(metal)    S(lipo)     H(rot)  DE(clash)    DE(int)     intcor
     18.16     -20.26       3.22        0.00      61.99       1.26       0.04       2.06       ----

> <Gold.Chemscore.Fitness>
18.1571

> <Gold.Chemscore.DG>
-20.2625

> <Gold.Chemscore.ZeroCoef>
-5.4800

> <Gold.Chemscore.Hbond>
3.2194

> <Gold.Chemscore.Metal>
0.0000

> <Gold.Chemscore.Lipo>
61.9896

> <Gold.Chemscore.Internal_Hbond>
0.0000

> <Gold.Chemscore.DEClash>
0.0442

> <Gold.Chemscore.DEInternal>
2.0611

> <Gold.Chemscore.Rot>
1.2590

> <Gold.Chemscore.Internal.Correction>
   9.000000E+99

> <Gold.Chemscore.Hbonds>
donor molecule, donor type, donor heavy atom, donor atom, acceptor molecule, acceptor atom, score
      L1  H     3    23       P1  7948  0.21
      L1  H    15    35       P1  7948  0.65
      P1  H  7989  7998       L1    20  0.56
      P1  H  7997  8008       L1    21  0.97

> <Gold.Chemscore.Hbond.Weighted>
-10.7528

> <Gold.Chemscore.Metal.Weighted>
-0.0000

> <Gold.Chemscore.Lipo.Weighted>
-7.2528

> <Gold.Chemscore.Internal_Hbond.Weighted>
0.0000

> <Gold.Chemscore.DEClash.Weighted>
0.0442

> <Gold.Chemscore.DEInternal.Weighted>
2.0611

> <Gold.Chemscore.Rot.Weighted>
3.2231

> <Gold.Chemscore.Internal.Correction.Weighted>
   9.000000E+99

> <Gold.Protein.RotatedTorsions>
[ 6907 6896 6895 6894 ] final   18.58 input  -60.11 | X-H torsion
[ 7974 7965 7964 7962 ] final  -41.87 input  175.53 | X-H torsion
[ 8008 7997 7996 7995 ] final  -40.35 input   59.86 | X-H torsion
[ 10167 10162 10161 10158 ] final   47.16 input  -65.29 | X-H torsion
[ 10718 10713 10712 10709 ] final -140.20 input   66.30 | X-H torsion
[ 10763 10752 10751 10750 ] final   12.42 input  -60.55 | X-H torsion
[ 11005 11000 10999 10996 ] final  116.02 input  -57.11 | X-H torsion

> <Gold.Protein.ActiveResidues>
 VAL166  LYS551  ARG553  GLY616  TRP617  ASP618  TYR619  PRO620  LYS621  CYS622 
 ASP623  PHE694  ASN695  SER759  ASP760  ASP761  ALA762  ILE779  LEU786  VAL792 
 PHE793  MET794  SER795  GLU796  ALA797  LYS798  CYS799  TRP800  GLU811  SER814 

> <Gold.Protein.RotatedAtoms>
  151.8675  135.0501  160.0475 H   0  0  0  0  0  0  0  0  0  0  0  0  # atno 6907 bound_to 6896
  152.2614  133.5296  159.5392 H   0  0  0  0  0  0  0  0  0  0  0  0  # atno 6908 bound_to 6896
  150.7118  134.0740  159.3917 H   0  0  0  0  0  0  0  0  0  0  0  0  # atno 6909 bound_to 6896
  146.0170  140.6896  142.9197 H   0  0  0  0  0  0  0  0  0  0  0  0  # atno 7974 bound_to 7965
  154.4013  140.1527  156.3013 H   0  0  0  0  0  0  0  0  0  0  0  0  # atno 8008 bound_to 7997
  155.8698  140.3449  155.5792 H   0  0  0  0  0  0  0  0  0  0  0  0  # atno 8009 bound_to 7997
  155.7787  140.0840  157.2061 H   0  0  0  0  0  0  0  0  0  0  0  0  # atno 8010 bound_to 7997
  140.3065  144.2872  150.6208 H   0  0  0  0  0  0  0  0  0  0  0  0  # atno 10167 bound_to 10162
  156.3195  130.7526  151.1621 H   0  0  0  0  0  0  0  0  0  0  0  0  # atno 10718 bound_to 10713
  153.1824  135.6830  153.8460 H   0  0  0  0  0  0  0  0  0  0  0  0  # atno 10763 bound_to 10752
  153.7787  135.3185  155.3364 H   0  0  0  0  0  0  0  0  0  0  0  0  # atno 10764 bound_to 10752
  154.8068  135.4743  154.0508 H   0  0  0  0  0  0  0  0  0  0  0  0  # atno 10765 bound_to 10752
  139.9028  134.9592  156.7133 H   0  0  0  0  0  0  0  0  0  0  0  0  # atno 11005 bound_to 11000
  144.6975  140.3499  143.7184 LP  0  0  0  0  0  0  0  0  0  0  0  0  # atno 17320 bound_to 7965
  145.7253  139.1721  143.2461 LP  0  0  0  0  0  0  0  0  0  0  0  0  # atno 17321 bound_to 7965
  140.5606  143.2193  151.7772 LP  0  0  0  0  0  0  0  0  0  0  0  0  # atno 17342 bound_to 10162
  139.4903  144.4354  151.9825 LP  0  0  0  0  0  0  0  0  0  0  0  0  # atno 17343 bound_to 10162
  157.7409  131.0511  150.5136 LP  0  0  0  0  0  0  0  0  0  0  0  0  # atno 17370 bound_to 10713
  156.5286  130.4179  149.6213 LP  0  0  0  0  0  0  0  0  0  0  0  0  # atno 17371 bound_to 10713
  140.7058  133.9266  155.8053 LP  0  0  0  0  0  0  0  0  0  0  0  0  # atno 17394 bound_to 11000
  141.0337  134.0719  157.3984 LP  0  0  0  0  0  0  0  0  0  0  0  0  # atno 17395 bound_to 11000

$$$$
