AV-unprocessed.smi:862|AV-procd|sdf|3980|dock8
  -GOLD-   22720 1453D 1   1.00000     0.00000
 Structure written by MMmdl.
 45 47  0  0  0  0  0  0  0  0  3 V2000
  151.2390  130.7421  155.8163 N   0  0  0  0  0  0  0  0  0  0  0  0
  149.9136  130.5720  155.7869 C   0  0  0  0  0  0  0  0  0  0  0  0
  149.4182  129.4476  155.8361 O   0  0  0  0  0  0  0  0  0  0  0  0
  149.1837  131.7153  155.7471 N   0  0  0  0  0  0  0  0  0  0  0  0
  149.7039  133.0678  155.4870 C   0  0  0  0  0  0  0  0  0  0  0  0
  149.3248  133.4758  154.0512 C   0  0  0  0  0  0  0  0  0  0  0  0
  147.7984  133.4073  153.8322 C   0  0  0  0  0  0  0  0  0  0  0  0
  147.4834  133.6716  152.4099 N   0  3  0  0  0  0  0  0  0  0  0  0
  146.0504  133.6150  152.0359 C   0  0  2  0  0  0  0  0  0  0  0  0
  145.6172  132.2575  151.4741 C   0  0  0  0  0  0  0  0  0  0  0  0
  144.3559  132.5490  150.6528 C   0  0  0  0  0  0  0  0  0  0  0  0
  144.4176  134.0361  150.2707 C   0  0  0  0  0  0  0  0  0  0  0  0
  145.7183  134.5789  150.8871 C   0  0  1  0  0  0  0  0  0  0  0  0
  145.6392  135.9928  151.2903 N   0  0  0  0  0  0  0  0  0  0  0  0
  146.6742  136.7775  151.7332 C   0  0  0  0  0  0  0  0  0  0  0  0
  146.1470  138.0165  151.9917 C   0  0  0  0  0  0  0  0  0  0  0  0
  144.8126  137.9384  151.6991 N   0  3  0  0  0  0  0  0  0  0  0  0
  144.5047  136.7087  151.2746 C   0  0  0  0  0  0  0  0  0  0  0  0
  147.2440  132.0380  154.2871 C   0  0  0  0  0  0  0  0  0  0  0  0
  147.7165  131.6947  155.7113 C   0  0  0  0  0  0  0  0  0  0  0  0
  151.8444  129.9350  155.8590 H   0  0  0  0  0  0  0  0  0  0  0  0
  151.6308  131.6722  155.8083 H   0  0  0  0  0  0  0  0  0  0  0  0
  149.2638  133.7642  156.2021 H   0  0  0  0  0  0  0  0  0  0  0  0
  150.7816  133.1587  155.6216 H   0  0  0  0  0  0  0  0  0  0  0  0
  149.6860  134.4844  153.8468 H   0  0  0  0  0  0  0  0  0  0  0  0
  149.8329  132.8162  153.3456 H   0  0  0  0  0  0  0  0  0  0  0  0
  147.3480  134.1873  154.4483 H   0  0  0  0  0  0  0  0  0  0  0  0
  147.7954  134.6121  152.2152 H   0  0  0  0  0  0  0  0  0  0  0  0
  145.4349  133.8554  152.9044 H   0  0  0  0  0  0  0  0  0  0  0  0
  146.3909  131.8595  150.8155 H   0  0  0  0  0  0  0  0  0  0  0  0
  145.4331  131.5192  152.2552 H   0  0  0  0  0  0  0  0  0  0  0  0
  144.2944  131.9046  149.7751 H   0  0  0  0  0  0  0  0  0  0  0  0
  143.4657  132.3621  151.2548 H   0  0  0  0  0  0  0  0  0  0  0  0
  144.4092  134.1753  149.1891 H   0  0  0  0  0  0  0  0  0  0  0  0
  143.5367  134.5442  150.6640 H   0  0  0  0  0  0  0  0  0  0  0  0
  146.5020  134.5009  150.1308 H   0  0  0  0  0  0  0  0  0  0  0  0
  147.6860  136.4091  151.8263 H   0  0  0  0  0  0  0  0  0  0  0  0
  146.6094  138.9245  152.3510 H   0  0  0  0  0  0  0  0  0  0  0  0
  143.5303  136.3668  150.9729 H   0  0  0  0  0  0  0  0  0  0  0  0
  146.1554  132.0311  154.2590 H   0  0  0  0  0  0  0  0  0  0  0  0
  147.5746  131.2566  153.6008 H   0  0  0  0  0  0  0  0  0  0  0  0
  147.3041  130.7333  156.0212 H   0  0  0  0  0  0  0  0  0  0  0  0
  147.3268  132.4239  156.4231 H   0  0  0  0  0  0  0  0  0  0  0  0
  148.0141  133.0373  151.8296 H   0  0  0  0  0  0  0  0  0  0  0  0
  144.1531  138.7020  151.7856 H   0  0  0  0  0  0  0  0  0  0  0  0
  1  2  1  0  0  0  0
  1 21  1  0  0  0  0
  1 22  1  0  0  0  0
  2  3  2  0  0  0  0
  2  4  1  0  0  0  0
  4 20  1  0  0  0  0
  4  5  1  0  0  0  0
  5  6  1  0  0  0  0
  5 23  1  0  0  0  0
  5 24  1  0  0  0  0
  6  7  1  0  0  0  0
  6 25  1  0  0  0  0
  6 26  1  0  0  0  0
  7  8  1  0  0  0  0
  7 19  1  0  0  0  0
  7 27  1  0  0  0  0
  8  9  1  0  0  0  0
  8 28  1  0  0  0  0
  8 44  1  0  0  0  0
  9 13  1  0  0  0  0
  9 10  1  0  0  0  0
  9 29  1  0  0  0  0
 10 11  1  0  0  0  0
 10 30  1  0  0  0  0
 10 31  1  0  0  0  0
 11 12  1  0  0  0  0
 11 32  1  0  0  0  0
 11 33  1  0  0  0  0
 12 13  1  0  0  0  0
 12 34  1  0  0  0  0
 12 35  1  0  0  0  0
 13 14  1  0  0  0  0
 13 36  1  0  0  0  0
 14 18  1  0  0  0  0
 14 15  1  0  0  0  0
 15 16  2  0  0  0  0
 15 37  1  0  0  0  0
 16 17  1  0  0  0  0
 16 38  1  0  0  0  0
 17 18  2  0  0  0  0
 17 45  1  0  0  0  0
 18 39  1  0  0  0  0
 19 20  1  0  0  0  0
 19 40  1  0  0  0  0
 19 41  1  0  0  0  0
 20 42  1  0  0  0  0
 20 43  1  0  0  0  0
M  CHG  1   8   1
M  CHG  1  17   1
M  END
> <s_m_source_file>
AV-unprocessed.smi

> <i_m_source_file_index>
862

> <i_lp_mmshare_version>
43012

> <i_f3d_flags>
0

> <s_epik_input>
W05IMl1DKD1PKU4xW0NIMl1bQ0gyXVtDSF0oW0NIMl1bQ0gyXTEpW05IXVtDQEBIXTJbQ0gyXVtDSDJdW0NIMl1bQ0BIXTJuM1tjSF1bY0hdbltjSF0z

> <s_epik_cmdline>
J2VwaWtfcHl0aG9uJywgJy1waCcsICc3LjAnLCAnLXRuJywgJzgnLCAnLW1hJywgJzIwMCcsICctbWV0YWxfYmluZGluZycsICctaW1hZScsICc8aW5maWxlLm1hZT4nLCAnLW9tYWUnLCAnPG91dGZpbGUubWFlPic=

> <r_lp_tautomer_probability>
1

> <r_epik_Ionization_Penalty>
1.30217

> <r_epik_Ionization_Penalty_Charging>
0.00439521

> <r_epik_Ionization_Penalty_Neutral>
1.29777

> <r_epik_State_Penalty>
0.977606

> <r_epik_Charging_Adjusted_Penalty>
0.982001

> <i_epik_Tot_Q>
2

> <i_epik_Tot_abs_Q>
2

> <r_epik_Metal_State_Penalty>
1.03289

> <b_epik_Metal_Only>
0

> <s_lp_Force_Field>
OPLS_2005

> <r_lp_Energy>
65.3299

> <b_lp_Chiralities_Consistent>
1

> <s_lp_Variant>
AV-unprocessed.smi:862-5

> <Gold.Version>
5.8.1

> <Gold.Id.Protein>
6NUR|6NUR_protein|mol2

> <Gold.PLP.Fitness>
41.0761

> <Gold.PLP.PLP>
-30.2078

> <Gold.PLP.part.hbond>
-2.8236

> <Gold.PLP.part.metal>
0.0000

> <Gold.PLP.part.buried>
4.2643

> <Gold.PLP.part.nonpolar>
-31.4738

> <Gold.PLP.part.repulsive>
0.1009

> <Gold.PLP.ligand.clash>
0.0000

> <Gold.PLP.ligand.torsion>
0.5676

> <Gold.PLP.Chemscore.Hbond>
3.9840

> <Gold.PLP.Chemscore.CHOScore>
0.0000

> <Gold.PLP.Chemscore.Metal>
0.0000

> <Gold.Chemscore.Hbonds>
donor molecule, donor type, donor heavy atom, donor atom, acceptor molecule, acceptor atom, score
      L1  H     8    28       P1  7948  2.00
      L1  H    17    45       P1 10175  2.00

> <Gold.PLP.Chemscore.Internal.Correction>
0.0515

> <Gold.Rescore>
     Score         DG    S(hbond)    S(metal)    S(lipo)     H(rot)  DE(clash)    DE(int)     intcor
     11.10     -13.71       1.68        0.00      59.11       1.68       2.13       0.49       ----

> <Gold.Chemscore.Fitness>
11.0963

> <Gold.Chemscore.DG>
-13.7134

> <Gold.Chemscore.ZeroCoef>
-5.4800

> <Gold.Chemscore.Hbond>
1.6831

> <Gold.Chemscore.Metal>
0.0000

> <Gold.Chemscore.Lipo>
59.1123

> <Gold.Chemscore.Internal_Hbond>
0.0000

> <Gold.Chemscore.DEClash>
2.1257

> <Gold.Chemscore.DEInternal>
0.4915

> <Gold.Chemscore.Rot>
1.6814

> <Gold.Chemscore.Internal.Correction>
   9.000000E+99

> <Gold.Chemscore.Hbonds>
donor molecule, donor type, donor heavy atom, donor atom, acceptor molecule, acceptor atom, score
      L1  H     8    28       P1  7948  0.54
      L1  H    17    45       P1 10175  0.96

> <Gold.Chemscore.Hbond.Weighted>
-5.6216

> <Gold.Chemscore.Metal.Weighted>
-0.0000

> <Gold.Chemscore.Lipo.Weighted>
-6.9161

> <Gold.Chemscore.Internal_Hbond.Weighted>
0.0000

> <Gold.Chemscore.DEClash.Weighted>
2.1257

> <Gold.Chemscore.DEInternal.Weighted>
0.4915

> <Gold.Chemscore.Rot.Weighted>
4.3043

> <Gold.Chemscore.Internal.Correction.Weighted>
   9.000000E+99

> <Gold.Protein.RotatedTorsions>
[ 6907 6896 6895 6894 ] final  -21.43 input  -60.11 | X-H torsion
[ 7974 7965 7964 7962 ] final  155.19 input  175.53 | X-H torsion
[ 8008 7997 7996 7995 ] final  157.23 input   59.86 | X-H torsion
[ 10167 10162 10161 10158 ] final   18.60 input  -65.29 | X-H torsion
[ 10718 10713 10712 10709 ] final -127.86 input   66.30 | X-H torsion
[ 10763 10752 10751 10750 ] final  -50.72 input  -60.55 | X-H torsion
[ 11005 11000 10999 10996 ] final  -38.37 input  -57.11 | X-H torsion

> <Gold.Protein.ActiveResidues>
 VAL166  LYS551  ARG553  GLY616  TRP617  ASP618  TYR619  PRO620  LYS621  CYS622 
 ASP623  PHE694  ASN695  SER759  ASP760  ASP761  ALA762  ILE779  LEU786  VAL792 
 PHE793  MET794  SER795  GLU796  ALA797  LYS798  CYS799  TRP800  GLU811  SER814 

> <Gold.Protein.RotatedAtoms>
  151.2334  135.0563  159.8996 H   0  0  0  0  0  0  0  0  0  0  0  0  # atno 6907 bound_to 6896
  152.5402  134.0512  159.8121 H   0  0  0  0  0  0  0  0  0  0  0  0  # atno 6908 bound_to 6896
  151.0695  133.5429  159.2659 H   0  0  0  0  0  0  0  0  0  0  0  0  # atno 6909 bound_to 6896
  144.8040  139.7035  143.6170 H   0  0  0  0  0  0  0  0  0  0  0  0  # atno 7974 bound_to 7965
  156.2376  140.1891  156.7076 H   0  0  0  0  0  0  0  0  0  0  0  0  # atno 8008 bound_to 7997
  154.6136  140.0618  156.9553 H   0  0  0  0  0  0  0  0  0  0  0  0  # atno 8009 bound_to 7997
  155.1975  140.3289  155.4351 H   0  0  0  0  0  0  0  0  0  0  0  0  # atno 8010 bound_to 7997
  140.5641  143.9283  150.6664 H   0  0  0  0  0  0  0  0  0  0  0  0  # atno 10167 bound_to 10162
  156.1896  130.6786  151.0408 H   0  0  0  0  0  0  0  0  0  0  0  0  # atno 10718 bound_to 10713
  154.1149  135.6543  153.4892 H   0  0  0  0  0  0  0  0  0  0  0  0  # atno 10763 bound_to 10752
  153.0244  135.5256  154.7155 H   0  0  0  0  0  0  0  0  0  0  0  0  # atno 10764 bound_to 10752
  154.6345  135.2980  155.0146 H   0  0  0  0  0  0  0  0  0  0  0  0  # atno 10765 bound_to 10752
  141.0023  133.6949  156.2045 H   0  0  0  0  0  0  0  0  0  0  0  0  # atno 11005 bound_to 11000
  146.2328  139.5846  142.9544 LP  0  0  0  0  0  0  0  0  0  0  0  0  # atno 17320 bound_to 7965
  145.5483  141.0415  143.2292 LP  0  0  0  0  0  0  0  0  0  0  0  0  # atno 17321 bound_to 7965
  140.2741  143.3435  152.1211 LP  0  0  0  0  0  0  0  0  0  0  0  0  # atno 17342 bound_to 10162
  139.5084  144.6850  151.5912 LP  0  0  0  0  0  0  0  0  0  0  0  0  # atno 17343 bound_to 10162
  157.6921  131.0806  150.7078 LP  0  0  0  0  0  0  0  0  0  0  0  0  # atno 17370 bound_to 10713
  156.7134  130.4659  149.5541 LP  0  0  0  0  0  0  0  0  0  0  0  0  # atno 17371 bound_to 10713
  140.6869  134.4707  157.5589 LP  0  0  0  0  0  0  0  0  0  0  0  0  # atno 17394 bound_to 11000
  139.9045  134.8480  156.1761 LP  0  0  0  0  0  0  0  0  0  0  0  0  # atno 17395 bound_to 11000

$$$$
