AV-unprocessed.smi:148|AV-procd|sdf|1228|dock6
  -GOLD-   2262018433D 1   1.00000     0.00000
 Structure written by MMmdl.
 63 67  0  0  0  0  0  0  0  0  1 V2000
  146.3682  140.8865  153.4594 O   0  0  0  0  0  0  0  0  0  0  0  0
  147.1038  139.7709  153.9178 C   0  0  0  0  0  0  0  0  0  0  0  0
  146.4036  139.0844  155.1163 C   0  0  2  0  0  0  0  0  0  0  0  0
  147.4071  138.5354  156.1609 C   0  0  0  0  0  0  0  0  0  0  0  0
  148.2923  139.5580  156.6906 N   0  0  0  0  0  0  0  0  0  0  0  0
  147.9144  140.7168  157.3298 C   0  0  0  0  0  0  0  0  0  0  0  0
  148.8962  141.4892  157.7075 N   0  0  0  0  0  0  0  0  0  0  0  0
  150.0374  140.8063  157.3037 C   0  0  0  0  0  0  0  0  0  0  0  0
  151.4351  141.0627  157.3937 C   0  0  0  0  0  0  0  0  0  0  0  0
  151.9806  142.1660  157.9499 N   0  0  0  0  0  0  0  0  0  0  0  0
  151.1241  143.3144  157.6431 C   0  0  0  0  0  0  0  0  0  0  0  0
  151.7989  144.6380  158.0133 C   0  0  0  0  0  0  0  0  0  0  0  0
  152.2042  144.6159  159.4870 C   0  0  0  0  0  0  0  0  0  0  0  0
  153.1065  143.4059  159.7576 C   0  0  0  0  0  0  0  0  0  0  0  0
  152.4498  142.0581  159.3484 C   0  0  2  0  0  0  0  0  0  0  0  0
  153.4550  140.8786  159.5939 C   0  0  2  0  0  0  0  0  0  0  0  0
  152.8588  139.4921  159.9211 C   0  0  0  0  0  0  0  0  0  0  0  0
  153.9452  138.6996  160.6621 C   0  0  0  0  0  0  0  0  0  0  0  0
  155.0643  139.6967  160.9749 C   0  0  0  0  0  0  0  0  0  0  0  0
  154.4482  141.0798  160.7587 C   0  0  2  0  0  0  0  0  0  0  0  0
  153.7777  141.4654  161.9460 O   0  0  0  0  0  0  0  0  0  0  0  0
  152.2866  140.1532  156.8591 N   0  0  0  0  0  0  0  0  0  0  0  0
  151.8051  139.0440  156.2901 C   0  0  0  0  0  0  0  0  0  0  0  0
  150.5337  138.6638  156.1447 N   0  0  0  0  0  0  0  0  0  0  0  0
  149.6756  139.5864  156.6673 C   0  0  0  0  0  0  0  0  0  0  0  0
  145.3968  137.9970  154.6623 C   0  0  1  0  0  0  0  0  0  0  0  0
  146.0067  136.8539  153.8700 C   0  0  0  0  0  0  0  0  0  0  0  0
  144.9348  135.7766  153.9855 C   0  0  0  0  0  0  0  0  0  0  0  0
  144.3529  135.9557  155.2714 O   0  0  0  0  0  0  0  0  0  0  0  0
  144.7305  137.2213  155.8048 C   0  0  0  0  0  0  0  0  0  0  0  0
  145.5192  140.5892  153.1698 H   0  0  0  0  0  0  0  0  0  0  0  0
  147.2388  139.0756  153.0895 H   0  0  0  0  0  0  0  0  0  0  0  0
  148.1045  140.1044  154.1915 H   0  0  0  0  0  0  0  0  0  0  0  0
  145.8269  139.8637  155.6171 H   0  0  0  0  0  0  0  0  0  0  0  0
  146.8793  138.0915  157.0048 H   0  0  0  0  0  0  0  0  0  0  0  0
  148.0120  137.7395  155.7249 H   0  0  0  0  0  0  0  0  0  0  0  0
  146.8796  140.9754  157.5017 H   0  0  0  0  0  0  0  0  0  0  0  0
  150.8765  143.3237  156.5801 H   0  0  0  0  0  0  0  0  0  0  0  0
  150.1825  143.2241  158.1866 H   0  0  0  0  0  0  0  0  0  0  0  0
  152.6776  144.7952  157.3863 H   0  0  0  0  0  0  0  0  0  0  0  0
  151.1221  145.4707  157.8208 H   0  0  0  0  0  0  0  0  0  0  0  0
  152.7224  145.5390  159.7486 H   0  0  0  0  0  0  0  0  0  0  0  0
  151.3158  144.5638  160.1176 H   0  0  0  0  0  0  0  0  0  0  0  0
  154.0453  143.5324  159.2160 H   0  0  0  0  0  0  0  0  0  0  0  0
  153.3602  143.4139  160.8165 H   0  0  0  0  0  0  0  0  0  0  0  0
  151.5764  141.9091  159.9842 H   0  0  0  0  0  0  0  0  0  0  0  0
  154.0554  140.7668  158.6890 H   0  0  0  0  0  0  0  0  0  0  0  0
  151.9911  139.6026  160.5725 H   0  0  0  0  0  0  0  0  0  0  0  0
  152.5380  138.9506  159.0324 H   0  0  0  0  0  0  0  0  0  0  0  0
  153.5386  138.2703  161.5785 H   0  0  0  0  0  0  0  0  0  0  0  0
  154.3225  137.8758  160.0554 H   0  0  0  0  0  0  0  0  0  0  0  0
  155.4822  139.5639  161.9738 H   0  0  0  0  0  0  0  0  0  0  0  0
  155.8783  139.5530  160.2630 H   0  0  0  0  0  0  0  0  0  0  0  0
  155.2178  141.8166  160.5270 H   0  0  0  0  0  0  0  0  0  0  0  0
  153.0763  140.8530  162.1067 H   0  0  0  0  0  0  0  0  0  0  0  0
  152.5447  138.3638  155.8942 H   0  0  0  0  0  0  0  0  0  0  0  0
  144.6152  138.4541  154.0528 H   0  0  0  0  0  0  0  0  0  0  0  0
  146.2237  137.1136  152.8336 H   0  0  0  0  0  0  0  0  0  0  0  0
  146.9309  136.5135  154.3395 H   0  0  0  0  0  0  0  0  0  0  0  0
  144.1622  135.9263  153.2304 H   0  0  0  0  0  0  0  0  0  0  0  0
  145.3372  134.7708  153.8648 H   0  0  0  0  0  0  0  0  0  0  0  0
  145.4352  137.0484  156.6193 H   0  0  0  0  0  0  0  0  0  0  0  0
  143.8664  137.7460  156.2133 H   0  0  0  0  0  0  0  0  0  0  0  0
  1  2  1  0  0  0  0
  1 31  1  0  0  0  0
  2  3  1  0  0  0  0
  2 32  1  0  0  0  0
  2 33  1  0  0  0  0
  3  4  1  0  0  0  0
  3 26  1  0  0  0  0
  3 34  1  0  0  0  0
  4  5  1  0  0  0  0
  4 35  1  0  0  0  0
  4 36  1  0  0  0  0
  5 25  1  0  0  0  0
  5  6  1  0  0  0  0
  6  7  2  0  0  0  0
  6 37  1  0  0  0  0
  7  8  1  0  0  0  0
  8 25  2  0  0  0  0
  8  9  1  0  0  0  0
  9 10  1  0  0  0  0
  9 22  2  0  0  0  0
 10 15  1  0  0  0  0
 10 11  1  0  0  0  0
 11 12  1  0  0  0  0
 11 38  1  0  0  0  0
 11 39  1  0  0  0  0
 12 13  1  0  0  0  0
 12 40  1  0  0  0  0
 12 41  1  0  0  0  0
 13 14  1  0  0  0  0
 13 42  1  0  0  0  0
 13 43  1  0  0  0  0
 14 15  1  0  0  0  0
 14 44  1  0  0  0  0
 14 45  1  0  0  0  0
 15 16  1  0  0  0  0
 15 46  1  0  0  0  0
 16 20  1  0  0  0  0
 16 17  1  0  0  0  0
 16 47  1  0  0  0  0
 17 18  1  0  0  0  0
 17 48  1  0  0  0  0
 17 49  1  0  0  0  0
 18 19  1  0  0  0  0
 18 50  1  0  0  0  0
 18 51  1  0  0  0  0
 19 20  1  0  0  0  0
 19 52  1  0  0  0  0
 19 53  1  0  0  0  0
 20 21  1  0  0  0  0
 20 54  1  0  0  0  0
 21 55  1  0  0  0  0
 22 23  1  0  0  0  0
 23 24  2  0  0  0  0
 23 56  1  0  0  0  0
 24 25  1  0  0  0  0
 26 30  1  0  0  0  0
 26 27  1  0  0  0  0
 26 57  1  0  0  0  0
 27 28  1  0  0  0  0
 27 58  1  0  0  0  0
 27 59  1  0  0  0  0
 28 29  1  0  0  0  0
 28 60  1  0  0  0  0
 28 61  1  0  0  0  0
 29 30  1  0  0  0  0
 30 62  1  0  0  0  0
 30 63  1  0  0  0  0
M  END
> <s_m_source_file>
AV-unprocessed.smi

> <i_m_source_file_index>
148

> <i_lp_mmshare_version>
43012

> <i_f3d_flags>
0

> <s_epik_input>
W0NIMl0xT1tDSDJdW0NIMl1bQ0BIXTFbQ0BIXShbQ0gyXVtPSF0pW0NIMl1uKFtjSF1uMiljKGMyMyluW2NIXW5jM040W0NIMl1bQ0gyXVtDSDJdW0NIMl1bQ0BIXTRbQ0BASF01W0NIMl1bQ0gyXVtDSDJdW0NASF01W09IXQ==

> <s_epik_cmdline>
J2VwaWtfcHl0aG9uJywgJy1waCcsICc3LjAnLCAnLXRuJywgJzgnLCAnLW1hJywgJzIwMCcsICctbWV0YWxfYmluZGluZycsICctaW1hZScsICc8aW5maWxlLm1hZT4nLCAnLW9tYWUnLCAnPG91dGZpbGUubWFlPic=

> <r_lp_tautomer_probability>
1

> <r_epik_Ionization_Penalty>
0.00556303

> <r_epik_Ionization_Penalty_Charging>
0

> <r_epik_Ionization_Penalty_Neutral>
0.00556303

> <r_epik_State_Penalty>
0.00401767

> <r_epik_Charging_Adjusted_Penalty>
0.00401767

> <i_epik_Tot_Q>
0

> <i_epik_Tot_abs_Q>
0

> <r_epik_Metal_State_Penalty>
-0

> <b_epik_Metal_Only>
0

> <s_lp_Force_Field>
OPLS_2005

> <r_lp_Energy>
70.1865

> <b_lp_Chiralities_Consistent>
1

> <s_lp_Variant>
AV-unprocessed.smi:148-27

> <Gold.Version>
5.8.1

> <Gold.Id.Protein>
6NUR|6NUR_protein|mol2

> <Gold.PLP.Fitness>
43.1643

> <Gold.PLP.PLP>
-40.2159

> <Gold.PLP.part.hbond>
-2.0000

> <Gold.PLP.part.metal>
0.0000

> <Gold.PLP.part.buried>
-3.7242

> <Gold.PLP.part.nonpolar>
-34.2888

> <Gold.PLP.part.repulsive>
0.1251

> <Gold.PLP.ligand.clash>
0.0000

> <Gold.PLP.ligand.torsion>
1.8160

> <Gold.PLP.Chemscore.Hbond>
1.9913

> <Gold.PLP.Chemscore.CHOScore>
0.0000

> <Gold.PLP.Chemscore.Metal>
0.0000

> <Gold.Chemscore.Hbonds>
donor molecule, donor type, donor heavy atom, donor atom, acceptor molecule, acceptor atom, score
      L1  H     1    31       P1 10175  1.00
      P1  H  7997  8010       L1    22  0.83

> <Gold.PLP.Chemscore.Internal.Correction>
0.6066

> <Gold.Rescore>
     Score         DG    S(hbond)    S(metal)    S(lipo)     H(rot)  DE(clash)    DE(int)     intcor
     12.51     -16.49       1.86        0.00     113.78       3.32       1.30       2.69       ----

> <Gold.Chemscore.Fitness>
12.5068

> <Gold.Chemscore.DG>
-16.4903

> <Gold.Chemscore.ZeroCoef>
-5.4800

> <Gold.Chemscore.Hbond>
1.8557

> <Gold.Chemscore.Metal>
0.0000

> <Gold.Chemscore.Lipo>
113.7792

> <Gold.Chemscore.Internal_Hbond>
0.0000

> <Gold.Chemscore.DEClash>
1.2975

> <Gold.Chemscore.DEInternal>
2.6860

> <Gold.Chemscore.Rot>
3.3203

> <Gold.Chemscore.Internal.Correction>
   9.000000E+99

> <Gold.Chemscore.Hbonds>
donor molecule, donor type, donor heavy atom, donor atom, acceptor molecule, acceptor atom, score
      L1  H     1    31       P1 10175  0.84
      P1  H  7997  8010       L1    22  0.35

> <Gold.Chemscore.Hbond.Weighted>
-6.1981

> <Gold.Chemscore.Metal.Weighted>
-0.0000

> <Gold.Chemscore.Lipo.Weighted>
-13.3122

> <Gold.Chemscore.Internal_Hbond.Weighted>
0.0000

> <Gold.Chemscore.DEClash.Weighted>
1.2975

> <Gold.Chemscore.DEInternal.Weighted>
2.6860

> <Gold.Chemscore.Rot.Weighted>
8.5000

> <Gold.Chemscore.Internal.Correction.Weighted>
   9.000000E+99

> <Gold.Protein.RotatedTorsions>
[ 6907 6896 6895 6894 ] final   56.07 input  -60.11 | X-H torsion
[ 7974 7965 7964 7962 ] final -141.65 input  175.53 | X-H torsion
[ 8008 7997 7996 7995 ] final   76.15 input   59.86 | X-H torsion
[ 10167 10162 10161 10158 ] final  117.97 input  -65.29 | X-H torsion
[ 10718 10713 10712 10709 ] final  105.25 input   66.30 | X-H torsion
[ 10763 10752 10751 10750 ] final  127.83 input  -60.55 | X-H torsion
[ 11005 11000 10999 10996 ] final -155.53 input  -57.11 | X-H torsion

> <Gold.Protein.ActiveResidues>
 VAL166  LYS551  ARG553  GLY616  TRP617  ASP618  TYR619  PRO620  LYS621  CYS622 
 ASP623  PHE694  ASN695  SER759  ASP760  ASP761  ALA762  ILE779  LEU786  VAL792 
 PHE793  MET794  SER795  GLU796  ALA797  LYS798  CYS799  TRP800  GLU811  SER814 

> <Gold.Protein.RotatedAtoms>
  152.3600  134.6885  160.0209 H   0  0  0  0  0  0  0  0  0  0  0  0  # atno 6907 bound_to 6896
  151.7212  133.3309  159.3324 H   0  0  0  0  0  0  0  0  0  0  0  0  # atno 6908 bound_to 6896
  150.7598  134.6381  159.6266 H   0  0  0  0  0  0  0  0  0  0  0  0  # atno 6909 bound_to 6896
  144.8503  140.6054  143.5394 H   0  0  0  0  0  0  0  0  0  0  0  0  # atno 7974 bound_to 7965
  155.8232  140.3469  155.5527 H   0  0  0  0  0  0  0  0  0  0  0  0  # atno 8008 bound_to 7997
  155.8320  140.0928  157.1807 H   0  0  0  0  0  0  0  0  0  0  0  0  # atno 8009 bound_to 7997
  154.4004  140.1410  156.3612 H   0  0  0  0  0  0  0  0  0  0  0  0  # atno 8010 bound_to 7997
  139.6142  144.7088  151.2775 H   0  0  0  0  0  0  0  0  0  0  0  0  # atno 10167 bound_to 10162
  157.6712  131.0823  150.5828 H   0  0  0  0  0  0  0  0  0  0  0  0  # atno 10718 bound_to 10713
  153.7157  135.3261  155.3256 H   0  0  0  0  0  0  0  0  0  0  0  0  # atno 10763 bound_to 10752
  154.8371  135.4487  154.1269 H   0  0  0  0  0  0  0  0  0  0  0  0  # atno 10764 bound_to 10752
  153.2375  135.6967  153.7900 H   0  0  0  0  0  0  0  0  0  0  0  0  # atno 10765 bound_to 10752
  140.6855  134.4098  157.5223 H   0  0  0  0  0  0  0  0  0  0  0  0  # atno 11005 bound_to 11000
  145.4513  139.1523  143.3916 LP  0  0  0  0  0  0  0  0  0  0  0  0  # atno 17320 bound_to 7965
  146.2779  140.4639  142.8788 LP  0  0  0  0  0  0  0  0  0  0  0  0  # atno 17321 bound_to 7965
  140.7340  143.6779  150.8026 LP  0  0  0  0  0  0  0  0  0  0  0  0  # atno 17342 bound_to 10162
  140.0379  143.5376  152.2731 LP  0  0  0  0  0  0  0  0  0  0  0  0  # atno 17343 bound_to 10162
  156.6129  130.4385  149.5852 LP  0  0  0  0  0  0  0  0  0  0  0  0  # atno 17370 bound_to 10713
  156.2416  130.6855  151.1561 LP  0  0  0  0  0  0  0  0  0  0  0  0  # atno 17371 bound_to 10713
  139.8939  134.8720  156.2202 LP  0  0  0  0  0  0  0  0  0  0  0  0  # atno 17394 bound_to 11000
  141.0284  133.7002  156.1387 LP  0  0  0  0  0  0  0  0  0  0  0  0  # atno 17395 bound_to 11000

$$$$
