AV-unprocessed.smi:1|AV-procd|sdf|3|dock2
  -GOLD-   2262015 83D 1   1.00000     0.00000
 Structure written by MMmdl.
 57 62  0  0  0  0  0  0  0  0  1 V2000
  156.3350  138.5842  154.2954 O   0  0  0  0  0  0  0  0  0  0  0  0
  156.8681  137.5042  154.5520 C   0  0  0  0  0  0  0  0  0  0  0  0
  156.7195  136.8555  155.8425 N   0  0  0  0  0  0  0  0  0  0  0  0
  156.0924  137.3247  156.9464 C   0  0  0  0  0  0  0  0  0  0  0  0
  156.7688  137.7110  158.0599 N   0  0  0  0  0  0  0  0  0  0  0  0
  156.1043  138.1629  159.1269 C   0  0  0  0  0  0  0  0  0  0  0  0
  154.7878  138.3032  159.2898 N   0  0  0  0  0  0  0  0  0  0  0  0
  154.0980  137.9122  158.1781 C   0  0  0  0  0  0  0  0  0  0  0  0
  154.6765  137.4152  156.9766 C   0  0  0  0  0  0  0  0  0  0  0  0
  153.6765  137.1152  156.0611 N   0  0  0  0  0  0  0  0  0  0  0  0
  152.5720  137.4107  156.6917 C   0  0  0  0  0  0  0  0  0  0  0  0
  152.7311  137.8889  157.9733 N   0  0  0  0  0  0  0  0  0  0  0  0
  151.6504  138.2831  158.9323 C   0  0  2  0  0  0  0  0  0  0  0  0
  150.5820  137.4000  158.7776 O   0  0  0  0  0  0  0  0  0  0  0  0
  149.3498  138.1059  158.8154 C   0  0  2  0  0  0  0  0  0  0  0  0
  148.2577  137.3379  158.0614 C   0  0  0  0  0  0  0  0  0  0  0  0
  148.0501  136.0857  158.6931 O   0  0  0  0  0  0  0  0  0  0  0  0
  147.7061  136.0356  159.9946 C   0  0  0  0  0  0  0  0  0  0  0  0
  147.6067  137.0323  160.7134 O   0  0  0  0  0  0  0  0  0  0  0  0
  147.4591  134.6458  160.4759 C   0  0  0  0  0  0  0  0  0  0  0  0
  146.7633  134.4462  161.6912 C   0  0  0  0  0  0  0  0  0  0  0  0
  146.5160  133.1455  162.1713 C   0  0  0  0  0  0  0  0  0  0  0  0
  146.9620  132.0280  161.4422 C   0  0  0  0  0  0  0  0  0  0  0  0
  147.6546  132.2129  160.2315 C   0  0  0  0  0  0  0  0  0  0  0  0
  147.9025  133.5129  159.7494 C   0  0  0  0  0  0  0  0  0  0  0  0
  149.6851  139.4722  158.2212 C   0  0  2  0  0  0  0  0  0  0  0  0
  149.6605  139.4627  156.8044 O   0  0  0  0  0  0  0  0  0  0  0  0
  150.8988  140.4454  156.2703 S   0  0  0  0  0  0  0  0  0  0  0  0
  151.6110  139.7626  155.1799 O   0  0  0  0  0  0  0  0  0  0  0  0
  150.3696  141.8110  156.1326 O   0  0  0  0  0  0  0  0  0  0  0  0
  151.8457  140.3959  157.6467 O   0  0  0  0  0  0  0  0  0  0  0  0
  151.1317  139.7130  158.6707 C   0  0  2  0  0  0  0  0  0  0  0  0
  157.6340  136.7359  153.5149 C   0  0  0  0  0  0  0  0  0  0  0  0
  158.2314  135.4996  153.8489 C   0  0  0  0  0  0  0  0  0  0  0  0
  158.9404  134.7651  152.8785 C   0  0  0  0  0  0  0  0  0  0  0  0
  159.0508  135.2564  151.5641 C   0  0  0  0  0  0  0  0  0  0  0  0
  158.4480  136.4809  151.2194 C   0  0  0  0  0  0  0  0  0  0  0  0
  157.7394  137.2168  152.1892 C   0  0  0  0  0  0  0  0  0  0  0  0
  157.1435  135.9435  155.9295 H   0  0  0  0  0  0  0  0  0  0  0  0
  156.7135  138.4512  159.9707 H   0  0  0  0  0  0  0  0  0  0  0  0
  151.6001  137.2765  156.2397 H   0  0  0  0  0  0  0  0  0  0  0  0
  152.1034  138.1690  159.9179 H   0  0  0  0  0  0  0  0  0  0  0  0
  149.0659  138.2411  159.8606 H   0  0  0  0  0  0  0  0  0  0  0  0
  147.3243  137.9015  158.0804 H   0  0  0  0  0  0  0  0  0  0  0  0
  148.5405  137.2020  157.0165 H   0  0  0  0  0  0  0  0  0  0  0  0
  146.4121  135.2891  162.2691 H   0  0  0  0  0  0  0  0  0  0  0  0
  145.9836  133.0060  163.1006 H   0  0  0  0  0  0  0  0  0  0  0  0
  146.7732  131.0305  161.8108 H   0  0  0  0  0  0  0  0  0  0  0  0
  147.9970  131.3561  159.6704 H   0  0  0  0  0  0  0  0  0  0  0  0
  148.4366  133.6189  158.8164 H   0  0  0  0  0  0  0  0  0  0  0  0
  149.0078  140.2500  158.5756 H   0  0  0  0  0  0  0  0  0  0  0  0
  151.1628  140.2727  159.6059 H   0  0  0  0  0  0  0  0  0  0  0  0
  158.1551  135.1087  154.8536 H   0  0  0  0  0  0  0  0  0  0  0  0
  159.3992  133.8239  153.1436 H   0  0  0  0  0  0  0  0  0  0  0  0
  159.5940  134.6928  150.8200 H   0  0  0  0  0  0  0  0  0  0  0  0
  158.5264  136.8555  150.2095 H   0  0  0  0  0  0  0  0  0  0  0  0
  157.2770  138.1499  151.9011 H   0  0  0  0  0  0  0  0  0  0  0  0
  1  2  2  0  0  0  0
  2  3  1  0  0  0  0
  2 33  1  0  0  0  0
  3  4  1  0  0  0  0
  3 39  1  0  0  0  0
  4  9  1  0  0  0  0
  4  5  2  0  0  0  0
  5  6  1  0  0  0  0
  6  7  2  0  0  0  0
  6 40  1  0  0  0  0
  7  8  1  0  0  0  0
  8 12  1  0  0  0  0
  8  9  2  0  0  0  0
  9 10  1  0  0  0  0
 10 11  2  0  0  0  0
 11 12  1  0  0  0  0
 11 41  1  0  0  0  0
 12 13  1  0  0  0  0
 13 32  1  0  0  0  0
 13 14  1  0  0  0  0
 13 42  1  0  0  0  0
 14 15  1  0  0  0  0
 15 16  1  0  0  0  0
 15 26  1  0  0  0  0
 15 43  1  0  0  0  0
 16 17  1  0  0  0  0
 16 44  1  0  0  0  0
 16 45  1  0  0  0  0
 17 18  1  0  0  0  0
 18 19  2  0  0  0  0
 18 20  1  0  0  0  0
 20 25  1  0  0  0  0
 20 21  2  0  0  0  0
 21 22  1  0  0  0  0
 21 46  1  0  0  0  0
 22 23  2  0  0  0  0
 22 47  1  0  0  0  0
 23 24  1  0  0  0  0
 23 48  1  0  0  0  0
 24 25  2  0  0  0  0
 24 49  1  0  0  0  0
 25 50  1  0  0  0  0
 26 32  1  0  0  0  0
 26 27  1  0  0  0  0
 26 51  1  0  0  0  0
 27 28  1  0  0  0  0
 28 29  2  0  0  0  0
 28 30  2  0  0  0  0
 28 31  1  0  0  0  0
 31 32  1  0  0  0  0
 32 52  1  0  0  0  0
 33 38  1  0  0  0  0
 33 34  2  0  0  0  0
 34 35  1  0  0  0  0
 34 53  1  0  0  0  0
 35 36  2  0  0  0  0
 35 54  1  0  0  0  0
 36 37  1  0  0  0  0
 36 55  1  0  0  0  0
 37 38  2  0  0  0  0
 37 56  1  0  0  0  0
 38 57  1  0  0  0  0
M  END
> <s_m_source_file>
AV-unprocessed.smi

> <i_m_source_file_index>
1

> <i_lp_mmshare_version>
43012

> <i_f3d_flags>
0

> <s_epik_input>
W2NIXTFbY0hdW2NIXVtjSF1bY0hdYzFDKD1PKVtOSF1jKG5bY0hdbjIpYyhjMjMpbltjSF1uM1tDQEBIXShbQ0BIXShbQ0BIXTQ1KU9TKE81KSg9Tyk9TylPW0NASF00W0NIMl1PQyg9TyljNltjSF1bY0hdW2NIXVtjSF1bY0hdNg==

> <s_epik_cmdline>
J2VwaWtfcHl0aG9uJywgJy1waCcsICc3LjAnLCAnLXRuJywgJzgnLCAnLW1hJywgJzIwMCcsICctbWV0YWxfYmluZGluZycsICctaW1hZScsICc8aW5maWxlLm1hZT4nLCAnLW9tYWUnLCAnPG91dGZpbGUubWFlPic=

> <r_lp_tautomer_probability>
1

> <r_epik_Ionization_Penalty>
0.00195722

> <r_epik_Ionization_Penalty_Charging>
0

> <r_epik_Ionization_Penalty_Neutral>
0.00195722

> <r_epik_State_Penalty>
0.00633741

> <r_epik_Charging_Adjusted_Penalty>
0.00633741

> <i_epik_Tot_Q>
0

> <i_epik_Tot_abs_Q>
0

> <r_epik_Metal_State_Penalty>
0.341185

> <b_epik_Metal_Only>
0

> <s_epik_Chemistry_Notes>
This compound has an ester and may undergo hydrolysis at high or low pH. This compound contains an acetal/aminal-like group ( X-CH(R)-Y where X, Y are N, S, or O) that may be acid/base labile, releasing an aldehyde.

> <s_lp_Force_Field>
OPLS_2005

> <r_lp_Energy>
44.5828

> <b_lp_Chiralities_Consistent>
1

> <s_lp_Variant>
AV-unprocessed.smi:1-3

> <Gold.Version>
5.8.1

> <Gold.Id.Protein>
6NUR|6NUR_protein|mol2

> <Gold.PLP.Fitness>
54.3710

> <Gold.PLP.PLP>
-45.9997

> <Gold.PLP.part.hbond>
-5.0000

> <Gold.PLP.part.metal>
0.0000

> <Gold.PLP.part.buried>
-4.4978

> <Gold.PLP.part.nonpolar>
-38.1701

> <Gold.PLP.part.repulsive>
0.3349

> <Gold.PLP.ligand.clash>
0.0000

> <Gold.PLP.ligand.torsion>
1.4338

> <Gold.PLP.Chemscore.Hbond>
3.6450

> <Gold.PLP.Chemscore.CHOScore>
0.0000

> <Gold.PLP.Chemscore.Metal>
0.0000

> <Gold.Chemscore.Hbonds>
donor molecule, donor type, donor heavy atom, donor atom, acceptor molecule, acceptor atom, score
      P1  H  6931  6943       L1    19  0.46
      P1  H  6934  6947       L1    19  0.95
      P1  H  7989  7998       L1    29  1.00
      P1  H  7997  8008       L1     1  0.49
      P1  H 10752 10764       L1    10  0.43

> <Gold.PLP.Chemscore.Internal.Correction>
0.3039

> <Gold.Rescore>
     Score         DG    S(hbond)    S(metal)    S(lipo)     H(rot)  DE(clash)    DE(int)     intcor
     21.01     -25.24       3.44        0.00     117.30       2.13       0.39       3.84       ----

> <Gold.Chemscore.Fitness>
21.0119

> <Gold.Chemscore.DG>
-25.2448

> <Gold.Chemscore.ZeroCoef>
-5.4800

> <Gold.Chemscore.Hbond>
3.4437

> <Gold.Chemscore.Metal>
0.0000

> <Gold.Chemscore.Lipo>
117.2998

> <Gold.Chemscore.Internal_Hbond>
0.0000

> <Gold.Chemscore.DEClash>
0.3884

> <Gold.Chemscore.DEInternal>
3.8445

> <Gold.Chemscore.Rot>
2.1333

> <Gold.Chemscore.Internal.Correction>
   9.000000E+99

> <Gold.Chemscore.Hbonds>
donor molecule, donor type, donor heavy atom, donor atom, acceptor molecule, acceptor atom, score
      P1  H  6931  6943       L1    19  0.44
      P1  H  6934  6947       L1    19  0.85
      P1  H  7989  7998       L1    29  0.76
      P1  H  7997  8008       L1     1  0.49
      P1  H 10752 10764       L1    10  0.34

> <Gold.Chemscore.Hbond.Weighted>
-11.5021

> <Gold.Chemscore.Metal.Weighted>
-0.0000

> <Gold.Chemscore.Lipo.Weighted>
-13.7241

> <Gold.Chemscore.Internal_Hbond.Weighted>
0.0000

> <Gold.Chemscore.DEClash.Weighted>
0.3884

> <Gold.Chemscore.DEInternal.Weighted>
3.8445

> <Gold.Chemscore.Rot.Weighted>
5.4614

> <Gold.Chemscore.Internal.Correction.Weighted>
   9.000000E+99

> <Gold.Protein.RotatedTorsions>
[ 6907 6896 6895 6894 ] final   46.91 input  -60.11 | X-H torsion
[ 7974 7965 7964 7962 ] final  -29.55 input  175.53 | X-H torsion
[ 8008 7997 7996 7995 ] final   64.27 input   59.86 | X-H torsion
[ 10167 10162 10161 10158 ] final  112.49 input  -65.29 | X-H torsion
[ 10718 10713 10712 10709 ] final  137.39 input   66.30 | X-H torsion
[ 10763 10752 10751 10750 ] final    8.79 input  -60.55 | X-H torsion
[ 11005 11000 10999 10996 ] final -168.63 input  -57.11 | X-H torsion

> <Gold.Protein.ActiveResidues>
 VAL166  LYS551  ARG553  GLY616  TRP617  ASP618  TYR619  PRO620  LYS621  CYS622 
 ASP623  PHE694  ASN695  SER759  ASP760  ASP761  ALA762  ILE779  LEU786  VAL792 
 PHE793  MET794  SER795  GLU796  ALA797  LYS798  CYS799  TRP800  GLU811  SER814 

> <Gold.Protein.RotatedAtoms>
  152.2619  134.8025  160.0428 H   0  0  0  0  0  0  0  0  0  0  0  0  # atno 6907 bound_to 6896
  151.8668  133.3462  159.3730 H   0  0  0  0  0  0  0  0  0  0  0  0  # atno 6908 bound_to 6896
  150.7120  134.5079  159.5637 H   0  0  0  0  0  0  0  0  0  0  0  0  # atno 6909 bound_to 6896
  146.1208  140.5426  142.8736 H   0  0  0  0  0  0  0  0  0  0  0  0  # atno 7974 bound_to 7965
  155.6434  140.3497  155.4723 H   0  0  0  0  0  0  0  0  0  0  0  0  # atno 8008 bound_to 7997
  155.9907  140.1193  157.0664 H   0  0  0  0  0  0  0  0  0  0  0  0  # atno 8009 bound_to 7997
  154.4218  140.1120  156.5548 H   0  0  0  0  0  0  0  0  0  0  0  0  # atno 8010 bound_to 7997
  139.6532  144.7128  151.2008 H   0  0  0  0  0  0  0  0  0  0  0  0  # atno 10167 bound_to 10162
  157.4366  131.1053  151.0191 H   0  0  0  0  0  0  0  0  0  0  0  0  # atno 10718 bound_to 10713
  153.2211  135.6881  153.7999 H   0  0  0  0  0  0  0  0  0  0  0  0  # atno 10763 bound_to 10752
  153.7197  135.3269  155.3265 H   0  0  0  0  0  0  0  0  0  0  0  0  # atno 10764 bound_to 10752
  154.8270  135.4610  154.1059 H   0  0  0  0  0  0  0  0  0  0  0  0  # atno 10765 bound_to 10752
  140.5398  134.5533  157.5097 H   0  0  0  0  0  0  0  0  0  0  0  0  # atno 11005 bound_to 11000
  144.7595  140.5389  143.6745 LP  0  0  0  0  0  0  0  0  0  0  0  0  # atno 17320 bound_to 7965
  145.5469  139.1476  143.3415 LP  0  0  0  0  0  0  0  0  0  0  0  0  # atno 17321 bound_to 7965
  140.7547  143.6116  150.8600 LP  0  0  0  0  0  0  0  0  0  0  0  0  # atno 17342 bound_to 10162
  139.9766  143.5997  152.2956 LP  0  0  0  0  0  0  0  0  0  0  0  0  # atno 17343 bound_to 10162
  157.1069  130.6005  149.5473 LP  0  0  0  0  0  0  0  0  0  0  0  0  # atno 17370 bound_to 10713
  155.9933  130.4993  150.7373 LP  0  0  0  0  0  0  0  0  0  0  0  0  # atno 17371 bound_to 10713
  139.9510  134.7617  156.0449 LP  0  0  0  0  0  0  0  0  0  0  0  0  # atno 17394 bound_to 11000
  141.1233  133.6606  156.3272 LP  0  0  0  0  0  0  0  0  0  0  0  0  # atno 17395 bound_to 11000

$$$$
