AV-unprocessed.smi:110|AV-procd|sdf|1078|dock4
  -GOLD-   2262018163D 1   1.00000     0.00000
 Structure written by MMmdl.
 46 50  0  0  0  0  0  0  0  0  1 V2000
  147.8704  135.7184  155.5832 O   0  0  0  0  0  0  0  0  0  0  0  0
  147.0576  136.8611  155.7445 C   0  0  0  0  0  0  0  0  0  0  0  0
  146.9838  137.6472  154.4263 C   0  0  2  0  0  0  0  0  0  0  0  0
  148.2858  138.0927  154.0395 O   0  0  0  0  0  0  0  0  0  0  0  0
  148.2856  139.4344  153.6430 C   0  0  2  0  0  0  0  0  0  0  0  0
  148.9519  140.2636  154.7112 N   0  0  0  0  0  0  0  0  0  0  0  0
  148.4459  141.3817  155.3399 C   0  0  0  0  0  0  0  0  0  0  0  0
  149.2343  141.9453  156.2119 N   0  0  0  0  0  0  0  0  0  0  0  0
  150.3997  141.1918  156.1603 C   0  0  0  0  0  0  0  0  0  0  0  0
  151.6604  141.2622  156.8253 C   0  0  0  0  0  0  0  0  0  0  0  0
  151.9609  142.1800  157.7829 N   0  0  0  0  0  0  0  0  0  0  0  0
  151.2611  143.4744  157.7927 C   0  0  0  0  0  0  0  0  0  0  0  0
  151.3980  144.0799  159.1999 C   0  0  0  0  0  0  0  0  0  0  0  0
  152.3109  143.0908  159.8443 C   0  0  0  0  0  0  0  0  0  0  0  0
  152.8568  143.1628  161.1375 C   0  0  0  0  0  0  0  0  0  0  0  0
  153.7147  142.1247  161.5564 C   0  0  0  0  0  0  0  0  0  0  0  0
  154.0137  141.0525  160.6853 C   0  0  0  0  0  0  0  0  0  0  0  0
  153.4551  141.0024  159.3888 C   0  0  0  0  0  0  0  0  0  0  0  0
  152.5834  142.0349  158.9779 C   0  0  0  0  0  0  0  0  0  0  0  0
  152.5912  140.3346  156.4843 N   0  0  0  0  0  0  0  0  0  0  0  0
  152.3241  139.4154  155.5548 C   0  0  0  0  0  0  0  0  0  0  0  0
  151.2007  139.2373  154.8609 N   0  0  0  0  0  0  0  0  0  0  0  0
  150.2431  140.1486  155.2005 C   0  0  0  0  0  0  0  0  0  0  0  0
  146.8106  139.8334  153.4980 C   0  0  1  0  0  0  0  0  0  0  0  0
  146.3537  139.6082  152.1773 O   0  0  0  0  0  0  0  0  0  0  0  0
  146.1574  138.9298  154.5313 C   0  0  1  0  0  0  0  0  0  0  0  0
  144.7776  138.7294  154.2909 O   0  0  0  0  0  0  0  0  0  0  0  0
  146.5833  137.0258  153.6230 H   0  0  0  0  0  0  0  0  0  0  0  0
  148.8955  139.6087  152.7558 H   0  0  0  0  0  0  0  0  0  0  0  0
  146.6449  140.8860  153.7226 H   0  0  0  0  0  0  0  0  0  0  0  0
  146.2854  139.3719  155.5209 H   0  0  0  0  0  0  0  0  0  0  0  0
  147.3678  135.0526  155.1394 H   0  0  0  0  0  0  0  0  0  0  0  0
  146.0629  136.5151  156.0281 H   0  0  0  0  0  0  0  0  0  0  0  0
  147.4269  137.4815  156.5609 H   0  0  0  0  0  0  0  0  0  0  0  0
  147.4623  141.7780  155.1344 H   0  0  0  0  0  0  0  0  0  0  0  0
  151.7268  144.1350  157.0607 H   0  0  0  0  0  0  0  0  0  0  0  0
  150.2113  143.3578  157.5198 H   0  0  0  0  0  0  0  0  0  0  0  0
  151.8388  145.0771  159.1820 H   0  0  0  0  0  0  0  0  0  0  0  0
  150.4430  144.1131  159.7250 H   0  0  0  0  0  0  0  0  0  0  0  0
  152.6286  143.9916  161.7915 H   0  0  0  0  0  0  0  0  0  0  0  0
  154.1497  142.1533  162.5447 H   0  0  0  0  0  0  0  0  0  0  0  0
  154.6788  140.2667  161.0116 H   0  0  0  0  0  0  0  0  0  0  0  0
  153.7095  140.1849  158.7315 H   0  0  0  0  0  0  0  0  0  0  0  0
  153.1235  138.7226  155.3374 H   0  0  0  0  0  0  0  0  0  0  0  0
  145.4198  139.7532  152.1566 H   0  0  0  0  0  0  0  0  0  0  0  0
  144.4222  139.5172  153.9087 H   0  0  0  0  0  0  0  0  0  0  0  0
  1  2  1  0  0  0  0
  1 32  1  0  0  0  0
  2  3  1  0  0  0  0
  2 33  1  0  0  0  0
  2 34  1  0  0  0  0
  3 28  1  0  0  0  0
  3 26  1  0  0  0  0
  3  4  1  0  0  0  0
  4  5  1  0  0  0  0
  5 29  1  0  0  0  0
  5  6  1  0  0  0  0
  5 24  1  0  0  0  0
  6 23  1  0  0  0  0
  6  7  1  0  0  0  0
  7  8  2  0  0  0  0
  7 35  1  0  0  0  0
  8  9  1  0  0  0  0
  9 23  2  0  0  0  0
  9 10  1  0  0  0  0
 10 11  1  0  0  0  0
 10 20  2  0  0  0  0
 11 19  1  0  0  0  0
 11 12  1  0  0  0  0
 12 13  1  0  0  0  0
 12 36  1  0  0  0  0
 12 37  1  0  0  0  0
 13 14  1  0  0  0  0
 13 38  1  0  0  0  0
 13 39  1  0  0  0  0
 14 19  2  0  0  0  0
 14 15  1  0  0  0  0
 15 16  2  0  0  0  0
 15 40  1  0  0  0  0
 16 17  1  0  0  0  0
 16 41  1  0  0  0  0
 17 18  2  0  0  0  0
 17 42  1  0  0  0  0
 18 19  1  0  0  0  0
 18 43  1  0  0  0  0
 20 21  1  0  0  0  0
 21 22  2  0  0  0  0
 21 44  1  0  0  0  0
 22 23  1  0  0  0  0
 24 30  1  0  0  0  0
 24 25  1  0  0  0  0
 24 26  1  0  0  0  0
 25 45  1  0  0  0  0
 26 31  1  0  0  0  0
 26 27  1  0  0  0  0
 27 46  1  0  0  0  0
M  END
> <s_m_source_file>
AV-unprocessed.smi

> <i_m_source_file_index>
110

> <i_lp_mmshare_version>
43012

> <i_f3d_flags>
0

> <s_epik_input>
W09IXVtDSDJdW0NASF0xT1tDQEhdKFtDQEhdKFtPSF0pW0NAQEhdMVtPSF0pbihbY0hdbjIpYyhjMjMpbltjSF1uYzNOKFtDSDJdW0NIMl00KWMoYzQ1KVtjSF1bY0hdW2NIXVtjSF01

> <s_epik_cmdline>
J2VwaWtfcHl0aG9uJywgJy1waCcsICc3LjAnLCAnLXRuJywgJzgnLCAnLW1hJywgJzIwMCcsICctbWV0YWxfYmluZGluZycsICctaW1hZScsICc8aW5maWxlLm1hZT4nLCAnLW9tYWUnLCAnPG91dGZpbGUubWFlPic=

> <r_lp_tautomer_probability>
1

> <r_epik_Ionization_Penalty>
0.00068475

> <r_epik_Ionization_Penalty_Charging>
0

> <r_epik_Ionization_Penalty_Neutral>
0.00068475

> <r_epik_State_Penalty>
0.000417442

> <r_epik_Charging_Adjusted_Penalty>
0.000417442

> <i_epik_Tot_Q>
0

> <i_epik_Tot_abs_Q>
0

> <r_epik_Metal_State_Penalty>
-0

> <b_epik_Metal_Only>
0

> <s_epik_Chemistry_Notes>
This compound contains an acetal/aminal-like group ( X-CH(R)-Y where X, Y are N, S, or O) that may be acid/base labile, releasing an aldehyde.

> <s_lp_Force_Field>
OPLS_2005

> <r_lp_Energy>
62.7544

> <b_lp_Chiralities_Consistent>
1

> <s_lp_Variant>
AV-unprocessed.smi:110-16

> <Gold.Version>
5.8.1

> <Gold.Id.Protein>
6NUR|6NUR_protein|mol2

> <Gold.PLP.Fitness>
53.6134

> <Gold.PLP.PLP>
-45.6615

> <Gold.PLP.part.hbond>
-2.9226

> <Gold.PLP.part.metal>
0.0000

> <Gold.PLP.part.buried>
-5.3127

> <Gold.PLP.part.nonpolar>
-40.2971

> <Gold.PLP.part.repulsive>
3.0847

> <Gold.PLP.ligand.clash>
0.0000

> <Gold.PLP.ligand.torsion>
0.5909

> <Gold.PLP.Chemscore.Hbond>
3.0000

> <Gold.PLP.Chemscore.CHOScore>
0.0000

> <Gold.PLP.Chemscore.Metal>
0.0000

> <Gold.Chemscore.Hbonds>
donor molecule, donor type, donor heavy atom, donor atom, acceptor molecule, acceptor atom, score
      L1  H    25    45       P1 10175  1.00
      L1  H    27    46       P1 10175  1.00
      P1  H  7997  8010       L1    20  0.86

> <Gold.PLP.Chemscore.Internal.Correction>
0.1337

> <Gold.Rescore>
     Score         DG    S(hbond)    S(metal)    S(lipo)     H(rot)  DE(clash)    DE(int)     intcor
     13.53     -16.92       2.68        0.00      95.29       3.38       0.92       2.47       ----

> <Gold.Chemscore.Fitness>
13.5286

> <Gold.Chemscore.DG>
-16.9161

> <Gold.Chemscore.ZeroCoef>
-5.4800

> <Gold.Chemscore.Hbond>
2.6793

> <Gold.Chemscore.Metal>
0.0000

> <Gold.Chemscore.Lipo>
95.2943

> <Gold.Chemscore.Internal_Hbond>
0.0000

> <Gold.Chemscore.DEClash>
0.9157

> <Gold.Chemscore.DEInternal>
2.4719

> <Gold.Chemscore.Rot>
3.3837

> <Gold.Chemscore.Internal.Correction>
   9.000000E+99

> <Gold.Chemscore.Hbonds>
donor molecule, donor type, donor heavy atom, donor atom, acceptor molecule, acceptor atom, score
      L1  H    25    45       P1 10175  0.92
      L1  H    27    46       P1 10175  0.96
      P1  H  7997  8010       L1    20  0.22

> <Gold.Chemscore.Hbond.Weighted>
-8.9489

> <Gold.Chemscore.Metal.Weighted>
-0.0000

> <Gold.Chemscore.Lipo.Weighted>
-11.1494

> <Gold.Chemscore.Internal_Hbond.Weighted>
0.0000

> <Gold.Chemscore.DEClash.Weighted>
0.9157

> <Gold.Chemscore.DEInternal.Weighted>
2.4719

> <Gold.Chemscore.Rot.Weighted>
8.6622

> <Gold.Chemscore.Internal.Correction.Weighted>
   9.000000E+99

> <Gold.Protein.RotatedTorsions>
[ 6907 6896 6895 6894 ] final   57.71 input  -60.11 | X-H torsion
[ 7974 7965 7964 7962 ] final -121.38 input  175.53 | X-H torsion
[ 8008 7997 7996 7995 ] final   59.06 input   59.86 | X-H torsion
[ 10167 10162 10161 10158 ] final  100.46 input  -65.29 | X-H torsion
[ 10718 10713 10712 10709 ] final  138.89 input   66.30 | X-H torsion
[ 10763 10752 10751 10750 ] final  147.59 input  -60.55 | X-H torsion
[ 11005 11000 10999 10996 ] final   32.21 input  -57.11 | X-H torsion

> <Gold.Protein.ActiveResidues>
 VAL166  LYS551  ARG553  GLY616  TRP617  ASP618  TYR619  PRO620  LYS621  CYS622 
 ASP623  PHE694  ASN695  SER759  ASP760  ASP761  ALA762  ILE779  LEU786  VAL792 
 PHE793  MET794  SER795  GLU796  ALA797  LYS798  CYS799  TRP800  GLU811  SER814 

> <Gold.Protein.RotatedAtoms>
  152.3757  134.6667  160.0160 H   0  0  0  0  0  0  0  0  0  0  0  0  # atno 6907 bound_to 6896
  151.6946  133.3305  159.3259 H   0  0  0  0  0  0  0  0  0  0  0  0  # atno 6908 bound_to 6896
  150.7708  134.6604  159.6381 H   0  0  0  0  0  0  0  0  0  0  0  0  # atno 6909 bound_to 6896
  145.0409  140.8144  143.4267 H   0  0  0  0  0  0  0  0  0  0  0  0  # atno 7974 bound_to 7965
  155.5601  140.3488  155.4489 H   0  0  0  0  0  0  0  0  0  0  0  0  # atno 8008 bound_to 7997
  156.0521  140.1320  157.0064 H   0  0  0  0  0  0  0  0  0  0  0  0  # atno 8009 bound_to 7997
  154.4439  140.1002  156.6376 H   0  0  0  0  0  0  0  0  0  0  0  0  # atno 8010 bound_to 7997
  139.7525  144.6979  151.0411 H   0  0  0  0  0  0  0  0  0  0  0  0  # atno 10167 bound_to 10162
  157.4204  131.1038  151.0359 H   0  0  0  0  0  0  0  0  0  0  0  0  # atno 10718 bound_to 10713
  154.0409  135.2889  155.3355 H   0  0  0  0  0  0  0  0  0  0  0  0  # atno 10763 bound_to 10752
  154.6929  135.5219  153.8421 H   0  0  0  0  0  0  0  0  0  0  0  0  # atno 10764 bound_to 10752
  153.0600  135.6610  154.0613 H   0  0  0  0  0  0  0  0  0  0  0  0  # atno 10765 bound_to 10752
  140.2758  134.3030  155.7814 H   0  0  0  0  0  0  0  0  0  0  0  0  # atno 11005 bound_to 11000
  145.1648  139.2437  143.5372 LP  0  0  0  0  0  0  0  0  0  0  0  0  # atno 17320 bound_to 7965
  146.3509  140.1385  142.8595 LP  0  0  0  0  0  0  0  0  0  0  0  0  # atno 17321 bound_to 7965
  140.7799  143.4792  151.0041 LP  0  0  0  0  0  0  0  0  0  0  0  0  # atno 17342 bound_to 10162
  139.8479  143.7476  152.3179 LP  0  0  0  0  0  0  0  0  0  0  0  0  # atno 17343 bound_to 10162
  157.1292  130.6095  149.5525 LP  0  0  0  0  0  0  0  0  0  0  0  0  # atno 17370 bound_to 10713
  155.9879  130.4920  150.7145 LP  0  0  0  0  0  0  0  0  0  0  0  0  # atno 17371 bound_to 10713
  141.2170  133.7495  156.9405 LP  0  0  0  0  0  0  0  0  0  0  0  0  # atno 17394 bound_to 11000
  140.1330  134.9343  157.2363 LP  0  0  0  0  0  0  0  0  0  0  0  0  # atno 17395 bound_to 11000

$$$$
