AV-unprocessed.smi:2229|AV-procd|sdf|9034|dock2
  -GOLD-   2272012243D 1   1.00000     0.00000
 Structure written by MMmdl.
 43 44  0  0  0  0  0  0  0  0  2 V2000
  156.2461  140.3967  160.0426 C   0  0  0  0  0  0  0  0  0  0  0  0
  154.8658  140.5782  160.6971 C   0  0  0  0  0  0  0  0  0  0  0  0
  154.0332  139.2954  160.5491 C   0  0  0  0  0  0  0  0  0  0  0  0
  154.0991  141.7933  160.1354 C   0  0  0  0  0  0  0  0  0  0  0  0
  152.6696  141.9443  160.6872 C   0  0  0  0  0  0  0  0  0  0  0  0
  151.8859  143.1040  160.0441 C   0  0  1  0  0  0  0  0  0  0  0  0
  151.9367  144.4101  160.8496 C   0  0  0  0  0  0  0  0  0  0  0  0
  151.7218  145.5075  159.8138 C   0  0  0  0  0  0  0  0  0  0  0  0
  152.4923  145.0112  158.5927 C   0  0  0  0  0  0  0  0  0  0  0  0
  152.3918  143.4758  158.6282 C   0  0  2  0  0  0  0  0  0  0  0  0
  151.4638  143.0155  157.6003 N   0  0  0  0  0  0  0  0  0  0  0  0
  151.1298  141.7377  157.3545 C   0  0  0  0  0  0  0  0  0  0  0  0
  151.6155  140.7904  157.9713 O   0  0  0  0  0  0  0  0  0  0  0  0
  150.0932  141.4576  156.2529 C   0  0  0  0  0  0  0  0  0  0  0  0
  150.3450  140.2492  155.4591 N   0  0  0  0  0  0  0  0  0  0  0  0
  149.3671  139.6144  154.7348 C   0  0  0  0  0  0  0  0  0  0  0  0
  149.8400  138.5768  154.1433 N   0  0  0  0  0  0  0  0  0  0  0  0
  151.2273  138.5095  154.4901 N   0  5  0  0  0  0  0  0  0  0  0  0
  151.4784  139.5640  155.2967 C   0  0  0  0  0  0  0  0  0  0  0  0
  152.5408  139.8846  155.8272 O   0  0  0  0  0  0  0  0  0  0  0  0
  156.1600  140.2789  158.9620 H   0  0  0  0  0  0  0  0  0  0  0  0
  156.7502  139.5120  160.4324 H   0  0  0  0  0  0  0  0  0  0  0  0
  156.9006  141.2461  160.2356 H   0  0  0  0  0  0  0  0  0  0  0  0
  155.0207  140.7403  161.7646 H   0  0  0  0  0  0  0  0  0  0  0  0
  153.8387  139.0686  159.5003 H   0  0  0  0  0  0  0  0  0  0  0  0
  153.0710  139.3885  161.0532 H   0  0  0  0  0  0  0  0  0  0  0  0
  154.5484  138.4387  160.9845 H   0  0  0  0  0  0  0  0  0  0  0  0
  154.6650  142.7057  160.3281 H   0  0  0  0  0  0  0  0  0  0  0  0
  154.0436  141.6977  159.0506 H   0  0  0  0  0  0  0  0  0  0  0  0
  152.1205  141.0111  160.5554 H   0  0  0  0  0  0  0  0  0  0  0  0
  152.7179  142.1188  161.7611 H   0  0  0  0  0  0  0  0  0  0  0  0
  150.8363  142.8106  159.9724 H   0  0  0  0  0  0  0  0  0  0  0  0
  151.1918  144.4405  161.6453 H   0  0  0  0  0  0  0  0  0  0  0  0
  152.9183  144.5340  161.3091 H   0  0  0  0  0  0  0  0  0  0  0  0
  150.6605  145.5864  159.5738 H   0  0  0  0  0  0  0  0  0  0  0  0
  152.0623  146.4845  160.1575 H   0  0  0  0  0  0  0  0  0  0  0  0
  152.1214  145.4505  157.6654 H   0  0  0  0  0  0  0  0  0  0  0  0
  153.5388  145.3035  158.6879 H   0  0  0  0  0  0  0  0  0  0  0  0
  153.3841  143.0605  158.4421 H   0  0  0  0  0  0  0  0  0  0  0  0
  151.0100  143.7292  157.0476 H   0  0  0  0  0  0  0  0  0  0  0  0
  149.1055  141.4058  156.7145 H   0  0  0  0  0  0  0  0  0  0  0  0
  150.0663  142.3177  155.5822 H   0  0  0  0  0  0  0  0  0  0  0  0
  148.3490  140.0071  154.7222 H   0  0  0  0  0  0  0  0  0  0  0  0
  1  2  1  0  0  0  0
  1 21  1  0  0  0  0
  1 22  1  0  0  0  0
  1 23  1  0  0  0  0
  2  3  1  0  0  0  0
  2  4  1  0  0  0  0
  2 24  1  0  0  0  0
  3 25  1  0  0  0  0
  3 26  1  0  0  0  0
  3 27  1  0  0  0  0
  4  5  1  0  0  0  0
  4 28  1  0  0  0  0
  4 29  1  0  0  0  0
  5  6  1  0  0  0  0
  5 30  1  0  0  0  0
  5 31  1  0  0  0  0
  6 10  1  0  0  0  0
  6  7  1  0  0  0  0
  6 32  1  0  0  0  0
  7  8  1  0  0  0  0
  7 33  1  0  0  0  0
  7 34  1  0  0  0  0
  8  9  1  0  0  0  0
  8 35  1  0  0  0  0
  8 36  1  0  0  0  0
  9 10  1  0  0  0  0
  9 37  1  0  0  0  0
  9 38  1  0  0  0  0
 10 11  1  0  0  0  0
 10 39  1  0  0  0  0
 11 12  1  0  0  0  0
 11 40  1  0  0  0  0
 12 13  2  0  0  0  0
 12 14  1  0  0  0  0
 14 15  1  0  0  0  0
 14 41  1  0  0  0  0
 14 42  1  0  0  0  0
 15 19  1  0  0  0  0
 15 16  1  0  0  0  0
 16 17  2  0  0  0  0
 16 43  1  0  0  0  0
 17 18  1  0  0  0  0
 18 19  1  0  0  0  0
 19 20  2  0  0  0  0
M  CHG  1  18  -1
M  END
> <s_m_source_file>
AV-unprocessed.smi

> <i_m_source_file_index>
2229

> <i_lp_mmshare_version>
43012

> <i_f3d_flags>
0

> <s_epik_input>
W0NIM11bQ0hdKFtDSDNdKVtDSDJdW0NIMl1bQ0BASF0xW0NIMl1bQ0gyXVtDSDJdW0NASF0xW05IXUMoPU8pW0NIMl1uMltjSF1uW25IXWMyPU8=

> <s_epik_cmdline>
J2VwaWtfcHl0aG9uJywgJy1waCcsICc3LjAnLCAnLXRuJywgJzgnLCAnLW1hJywgJzIwMCcsICctbWV0YWxfYmluZGluZycsICctaW1hZScsICc8aW5maWxlLm1hZT4nLCAnLW9tYWUnLCAnPG91dGZpbGUubWFlPic=

> <r_lp_tautomer_probability>
1

> <r_epik_Ionization_Penalty>
13.6733

> <r_epik_Ionization_Penalty_Charging>
13.6725

> <r_epik_Ionization_Penalty_Neutral>
0.000837689

> <r_epik_State_Penalty>
5.67062

> <r_epik_Charging_Adjusted_Penalty>
19.3431

> <i_epik_Tot_Q>
-1

> <i_epik_Tot_abs_Q>
1

> <r_epik_Metal_State_Penalty>
1.61781

> <b_epik_Metal_Only>
1

> <s_lp_Force_Field>
OPLS_2005

> <r_lp_Energy>
24.9867

> <b_lp_Chiralities_Consistent>
1

> <s_lp_Variant>
AV-unprocessed.smi:2229-8

> <Gold.Version>
5.8.1

> <Gold.Id.Protein>
6NUR|6NUR_protein|mol2

> <Gold.PLP.Fitness>
48.5359

> <Gold.PLP.PLP>
-47.7007

> <Gold.PLP.part.hbond>
-1.0000

> <Gold.PLP.part.metal>
0.0000

> <Gold.PLP.part.buried>
-5.4013

> <Gold.PLP.part.nonpolar>
-42.1930

> <Gold.PLP.part.repulsive>
0.4084

> <Gold.PLP.ligand.clash>
0.0000

> <Gold.PLP.ligand.torsion>
1.1188

> <Gold.PLP.Chemscore.Hbond>
1.0000

> <Gold.PLP.Chemscore.CHOScore>
0.0000

> <Gold.PLP.Chemscore.Metal>
0.0000

> <Gold.Chemscore.Hbonds>
donor molecule, donor type, donor heavy atom, donor atom, acceptor molecule, acceptor atom, score
      P1  H  7997  8010       L1    20  1.00

> <Gold.PLP.Chemscore.Internal.Correction>
0.0728

> <Gold.Rescore>
     Score         DG    S(hbond)    S(metal)    S(lipo)     H(rot)  DE(clash)    DE(int)     intcor
     10.24     -15.63       0.98        0.00     115.48       2.59       0.11       5.28       ----

> <Gold.Chemscore.Fitness>
10.2350

> <Gold.Chemscore.DG>
-15.6256

> <Gold.Chemscore.ZeroCoef>
-5.4800

> <Gold.Chemscore.Hbond>
0.9804

> <Gold.Chemscore.Metal>
0.0000

> <Gold.Chemscore.Lipo>
115.4825

> <Gold.Chemscore.Internal_Hbond>
0.0000

> <Gold.Chemscore.DEClash>
0.1093

> <Gold.Chemscore.DEInternal>
5.2812

> <Gold.Chemscore.Rot>
2.5939

> <Gold.Chemscore.Internal.Correction>
   9.000000E+99

> <Gold.Chemscore.Hbonds>
donor molecule, donor type, donor heavy atom, donor atom, acceptor molecule, acceptor atom, score
      P1  H  7997  8010       L1    20  0.99

> <Gold.Chemscore.Hbond.Weighted>
-3.2746

> <Gold.Chemscore.Metal.Weighted>
-0.0000

> <Gold.Chemscore.Lipo.Weighted>
-13.5114

> <Gold.Chemscore.Internal_Hbond.Weighted>
0.0000

> <Gold.Chemscore.DEClash.Weighted>
0.1093

> <Gold.Chemscore.DEInternal.Weighted>
5.2812

> <Gold.Chemscore.Rot.Weighted>
6.6405

> <Gold.Chemscore.Internal.Correction.Weighted>
   9.000000E+99

> <Gold.Protein.RotatedTorsions>
[ 6907 6896 6895 6894 ] final  -72.34 input  -60.11 | X-H torsion
[ 7974 7965 7964 7962 ] final  167.92 input  175.53 | X-H torsion
[ 8008 7997 7996 7995 ] final   72.91 input   59.86 | X-H torsion
[ 10167 10162 10161 10158 ] final   80.90 input  -65.29 | X-H torsion
[ 10718 10713 10712 10709 ] final  145.10 input   66.30 | X-H torsion
[ 10763 10752 10751 10750 ] final  161.72 input  -60.55 | X-H torsion
[ 11005 11000 10999 10996 ] final  -89.37 input  -57.11 | X-H torsion

> <Gold.Protein.ActiveResidues>
 VAL166  LYS551  ARG553  GLY616  TRP617  ASP618  TYR619  PRO620  LYS621  CYS622 
 ASP623  PHE694  ASN695  SER759  ASP760  ASP761  ALA762  ILE779  LEU786  VAL792 
 PHE793  MET794  SER795  GLU796  ALA797  LYS798  CYS799  TRP800  GLU811  SER814 

> <Gold.Protein.RotatedAtoms>
  150.7174  134.5177  159.5638 H   0  0  0  0  0  0  0  0  0  0  0  0  # atno 6907 bound_to 6896
  152.2740  134.7899  160.0418 H   0  0  0  0  0  0  0  0  0  0  0  0  # atno 6908 bound_to 6896
  151.8569  133.3414  159.3728 H   0  0  0  0  0  0  0  0  0  0  0  0  # atno 6909 bound_to 6896
  144.7407  139.8831  143.6398 H   0  0  0  0  0  0  0  0  0  0  0  0  # atno 7974 bound_to 7965
  155.7759  140.3483  155.5271 H   0  0  0  0  0  0  0  0  0  0  0  0  # atno 8008 bound_to 7997
  155.8776  140.0997  157.1528 H   0  0  0  0  0  0  0  0  0  0  0  0  # atno 8009 bound_to 7997
  154.4022  140.1328  156.4144 H   0  0  0  0  0  0  0  0  0  0  0  0  # atno 8010 bound_to 7997
  139.9449  144.6065  150.8216 H   0  0  0  0  0  0  0  0  0  0  0  0  # atno 10167 bound_to 10162
  157.3492  131.0948  151.1015 H   0  0  0  0  0  0  0  0  0  0  0  0  # atno 10718 bound_to 10713
  154.2673  135.2767  155.2753 H   0  0  0  0  0  0  0  0  0  0  0  0  # atno 10763 bound_to 10752
  154.5332  135.5724  153.6780 H   0  0  0  0  0  0  0  0  0  0  0  0  # atno 10764 bound_to 10752
  152.9951  135.6233  154.2826 H   0  0  0  0  0  0  0  0  0  0  0  0  # atno 10765 bound_to 10752
  141.1586  133.7626  156.9586 H   0  0  0  0  0  0  0  0  0  0  0  0  # atno 11005 bound_to 11000
  146.1197  139.4213  143.0236 LP  0  0  0  0  0  0  0  0  0  0  0  0  # atno 17320 bound_to 7965
  145.7323  141.0038  143.1345 LP  0  0  0  0  0  0  0  0  0  0  0  0  # atno 17321 bound_to 7965
  140.7600  143.3141  151.2774 LP  0  0  0  0  0  0  0  0  0  0  0  0  # atno 17342 bound_to 10162
  139.6675  144.0080  152.2732 LP  0  0  0  0  0  0  0  0  0  0  0  0  # atno 17343 bound_to 10162
  157.2197  130.6475  149.5806 LP  0  0  0  0  0  0  0  0  0  0  0  0  # atno 17370 bound_to 10713
  155.9719  130.4633  150.6178 LP  0  0  0  0  0  0  0  0  0  0  0  0  # atno 17371 bound_to 10713
  140.1209  134.9418  157.2201 LP  0  0  0  0  0  0  0  0  0  0  0  0  # atno 17394 bound_to 11000
  140.3074  134.3063  155.7275 LP  0  0  0  0  0  0  0  0  0  0  0  0  # atno 17395 bound_to 11000

$$$$
