AV-unprocessed.smi:2171|AV-procd|sdf|8830|dock6
  -GOLD-   2272012 23D 1   1.00000     0.00000
 Structure written by MMmdl.
 39 41  0  0  0  0  0  0  0  0  2 V2000
  151.7908  144.0854  157.1913 O   0  0  0  0  0  0  0  0  0  0  0  0
  151.1953  143.2204  157.8323 C   0  0  0  0  0  0  0  0  0  0  0  0
  150.9712  143.4022  159.3363 C   0  0  0  0  0  0  0  0  0  0  0  0
  151.9860  142.7216  160.1232 N   0  0  0  0  0  0  0  0  0  0  0  0
  153.1458  142.1153  159.6864 C   0  0  0  0  0  0  0  0  0  0  0  0
  153.7773  141.6063  160.7847 C   0  0  0  0  0  0  0  0  0  0  0  0
  152.9180  141.9586  161.8628 C   0  0  0  0  0  0  0  0  0  0  0  0
  151.8475  142.6263  161.4642 N   0  0  0  0  0  0  0  0  0  0  0  0
  150.7306  142.0864  157.2826 N   0  0  0  0  0  0  0  0  0  0  0  0
  150.7993  141.7435  155.8637 C   0  0  2  0  0  0  0  0  0  0  0  0
  149.4149  141.7205  155.1876 C   0  0  0  0  0  0  0  0  0  0  0  0
  149.4549  140.5005  154.2618 C   0  0  0  0  0  0  0  0  0  0  0  0
  150.3152  139.5619  154.9916 N   0  3  1  0  0  0  0  0  0  0  0  0
  150.7912  138.3514  154.2924 C   0  0  0  0  0  0  0  0  0  0  0  0
  151.5115  137.4480  155.3165 C   0  0  0  0  0  0  0  0  0  0  0  0
  152.6075  138.2071  156.0990 C   0  0  0  0  0  0  0  0  0  0  0  0
  152.0782  139.5299  156.6949 C   0  0  0  0  0  0  0  0  0  0  0  0
  151.4126  140.3521  155.5764 C   0  0  2  0  0  0  0  0  0  0  0  0
  150.9861  144.4651  159.5801 H   0  0  0  0  0  0  0  0  0  0  0  0
  149.9886  143.0213  159.6199 H   0  0  0  0  0  0  0  0  0  0  0  0
  153.4214  142.0954  158.6422 H   0  0  0  0  0  0  0  0  0  0  0  0
  154.7121  141.0662  160.8144 H   0  0  0  0  0  0  0  0  0  0  0  0
  153.0396  141.7505  162.9156 H   0  0  0  0  0  0  0  0  0  0  0  0
  150.2585  141.4310  157.8887 H   0  0  0  0  0  0  0  0  0  0  0  0
  151.4042  142.4946  155.3515 H   0  0  0  0  0  0  0  0  0  0  0  0
  148.6310  141.5795  155.9339 H   0  0  0  0  0  0  0  0  0  0  0  0
  149.1937  142.6435  154.6504 H   0  0  0  0  0  0  0  0  0  0  0  0
  148.4655  140.0844  154.0696 H   0  0  0  0  0  0  0  0  0  0  0  0
  149.9154  140.7579  153.3066 H   0  0  0  0  0  0  0  0  0  0  0  0
  149.9448  137.8221  153.8536 H   0  0  0  0  0  0  0  0  0  0  0  0
  151.4602  138.6269  153.4758 H   0  0  0  0  0  0  0  0  0  0  0  0
  150.7786  137.0556  156.0229 H   0  0  0  0  0  0  0  0  0  0  0  0
  151.9435  136.5831  154.8123 H   0  0  0  0  0  0  0  0  0  0  0  0
  153.0089  137.5741  156.8907 H   0  0  0  0  0  0  0  0  0  0  0  0
  153.4402  138.4234  155.4283 H   0  0  0  0  0  0  0  0  0  0  0  0
  151.3638  139.3220  157.4926 H   0  0  0  0  0  0  0  0  0  0  0  0
  152.9027  140.0866  157.1414 H   0  0  0  0  0  0  0  0  0  0  0  0
  152.1569  140.5062  154.7919 H   0  0  0  0  0  0  0  0  0  0  0  0
  149.7591  139.2404  155.7709 H   0  0  0  0  0  0  0  0  0  0  0  0
  1  2  2  0  0  0  0
  2  3  1  0  0  0  0
  2  9  1  0  0  0  0
  3  4  1  0  0  0  0
  3 19  1  0  0  0  0
  3 20  1  0  0  0  0
  4  8  1  0  0  0  0
  4  5  1  0  0  0  0
  5  6  2  0  0  0  0
  5 21  1  0  0  0  0
  6  7  1  0  0  0  0
  6 22  1  0  0  0  0
  7  8  2  0  0  0  0
  7 23  1  0  0  0  0
  9 10  1  0  0  0  0
  9 24  1  0  0  0  0
 10 18  1  0  0  0  0
 10 11  1  0  0  0  0
 10 25  1  0  0  0  0
 11 12  1  0  0  0  0
 11 26  1  0  0  0  0
 11 27  1  0  0  0  0
 12 13  1  0  0  0  0
 12 28  1  0  0  0  0
 12 29  1  0  0  0  0
 13 18  1  0  0  0  0
 13 14  1  0  0  0  0
 13 39  1  0  0  0  0
 14 15  1  0  0  0  0
 14 30  1  0  0  0  0
 14 31  1  0  0  0  0
 15 16  1  0  0  0  0
 15 32  1  0  0  0  0
 15 33  1  0  0  0  0
 16 17  1  0  0  0  0
 16 34  1  0  0  0  0
 16 35  1  0  0  0  0
 17 18  1  0  0  0  0
 17 36  1  0  0  0  0
 17 37  1  0  0  0  0
 18 38  1  0  0  0  0
M  CHG  1  13   1
M  END
> <s_m_source_file>
AV-unprocessed.smi

> <i_m_source_file_index>
2171

> <i_lp_mmshare_version>
43012

> <i_f3d_flags>
0

> <s_epik_input>
bjFbY0hdW2NIXVtjSF1uMVtDSDJdQyg9TylbTkhdW0NASF0oW0NIMl1bQ0gyXTIpW0NAQEhdKE4yMylbQ0gyXVtDSDJdW0NIMl1bQ0gyXTM=

> <s_epik_cmdline>
J2VwaWtfcHl0aG9uJywgJy1waCcsICc3LjAnLCAnLXRuJywgJzgnLCAnLW1hJywgJzIwMCcsICctbWV0YWxfYmluZGluZycsICctaW1hZScsICc8aW5maWxlLm1hZT4nLCAnLW9tYWUnLCAnPG91dGZpbGUubWFlPic=

> <r_lp_tautomer_probability>
1

> <r_epik_Ionization_Penalty>
0.00204179

> <r_epik_Ionization_Penalty_Charging>
0.00203239

> <r_epik_Ionization_Penalty_Neutral>
9.40205e-06

> <r_epik_State_Penalty>
0.00138983

> <r_epik_Charging_Adjusted_Penalty>
0.00342221

> <i_epik_Tot_Q>
1

> <i_epik_Tot_abs_Q>
1

> <r_epik_Metal_State_Penalty>
-0

> <b_epik_Metal_Only>
0

> <s_lp_Force_Field>
OPLS_2005

> <r_lp_Energy>
41.8247

> <b_lp_Chiralities_Consistent>
1

> <s_lp_Variant>
AV-unprocessed.smi:2171-5

> <Gold.Version>
5.8.1

> <Gold.Id.Protein>
6NUR|6NUR_protein|mol2

> <Gold.PLP.Fitness>
38.7655

> <Gold.PLP.PLP>
-38.9732

> <Gold.PLP.part.hbond>
-0.9890

> <Gold.PLP.part.metal>
0.0000

> <Gold.PLP.part.buried>
-3.5487

> <Gold.PLP.part.nonpolar>
-35.5567

> <Gold.PLP.part.repulsive>
0.3615

> <Gold.PLP.ligand.clash>
0.0000

> <Gold.PLP.ligand.torsion>
0.4697

> <Gold.PLP.Chemscore.Hbond>
0.2434

> <Gold.PLP.Chemscore.CHOScore>
0.0000

> <Gold.PLP.Chemscore.Metal>
0.0000

> <Gold.Chemscore.Hbonds>
donor molecule, donor type, donor heavy atom, donor atom, acceptor molecule, acceptor atom, score
      P1  H  6933  6945       L1     8  0.44

> <Gold.PLP.Chemscore.Internal.Correction>
0.0016

> <Gold.Rescore>
     Score         DG    S(hbond)    S(metal)    S(lipo)     H(rot)  DE(clash)    DE(int)     intcor
     14.05     -15.01       0.55        0.00      97.19       1.44       0.59       0.36       ----

> <Gold.Chemscore.Fitness>
14.0534

> <Gold.Chemscore.DG>
-15.0074

> <Gold.Chemscore.ZeroCoef>
-5.4800

> <Gold.Chemscore.Hbond>
0.5524

> <Gold.Chemscore.Metal>
0.0000

> <Gold.Chemscore.Lipo>
97.1923

> <Gold.Chemscore.Internal_Hbond>
0.0000

> <Gold.Chemscore.DEClash>
0.5950

> <Gold.Chemscore.DEInternal>
0.3590

> <Gold.Chemscore.Rot>
1.4410

> <Gold.Chemscore.Internal.Correction>
   9.000000E+99

> <Gold.Chemscore.Hbonds>
donor molecule, donor type, donor heavy atom, donor atom, acceptor molecule, acceptor atom, score
      P1  H  6933  6945       L1     8  0.35

> <Gold.Chemscore.Hbond.Weighted>
-1.8449

> <Gold.Chemscore.Metal.Weighted>
-0.0000

> <Gold.Chemscore.Lipo.Weighted>
-11.3715

> <Gold.Chemscore.Internal_Hbond.Weighted>
0.0000

> <Gold.Chemscore.DEClash.Weighted>
0.5950

> <Gold.Chemscore.DEInternal.Weighted>
0.3590

> <Gold.Chemscore.Rot.Weighted>
3.6889

> <Gold.Chemscore.Internal.Correction.Weighted>
   9.000000E+99

> <Gold.Protein.RotatedTorsions>
[ 6907 6896 6895 6894 ] final  123.69 input  -60.11 | X-H torsion
[ 7974 7965 7964 7962 ] final -147.47 input  175.53 | X-H torsion
[ 8008 7997 7996 7995 ] final  156.08 input   59.86 | X-H torsion
[ 10167 10162 10161 10158 ] final   21.22 input  -65.29 | X-H torsion
[ 10718 10713 10712 10709 ] final  -31.55 input   66.30 | X-H torsion
[ 10763 10752 10751 10750 ] final -144.55 input  -60.55 | X-H torsion
[ 11005 11000 10999 10996 ] final  137.38 input  -57.11 | X-H torsion

> <Gold.Protein.ActiveResidues>
 VAL166  LYS551  ARG553  GLY616  TRP617  ASP618  TYR619  PRO620  LYS621  CYS622 
 ASP623  PHE694  ASN695  SER759  ASP760  ASP761  ALA762  ILE779  LEU786  VAL792 
 PHE793  MET794  SER795  GLU796  ALA797  LYS798  CYS799  TRP800  GLU811  SER814 

> <Gold.Protein.RotatedAtoms>
  152.4141  133.7009  159.6422 H   0  0  0  0  0  0  0  0  0  0  0  0  # atno 6907 bound_to 6896
  150.8019  133.8572  159.3230 H   0  0  0  0  0  0  0  0  0  0  0  0  # atno 6908 bound_to 6896
  151.6307  135.1025  160.0172 H   0  0  0  0  0  0  0  0  0  0  0  0  # atno 6909 bound_to 6896
  144.8091  140.5322  143.5655 H   0  0  0  0  0  0  0  0  0  0  0  0  # atno 7974 bound_to 7965
  156.2443  140.1922  156.6900 H   0  0  0  0  0  0  0  0  0  0  0  0  # atno 8008 bound_to 7997
  154.6259  140.0602  156.9698 H   0  0  0  0  0  0  0  0  0  0  0  0  # atno 8009 bound_to 7997
  155.1788  140.3274  155.4381 H   0  0  0  0  0  0  0  0  0  0  0  0  # atno 8010 bound_to 7997
  140.5443  143.9621  150.6538 H   0  0  0  0  0  0  0  0  0  0  0  0  # atno 10167 bound_to 10162
  156.3858  130.4364  149.7433 H   0  0  0  0  0  0  0  0  0  0  0  0  # atno 10718 bound_to 10713
  154.8423  135.3437  154.6363 H   0  0  0  0  0  0  0  0  0  0  0  0  # atno 10763 bound_to 10752
  153.6974  135.6971  153.5077 H   0  0  0  0  0  0  0  0  0  0  0  0  # atno 10764 bound_to 10752
  153.2549  135.4341  155.0790 H   0  0  0  0  0  0  0  0  0  0  0  0  # atno 10765 bound_to 10752
  140.0110  134.9439  157.0278 H   0  0  0  0  0  0  0  0  0  0  0  0  # atno 11005 bound_to 11000
  145.5367  139.1475  143.3470 LP  0  0  0  0  0  0  0  0  0  0  0  0  # atno 17320 bound_to 7965
  146.2387  140.5507  142.8943 LP  0  0  0  0  0  0  0  0  0  0  0  0  # atno 17321 bound_to 7965
  140.3030  143.3248  152.0953 LP  0  0  0  0  0  0  0  0  0  0  0  0  # atno 17342 bound_to 10162
  139.5001  144.6685  151.6300 LP  0  0  0  0  0  0  0  0  0  0  0  0  # atno 17343 bound_to 10162
  156.4505  130.7904  151.2926 LP  0  0  0  0  0  0  0  0  0  0  0  0  # atno 17370 bound_to 10713
  157.7496  131.0097  150.3276 LP  0  0  0  0  0  0  0  0  0  0  0  0  # atno 17371 bound_to 10713
  140.4554  134.1539  155.7185 LP  0  0  0  0  0  0  0  0  0  0  0  0  # atno 17394 bound_to 11000
  141.1711  133.8607  157.1568 LP  0  0  0  0  0  0  0  0  0  0  0  0  # atno 17395 bound_to 11000

$$$$
