AV-unprocessed.smi:1323|AV-procd|sdf|5468|dock1
  -GOLD-   22720 5 33D 1   1.00000     0.00000
 Structure written by MMmdl.
 45 46  0  0  0  0  0  0  0  0  1 V2000
  145.6443  135.8561  150.8525 C   0  0  0  0  0  0  0  0  0  0  0  0
  145.3220  134.3950  151.2044 C   0  0  1  0  0  0  0  0  0  0  0  0
  144.7565  133.6518  149.9770 C   0  0  0  0  0  0  0  0  0  0  0  0
  144.4344  132.1839  150.2958 C   0  0  0  0  0  0  0  0  0  0  0  0
  145.6721  131.4561  150.8368 C   0  0  0  0  0  0  0  0  0  0  0  0
  146.2351  132.1793  152.0669 C   0  0  0  0  0  0  0  0  0  0  0  0
  146.5580  133.6595  151.7698 C   0  0  2  0  0  0  0  0  0  0  0  0
  146.9286  134.2915  152.9881 O   0  0  0  0  0  0  0  0  0  0  0  0
  147.9919  133.6527  153.6803 C   0  0  0  0  0  0  0  0  0  0  0  0
  148.4283  134.5439  154.8544 C   0  0  0  0  0  0  0  0  0  0  0  0
  149.1407  135.7338  154.3968 N   0  0  0  0  0  0  0  0  0  0  0  0
  149.4765  136.7822  155.1644 C   0  0  0  0  0  0  0  0  0  0  0  0
  149.2693  136.8268  156.3769 O   0  0  0  0  0  0  0  0  0  0  0  0
  150.1612  137.9575  154.4572 C   0  0  0  0  0  0  0  0  0  0  0  0
  149.2660  139.1199  154.3340 N   0  0  0  0  0  0  0  0  0  0  0  0
  147.9851  138.8776  153.7974 C   0  0  0  0  0  0  0  0  0  0  0  0
  147.0769  139.8557  153.6538 C   0  0  0  0  0  0  0  0  0  0  0  0
  147.4390  141.1894  154.0698 C   0  0  0  0  0  0  0  0  0  0  0  0
  148.6626  141.4344  154.5790 C   0  0  0  0  0  0  0  0  0  0  0  0
  149.6627  140.3706  154.7269 C   0  0  0  0  0  0  0  0  0  0  0  0
  150.7868  140.5922  155.1772 O   0  0  0  0  0  0  0  0  0  0  0  0
  146.4290  135.9176  150.0978 H   0  0  0  0  0  0  0  0  0  0  0  0
  145.9821  136.4104  151.7284 H   0  0  0  0  0  0  0  0  0  0  0  0
  144.7654  136.3687  150.4610 H   0  0  0  0  0  0  0  0  0  0  0  0
  144.5491  134.4009  151.9747 H   0  0  0  0  0  0  0  0  0  0  0  0
  143.8554  134.1524  149.6210 H   0  0  0  0  0  0  0  0  0  0  0  0
  145.4755  133.6935  149.1576 H   0  0  0  0  0  0  0  0  0  0  0  0
  143.6295  132.1353  151.0305 H   0  0  0  0  0  0  0  0  0  0  0  0
  144.0681  131.6797  149.4011 H   0  0  0  0  0  0  0  0  0  0  0  0
  145.4165  130.4280  151.0954 H   0  0  0  0  0  0  0  0  0  0  0  0
  146.4369  131.4014  150.0611 H   0  0  0  0  0  0  0  0  0  0  0  0
  145.5053  132.1315  152.8735 H   0  0  0  0  0  0  0  0  0  0  0  0
  147.1188  131.6508  152.4242 H   0  0  0  0  0  0  0  0  0  0  0  0
  147.3695  133.7270  151.0421 H   0  0  0  0  0  0  0  0  0  0  0  0
  147.7041  132.6680  154.0487 H   0  0  0  0  0  0  0  0  0  0  0  0
  148.8214  133.4954  152.9899 H   0  0  0  0  0  0  0  0  0  0  0  0
  147.5624  134.8384  155.4489 H   0  0  0  0  0  0  0  0  0  0  0  0
  149.0882  133.9844  155.5178 H   0  0  0  0  0  0  0  0  0  0  0  0
  149.3576  135.7804  153.4119 H   0  0  0  0  0  0  0  0  0  0  0  0
  151.0603  138.2275  155.0137 H   0  0  0  0  0  0  0  0  0  0  0  0
  150.5218  137.6382  153.4779 H   0  0  0  0  0  0  0  0  0  0  0  0
  147.7879  137.8521  153.5212 H   0  0  0  0  0  0  0  0  0  0  0  0
  146.0986  139.6489  153.2459 H   0  0  0  0  0  0  0  0  0  0  0  0
  146.7247  141.9941  153.9754 H   0  0  0  0  0  0  0  0  0  0  0  0
  148.9151  142.4382  154.8874 H   0  0  0  0  0  0  0  0  0  0  0  0
  1  2  1  0  0  0  0
  1 22  1  0  0  0  0
  1 23  1  0  0  0  0
  1 24  1  0  0  0  0
  2  7  1  0  0  0  0
  2  3  1  0  0  0  0
  2 25  1  0  0  0  0
  3  4  1  0  0  0  0
  3 26  1  0  0  0  0
  3 27  1  0  0  0  0
  4  5  1  0  0  0  0
  4 28  1  0  0  0  0
  4 29  1  0  0  0  0
  5  6  1  0  0  0  0
  5 30  1  0  0  0  0
  5 31  1  0  0  0  0
  6  7  1  0  0  0  0
  6 32  1  0  0  0  0
  6 33  1  0  0  0  0
  7  8  1  0  0  0  0
  7 34  1  0  0  0  0
  8  9  1  0  0  0  0
  9 10  1  0  0  0  0
  9 35  1  0  0  0  0
  9 36  1  0  0  0  0
 10 11  1  0  0  0  0
 10 37  1  0  0  0  0
 10 38  1  0  0  0  0
 11 12  1  0  0  0  0
 11 39  1  0  0  0  0
 12 13  2  0  0  0  0
 12 14  1  0  0  0  0
 14 15  1  0  0  0  0
 14 40  1  0  0  0  0
 14 41  1  0  0  0  0
 15 20  1  0  0  0  0
 15 16  1  0  0  0  0
 16 17  2  0  0  0  0
 16 42  1  0  0  0  0
 17 18  1  0  0  0  0
 17 43  1  0  0  0  0
 18 19  2  0  0  0  0
 18 44  1  0  0  0  0
 19 20  1  0  0  0  0
 19 45  1  0  0  0  0
 20 21  2  0  0  0  0
M  END
> <s_m_source_file>
AV-unprocessed.smi

> <i_m_source_file_index>
1323

> <i_lp_mmshare_version>
43012

> <i_f3d_flags>
0

> <s_epik_input>
W0NIM11bQ0BASF0xW0NIMl1bQ0gyXVtDSDJdW0NIMl1bQ0BIXTFPW0NIMl1bQ0gyXVtOSF1DKD1PKVtDSDJdbjJbY0hdW2NIXVtjSF1bY0hdYzI9Tw==

> <s_epik_cmdline>
J2VwaWtfcHl0aG9uJywgJy1waCcsICc3LjAnLCAnLXRuJywgJzgnLCAnLW1hJywgJzIwMCcsICctbWV0YWxfYmluZGluZycsICctaW1hZScsICc8aW5maWxlLm1hZT4nLCAnLW9tYWUnLCAnPG91dGZpbGUubWFlPic=

> <r_lp_tautomer_probability>
1

> <r_epik_Ionization_Penalty>
4.02412e-07

> <r_epik_Ionization_Penalty_Charging>
3.74552e-07

> <r_epik_Ionization_Penalty_Neutral>
2.78599e-08

> <r_epik_State_Penalty>
-0

> <r_epik_Charging_Adjusted_Penalty>
3.74552e-07

> <i_epik_Tot_Q>
0

> <i_epik_Tot_abs_Q>
0

> <r_epik_Metal_State_Penalty>
-0

> <b_epik_Metal_Only>
0

> <s_lp_Force_Field>
OPLS_2005

> <r_lp_Energy>
20.2591

> <b_lp_Chiralities_Consistent>
1

> <s_lp_Variant>
AV-unprocessed.smi:1323-4

> <Gold.Version>
5.8.1

> <Gold.Id.Protein>
6NUR|6NUR_protein|mol2

> <Gold.PLP.Fitness>
47.0786

> <Gold.PLP.PLP>
-38.6671

> <Gold.PLP.part.hbond>
-2.0000

> <Gold.PLP.part.metal>
0.0000

> <Gold.PLP.part.buried>
-4.2481

> <Gold.PLP.part.nonpolar>
-33.3319

> <Gold.PLP.part.repulsive>
0.3040

> <Gold.PLP.ligand.clash>
0.0000

> <Gold.PLP.ligand.torsion>
0.3396

> <Gold.PLP.Chemscore.Hbond>
2.0000

> <Gold.PLP.Chemscore.CHOScore>
0.9740

> <Gold.PLP.Chemscore.Metal>
0.0000

> <Gold.Chemscore.Hbonds>
donor molecule, donor type, donor heavy atom, donor atom, acceptor molecule, acceptor atom, score
      L1  H    11    39       P1  7948  1.00
      P1  H  7989  7998       L1    21  0.80
      L1  C    16    42       P1  7948  0.85

> <Gold.PLP.Chemscore.Internal.Correction>
0.1688

> <Gold.Rescore>
     Score         DG    S(hbond)    S(metal)    S(lipo)     H(rot)  DE(clash)    DE(int)     intcor
     16.02     -16.60       1.72        0.00      88.40       1.94       0.24       0.34       ----

> <Gold.Chemscore.Fitness>
16.0151

> <Gold.Chemscore.DG>
-16.5987

> <Gold.Chemscore.ZeroCoef>
-5.4800

> <Gold.Chemscore.Hbond>
1.7191

> <Gold.Chemscore.Metal>
0.0000

> <Gold.Chemscore.Lipo>
88.4004

> <Gold.Chemscore.Internal_Hbond>
0.0000

> <Gold.Chemscore.DEClash>
0.2446

> <Gold.Chemscore.DEInternal>
0.3390

> <Gold.Chemscore.Rot>
1.9398

> <Gold.Chemscore.Internal.Correction>
   9.000000E+99

> <Gold.Chemscore.Hbonds>
donor molecule, donor type, donor heavy atom, donor atom, acceptor molecule, acceptor atom, score
      L1  H    11    39       P1  7948  0.38
      P1  H  7989  7998       L1    21  0.13

> <Gold.Chemscore.Hbond.Weighted>
-5.7418

> <Gold.Chemscore.Metal.Weighted>
-0.0000

> <Gold.Chemscore.Lipo.Weighted>
-10.3428

> <Gold.Chemscore.Internal_Hbond.Weighted>
0.0000

> <Gold.Chemscore.DEClash.Weighted>
0.2446

> <Gold.Chemscore.DEInternal.Weighted>
0.3390

> <Gold.Chemscore.Rot.Weighted>
4.9659

> <Gold.Chemscore.Internal.Correction.Weighted>
   9.000000E+99

> <Gold.Protein.RotatedTorsions>
[ 6907 6896 6895 6894 ] final  140.29 input  -60.11 | X-H torsion
[ 7974 7965 7964 7962 ] final  -54.86 input  175.53 | X-H torsion
[ 8008 7997 7996 7995 ] final   94.26 input   59.86 | X-H torsion
[ 10167 10162 10161 10158 ] final  -42.06 input  -65.29 | X-H torsion
[ 10718 10713 10712 10709 ] final   77.75 input   66.30 | X-H torsion
[ 10763 10752 10751 10750 ] final  -64.38 input  -60.55 | X-H torsion
[ 11005 11000 10999 10996 ] final   30.40 input  -57.11 | X-H torsion

> <Gold.Protein.ActiveResidues>
 VAL166  LYS551  ARG553  GLY616  TRP617  ASP618  TYR619  PRO620  LYS621  CYS622 
 ASP623  PHE694  ASN695  SER759  ASP760  ASP761  ALA762  ILE779  LEU786  VAL792 
 PHE793  MET794  SER795  GLU796  ALA797  LYS798  CYS799  TRP800  GLU811  SER814 

> <Gold.Protein.RotatedAtoms>
  152.2447  133.5165  159.5290 H   0  0  0  0  0  0  0  0  0  0  0  0  # atno 6907 bound_to 6896
  150.7075  134.1041  159.3985 H   0  0  0  0  0  0  0  0  0  0  0  0  # atno 6908 bound_to 6896
  151.8961  135.0397  160.0553 H   0  0  0  0  0  0  0  0  0  0  0  0  # atno 6909 bound_to 6896
  145.8807  140.8146  142.9841 H   0  0  0  0  0  0  0  0  0  0  0  0  # atno 7974 bound_to 7965
  156.0559  140.3302  155.7405 H   0  0  0  0  0  0  0  0  0  0  0  0  # atno 8008 bound_to 7997
  155.5530  140.0612  157.2863 H   0  0  0  0  0  0  0  0  0  0  0  0  # atno 8009 bound_to 7997
  154.4458  140.1891  156.0694 H   0  0  0  0  0  0  0  0  0  0  0  0  # atno 8010 bound_to 7997
  140.6982  143.3059  151.3155 H   0  0  0  0  0  0  0  0  0  0  0  0  # atno 10167 bound_to 10162
  157.6721  130.9836  150.1687 H   0  0  0  0  0  0  0  0  0  0  0  0  # atno 10718 bound_to 10713
  154.3293  135.6180  153.5544 H   0  0  0  0  0  0  0  0  0  0  0  0  # atno 10763 bound_to 10752
  152.9813  135.5743  154.4980 H   0  0  0  0  0  0  0  0  0  0  0  0  # atno 10764 bound_to 10752
  154.4663  135.2857  155.1652 H   0  0  0  0  0  0  0  0  0  0  0  0  # atno 10765 bound_to 10752
  140.2948  134.2823  155.7767 H   0  0  0  0  0  0  0  0  0  0  0  0  # atno 11005 bound_to 11000
  144.6727  140.1380  143.7439 LP  0  0  0  0  0  0  0  0  0  0  0  0  # atno 17320 bound_to 7965
  145.9026  139.2439  143.1484 LP  0  0  0  0  0  0  0  0  0  0  0  0  # atno 17321 bound_to 7965
  139.6464  144.0443  152.2594 LP  0  0  0  0  0  0  0  0  0  0  0  0  # atno 17342 bound_to 10162
  139.9965  144.6324  150.7768 LP  0  0  0  0  0  0  0  0  0  0  0  0  # atno 17343 bound_to 10162
  156.2446  130.3694  149.8299 LP  0  0  0  0  0  0  0  0  0  0  0  0  # atno 17370 bound_to 10713
  156.6089  130.8578  151.3449 LP  0  0  0  0  0  0  0  0  0  0  0  0  # atno 17371 bound_to 10713
  141.2139  133.7608  156.9679 LP  0  0  0  0  0  0  0  0  0  0  0  0  # atno 17394 bound_to 11000
  140.1162  134.9445  157.2138 LP  0  0  0  0  0  0  0  0  0  0  0  0  # atno 17395 bound_to 11000

$$$$
