AV-unprocessed.smi:2124|AV-procd|sdf|8666|dock8
  -GOLD-   2272011413D 1   1.00000     0.00000
 Structure written by MMmdl.
 46 48  0  0  0  0  0  0  0  0  2 V2000
  153.1302  143.0066  163.3485 C   0  0  0  0  0  0  0  0  0  0  0  0
  152.7224  143.0126  161.8908 C   0  0  0  0  0  0  0  0  0  0  0  0
  152.0411  143.9943  161.4365 N   0  0  0  0  0  0  0  0  0  0  0  0
  151.6676  144.0088  160.0819 C   0  0  0  0  0  0  0  0  0  0  0  0
  150.8686  145.2187  159.6304 C   0  0  0  0  0  0  0  0  0  0  0  0
  152.0156  142.9916  159.2422 C   0  0  0  0  0  0  0  0  0  0  0  0
  151.6427  142.9649  157.7604 C   0  0  0  0  0  0  0  0  0  0  0  0
  150.8426  141.7425  157.3066 C   0  0  0  0  0  0  0  0  0  0  0  0
  149.9602  141.2796  158.0290 O   0  0  0  0  0  0  0  0  0  0  0  0
  151.1618  141.2297  156.1078 N   0  0  0  0  0  0  0  0  0  0  0  0
  150.5270  140.0738  155.4785 C   0  0  2  0  0  0  0  0  0  0  0  0
  151.6039  139.0560  155.0642 C   0  0  0  0  0  0  0  0  0  0  0  0
  149.6754  140.5510  154.2790 C   0  0  2  0  0  0  0  0  0  0  0  0
  148.9351  141.8904  154.5005 C   0  0  0  0  0  0  0  0  0  0  0  0
  147.4974  141.5711  154.0504 C   0  0  2  0  0  0  0  0  0  0  0  0
  146.8187  140.7017  155.1244 C   0  0  0  0  0  0  0  0  0  0  0  0
  147.5154  139.3406  154.9457 C   0  0  0  0  0  0  0  0  0  0  0  0
  148.5281  139.6190  153.8150 C   0  0  1  0  0  0  0  0  0  0  0  0
  147.7249  140.5651  152.9281 C   0  0  0  0  0  0  0  0  0  0  0  0
  152.7951  141.8752  159.8076 C   0  0  0  0  0  0  0  0  0  0  0  0
  153.1269  140.9262  159.0981 O   0  0  0  0  0  0  0  0  0  0  0  0
  153.1240  141.9383  161.1295 N   0  5  0  0  0  0  0  0  0  0  0  0
  152.6566  143.8249  163.8928 H   0  0  0  0  0  0  0  0  0  0  0  0
  154.2111  143.1169  163.4367 H   0  0  0  0  0  0  0  0  0  0  0  0
  152.8377  142.0686  163.8215 H   0  0  0  0  0  0  0  0  0  0  0  0
  151.4008  145.7614  158.8492 H   0  0  0  0  0  0  0  0  0  0  0  0
  150.6958  145.9082  160.4574 H   0  0  0  0  0  0  0  0  0  0  0  0
  149.8973  144.9129  159.2436 H   0  0  0  0  0  0  0  0  0  0  0  0
  151.0788  143.8695  157.5300 H   0  0  0  0  0  0  0  0  0  0  0  0
  152.5339  143.0380  157.1365 H   0  0  0  0  0  0  0  0  0  0  0  0
  151.8986  141.6815  155.5861 H   0  0  0  0  0  0  0  0  0  0  0  0
  149.8706  139.6058  156.2129 H   0  0  0  0  0  0  0  0  0  0  0  0
  151.1582  138.1580  154.6370 H   0  0  0  0  0  0  0  0  0  0  0  0
  152.2008  138.7421  155.9210 H   0  0  0  0  0  0  0  0  0  0  0  0
  152.2832  139.4766  154.3220 H   0  0  0  0  0  0  0  0  0  0  0  0
  150.3493  140.6786  153.4294 H   0  0  0  0  0  0  0  0  0  0  0  0
  148.9635  142.2273  155.5376 H   0  0  0  0  0  0  0  0  0  0  0  0
  149.3756  142.6768  153.8863 H   0  0  0  0  0  0  0  0  0  0  0  0
  146.9192  142.4528  153.7726 H   0  0  0  0  0  0  0  0  0  0  0  0
  146.9485  141.1071  156.1284 H   0  0  0  0  0  0  0  0  0  0  0  0
  145.7481  140.6122  154.9359 H   0  0  0  0  0  0  0  0  0  0  0  0
  147.9754  138.9761  155.8632 H   0  0  0  0  0  0  0  0  0  0  0  0
  146.7921  138.5882  154.6285 H   0  0  0  0  0  0  0  0  0  0  0  0
  148.8750  138.7176  153.3093 H   0  0  0  0  0  0  0  0  0  0  0  0
  146.8018  140.1245  152.5473 H   0  0  0  0  0  0  0  0  0  0  0  0
  148.2980  140.9712  152.0927 H   0  0  0  0  0  0  0  0  0  0  0  0
  1  2  1  0  0  0  0
  1 23  1  0  0  0  0
  1 24  1  0  0  0  0
  1 25  1  0  0  0  0
  2 22  1  0  0  0  0
  2  3  2  0  0  0  0
  3  4  1  0  0  0  0
  4  5  1  0  0  0  0
  4  6  2  0  0  0  0
  5 26  1  0  0  0  0
  5 27  1  0  0  0  0
  5 28  1  0  0  0  0
  6  7  1  0  0  0  0
  6 20  1  0  0  0  0
  7  8  1  0  0  0  0
  7 29  1  0  0  0  0
  7 30  1  0  0  0  0
  8  9  2  0  0  0  0
  8 10  1  0  0  0  0
 10 11  1  0  0  0  0
 10 31  1  0  0  0  0
 11 12  1  0  0  0  0
 11 13  1  0  0  0  0
 11 32  1  0  0  0  0
 12 33  1  0  0  0  0
 12 34  1  0  0  0  0
 12 35  1  0  0  0  0
 13 18  1  0  0  0  0
 13 14  1  0  0  0  0
 13 36  1  0  0  0  0
 14 15  1  0  0  0  0
 14 37  1  0  0  0  0
 14 38  1  0  0  0  0
 15 19  1  0  0  0  0
 15 16  1  0  0  0  0
 15 39  1  0  0  0  0
 16 17  1  0  0  0  0
 16 40  1  0  0  0  0
 16 41  1  0  0  0  0
 17 18  1  0  0  0  0
 17 42  1  0  0  0  0
 17 43  1  0  0  0  0
 18 19  1  0  0  0  0
 18 44  1  0  0  0  0
 19 45  1  0  0  0  0
 19 46  1  0  0  0  0
 20 21  2  0  0  0  0
 20 22  1  0  0  0  0
M  CHG  1  22  -1
M  END
> <s_m_source_file>
AV-unprocessed.smi

> <i_m_source_file_index>
2124

> <i_lp_mmshare_version>
43012

> <i_f3d_flags>
0

> <s_epik_input>
W0NIM11jMW5jKFtDSDNdKWMoYyg9TylbbkhdMSlbQ0gyXUMoPU8pW05IXVtDQEhdKFtDSDNdKVtDQEhdKFtDSDJdW0NASF0yMylbQ0BIXShbQ0gyXTMpW0NIMl1bQ0gyXTI=

> <s_epik_cmdline>
J2VwaWtfcHl0aG9uJywgJy1waCcsICc3LjAnLCAnLXRuJywgJzgnLCAnLW1hJywgJzIwMCcsICctbWV0YWxfYmluZGluZycsICctaW1hZScsICc8aW5maWxlLm1hZT4nLCAnLW9tYWUnLCAnPG91dGZpbGUubWFlPic=

> <r_lp_tautomer_probability>
0.839158

> <r_epik_Ionization_Penalty>
6.63797

> <r_epik_Ionization_Penalty_Charging>
7.48558e-08

> <r_epik_Ionization_Penalty_Neutral>
6.63797

> <r_epik_State_Penalty>
4.49496

> <r_epik_Charging_Adjusted_Penalty>
4.49496

> <i_epik_Tot_Q>
-1

> <i_epik_Tot_abs_Q>
1

> <r_epik_Metal_State_Penalty>
0.841241

> <b_epik_Metal_Only>
1

> <s_lp_Force_Field>
OPLS_2005

> <r_lp_Energy>
56.0848

> <b_lp_Chiralities_Consistent>
1

> <s_lp_Variant>
AV-unprocessed.smi:2124-17

> <Gold.Version>
5.8.1

> <Gold.Id.Protein>
6NUR|6NUR_protein|mol2

> <Gold.PLP.Fitness>
44.9374

> <Gold.PLP.PLP>
-46.5230

> <Gold.PLP.part.hbond>
0.0000

> <Gold.PLP.part.metal>
0.0000

> <Gold.PLP.part.buried>
-3.2332

> <Gold.PLP.part.nonpolar>
-42.7412

> <Gold.PLP.part.repulsive>
0.3259

> <Gold.PLP.ligand.clash>
0.0000

> <Gold.PLP.ligand.torsion>
0.8001

> <Gold.PLP.Chemscore.Hbond>
0.0000

> <Gold.PLP.Chemscore.CHOScore>
0.0000

> <Gold.PLP.Chemscore.Metal>
0.0000

> <Gold.PLP.Chemscore.Internal.Correction>
0.0146

> <Gold.Rescore>
     Score         DG    S(hbond)    S(metal)    S(lipo)     H(rot)  DE(clash)    DE(int)     intcor
     12.44     -13.45       0.00        0.00     103.21       1.61       0.59       0.41       ----

> <Gold.Chemscore.Fitness>
12.4440

> <Gold.Chemscore.DG>
-13.4462

> <Gold.Chemscore.ZeroCoef>
-5.4800

> <Gold.Chemscore.Hbond>
0.0000

> <Gold.Chemscore.Metal>
0.0000

> <Gold.Chemscore.Lipo>
103.2064

> <Gold.Chemscore.Internal_Hbond>
0.0000

> <Gold.Chemscore.DEClash>
0.5925

> <Gold.Chemscore.DEInternal>
0.4097

> <Gold.Chemscore.Rot>
1.6051

> <Gold.Chemscore.Internal.Correction>
   9.000000E+99

> <Gold.Chemscore.Hbond.Weighted>
-0.0000

> <Gold.Chemscore.Metal.Weighted>
-0.0000

> <Gold.Chemscore.Lipo.Weighted>
-12.0751

> <Gold.Chemscore.Internal_Hbond.Weighted>
0.0000

> <Gold.Chemscore.DEClash.Weighted>
0.5925

> <Gold.Chemscore.DEInternal.Weighted>
0.4097

> <Gold.Chemscore.Rot.Weighted>
4.1090

> <Gold.Chemscore.Internal.Correction.Weighted>
   9.000000E+99

> <Gold.Protein.RotatedTorsions>
[ 6907 6896 6895 6894 ] final  149.06 input  -60.11 | X-H torsion
[ 7974 7965 7964 7962 ] final -164.41 input  175.53 | X-H torsion
[ 8008 7997 7996 7995 ] final  -55.76 input   59.86 | X-H torsion
[ 10167 10162 10161 10158 ] final  154.98 input  -65.29 | X-H torsion
[ 10718 10713 10712 10709 ] final  175.58 input   66.30 | X-H torsion
[ 10763 10752 10751 10750 ] final  106.26 input  -60.55 | X-H torsion
[ 11005 11000 10999 10996 ] final   37.21 input  -57.11 | X-H torsion

> <Gold.Protein.ActiveResidues>
 VAL166  LYS551  ARG553  GLY616  TRP617  ASP618  TYR619  PRO620  LYS621  CYS622 
 ASP623  PHE694  ASN695  SER759  ASP760  ASP761  ALA762  ILE779  LEU786  VAL792 
 PHE793  MET794  SER795  GLU796  ALA797  LYS798  CYS799  TRP800  GLU811  SER814 

> <Gold.Protein.RotatedAtoms>
  152.1331  133.4419  159.4729 H   0  0  0  0  0  0  0  0  0  0  0  0  # atno 6907 bound_to 6896
  150.6880  134.2397  159.4476 H   0  0  0  0  0  0  0  0  0  0  0  0  # atno 6908 bound_to 6896
  152.0282  134.9783  160.0622 H   0  0  0  0  0  0  0  0  0  0  0  0  # atno 6909 bound_to 6896
  144.7298  140.2965  143.6211 H   0  0  0  0  0  0  0  0  0  0  0  0  # atno 7974 bound_to 7965
  154.4206  140.1145  156.5529 H   0  0  0  0  0  0  0  0  0  0  0  0  # atno 8008 bound_to 7997
  155.6392  140.3496  155.4690 H   0  0  0  0  0  0  0  0  0  0  0  0  # atno 8009 bound_to 7997
  155.9885  140.1174  157.0650 H   0  0  0  0  0  0  0  0  0  0  0  0  # atno 8010 bound_to 7997
  139.4822  144.5139  151.7981 H   0  0  0  0  0  0  0  0  0  0  0  0  # atno 10167 bound_to 10162
  156.9328  130.9976  151.2984 H   0  0  0  0  0  0  0  0  0  0  0  0  # atno 10718 bound_to 10713
  153.3906  135.3883  155.1920 H   0  0  0  0  0  0  0  0  0  0  0  0  # atno 10763 bound_to 10752
  154.8719  135.3747  154.4743 H   0  0  0  0  0  0  0  0  0  0  0  0  # atno 10764 bound_to 10752
  153.5229  135.7086  153.5783 H   0  0  0  0  0  0  0  0  0  0  0  0  # atno 10765 bound_to 10752
  140.2248  134.3598  155.7989 H   0  0  0  0  0  0  0  0  0  0  0  0  # atno 11005 bound_to 11000
  145.7803  139.1889  143.2162 LP  0  0  0  0  0  0  0  0  0  0  0  0  # atno 17320 bound_to 7965
  146.0839  140.7732  142.9628 LP  0  0  0  0  0  0  0  0  0  0  0  0  # atno 17321 bound_to 7965
  140.4645  144.1674  150.5910 LP  0  0  0  0  0  0  0  0  0  0  0  0  # atno 17342 bound_to 10162
  140.4448  143.2511  151.9425 LP  0  0  0  0  0  0  0  0  0  0  0  0  # atno 17343 bound_to 10162
  157.5836  130.8394  149.8557 LP  0  0  0  0  0  0  0  0  0  0  0  0  # atno 17370 bound_to 10713
  156.0439  130.3732  150.1365 LP  0  0  0  0  0  0  0  0  0  0  0  0  # atno 17371 bound_to 10713
  141.2221  133.7213  156.8635 LP  0  0  0  0  0  0  0  0  0  0  0  0  # atno 17394 bound_to 11000
  140.1812  134.9032  157.2950 LP  0  0  0  0  0  0  0  0  0  0  0  0  # atno 17395 bound_to 11000

$$$$
