AV-unprocessed.smi:3032|AV-procd|sdf|11565|dock5
  -GOLD-   2272016533D 1   1.00000     0.00000
 Structure written by MMmdl.
 37 38  0  0  0  0  0  0  0  0  1 V2000
  153.3092  142.0194  161.7706 C   0  0  0  0  0  0  0  0  0  0  0  0
  152.4799  142.7773  160.7246 C   0  0  2  0  0  0  0  0  0  0  0  0
  153.1264  142.6991  159.3293 C   0  0  0  0  0  0  0  0  0  0  0  0
  152.2880  143.4380  158.2752 C   0  0  0  0  0  0  0  0  0  0  0  0
  152.0165  144.9001  158.6832 C   0  0  0  0  0  0  0  0  0  0  0  0
  151.4343  145.0510  160.1103 C   0  0  1  0  0  0  0  0  0  0  0  0
  149.9378  144.7038  160.2155 C   0  0  0  0  0  0  0  0  0  0  0  0
  149.3249  144.2172  159.2656 O   0  0  0  0  0  0  0  0  0  0  0  0
  149.3604  144.9570  161.3999 N   0  0  0  0  0  0  0  0  0  0  0  0
  147.9795  144.6391  161.7523 C   0  0  0  0  0  0  0  0  0  0  0  0
  146.9582  145.0946  160.6886 C   0  0  0  0  0  0  0  0  0  0  0  0
  146.6302  146.5540  160.7449 C   0  0  0  0  0  0  0  0  0  0  0  0
  147.2430  147.4460  161.5323 N   0  0  0  0  0  0  0  0  0  0  0  0
  146.6167  148.6568  161.2803 N   0  0  0  0  0  0  0  0  0  0  0  0
  145.6889  148.3776  160.3634 C   0  0  0  0  0  0  0  0  0  0  0  0
  145.6549  147.0918  159.9960 N   0  0  0  0  0  0  0  0  0  0  0  0
  152.2778  144.2516  161.1296 C   0  0  0  0  0  0  0  0  0  0  0  0
  145.0454  146.6394  159.3301 H   0  0  0  0  0  0  0  0  0  0  0  0
  154.3071  142.4471  161.8716 H   0  0  0  0  0  0  0  0  0  0  0  0
  153.4223  140.9703  161.4963 H   0  0  0  0  0  0  0  0  0  0  0  0
  152.8317  142.0533  162.7501 H   0  0  0  0  0  0  0  0  0  0  0  0
  151.5036  142.2935  160.6748 H   0  0  0  0  0  0  0  0  0  0  0  0
  154.1281  143.1300  159.3629 H   0  0  0  0  0  0  0  0  0  0  0  0
  153.2489  141.6573  159.0316 H   0  0  0  0  0  0  0  0  0  0  0  0
  152.8045  143.4173  157.3153 H   0  0  0  0  0  0  0  0  0  0  0  0
  151.3511  142.9047  158.1186 H   0  0  0  0  0  0  0  0  0  0  0  0
  152.9542  145.4550  158.6316 H   0  0  0  0  0  0  0  0  0  0  0  0
  151.3562  145.3690  157.9523 H   0  0  0  0  0  0  0  0  0  0  0  0
  151.5152  146.1071  160.3731 H   0  0  0  0  0  0  0  0  0  0  0  0
  149.9316  145.3637  162.1267 H   0  0  0  0  0  0  0  0  0  0  0  0
  147.9215  143.5559  161.8612 H   0  0  0  0  0  0  0  0  0  0  0  0
  147.7312  145.0607  162.7270 H   0  0  0  0  0  0  0  0  0  0  0  0
  147.3368  144.8605  159.6932 H   0  0  0  0  0  0  0  0  0  0  0  0
  146.0334  144.5267  160.7994 H   0  0  0  0  0  0  0  0  0  0  0  0
  145.0229  149.1232  159.9549 H   0  0  0  0  0  0  0  0  0  0  0  0
  151.8181  144.3034  162.1180 H   0  0  0  0  0  0  0  0  0  0  0  0
  153.2514  144.7320  161.2343 H   0  0  0  0  0  0  0  0  0  0  0  0
  1  2  1  0  0  0  0
  1 19  1  0  0  0  0
  1 20  1  0  0  0  0
  1 21  1  0  0  0  0
  2 17  1  0  0  0  0
  2  3  1  0  0  0  0
  2 22  1  0  0  0  0
  3  4  1  0  0  0  0
  3 23  1  0  0  0  0
  3 24  1  0  0  0  0
  4  5  1  0  0  0  0
  4 25  1  0  0  0  0
  4 26  1  0  0  0  0
  5  6  1  0  0  0  0
  5 27  1  0  0  0  0
  5 28  1  0  0  0  0
  6  7  1  0  0  0  0
  6 17  1  0  0  0  0
  6 29  1  0  0  0  0
  7  8  2  0  0  0  0
  7  9  1  0  0  0  0
  9 10  1  0  0  0  0
  9 30  1  0  0  0  0
 10 11  1  0  0  0  0
 10 31  1  0  0  0  0
 10 32  1  0  0  0  0
 11 12  1  0  0  0  0
 11 33  1  0  0  0  0
 11 34  1  0  0  0  0
 12 16  1  0  0  0  0
 12 13  2  0  0  0  0
 13 14  1  0  0  0  0
 14 15  2  0  0  0  0
 15 16  1  0  0  0  0
 15 35  1  0  0  0  0
 16 18  1  0  0  0  0
 17 36  1  0  0  0  0
 17 37  1  0  0  0  0
M  END
> <s_m_source_file>
AV-unprocessed.smi

> <i_m_source_file_index>
3032

> <i_lp_mmshare_version>
43012

> <i_f3d_flags>
0

> <s_epik_input>
W0NIM11bQ0BASF0xW0NIMl1bQ0gyXVtDSDJdW0NASF0oW0NIMl0xKUMoPU8pW05IXVtDSDJdW0NIMl1jMm5uW2NIXVtuSF0y

> <s_epik_cmdline>
J2VwaWtfcHl0aG9uJywgJy1waCcsICc3LjAnLCAnLXRuJywgJzgnLCAnLW1hJywgJzIwMCcsICctbWV0YWxfYmluZGluZycsICctaW1hZScsICc8aW5maWxlLm1hZT4nLCAnLW9tYWUnLCAnPG91dGZpbGUubWFlPic=

> <r_lp_tautomer_probability>
0.0517155

> <r_epik_Ionization_Penalty>
0.00149837

> <r_epik_Ionization_Penalty_Charging>
0

> <r_epik_Ionization_Penalty_Neutral>
0.00149837

> <r_epik_State_Penalty>
2.1109

> <r_epik_Charging_Adjusted_Penalty>
2.1109

> <i_epik_Tot_Q>
0

> <i_epik_Tot_abs_Q>
0

> <r_epik_Metal_State_Penalty>
2.23635

> <b_epik_Metal_Only>
0

> <s_lp_Force_Field>
OPLS_2005

> <r_lp_Energy>
9.22736

> <b_lp_Chiralities_Consistent>
1

> <s_lp_Variant>
AV-unprocessed.smi:3032-9

> <Gold.Version>
5.8.1

> <Gold.Id.Protein>
6NUR|6NUR_protein|mol2

> <Gold.PLP.Fitness>
48.8164

> <Gold.PLP.PLP>
-49.2648

> <Gold.PLP.part.hbond>
-6.0861

> <Gold.PLP.part.metal>
0.0000

> <Gold.PLP.part.buried>
-7.3485

> <Gold.PLP.part.nonpolar>
-36.3980

> <Gold.PLP.part.repulsive>
0.7971

> <Gold.PLP.ligand.clash>
0.0000

> <Gold.PLP.ligand.torsion>
0.2467

> <Gold.PLP.Chemscore.Hbond>
0.0000

> <Gold.PLP.Chemscore.CHOScore>
0.0000

> <Gold.PLP.Chemscore.Metal>
0.0000

> <Gold.PLP.Chemscore.Internal.Correction>
0.0451

> <Gold.Rescore>
     Score         DG    S(hbond)    S(metal)    S(lipo)     H(rot)  DE(clash)    DE(int)     intcor
      8.18     -10.92       0.14        0.00      91.69       2.25       0.81       1.93       ----

> <Gold.Chemscore.Fitness>
8.1757

> <Gold.Chemscore.DG>
-10.9168

> <Gold.Chemscore.ZeroCoef>
-5.4800

> <Gold.Chemscore.Hbond>
0.1406

> <Gold.Chemscore.Metal>
0.0000

> <Gold.Chemscore.Lipo>
91.6882

> <Gold.Chemscore.Internal_Hbond>
0.0000

> <Gold.Chemscore.DEClash>
0.8083

> <Gold.Chemscore.DEInternal>
1.9327

> <Gold.Chemscore.Rot>
2.2501

> <Gold.Chemscore.Internal.Correction>
   9.000000E+99

> <Gold.Chemscore.Hbond.Weighted>
-0.4696

> <Gold.Chemscore.Metal.Weighted>
-0.0000

> <Gold.Chemscore.Lipo.Weighted>
-10.7275

> <Gold.Chemscore.Internal_Hbond.Weighted>
0.0000

> <Gold.Chemscore.DEClash.Weighted>
0.8083

> <Gold.Chemscore.DEInternal.Weighted>
1.9327

> <Gold.Chemscore.Rot.Weighted>
5.7603

> <Gold.Chemscore.Internal.Correction.Weighted>
   9.000000E+99

> <Gold.Protein.RotatedTorsions>
[ 6907 6896 6895 6894 ] final  -53.94 input  -60.11 | X-H torsion
[ 7974 7965 7964 7962 ] final  176.08 input  175.53 | X-H torsion
[ 8008 7997 7996 7995 ] final -106.41 input   59.86 | X-H torsion
[ 10167 10162 10161 10158 ] final  -27.60 input  -65.29 | X-H torsion
[ 10718 10713 10712 10709 ] final -146.22 input   66.30 | X-H torsion
[ 10763 10752 10751 10750 ] final   99.12 input  -60.55 | X-H torsion
[ 11005 11000 10999 10996 ] final -170.04 input  -57.11 | X-H torsion

> <Gold.Protein.ActiveResidues>
 VAL166  LYS551  ARG553  GLY616  TRP617  ASP618  TYR619  PRO620  LYS621  CYS622 
 ASP623  PHE694  ASN695  SER759  ASP760  ASP761  ALA762  ILE779  LEU786  VAL792 
 PHE793  MET794  SER795  GLU796  ALA797  LYS798  CYS799  TRP800  GLU811  SER814 

> <Gold.Protein.RotatedAtoms>
  150.8381  134.7663  159.6909 H   0  0  0  0  0  0  0  0  0  0  0  0  # atno 6907 bound_to 6896
  152.4474  134.5462  159.9863 H   0  0  0  0  0  0  0  0  0  0  0  0  # atno 6908 bound_to 6896
  151.5608  133.3366  159.3006 H   0  0  0  0  0  0  0  0  0  0  0  0  # atno 6909 bound_to 6896
  144.7190  140.0044  143.6440 H   0  0  0  0  0  0  0  0  0  0  0  0  # atno 7974 bound_to 7965
  154.9142  140.0409  157.1963 H   0  0  0  0  0  0  0  0  0  0  0  0  # atno 8008 bound_to 7997
  154.8318  140.2900  155.5696 H   0  0  0  0  0  0  0  0  0  0  0  0  # atno 8009 bound_to 7997
  156.2987  140.2499  156.3245 H   0  0  0  0  0  0  0  0  0  0  0  0  # atno 8010 bound_to 7997
  140.7276  143.4080  151.1153 H   0  0  0  0  0  0  0  0  0  0  0  0  # atno 10167 bound_to 10162
  156.3922  130.7891  151.2095 H   0  0  0  0  0  0  0  0  0  0  0  0  # atno 10718 bound_to 10713
  153.2975  135.4124  155.1222 H   0  0  0  0  0  0  0  0  0  0  0  0  # atno 10763 bound_to 10752
  154.8539  135.3533  154.5897 H   0  0  0  0  0  0  0  0  0  0  0  0  # atno 10764 bound_to 10752
  153.6321  135.7060  153.5330 H   0  0  0  0  0  0  0  0  0  0  0  0  # atno 10765 bound_to 10752
  140.5239  134.5682  157.5056 H   0  0  0  0  0  0  0  0  0  0  0  0  # atno 11005 bound_to 11000
  146.0309  139.3334  143.0755 LP  0  0  0  0  0  0  0  0  0  0  0  0  # atno 17320 bound_to 7965
  145.8453  140.9558  143.0778 LP  0  0  0  0  0  0  0  0  0  0  0  0  # atno 17321 bound_to 7965
  139.7709  143.8496  152.3120 LP  0  0  0  0  0  0  0  0  0  0  0  0  # atno 17342 bound_to 10162
  139.8414  144.7208  150.9327 LP  0  0  0  0  0  0  0  0  0  0  0  0  # atno 17343 bound_to 10162
  157.7499  131.0312  150.4171 LP  0  0  0  0  0  0  0  0  0  0  0  0  # atno 17370 bound_to 10713
  156.4435  130.3996  149.6682 LP  0  0  0  0  0  0  0  0  0  0  0  0  # atno 17371 bound_to 10713
  139.9590  134.7484  156.0277 LP  0  0  0  0  0  0  0  0  0  0  0  0  # atno 17394 bound_to 11000
  141.1319  133.6584  156.3487 LP  0  0  0  0  0  0  0  0  0  0  0  0  # atno 17395 bound_to 11000

$$$$
