AV-unprocessed.smi:1701|AV-procd|sdf|6831|dock2
  -GOLD-   22720 8 03D 1   1.00000     0.00000
 Structure written by MMmdl.
 54 56  0  0  0  0  0  0  0  0  2 V2000
  152.0230  141.5325  159.4376 C   0  0  0  0  0  0  0  0  0  0  0  0
  152.4367  140.7263  158.1964 C   0  0  0  0  0  0  0  0  0  0  0  0
  151.6043  141.0104  157.0279 N   0  0  0  0  0  0  0  0  0  0  0  0
  150.7684  142.2121  157.0822 C   0  0  0  0  0  0  0  0  0  0  0  0
  151.5842  143.5105  157.1898 C   0  0  0  0  0  0  0  0  0  0  0  0
  151.0958  139.8623  156.3808 C   0  0  0  0  0  0  0  0  0  0  0  0
  150.7820  138.7085  157.1344 C   0  0  0  0  0  0  0  0  0  0  0  0
  150.2613  137.5805  156.4736 C   0  0  0  0  0  0  0  0  0  0  0  0
  150.0595  137.6254  155.0802 C   0  0  0  0  0  0  0  0  0  0  0  0
  149.5344  136.4596  154.4569 N   0  0  0  0  0  0  0  0  0  0  0  0
  149.1874  135.2745  154.9975 C   0  0  0  0  0  0  0  0  0  0  0  0
  149.2699  134.9885  156.1887 O   0  0  0  0  0  0  0  0  0  0  0  0
  148.7198  134.3829  154.1059 N   0  0  0  0  0  0  0  0  0  0  0  0
  148.2599  133.0162  154.3540 C   0  0  2  0  0  0  0  0  0  0  0  0
  149.3979  131.9924  154.5392 C   0  0  0  0  0  0  0  0  0  0  0  0
  148.9217  130.7159  153.8168 C   0  0  0  0  0  0  0  0  0  0  0  0
  147.5439  131.0081  153.3778 N   0  3  2  0  0  0  0  0  0  0  0  0
  147.0207  130.2329  152.2317 C   0  0  0  0  0  0  0  0  0  0  0  0
  145.5521  130.6297  151.9773 C   0  0  0  0  0  0  0  0  0  0  0  0
  145.3887  132.1554  151.8174 C   0  0  0  0  0  0  0  0  0  0  0  0
  146.0347  132.9109  152.9948 C   0  0  0  0  0  0  0  0  0  0  0  0
  147.4957  132.4605  153.1533 C   0  0  1  0  0  0  0  0  0  0  0  0
  150.4044  138.8243  154.4100 C   0  0  0  0  0  0  0  0  0  0  0  0
  150.9048  139.9078  155.0402 N   0  0  0  0  0  0  0  0  0  0  0  0
  152.6699  141.2958  160.2825 H   0  0  0  0  0  0  0  0  0  0  0  0
  150.9981  141.3084  159.7348 H   0  0  0  0  0  0  0  0  0  0  0  0
  152.0938  142.6056  159.2585 H   0  0  0  0  0  0  0  0  0  0  0  0
  153.4723  140.9579  157.9461 H   0  0  0  0  0  0  0  0  0  0  0  0
  152.4237  139.6618  158.4282 H   0  0  0  0  0  0  0  0  0  0  0  0
  150.1153  142.2500  156.2095 H   0  0  0  0  0  0  0  0  0  0  0  0
  150.1094  142.1425  157.9481 H   0  0  0  0  0  0  0  0  0  0  0  0
  150.9221  144.3720  157.2759 H   0  0  0  0  0  0  0  0  0  0  0  0
  152.2175  143.6728  156.3178 H   0  0  0  0  0  0  0  0  0  0  0  0
  152.2258  143.4979  158.0711 H   0  0  0  0  0  0  0  0  0  0  0  0
  150.9447  138.6761  158.2017 H   0  0  0  0  0  0  0  0  0  0  0  0
  150.0206  136.6898  157.0354 H   0  0  0  0  0  0  0  0  0  0  0  0
  149.4168  136.5307  153.4570 H   0  0  0  0  0  0  0  0  0  0  0  0
  148.6629  134.6994  153.1484 H   0  0  0  0  0  0  0  0  0  0  0  0
  147.6022  132.9897  155.2256 H   0  0  0  0  0  0  0  0  0  0  0  0
  150.3290  132.3442  154.0922 H   0  0  0  0  0  0  0  0  0  0  0  0
  149.5916  131.8102  155.5968 H   0  0  0  0  0  0  0  0  0  0  0  0
  149.5562  130.5185  152.9511 H   0  0  0  0  0  0  0  0  0  0  0  0
  148.9453  129.8377  154.4624 H   0  0  0  0  0  0  0  0  0  0  0  0
  147.6273  130.4237  151.3452 H   0  0  0  0  0  0  0  0  0  0  0  0
  147.0912  129.1665  152.4481 H   0  0  0  0  0  0  0  0  0  0  0  0
  145.1755  130.1188  151.0907 H   0  0  0  0  0  0  0  0  0  0  0  0
  144.9376  130.2890  152.8118 H   0  0  0  0  0  0  0  0  0  0  0  0
  145.8546  132.4730  150.8837 H   0  0  0  0  0  0  0  0  0  0  0  0
  144.3324  132.4143  151.7395 H   0  0  0  0  0  0  0  0  0  0  0  0
  145.9864  133.9867  152.8229 H   0  0  0  0  0  0  0  0  0  0  0  0
  145.4779  132.7141  153.9122 H   0  0  0  0  0  0  0  0  0  0  0  0
  148.0480  132.6879  152.2380 H   0  0  0  0  0  0  0  0  0  0  0  0
  150.2944  138.9490  153.3455 H   0  0  0  0  0  0  0  0  0  0  0  0
  146.9436  130.8205  154.1681 H   0  0  0  0  0  0  0  0  0  0  0  0
  1  2  1  0  0  0  0
  1 25  1  0  0  0  0
  1 26  1  0  0  0  0
  1 27  1  0  0  0  0
  2  3  1  0  0  0  0
  2 28  1  0  0  0  0
  2 29  1  0  0  0  0
  3  4  1  0  0  0  0
  3  6  1  0  0  0  0
  4  5  1  0  0  0  0
  4 30  1  0  0  0  0
  4 31  1  0  0  0  0
  5 32  1  0  0  0  0
  5 33  1  0  0  0  0
  5 34  1  0  0  0  0
  6 24  1  0  0  0  0
  6  7  2  0  0  0  0
  7  8  1  0  0  0  0
  7 35  1  0  0  0  0
  8  9  2  0  0  0  0
  8 36  1  0  0  0  0
  9 10  1  0  0  0  0
  9 23  1  0  0  0  0
 10 11  1  0  0  0  0
 10 37  1  0  0  0  0
 11 12  2  0  0  0  0
 11 13  1  0  0  0  0
 13 14  1  0  0  0  0
 13 38  1  0  0  0  0
 14 22  1  0  0  0  0
 14 15  1  0  0  0  0
 14 39  1  0  0  0  0
 15 16  1  0  0  0  0
 15 40  1  0  0  0  0
 15 41  1  0  0  0  0
 16 17  1  0  0  0  0
 16 42  1  0  0  0  0
 16 43  1  0  0  0  0
 17 22  1  0  0  0  0
 17 18  1  0  0  0  0
 17 54  1  0  0  0  0
 18 19  1  0  0  0  0
 18 44  1  0  0  0  0
 18 45  1  0  0  0  0
 19 20  1  0  0  0  0
 19 46  1  0  0  0  0
 19 47  1  0  0  0  0
 20 21  1  0  0  0  0
 20 48  1  0  0  0  0
 20 49  1  0  0  0  0
 21 22  1  0  0  0  0
 21 50  1  0  0  0  0
 21 51  1  0  0  0  0
 22 52  1  0  0  0  0
 23 24  2  0  0  0  0
 23 53  1  0  0  0  0
M  CHG  1  17   1
M  END
> <s_m_source_file>
AV-unprocessed.smi

> <i_m_source_file_index>
1701

> <i_lp_mmshare_version>
43012

> <i_f3d_flags>
0

> <s_epik_input>
W0NIM11bQ0gyXU4oW0NIMl1bQ0gzXSljMVtjSF1bY0hdYyhbY0hdbjEpW05IXUMoPU8pW05IXVtDQEhdKFtDSDJdW0NIMl0yKVtDQEBIXShOMjMpW0NIMl1bQ0gyXVtDSDJdW0NIMl0z

> <s_epik_cmdline>
J2VwaWtfcHl0aG9uJywgJy1waCcsICc3LjAnLCAnLXRuJywgJzgnLCAnLW1hJywgJzIwMCcsICctbWV0YWxfYmluZGluZycsICctaW1hZScsICc8aW5maWxlLm1hZT4nLCAnLW9tYWUnLCAnPG91dGZpbGUubWFlPic=

> <r_lp_tautomer_probability>
1

> <r_epik_Ionization_Penalty>
0.56662

> <r_epik_Ionization_Penalty_Charging>
0.000974069

> <r_epik_Ionization_Penalty_Neutral>
0.565646

> <r_epik_State_Penalty>
2.0247

> <r_epik_Charging_Adjusted_Penalty>
2.02568

> <i_epik_Tot_Q>
1

> <i_epik_Tot_abs_Q>
1

> <r_epik_Metal_State_Penalty>
1.51504

> <b_epik_Metal_Only>
0

> <s_lp_Force_Field>
OPLS_2005

> <r_lp_Energy>
54.426

> <b_lp_Chiralities_Consistent>
1

> <s_lp_Variant>
AV-unprocessed.smi:1701-11

> <Gold.Version>
5.8.1

> <Gold.Id.Protein>
6NUR|6NUR_protein|mol2

> <Gold.PLP.Fitness>
45.4250

> <Gold.PLP.PLP>
-35.4616

> <Gold.PLP.part.hbond>
-3.0000

> <Gold.PLP.part.metal>
0.0000

> <Gold.PLP.part.buried>
-3.4664

> <Gold.PLP.part.nonpolar>
-29.2138

> <Gold.PLP.part.repulsive>
0.0978

> <Gold.PLP.ligand.clash>
0.0000

> <Gold.PLP.ligand.torsion>
1.3924

> <Gold.PLP.Chemscore.Hbond>
2.9440

> <Gold.PLP.Chemscore.CHOScore>
1.0000

> <Gold.PLP.Chemscore.Metal>
0.0000

> <Gold.Chemscore.Hbonds>
donor molecule, donor type, donor heavy atom, donor atom, acceptor molecule, acceptor atom, score
      L1  H    10    37       P1  7948  1.00
      L1  H    13    38       P1  7948  0.94
      P1  H  7989  7998       L1    24  1.00
      L1  C    23    53       P1  7957  1.00

> <Gold.PLP.Chemscore.Internal.Correction>
0.9160

> <Gold.Rescore>
     Score         DG    S(hbond)    S(metal)    S(lipo)     H(rot)  DE(clash)    DE(int)     intcor
     14.77     -19.02       1.43        0.00     102.87       1.28       1.51       2.74       ----

> <Gold.Chemscore.Fitness>
14.7674

> <Gold.Chemscore.DG>
-19.0162

> <Gold.Chemscore.ZeroCoef>
-5.4800

> <Gold.Chemscore.Hbond>
1.4331

> <Gold.Chemscore.Metal>
0.0000

> <Gold.Chemscore.Lipo>
102.8746

> <Gold.Chemscore.Internal_Hbond>
0.0000

> <Gold.Chemscore.DEClash>
1.5103

> <Gold.Chemscore.DEInternal>
2.7385

> <Gold.Chemscore.Rot>
1.2838

> <Gold.Chemscore.Internal.Correction>
   9.000000E+99

> <Gold.Chemscore.Hbonds>
donor molecule, donor type, donor heavy atom, donor atom, acceptor molecule, acceptor atom, score
      L1  H    10    37       P1  7948  0.82
      L1  H    13    38       P1  7948  0.27
      P1  H  7989  7998       L1    24  0.25

> <Gold.Chemscore.Hbond.Weighted>
-4.7864

> <Gold.Chemscore.Metal.Weighted>
-0.0000

> <Gold.Chemscore.Lipo.Weighted>
-12.0363

> <Gold.Chemscore.Internal_Hbond.Weighted>
0.0000

> <Gold.Chemscore.DEClash.Weighted>
1.5103

> <Gold.Chemscore.DEInternal.Weighted>
2.7385

> <Gold.Chemscore.Rot.Weighted>
3.2865

> <Gold.Chemscore.Internal.Correction.Weighted>
   9.000000E+99

> <Gold.Protein.RotatedTorsions>
[ 6907 6896 6895 6894 ] final   72.75 input  -60.11 | X-H torsion
[ 7974 7965 7964 7962 ] final  132.11 input  175.53 | X-H torsion
[ 8008 7997 7996 7995 ] final  176.90 input   59.86 | X-H torsion
[ 10167 10162 10161 10158 ] final   48.57 input  -65.29 | X-H torsion
[ 10718 10713 10712 10709 ] final  -60.17 input   66.30 | X-H torsion
[ 10763 10752 10751 10750 ] final   93.60 input  -60.55 | X-H torsion
[ 11005 11000 10999 10996 ] final -141.51 input  -57.11 | X-H torsion

> <Gold.Protein.ActiveResidues>
 VAL166  LYS551  ARG553  GLY616  TRP617  ASP618  TYR619  PRO620  LYS621  CYS622 
 ASP623  PHE694  ASN695  SER759  ASP760  ASP761  ALA762  ILE779  LEU786  VAL792 
 PHE793  MET794  SER795  GLU796  ALA797  LYS798  CYS799  TRP800  GLU811  SER814 

> <Gold.Protein.RotatedAtoms>
  152.4885  134.4524  159.9578 H   0  0  0  0  0  0  0  0  0  0  0  0  # atno 6907 bound_to 6896
  151.4516  133.3610  159.2804 H   0  0  0  0  0  0  0  0  0  0  0  0  # atno 6908 bound_to 6896
  150.9018  134.8455  159.7425 H   0  0  0  0  0  0  0  0  0  0  0  0  # atno 6909 bound_to 6896
  145.0003  139.4319  143.5295 H   0  0  0  0  0  0  0  0  0  0  0  0  # atno 7974 bound_to 7965
  156.0715  140.1372  156.9822 H   0  0  0  0  0  0  0  0  0  0  0  0  # atno 8008 bound_to 7997
  154.4534  140.0971  156.6738 H   0  0  0  0  0  0  0  0  0  0  0  0  # atno 8009 bound_to 7997
  155.5220  140.3456  155.4411 H   0  0  0  0  0  0  0  0  0  0  0  0  # atno 8010 bound_to 7997
  140.2919  144.3036  150.6238 H   0  0  0  0  0  0  0  0  0  0  0  0  # atno 10167 bound_to 10162
  156.1009  130.4186  150.0817 H   0  0  0  0  0  0  0  0  0  0  0  0  # atno 10718 bound_to 10713
  153.2321  135.4320  155.0606 H   0  0  0  0  0  0  0  0  0  0  0  0  # atno 10763 bound_to 10752
  154.8301  135.3382  154.6772 H   0  0  0  0  0  0  0  0  0  0  0  0  # atno 10764 bound_to 10752
  153.7199  135.7017  153.5072 H   0  0  0  0  0  0  0  0  0  0  0  0  # atno 10765 bound_to 10752
  140.8317  134.2508  157.4853 H   0  0  0  0  0  0  0  0  0  0  0  0  # atno 11005 bound_to 11000
  146.3450  139.9387  142.8744 LP  0  0  0  0  0  0  0  0  0  0  0  0  # atno 17320 bound_to 7965
  145.2163  140.9916  143.4071 LP  0  0  0  0  0  0  0  0  0  0  0  0  # atno 17321 bound_to 7965
  140.5725  143.2179  151.7574 LP  0  0  0  0  0  0  0  0  0  0  0  0  # atno 17342 bound_to 10162
  139.4936  144.4196  151.9992 LP  0  0  0  0  0  0  0  0  0  0  0  0  # atno 17343 bound_to 10162
  156.8804  130.9554  151.3600 LP  0  0  0  0  0  0  0  0  0  0  0  0  # atno 17370 bound_to 10713
  157.6179  130.8633  149.9060 LP  0  0  0  0  0  0  0  0  0  0  0  0  # atno 17371 bound_to 10713
  139.8705  134.9590  156.4317 LP  0  0  0  0  0  0  0  0  0  0  0  0  # atno 17394 bound_to 11000
  140.8990  133.7793  155.9659 LP  0  0  0  0  0  0  0  0  0  0  0  0  # atno 17395 bound_to 11000

$$$$
