AV-unprocessed.smi:2774|AV-procd|sdf|10682|dock4
  -GOLD-   2272015123D 1   1.00000     0.00000
 Structure written by MMmdl.
 35 36  0  0  0  0  0  0  0  0  2 V2000
  149.5488  142.2148  154.6608 O   0  0  0  0  0  0  0  0  0  0  0  0
  149.5259  141.3098  155.7475 C   0  0  2  0  0  0  0  0  0  0  0  0
  149.9503  142.0580  157.0234 C   0  0  0  0  0  0  0  0  0  0  0  0
  150.9376  143.1183  156.7240 N   0  3  0  0  0  0  0  0  0  0  0  0
  151.6187  143.7042  157.8998 C   0  0  1  0  0  0  0  0  0  0  0  0
  150.7976  144.8688  158.4973 C   0  0  0  0  0  0  0  0  0  0  0  0
  151.4952  145.5397  159.6924 C   0  0  0  0  0  0  0  0  0  0  0  0
  151.7378  144.5686  160.8557 C   0  0  0  0  0  0  0  0  0  0  0  0
  152.8262  143.2098  160.3530 S   0  0  0  0  0  0  0  0  0  0  0  0
  151.8593  142.6003  158.9454 C   0  0  0  0  0  0  0  0  0  0  0  0
  150.4178  140.1048  155.4943 C   0  0  0  0  0  0  0  0  0  0  0  0
  150.0353  139.0897  154.5903 C   0  0  0  0  0  0  0  0  0  0  0  0
  150.9063  137.9996  154.3929 C   0  0  0  0  0  0  0  0  0  0  0  0
  152.0938  137.8766  155.0233 N   0  0  0  0  0  0  0  0  0  0  0  0
  152.4561  138.8508  155.8849 C   0  0  0  0  0  0  0  0  0  0  0  0
  151.6587  139.9815  156.1541 C   0  0  0  0  0  0  0  0  0  0  0  0
  149.3859  143.0852  154.9925 H   0  0  0  0  0  0  0  0  0  0  0  0
  148.4982  140.9612  155.8592 H   0  0  0  0  0  0  0  0  0  0  0  0
  149.0749  142.5195  157.4824 H   0  0  0  0  0  0  0  0  0  0  0  0
  150.3576  141.3546  157.7498 H   0  0  0  0  0  0  0  0  0  0  0  0
  151.6334  142.7507  156.0903 H   0  0  0  0  0  0  0  0  0  0  0  0
  152.5912  144.0775  157.5747 H   0  0  0  0  0  0  0  0  0  0  0  0
  150.6170  145.6316  157.7403 H   0  0  0  0  0  0  0  0  0  0  0  0
  149.8148  144.5086  158.8047 H   0  0  0  0  0  0  0  0  0  0  0  0
  152.4430  145.9732  159.3706 H   0  0  0  0  0  0  0  0  0  0  0  0
  150.8842  146.3721  160.0430 H   0  0  0  0  0  0  0  0  0  0  0  0
  152.1963  145.0912  161.6955 H   0  0  0  0  0  0  0  0  0  0  0  0
  150.7935  144.1561  161.2126 H   0  0  0  0  0  0  0  0  0  0  0  0
  150.9115  142.2047  159.3131 H   0  0  0  0  0  0  0  0  0  0  0  0
  152.4014  141.7655  158.4998 H   0  0  0  0  0  0  0  0  0  0  0  0
  149.0971  139.1406  154.0571 H   0  0  0  0  0  0  0  0  0  0  0  0
  150.6426  137.2062  153.7092 H   0  0  0  0  0  0  0  0  0  0  0  0
  153.4108  138.7270  156.3741 H   0  0  0  0  0  0  0  0  0  0  0  0
  151.9977  140.7326  156.8523 H   0  0  0  0  0  0  0  0  0  0  0  0
  150.4417  143.8625  156.2546 H   0  0  0  0  0  0  0  0  0  0  0  0
  1  2  1  0  0  0  0
  1 17  1  0  0  0  0
  2  3  1  0  0  0  0
  2 11  1  0  0  0  0
  2 18  1  0  0  0  0
  3  4  1  0  0  0  0
  3 19  1  0  0  0  0
  3 20  1  0  0  0  0
  4  5  1  0  0  0  0
  4 21  1  0  0  0  0
  4 35  1  0  0  0  0
  5 10  1  0  0  0  0
  5  6  1  0  0  0  0
  5 22  1  0  0  0  0
  6  7  1  0  0  0  0
  6 23  1  0  0  0  0
  6 24  1  0  0  0  0
  7  8  1  0  0  0  0
  7 25  1  0  0  0  0
  7 26  1  0  0  0  0
  8  9  1  0  0  0  0
  8 27  1  0  0  0  0
  8 28  1  0  0  0  0
  9 10  1  0  0  0  0
 10 29  1  0  0  0  0
 10 30  1  0  0  0  0
 11 16  1  0  0  0  0
 11 12  2  0  0  0  0
 12 13  1  0  0  0  0
 12 31  1  0  0  0  0
 13 14  2  0  0  0  0
 13 32  1  0  0  0  0
 14 15  1  0  0  0  0
 15 16  2  0  0  0  0
 15 33  1  0  0  0  0
 16 34  1  0  0  0  0
M  CHG  1   4   1
M  END
> <s_m_source_file>
AV-unprocessed.smi

> <i_m_source_file_index>
2774

> <i_lp_mmshare_version>
43012

> <i_f3d_flags>
0

> <s_epik_input>
W2NIXTFbY0hdbltjSF1bY0hdYzFbQ0BIXShbT0hdKVtDSDJdW05IXVtDQEBIXTJbQ0gyXVtDSDJdW0NIMl1TW0NIMl0y

> <s_epik_cmdline>
J2VwaWtfcHl0aG9uJywgJy1waCcsICc3LjAnLCAnLXRuJywgJzgnLCAnLW1hJywgJzIwMCcsICctbWV0YWxfYmluZGluZycsICctaW1hZScsICc8aW5maWxlLm1hZT4nLCAnLW9tYWUnLCAnPG91dGZpbGUubWFlPic=

> <r_epik_Ionization_Penalty>
0.0205977

> <r_epik_Ionization_Penalty_Charging>
0.0185619

> <r_epik_Ionization_Penalty_Neutral>
0.00203589

> <r_epik_State_Penalty>
0.0147768

> <r_epik_Charging_Adjusted_Penalty>
0.0333386

> <i_epik_Tot_Q>
1

> <i_epik_Tot_abs_Q>
1

> <r_epik_Metal_State_Penalty>
0.0152254

> <b_epik_Metal_Only>
0

> <s_lp_Force_Field>
OPLS_2005

> <r_lp_Energy>
10.4363

> <b_lp_Chiralities_Consistent>
1

> <s_lp_Variant>
AV-unprocessed.smi:2774-3

> <Gold.Version>
5.8.1

> <Gold.Id.Protein>
6NUR|6NUR_protein|mol2

> <Gold.PLP.Fitness>
53.7408

> <Gold.PLP.PLP>
-43.3587

> <Gold.PLP.part.hbond>
-3.5245

> <Gold.PLP.part.metal>
0.0000

> <Gold.PLP.part.buried>
-2.9582

> <Gold.PLP.part.nonpolar>
-36.5738

> <Gold.PLP.part.repulsive>
0.1349

> <Gold.PLP.ligand.clash>
0.0000

> <Gold.PLP.ligand.torsion>
1.0605

> <Gold.PLP.Chemscore.Hbond>
3.0229

> <Gold.PLP.Chemscore.CHOScore>
1.1409

> <Gold.PLP.Chemscore.Metal>
0.0000

> <Gold.Chemscore.Hbonds>
donor molecule, donor type, donor heavy atom, donor atom, acceptor molecule, acceptor atom, score
      L1  H     1    17       P1  8028  1.00
      L1  H     4    35       P1  8028  2.00
      P1  H  8011  8017       L1     1  0.05
      L1  C    13    32       P1  7948  0.43
      L1  C    13    32       P1  7949  0.60

> <Gold.PLP.Chemscore.Internal.Correction>
0.0117

> <Gold.Rescore>
     Score         DG    S(hbond)    S(metal)    S(lipo)     H(rot)  DE(clash)    DE(int)     intcor
     20.45     -21.43       2.00        0.00     122.22       1.97       0.27       0.71       ----

> <Gold.Chemscore.Fitness>
20.4462

> <Gold.Chemscore.DG>
-21.4306

> <Gold.Chemscore.ZeroCoef>
-5.4800

> <Gold.Chemscore.Hbond>
2.0030

> <Gold.Chemscore.Metal>
0.0000

> <Gold.Chemscore.Lipo>
122.2244

> <Gold.Chemscore.Internal_Hbond>
0.0000

> <Gold.Chemscore.DEClash>
0.2698

> <Gold.Chemscore.DEInternal>
0.7146

> <Gold.Chemscore.Rot>
1.9686

> <Gold.Chemscore.Internal.Correction>
   9.000000E+99

> <Gold.Chemscore.Hbonds>
donor molecule, donor type, donor heavy atom, donor atom, acceptor molecule, acceptor atom, score
      L1  H     1    17       P1  8028  1.00
      L1  H     4    35       P1  8028  0.98
      P1  H  8011  8017       L1     1  0.03
      P1  H 10752 10763       L1    14  0.02

> <Gold.Chemscore.Hbond.Weighted>
-6.6900

> <Gold.Chemscore.Metal.Weighted>
-0.0000

> <Gold.Chemscore.Lipo.Weighted>
-14.3003

> <Gold.Chemscore.Internal_Hbond.Weighted>
0.0000

> <Gold.Chemscore.DEClash.Weighted>
0.2698

> <Gold.Chemscore.DEInternal.Weighted>
0.7146

> <Gold.Chemscore.Rot.Weighted>
5.0396

> <Gold.Chemscore.Internal.Correction.Weighted>
   9.000000E+99

> <Gold.Protein.RotatedTorsions>
[ 6907 6896 6895 6894 ] final  151.43 input  -60.11 | X-H torsion
[ 7974 7965 7964 7962 ] final  -94.62 input  175.53 | X-H torsion
[ 8008 7997 7996 7995 ] final  155.95 input   59.86 | X-H torsion
[ 10167 10162 10161 10158 ] final -146.66 input  -65.29 | X-H torsion
[ 10718 10713 10712 10709 ] final  -21.56 input   66.30 | X-H torsion
[ 10763 10752 10751 10750 ] final   61.04 input  -60.55 | X-H torsion
[ 11005 11000 10999 10996 ] final -149.21 input  -57.11 | X-H torsion

> <Gold.Protein.ActiveResidues>
 VAL166  LYS551  ARG553  GLY616  TRP617  ASP618  TYR619  PRO620  LYS621  CYS622 
 ASP623  PHE694  ASN695  SER759  ASP760  ASP761  ALA762  ILE779  LEU786  VAL792 
 PHE793  MET794  SER795  GLU796  ALA797  LYS798  CYS799  TRP800  GLU811  SER814 

> <Gold.Protein.RotatedAtoms>
  152.1008  133.4248  159.4585 H   0  0  0  0  0  0  0  0  0  0  0  0  # atno 6907 bound_to 6896
  150.6864  134.2763  159.4618 H   0  0  0  0  0  0  0  0  0  0  0  0  # atno 6908 bound_to 6896
  152.0623  134.9586  160.0625 H   0  0  0  0  0  0  0  0  0  0  0  0  # atno 6909 bound_to 6896
  145.3709  140.9505  143.2447 H   0  0  0  0  0  0  0  0  0  0  0  0  # atno 7974 bound_to 7965
  156.2450  140.1925  156.6880 H   0  0  0  0  0  0  0  0  0  0  0  0  # atno 8008 bound_to 7997
  154.6273  140.0600  156.9715 H   0  0  0  0  0  0  0  0  0  0  0  0  # atno 8009 bound_to 7997
  155.1767  140.3273  155.4385 H   0  0  0  0  0  0  0  0  0  0  0  0  # atno 8010 bound_to 7997
  139.7693  143.8261  152.2621 H   0  0  0  0  0  0  0  0  0  0  0  0  # atno 10167 bound_to 10162
  156.5165  130.4622  149.6620 H   0  0  0  0  0  0  0  0  0  0  0  0  # atno 10718 bound_to 10713
  152.9938  135.5515  154.5970 H   0  0  0  0  0  0  0  0  0  0  0  0  # atno 10763 bound_to 10752
  154.5319  135.2814  155.1174 H   0  0  0  0  0  0  0  0  0  0  0  0  # atno 10764 bound_to 10752
  154.2486  135.6403  153.5285 H   0  0  0  0  0  0  0  0  0  0  0  0  # atno 10765 bound_to 10752
  140.7531  134.3383  157.5121 H   0  0  0  0  0  0  0  0  0  0  0  0  # atno 11005 bound_to 11000
  144.8577  139.5225  143.6827 LP  0  0  0  0  0  0  0  0  0  0  0  0  # atno 17320 bound_to 7965
  146.2885  139.7073  142.9178 LP  0  0  0  0  0  0  0  0  0  0  0  0  # atno 17321 bound_to 7965
  139.8291  144.7262  150.9474 LP  0  0  0  0  0  0  0  0  0  0  0  0  # atno 17342 bound_to 10162
  140.7813  143.4087  151.1029 LP  0  0  0  0  0  0  0  0  0  0  0  0  # atno 17343 bound_to 10162
  156.3190  130.7270  151.2178 LP  0  0  0  0  0  0  0  0  0  0  0  0  # atno 17370 bound_to 10713
  157.7443  131.0460  150.4874 LP  0  0  0  0  0  0  0  0  0  0  0  0  # atno 17371 bound_to 10713
  139.8784  134.9155  156.3132 LP  0  0  0  0  0  0  0  0  0  0  0  0  # atno 17394 bound_to 11000
  140.9732  133.7314  156.0564 LP  0  0  0  0  0  0  0  0  0  0  0  0  # atno 17395 bound_to 11000

$$$$
