AV-unprocessed.smi:3113|AV-procd|sdf|11854|dock10
  -GOLD-   2272017233D 1   1.00000     0.00000
 Structure written by MMmdl.
 34 35  0  0  0  0  0  0  0  0  1 V2000
  152.3379  143.2910  162.0437 C   0  0  0  0  0  0  0  0  0  0  0  0
  152.9836  142.0898  161.6374 C   0  0  0  0  0  0  0  0  0  0  0  0
  153.0462  141.9641  160.3216 N   0  0  0  0  0  0  0  0  0  0  0  0
  152.4437  143.0757  159.8464 N   0  0  0  0  0  0  0  0  0  0  0  0
  152.3245  143.2744  158.4151 C   0  0  0  0  0  0  0  0  0  0  0  0
  150.8579  143.4264  157.9884 C   0  0  0  0  0  0  0  0  0  0  0  0
  150.3577  142.1982  157.3811 N   0  0  0  0  0  0  0  0  0  0  0  0
  151.0942  141.8072  156.1837 C   0  0  0  0  0  0  0  0  0  0  0  0
  150.9147  140.3115  155.8862 C   0  0  2  0  0  0  0  0  0  0  0  0
  152.2241  139.5288  156.1037 C   0  0  0  0  0  0  0  0  0  0  0  0
  152.0444  138.0572  155.7138 C   0  0  0  0  0  0  0  0  0  0  0  0
  151.4905  137.9646  154.2881 C   0  0  0  0  0  0  0  0  0  0  0  0
  150.2289  138.8311  154.1480 C   0  0  0  0  0  0  0  0  0  0  0  0
  150.5193  140.1746  154.5221 O   0  0  0  0  0  0  0  0  0  0  0  0
  152.0074  143.8962  160.8649 C   0  0  0  0  0  0  0  0  0  0  0  0
  152.1475  143.6510  163.0440 H   0  0  0  0  0  0  0  0  0  0  0  0
  153.4054  141.3109  162.2554 H   0  0  0  0  0  0  0  0  0  0  0  0
  152.8948  144.1626  158.1401 H   0  0  0  0  0  0  0  0  0  0  0  0
  152.7886  142.4284  157.9055 H   0  0  0  0  0  0  0  0  0  0  0  0
  150.2509  143.6844  158.8572 H   0  0  0  0  0  0  0  0  0  0  0  0
  150.7652  144.2539  157.2839 H   0  0  0  0  0  0  0  0  0  0  0  0
  149.3743  142.3049  157.1528 H   0  0  0  0  0  0  0  0  0  0  0  0
  150.7720  142.3966  155.3243 H   0  0  0  0  0  0  0  0  0  0  0  0
  152.1534  142.0222  156.3297 H   0  0  0  0  0  0  0  0  0  0  0  0
  150.1398  139.9029  156.5381 H   0  0  0  0  0  0  0  0  0  0  0  0
  153.0214  139.9705  155.5042 H   0  0  0  0  0  0  0  0  0  0  0  0
  152.5396  139.6005  157.1452 H   0  0  0  0  0  0  0  0  0  0  0  0
  152.9921  137.5240  155.7906 H   0  0  0  0  0  0  0  0  0  0  0  0
  151.3552  137.5752  156.4083 H   0  0  0  0  0  0  0  0  0  0  0  0
  152.2458  138.3048  153.5788 H   0  0  0  0  0  0  0  0  0  0  0  0
  151.2678  136.9275  154.0361 H   0  0  0  0  0  0  0  0  0  0  0  0
  149.8804  138.8209  153.1153 H   0  0  0  0  0  0  0  0  0  0  0  0
  149.4165  138.4392  154.7618 H   0  0  0  0  0  0  0  0  0  0  0  0
  151.5025  144.8307  160.6685 H   0  0  0  0  0  0  0  0  0  0  0  0
  1 15  2  0  0  0  0
  1  2  1  0  0  0  0
  1 16  1  0  0  0  0
  2  3  2  0  0  0  0
  2 17  1  0  0  0  0
  3  4  1  0  0  0  0
  4  5  1  0  0  0  0
  4 15  1  0  0  0  0
  5  6  1  0  0  0  0
  5 18  1  0  0  0  0
  5 19  1  0  0  0  0
  6  7  1  0  0  0  0
  6 20  1  0  0  0  0
  6 21  1  0  0  0  0
  7  8  1  0  0  0  0
  7 22  1  0  0  0  0
  8  9  1  0  0  0  0
  8 23  1  0  0  0  0
  8 24  1  0  0  0  0
  9 14  1  0  0  0  0
  9 10  1  0  0  0  0
  9 25  1  0  0  0  0
 10 11  1  0  0  0  0
 10 26  1  0  0  0  0
 10 27  1  0  0  0  0
 11 12  1  0  0  0  0
 11 28  1  0  0  0  0
 11 29  1  0  0  0  0
 12 13  1  0  0  0  0
 12 30  1  0  0  0  0
 12 31  1  0  0  0  0
 13 14  1  0  0  0  0
 13 32  1  0  0  0  0
 13 33  1  0  0  0  0
 15 34  1  0  0  0  0
M  END
> <s_m_source_file>
AV-unprocessed.smi

> <i_m_source_file_index>
3113

> <i_lp_mmshare_version>
43012

> <i_f3d_flags>
0

> <s_epik_input>
W2NIXTFbY0hdW2NIXW5uMVtDSDJdW0NIMl1bTkhdW0NIMl1bQ0BASF0yW0NIMl1bQ0gyXVtDSDJdW0NIMl1PMg==

> <s_epik_cmdline>
J2VwaWtfcHl0aG9uJywgJy1waCcsICc3LjAnLCAnLXRuJywgJzgnLCAnLW1hJywgJzIwMCcsICctbWV0YWxfYmluZGluZycsICctaW1hZScsICc8aW5maWxlLm1hZT4nLCAnLW9tYWUnLCAnPG91dGZpbGUubWFlPic=

> <r_lp_tautomer_probability>
1

> <r_epik_Ionization_Penalty>
2.521

> <r_epik_Ionization_Penalty_Charging>
0

> <r_epik_Ionization_Penalty_Neutral>
2.521

> <r_epik_State_Penalty>
2.68614

> <r_epik_Charging_Adjusted_Penalty>
2.68614

> <i_epik_Tot_Q>
0

> <i_epik_Tot_abs_Q>
0

> <r_epik_Metal_State_Penalty>
2.68493

> <b_epik_Metal_Only>
0

> <s_lp_Force_Field>
OPLS_2005

> <r_lp_Energy>
11.6104

> <b_lp_Chiralities_Consistent>
1

> <s_lp_Variant>
AV-unprocessed.smi:3113-3

> <Gold.Version>
5.8.1

> <Gold.Id.Protein>
6NUR|6NUR_protein|mol2

> <Gold.PLP.Fitness>
40.9413

> <Gold.PLP.PLP>
-40.1610

> <Gold.PLP.part.hbond>
-1.0000

> <Gold.PLP.part.metal>
0.0000

> <Gold.PLP.part.buried>
-5.0647

> <Gold.PLP.part.nonpolar>
-33.3248

> <Gold.PLP.part.repulsive>
0.0918

> <Gold.PLP.ligand.clash>
0.0000

> <Gold.PLP.ligand.torsion>
1.1222

> <Gold.PLP.Chemscore.Hbond>
1.0000

> <Gold.PLP.Chemscore.CHOScore>
0.0000

> <Gold.PLP.Chemscore.Metal>
0.0000

> <Gold.Chemscore.Hbonds>
donor molecule, donor type, donor heavy atom, donor atom, acceptor molecule, acceptor atom, score
      P1  H  7989  7998       L1    14  1.00

> <Gold.PLP.Chemscore.Internal.Correction>
0.0246

> <Gold.Rescore>
     Score         DG    S(hbond)    S(metal)    S(lipo)     H(rot)  DE(clash)    DE(int)     intcor
     15.24     -15.97       0.96        0.00      97.67       1.62       0.07       0.67       ----

> <Gold.Chemscore.Fitness>
15.2396

> <Gold.Chemscore.DG>
-15.9720

> <Gold.Chemscore.ZeroCoef>
-5.4800

> <Gold.Chemscore.Hbond>
0.9626

> <Gold.Chemscore.Metal>
0.0000

> <Gold.Chemscore.Lipo>
97.6714

> <Gold.Chemscore.Internal_Hbond>
0.0000

> <Gold.Chemscore.DEClash>
0.0664

> <Gold.Chemscore.DEInternal>
0.6661

> <Gold.Chemscore.Rot>
1.6213

> <Gold.Chemscore.Internal.Correction>
   9.000000E+99

> <Gold.Chemscore.Hbonds>
donor molecule, donor type, donor heavy atom, donor atom, acceptor molecule, acceptor atom, score
      P1  H  7989  7998       L1    14  0.67

> <Gold.Chemscore.Hbond.Weighted>
-3.2150

> <Gold.Chemscore.Metal.Weighted>
-0.0000

> <Gold.Chemscore.Lipo.Weighted>
-11.4276

> <Gold.Chemscore.Internal_Hbond.Weighted>
0.0000

> <Gold.Chemscore.DEClash.Weighted>
0.0664

> <Gold.Chemscore.DEInternal.Weighted>
0.6661

> <Gold.Chemscore.Rot.Weighted>
4.1505

> <Gold.Chemscore.Internal.Correction.Weighted>
   9.000000E+99

> <Gold.Protein.RotatedTorsions>
[ 6907 6896 6895 6894 ] final   16.58 input  -60.11 | X-H torsion
[ 7974 7965 7964 7962 ] final   83.37 input  175.53 | X-H torsion
[ 8008 7997 7996 7995 ] final -132.20 input   59.86 | X-H torsion
[ 10167 10162 10161 10158 ] final -175.51 input  -65.29 | X-H torsion
[ 10718 10713 10712 10709 ] final  141.55 input   66.30 | X-H torsion
[ 10763 10752 10751 10750 ] final   46.81 input  -60.55 | X-H torsion
[ 11005 11000 10999 10996 ] final   10.65 input  -57.11 | X-H torsion

> <Gold.Protein.ActiveResidues>
 VAL166  LYS551  ARG553  GLY616  TRP617  ASP618  TYR619  PRO620  LYS621  CYS622 
 ASP623  PHE694  ASN695  SER759  ASP760  ASP761  ALA762  ILE779  LEU786  VAL792 
 PHE793  MET794  SER795  GLU796  ALA797  LYS798  CYS799  TRP800  GLU811  SER814 

> <Gold.Protein.RotatedAtoms>
  151.8361  135.0605  160.0442 H   0  0  0  0  0  0  0  0  0  0  0  0  # atno 6907 bound_to 6896
  152.2844  133.5496  159.5526 H   0  0  0  0  0  0  0  0  0  0  0  0  # atno 6908 bound_to 6896
  150.7203  134.0435  159.3816 H   0  0  0  0  0  0  0  0  0  0  0  0  # atno 6909 bound_to 6896
  145.6128  139.2371  143.2183 H   0  0  0  0  0  0  0  0  0  0  0  0  # atno 7974 bound_to 7965
  155.3249  140.0464  157.3040 H   0  0  0  0  0  0  0  0  0  0  0  0  # atno 8008 bound_to 7997
  154.5359  140.2272  155.8689 H   0  0  0  0  0  0  0  0  0  0  0  0  # atno 8009 bound_to 7997
  156.1835  140.3068  155.9199 H   0  0  0  0  0  0  0  0  0  0  0  0  # atno 8010 bound_to 7997
  139.5577  144.1947  152.1187 H   0  0  0  0  0  0  0  0  0  0  0  0  # atno 10167 bound_to 10162
  157.3907  131.1004  151.0649 H   0  0  0  0  0  0  0  0  0  0  0  0  # atno 10718 bound_to 10713
  152.9806  135.5996  154.3661 H   0  0  0  0  0  0  0  0  0  0  0  0  # atno 10763 bound_to 10752
  154.3338  135.2768  155.2460 H   0  0  0  0  0  0  0  0  0  0  0  0  # atno 10764 bound_to 10752
  154.4572  135.5975  153.6286 H   0  0  0  0  0  0  0  0  0  0  0  0  # atno 10765 bound_to 10752
  140.5120  134.0642  155.7821 H   0  0  0  0  0  0  0  0  0  0  0  0  # atno 11005 bound_to 11000
  146.1491  140.6950  142.9330 LP  0  0  0  0  0  0  0  0  0  0  0  0  # atno 17320 bound_to 7965
  144.7263  140.4534  143.6971 LP  0  0  0  0  0  0  0  0  0  0  0  0  # atno 17321 bound_to 7965
  140.1455  144.5163  150.6718 LP  0  0  0  0  0  0  0  0  0  0  0  0  # atno 17342 bound_to 10162
  140.6852  143.2346  151.5278 LP  0  0  0  0  0  0  0  0  0  0  0  0  # atno 17343 bound_to 10162
  157.1683  130.6256  149.5632 LP  0  0  0  0  0  0  0  0  0  0  0  0  # atno 17370 bound_to 10713
  155.9798  130.4793  150.6734 LP  0  0  0  0  0  0  0  0  0  0  0  0  # atno 17371 bound_to 10713
  141.1380  133.9188  157.2390 LP  0  0  0  0  0  0  0  0  0  0  0  0  # atno 17394 bound_to 11000
  139.9653  135.0143  156.9371 LP  0  0  0  0  0  0  0  0  0  0  0  0  # atno 17395 bound_to 11000

$$$$
