AV-unprocessed.smi:2757|AV-procd|sdf|10621|dock1
  -GOLD-   2272015 63D 1   1.00000     0.00000
 Structure written by MMmdl.
 32 33  0  0  0  0  0  0  0  0  2 V2000
  150.2239  136.2934  155.2457 C   0  0  0  0  0  0  0  0  0  0  0  0
  149.1677  135.5963  154.5284 N   0  0  0  0  0  0  0  0  0  0  0  0
  148.1842  134.9017  155.1193 C   0  0  0  0  0  0  0  0  0  0  0  0
  148.0737  134.7771  156.3395 O   0  0  0  0  0  0  0  0  0  0  0  0
  147.1899  134.2832  154.1808 C   0  0  0  0  0  0  0  0  0  0  0  0
  146.1461  133.4454  154.6721 C   0  0  0  0  0  0  0  0  0  0  0  0
  145.4578  133.0842  153.5497 C   0  0  0  0  0  0  0  0  0  0  0  0
  146.0775  133.6841  152.4736 N   0  0  0  0  0  0  0  0  0  0  0  0
  145.7161  133.5990  151.0665 C   0  0  1  0  0  0  0  0  0  0  0  0
  145.9445  132.1812  150.5039 C   0  0  0  0  0  0  0  0  0  0  0  0
  145.5358  132.1225  149.0242 C   0  0  0  0  0  0  0  0  0  0  0  0
  144.0877  132.6052  148.8345 C   0  0  0  0  0  0  0  0  0  0  0  0
  143.9098  133.9635  149.3933 N   0  3  0  0  0  0  0  0  0  0  0  0
  144.2585  134.0480  150.8288 C   0  0  0  0  0  0  0  0  0  0  0  0
  147.1459  134.4161  152.8614 N   0  0  0  0  0  0  0  0  0  0  0  0
  150.9153  136.7506  154.5378 H   0  0  0  0  0  0  0  0  0  0  0  0
  150.7872  135.6043  155.8764 H   0  0  0  0  0  0  0  0  0  0  0  0
  149.8089  137.0818  155.8747 H   0  0  0  0  0  0  0  0  0  0  0  0
  149.1761  135.6488  153.5201 H   0  0  0  0  0  0  0  0  0  0  0  0
  145.9324  133.1559  155.6906 H   0  0  0  0  0  0  0  0  0  0  0  0
  144.5866  132.4569  153.4308 H   0  0  0  0  0  0  0  0  0  0  0  0
  146.3723  134.2842  150.5270 H   0  0  0  0  0  0  0  0  0  0  0  0
  146.9910  131.8948  150.6134 H   0  0  0  0  0  0  0  0  0  0  0  0
  145.3611  131.4512  151.0667 H   0  0  0  0  0  0  0  0  0  0  0  0
  146.2109  132.7425  148.4329 H   0  0  0  0  0  0  0  0  0  0  0  0
  145.6420  131.1042  148.6487 H   0  0  0  0  0  0  0  0  0  0  0  0
  143.8288  132.6185  147.7755 H   0  0  0  0  0  0  0  0  0  0  0  0
  143.3927  131.9222  149.3247 H   0  0  0  0  0  0  0  0  0  0  0  0
  144.5012  134.6022  148.8808 H   0  0  0  0  0  0  0  0  0  0  0  0
  143.5626  133.4286  151.3967 H   0  0  0  0  0  0  0  0  0  0  0  0
  144.1174  135.0754  151.1657 H   0  0  0  0  0  0  0  0  0  0  0  0
  142.9469  134.2436  149.2731 H   0  0  0  0  0  0  0  0  0  0  0  0
  1  2  1  0  0  0  0
  1 16  1  0  0  0  0
  1 17  1  0  0  0  0
  1 18  1  0  0  0  0
  2  3  1  0  0  0  0
  2 19  1  0  0  0  0
  3  4  2  0  0  0  0
  3  5  1  0  0  0  0
  5 15  2  0  0  0  0
  5  6  1  0  0  0  0
  6  7  2  0  0  0  0
  6 20  1  0  0  0  0
  7  8  1  0  0  0  0
  7 21  1  0  0  0  0
  8  9  1  0  0  0  0
  8 15  1  0  0  0  0
  9 14  1  0  0  0  0
  9 10  1  0  0  0  0
  9 22  1  0  0  0  0
 10 11  1  0  0  0  0
 10 23  1  0  0  0  0
 10 24  1  0  0  0  0
 11 12  1  0  0  0  0
 11 25  1  0  0  0  0
 11 26  1  0  0  0  0
 12 13  1  0  0  0  0
 12 27  1  0  0  0  0
 12 28  1  0  0  0  0
 13 14  1  0  0  0  0
 13 29  1  0  0  0  0
 13 32  1  0  0  0  0
 14 30  1  0  0  0  0
 14 31  1  0  0  0  0
M  CHG  1  13   1
M  END
> <s_m_source_file>
AV-unprocessed.smi

> <i_m_source_file_index>
2757

> <i_lp_mmshare_version>
43012

> <i_f3d_flags>
0

> <s_epik_input>
W0NIM11bTkhdQyg9TyljMVtjSF1bY0hdbihuMSlbQ0BASF0yW0NIMl1bQ0gyXVtDSDJdW05IXVtDSDJdMg==

> <s_epik_cmdline>
J2VwaWtfcHl0aG9uJywgJy1waCcsICc3LjAnLCAnLXRuJywgJzgnLCAnLW1hJywgJzIwMCcsICctbWV0YWxfYmluZGluZycsICctaW1hZScsICc8aW5maWxlLm1hZT4nLCAnLW9tYWUnLCAnPG91dGZpbGUubWFlPic=

> <r_lp_tautomer_probability>
1

> <r_epik_Ionization_Penalty>
0.000652722

> <r_epik_Ionization_Penalty_Charging>
0.000651447

> <r_epik_Ionization_Penalty_Neutral>
1.27533e-06

> <r_epik_State_Penalty>
0.000412577

> <r_epik_Charging_Adjusted_Penalty>
0.00106402

> <i_epik_Tot_Q>
1

> <i_epik_Tot_abs_Q>
1

> <r_epik_Metal_State_Penalty>
-0

> <b_epik_Metal_Only>
0

> <s_lp_Force_Field>
OPLS_2005

> <r_lp_Energy>
20.0976

> <b_lp_Chiralities_Consistent>
1

> <s_lp_Variant>
AV-unprocessed.smi:2757-2

> <Gold.Version>
5.8.1

> <Gold.Id.Protein>
6NUR|6NUR_protein|mol2

> <Gold.PLP.Fitness>
36.4051

> <Gold.PLP.PLP>
-21.5549

> <Gold.PLP.part.hbond>
-3.0000

> <Gold.PLP.part.metal>
0.0000

> <Gold.PLP.part.buried>
-3.1183

> <Gold.PLP.part.nonpolar>
-17.4004

> <Gold.PLP.part.repulsive>
2.7450

> <Gold.PLP.ligand.clash>
0.0000

> <Gold.PLP.ligand.torsion>
0.0844

> <Gold.PLP.Chemscore.Hbond>
4.0000

> <Gold.PLP.Chemscore.CHOScore>
1.0000

> <Gold.PLP.Chemscore.Metal>
0.0000

> <Gold.Chemscore.Hbonds>
donor molecule, donor type, donor heavy atom, donor atom, acceptor molecule, acceptor atom, score
      L1  H     2    19       P1  7948  1.00
      L1  H    13    29       P1  7921  0.86
      L1  H    13    32       P1 10186  2.00
      L1  C     7    21       P1 10957  0.91

> <Gold.PLP.Chemscore.Internal.Correction>
0.0190

> <Gold.Rescore>
     Score         DG    S(hbond)    S(metal)    S(lipo)     H(rot)  DE(clash)    DE(int)     intcor
     18.13     -19.53       2.85        0.00      60.59       1.00       1.31       0.10       ----

> <Gold.Chemscore.Fitness>
18.1302

> <Gold.Chemscore.DG>
-19.5337

> <Gold.Chemscore.ZeroCoef>
-5.4800

> <Gold.Chemscore.Hbond>
2.8518

> <Gold.Chemscore.Metal>
0.0000

> <Gold.Chemscore.Lipo>
60.5872

> <Gold.Chemscore.Internal_Hbond>
0.0000

> <Gold.Chemscore.DEClash>
1.3061

> <Gold.Chemscore.DEInternal>
0.0974

> <Gold.Chemscore.Rot>
1.0000

> <Gold.Chemscore.Internal.Correction>
   9.000000E+99

> <Gold.Chemscore.Hbonds>
donor molecule, donor type, donor heavy atom, donor atom, acceptor molecule, acceptor atom, score
      L1  H     2    19       P1  7948  0.60
      L1  H    13    29       P1  7921  0.81
      L1  H    13    32       P1 10186  0.98

> <Gold.Chemscore.Hbond.Weighted>
-9.5250

> <Gold.Chemscore.Metal.Weighted>
-0.0000

> <Gold.Chemscore.Lipo.Weighted>
-7.0887

> <Gold.Chemscore.Internal_Hbond.Weighted>
0.0000

> <Gold.Chemscore.DEClash.Weighted>
1.3061

> <Gold.Chemscore.DEInternal.Weighted>
0.0974

> <Gold.Chemscore.Rot.Weighted>
2.5600

> <Gold.Chemscore.Internal.Correction.Weighted>
   9.000000E+99

> <Gold.Protein.RotatedTorsions>
[ 6907 6896 6895 6894 ] final   98.83 input  -60.11 | X-H torsion
[ 7974 7965 7964 7962 ] final   27.12 input  175.53 | X-H torsion
[ 8008 7997 7996 7995 ] final   61.21 input   59.86 | X-H torsion
[ 10167 10162 10161 10158 ] final  167.08 input  -65.29 | X-H torsion
[ 10718 10713 10712 10709 ] final -145.32 input   66.30 | X-H torsion
[ 10763 10752 10751 10750 ] final   18.85 input  -60.55 | X-H torsion
[ 11005 11000 10999 10996 ] final   23.18 input  -57.11 | X-H torsion

> <Gold.Protein.ActiveResidues>
 VAL166  LYS551  ARG553  GLY616  TRP617  ASP618  TYR619  PRO620  LYS621  CYS622 
 ASP623  PHE694  ASN695  SER759  ASP760  ASP761  ALA762  ILE779  LEU786  VAL792 
 PHE793  MET794  SER795  GLU796  ALA797  LYS798  CYS799  TRP800  GLU811  SER814 

> <Gold.Protein.RotatedAtoms>
  152.5403  134.0521  159.8114 H   0  0  0  0  0  0  0  0  0  0  0  0  # atno 6907 bound_to 6896
  151.0661  133.5496  159.2638 H   0  0  0  0  0  0  0  0  0  0  0  0  # atno 6908 bound_to 6896
  151.2377  135.0585  159.9066 H   0  0  0  0  0  0  0  0  0  0  0  0  # atno 6909 bound_to 6896
  146.1801  139.7235  142.8906 H   0  0  0  0  0  0  0  0  0  0  0  0  # atno 7974 bound_to 7965
  155.5948  140.3493  155.4576 H   0  0  0  0  0  0  0  0  0  0  0  0  # atno 8008 bound_to 7997
  156.0274  140.1267  157.0319 H   0  0  0  0  0  0  0  0  0  0  0  0  # atno 8009 bound_to 7997
  154.4338  140.1050  156.6036 H   0  0  0  0  0  0  0  0  0  0  0  0  # atno 8010 bound_to 7997
  139.4938  144.3960  151.9464 H   0  0  0  0  0  0  0  0  0  0  0  0  # atno 10167 bound_to 10162
  156.3810  130.7837  151.2029 H   0  0  0  0  0  0  0  0  0  0  0  0  # atno 10718 bound_to 10713
  153.1213  135.6719  153.9331 H   0  0  0  0  0  0  0  0  0  0  0  0  # atno 10763 bound_to 10752
  153.8846  135.3054  155.3447 H   0  0  0  0  0  0  0  0  0  0  0  0  # atno 10764 bound_to 10752
  154.7624  135.4981  153.9568 H   0  0  0  0  0  0  0  0  0  0  0  0  # atno 10765 bound_to 10752
  140.3724  134.2008  155.7666 H   0  0  0  0  0  0  0  0  0  0  0  0  # atno 11005 bound_to 11000
  145.4100  141.0395  143.3022 LP  0  0  0  0  0  0  0  0  0  0  0  0  # atno 17320 bound_to 7965
  144.8301  139.5643  143.6947 LP  0  0  0  0  0  0  0  0  0  0  0  0  # atno 17321 bound_to 7965
  140.3398  144.3217  150.5969 LP  0  0  0  0  0  0  0  0  0  0  0  0  # atno 17342 bound_to 10162
  140.5575  143.2197  151.7822 LP  0  0  0  0  0  0  0  0  0  0  0  0  # atno 17343 bound_to 10162
  157.7492  131.0344  150.4315 LP  0  0  0  0  0  0  0  0  0  0  0  0  # atno 17370 bound_to 10713
  156.4559  130.4021  149.6606 LP  0  0  0  0  0  0  0  0  0  0  0  0  # atno 17371 bound_to 10713
  141.1950  133.8115  157.0733 LP  0  0  0  0  0  0  0  0  0  0  0  0  # atno 17394 bound_to 11000
  140.0541  134.9790  157.1189 LP  0  0  0  0  0  0  0  0  0  0  0  0  # atno 17395 bound_to 11000

$$$$
