AV-unprocessed.smi:1538|AV-procd|sdf|6194|dock1
  -GOLD-   22720 6363D 1   1.00000     0.00000
 Structure written by MMmdl.
 36 37  0  0  0  0  0  0  0  0  1 V2000
  145.4892  143.7197  153.8207 C   0  0  0  0  0  0  0  0  0  0  0  0
  146.1819  142.4626  154.1090 N   0  0  0  0  0  0  0  0  0  0  0  0
  147.0172  141.9518  153.0150 C   0  0  0  0  0  0  0  0  0  0  0  0
  147.3250  140.4539  153.1417 C   0  0  0  0  0  0  0  0  0  0  0  0
  147.8140  140.0917  154.5514 C   0  0  1  0  0  0  0  0  0  0  0  0
  149.2425  140.5943  154.8206 C   0  0  0  0  0  0  0  0  0  0  0  0
  150.1963  140.1249  154.1990 O   0  0  0  0  0  0  0  0  0  0  0  0
  149.3761  141.5389  155.7651 N   0  0  0  0  0  0  0  0  0  0  0  0
  150.6476  142.0705  156.2481 C   0  0  0  0  0  0  0  0  0  0  0  0
  150.8379  141.8178  157.7559 C   0  0  0  0  0  0  0  0  0  0  0  0
  151.4415  142.9464  158.4412 N   0  0  0  0  0  0  0  0  0  0  0  0
  151.3730  144.2843  158.0762 C   0  0  0  0  0  0  0  0  0  0  0  0
  152.1059  144.9838  159.0084 C   0  0  0  0  0  0  0  0  0  0  0  0
  152.6243  144.1032  159.9550 N   0  0  0  0  0  0  0  0  0  0  0  0
  152.1856  142.9166  159.5558 C   0  0  0  0  0  0  0  0  0  0  0  0
  146.8091  140.5629  155.6276 C   0  0  0  0  0  0  0  0  0  0  0  0
  146.0716  141.8830  155.3293 C   0  0  0  0  0  0  0  0  0  0  0  0
  145.3804  142.3673  156.2262 O   0  0  0  0  0  0  0  0  0  0  0  0
  145.7180  144.4730  154.5764 H   0  0  0  0  0  0  0  0  0  0  0  0
  144.4096  143.5650  153.8076 H   0  0  0  0  0  0  0  0  0  0  0  0
  145.7772  144.1369  152.8552 H   0  0  0  0  0  0  0  0  0  0  0  0
  146.5275  142.1278  152.0563 H   0  0  0  0  0  0  0  0  0  0  0  0
  147.9437  142.5268  152.9952 H   0  0  0  0  0  0  0  0  0  0  0  0
  146.4223  139.8826  152.9209 H   0  0  0  0  0  0  0  0  0  0  0  0
  148.0592  140.1603  152.3900 H   0  0  0  0  0  0  0  0  0  0  0  0
  147.8535  139.0025  154.6095 H   0  0  0  0  0  0  0  0  0  0  0  0
  148.5394  141.8767  156.2182 H   0  0  0  0  0  0  0  0  0  0  0  0
  151.4876  141.6653  155.6814 H   0  0  0  0  0  0  0  0  0  0  0  0
  150.6480  143.1444  156.0613 H   0  0  0  0  0  0  0  0  0  0  0  0
  149.8732  141.6165  158.2226 H   0  0  0  0  0  0  0  0  0  0  0  0
  151.4550  140.9331  157.9191 H   0  0  0  0  0  0  0  0  0  0  0  0
  150.8317  144.6173  157.2029 H   0  0  0  0  0  0  0  0  0  0  0  0
  152.2981  146.0447  159.0703 H   0  0  0  0  0  0  0  0  0  0  0  0
  152.4210  142.0024  160.0806 H   0  0  0  0  0  0  0  0  0  0  0  0
  146.0419  139.7966  155.7441 H   0  0  0  0  0  0  0  0  0  0  0  0
  147.2921  140.6417  156.6030 H   0  0  0  0  0  0  0  0  0  0  0  0
  1  2  1  0  0  0  0
  1 19  1  0  0  0  0
  1 20  1  0  0  0  0
  1 21  1  0  0  0  0
  2 17  1  0  0  0  0
  2  3  1  0  0  0  0
  3  4  1  0  0  0  0
  3 22  1  0  0  0  0
  3 23  1  0  0  0  0
  4  5  1  0  0  0  0
  4 24  1  0  0  0  0
  4 25  1  0  0  0  0
  5  6  1  0  0  0  0
  5 16  1  0  0  0  0
  5 26  1  0  0  0  0
  6  7  2  0  0  0  0
  6  8  1  0  0  0  0
  8  9  1  0  0  0  0
  8 27  1  0  0  0  0
  9 10  1  0  0  0  0
  9 28  1  0  0  0  0
  9 29  1  0  0  0  0
 10 11  1  0  0  0  0
 10 30  1  0  0  0  0
 10 31  1  0  0  0  0
 11 15  1  0  0  0  0
 11 12  1  0  0  0  0
 12 13  2  0  0  0  0
 12 32  1  0  0  0  0
 13 14  1  0  0  0  0
 13 33  1  0  0  0  0
 14 15  2  0  0  0  0
 15 34  1  0  0  0  0
 16 17  1  0  0  0  0
 16 35  1  0  0  0  0
 16 36  1  0  0  0  0
 17 18  2  0  0  0  0
M  END
> <s_m_source_file>
AV-unprocessed.smi

> <i_m_source_file_index>
1538

> <i_lp_mmshare_version>
43012

> <i_f3d_flags>
0

> <s_epik_input>
W0NIM11OMVtDSDJdW0NIMl1bQ0BIXShbQ0gyXUMxPU8pQyg9TylbTkhdW0NIMl1bQ0gyXW4yW2NIXVtjSF1uW2NIXTI=

> <s_epik_cmdline>
J2VwaWtfcHl0aG9uJywgJy1waCcsICc3LjAnLCAnLXRuJywgJzgnLCAnLW1hJywgJzIwMCcsICctbWV0YWxfYmluZGluZycsICctaW1hZScsICc8aW5maWxlLm1hZT4nLCAnLW9tYWUnLCAnPG91dGZpbGUubWFlPic=

> <r_lp_tautomer_probability>
1

> <r_epik_Ionization_Penalty>
0.590576

> <r_epik_Ionization_Penalty_Charging>
0.590576

> <r_epik_Ionization_Penalty_Neutral>
2.97775e-08

> <r_epik_State_Penalty>
0.604111

> <r_epik_Charging_Adjusted_Penalty>
1.19469

> <i_epik_Tot_Q>
0

> <i_epik_Tot_abs_Q>
0

> <r_epik_Metal_State_Penalty>
0.298544

> <b_epik_Metal_Only>
0

> <s_lp_Force_Field>
OPLS_2005

> <r_lp_Energy>
13.4422

> <b_lp_Chiralities_Consistent>
1

> <s_lp_Variant>
AV-unprocessed.smi:1538-3

> <Gold.Version>
5.8.1

> <Gold.Id.Protein>
6NUR|6NUR_protein|mol2

> <Gold.PLP.Fitness>
41.1583

> <Gold.PLP.PLP>
-36.7423

> <Gold.PLP.part.hbond>
-1.3801

> <Gold.PLP.part.metal>
0.0000

> <Gold.PLP.part.buried>
-5.3181

> <Gold.PLP.part.nonpolar>
-30.4874

> <Gold.PLP.part.repulsive>
0.6686

> <Gold.PLP.ligand.clash>
0.0123

> <Gold.PLP.ligand.torsion>
0.8140

> <Gold.PLP.Chemscore.Hbond>
1.0000

> <Gold.PLP.Chemscore.CHOScore>
1.0000

> <Gold.PLP.Chemscore.Metal>
0.0000

> <Gold.Chemscore.Hbonds>
donor molecule, donor type, donor heavy atom, donor atom, acceptor molecule, acceptor atom, score
      P1  H  7989  7998       L1     7  1.00
      L1  C    12    32       P1  8028  1.00

> <Gold.PLP.Chemscore.Internal.Correction>
0.0563

> <Gold.Rescore>
     Score         DG    S(hbond)    S(metal)    S(lipo)     H(rot)  DE(clash)    DE(int)     intcor
      9.61     -11.88       0.99        0.00      69.68       1.98       1.74       0.54       ----

> <Gold.Chemscore.Fitness>
9.6081

> <Gold.Chemscore.DG>
-11.8821

> <Gold.Chemscore.ZeroCoef>
-5.4800

> <Gold.Chemscore.Hbond>
0.9921

> <Gold.Chemscore.Metal>
0.0000

> <Gold.Chemscore.Lipo>
69.6810

> <Gold.Chemscore.Internal_Hbond>
0.0000

> <Gold.Chemscore.DEClash>
1.7357

> <Gold.Chemscore.DEInternal>
0.5383

> <Gold.Chemscore.Rot>
1.9782

> <Gold.Chemscore.Internal.Correction>
   9.000000E+99

> <Gold.Chemscore.Hbonds>
donor molecule, donor type, donor heavy atom, donor atom, acceptor molecule, acceptor atom, score
      P1  H  7989  7998       L1     7  0.94

> <Gold.Chemscore.Hbond.Weighted>
-3.3137

> <Gold.Chemscore.Metal.Weighted>
-0.0000

> <Gold.Chemscore.Lipo.Weighted>
-8.1527

> <Gold.Chemscore.Internal_Hbond.Weighted>
0.0000

> <Gold.Chemscore.DEClash.Weighted>
1.7357

> <Gold.Chemscore.DEInternal.Weighted>
0.5383

> <Gold.Chemscore.Rot.Weighted>
5.0643

> <Gold.Chemscore.Internal.Correction.Weighted>
   9.000000E+99

> <Gold.Protein.RotatedTorsions>
[ 6907 6896 6895 6894 ] final  -14.10 input  -60.11 | X-H torsion
[ 7974 7965 7964 7962 ] final   51.76 input  175.53 | X-H torsion
[ 8008 7997 7996 7995 ] final    2.01 input   59.86 | X-H torsion
[ 10167 10162 10161 10158 ] final   -8.86 input  -65.29 | X-H torsion
[ 10718 10713 10712 10709 ] final   79.52 input   66.30 | X-H torsion
[ 10763 10752 10751 10750 ] final  -87.48 input  -60.55 | X-H torsion
[ 11005 11000 10999 10996 ] final   -1.64 input  -57.11 | X-H torsion

> <Gold.Protein.ActiveResidues>
 VAL166  LYS551  ARG553  GLY616  TRP617  ASP618  TYR619  PRO620  LYS621  CYS622 
 ASP623  PHE694  ASN695  SER759  ASP760  ASP761  ALA762  ILE779  LEU786  VAL792 
 PHE793  MET794  SER795  GLU796  ALA797  LYS798  CYS799  TRP800  GLU811  SER814 

> <Gold.Protein.RotatedAtoms>
  151.3446  135.0871  159.9382 H   0  0  0  0  0  0  0  0  0  0  0  0  # atno 6907 bound_to 6896
  152.5203  133.9413  159.7638 H   0  0  0  0  0  0  0  0  0  0  0  0  # atno 6908 bound_to 6896
  150.9777  133.6224  159.2757 H   0  0  0  0  0  0  0  0  0  0  0  0  # atno 6909 bound_to 6896
  145.9881  139.4310  143.0091 H   0  0  0  0  0  0  0  0  0  0  0  0  # atno 7974 bound_to 7965
  154.6865  140.2644  155.6855 H   0  0  0  0  0  0  0  0  0  0  0  0  # atno 8008 bound_to 7997
  156.2716  140.2800  156.1351 H   0  0  0  0  0  0  0  0  0  0  0  0  # atno 8009 bound_to 7997
  155.0957  140.0374  157.2672 H   0  0  0  0  0  0  0  0  0  0  0  0  # atno 8010 bound_to 7997
  140.7071  143.5921  150.8883 H   0  0  0  0  0  0  0  0  0  0  0  0  # atno 10167 bound_to 10162
  157.6779  130.9918  150.1945 H   0  0  0  0  0  0  0  0  0  0  0  0  # atno 10718 bound_to 10713
  154.6341  135.5411  153.7714 H   0  0  0  0  0  0  0  0  0  0  0  0  # atno 10763 bound_to 10752
  153.0299  135.6443  154.1257 H   0  0  0  0  0  0  0  0  0  0  0  0  # atno 10764 bound_to 10752
  154.1186  135.2922  155.3194 H   0  0  0  0  0  0  0  0  0  0  0  0  # atno 10765 bound_to 10752
  140.6496  133.9416  155.8372 H   0  0  0  0  0  0  0  0  0  0  0  0  # atno 11005 bound_to 11000
  145.7671  140.9912  143.1169 LP  0  0  0  0  0  0  0  0  0  0  0  0  # atno 17320 bound_to 7965
  144.6880  139.9401  143.7475 LP  0  0  0  0  0  0  0  0  0  0  0  0  # atno 17321 bound_to 7965
  139.9647  143.6124  152.2992 LP  0  0  0  0  0  0  0  0  0  0  0  0  # atno 17342 bound_to 10162
  139.6689  144.7661  151.1820 LP  0  0  0  0  0  0  0  0  0  0  0  0  # atno 17343 bound_to 10162
  156.2649  130.3715  149.8092 LP  0  0  0  0  0  0  0  0  0  0  0  0  # atno 17370 bound_to 10713
  156.5826  130.8472  151.3387 LP  0  0  0  0  0  0  0  0  0  0  0  0  # atno 17371 bound_to 10713
  141.0546  134.0434  157.3738 LP  0  0  0  0  0  0  0  0  0  0  0  0  # atno 17394 bound_to 11000
  139.9050  135.0177  156.7446 LP  0  0  0  0  0  0  0  0  0  0  0  0  # atno 17395 bound_to 11000

$$$$
