AV-unprocessed.smi:712|AV-procd|sdf|3469|dock9
  -GOLD-   22720 0463D 1   1.00000     0.00000
 Structure written by MMmdl.
 51 52  0  0  0  0  0  0  0  0  2 V2000
  150.4776  142.0464  158.3700 C   0  0  0  0  0  0  0  0  0  0  0  0
  150.6148  140.9118  157.3760 C   0  0  0  0  0  0  0  0  0  0  0  0
  149.5858  139.8987  157.2639 C   0  0  0  0  0  0  0  0  0  0  0  0
  149.7411  138.9041  156.3761 C   0  0  0  0  0  0  0  0  0  0  0  0
  150.8763  138.8160  155.5503 N   0  0  0  0  0  0  0  0  0  0  0  0
  150.9546  137.6729  154.6257 C   0  0  0  0  0  0  0  0  0  0  0  0
  150.6189  136.3545  155.3314 C   0  0  0  0  0  0  0  0  0  0  0  0
  150.8958  136.2000  156.5209 O   0  0  0  0  0  0  0  0  0  0  0  0
  150.0434  135.4067  154.5770 N   0  0  0  0  0  0  0  0  0  0  0  0
  149.7792  134.0349  154.9970 C   0  0  0  0  0  0  0  0  0  0  0  0
  148.5569  133.4470  154.2642 C   0  0  1  0  0  0  0  0  0  0  0  0
  148.8595  133.0067  152.8101 C   0  0  0  0  0  0  0  0  0  0  0  0
  147.6901  132.3489  152.1740 N   0  3  2  0  0  0  0  0  0  0  0  0
  146.6448  133.2874  151.6832 C   0  0  0  0  0  0  0  0  0  0  0  0
  145.4553  132.5596  151.0193 C   0  0  0  0  0  0  0  0  0  0  0  0
  145.8424  132.0483  149.6239 C   0  0  0  0  0  0  0  0  0  0  0  0
  144.2085  133.4553  150.9371 C   0  0  0  0  0  0  0  0  0  0  0  0
  147.1681  131.2628  153.0381 C   0  0  0  0  0  0  0  0  0  0  0  0
  146.9078  131.7648  154.4688 C   0  0  0  0  0  0  0  0  0  0  0  0
  148.1071  132.3147  155.0004 O   0  0  0  0  0  0  0  0  0  0  0  0
  151.8843  139.7392  155.6079 C   0  0  0  0  0  0  0  0  0  0  0  0
  152.8860  139.6626  154.8948 O   0  0  0  0  0  0  0  0  0  0  0  0
  151.7036  140.8220  156.5810 C   0  0  0  0  0  0  0  0  0  0  0  0
  149.4567  142.1162  158.7465 H   0  0  0  0  0  0  0  0  0  0  0  0
  150.7322  142.9989  157.9037 H   0  0  0  0  0  0  0  0  0  0  0  0
  151.1453  141.8883  159.2174 H   0  0  0  0  0  0  0  0  0  0  0  0
  148.7048  139.9367  157.8876 H   0  0  0  0  0  0  0  0  0  0  0  0
  149.0146  138.1147  156.2488 H   0  0  0  0  0  0  0  0  0  0  0  0
  150.2666  137.7970  153.7884 H   0  0  0  0  0  0  0  0  0  0  0  0
  151.9490  137.6241  154.1776 H   0  0  0  0  0  0  0  0  0  0  0  0
  149.8379  135.6328  153.6143 H   0  0  0  0  0  0  0  0  0  0  0  0
  150.6572  133.4006  154.8632 H   0  0  0  0  0  0  0  0  0  0  0  0
  149.5809  134.0599  156.0687 H   0  0  0  0  0  0  0  0  0  0  0  0
  147.7669  134.1996  154.2741 H   0  0  0  0  0  0  0  0  0  0  0  0
  149.1856  133.8499  152.2047 H   0  0  0  0  0  0  0  0  0  0  0  0
  149.6874  132.2964  152.8130 H   0  0  0  0  0  0  0  0  0  0  0  0
  146.2596  133.8761  152.5170 H   0  0  0  0  0  0  0  0  0  0  0  0
  147.0852  134.0054  150.9913 H   0  0  0  0  0  0  0  0  0  0  0  0
  145.1928  131.6843  151.6114 H   0  0  0  0  0  0  0  0  0  0  0  0
  146.1185  132.8698  148.9620 H   0  0  0  0  0  0  0  0  0  0  0  0
  145.0164  131.5093  149.1591 H   0  0  0  0  0  0  0  0  0  0  0  0
  146.6892  131.3634  149.6771 H   0  0  0  0  0  0  0  0  0  0  0  0
  144.4016  134.3527  150.3483 H   0  0  0  0  0  0  0  0  0  0  0  0
  143.8772  133.7704  151.9267 H   0  0  0  0  0  0  0  0  0  0  0  0
  143.3765  132.9260  150.4714 H   0  0  0  0  0  0  0  0  0  0  0  0
  146.2671  130.8241  152.6080 H   0  0  0  0  0  0  0  0  0  0  0  0
  147.9107  130.4643  153.0683 H   0  0  0  0  0  0  0  0  0  0  0  0
  146.1067  132.5053  154.4899 H   0  0  0  0  0  0  0  0  0  0  0  0
  146.5897  130.9375  155.1031 H   0  0  0  0  0  0  0  0  0  0  0  0
  152.4760  141.5730  156.6620 H   0  0  0  0  0  0  0  0  0  0  0  0
  148.0351  131.8912  151.3421 H   0  0  0  0  0  0  0  0  0  0  0  0
  1  2  1  0  0  0  0
  1 24  1  0  0  0  0
  1 25  1  0  0  0  0
  1 26  1  0  0  0  0
  2 23  2  0  0  0  0
  2  3  1  0  0  0  0
  3  4  2  0  0  0  0
  3 27  1  0  0  0  0
  4  5  1  0  0  0  0
  4 28  1  0  0  0  0
  5  6  1  0  0  0  0
  5 21  1  0  0  0  0
  6  7  1  0  0  0  0
  6 29  1  0  0  0  0
  6 30  1  0  0  0  0
  7  8  2  0  0  0  0
  7  9  1  0  0  0  0
  9 10  1  0  0  0  0
  9 31  1  0  0  0  0
 10 11  1  0  0  0  0
 10 32  1  0  0  0  0
 10 33  1  0  0  0  0
 11 20  1  0  0  0  0
 11 12  1  0  0  0  0
 11 34  1  0  0  0  0
 12 13  1  0  0  0  0
 12 35  1  0  0  0  0
 12 36  1  0  0  0  0
 13 14  1  0  0  0  0
 13 18  1  0  0  0  0
 13 51  1  0  0  0  0
 14 15  1  0  0  0  0
 14 37  1  0  0  0  0
 14 38  1  0  0  0  0
 15 16  1  0  0  0  0
 15 17  1  0  0  0  0
 15 39  1  0  0  0  0
 16 40  1  0  0  0  0
 16 41  1  0  0  0  0
 16 42  1  0  0  0  0
 17 43  1  0  0  0  0
 17 44  1  0  0  0  0
 17 45  1  0  0  0  0
 18 19  1  0  0  0  0
 18 46  1  0  0  0  0
 18 47  1  0  0  0  0
 19 20  1  0  0  0  0
 19 48  1  0  0  0  0
 19 49  1  0  0  0  0
 21 22  2  0  0  0  0
 21 23  1  0  0  0  0
 23 50  1  0  0  0  0
M  CHG  1  13   1
M  END
> <s_m_source_file>
AV-unprocessed.smi

> <i_m_source_file_index>
712

> <i_lp_mmshare_version>
43012

> <i_f3d_flags>
0

> <s_epik_input>
W0NIM11jMVtjSF1bY0hdbihjKD1PKVtjSF0xKVtDSDJdQyg9TylbTkhdW0NIMl1bQ0BASF0yW0NIMl1OKFtDSDJdW0NIMl1PMilbQ0gyXVtDSF0oW0NIM10pW0NIM10=

> <s_epik_cmdline>
J2VwaWtfcHl0aG9uJywgJy1waCcsICc3LjAnLCAnLXRuJywgJzgnLCAnLW1hJywgJzIwMCcsICctbWV0YWxfYmluZGluZycsICctaW1hZScsICc8aW5maWxlLm1hZT4nLCAnLW9tYWUnLCAnPG91dGZpbGUubWFlPic=

> <r_lp_tautomer_probability>
1

> <r_epik_Ionization_Penalty>
0.0975935

> <r_epik_Ionization_Penalty_Charging>
0.0975934

> <r_epik_Ionization_Penalty_Neutral>
6.27044e-08

> <r_epik_State_Penalty>
0.0877056

> <r_epik_Charging_Adjusted_Penalty>
0.185299

> <i_epik_Tot_Q>
1

> <i_epik_Tot_abs_Q>
1

> <r_epik_Metal_State_Penalty>
0.0877109

> <b_epik_Metal_Only>
0

> <s_lp_Force_Field>
OPLS_2005

> <r_lp_Energy>
28.3742

> <b_lp_Chiralities_Consistent>
1

> <s_lp_Variant>
AV-unprocessed.smi:712-2

> <Gold.Version>
5.8.1

> <Gold.Id.Protein>
6NUR|6NUR_protein|mol2

> <Gold.PLP.Fitness>
46.8688

> <Gold.PLP.PLP>
-40.5334

> <Gold.PLP.part.hbond>
-4.0000

> <Gold.PLP.part.metal>
0.0000

> <Gold.PLP.part.buried>
-7.6431

> <Gold.PLP.part.nonpolar>
-30.0293

> <Gold.PLP.part.repulsive>
0.0769

> <Gold.PLP.ligand.clash>
0.0000

> <Gold.PLP.ligand.torsion>
1.0063

> <Gold.PLP.Chemscore.Hbond>
2.7423

> <Gold.PLP.Chemscore.CHOScore>
0.0000

> <Gold.PLP.Chemscore.Metal>
0.0000

> <Gold.Chemscore.Hbonds>
donor molecule, donor type, donor heavy atom, donor atom, acceptor molecule, acceptor atom, score
      L1  H     9    31       P1  7948  0.60
      L1  H    13    51       P1 10747  1.00
      P1  H  7989  7998       L1    22  0.05
      P1  H  7997  8009       L1    22  1.00

> <Gold.PLP.Chemscore.Internal.Correction>
0.1210

> <Gold.Rescore>
     Score         DG    S(hbond)    S(metal)    S(lipo)     H(rot)  DE(clash)    DE(int)     intcor
     16.91     -17.80       2.09        0.00      87.08       1.89       0.00       0.90       ----

> <Gold.Chemscore.Fitness>
16.9062

> <Gold.Chemscore.DG>
-17.8023

> <Gold.Chemscore.ZeroCoef>
-5.4800

> <Gold.Chemscore.Hbond>
2.0852

> <Gold.Chemscore.Metal>
0.0000

> <Gold.Chemscore.Lipo>
87.0818

> <Gold.Chemscore.Internal_Hbond>
0.0000

> <Gold.Chemscore.DEClash>
0.0000

> <Gold.Chemscore.DEInternal>
0.8960

> <Gold.Chemscore.Rot>
1.8871

> <Gold.Chemscore.Internal.Correction>
   9.000000E+99

> <Gold.Chemscore.Hbonds>
donor molecule, donor type, donor heavy atom, donor atom, acceptor molecule, acceptor atom, score
      L1  H     9    31       P1  7948  0.04
      L1  H    13    51       P1 10747  1.00
      P1  H  7997  8009       L1    22  0.32

> <Gold.Chemscore.Hbond.Weighted>
-6.9647

> <Gold.Chemscore.Metal.Weighted>
-0.0000

> <Gold.Chemscore.Lipo.Weighted>
-10.1886

> <Gold.Chemscore.Internal_Hbond.Weighted>
0.0000

> <Gold.Chemscore.DEClash.Weighted>
0.0000

> <Gold.Chemscore.DEInternal.Weighted>
0.8960

> <Gold.Chemscore.Rot.Weighted>
4.8309

> <Gold.Chemscore.Internal.Correction.Weighted>
   9.000000E+99

> <Gold.Protein.RotatedTorsions>
[ 6907 6896 6895 6894 ] final  -17.09 input  -60.11 | X-H torsion
[ 7974 7965 7964 7962 ] final  -21.63 input  175.53 | X-H torsion
[ 8008 7997 7996 7995 ] final -155.16 input   59.86 | X-H torsion
[ 10167 10162 10161 10158 ] final -169.63 input  -65.29 | X-H torsion
[ 10718 10713 10712 10709 ] final -116.69 input   66.30 | X-H torsion
[ 10763 10752 10751 10750 ] final   70.05 input  -60.55 | X-H torsion
[ 11005 11000 10999 10996 ] final  -52.52 input  -57.11 | X-H torsion

> <Gold.Protein.ActiveResidues>
 VAL166  LYS551  ARG553  GLY616  TRP617  ASP618  TYR619  PRO620  LYS621  CYS622 
 ASP623  PHE694  ASN695  SER759  ASP760  ASP761  ALA762  ILE779  LEU786  VAL792 
 PHE793  MET794  SER795  GLU796  ALA797  LYS798  CYS799  TRP800  GLU811  SER814 

> <Gold.Protein.RotatedAtoms>
  151.2986  135.0762  159.9230 H   0  0  0  0  0  0  0  0  0  0  0  0  # atno 6907 bound_to 6896
  152.5302  133.9856  159.7837 H   0  0  0  0  0  0  0  0  0  0  0  0  # atno 6908 bound_to 6896
  151.0139  133.5888  159.2710 H   0  0  0  0  0  0  0  0  0  0  0  0  # atno 6909 bound_to 6896
  146.1722  140.4367  142.8528 H   0  0  0  0  0  0  0  0  0  0  0  0  # atno 7974 bound_to 7965
  155.6975  140.0763  157.2423 H   0  0  0  0  0  0  0  0  0  0  0  0  # atno 8008 bound_to 7997
  154.4078  140.1653  156.2207 H   0  0  0  0  0  0  0  0  0  0  0  0  # atno 8009 bound_to 7997
  155.9397  140.3385  155.6320 H   0  0  0  0  0  0  0  0  0  0  0  0  # atno 8010 bound_to 7997
  139.5911  144.1212  152.1635 H   0  0  0  0  0  0  0  0  0  0  0  0  # atno 10167 bound_to 10162
  156.0981  130.6149  150.9068 H   0  0  0  0  0  0  0  0  0  0  0  0  # atno 10718 bound_to 10713
  153.0320  135.5188  154.7382 H   0  0  0  0  0  0  0  0  0  0  0  0  # atno 10763 bound_to 10752
  154.6389  135.2910  155.0129 H   0  0  0  0  0  0  0  0  0  0  0  0  # atno 10764 bound_to 10752
  154.1054  135.6630  153.4928 H   0  0  0  0  0  0  0  0  0  0  0  0  # atno 10765 bound_to 10752
  141.0928  133.6629  156.4036 H   0  0  0  0  0  0  0  0  0  0  0  0  # atno 11005 bound_to 11000
  144.8180  140.6502  143.6371 LP  0  0  0  0  0  0  0  0  0  0  0  0  # atno 17320 bound_to 7965
  145.4309  139.1549  143.4023 LP  0  0  0  0  0  0  0  0  0  0  0  0  # atno 17321 bound_to 7965
  140.0786  144.5719  150.7139 LP  0  0  0  0  0  0  0  0  0  0  0  0  # atno 17342 bound_to 10162
  140.7173  143.2556  151.4391 LP  0  0  0  0  0  0  0  0  0  0  0  0  # atno 17343 bound_to 10162
  157.6146  131.0934  150.8734 LP  0  0  0  0  0  0  0  0  0  0  0  0  # atno 17370 bound_to 10713
  156.8868  130.5198  149.5288 LP  0  0  0  0  0  0  0  0  0  0  0  0  # atno 17371 bound_to 10713
  140.5210  134.6304  157.5318 LP  0  0  0  0  0  0  0  0  0  0  0  0  # atno 17394 bound_to 11000
  139.9758  134.7217  155.9952 LP  0  0  0  0  0  0  0  0  0  0  0  0  # atno 17395 bound_to 11000

$$$$
