AV-unprocessed.smi:13|AV-procd|sdf|76|dock1
  -GOLD-   2262015203D 1   1.00000     0.00000
 Structure written by MMmdl.
 54 58  0  0  0  0  0  0  0  0  1 V2000
  142.9066  139.8837  157.0046 C   0  0  0  0  0  0  0  0  0  0  0  0
  144.3272  139.3408  156.8495 C   0  0  0  0  0  0  0  0  0  0  0  0
  144.9296  139.2835  158.2601 C   0  0  0  0  0  0  0  0  0  0  0  0
  144.4678  138.0561  156.0191 C   0  0  0  0  0  0  0  0  0  0  0  0
  145.6483  138.6555  155.4232 N   0  0  0  0  0  0  0  0  0  0  0  0
  145.8221  138.3018  154.0561 C   0  0  0  0  0  0  0  0  0  0  0  0
  146.6280  139.0212  153.2284 N   0  0  0  0  0  0  0  0  0  0  0  0
  146.7818  138.6743  151.9473 C   0  0  0  0  0  0  0  0  0  0  0  0
  146.2299  137.6549  151.2883 N   0  0  0  0  0  0  0  0  0  0  0  0
  145.4196  136.9251  152.1060 C   0  0  0  0  0  0  0  0  0  0  0  0
  145.1613  137.1821  153.4821 C   0  0  0  0  0  0  0  0  0  0  0  0
  144.2784  136.2342  153.9834 N   0  0  0  0  0  0  0  0  0  0  0  0
  144.0299  135.4600  152.9627 C   0  0  0  0  0  0  0  0  0  0  0  0
  144.6829  135.7946  151.7972 N   0  0  0  0  0  0  0  0  0  0  0  0
  144.5944  135.1074  150.5174 C   0  0  0  0  0  0  0  0  0  0  0  0
  145.1196  133.6522  150.5546 C   0  0  2  0  0  0  0  0  0  0  0  0
  144.9090  133.0478  149.2904 O   0  0  0  0  0  0  0  0  0  0  0  0
  144.4249  132.8013  151.6108 C   0  0  0  0  0  0  0  0  0  0  0  0
  145.4973  131.7883  151.9874 C   0  0  0  0  0  0  0  0  0  0  0  0
  146.6801  132.5689  151.9892 O   0  0  0  0  0  0  0  0  0  0  0  0
  146.6117  133.5102  150.9220 C   0  0  0  0  0  0  0  0  0  0  0  0
  145.1732  140.0008  155.7374 C   0  0  2  0  0  0  0  0  0  0  0  0
  146.3211  140.9614  156.0756 C   0  0  1  0  0  0  0  0  0  0  0  0
  147.0415  141.5338  154.8496 C   0  0  0  0  0  0  0  0  0  0  0  0
  146.2066  142.7459  154.5082 C   0  0  0  0  0  0  0  0  0  0  0  0
  145.8471  143.2573  155.8971 C   0  0  0  0  0  0  0  0  0  0  0  0
  145.7392  142.0973  156.7168 O   0  0  0  0  0  0  0  0  0  0  0  0
  142.3007  139.2461  157.6491 H   0  0  0  0  0  0  0  0  0  0  0  0
  142.3959  139.9476  156.0433 H   0  0  0  0  0  0  0  0  0  0  0  0
  142.9079  140.8855  157.4356 H   0  0  0  0  0  0  0  0  0  0  0  0
  145.9373  138.8674  158.2527 H   0  0  0  0  0  0  0  0  0  0  0  0
  144.3327  138.6573  158.9239 H   0  0  0  0  0  0  0  0  0  0  0  0
  144.9915  140.2745  158.7109 H   0  0  0  0  0  0  0  0  0  0  0  0
  144.6777  137.1578  156.6003 H   0  0  0  0  0  0  0  0  0  0  0  0
  143.6552  137.9064  155.3052 H   0  0  0  0  0  0  0  0  0  0  0  0
  147.4423  139.3027  151.3685 H   0  0  0  0  0  0  0  0  0  0  0  0
  143.3598  134.6160  153.0349 H   0  0  0  0  0  0  0  0  0  0  0  0
  143.5517  135.1212  150.1983 H   0  0  0  0  0  0  0  0  0  0  0  0
  145.1470  135.6878  149.7772 H   0  0  0  0  0  0  0  0  0  0  0  0
  145.3428  133.5688  148.6322 H   0  0  0  0  0  0  0  0  0  0  0  0
  144.1847  133.4059  152.4867 H   0  0  0  0  0  0  0  0  0  0  0  0
  143.4998  132.3388  151.2639 H   0  0  0  0  0  0  0  0  0  0  0  0
  145.3195  131.3240  152.9575 H   0  0  0  0  0  0  0  0  0  0  0  0
  145.5767  131.0019  151.2351 H   0  0  0  0  0  0  0  0  0  0  0  0
  147.2144  133.1666  150.0795 H   0  0  0  0  0  0  0  0  0  0  0  0
  147.0448  134.4464  151.2722 H   0  0  0  0  0  0  0  0  0  0  0  0
  144.5053  140.3970  154.9710 H   0  0  0  0  0  0  0  0  0  0  0  0
  147.0384  140.4918  156.7496 H   0  0  0  0  0  0  0  0  0  0  0  0
  148.0467  141.8515  155.1294 H   0  0  0  0  0  0  0  0  0  0  0  0
  147.1388  140.8314  154.0226 H   0  0  0  0  0  0  0  0  0  0  0  0
  146.7412  143.4813  153.9066 H   0  0  0  0  0  0  0  0  0  0  0  0
  145.3081  142.4464  153.9670 H   0  0  0  0  0  0  0  0  0  0  0  0
  146.6467  143.8867  156.2895 H   0  0  0  0  0  0  0  0  0  0  0  0
  144.9240  143.8372  155.9034 H   0  0  0  0  0  0  0  0  0  0  0  0
  1  2  1  0  0  0  0
  1 28  1  0  0  0  0
  1 29  1  0  0  0  0
  1 30  1  0  0  0  0
  2 22  1  0  0  0  0
  2  3  1  0  0  0  0
  2  4  1  0  0  0  0
  3 31  1  0  0  0  0
  3 32  1  0  0  0  0
  3 33  1  0  0  0  0
  4  5  1  0  0  0  0
  4 34  1  0  0  0  0
  4 35  1  0  0  0  0
  5  6  1  0  0  0  0
  5 22  1  0  0  0  0
  6 11  1  0  0  0  0
  6  7  2  0  0  0  0
  7  8  1  0  0  0  0
  8  9  2  0  0  0  0
  8 36  1  0  0  0  0
  9 10  1  0  0  0  0
 10 14  1  0  0  0  0
 10 11  2  0  0  0  0
 11 12  1  0  0  0  0
 12 13  2  0  0  0  0
 13 14  1  0  0  0  0
 13 37  1  0  0  0  0
 14 15  1  0  0  0  0
 15 16  1  0  0  0  0
 15 38  1  0  0  0  0
 15 39  1  0  0  0  0
 16 21  1  0  0  0  0
 16 17  1  0  0  0  0
 16 18  1  0  0  0  0
 17 40  1  0  0  0  0
 18 19  1  0  0  0  0
 18 41  1  0  0  0  0
 18 42  1  0  0  0  0
 19 20  1  0  0  0  0
 19 43  1  0  0  0  0
 19 44  1  0  0  0  0
 20 21  1  0  0  0  0
 21 45  1  0  0  0  0
 21 46  1  0  0  0  0
 22 23  1  0  0  0  0
 22 47  1  0  0  0  0
 23 27  1  0  0  0  0
 23 24  1  0  0  0  0
 23 48  1  0  0  0  0
 24 25  1  0  0  0  0
 24 49  1  0  0  0  0
 24 50  1  0  0  0  0
 25 26  1  0  0  0  0
 25 51  1  0  0  0  0
 25 52  1  0  0  0  0
 26 27  1  0  0  0  0
 26 53  1  0  0  0  0
 26 54  1  0  0  0  0
M  END
> <s_m_source_file>
AV-unprocessed.smi

> <i_m_source_file_index>
13

> <i_lp_mmshare_version>
43012

> <i_f3d_flags>
0

> <s_epik_input>
TzFbQ0gyXVtDSDJdW0NIMl1bQ0BIXTFbQ0BASF0yTihbQ0gyXUMyKFtDSDNdKVtDSDNdKWMobltjSF1uMyljKGMzNCluW2NIXW40W0NIMl1bQ0BAXTUoW09IXSlbQ0gyXVtDSDJdT1tDSDJdNQ==

> <s_epik_cmdline>
J2VwaWtfcHl0aG9uJywgJy1waCcsICc3LjAnLCAnLXRuJywgJzgnLCAnLW1hJywgJzIwMCcsICctbWV0YWxfYmluZGluZycsICctaW1hZScsICc8aW5maWxlLm1hZT4nLCAnLW9tYWUnLCAnPG91dGZpbGUubWFlPic=

> <r_lp_tautomer_probability>
1

> <r_epik_Ionization_Penalty>
0.00202764

> <r_epik_Ionization_Penalty_Charging>
0

> <r_epik_Ionization_Penalty_Neutral>
0.00202764

> <r_epik_State_Penalty>
0.00134017

> <r_epik_Charging_Adjusted_Penalty>
0.00134017

> <i_epik_Tot_Q>
0

> <i_epik_Tot_abs_Q>
0

> <r_epik_Metal_State_Penalty>
-0

> <b_epik_Metal_Only>
0

> <s_lp_Force_Field>
OPLS_2005

> <r_lp_Energy>
64.8662

> <b_lp_Chiralities_Consistent>
1

> <s_lp_Variant>
AV-unprocessed.smi:13-8

> <Gold.Version>
5.8.1

> <Gold.Id.Protein>
6NUR|6NUR_protein|mol2

> <Gold.PLP.Fitness>
36.9140

> <Gold.PLP.PLP>
-31.6132

> <Gold.PLP.part.hbond>
-1.0000

> <Gold.PLP.part.metal>
0.0000

> <Gold.PLP.part.buried>
-5.7270

> <Gold.PLP.part.nonpolar>
-26.6311

> <Gold.PLP.part.repulsive>
2.2895

> <Gold.PLP.ligand.clash>
0.4185

> <Gold.PLP.ligand.torsion>
0.4398

> <Gold.PLP.Chemscore.Hbond>
1.0292

> <Gold.PLP.Chemscore.CHOScore>
1.0000

> <Gold.PLP.Chemscore.Metal>
0.0000

> <Gold.Chemscore.Hbonds>
donor molecule, donor type, donor heavy atom, donor atom, acceptor molecule, acceptor atom, score
      L1  H    17    40       P1  7921  1.00
      P1  H  7954  7966       L1     9  0.02
      L1  C     8    36       P1  7957  1.00

> <Gold.PLP.Chemscore.Internal.Correction>
0.5112

> <Gold.Rescore>
     Score         DG    S(hbond)    S(metal)    S(lipo)     H(rot)  DE(clash)    DE(int)     intcor
      4.76      -8.30       0.96        0.00      47.10       2.30       0.51       3.03       ----

> <Gold.Chemscore.Fitness>
4.7632

> <Gold.Chemscore.DG>
-8.3016

> <Gold.Chemscore.ZeroCoef>
-5.4800

> <Gold.Chemscore.Hbond>
0.9576

> <Gold.Chemscore.Metal>
0.0000

> <Gold.Chemscore.Lipo>
47.0960

> <Gold.Chemscore.Internal_Hbond>
0.0000

> <Gold.Chemscore.DEClash>
0.5110

> <Gold.Chemscore.DEInternal>
3.0274

> <Gold.Chemscore.Rot>
2.2996

> <Gold.Chemscore.Internal.Correction>
   9.000000E+99

> <Gold.Chemscore.Hbonds>
donor molecule, donor type, donor heavy atom, donor atom, acceptor molecule, acceptor atom, score
      L1  H    17    40       P1  7921  0.50

> <Gold.Chemscore.Hbond.Weighted>
-3.1983

> <Gold.Chemscore.Metal.Weighted>
-0.0000

> <Gold.Chemscore.Lipo.Weighted>
-5.5102

> <Gold.Chemscore.Internal_Hbond.Weighted>
0.0000

> <Gold.Chemscore.DEClash.Weighted>
0.5110

> <Gold.Chemscore.DEInternal.Weighted>
3.0274

> <Gold.Chemscore.Rot.Weighted>
5.8869

> <Gold.Chemscore.Internal.Correction.Weighted>
   9.000000E+99

> <Gold.Protein.RotatedTorsions>
[ 6907 6896 6895 6894 ] final  -26.80 input  -60.11 | X-H torsion
[ 7974 7965 7964 7962 ] final -138.80 input  175.53 | X-H torsion
[ 8008 7997 7996 7995 ] final -130.80 input   59.86 | X-H torsion
[ 10167 10162 10161 10158 ] final   40.17 input  -65.29 | X-H torsion
[ 10718 10713 10712 10709 ] final  -50.41 input   66.30 | X-H torsion
[ 10763 10752 10751 10750 ] final  -64.01 input  -60.55 | X-H torsion
[ 11005 11000 10999 10996 ] final  122.18 input  -57.11 | X-H torsion

> <Gold.Protein.ActiveResidues>
 VAL166  LYS551  ARG553  GLY616  TRP617  ASP618  TYR619  PRO620  LYS621  CYS622 
 ASP623  PHE694  ASN695  SER759  ASP760  ASP761  ALA762  ILE779  LEU786  VAL792 
 PHE793  MET794  SER795  GLU796  ALA797  LYS798  CYS799  TRP800  GLU811  SER814 

> <Gold.Protein.RotatedAtoms>
  151.1558  135.0249  159.8688 H   0  0  0  0  0  0  0  0  0  0  0  0  # atno 6907 bound_to 6896
  152.5452  134.1336  159.8459 H   0  0  0  0  0  0  0  0  0  0  0  0  # atno 6908 bound_to 6896
  151.1426  133.4915  159.2629 H   0  0  0  0  0  0  0  0  0  0  0  0  # atno 6909 bound_to 6896
  144.8729  140.6393  143.5255 H   0  0  0  0  0  0  0  0  0  0  0  0  # atno 7974 bound_to 7965
  155.3018  140.0453  157.3030 H   0  0  0  0  0  0  0  0  0  0  0  0  # atno 8008 bound_to 7997
  154.5482  140.2309  155.8494 H   0  0  0  0  0  0  0  0  0  0  0  0  # atno 8009 bound_to 7997
  156.1943  140.3042  155.9403 H   0  0  0  0  0  0  0  0  0  0  0  0  # atno 8010 bound_to 7997
  140.3768  144.2032  150.6131 H   0  0  0  0  0  0  0  0  0  0  0  0  # atno 10167 bound_to 10162
  156.1803  130.4150  149.9516 H   0  0  0  0  0  0  0  0  0  0  0  0  # atno 10718 bound_to 10713
  154.3236  135.6191  153.5519 H   0  0  0  0  0  0  0  0  0  0  0  0  # atno 10763 bound_to 10752
  152.9817  135.5730  154.5041 H   0  0  0  0  0  0  0  0  0  0  0  0  # atno 10764 bound_to 10752
  154.4714  135.2859  155.1616 H   0  0  0  0  0  0  0  0  0  0  0  0  # atno 10765 bound_to 10752
  139.9257  134.9640  156.8070 H   0  0  0  0  0  0  0  0  0  0  0  0  # atno 11005 bound_to 11000
  145.4097  139.1582  143.4132 LP  0  0  0  0  0  0  0  0  0  0  0  0  # atno 17320 bound_to 7965
  146.2942  140.4200  142.8728 LP  0  0  0  0  0  0  0  0  0  0  0  0  # atno 17321 bound_to 7965
  140.4978  143.2327  151.8724 LP  0  0  0  0  0  0  0  0  0  0  0  0  # atno 17342 bound_to 10162
  139.4799  144.5094  151.8953 LP  0  0  0  0  0  0  0  0  0  0  0  0  # atno 17343 bound_to 10162
  156.7289  130.9035  151.3624 LP  0  0  0  0  0  0  0  0  0  0  0  0  # atno 17370 bound_to 10713
  157.6864  130.9189  150.0397 LP  0  0  0  0  0  0  0  0  0  0  0  0  # atno 17371 bound_to 10713
  140.6343  133.9877  155.7677 LP  0  0  0  0  0  0  0  0  0  0  0  0  # atno 17394 bound_to 11000
  141.0813  134.0058  157.3382 LP  0  0  0  0  0  0  0  0  0  0  0  0  # atno 17395 bound_to 11000

$$$$
