AV-unprocessed.smi:2340|AV-procd|sdf|9349|dock8
  -GOLD-   2272012573D 1   1.00000     0.00000
 Structure written by MMmdl.
 40 41  0  0  0  0  0  0  0  0  1 V2000
  145.8259  150.3018  160.3515 C   0  0  0  0  0  0  0  0  0  0  0  0
  145.4761  149.3534  159.2484 C   0  0  0  0  0  0  0  0  0  0  0  0
  145.5827  149.5790  157.8988 C   0  0  0  0  0  0  0  0  0  0  0  0
  145.0679  148.1999  156.9675 S   0  0  0  0  0  0  0  0  0  0  0  0
  144.7197  147.3511  158.4716 C   0  0  0  0  0  0  0  0  0  0  0  0
  144.2006  145.9455  158.5307 C   0  0  1  0  0  0  0  0  0  0  0  0
  143.9928  145.3540  157.1294 C   0  0  0  0  0  0  0  0  0  0  0  0
  145.0537  145.0266  159.4330 C   0  0  0  0  0  0  0  0  0  0  0  0
  146.4835  145.1255  159.1530 N   0  0  0  0  0  0  0  0  0  0  0  0
  147.4508  144.5585  159.8860 C   0  0  0  0  0  0  0  0  0  0  0  0
  147.2441  143.8518  160.8724 O   0  0  0  0  0  0  0  0  0  0  0  0
  148.6686  144.8594  159.4146 N   0  0  0  0  0  0  0  0  0  0  0  0
  149.9363  144.4182  159.9961 C   0  0  2  0  0  0  0  0  0  0  0  0
  150.8953  145.5981  160.1450 C   0  0  0  0  0  0  0  0  0  0  0  0
  152.1947  145.1048  159.5178 C   0  0  0  0  0  0  0  0  0  0  0  0
  151.7529  144.1950  158.5262 O   0  0  0  0  0  0  0  0  0  0  0  0
  150.7124  143.4209  159.1047 C   0  0  2  0  0  0  0  0  0  0  0  0
  149.9261  142.6879  158.0057 C   0  0  0  0  0  0  0  0  0  0  0  0
  144.9838  148.0829  159.5581 N   0  0  0  0  0  0  0  0  0  0  0  0
  146.1483  151.2672  159.9607 H   0  0  0  0  0  0  0  0  0  0  0  0
  146.6359  149.9080  160.9661 H   0  0  0  0  0  0  0  0  0  0  0  0
  144.9707  150.4802  161.0037 H   0  0  0  0  0  0  0  0  0  0  0  0
  145.9325  150.4691  157.3971 H   0  0  0  0  0  0  0  0  0  0  0  0
  143.2101  146.0000  158.9856 H   0  0  0  0  0  0  0  0  0  0  0  0
  143.3166  145.9729  156.5390 H   0  0  0  0  0  0  0  0  0  0  0  0
  143.5605  144.3546  157.1861 H   0  0  0  0  0  0  0  0  0  0  0  0
  144.9344  145.2773  156.5855 H   0  0  0  0  0  0  0  0  0  0  0  0
  144.8620  145.2381  160.4862 H   0  0  0  0  0  0  0  0  0  0  0  0
  144.7660  143.9871  159.2726 H   0  0  0  0  0  0  0  0  0  0  0  0
  146.7548  145.6882  158.3600 H   0  0  0  0  0  0  0  0  0  0  0  0
  148.7280  145.4448  158.5944 H   0  0  0  0  0  0  0  0  0  0  0  0
  149.7661  143.9649  160.9745 H   0  0  0  0  0  0  0  0  0  0  0  0
  150.5366  146.4667  159.5906 H   0  0  0  0  0  0  0  0  0  0  0  0
  151.0289  145.9029  161.1832 H   0  0  0  0  0  0  0  0  0  0  0  0
  152.7892  145.9120  159.0893 H   0  0  0  0  0  0  0  0  0  0  0  0
  152.8065  144.5773  160.2515 H   0  0  0  0  0  0  0  0  0  0  0  0
  151.1831  142.6769  159.7499 H   0  0  0  0  0  0  0  0  0  0  0  0
  149.1119  142.1003  158.4304 H   0  0  0  0  0  0  0  0  0  0  0  0
  150.5749  142.0042  157.4583 H   0  0  0  0  0  0  0  0  0  0  0  0
  149.5012  143.3841  157.2823 H   0  0  0  0  0  0  0  0  0  0  0  0
  1  2  1  0  0  0  0
  1 20  1  0  0  0  0
  1 21  1  0  0  0  0
  1 22  1  0  0  0  0
  2 19  1  0  0  0  0
  2  3  2  0  0  0  0
  3  4  1  0  0  0  0
  3 23  1  0  0  0  0
  4  5  1  0  0  0  0
  5  6  1  0  0  0  0
  5 19  2  0  0  0  0
  6  7  1  0  0  0  0
  6  8  1  0  0  0  0
  6 24  1  0  0  0  0
  7 25  1  0  0  0  0
  7 26  1  0  0  0  0
  7 27  1  0  0  0  0
  8  9  1  0  0  0  0
  8 28  1  0  0  0  0
  8 29  1  0  0  0  0
  9 10  1  0  0  0  0
  9 30  1  0  0  0  0
 10 11  2  0  0  0  0
 10 12  1  0  0  0  0
 12 13  1  0  0  0  0
 12 31  1  0  0  0  0
 13 17  1  0  0  0  0
 13 14  1  0  0  0  0
 13 32  1  0  0  0  0
 14 15  1  0  0  0  0
 14 33  1  0  0  0  0
 14 34  1  0  0  0  0
 15 16  1  0  0  0  0
 15 35  1  0  0  0  0
 15 36  1  0  0  0  0
 16 17  1  0  0  0  0
 17 18  1  0  0  0  0
 17 37  1  0  0  0  0
 18 38  1  0  0  0  0
 18 39  1  0  0  0  0
 18 40  1  0  0  0  0
M  END
> <s_m_source_file>
AV-unprocessed.smi

> <i_m_source_file_index>
2340

> <i_lp_mmshare_version>
43012

> <i_f3d_flags>
0

> <s_epik_input>
W0NIM11jMVtjSF1zYyhuMSlbQ0BIXShbQ0gzXSlbQ0gyXVtOSF1DKD1PKVtOSF1bQ0BASF0yW0NIMl1bQ0gyXU9bQ0BIXTJbQ0gzXQ==

> <s_epik_cmdline>
J2VwaWtfcHl0aG9uJywgJy1waCcsICc3LjAnLCAnLXRuJywgJzgnLCAnLW1hJywgJzIwMCcsICctbWV0YWxfYmluZGluZycsICctaW1hZScsICc8aW5maWxlLm1hZT4nLCAnLW9tYWUnLCAnPG91dGZpbGUubWFlPic=

> <r_epik_Ionization_Penalty>
0.00156622

> <r_epik_Ionization_Penalty_Charging>
0

> <r_epik_Ionization_Penalty_Neutral>
0.00156622

> <r_epik_State_Penalty>
0.00101902

> <r_epik_Charging_Adjusted_Penalty>
0.00101902

> <i_epik_Tot_Q>
0

> <i_epik_Tot_abs_Q>
0

> <r_epik_Metal_State_Penalty>
-0

> <b_epik_Metal_Only>
0

> <s_lp_Force_Field>
OPLS_2005

> <r_lp_Energy>
5.61614

> <b_lp_Chiralities_Consistent>
1

> <s_lp_Variant>
AV-unprocessed.smi:2340-6

> <Gold.Version>
5.8.1

> <Gold.Id.Protein>
6NUR|6NUR_protein|mol2

> <Gold.PLP.Fitness>
46.4486

> <Gold.PLP.PLP>
-38.3766

> <Gold.PLP.part.hbond>
-2.6163

> <Gold.PLP.part.metal>
0.0000

> <Gold.PLP.part.buried>
-6.8925

> <Gold.PLP.part.nonpolar>
-30.1695

> <Gold.PLP.part.repulsive>
0.5026

> <Gold.PLP.ligand.clash>
0.0000

> <Gold.PLP.ligand.torsion>
0.2950

> <Gold.PLP.Chemscore.Hbond>
2.8560

> <Gold.PLP.Chemscore.CHOScore>
0.0000

> <Gold.PLP.Chemscore.Metal>
0.0000

> <Gold.Chemscore.Hbonds>
donor molecule, donor type, donor heavy atom, donor atom, acceptor molecule, acceptor atom, score
      L1  H     9    30       P1  8029  0.94
      L1  H    12    31       P1  8029  0.88
      P1  H  6933  6944       L1    11  1.00

> <Gold.PLP.Chemscore.Internal.Correction>
0.0940

> <Gold.Rescore>
     Score         DG    S(hbond)    S(metal)    S(lipo)     H(rot)  DE(clash)    DE(int)     intcor
     21.79     -22.08       3.23        0.00      83.25       1.53       0.04       0.26       ----

> <Gold.Chemscore.Fitness>
21.7874

> <Gold.Chemscore.DG>
-22.0808

> <Gold.Chemscore.ZeroCoef>
-5.4800

> <Gold.Chemscore.Hbond>
3.2287

> <Gold.Chemscore.Metal>
0.0000

> <Gold.Chemscore.Lipo>
83.2510

> <Gold.Chemscore.Internal_Hbond>
0.0000

> <Gold.Chemscore.DEClash>
0.0368

> <Gold.Chemscore.DEInternal>
0.2566

> <Gold.Chemscore.Rot>
1.5325

> <Gold.Chemscore.Internal.Correction>
   9.000000E+99

> <Gold.Chemscore.Hbonds>
donor molecule, donor type, donor heavy atom, donor atom, acceptor molecule, acceptor atom, score
      L1  H     9    30       P1  8029  0.87
      L1  H    12    31       P1  8029  0.86
      P1  H  6933  6944       L1    11  0.93

> <Gold.Chemscore.Hbond.Weighted>
-10.7838

> <Gold.Chemscore.Metal.Weighted>
-0.0000

> <Gold.Chemscore.Lipo.Weighted>
-9.7404

> <Gold.Chemscore.Internal_Hbond.Weighted>
0.0000

> <Gold.Chemscore.DEClash.Weighted>
0.0368

> <Gold.Chemscore.DEInternal.Weighted>
0.2566

> <Gold.Chemscore.Rot.Weighted>
3.9233

> <Gold.Chemscore.Internal.Correction.Weighted>
   9.000000E+99

> <Gold.Protein.RotatedTorsions>
[ 6907 6896 6895 6894 ] final   70.15 input  -60.11 | X-H torsion
[ 7974 7965 7964 7962 ] final -163.04 input  175.53 | X-H torsion
[ 8008 7997 7996 7995 ] final  154.26 input   59.86 | X-H torsion
[ 10167 10162 10161 10158 ] final   13.39 input  -65.29 | X-H torsion
[ 10718 10713 10712 10709 ] final  118.56 input   66.30 | X-H torsion
[ 10763 10752 10751 10750 ] final -100.57 input  -60.55 | X-H torsion
[ 11005 11000 10999 10996 ] final  138.55 input  -57.11 | X-H torsion

> <Gold.Protein.ActiveResidues>
 VAL166  LYS551  ARG553  GLY616  TRP617  ASP618  TYR619  PRO620  LYS621  CYS622 
 ASP623  PHE694  ASN695  SER759  ASP760  ASP761  ALA762  ILE779  LEU786  VAL792 
 PHE793  MET794  SER795  GLU796  ALA797  LYS798  CYS799  TRP800  GLU811  SER814 

> <Gold.Protein.RotatedAtoms>
  152.4731  134.4910  159.9695 H   0  0  0  0  0  0  0  0  0  0  0  0  # atno 6907 bound_to 6896
  151.4932  133.3514  159.2864 H   0  0  0  0  0  0  0  0  0  0  0  0  # atno 6908 bound_to 6896
  150.8753  134.8162  159.7247 H   0  0  0  0  0  0  0  0  0  0  0  0  # atno 6909 bound_to 6896
  144.7338  140.3165  143.6178 H   0  0  0  0  0  0  0  0  0  0  0  0  # atno 7974 bound_to 7965
  156.2540  140.1971  156.6618 H   0  0  0  0  0  0  0  0  0  0  0  0  # atno 8008 bound_to 7997
  154.6459  140.0578  156.9925 H   0  0  0  0  0  0  0  0  0  0  0  0  # atno 8009 bound_to 7997
  155.1492  140.3250  155.4437 H   0  0  0  0  0  0  0  0  0  0  0  0  # atno 8010 bound_to 7997
  140.6005  143.8613  150.6961 H   0  0  0  0  0  0  0  0  0  0  0  0  # atno 10167 bound_to 10162
  157.6021  131.1049  150.7774 H   0  0  0  0  0  0  0  0  0  0  0  0  # atno 10718 bound_to 10713
  154.7589  135.4930  153.9427 H   0  0  0  0  0  0  0  0  0  0  0  0  # atno 10763 bound_to 10752
  153.1228  135.6735  153.9314 H   0  0  0  0  0  0  0  0  0  0  0  0  # atno 10764 bound_to 10752
  153.9041  135.3106  155.3427 H   0  0  0  0  0  0  0  0  0  0  0  0  # atno 10765 bound_to 10752
  140.0191  134.9405  157.0438 H   0  0  0  0  0  0  0  0  0  0  0  0  # atno 11005 bound_to 11000
  145.7612  139.1825  143.2266 LP  0  0  0  0  0  0  0  0  0  0  0  0  # atno 17320 bound_to 7965
  146.0985  140.7572  142.9560 LP  0  0  0  0  0  0  0  0  0  0  0  0  # atno 17321 bound_to 7965
  140.2158  143.3847  152.1682 LP  0  0  0  0  0  0  0  0  0  0  0  0  # atno 17342 bound_to 10162
  139.5288  144.7135  151.5131 LP  0  0  0  0  0  0  0  0  0  0  0  0  # atno 17343 bound_to 10162
  156.8170  130.4971  149.5348 LP  0  0  0  0  0  0  0  0  0  0  0  0  # atno 17370 bound_to 10713
  156.1098  130.6031  151.0028 LP  0  0  0  0  0  0  0  0  0  0  0  0  # atno 17371 bound_to 10713
  140.4418  134.1673  155.7174 LP  0  0  0  0  0  0  0  0  0  0  0  0  # atno 17394 bound_to 11000
  141.1762  133.8508  157.1412 LP  0  0  0  0  0  0  0  0  0  0  0  0  # atno 17395 bound_to 11000

$$$$
