AV-unprocessed.smi:2114|AV-procd|sdf|8621|dock1
  -GOLD-   2272011363D 1   1.00000     0.00000
 Structure written by MMmdl.
 47 48  0  0  0  0  0  0  0  0  1 V2000
  147.1919  139.3054  153.5579 C   0  0  0  0  0  0  0  0  0  0  0  0
  148.1527  138.5108  154.2303 O   0  0  0  0  0  0  0  0  0  0  0  0
  149.4687  139.0257  154.1050 C   0  0  0  0  0  0  0  0  0  0  0  0
  150.4535  138.1022  154.8400 C   0  0  2  0  0  0  0  0  0  0  0  0
  151.9008  138.3423  154.3895 C   0  0  0  0  0  0  0  0  0  0  0  0
  150.0997  136.7058  154.5949 N   0  0  0  0  0  0  0  0  0  0  0  0
  150.6260  135.6399  155.2206 C   0  0  0  0  0  0  0  0  0  0  0  0
  151.5261  135.7108  156.0574 O   0  0  0  0  0  0  0  0  0  0  0  0
  150.0821  134.3086  154.7912 C   0  0  0  0  0  0  0  0  0  0  0  0
  150.6923  133.0969  155.1859 C   0  0  0  0  0  0  0  0  0  0  0  0
  150.1551  131.8792  154.7266 C   0  0  0  0  0  0  0  0  0  0  0  0
  149.0261  131.9107  153.8825 C   0  0  0  0  0  0  0  0  0  0  0  0
  148.4942  130.7014  153.4139 N   0  0  0  0  0  0  0  0  0  0  0  0
  149.3361  129.5427  153.6780 C   0  0  0  0  0  0  0  0  0  0  0  0
  148.7558  128.3009  152.9772 C   0  0  1  0  0  0  0  0  0  0  0  0
  149.5452  127.0312  153.3131 C   0  0  0  0  0  0  0  0  0  0  0  0
  147.4043  128.1065  153.3965 O   0  0  0  0  0  0  0  0  0  0  0  0
  146.5362  129.2199  153.1653 C   0  0  2  0  0  0  0  0  0  0  0  0
  146.2102  129.4024  151.6722 C   0  0  0  0  0  0  0  0  0  0  0  0
  147.1128  130.4878  153.8256 C   0  0  0  0  0  0  0  0  0  0  0  0
  148.4402  133.0674  153.4917 N   0  0  0  0  0  0  0  0  0  0  0  0
  148.9632  134.2317  153.9327 C   0  0  0  0  0  0  0  0  0  0  0  0
  146.2017  138.8675  153.6833 H   0  0  0  0  0  0  0  0  0  0  0  0
  147.4032  139.3581  152.4891 H   0  0  0  0  0  0  0  0  0  0  0  0
  147.1656  140.3187  153.9607 H   0  0  0  0  0  0  0  0  0  0  0  0
  149.7437  139.1150  153.0525 H   0  0  0  0  0  0  0  0  0  0  0  0
  149.5052  140.0269  154.5374 H   0  0  0  0  0  0  0  0  0  0  0  0
  150.4025  138.3269  155.9068 H   0  0  0  0  0  0  0  0  0  0  0  0
  152.2012  139.3749  154.5696 H   0  0  0  0  0  0  0  0  0  0  0  0
  152.0257  138.1403  153.3251 H   0  0  0  0  0  0  0  0  0  0  0  0
  152.5925  137.6994  154.9346 H   0  0  0  0  0  0  0  0  0  0  0  0
  149.3821  136.5376  153.9050 H   0  0  0  0  0  0  0  0  0  0  0  0
  151.5634  133.0896  155.8250 H   0  0  0  0  0  0  0  0  0  0  0  0
  150.6055  130.9403  155.0145 H   0  0  0  0  0  0  0  0  0  0  0  0
  150.3491  129.7360  153.3223 H   0  0  0  0  0  0  0  0  0  0  0  0
  149.3985  129.3701  154.7536 H   0  0  0  0  0  0  0  0  0  0  0  0
  148.7876  128.4417  151.8966 H   0  0  0  0  0  0  0  0  0  0  0  0
  150.5852  127.1201  152.9979 H   0  0  0  0  0  0  0  0  0  0  0  0
  149.1190  126.1635  152.8089 H   0  0  0  0  0  0  0  0  0  0  0  0
  149.5354  126.8317  154.3850 H   0  0  0  0  0  0  0  0  0  0  0  0
  145.5973  128.9829  153.6664 H   0  0  0  0  0  0  0  0  0  0  0  0
  145.4555  130.1770  151.5344 H   0  0  0  0  0  0  0  0  0  0  0  0
  145.8170  128.4801  151.2445 H   0  0  0  0  0  0  0  0  0  0  0  0
  147.0834  129.6965  151.0904 H   0  0  0  0  0  0  0  0  0  0  0  0
  147.0762  130.3804  154.9108 H   0  0  0  0  0  0  0  0  0  0  0  0
  146.5056  131.3580  153.5719 H   0  0  0  0  0  0  0  0  0  0  0  0
  148.4647  135.1269  153.5901 H   0  0  0  0  0  0  0  0  0  0  0  0
  1  2  1  0  0  0  0
  1 23  1  0  0  0  0
  1 24  1  0  0  0  0
  1 25  1  0  0  0  0
  2  3  1  0  0  0  0
  3  4  1  0  0  0  0
  3 26  1  0  0  0  0
  3 27  1  0  0  0  0
  4  5  1  0  0  0  0
  4  6  1  0  0  0  0
  4 28  1  0  0  0  0
  5 29  1  0  0  0  0
  5 30  1  0  0  0  0
  5 31  1  0  0  0  0
  6  7  1  0  0  0  0
  6 32  1  0  0  0  0
  7  8  2  0  0  0  0
  7  9  1  0  0  0  0
  9 22  1  0  0  0  0
  9 10  2  0  0  0  0
 10 11  1  0  0  0  0
 10 33  1  0  0  0  0
 11 12  2  0  0  0  0
 11 34  1  0  0  0  0
 12 13  1  0  0  0  0
 12 21  1  0  0  0  0
 13 20  1  0  0  0  0
 13 14  1  0  0  0  0
 14 15  1  0  0  0  0
 14 35  1  0  0  0  0
 14 36  1  0  0  0  0
 15 16  1  0  0  0  0
 15 17  1  0  0  0  0
 15 37  1  0  0  0  0
 16 38  1  0  0  0  0
 16 39  1  0  0  0  0
 16 40  1  0  0  0  0
 17 18  1  0  0  0  0
 18 19  1  0  0  0  0
 18 20  1  0  0  0  0
 18 41  1  0  0  0  0
 19 42  1  0  0  0  0
 19 43  1  0  0  0  0
 19 44  1  0  0  0  0
 20 45  1  0  0  0  0
 20 46  1  0  0  0  0
 21 22  2  0  0  0  0
 22 47  1  0  0  0  0
M  END
> <s_m_source_file>
AV-unprocessed.smi

> <i_m_source_file_index>
2114

> <i_lp_mmshare_version>
43012

> <i_f3d_flags>
0

> <s_epik_input>
W0NIM11PW0NIMl1bQ0BIXShbQ0gzXSlbTkhdQyg9TyljMVtjSF1bY0hdYyhuW2NIXTEpTjJbQ0gyXVtDQEBIXShbQ0gzXSlPW0NAQEhdKFtDSDNdKVtDSDJdMg==

> <s_epik_cmdline>
J2VwaWtfcHl0aG9uJywgJy1waCcsICc3LjAnLCAnLXRuJywgJzgnLCAnLW1hJywgJzIwMCcsICctbWV0YWxfYmluZGluZycsICctaW1hZScsICc8aW5maWxlLm1hZT4nLCAnLW9tYWUnLCAnPG91dGZpbGUubWFlPic=

> <r_lp_tautomer_probability>
1

> <r_epik_Ionization_Penalty>
1.92915e-05

> <r_epik_Ionization_Penalty_Charging>
0

> <r_epik_Ionization_Penalty_Neutral>
1.92915e-05

> <r_epik_State_Penalty>
-0

> <r_epik_Charging_Adjusted_Penalty>
0

> <i_epik_Tot_Q>
0

> <i_epik_Tot_abs_Q>
0

> <r_epik_Metal_State_Penalty>
-0

> <b_epik_Metal_Only>
0

> <s_lp_Force_Field>
OPLS_2005

> <r_lp_Energy>
24.3529

> <b_lp_Chiralities_Consistent>
1

> <s_lp_Variant>
AV-unprocessed.smi:2114-5

> <Gold.Version>
5.8.1

> <Gold.Id.Protein>
6NUR|6NUR_protein|mol2

> <Gold.PLP.Fitness>
40.6725

> <Gold.PLP.PLP>
-34.7195

> <Gold.PLP.part.hbond>
-2.0861

> <Gold.PLP.part.metal>
0.0000

> <Gold.PLP.part.buried>
-3.0682

> <Gold.PLP.part.nonpolar>
-28.6763

> <Gold.PLP.part.repulsive>
0.5493

> <Gold.PLP.ligand.clash>
2.2036

> <Gold.PLP.ligand.torsion>
0.3714

> <Gold.PLP.Chemscore.Hbond>
1.9051

> <Gold.PLP.Chemscore.CHOScore>
1.0000

> <Gold.PLP.Chemscore.Metal>
0.0000

> <Gold.Chemscore.Hbonds>
donor molecule, donor type, donor heavy atom, donor atom, acceptor molecule, acceptor atom, score
      L1  H     6    32       P1  7948  0.77
      P1  H 10752 10763       L1     8  1.00
      L1  C    22    47       P1  7948  0.89

> <Gold.PLP.Chemscore.Internal.Correction>
0.1842

> <Gold.Rescore>
     Score         DG    S(hbond)    S(metal)    S(lipo)     H(rot)  DE(clash)    DE(int)     intcor
     13.04     -15.95       1.29        0.00      85.90       1.52       2.14       0.78       ----

> <Gold.Chemscore.Fitness>
13.0387

> <Gold.Chemscore.DG>
-15.9524

> <Gold.Chemscore.ZeroCoef>
-5.4800

> <Gold.Chemscore.Hbond>
1.2934

> <Gold.Chemscore.Metal>
0.0000

> <Gold.Chemscore.Lipo>
85.8995

> <Gold.Chemscore.Internal_Hbond>
0.0000

> <Gold.Chemscore.DEClash>
2.1385

> <Gold.Chemscore.DEInternal>
0.7751

> <Gold.Chemscore.Rot>
1.5226

> <Gold.Chemscore.Internal.Correction>
   9.000000E+99

> <Gold.Chemscore.Hbonds>
donor molecule, donor type, donor heavy atom, donor atom, acceptor molecule, acceptor atom, score
      L1  H     6    32       P1  7948  0.67
      P1  H 10752 10763       L1     8  0.35

> <Gold.Chemscore.Hbond.Weighted>
-4.3201

> <Gold.Chemscore.Metal.Weighted>
-0.0000

> <Gold.Chemscore.Lipo.Weighted>
-10.0502

> <Gold.Chemscore.Internal_Hbond.Weighted>
0.0000

> <Gold.Chemscore.DEClash.Weighted>
2.1385

> <Gold.Chemscore.DEInternal.Weighted>
0.7751

> <Gold.Chemscore.Rot.Weighted>
3.8980

> <Gold.Chemscore.Internal.Correction.Weighted>
   9.000000E+99

> <Gold.Protein.RotatedTorsions>
[ 6907 6896 6895 6894 ] final  -21.96 input  -60.11 | X-H torsion
[ 7974 7965 7964 7962 ] final -140.09 input  175.53 | X-H torsion
[ 8008 7997 7996 7995 ] final  118.02 input   59.86 | X-H torsion
[ 10167 10162 10161 10158 ] final -123.39 input  -65.29 | X-H torsion
[ 10718 10713 10712 10709 ] final  124.89 input   66.30 | X-H torsion
[ 10763 10752 10751 10750 ] final   84.32 input  -60.55 | X-H torsion
[ 11005 11000 10999 10996 ] final -117.22 input  -57.11 | X-H torsion

> <Gold.Protein.ActiveResidues>
 VAL166  LYS551  ARG553  GLY616  TRP617  ASP618  TYR619  PRO620  LYS621  CYS622 
 ASP623  PHE694  ASN695  SER759  ASP760  ASP761  ALA762  ILE779  LEU786  VAL792 
 PHE793  MET794  SER795  GLU796  ALA797  LYS798  CYS799  TRP800  GLU811  SER814 

> <Gold.Protein.RotatedAtoms>
  151.2256  135.0535  159.8966 H   0  0  0  0  0  0  0  0  0  0  0  0  # atno 6907 bound_to 6896
  152.5410  134.0593  159.8155 H   0  0  0  0  0  0  0  0  0  0  0  0  # atno 6908 bound_to 6896
  151.0765  133.5375  159.2655 H   0  0  0  0  0  0  0  0  0  0  0  0  # atno 6909 bound_to 6896
  144.8624  140.6241  143.5319 H   0  0  0  0  0  0  0  0  0  0  0  0  # atno 7974 bound_to 7965
  156.2525  140.2883  156.0770 H   0  0  0  0  0  0  0  0  0  0  0  0  # atno 8008 bound_to 7997
  155.1608  140.0399  157.2859 H   0  0  0  0  0  0  0  0  0  0  0  0  # atno 8009 bound_to 7997
  154.6394  140.2518  155.7346 H   0  0  0  0  0  0  0  0  0  0  0  0  # atno 8010 bound_to 7997
  140.0040  143.5511  152.2291 H   0  0  0  0  0  0  0  0  0  0  0  0  # atno 10167 bound_to 10162
  157.5548  131.1092  150.8640 H   0  0  0  0  0  0  0  0  0  0  0  0  # atno 10718 bound_to 10713
  153.1371  135.4658  154.9439 H   0  0  0  0  0  0  0  0  0  0  0  0  # atno 10763 bound_to 10752
  154.7715  135.3160  154.8182 H   0  0  0  0  0  0  0  0  0  0  0  0  # atno 10764 bound_to 10752
  153.8712  135.6903  153.4828 H   0  0  0  0  0  0  0  0  0  0  0  0  # atno 10765 bound_to 10752
  141.0369  133.9895  157.3056 H   0  0  0  0  0  0  0  0  0  0  0  0  # atno 11005 bound_to 11000
  145.4286  139.1552  143.4035 LP  0  0  0  0  0  0  0  0  0  0  0  0  # atno 17320 bound_to 7965
  146.2871  140.4401  142.8754 LP  0  0  0  0  0  0  0  0  0  0  0  0  # atno 17321 bound_to 7965
  139.6252  144.7636  151.2655 LP  0  0  0  0  0  0  0  0  0  0  0  0  # atno 17342 bound_to 10162
  140.7408  143.6577  150.8191 LP  0  0  0  0  0  0  0  0  0  0  0  0  # atno 17343 bound_to 10162
  156.9154  130.5296  149.5279 LP  0  0  0  0  0  0  0  0  0  0  0  0  # atno 17370 bound_to 10713
  156.0609  130.5662  150.9190 LP  0  0  0  0  0  0  0  0  0  0  0  0  # atno 17371 bound_to 10713
  139.9247  135.0201  156.8192 LP  0  0  0  0  0  0  0  0  0  0  0  0  # atno 17394 bound_to 11000
  140.6305  133.9910  155.7660 LP  0  0  0  0  0  0  0  0  0  0  0  0  # atno 17395 bound_to 11000

$$$$
