AV-unprocessed.smi:1933|AV-procd|sdf|7818|dock8
  -GOLD-   22720 9563D 1   1.00000     0.00000
 Structure written by MMmdl.
 47 49  0  0  0  0  0  0  0  0  1 V2000
  145.0652  135.0850  153.8985 O   0  0  0  0  0  0  0  0  0  0  0  0
  146.1269  135.3038  153.3143 C   0  0  0  0  0  0  0  0  0  0  0  0
  147.0902  136.0949  153.8087 N   0  0  0  0  0  0  0  0  0  0  0  0
  147.0204  136.7870  155.0918 C   0  0  0  0  0  0  0  0  0  0  0  0
  148.4129  137.2313  155.6170 C   0  0  1  0  0  0  0  0  0  0  0  0
  148.8789  138.5908  155.0191 C   0  0  1  0  0  0  0  0  0  0  0  0
  148.3709  139.8882  155.6196 C   0  0  0  0  0  0  0  0  0  0  0  0
  149.2958  140.8986  154.9488 C   0  0  0  0  0  0  0  0  0  0  0  0
  150.5510  140.2344  154.8193 O   0  0  0  0  0  0  0  0  0  0  0  0
  150.3892  138.8325  155.0295 C   0  0  0  0  0  0  0  0  0  0  0  0
  148.5903  137.0922  157.0757 N   0  0  0  0  0  0  0  0  0  0  0  0
  147.9729  135.9063  157.6759 C   0  0  0  0  0  0  0  0  0  0  0  0
  148.1289  135.9024  159.2055 C   0  0  0  0  0  0  0  0  0  0  0  0
  149.5119  135.9627  159.5393 O   0  0  0  0  0  0  0  0  0  0  0  0
  150.1592  137.1118  159.0019 C   0  0  0  0  0  0  0  0  0  0  0  0
  149.9964  137.1344  157.4719 C   0  0  0  0  0  0  0  0  0  0  0  0
  146.4782  134.7937  152.1206 N   0  0  0  0  0  0  0  0  0  0  0  0
  145.7403  133.9017  151.2969 C   0  0  0  0  0  0  0  0  0  0  0  0
  146.5188  133.1123  150.4205 C   0  0  0  0  0  0  0  0  0  0  0  0
  145.8816  132.1918  149.5657 C   0  0  0  0  0  0  0  0  0  0  0  0
  144.4802  132.0848  149.6086 C   0  0  0  0  0  0  0  0  0  0  0  0
  143.7797  132.9089  150.5084 C   0  0  0  0  0  0  0  0  0  0  0  0
  144.3884  133.7910  151.3289 N   0  0  0  0  0  0  0  0  0  0  0  0
  147.9307  136.2244  153.2648 H   0  0  0  0  0  0  0  0  0  0  0  0
  146.3726  137.6540  154.9618 H   0  0  0  0  0  0  0  0  0  0  0  0
  146.5200  136.1382  155.8120 H   0  0  0  0  0  0  0  0  0  0  0  0
  149.1184  136.5297  155.1700 H   0  0  0  0  0  0  0  0  0  0  0  0
  148.5855  138.6004  153.9682 H   0  0  0  0  0  0  0  0  0  0  0  0
  147.3153  140.0775  155.4245 H   0  0  0  0  0  0  0  0  0  0  0  0
  148.5479  139.9366  156.6910 H   0  0  0  0  0  0  0  0  0  0  0  0
  148.9278  141.1498  153.9531 H   0  0  0  0  0  0  0  0  0  0  0  0
  149.3897  141.8234  155.5184 H   0  0  0  0  0  0  0  0  0  0  0  0
  150.8259  138.5794  155.9963 H   0  0  0  0  0  0  0  0  0  0  0  0
  150.9068  138.2545  154.2636 H   0  0  0  0  0  0  0  0  0  0  0  0
  146.9198  135.8306  157.4268 H   0  0  0  0  0  0  0  0  0  0  0  0
  148.4410  135.0027  157.2838 H   0  0  0  0  0  0  0  0  0  0  0  0
  147.5999  136.7462  159.6513 H   0  0  0  0  0  0  0  0  0  0  0  0
  147.7002  134.9940  159.6285 H   0  0  0  0  0  0  0  0  0  0  0  0
  149.7378  138.0144  159.4468 H   0  0  0  0  0  0  0  0  0  0  0  0
  151.2152  137.0850  159.2706 H   0  0  0  0  0  0  0  0  0  0  0  0
  150.5342  136.2899  157.0402 H   0  0  0  0  0  0  0  0  0  0  0  0
  150.4677  138.0366  157.0806 H   0  0  0  0  0  0  0  0  0  0  0  0
  147.3812  135.0679  151.7632 H   0  0  0  0  0  0  0  0  0  0  0  0
  147.5948  133.2067  150.4005 H   0  0  0  0  0  0  0  0  0  0  0  0
  146.4588  131.5787  148.8895 H   0  0  0  0  0  0  0  0  0  0  0  0
  143.9560  131.3899  148.9692 H   0  0  0  0  0  0  0  0  0  0  0  0
  142.7027  132.8584  150.5717 H   0  0  0  0  0  0  0  0  0  0  0  0
  1  2  2  0  0  0  0
  2  3  1  0  0  0  0
  2 17  1  0  0  0  0
  3  4  1  0  0  0  0
  3 24  1  0  0  0  0
  4  5  1  0  0  0  0
  4 25  1  0  0  0  0
  4 26  1  0  0  0  0
  5  6  1  0  0  0  0
  5 11  1  0  0  0  0
  5 27  1  0  0  0  0
  6 10  1  0  0  0  0
  6  7  1  0  0  0  0
  6 28  1  0  0  0  0
  7  8  1  0  0  0  0
  7 29  1  0  0  0  0
  7 30  1  0  0  0  0
  8  9  1  0  0  0  0
  8 31  1  0  0  0  0
  8 32  1  0  0  0  0
  9 10  1  0  0  0  0
 10 33  1  0  0  0  0
 10 34  1  0  0  0  0
 11 16  1  0  0  0  0
 11 12  1  0  0  0  0
 12 13  1  0  0  0  0
 12 35  1  0  0  0  0
 12 36  1  0  0  0  0
 13 14  1  0  0  0  0
 13 37  1  0  0  0  0
 13 38  1  0  0  0  0
 14 15  1  0  0  0  0
 15 16  1  0  0  0  0
 15 39  1  0  0  0  0
 15 40  1  0  0  0  0
 16 41  1  0  0  0  0
 16 42  1  0  0  0  0
 17 18  1  0  0  0  0
 17 43  1  0  0  0  0
 18 23  1  0  0  0  0
 18 19  2  0  0  0  0
 19 20  1  0  0  0  0
 19 44  1  0  0  0  0
 20 21  2  0  0  0  0
 20 45  1  0  0  0  0
 21 22  1  0  0  0  0
 21 46  1  0  0  0  0
 22 23  2  0  0  0  0
 22 47  1  0  0  0  0
M  END
> <s_m_source_file>
AV-unprocessed.smi

> <i_m_source_file_index>
1933

> <i_lp_mmshare_version>
43012

> <i_f3d_flags>
0

> <s_epik_input>
bjFbY0hdW2NIXVtjSF1bY0hdYzFbTkhdQyg9TylbTkhdW0NIMl1bQ0BIXShbQ0BASF0yW0NIMl1bQ0gyXU9bQ0gyXTIpTjNbQ0gyXVtDSDJdT1tDSDJdW0NIMl0z

> <s_epik_cmdline>
J2VwaWtfcHl0aG9uJywgJy1waCcsICc3LjAnLCAnLXRuJywgJzgnLCAnLW1hJywgJzIwMCcsICctbWV0YWxfYmluZGluZycsICctaW1hZScsICc8aW5maWxlLm1hZT4nLCAnLW9tYWUnLCAnPG91dGZpbGUubWFlPic=

> <r_epik_Ionization_Penalty>
0.125062

> <r_epik_Ionization_Penalty_Charging>
0

> <r_epik_Ionization_Penalty_Neutral>
0.125062

> <r_epik_State_Penalty>
0.114484

> <r_epik_Charging_Adjusted_Penalty>
0.114484

> <i_epik_Tot_Q>
0

> <i_epik_Tot_abs_Q>
0

> <r_epik_Metal_State_Penalty>
0.114484

> <b_epik_Metal_Only>
0

> <s_lp_Force_Field>
OPLS_2005

> <r_lp_Energy>
56.0331

> <b_lp_Chiralities_Consistent>
1

> <s_lp_Variant>
AV-unprocessed.smi:1933-4

> <Gold.Version>
5.8.1

> <Gold.Id.Protein>
6NUR|6NUR_protein|mol2

> <Gold.PLP.Fitness>
45.5053

> <Gold.PLP.PLP>
-32.5306

> <Gold.PLP.part.hbond>
-3.9058

> <Gold.PLP.part.metal>
0.0000

> <Gold.PLP.part.buried>
-4.5134

> <Gold.PLP.part.nonpolar>
-24.2119

> <Gold.PLP.part.repulsive>
0.3016

> <Gold.PLP.ligand.clash>
0.0000

> <Gold.PLP.ligand.torsion>
1.1359

> <Gold.PLP.Chemscore.Hbond>
3.9920

> <Gold.PLP.Chemscore.CHOScore>
1.0000

> <Gold.PLP.Chemscore.Metal>
0.0000

> <Gold.Chemscore.Hbonds>
donor molecule, donor type, donor heavy atom, donor atom, acceptor molecule, acceptor atom, score
      L1  H     3    24       P1  7948  1.00
      L1  H    17    43       P1  7948  1.00
      P1  H  6896  6908       L1    14  1.00
      P1  H  7989  7998       L1     9  1.00
      L1  C    22    47       P1 10186  0.97

> <Gold.PLP.Chemscore.Internal.Correction>
0.2704

> <Gold.Rescore>
     Score         DG    S(hbond)    S(metal)    S(lipo)     H(rot)  DE(clash)    DE(int)     intcor
     18.99     -22.35       3.72        0.00      75.49       1.72       0.01       3.35       ----

> <Gold.Chemscore.Fitness>
18.9940

> <Gold.Chemscore.DG>
-22.3526

> <Gold.Chemscore.ZeroCoef>
-5.4800

> <Gold.Chemscore.Hbond>
3.7226

> <Gold.Chemscore.Metal>
0.0000

> <Gold.Chemscore.Lipo>
75.4893

> <Gold.Chemscore.Internal_Hbond>
0.0000

> <Gold.Chemscore.DEClash>
0.0123

> <Gold.Chemscore.DEInternal>
3.3464

> <Gold.Chemscore.Rot>
1.7161

> <Gold.Chemscore.Internal.Correction>
   9.000000E+99

> <Gold.Chemscore.Hbonds>
donor molecule, donor type, donor heavy atom, donor atom, acceptor molecule, acceptor atom, score
      L1  H     3    24       P1  7948  0.99
      L1  H    17    43       P1  7948  0.84
      P1  H  6896  6908       L1    14  0.64
      P1  H  7989  7998       L1     9  0.89

> <Gold.Chemscore.Hbond.Weighted>
-12.4336

> <Gold.Chemscore.Metal.Weighted>
-0.0000

> <Gold.Chemscore.Lipo.Weighted>
-8.8322

> <Gold.Chemscore.Internal_Hbond.Weighted>
0.0000

> <Gold.Chemscore.DEClash.Weighted>
0.0123

> <Gold.Chemscore.DEInternal.Weighted>
3.3464

> <Gold.Chemscore.Rot.Weighted>
4.3932

> <Gold.Chemscore.Internal.Correction.Weighted>
   9.000000E+99

> <Gold.Protein.RotatedTorsions>
[ 6907 6896 6895 6894 ] final  173.01 input  -60.11 | X-H torsion
[ 7974 7965 7964 7962 ] final -133.71 input  175.53 | X-H torsion
[ 8008 7997 7996 7995 ] final   99.50 input   59.86 | X-H torsion
[ 10167 10162 10161 10158 ] final  115.53 input  -65.29 | X-H torsion
[ 10718 10713 10712 10709 ] final  172.26 input   66.30 | X-H torsion
[ 10763 10752 10751 10750 ] final  -49.62 input  -60.55 | X-H torsion
[ 11005 11000 10999 10996 ] final  109.18 input  -57.11 | X-H torsion

> <Gold.Protein.ActiveResidues>
 VAL166  LYS551  ARG553  GLY616  TRP617  ASP618  TYR619  PRO620  LYS621  CYS622 
 ASP623  PHE694  ASN695  SER759  ASP760  ASP761  ALA762  ILE779  LEU786  VAL792 
 PHE793  MET794  SER795  GLU796  ALA797  LYS798  CYS799  TRP800  GLU811  SER814 

> <Gold.Protein.RotatedAtoms>
  151.7752  133.3344  159.3455 H   0  0  0  0  0  0  0  0  0  0  0  0  # atno 6907 bound_to 6896
  150.7446  134.5982  159.6032 H   0  0  0  0  0  0  0  0  0  0  0  0  # atno 6908 bound_to 6896
  152.3314  134.7256  160.0340 H   0  0  0  0  0  0  0  0  0  0  0  0  # atno 6909 bound_to 6896
  144.9168  140.6964  143.4990 H   0  0  0  0  0  0  0  0  0  0  0  0  # atno 7974 bound_to 7965
  156.1111  140.3228  155.8074 H   0  0  0  0  0  0  0  0  0  0  0  0  # atno 8008 bound_to 7997
  155.4671  140.0544  157.3001 H   0  0  0  0  0  0  0  0  0  0  0  0  # atno 8009 bound_to 7997
  154.4760  140.2032  155.9891 H   0  0  0  0  0  0  0  0  0  0  0  0  # atno 8010 bound_to 7997
  139.6310  144.7115  151.2432 H   0  0  0  0  0  0  0  0  0  0  0  0  # atno 10167 bound_to 10162
  156.9815  131.0120  151.2880 H   0  0  0  0  0  0  0  0  0  0  0  0  # atno 10718 bound_to 10713
  154.0971  135.6569  153.4862 H   0  0  0  0  0  0  0  0  0  0  0  0  # atno 10763 bound_to 10752
  153.0301  135.5216  154.7323 H   0  0  0  0  0  0  0  0  0  0  0  0  # atno 10764 bound_to 10752
  154.6464  135.2995  155.0010 H   0  0  0  0  0  0  0  0  0  0  0  0  # atno 10765 bound_to 10752
  139.8857  134.9451  156.6087 H   0  0  0  0  0  0  0  0  0  0  0  0  # atno 11005 bound_to 11000
  145.3362  139.1745  143.4510 LP  0  0  0  0  0  0  0  0  0  0  0  0  # atno 17320 bound_to 7965
  146.3186  140.3398  142.8647 LP  0  0  0  0  0  0  0  0  0  0  0  0  # atno 17321 bound_to 7965
  140.7439  143.6480  150.8274 LP  0  0  0  0  0  0  0  0  0  0  0  0  # atno 17342 bound_to 10162
  140.0105  143.5648  152.2841 LP  0  0  0  0  0  0  0  0  0  0  0  0  # atno 17343 bound_to 10162
  157.5523  130.8190  149.8160 LP  0  0  0  0  0  0  0  0  0  0  0  0  # atno 17370 bound_to 10713
  156.0242  130.3785  150.1870 LP  0  0  0  0  0  0  0  0  0  0  0  0  # atno 17371 bound_to 10713
  140.7828  133.8646  155.8582 LP  0  0  0  0  0  0  0  0  0  0  0  0  # atno 17394 bound_to 11000
  140.9745  134.1487  157.4548 LP  0  0  0  0  0  0  0  0  0  0  0  0  # atno 17395 bound_to 11000

$$$$
