AV-unprocessed.smi:92|AV-procd|sdf|844|dock4
  -GOLD-   2262017283D 1   1.00000     0.00000
 Structure written by MMmdl.
 61 64  0  0  0  0  0  0  0  0  2 V2000
  150.5735  144.5663  158.6259 C   0  0  0  0  0  0  0  0  0  0  0  0
  150.9680  143.1207  158.2901 C   0  0  0  0  0  0  0  0  0  0  0  0
  150.1584  142.5518  157.1828 N   0  3  1  0  0  0  0  0  0  0  0  0
  150.9108  141.5838  156.3437 C   0  0  0  0  0  0  0  0  0  0  0  0
  150.0807  141.1567  155.1256 C   0  0  0  0  0  0  0  0  0  0  0  0
  148.7226  140.5635  155.5587 C   0  0  2  0  0  0  0  0  0  0  0  0
  147.9301  140.0646  154.4237 N   0  0  0  0  0  0  0  0  0  0  0  0
  147.3034  141.0464  153.5443 C   0  0  0  0  0  0  0  0  0  0  0  0
  147.3185  138.8495  154.4298 C   0  0  0  0  0  0  0  0  0  0  0  0
  147.2658  138.1133  155.5707 N   0  0  0  0  0  0  0  0  0  0  0  0
  146.6522  136.9266  155.5849 C   0  0  0  0  0  0  0  0  0  0  0  0
  146.0369  136.2944  154.5847 N   0  0  0  0  0  0  0  0  0  0  0  0
  146.0875  137.0232  153.4334 C   0  0  0  0  0  0  0  0  0  0  0  0
  146.6952  138.3010  153.2724 C   0  0  0  0  0  0  0  0  0  0  0  0
  146.5396  138.7345  151.9611 N   0  0  0  0  0  0  0  0  0  0  0  0
  145.8684  137.7756  151.3845 C   0  0  0  0  0  0  0  0  0  0  0  0
  145.5822  136.6946  152.1870 N   0  0  0  0  0  0  0  0  0  0  0  0
  144.8308  135.5297  151.8192 C   0  0  0  0  0  0  0  0  0  0  0  0
  144.7525  134.3138  152.7468 C   0  0  0  0  0  0  0  0  0  0  0  0
  144.7810  133.3645  151.5285 C   0  0  0  0  0  0  0  0  0  0  0  0
  145.7514  132.1792  151.6485 C   0  0  0  0  0  0  0  0  0  0  0  0
  146.2633  131.8035  150.3861 O   0  0  0  0  0  0  0  0  0  0  0  0
  143.4283  132.7963  151.0437 C   0  0  0  0  0  0  0  0  0  0  0  0
  143.5560  131.8839  149.9722 O   0  0  0  0  0  0  0  0  0  0  0  0
  145.3387  134.5694  150.7382 C   0  0  0  0  0  0  0  0  0  0  0  0
  147.9671  141.5436  156.4965 C   0  0  1  0  0  0  0  0  0  0  0  0
  146.6616  140.9375  157.0413 C   0  0  0  0  0  0  0  0  0  0  0  0
  148.8812  141.9663  157.6651 C   0  0  0  0  0  0  0  0  0  0  0  0
  151.1154  144.9155  159.5051 H   0  0  0  0  0  0  0  0  0  0  0  0
  149.5077  144.6437  158.8436 H   0  0  0  0  0  0  0  0  0  0  0  0
  150.8027  145.2550  157.8133 H   0  0  0  0  0  0  0  0  0  0  0  0
  152.0303  143.0556  158.0510 H   0  0  0  0  0  0  0  0  0  0  0  0
  150.8173  142.5221  159.1894 H   0  0  0  0  0  0  0  0  0  0  0  0
  151.8429  142.0249  155.9932 H   0  0  0  0  0  0  0  0  0  0  0  0
  151.1799  140.7112  156.9410 H   0  0  0  0  0  0  0  0  0  0  0  0
  149.9426  142.0212  154.4777 H   0  0  0  0  0  0  0  0  0  0  0  0
  150.6439  140.4268  154.5434 H   0  0  0  0  0  0  0  0  0  0  0  0
  148.9463  139.6809  156.1600 H   0  0  0  0  0  0  0  0  0  0  0  0
  147.7012  140.9575  152.5333 H   0  0  0  0  0  0  0  0  0  0  0  0
  147.4970  142.0637  153.8850 H   0  0  0  0  0  0  0  0  0  0  0  0
  146.2216  140.9106  153.5028 H   0  0  0  0  0  0  0  0  0  0  0  0
  146.6550  136.4091  156.5329 H   0  0  0  0  0  0  0  0  0  0  0  0
  145.5699  137.8290  150.3475 H   0  0  0  0  0  0  0  0  0  0  0  0
  143.8306  135.8893  151.5753 H   0  0  0  0  0  0  0  0  0  0  0  0
  145.6382  134.2190  153.3775 H   0  0  0  0  0  0  0  0  0  0  0  0
  143.8423  134.2643  153.3452 H   0  0  0  0  0  0  0  0  0  0  0  0
  146.5840  132.4152  152.3121 H   0  0  0  0  0  0  0  0  0  0  0  0
  145.2538  131.3083  152.0766 H   0  0  0  0  0  0  0  0  0  0  0  0
  147.1955  131.6699  150.4688 H   0  0  0  0  0  0  0  0  0  0  0  0
  142.9140  132.2809  151.8553 H   0  0  0  0  0  0  0  0  0  0  0  0
  142.7646  133.5952  150.7124 H   0  0  0  0  0  0  0  0  0  0  0  0
  142.7823  131.3418  149.9453 H   0  0  0  0  0  0  0  0  0  0  0  0
  144.8903  134.7221  149.7560 H   0  0  0  0  0  0  0  0  0  0  0  0
  146.4278  134.5627  150.6689 H   0  0  0  0  0  0  0  0  0  0  0  0
  147.7097  142.4523  155.9539 H   0  0  0  0  0  0  0  0  0  0  0  0
  146.8525  140.0162  157.5926 H   0  0  0  0  0  0  0  0  0  0  0  0
  145.9602  140.7052  156.2398 H   0  0  0  0  0  0  0  0  0  0  0  0
  146.1588  141.6304  157.7164 H   0  0  0  0  0  0  0  0  0  0  0  0
  149.0955  141.1122  158.3102 H   0  0  0  0  0  0  0  0  0  0  0  0
  148.3557  142.6998  158.2786 H   0  0  0  0  0  0  0  0  0  0  0  0
  149.9052  143.3270  156.5867 H   0  0  0  0  0  0  0  0  0  0  0  0
  1  2  1  0  0  0  0
  1 29  1  0  0  0  0
  1 30  1  0  0  0  0
  1 31  1  0  0  0  0
  2  3  1  0  0  0  0
  2 32  1  0  0  0  0
  2 33  1  0  0  0  0
  3 28  1  0  0  0  0
  3  4  1  0  0  0  0
  3 61  1  0  0  0  0
  4  5  1  0  0  0  0
  4 34  1  0  0  0  0
  4 35  1  0  0  0  0
  5  6  1  0  0  0  0
  5 36  1  0  0  0  0
  5 37  1  0  0  0  0
  6  7  1  0  0  0  0
  6 26  1  0  0  0  0
  6 38  1  0  0  0  0
  7  8  1  0  0  0  0
  7  9  1  0  0  0  0
  8 39  1  0  0  0  0
  8 40  1  0  0  0  0
  8 41  1  0  0  0  0
  9 14  1  0  0  0  0
  9 10  2  0  0  0  0
 10 11  1  0  0  0  0
 11 12  2  0  0  0  0
 11 42  1  0  0  0  0
 12 13  1  0  0  0  0
 13 17  1  0  0  0  0
 13 14  2  0  0  0  0
 14 15  1  0  0  0  0
 15 16  2  0  0  0  0
 16 17  1  0  0  0  0
 16 43  1  0  0  0  0
 17 18  1  0  0  0  0
 18 25  1  0  0  0  0
 18 19  1  0  0  0  0
 18 44  1  0  0  0  0
 19 20  1  0  0  0  0
 19 45  1  0  0  0  0
 19 46  1  0  0  0  0
 20 21  1  0  0  0  0
 20 23  1  0  0  0  0
 20 25  1  0  0  0  0
 21 22  1  0  0  0  0
 21 47  1  0  0  0  0
 21 48  1  0  0  0  0
 22 49  1  0  0  0  0
 23 24  1  0  0  0  0
 23 50  1  0  0  0  0
 23 51  1  0  0  0  0
 24 52  1  0  0  0  0
 25 53  1  0  0  0  0
 25 54  1  0  0  0  0
 26 27  1  0  0  0  0
 26 28  1  0  0  0  0
 26 55  1  0  0  0  0
 27 56  1  0  0  0  0
 27 57  1  0  0  0  0
 27 58  1  0  0  0  0
 28 59  1  0  0  0  0
 28 60  1  0  0  0  0
M  CHG  1   3   1
M  END
> <s_m_source_file>
AV-unprocessed.smi

> <i_m_source_file_index>
92

> <i_lp_mmshare_version>
43012

> <i_f3d_flags>
0

> <s_epik_input>
W0NIM11bQ0gyXU4xW0NIMl1bQ0gyXVtDQEhdKFtDQEBIXShbQ0gzXSlbQ0gyXTEpTihbQ0gzXSljKG5bY0hdbjIpYyhjMjMpbltjSF1uM1tDSF0oW0NIMl00KVtDSDJdQzQoW0NIMl1bT0hdKVtDSDJdW09IXQ==

> <s_epik_cmdline>
J2VwaWtfcHl0aG9uJywgJy1waCcsICc3LjAnLCAnLXRuJywgJzgnLCAnLW1hJywgJzIwMCcsICctbWV0YWxfYmluZGluZycsICctaW1hZScsICc8aW5maWxlLm1hZT4nLCAnLW9tYWUnLCAnPG91dGZpbGUubWFlPic=

> <r_lp_tautomer_probability>
1

> <r_epik_Ionization_Penalty>
0.00235514

> <r_epik_Ionization_Penalty_Charging>
0.00137877

> <r_epik_Ionization_Penalty_Neutral>
0.000976366

> <r_epik_State_Penalty>
-0

> <r_epik_Charging_Adjusted_Penalty>
0.00137877

> <i_epik_Tot_Q>
1

> <i_epik_Tot_abs_Q>
1

> <r_epik_Metal_State_Penalty>
-0

> <b_epik_Metal_Only>
0

> <s_lp_Force_Field>
OPLS_2005

> <r_lp_Energy>
51.4593

> <b_lp_Chiralities_Consistent>
1

> <s_lp_Variant>
AV-unprocessed.smi:92-4

> <Gold.Version>
5.8.1

> <Gold.Id.Protein>
6NUR|6NUR_protein|mol2

> <Gold.PLP.Fitness>
50.9568

> <Gold.PLP.PLP>
-39.6069

> <Gold.PLP.part.hbond>
-3.5156

> <Gold.PLP.part.metal>
0.0000

> <Gold.PLP.part.buried>
-4.7656

> <Gold.PLP.part.nonpolar>
-33.3226

> <Gold.PLP.part.repulsive>
0.4320

> <Gold.PLP.ligand.clash>
0.0000

> <Gold.PLP.ligand.torsion>
1.5455

> <Gold.PLP.Chemscore.Hbond>
3.6338

> <Gold.PLP.Chemscore.CHOScore>
0.7572

> <Gold.PLP.Chemscore.Metal>
0.0000

> <Gold.Chemscore.Hbonds>
donor molecule, donor type, donor heavy atom, donor atom, acceptor molecule, acceptor atom, score
      L1  H     3    61       P1  8028  2.00
      L1  H    22    49       P1 10747  1.00
      L1  H    24    52       P1 10952  0.50
      L1  C    16    43       P1 10171  0.63

> <Gold.PLP.Chemscore.Internal.Correction>
1.2680

> <Gold.Rescore>
     Score         DG    S(hbond)    S(metal)    S(lipo)     H(rot)  DE(clash)    DE(int)     intcor
     11.80     -17.28       2.84        0.00      90.38       3.22       1.59       3.88       ----

> <Gold.Chemscore.Fitness>
11.8019

> <Gold.Chemscore.DG>
-17.2763

> <Gold.Chemscore.ZeroCoef>
-5.4800

> <Gold.Chemscore.Hbond>
2.8352

> <Gold.Chemscore.Metal>
0.0000

> <Gold.Chemscore.Lipo>
90.3828

> <Gold.Chemscore.Internal_Hbond>
0.0000

> <Gold.Chemscore.DEClash>
1.5909

> <Gold.Chemscore.DEInternal>
3.8835

> <Gold.Chemscore.Rot>
3.2219

> <Gold.Chemscore.Internal.Correction>
   9.000000E+99

> <Gold.Chemscore.Hbonds>
donor molecule, donor type, donor heavy atom, donor atom, acceptor molecule, acceptor atom, score
      L1  H     3    61       P1  8028  0.98
      L1  H    22    49       P1 10747  0.98
      L1  H    24    52       P1 10952  0.48

> <Gold.Chemscore.Hbond.Weighted>
-9.4697

> <Gold.Chemscore.Metal.Weighted>
-0.0000

> <Gold.Chemscore.Lipo.Weighted>
-10.5748

> <Gold.Chemscore.Internal_Hbond.Weighted>
0.0000

> <Gold.Chemscore.DEClash.Weighted>
1.5909

> <Gold.Chemscore.DEInternal.Weighted>
3.8835

> <Gold.Chemscore.Rot.Weighted>
8.2482

> <Gold.Chemscore.Internal.Correction.Weighted>
   9.000000E+99

> <Gold.Protein.RotatedTorsions>
[ 6907 6896 6895 6894 ] final -106.70 input  -60.11 | X-H torsion
[ 7974 7965 7964 7962 ] final  -51.90 input  175.53 | X-H torsion
[ 8008 7997 7996 7995 ] final -164.74 input   59.86 | X-H torsion
[ 10167 10162 10161 10158 ] final  -57.59 input  -65.29 | X-H torsion
[ 10718 10713 10712 10709 ] final    3.35 input   66.30 | X-H torsion
[ 10763 10752 10751 10750 ] final   86.35 input  -60.55 | X-H torsion
[ 11005 11000 10999 10996 ] final  -28.27 input  -57.11 | X-H torsion

> <Gold.Protein.ActiveResidues>
 VAL166  LYS551  ARG553  GLY616  TRP617  ASP618  TYR619  PRO620  LYS621  CYS622 
 ASP623  PHE694  ASN695  SER759  ASP760  ASP761  ALA762  ILE779  LEU786  VAL792 
 PHE793  MET794  SER795  GLU796  ALA797  LYS798  CYS799  TRP800  GLU811  SER814 

> <Gold.Protein.RotatedAtoms>
  150.7403  133.9936  159.3614 H   0  0  0  0  0  0  0  0  0  0  0  0  # atno 6907 bound_to 6896
  151.7886  135.0740  160.0393 H   0  0  0  0  0  0  0  0  0  0  0  0  # atno 6908 bound_to 6896
  152.3224  133.5831  159.5790 H   0  0  0  0  0  0  0  0  0  0  0  0  # atno 6909 bound_to 6896
  145.9139  140.7892  142.9681 H   0  0  0  0  0  0  0  0  0  0  0  0  # atno 7974 bound_to 7965
  155.8399  140.0947  157.1741 H   0  0  0  0  0  0  0  0  0  0  0  0  # atno 8008 bound_to 7997
  154.3981  140.1403  156.3777 H   0  0  0  0  0  0  0  0  0  0  0  0  # atno 8009 bound_to 7997
  155.8075  140.3451  155.5441 H   0  0  0  0  0  0  0  0  0  0  0  0  # atno 8010 bound_to 7997
  140.6249  143.2434  151.5389 H   0  0  0  0  0  0  0  0  0  0  0  0  # atno 10167 bound_to 10162
  156.8765  130.5638  149.5655 H   0  0  0  0  0  0  0  0  0  0  0  0  # atno 10718 bound_to 10713
  153.1562  135.4583  154.9707 H   0  0  0  0  0  0  0  0  0  0  0  0  # atno 10763 bound_to 10752
  154.7863  135.3205  154.7881 H   0  0  0  0  0  0  0  0  0  0  0  0  # atno 10764 bound_to 10752
  153.8378  135.6933  153.4861 H   0  0  0  0  0  0  0  0  0  0  0  0  # atno 10765 bound_to 10752
  140.9194  133.7409  156.0780 H   0  0  0  0  0  0  0  0  0  0  0  0  # atno 11005 bound_to 11000
  144.6746  140.1868  143.7400 LP  0  0  0  0  0  0  0  0  0  0  0  0  # atno 17320 bound_to 7965
  145.8637  139.2236  143.1701 LP  0  0  0  0  0  0  0  0  0  0  0  0  # atno 17321 bound_to 7965
  139.5471  144.2493  152.1462 LP  0  0  0  0  0  0  0  0  0  0  0  0  # atno 17342 bound_to 10162
  140.1722  144.4925  150.6573 LP  0  0  0  0  0  0  0  0  0  0  0  0  # atno 17343 bound_to 10162
  156.0699  130.5734  150.9363 LP  0  0  0  0  0  0  0  0  0  0  0  0  # atno 17370 bound_to 10713
  157.6165  131.0933  150.8700 LP  0  0  0  0  0  0  0  0  0  0  0  0  # atno 17371 bound_to 10713
  140.8008  134.3511  157.5440 LP  0  0  0  0  0  0  0  0  0  0  0  0  # atno 17394 bound_to 11000
  139.8772  134.9196  156.3231 LP  0  0  0  0  0  0  0  0  0  0  0  0  # atno 17395 bound_to 11000

$$$$
