AV-unprocessed.smi:2310|AV-procd|sdf|9257|dock5
  -GOLD-   2272012483D 1   1.00000     0.00000
 Structure written by MMmdl.
 46 47  0  0  0  0  0  0  0  0  2 V2000
  149.3884  132.5890  153.7723 C   0  0  0  0  0  0  0  0  0  0  0  0
  149.1843  134.1108  153.8042 C   0  0  0  0  0  0  0  0  0  0  0  0
  149.9601  134.8212  154.9320 C   0  0  2  0  0  0  0  0  0  0  0  0
  149.3979  134.4870  156.3264 C   0  0  0  0  0  0  0  0  0  0  0  0
  150.0915  133.3723  156.9909 C   0  0  0  0  0  0  0  0  0  0  0  0
  150.6366  132.4957  157.5133 N   0  0  0  0  0  0  0  0  0  0  0  0
  149.9446  136.2672  154.7200 N   0  0  0  0  0  0  0  0  0  0  0  0
  150.2862  137.1853  155.6351 C   0  0  0  0  0  0  0  0  0  0  0  0
  150.6298  136.9041  156.7829 O   0  0  0  0  0  0  0  0  0  0  0  0
  150.1858  138.4304  155.1381 N   0  0  0  0  0  0  0  0  0  0  0  0
  150.4487  139.6683  155.7901 C   0  0  0  0  0  0  0  0  0  0  0  0
  151.3460  139.7820  156.8826 C   0  0  0  0  0  0  0  0  0  0  0  0
  151.5777  141.0406  157.4720 C   0  0  0  0  0  0  0  0  0  0  0  0
  150.9195  142.1793  156.9566 C   0  0  0  0  0  0  0  0  0  0  0  0
  151.0822  143.4749  157.4669 N   0  0  0  0  0  0  0  0  0  0  0  0
  150.2555  143.7820  158.6221 C   0  0  0  0  0  0  0  0  0  0  0  0
  150.8776  145.0305  159.2542 C   0  0  0  0  0  0  0  0  0  0  0  0
  152.3170  145.0653  158.7268 C   0  0  0  0  0  0  0  0  0  0  0  0
  152.4421  143.8199  157.8463 C   0  0  0  0  0  0  0  0  0  0  0  0
  150.0840  142.0335  155.9063 N   0  3  0  0  0  0  0  0  0  0  0  0
  149.8281  140.8491  155.3069 C   0  0  0  0  0  0  0  0  0  0  0  0
  148.8618  140.8853  154.1341 C   0  0  0  0  0  0  0  0  0  0  0  0
  148.7799  132.1353  152.9898 H   0  0  0  0  0  0  0  0  0  0  0  0
  149.1016  132.1341  154.7207 H   0  0  0  0  0  0  0  0  0  0  0  0
  150.4271  132.3247  153.5735 H   0  0  0  0  0  0  0  0  0  0  0  0
  149.4687  134.5333  152.8397 H   0  0  0  0  0  0  0  0  0  0  0  0
  148.1181  134.3086  153.9167 H   0  0  0  0  0  0  0  0  0  0  0  0
  150.9952  134.4763  154.8905 H   0  0  0  0  0  0  0  0  0  0  0  0
  149.4706  135.3504  156.9881 H   0  0  0  0  0  0  0  0  0  0  0  0
  148.3418  134.2245  156.2584 H   0  0  0  0  0  0  0  0  0  0  0  0
  149.6695  136.5869  153.8027 H   0  0  0  0  0  0  0  0  0  0  0  0
  149.8067  138.5050  154.2054 H   0  0  0  0  0  0  0  0  0  0  0  0
  151.8762  138.9277  157.2739 H   0  0  0  0  0  0  0  0  0  0  0  0
  152.2581  141.1236  158.3068 H   0  0  0  0  0  0  0  0  0  0  0  0
  149.2200  143.9559  158.3280 H   0  0  0  0  0  0  0  0  0  0  0  0
  150.2689  142.9554  159.3336 H   0  0  0  0  0  0  0  0  0  0  0  0
  150.3431  145.9262  158.9349 H   0  0  0  0  0  0  0  0  0  0  0  0
  150.8360  144.9901  160.3431 H   0  0  0  0  0  0  0  0  0  0  0  0
  152.4715  145.9664  158.1320 H   0  0  0  0  0  0  0  0  0  0  0  0
  153.0550  145.0673  159.5294 H   0  0  0  0  0  0  0  0  0  0  0  0
  152.9029  143.0083  158.4107 H   0  0  0  0  0  0  0  0  0  0  0  0
  153.0588  144.0107  156.9676 H   0  0  0  0  0  0  0  0  0  0  0  0
  148.6854  139.9052  153.6928 H   0  0  0  0  0  0  0  0  0  0  0  0
  149.2501  141.5370  153.3510 H   0  0  0  0  0  0  0  0  0  0  0  0
  147.8986  141.2813  154.4570 H   0  0  0  0  0  0  0  0  0  0  0  0
  149.6196  142.8663  155.5433 H   0  0  0  0  0  0  0  0  0  0  0  0
  1  2  1  0  0  0  0
  1 23  1  0  0  0  0
  1 24  1  0  0  0  0
  1 25  1  0  0  0  0
  2  3  1  0  0  0  0
  2 26  1  0  0  0  0
  2 27  1  0  0  0  0
  3  4  1  0  0  0  0
  3  7  1  0  0  0  0
  3 28  1  0  0  0  0
  4  5  1  0  0  0  0
  4 29  1  0  0  0  0
  4 30  1  0  0  0  0
  5  6  3  0  0  0  0
  7  8  1  0  0  0  0
  7 31  1  0  0  0  0
  8  9  2  0  0  0  0
  8 10  1  0  0  0  0
 10 11  1  0  0  0  0
 10 32  1  0  0  0  0
 11 21  1  0  0  0  0
 11 12  2  0  0  0  0
 12 13  1  0  0  0  0
 12 33  1  0  0  0  0
 13 14  2  0  0  0  0
 13 34  1  0  0  0  0
 14 15  1  0  0  0  0
 14 20  1  0  0  0  0
 15 19  1  0  0  0  0
 15 16  1  0  0  0  0
 16 17  1  0  0  0  0
 16 35  1  0  0  0  0
 16 36  1  0  0  0  0
 17 18  1  0  0  0  0
 17 37  1  0  0  0  0
 17 38  1  0  0  0  0
 18 19  1  0  0  0  0
 18 39  1  0  0  0  0
 18 40  1  0  0  0  0
 19 41  1  0  0  0  0
 19 42  1  0  0  0  0
 20 21  2  0  0  0  0
 20 46  1  0  0  0  0
 21 22  1  0  0  0  0
 22 43  1  0  0  0  0
 22 44  1  0  0  0  0
 22 45  1  0  0  0  0
M  CHG  1  20   1
M  END
> <s_m_source_file>
AV-unprocessed.smi

> <i_m_source_file_index>
2310

> <i_lp_mmshare_version>
43012

> <i_f3d_flags>
0

> <s_epik_input>
TiNDW0NIMl1bQ0BASF0oW0NIMl1bQ0gzXSlbTkhdQyg9TylbTkhdYzFbY0hdW2NIXWMobmMxW0NIM10pTjJbQ0gyXVtDSDJdW0NIMl1bQ0gyXTI=

> <s_epik_cmdline>
J2VwaWtfcHl0aG9uJywgJy1waCcsICc3LjAnLCAnLXRuJywgJzgnLCAnLW1hJywgJzIwMCcsICctbWV0YWxfYmluZGluZycsICctaW1hZScsICc8aW5maWxlLm1hZT4nLCAnLW9tYWUnLCAnPG91dGZpbGUubWFlPic=

> <r_lp_tautomer_probability>
0.999994

> <r_epik_Ionization_Penalty>
0.577302

> <r_epik_Ionization_Penalty_Charging>
0.577278

> <r_epik_Ionization_Penalty_Neutral>
2.39253e-05

> <r_epik_State_Penalty>
0.589738

> <r_epik_Charging_Adjusted_Penalty>
1.16702

> <i_epik_Tot_Q>
1

> <i_epik_Tot_abs_Q>
1

> <r_epik_Metal_State_Penalty>
0.784556

> <b_epik_Metal_Only>
0

> <s_lp_Force_Field>
OPLS_2005

> <r_lp_Energy>
39.7138

> <b_lp_Chiralities_Consistent>
1

> <s_lp_Variant>
AV-unprocessed.smi:2310-3

> <Gold.Version>
5.8.1

> <Gold.Id.Protein>
6NUR|6NUR_protein|mol2

> <Gold.PLP.Fitness>
45.3011

> <Gold.PLP.PLP>
-36.4512

> <Gold.PLP.part.hbond>
-3.0000

> <Gold.PLP.part.metal>
0.0000

> <Gold.PLP.part.buried>
-3.7030

> <Gold.PLP.part.nonpolar>
-30.5962

> <Gold.PLP.part.repulsive>
0.4542

> <Gold.PLP.ligand.clash>
0.0000

> <Gold.PLP.ligand.torsion>
1.4945

> <Gold.PLP.Chemscore.Hbond>
3.9263

> <Gold.PLP.Chemscore.CHOScore>
0.0000

> <Gold.PLP.Chemscore.Metal>
0.0000

> <Gold.Chemscore.Hbonds>
donor molecule, donor type, donor heavy atom, donor atom, acceptor molecule, acceptor atom, score
      L1  H     7    31       P1  7948  0.91
      L1  H    20    46       P1  8028  2.00
      P1  H  6896  6908       L1     6  1.00

> <Gold.PLP.Chemscore.Internal.Correction>
0.0600

> <Gold.Rescore>
     Score         DG    S(hbond)    S(metal)    S(lipo)     H(rot)  DE(clash)    DE(int)     intcor
     15.11     -21.95       2.64        0.00     102.15       1.68       2.74       4.09       ----

> <Gold.Chemscore.Fitness>
15.1148

> <Gold.Chemscore.DG>
-21.9489

> <Gold.Chemscore.ZeroCoef>
-5.4800

> <Gold.Chemscore.Hbond>
2.6414

> <Gold.Chemscore.Metal>
0.0000

> <Gold.Chemscore.Lipo>
102.1474

> <Gold.Chemscore.Internal_Hbond>
0.0000

> <Gold.Chemscore.DEClash>
2.7426

> <Gold.Chemscore.DEInternal>
4.0914

> <Gold.Chemscore.Rot>
1.6815

> <Gold.Chemscore.Internal.Correction>
   9.000000E+99

> <Gold.Chemscore.Hbonds>
donor molecule, donor type, donor heavy atom, donor atom, acceptor molecule, acceptor atom, score
      L1  H     7    31       P1  7948  0.54
      L1  H    20    46       P1  8028  0.95
      P1  H  6896  6908       L1     6  0.24

> <Gold.Chemscore.Hbond.Weighted>
-8.8221

> <Gold.Chemscore.Metal.Weighted>
-0.0000

> <Gold.Chemscore.Lipo.Weighted>
-11.9512

> <Gold.Chemscore.Internal_Hbond.Weighted>
0.0000

> <Gold.Chemscore.DEClash.Weighted>
2.7426

> <Gold.Chemscore.DEInternal.Weighted>
4.0914

> <Gold.Chemscore.Rot.Weighted>
4.3045

> <Gold.Chemscore.Internal.Correction.Weighted>
   9.000000E+99

> <Gold.Protein.RotatedTorsions>
[ 6907 6896 6895 6894 ] final   86.02 input  -60.11 | X-H torsion
[ 7974 7965 7964 7962 ] final -176.55 input  175.53 | X-H torsion
[ 8008 7997 7996 7995 ] final  171.77 input   59.86 | X-H torsion
[ 10167 10162 10161 10158 ] final  112.83 input  -65.29 | X-H torsion
[ 10718 10713 10712 10709 ] final  -33.48 input   66.30 | X-H torsion
[ 10763 10752 10751 10750 ] final  117.46 input  -60.55 | X-H torsion
[ 11005 11000 10999 10996 ] final   -2.79 input  -57.11 | X-H torsion

> <Gold.Protein.ActiveResidues>
 VAL166  LYS551  ARG553  GLY616  TRP617  ASP618  TYR619  PRO620  LYS621  CYS622 
 ASP623  PHE694  ASN695  SER759  ASP760  ASP761  ALA762  ILE779  LEU786  VAL792 
 PHE793  MET794  SER795  GLU796  ALA797  LYS798  CYS799  TRP800  GLU811  SER814 

> <Gold.Protein.RotatedAtoms>
  152.5386  134.2496  159.8893 H   0  0  0  0  0  0  0  0  0  0  0  0  # atno 6907 bound_to 6896
  151.2460  133.4368  159.2617 H   0  0  0  0  0  0  0  0  0  0  0  0  # atno 6908 bound_to 6896
  151.0583  134.9733  159.8303 H   0  0  0  0  0  0  0  0  0  0  0  0  # atno 6909 bound_to 6896
  144.7127  140.1154  143.6408 H   0  0  0  0  0  0  0  0  0  0  0  0  # atno 7974 bound_to 7965
  156.1239  140.1503  156.9164 H   0  0  0  0  0  0  0  0  0  0  0  0  # atno 8008 bound_to 7997
  154.4857  140.0866  156.7521 H   0  0  0  0  0  0  0  0  0  0  0  0  # atno 8009 bound_to 7997
  155.4378  140.3430  155.4289 H   0  0  0  0  0  0  0  0  0  0  0  0  # atno 8010 bound_to 7997
  139.6506  144.7128  151.2056 H   0  0  0  0  0  0  0  0  0  0  0  0  # atno 10167 bound_to 10162
  156.3621  130.4325  149.7615 H   0  0  0  0  0  0  0  0  0  0  0  0  # atno 10718 bound_to 10713
  153.5528  135.3536  155.2766 H   0  0  0  0  0  0  0  0  0  0  0  0  # atno 10763 bound_to 10752
  154.8705  135.4118  154.2918 H   0  0  0  0  0  0  0  0  0  0  0  0  # atno 10764 bound_to 10752
  153.3648  135.7061  153.6753 H   0  0  0  0  0  0  0  0  0  0  0  0  # atno 10765 bound_to 10752
  140.6622  133.9310  155.8443 H   0  0  0  0  0  0  0  0  0  0  0  0  # atno 11005 bound_to 11000
  145.9418  139.2674  143.1264 LP  0  0  0  0  0  0  0  0  0  0  0  0  # atno 17320 bound_to 7965
  145.9415  140.8976  143.0305 LP  0  0  0  0  0  0  0  0  0  0  0  0  # atno 17321 bound_to 7965
  140.7536  143.6157  150.8562 LP  0  0  0  0  0  0  0  0  0  0  0  0  # atno 17342 bound_to 10162
  139.9804  143.5957  152.2944 LP  0  0  0  0  0  0  0  0  0  0  0  0  # atno 17343 bound_to 10162
  156.4775  130.8025  151.3041 LP  0  0  0  0  0  0  0  0  0  0  0  0  # atno 17370 bound_to 10713
  157.7474  131.0016  150.2970 LP  0  0  0  0  0  0  0  0  0  0  0  0  # atno 17371 bound_to 10713
  141.0457  134.0558  157.3847 LP  0  0  0  0  0  0  0  0  0  0  0  0  # atno 17394 bound_to 11000
  139.9009  135.0164  156.7264 LP  0  0  0  0  0  0  0  0  0  0  0  0  # atno 17395 bound_to 11000

$$$$
