AV-unprocessed.smi:906|AV-procd|sdf|4104|dock8
  -GOLD-   22720 1593D 1   1.00000     0.00000
 Structure written by MMmdl.
 48 49  0  0  0  0  0  0  0  0  2 V2000
  151.8892  145.5991  159.8068 C   0  0  0  0  0  0  0  0  0  0  0  0
  151.8428  144.0994  159.6027 C   0  0  0  0  0  0  0  0  0  0  0  0
  152.6795  143.2410  160.3470 C   0  0  0  0  0  0  0  0  0  0  0  0
  152.5913  141.8545  160.1178 C   0  0  0  0  0  0  0  0  0  0  0  0
  151.6738  141.3810  159.1577 C   0  0  0  0  0  0  0  0  0  0  0  0
  151.5333  139.8975  158.8804 C   0  0  0  0  0  0  0  0  0  0  0  0
  152.4441  139.4385  157.7301 C   0  0  0  0  0  0  0  0  0  0  0  0
  151.6787  138.8345  156.6462 N   0  0  0  0  0  0  0  0  0  0  0  0
  151.1769  139.4947  155.5889 C   0  0  0  0  0  0  0  0  0  0  0  0
  151.3458  140.7041  155.4289 O   0  0  0  0  0  0  0  0  0  0  0  0
  150.5390  138.7103  154.6849 N   0  0  0  0  0  0  0  0  0  0  0  0
  150.2739  137.2714  154.8287 C   0  0  0  0  0  0  0  0  0  0  0  0
  148.7884  137.0692  155.1821 C   0  0  0  0  0  0  0  0  0  0  0  0
  147.9000  137.7068  154.1677 N   0  3  0  0  0  0  0  0  0  0  0  0
  146.4333  137.4951  154.3624 C   0  0  2  0  0  0  0  0  0  0  0  0
  146.0976  136.5583  155.5410 C   0  0  0  0  0  0  0  0  0  0  0  0
  145.7291  137.0752  153.0529 C   0  0  0  0  0  0  0  0  0  0  0  0
  144.4106  137.2267  153.1804 F   0  0  0  0  0  0  0  0  0  0  0  0
  146.1478  137.7915  152.0103 F   0  0  0  0  0  0  0  0  0  0  0  0
  145.9790  135.7894  152.8070 F   0  0  0  0  0  0  0  0  0  0  0  0
  148.2563  139.1279  153.8992 C   0  0  0  0  0  0  0  0  0  0  0  0
  149.7555  139.2778  153.5843 C   0  0  0  0  0  0  0  0  0  0  0  0
  150.8840  142.3238  158.4664 C   0  0  0  0  0  0  0  0  0  0  0  0
  150.9615  143.6550  158.6797 N   0  0  0  0  0  0  0  0  0  0  0  0
  152.6524  145.8757  160.5347 H   0  0  0  0  0  0  0  0  0  0  0  0
  150.9269  145.9626  160.1687 H   0  0  0  0  0  0  0  0  0  0  0  0
  152.1166  146.1034  158.8673 H   0  0  0  0  0  0  0  0  0  0  0  0
  153.3723  143.6326  161.0773 H   0  0  0  0  0  0  0  0  0  0  0  0
  153.2153  141.1686  160.6717 H   0  0  0  0  0  0  0  0  0  0  0  0
  151.7666  139.3475  159.7932 H   0  0  0  0  0  0  0  0  0  0  0  0
  150.4914  139.6757  158.6457 H   0  0  0  0  0  0  0  0  0  0  0  0
  152.9854  140.2930  157.3231 H   0  0  0  0  0  0  0  0  0  0  0  0
  153.1976  138.7372  158.0933 H   0  0  0  0  0  0  0  0  0  0  0  0
  151.5277  137.8377  156.6981 H   0  0  0  0  0  0  0  0  0  0  0  0
  150.5036  136.7710  153.8868 H   0  0  0  0  0  0  0  0  0  0  0  0
  150.8958  136.7806  155.5776 H   0  0  0  0  0  0  0  0  0  0  0  0
  148.5845  136.0023  155.2510 H   0  0  0  0  0  0  0  0  0  0  0  0
  148.5991  137.4960  156.1676 H   0  0  0  0  0  0  0  0  0  0  0  0
  146.0152  138.4721  154.6101 H   0  0  0  0  0  0  0  0  0  0  0  0
  145.0235  136.5422  155.7266 H   0  0  0  0  0  0  0  0  0  0  0  0
  146.5779  136.8826  156.4640 H   0  0  0  0  0  0  0  0  0  0  0  0
  146.4032  135.5305  155.3457 H   0  0  0  0  0  0  0  0  0  0  0  0
  147.6742  139.5042  153.0572 H   0  0  0  0  0  0  0  0  0  0  0  0
  147.9993  139.7421  154.7633 H   0  0  0  0  0  0  0  0  0  0  0  0
  149.9968  140.3247  153.3937 H   0  0  0  0  0  0  0  0  0  0  0  0
  149.9995  138.7487  152.6618 H   0  0  0  0  0  0  0  0  0  0  0  0
  150.1678  142.0018  157.7247 H   0  0  0  0  0  0  0  0  0  0  0  0
  148.1115  137.2318  153.3016 H   0  0  0  0  0  0  0  0  0  0  0  0
  1  2  1  0  0  0  0
  1 25  1  0  0  0  0
  1 26  1  0  0  0  0
  1 27  1  0  0  0  0
  2 24  1  0  0  0  0
  2  3  2  0  0  0  0
  3  4  1  0  0  0  0
  3 28  1  0  0  0  0
  4  5  2  0  0  0  0
  4 29  1  0  0  0  0
  5  6  1  0  0  0  0
  5 23  1  0  0  0  0
  6  7  1  0  0  0  0
  6 30  1  0  0  0  0
  6 31  1  0  0  0  0
  7  8  1  0  0  0  0
  7 32  1  0  0  0  0
  7 33  1  0  0  0  0
  8  9  1  0  0  0  0
  8 34  1  0  0  0  0
  9 10  2  0  0  0  0
  9 11  1  0  0  0  0
 11 22  1  0  0  0  0
 11 12  1  0  0  0  0
 12 13  1  0  0  0  0
 12 35  1  0  0  0  0
 12 36  1  0  0  0  0
 13 14  1  0  0  0  0
 13 37  1  0  0  0  0
 13 38  1  0  0  0  0
 14 15  1  0  0  0  0
 14 21  1  0  0  0  0
 14 48  1  0  0  0  0
 15 16  1  0  0  0  0
 15 17  1  0  0  0  0
 15 39  1  0  0  0  0
 16 40  1  0  0  0  0
 16 41  1  0  0  0  0
 16 42  1  0  0  0  0
 17 18  1  0  0  0  0
 17 19  1  0  0  0  0
 17 20  1  0  0  0  0
 21 22  1  0  0  0  0
 21 43  1  0  0  0  0
 21 44  1  0  0  0  0
 22 45  1  0  0  0  0
 22 46  1  0  0  0  0
 23 24  2  0  0  0  0
 23 47  1  0  0  0  0
M  CHG  1  14   1
M  END
> <s_m_source_file>
AV-unprocessed.smi

> <i_m_source_file_index>
906

> <i_lp_mmshare_version>
43012

> <i_f3d_flags>
0

> <s_epik_input>
W0NIM11jMVtjSF1bY0hdYyhbY0hdbjEpW0NIMl1bQ0gyXVtOSF1DKD1PKU4yW0NIMl1bQ0gyXU4oW0NASF0oW0NIM10pQyhGKShGKUYpW0NIMl1bQ0gyXTI=

> <s_epik_cmdline>
J2VwaWtfcHl0aG9uJywgJy1waCcsICc3LjAnLCAnLXRuJywgJzgnLCAnLW1hJywgJzIwMCcsICctbWV0YWxfYmluZGluZycsICctaW1hZScsICc8aW5maWxlLm1hZT4nLCAnLW9tYWUnLCAnPG91dGZpbGUubWFlPic=

> <r_epik_Ionization_Penalty>
2.02136

> <r_epik_Ionization_Penalty_Charging>
1.96814

> <r_epik_Ionization_Penalty_Neutral>
0.0532286

> <r_epik_State_Penalty>
2.14285

> <r_epik_Charging_Adjusted_Penalty>
4.11098

> <i_epik_Tot_Q>
1

> <i_epik_Tot_abs_Q>
1

> <r_epik_Metal_State_Penalty>
2.1406

> <b_epik_Metal_Only>
0

> <s_lp_Force_Field>
OPLS_2005

> <r_lp_Energy>
50.8751

> <b_lp_Chiralities_Consistent>
1

> <s_lp_Variant>
AV-unprocessed.smi:906-5

> <Gold.Version>
5.8.1

> <Gold.Id.Protein>
6NUR|6NUR_protein|mol2

> <Gold.PLP.Fitness>
42.8251

> <Gold.PLP.PLP>
-38.6518

> <Gold.PLP.part.hbond>
-2.0000

> <Gold.PLP.part.metal>
0.0000

> <Gold.PLP.part.buried>
2.1631

> <Gold.PLP.part.nonpolar>
-38.6414

> <Gold.PLP.part.repulsive>
0.2169

> <Gold.PLP.ligand.clash>
0.0000

> <Gold.PLP.ligand.torsion>
2.4453

> <Gold.PLP.Chemscore.Hbond>
2.7680

> <Gold.PLP.Chemscore.CHOScore>
0.0000

> <Gold.PLP.Chemscore.Metal>
0.0000

> <Gold.Chemscore.Hbonds>
donor molecule, donor type, donor heavy atom, donor atom, acceptor molecule, acceptor atom, score
      L1  H    14    48       P1  7948  2.00
      P1  H  7989  7998       L1    10  0.77

> <Gold.PLP.Chemscore.Internal.Correction>
0.7600

> <Gold.Rescore>
     Score         DG    S(hbond)    S(metal)    S(lipo)     H(rot)  DE(clash)    DE(int)     intcor
     15.34     -19.25       1.91        0.00      98.70       1.62       1.44       2.47       ----

> <Gold.Chemscore.Fitness>
15.3448

> <Gold.Chemscore.DG>
-19.2528

> <Gold.Chemscore.ZeroCoef>
-5.4800

> <Gold.Chemscore.Hbond>
1.9056

> <Gold.Chemscore.Metal>
0.0000

> <Gold.Chemscore.Lipo>
98.6996

> <Gold.Chemscore.Internal_Hbond>
0.0000

> <Gold.Chemscore.DEClash>
1.4367

> <Gold.Chemscore.DEInternal>
2.4713

> <Gold.Chemscore.Rot>
1.6171

> <Gold.Chemscore.Internal.Correction>
   9.000000E+99

> <Gold.Chemscore.Hbonds>
donor molecule, donor type, donor heavy atom, donor atom, acceptor molecule, acceptor atom, score
      L1  H    14    48       P1  7948  0.99
      P1  H  7989  7998       L1    10  0.34

> <Gold.Chemscore.Hbond.Weighted>
-6.3647

> <Gold.Chemscore.Metal.Weighted>
-0.0000

> <Gold.Chemscore.Lipo.Weighted>
-11.5479

> <Gold.Chemscore.Internal_Hbond.Weighted>
0.0000

> <Gold.Chemscore.DEClash.Weighted>
1.4367

> <Gold.Chemscore.DEInternal.Weighted>
2.4713

> <Gold.Chemscore.Rot.Weighted>
4.1398

> <Gold.Chemscore.Internal.Correction.Weighted>
   9.000000E+99

> <Gold.Protein.RotatedTorsions>
[ 6907 6896 6895 6894 ] final   57.47 input  -60.11 | X-H torsion
[ 7974 7965 7964 7962 ] final -158.73 input  175.53 | X-H torsion
[ 8008 7997 7996 7995 ] final  176.63 input   59.86 | X-H torsion
[ 10167 10162 10161 10158 ] final -144.50 input  -65.29 | X-H torsion
[ 10718 10713 10712 10709 ] final -140.84 input   66.30 | X-H torsion
[ 10763 10752 10751 10750 ] final  -88.03 input  -60.55 | X-H torsion
[ 11005 11000 10999 10996 ] final   85.36 input  -57.11 | X-H torsion

> <Gold.Protein.ActiveResidues>
 VAL166  LYS551  ARG553  GLY616  TRP617  ASP618  TYR619  PRO620  LYS621  CYS622 
 ASP623  PHE694  ASN695  SER759  ASP760  ASP761  ALA762  ILE779  LEU786  VAL792 
 PHE793  MET794  SER795  GLU796  ALA797  LYS798  CYS799  TRP800  GLU811  SER814 

> <Gold.Protein.RotatedAtoms>
  152.3734  134.6699  160.0167 H   0  0  0  0  0  0  0  0  0  0  0  0  # atno 6907 bound_to 6896
  151.6985  133.3305  159.3268 H   0  0  0  0  0  0  0  0  0  0  0  0  # atno 6908 bound_to 6896
  150.7691  134.6572  159.6364 H   0  0  0  0  0  0  0  0  0  0  0  0  # atno 6909 bound_to 6896
  144.7493  140.3785  143.6060 H   0  0  0  0  0  0  0  0  0  0  0  0  # atno 7974 bound_to 7965
  156.0744  140.1379  156.9789 H   0  0  0  0  0  0  0  0  0  0  0  0  # atno 8008 bound_to 7997
  154.4549  140.0965  156.6780 H   0  0  0  0  0  0  0  0  0  0  0  0  # atno 8009 bound_to 7997
  155.5176  140.3455  155.4402 H   0  0  0  0  0  0  0  0  0  0  0  0  # atno 8010 bound_to 7997
  139.7893  143.7989  152.2648 H   0  0  0  0  0  0  0  0  0  0  0  0  # atno 10167 bound_to 10162
  156.3271  130.7566  151.1676 H   0  0  0  0  0  0  0  0  0  0  0  0  # atno 10718 bound_to 10713
  154.6400  135.5392  153.7779 H   0  0  0  0  0  0  0  0  0  0  0  0  # atno 10763 bound_to 10752
  153.0329  135.6457  154.1173 H   0  0  0  0  0  0  0  0  0  0  0  0  # atno 10764 bound_to 10752
  154.1098  135.2927  155.3213 H   0  0  0  0  0  0  0  0  0  0  0  0  # atno 10765 bound_to 10752
  139.8974  134.8281  156.2572 H   0  0  0  0  0  0  0  0  0  0  0  0  # atno 11005 bound_to 11000
  145.7002  139.1659  143.2597 LP  0  0  0  0  0  0  0  0  0  0  0  0  # atno 17320 bound_to 7965
  146.1421  140.7044  142.9362 LP  0  0  0  0  0  0  0  0  0  0  0  0  # atno 17321 bound_to 7965
  139.8075  144.7349  150.9741 LP  0  0  0  0  0  0  0  0  0  0  0  0  # atno 17342 bound_to 10162
  140.7820  143.4283  151.0734 LP  0  0  0  0  0  0  0  0  0  0  0  0  # atno 17343 bound_to 10162
  157.7423  131.0491  150.5033 LP  0  0  0  0  0  0  0  0  0  0  0  0  # atno 17370 bound_to 10713
  156.5193  130.4158  149.6259 LP  0  0  0  0  0  0  0  0  0  0  0  0  # atno 17371 bound_to 10713
  141.0186  133.7054  156.1230 LP  0  0  0  0  0  0  0  0  0  0  0  0  # atno 17394 bound_to 11000
  140.7266  134.4300  157.5570 LP  0  0  0  0  0  0  0  0  0  0  0  0  # atno 17395 bound_to 11000

$$$$
