AV-unprocessed.smi:2034|AV-procd|sdf|8268|dock1
  -GOLD-   2272010543D 1   1.00000     0.00000
 Structure written by MMmdl.
 50 52  0  0  0  0  0  0  0  0  1 V2000
  152.6243  144.7139  157.9814 C   0  0  0  0  0  0  0  0  0  0  0  0
  151.6355  143.8148  158.7450 C   0  0  1  0  0  0  0  0  0  0  0  0
  150.7967  142.9037  157.8263 C   0  0  0  0  0  0  0  0  0  0  0  0
  151.6045  141.8054  157.3139 N   0  0  0  0  0  0  0  0  0  0  0  0
  150.9348  141.0200  156.3664 C   0  0  0  0  0  0  0  0  0  0  0  0
  151.5904  139.9810  155.6671 C   0  0  0  0  0  0  0  0  0  0  0  0
  150.8575  139.2335  154.7263 C   0  0  0  0  0  0  0  0  0  0  0  0
  149.4965  139.5343  154.5178 C   0  0  0  0  0  0  0  0  0  0  0  0
  148.7874  138.7823  153.5425 N   0  0  0  0  0  0  0  0  0  0  0  0
  147.4824  138.8440  153.2269 C   0  0  0  0  0  0  0  0  0  0  0  0
  146.6455  139.5470  153.7931 O   0  0  0  0  0  0  0  0  0  0  0  0
  147.1891  138.0127  152.2177 N   0  0  0  0  0  0  0  0  0  0  0  0
  145.8579  137.8128  151.6561 C   0  0  0  0  0  0  0  0  0  0  0  0
  145.3720  136.3685  151.8595 C   0  0  1  0  0  0  0  0  0  0  0  0
  145.8416  135.4027  150.7734 C   0  0  0  0  0  0  0  0  0  0  0  0
  145.7766  134.0784  151.4989 C   0  0  0  0  0  0  0  0  0  0  0  0
  146.2594  134.4650  152.8939 C   0  0  0  0  0  0  0  0  0  0  0  0
  145.8889  135.8297  153.0745 O   0  0  0  0  0  0  0  0  0  0  0  0
  148.9353  140.5987  155.2645 C   0  0  0  0  0  0  0  0  0  0  0  0
  149.6335  141.3207  156.1671 N   0  0  0  0  0  0  0  0  0  0  0  0
  152.2416  141.0386  158.3751 C   0  0  0  0  0  0  0  0  0  0  0  0
  153.0982  141.9684  159.2532 C   0  0  2  0  0  0  0  0  0  0  0  0
  153.6987  141.2272  160.4520 C   0  0  0  0  0  0  0  0  0  0  0  0
  152.2859  143.0327  159.7512 O   0  0  0  0  0  0  0  0  0  0  0  0
  152.0927  145.3912  157.3127 H   0  0  0  0  0  0  0  0  0  0  0  0
  153.3204  144.1389  157.3711 H   0  0  0  0  0  0  0  0  0  0  0  0
  153.2081  145.3233  158.6713 H   0  0  0  0  0  0  0  0  0  0  0  0
  150.9488  144.4782  159.2712 H   0  0  0  0  0  0  0  0  0  0  0  0
  149.9565  142.4956  158.3898 H   0  0  0  0  0  0  0  0  0  0  0  0
  150.3766  143.4795  157.0006 H   0  0  0  0  0  0  0  0  0  0  0  0
  152.6321  139.7576  155.8441 H   0  0  0  0  0  0  0  0  0  0  0  0
  151.3368  138.4372  154.1758 H   0  0  0  0  0  0  0  0  0  0  0  0
  149.3300  138.0856  153.0534 H   0  0  0  0  0  0  0  0  0  0  0  0
  147.9369  137.4653  151.8176 H   0  0  0  0  0  0  0  0  0  0  0  0
  145.1545  138.5153  152.1063 H   0  0  0  0  0  0  0  0  0  0  0  0
  145.8940  138.0504  150.5927 H   0  0  0  0  0  0  0  0  0  0  0  0
  144.2826  136.3345  151.9132 H   0  0  0  0  0  0  0  0  0  0  0  0
  145.2191  135.4331  149.8789 H   0  0  0  0  0  0  0  0  0  0  0  0
  146.8710  135.6176  150.4826 H   0  0  0  0  0  0  0  0  0  0  0  0
  144.7450  133.7257  151.5411 H   0  0  0  0  0  0  0  0  0  0  0  0
  146.3859  133.3018  151.0360 H   0  0  0  0  0  0  0  0  0  0  0  0
  145.8342  133.8297  153.6711 H   0  0  0  0  0  0  0  0  0  0  0  0
  147.3459  134.3927  152.9539 H   0  0  0  0  0  0  0  0  0  0  0  0
  147.9113  140.9113  155.1333 H   0  0  0  0  0  0  0  0  0  0  0  0
  151.4816  140.5476  158.9846 H   0  0  0  0  0  0  0  0  0  0  0  0
  152.8634  140.2551  157.9403 H   0  0  0  0  0  0  0  0  0  0  0  0
  153.9188  142.3775  158.6634 H   0  0  0  0  0  0  0  0  0  0  0  0
  154.3403  140.4083  160.1258 H   0  0  0  0  0  0  0  0  0  0  0  0
  152.9184  140.8088  161.0882 H   0  0  0  0  0  0  0  0  0  0  0  0
  154.3028  141.8984  161.0628 H   0  0  0  0  0  0  0  0  0  0  0  0
  1  2  1  0  0  0  0
  1 25  1  0  0  0  0
  1 26  1  0  0  0  0
  1 27  1  0  0  0  0
  2 24  1  0  0  0  0
  2  3  1  0  0  0  0
  2 28  1  0  0  0  0
  3  4  1  0  0  0  0
  3 29  1  0  0  0  0
  3 30  1  0  0  0  0
  4  5  1  0  0  0  0
  4 21  1  0  0  0  0
  5 20  1  0  0  0  0
  5  6  2  0  0  0  0
  6  7  1  0  0  0  0
  6 31  1  0  0  0  0
  7  8  2  0  0  0  0
  7 32  1  0  0  0  0
  8  9  1  0  0  0  0
  8 19  1  0  0  0  0
  9 10  1  0  0  0  0
  9 33  1  0  0  0  0
 10 11  2  0  0  0  0
 10 12  1  0  0  0  0
 12 13  1  0  0  0  0
 12 34  1  0  0  0  0
 13 14  1  0  0  0  0
 13 35  1  0  0  0  0
 13 36  1  0  0  0  0
 14 18  1  0  0  0  0
 14 15  1  0  0  0  0
 14 37  1  0  0  0  0
 15 16  1  0  0  0  0
 15 38  1  0  0  0  0
 15 39  1  0  0  0  0
 16 17  1  0  0  0  0
 16 40  1  0  0  0  0
 16 41  1  0  0  0  0
 17 18  1  0  0  0  0
 17 42  1  0  0  0  0
 17 43  1  0  0  0  0
 19 20  2  0  0  0  0
 19 44  1  0  0  0  0
 21 22  1  0  0  0  0
 21 45  1  0  0  0  0
 21 46  1  0  0  0  0
 22 23  1  0  0  0  0
 22 24  1  0  0  0  0
 22 47  1  0  0  0  0
 23 48  1  0  0  0  0
 23 49  1  0  0  0  0
 23 50  1  0  0  0  0
M  END
> <s_m_source_file>
AV-unprocessed.smi

> <i_m_source_file_index>
2034

> <i_lp_mmshare_version>
43012

> <i_f3d_flags>
0

> <s_epik_input>
W0NIM11bQ0BASF0xW0NIMl1OKFtDSDJdW0NASF0oTzEpW0NIM10pYzJbY0hdW2NIXWMoW2NIXW4yKVtOSF1DKD1PKVtOSF1bQ0gyXVtDQEBIXTNbQ0gyXVtDSDJdW0NIMl1PMw==

> <s_epik_cmdline>
J2VwaWtfcHl0aG9uJywgJy1waCcsICc3LjAnLCAnLXRuJywgJzgnLCAnLW1hJywgJzIwMCcsICctbWV0YWxfYmluZGluZycsICctaW1hZScsICc8aW5maWxlLm1hZT4nLCAnLW9tYWUnLCAnPG91dGZpbGUubWFlPic=

> <r_lp_tautomer_probability>
1

> <r_epik_Ionization_Penalty>
0.00268225

> <r_epik_Ionization_Penalty_Charging>
0

> <r_epik_Ionization_Penalty_Neutral>
0.00268225

> <r_epik_State_Penalty>
0.00184408

> <r_epik_Charging_Adjusted_Penalty>
0.00184408

> <i_epik_Tot_Q>
0

> <i_epik_Tot_abs_Q>
0

> <r_epik_Metal_State_Penalty>
-0

> <b_epik_Metal_Only>
0

> <s_lp_Force_Field>
OPLS_2005

> <r_lp_Energy>
38.1853

> <b_lp_Chiralities_Consistent>
1

> <s_lp_Variant>
AV-unprocessed.smi:2034-6

> <Gold.Version>
5.8.1

> <Gold.Id.Protein>
6NUR|6NUR_protein|mol2

> <Gold.PLP.Fitness>
50.0041

> <Gold.PLP.PLP>
-46.1829

> <Gold.PLP.part.hbond>
-3.0485

> <Gold.PLP.part.metal>
0.0000

> <Gold.PLP.part.buried>
-2.2123

> <Gold.PLP.part.nonpolar>
-41.9521

> <Gold.PLP.part.repulsive>
0.5193

> <Gold.PLP.ligand.clash>
0.0000

> <Gold.PLP.ligand.torsion>
0.3752

> <Gold.PLP.Chemscore.Hbond>
1.4810

> <Gold.PLP.Chemscore.CHOScore>
0.0000

> <Gold.PLP.Chemscore.Metal>
0.0000

> <Gold.Chemscore.Hbonds>
donor molecule, donor type, donor heavy atom, donor atom, acceptor molecule, acceptor atom, score
      L1  H     9    33       P1  7948  0.45
      L1  H    12    34       P1  7948  1.00

> <Gold.PLP.Chemscore.Internal.Correction>
0.1285

> <Gold.Rescore>
     Score         DG    S(hbond)    S(metal)    S(lipo)     H(rot)  DE(clash)    DE(int)     intcor
     17.91     -21.00       1.56        0.00     117.93       1.37       1.54       1.54       ----

> <Gold.Chemscore.Fitness>
17.9101

> <Gold.Chemscore.DG>
-20.9962

> <Gold.Chemscore.ZeroCoef>
-5.4800

> <Gold.Chemscore.Hbond>
1.5617

> <Gold.Chemscore.Metal>
0.0000

> <Gold.Chemscore.Lipo>
117.9300

> <Gold.Chemscore.Internal_Hbond>
0.0000

> <Gold.Chemscore.DEClash>
1.5411

> <Gold.Chemscore.DEInternal>
1.5450

> <Gold.Chemscore.Rot>
1.3663

> <Gold.Chemscore.Internal.Correction>
   9.000000E+99

> <Gold.Chemscore.Hbonds>
donor molecule, donor type, donor heavy atom, donor atom, acceptor molecule, acceptor atom, score
      L1  H     9    33       P1  7948  0.43
      L1  H    12    34       P1  7948  0.94

> <Gold.Chemscore.Hbond.Weighted>
-5.2161

> <Gold.Chemscore.Metal.Weighted>
-0.0000

> <Gold.Chemscore.Lipo.Weighted>
-13.7978

> <Gold.Chemscore.Internal_Hbond.Weighted>
0.0000

> <Gold.Chemscore.DEClash.Weighted>
1.5411

> <Gold.Chemscore.DEInternal.Weighted>
1.5450

> <Gold.Chemscore.Rot.Weighted>
3.4977

> <Gold.Chemscore.Internal.Correction.Weighted>
   9.000000E+99

> <Gold.Protein.RotatedTorsions>
[ 6907 6896 6895 6894 ] final  -31.40 input  -60.11 | X-H torsion
[ 7974 7965 7964 7962 ] final  108.60 input  175.53 | X-H torsion
[ 8008 7997 7996 7995 ] final -141.10 input   59.86 | X-H torsion
[ 10167 10162 10161 10158 ] final  119.61 input  -65.29 | X-H torsion
[ 10718 10713 10712 10709 ] final  -64.12 input   66.30 | X-H torsion
[ 10763 10752 10751 10750 ] final   62.79 input  -60.55 | X-H torsion
[ 11005 11000 10999 10996 ] final  136.06 input  -57.11 | X-H torsion

> <Gold.Protein.ActiveResidues>
 VAL166  LYS551  ARG553  GLY616  TRP617  ASP618  TYR619  PRO620  LYS621  CYS622 
 ASP623  PHE694  ASN695  SER759  ASP760  ASP761  ALA762  ILE779  LEU786  VAL792 
 PHE793  MET794  SER795  GLU796  ALA797  LYS798  CYS799  TRP800  GLU811  SER814 

> <Gold.Protein.RotatedAtoms>
  151.0926  134.9925  159.8409 H   0  0  0  0  0  0  0  0  0  0  0  0  # atno 6907 bound_to 6896
  152.5430  134.2046  159.8736 H   0  0  0  0  0  0  0  0  0  0  0  0  # atno 6908 bound_to 6896
  151.2084  133.4526  159.2631 H   0  0  0  0  0  0  0  0  0  0  0  0  # atno 6909 bound_to 6896
  145.2786  139.2640  143.3927 H   0  0  0  0  0  0  0  0  0  0  0  0  # atno 7974 bound_to 7965
  155.4722  140.0554  157.2978 H   0  0  0  0  0  0  0  0  0  0  0  0  # atno 8008 bound_to 7997
  154.4694  140.2033  155.9988 H   0  0  0  0  0  0  0  0  0  0  0  0  # atno 8009 bound_to 7997
  156.1030  140.3216  155.7972 H   0  0  0  0  0  0  0  0  0  0  0  0  # atno 8010 bound_to 7997
  139.6035  144.7063  151.3008 H   0  0  0  0  0  0  0  0  0  0  0  0  # atno 10167 bound_to 10162
  156.0749  130.4229  150.1374 H   0  0  0  0  0  0  0  0  0  0  0  0  # atno 10718 bound_to 10713
  152.9995  135.5452  154.6249 H   0  0  0  0  0  0  0  0  0  0  0  0  # atno 10763 bound_to 10752
  154.5540  135.2828  155.0984 H   0  0  0  0  0  0  0  0  0  0  0  0  # atno 10764 bound_to 10752
  154.2213  135.6450  153.5198 H   0  0  0  0  0  0  0  0  0  0  0  0  # atno 10765 bound_to 10752
  140.0021  134.9474  157.0095 H   0  0  0  0  0  0  0  0  0  0  0  0  # atno 11005 bound_to 11000
  146.3223  140.3248  142.8636 LP  0  0  0  0  0  0  0  0  0  0  0  0  # atno 17320 bound_to 7965
  144.9272  140.7935  143.5711 LP  0  0  0  0  0  0  0  0  0  0  0  0  # atno 17321 bound_to 7965
  140.7267  143.6983  150.7866 LP  0  0  0  0  0  0  0  0  0  0  0  0  # atno 17342 bound_to 10162
  140.0564  143.5199  152.2649 LP  0  0  0  0  0  0  0  0  0  0  0  0  # atno 17343 bound_to 10162
  156.9418  130.9747  151.3515 LP  0  0  0  0  0  0  0  0  0  0  0  0  # atno 17370 bound_to 10713
  157.5839  130.8395  149.8561 LP  0  0  0  0  0  0  0  0  0  0  0  0  # atno 17371 bound_to 10713
  140.4708  134.1388  155.7203 LP  0  0  0  0  0  0  0  0  0  0  0  0  # atno 17394 bound_to 11000
  141.1650  133.8721  157.1741 LP  0  0  0  0  0  0  0  0  0  0  0  0  # atno 17395 bound_to 11000

$$$$
