AV-unprocessed.smi:2193|AV-procd|sdf|8901|dock7
  -GOLD-   2272012113D 1   1.00000     0.00000
 Structure written by MMmdl.
 41 43  0  0  0  0  0  0  0  0  2 V2000
  150.2026  139.9992  153.8966 O   0  0  0  0  0  0  0  0  0  0  0  0
  149.4262  140.6915  154.8519 C   0  0  0  0  0  0  0  0  0  0  0  0
  150.2413  141.2818  155.9585 C   0  0  0  0  0  0  0  0  0  0  0  0
  150.3499  142.6069  156.2640 N   0  3  0  0  0  0  0  0  0  0  0  0
  151.2030  142.7741  157.3551 C   0  0  0  0  0  0  0  0  0  0  0  0
  151.6173  143.9232  158.0218 C   0  0  0  0  0  0  0  0  0  0  0  0
  152.5020  143.7417  159.1051 C   0  0  0  0  0  0  0  0  0  0  0  0
  152.9412  142.4574  159.4875 C   0  0  0  0  0  0  0  0  0  0  0  0
  152.5144  141.2998  158.8037 C   0  0  0  0  0  0  0  0  0  0  0  0
  151.6388  141.4884  157.7349 C   0  0  0  0  0  0  0  0  0  0  0  0
  151.0183  140.6004  156.8495 N   0  0  0  0  0  0  0  0  0  0  0  0
  151.2727  139.1575  156.9861 C   0  0  0  0  0  0  0  0  0  0  0  0
  150.0091  138.3552  157.3575 C   0  0  1  0  0  0  0  0  0  0  0  0
  149.4765  137.7728  156.1842 O   0  0  0  0  0  0  0  0  0  0  0  0
  150.3156  137.2375  158.3668 C   0  0  0  0  0  0  0  0  0  0  0  0
  149.3653  136.1935  158.1977 O   0  0  0  0  0  0  0  0  0  0  0  0
  148.6552  135.7704  159.3010 C   0  0  0  0  0  0  0  0  0  0  0  0
  148.0756  134.4862  159.2346 C   0  0  0  0  0  0  0  0  0  0  0  0
  147.3330  133.9727  160.3153 C   0  0  0  0  0  0  0  0  0  0  0  0
  147.1608  134.7439  161.4793 C   0  0  0  0  0  0  0  0  0  0  0  0
  146.4464  134.2527  162.5194 F   0  0  0  0  0  0  0  0  0  0  0  0
  147.7325  136.0272  161.5595 C   0  0  0  0  0  0  0  0  0  0  0  0
  148.4761  136.5404  160.4785 C   0  0  0  0  0  0  0  0  0  0  0  0
  149.7300  139.9859  153.0780 H   0  0  0  0  0  0  0  0  0  0  0  0
  148.8743  141.4839  154.3460 H   0  0  0  0  0  0  0  0  0  0  0  0
  148.6932  140.0058  155.2775 H   0  0  0  0  0  0  0  0  0  0  0  0
  151.2826  144.9081  157.7305 H   0  0  0  0  0  0  0  0  0  0  0  0
  152.8508  144.6048  159.6536 H   0  0  0  0  0  0  0  0  0  0  0  0
  153.6197  142.3580  160.3227 H   0  0  0  0  0  0  0  0  0  0  0  0
  152.8560  140.3203  159.1043 H   0  0  0  0  0  0  0  0  0  0  0  0
  151.6836  138.8006  156.0408 H   0  0  0  0  0  0  0  0  0  0  0  0
  152.0569  139.0179  157.7313 H   0  0  0  0  0  0  0  0  0  0  0  0
  149.2661  139.0318  157.7808 H   0  0  0  0  0  0  0  0  0  0  0  0
  150.0853  137.9162  155.4757 H   0  0  0  0  0  0  0  0  0  0  0  0
  151.3392  136.8771  158.2476 H   0  0  0  0  0  0  0  0  0  0  0  0
  150.2156  137.6301  159.3800 H   0  0  0  0  0  0  0  0  0  0  0  0
  148.2025  133.8872  158.3448 H   0  0  0  0  0  0  0  0  0  0  0  0
  146.8958  132.9871  160.2505 H   0  0  0  0  0  0  0  0  0  0  0  0
  147.6005  136.6204  162.4522 H   0  0  0  0  0  0  0  0  0  0  0  0
  148.8985  137.5287  160.5781 H   0  0  0  0  0  0  0  0  0  0  0  0
  149.8695  143.3395  155.7573 H   0  0  0  0  0  0  0  0  0  0  0  0
  1  2  1  0  0  0  0
  1 24  1  0  0  0  0
  2  3  1  0  0  0  0
  2 25  1  0  0  0  0
  2 26  1  0  0  0  0
  3 11  1  0  0  0  0
  3  4  2  0  0  0  0
  4  5  1  0  0  0  0
  4 41  1  0  0  0  0
  5 10  2  0  0  0  0
  5  6  1  0  0  0  0
  6  7  2  0  0  0  0
  6 27  1  0  0  0  0
  7  8  1  0  0  0  0
  7 28  1  0  0  0  0
  8  9  2  0  0  0  0
  8 29  1  0  0  0  0
  9 10  1  0  0  0  0
  9 30  1  0  0  0  0
 10 11  1  0  0  0  0
 11 12  1  0  0  0  0
 12 13  1  0  0  0  0
 12 31  1  0  0  0  0
 12 32  1  0  0  0  0
 13 14  1  0  0  0  0
 13 15  1  0  0  0  0
 13 33  1  0  0  0  0
 14 34  1  0  0  0  0
 15 16  1  0  0  0  0
 15 35  1  0  0  0  0
 15 36  1  0  0  0  0
 16 17  1  0  0  0  0
 17 23  1  0  0  0  0
 17 18  2  0  0  0  0
 18 19  1  0  0  0  0
 18 37  1  0  0  0  0
 19 20  2  0  0  0  0
 19 38  1  0  0  0  0
 20 21  1  0  0  0  0
 20 22  1  0  0  0  0
 22 23  2  0  0  0  0
 22 39  1  0  0  0  0
 23 40  1  0  0  0  0
M  CHG  1   4   1
M  END
> <s_m_source_file>
AV-unprocessed.smi

> <i_m_source_file_index>
2193

> <i_lp_mmshare_version>
43012

> <i_f3d_flags>
0

> <s_epik_input>
W2NIXTFbY0hdW2NIXVtjSF1jKGMxMiluKGMobjIpW0NIMl1bT0hdKVtDSDJdW0NASF0oW09IXSlbQ0gyXU9jM1tjSF1bY0hdYyhGKVtjSF1bY0hdMw==

> <s_epik_cmdline>
J2VwaWtfcHl0aG9uJywgJy1waCcsICc3LjAnLCAnLXRuJywgJzgnLCAnLW1hJywgJzIwMCcsICctbWV0YWxfYmluZGluZycsICctaW1hZScsICc8aW5maWxlLm1hZT4nLCAnLW9tYWUnLCAnPG91dGZpbGUubWFlPic=

> <r_lp_tautomer_probability>
1

> <r_epik_Ionization_Penalty>
1.43752

> <r_epik_Ionization_Penalty_Charging>
1.43666

> <r_epik_Ionization_Penalty_Neutral>
0.000858184

> <r_epik_State_Penalty>
1.52171

> <r_epik_Charging_Adjusted_Penalty>
2.95837

> <i_epik_Tot_Q>
1

> <i_epik_Tot_abs_Q>
1

> <r_epik_Metal_State_Penalty>
5.56725

> <b_epik_Metal_Only>
0

> <s_lp_Force_Field>
OPLS_2005

> <r_lp_Energy>
18.7626

> <b_lp_Chiralities_Consistent>
1

> <s_lp_Variant>
AV-unprocessed.smi:2193-4

> <Gold.Version>
5.8.1

> <Gold.Id.Protein>
6NUR|6NUR_protein|mol2

> <Gold.PLP.Fitness>
56.1108

> <Gold.PLP.PLP>
-47.1763

> <Gold.PLP.part.hbond>
-3.0000

> <Gold.PLP.part.metal>
0.0000

> <Gold.PLP.part.buried>
-4.7868

> <Gold.PLP.part.nonpolar>
-41.0191

> <Gold.PLP.part.repulsive>
0.0966

> <Gold.PLP.ligand.clash>
0.0000

> <Gold.PLP.ligand.torsion>
1.5467

> <Gold.PLP.Chemscore.Hbond>
3.9920

> <Gold.PLP.Chemscore.CHOScore>
0.0000

> <Gold.PLP.Chemscore.Metal>
0.0000

> <Gold.Chemscore.Hbonds>
donor molecule, donor type, donor heavy atom, donor atom, acceptor molecule, acceptor atom, score
      L1  H     1    24       P1  7957  1.00
      L1  H     4    41       P1  8028  2.00
      P1  H  7989  7998       L1     1  0.93

> <Gold.PLP.Chemscore.Internal.Correction>
0.0520

> <Gold.Rescore>
     Score         DG    S(hbond)    S(metal)    S(lipo)     H(rot)  DE(clash)    DE(int)     intcor
     17.03     -18.63       2.60        0.00     110.72       3.31       0.07       1.53       ----

> <Gold.Chemscore.Fitness>
17.0263

> <Gold.Chemscore.DG>
-18.6262

> <Gold.Chemscore.ZeroCoef>
-5.4800

> <Gold.Chemscore.Hbond>
2.5971

> <Gold.Chemscore.Metal>
0.0000

> <Gold.Chemscore.Lipo>
110.7189

> <Gold.Chemscore.Internal_Hbond>
0.0000

> <Gold.Chemscore.DEClash>
0.0728

> <Gold.Chemscore.DEInternal>
1.5271

> <Gold.Chemscore.Rot>
3.3134

> <Gold.Chemscore.Internal.Correction>
   9.000000E+99

> <Gold.Chemscore.Hbonds>
donor molecule, donor type, donor heavy atom, donor atom, acceptor molecule, acceptor atom, score
      L1  H     1    24       P1  7957  0.97
      L1  H     4    41       P1  8028  0.98
      P1  H  7989  7998       L1     1  0.22

> <Gold.Chemscore.Hbond.Weighted>
-8.6744

> <Gold.Chemscore.Metal.Weighted>
-0.0000

> <Gold.Chemscore.Lipo.Weighted>
-12.9541

> <Gold.Chemscore.Internal_Hbond.Weighted>
0.0000

> <Gold.Chemscore.DEClash.Weighted>
0.0728

> <Gold.Chemscore.DEInternal.Weighted>
1.5271

> <Gold.Chemscore.Rot.Weighted>
8.4823

> <Gold.Chemscore.Internal.Correction.Weighted>
   9.000000E+99

> <Gold.Protein.RotatedTorsions>
[ 6907 6896 6895 6894 ] final  -93.28 input  -60.11 | X-H torsion
[ 7974 7965 7964 7962 ] final  135.50 input  175.53 | X-H torsion
[ 8008 7997 7996 7995 ] final  -59.97 input   59.86 | X-H torsion
[ 10167 10162 10161 10158 ] final   27.01 input  -65.29 | X-H torsion
[ 10718 10713 10712 10709 ] final   29.27 input   66.30 | X-H torsion
[ 10763 10752 10751 10750 ] final   81.89 input  -60.55 | X-H torsion
[ 11005 11000 10999 10996 ] final -124.51 input  -57.11 | X-H torsion

> <Gold.Protein.ActiveResidues>
 VAL166  LYS551  ARG553  GLY616  TRP617  ASP618  TYR619  PRO620  LYS621  CYS622 
 ASP623  PHE694  ASN695  SER759  ASP760  ASP761  ALA762  ILE779  LEU786  VAL792 
 PHE793  MET794  SER795  GLU796  ALA797  LYS798  CYS799  TRP800  GLU811  SER814 

> <Gold.Protein.RotatedAtoms>
  150.6920  134.1992  159.4315 H   0  0  0  0  0  0  0  0  0  0  0  0  # atno 6907 bound_to 6896
  151.9959  134.9952  160.0572 H   0  0  0  0  0  0  0  0  0  0  0  0  # atno 6908 bound_to 6896
  152.1624  133.4555  159.4904 H   0  0  0  0  0  0  0  0  0  0  0  0  # atno 6909 bound_to 6896
  144.9657  139.4661  143.5457 H   0  0  0  0  0  0  0  0  0  0  0  0  # atno 7974 bound_to 7965
  154.4377  140.1050  156.6199 H   0  0  0  0  0  0  0  0  0  0  0  0  # atno 8008 bound_to 7997
  155.5718  140.3489  155.4498 H   0  0  0  0  0  0  0  0  0  0  0  0  # atno 8009 bound_to 7997
  156.0384  140.1276  157.0172 H   0  0  0  0  0  0  0  0  0  0  0  0  # atno 8010 bound_to 7997
  140.4975  144.0369  150.6320 H   0  0  0  0  0  0  0  0  0  0  0  0  # atno 10167 bound_to 10162
  157.2444  130.7084  149.6374 H   0  0  0  0  0  0  0  0  0  0  0  0  # atno 10718 bound_to 10713
  153.1156  135.4748  154.9109 H   0  0  0  0  0  0  0  0  0  0  0  0  # atno 10763 bound_to 10752
  154.7524  135.3109  154.8534 H   0  0  0  0  0  0  0  0  0  0  0  0  # atno 10764 bound_to 10752
  153.9112  135.6865  153.4804 H   0  0  0  0  0  0  0  0  0  0  0  0  # atno 10765 bound_to 10752
  140.9835  134.0639  157.3737 H   0  0  0  0  0  0  0  0  0  0  0  0  # atno 11005 bound_to 11000
  146.3367  139.8836  142.8820 LP  0  0  0  0  0  0  0  0  0  0  0  0  # atno 17320 bound_to 7965
  145.2633  141.0084  143.3814 LP  0  0  0  0  0  0  0  0  0  0  0  0  # atno 17321 bound_to 7965
  140.3655  143.2884  152.0336 LP  0  0  0  0  0  0  0  0  0  0  0  0  # atno 17342 bound_to 10162
  139.4864  144.6270  151.7145 LP  0  0  0  0  0  0  0  0  0  0  0  0  # atno 17343 bound_to 10162
  155.9668  130.4448  150.5475 LP  0  0  0  0  0  0  0  0  0  0  0  0  # atno 17370 bound_to 10713
  157.3345  131.0705  151.1835 LP  0  0  0  0  0  0  0  0  0  0  0  0  # atno 17371 bound_to 10713
  139.8960  135.0144  156.7032 LP  0  0  0  0  0  0  0  0  0  0  0  0  # atno 17394 bound_to 11000
  140.7150  133.9190  155.8109 LP  0  0  0  0  0  0  0  0  0  0  0  0  # atno 17395 bound_to 11000

$$$$
