AV-unprocessed.smi:1824|AV-procd|sdf|7404|dock4
  -GOLD-   22720 9 73D 1   1.00000     0.00000
 Structure written by MMmdl.
 45 47  0  0  0  0  0  0  0  0  2 V2000
  151.5207  137.9772  153.6228 C   0  0  0  0  0  0  0  0  0  0  0  0
  152.1018  138.5476  154.9291 C   0  0  1  0  0  0  0  0  0  0  0  0
  151.6751  140.0020  155.2111 C   0  0  0  0  0  0  0  0  0  0  0  0
  150.2583  140.0696  155.6402 N   0  3  2  0  0  0  0  0  0  0  0  0
  149.7903  141.4639  155.8486 C   0  0  0  0  0  0  0  0  0  0  0  0
  150.0211  141.9541  157.2917 C   0  0  2  0  0  0  0  0  0  0  0  0
  148.9600  142.8186  157.6531 O   0  0  0  0  0  0  0  0  0  0  0  0
  151.3622  142.6996  157.4345 C   0  0  0  0  0  0  0  0  0  0  0  0
  151.5854  143.1938  158.7821 N   0  0  0  0  0  0  0  0  0  0  0  0
  151.0480  144.2958  159.3399 C   0  0  0  0  0  0  0  0  0  0  0  0
  151.3861  144.5697  160.5965 N   0  0  0  0  0  0  0  0  0  0  0  0
  152.2423  143.5226  160.8909 C   0  0  0  0  0  0  0  0  0  0  0  0
  152.9501  143.2219  162.0767 C   0  0  0  0  0  0  0  0  0  0  0  0
  153.7769  142.0813  162.1461 C   0  0  0  0  0  0  0  0  0  0  0  0
  154.4469  141.8070  163.2906 F   0  0  0  0  0  0  0  0  0  0  0  0
  153.9095  141.2264  161.0318 C   0  0  0  0  0  0  0  0  0  0  0  0
  154.7066  140.1343  161.1059 F   0  0  0  0  0  0  0  0  0  0  0  0
  153.2144  141.5058  159.8395 C   0  0  0  0  0  0  0  0  0  0  0  0
  152.3888  142.6435  159.7756 C   0  0  0  0  0  0  0  0  0  0  0  0
  150.0334  139.1858  156.8092 C   0  0  0  0  0  0  0  0  0  0  0  0
  150.4462  137.7412  156.4747 C   0  0  2  0  0  0  0  0  0  0  0  0
  150.3123  136.8094  157.6840 C   0  0  0  0  0  0  0  0  0  0  0  0
  151.8084  137.7219  156.0560 O   0  0  0  0  0  0  0  0  0  0  0  0
  151.8705  138.5481  152.7624 H   0  0  0  0  0  0  0  0  0  0  0  0
  150.4315  138.0036  153.6059 H   0  0  0  0  0  0  0  0  0  0  0  0
  151.8326  136.9424  153.4788 H   0  0  0  0  0  0  0  0  0  0  0  0
  153.1867  138.5354  154.8213 H   0  0  0  0  0  0  0  0  0  0  0  0
  152.3037  140.4242  155.9969 H   0  0  0  0  0  0  0  0  0  0  0  0
  151.8298  140.6126  154.3205 H   0  0  0  0  0  0  0  0  0  0  0  0
  150.2904  142.1203  155.1349 H   0  0  0  0  0  0  0  0  0  0  0  0
  148.7242  141.5329  155.6263 H   0  0  0  0  0  0  0  0  0  0  0  0
  150.0204  141.1115  157.9828 H   0  0  0  0  0  0  0  0  0  0  0  0
  148.8667  143.4811  156.9852 H   0  0  0  0  0  0  0  0  0  0  0  0
  152.1896  142.0380  157.1743 H   0  0  0  0  0  0  0  0  0  0  0  0
  151.4091  143.5405  156.7414 H   0  0  0  0  0  0  0  0  0  0  0  0
  150.3708  144.9343  158.7914 H   0  0  0  0  0  0  0  0  0  0  0  0
  152.8574  143.8695  162.9357 H   0  0  0  0  0  0  0  0  0  0  0  0
  153.3156  140.8520  158.9864 H   0  0  0  0  0  0  0  0  0  0  0  0
  150.6070  139.5548  157.6612 H   0  0  0  0  0  0  0  0  0  0  0  0
  148.9842  139.2016  157.1023 H   0  0  0  0  0  0  0  0  0  0  0  0
  149.8094  137.3534  155.6795 H   0  0  0  0  0  0  0  0  0  0  0  0
  149.2847  136.7821  158.0472 H   0  0  0  0  0  0  0  0  0  0  0  0
  150.9506  137.1340  158.5065 H   0  0  0  0  0  0  0  0  0  0  0  0
  150.5985  135.7903  157.4229 H   0  0  0  0  0  0  0  0  0  0  0  0
  149.7129  139.6979  154.8750 H   0  0  0  0  0  0  0  0  0  0  0  0
  1  2  1  0  0  0  0
  1 24  1  0  0  0  0
  1 25  1  0  0  0  0
  1 26  1  0  0  0  0
  2 23  1  0  0  0  0
  2  3  1  0  0  0  0
  2 27  1  0  0  0  0
  3  4  1  0  0  0  0
  3 28  1  0  0  0  0
  3 29  1  0  0  0  0
  4  5  1  0  0  0  0
  4 20  1  0  0  0  0
  4 45  1  0  0  0  0
  5  6  1  0  0  0  0
  5 30  1  0  0  0  0
  5 31  1  0  0  0  0
  6  7  1  0  0  0  0
  6  8  1  0  0  0  0
  6 32  1  0  0  0  0
  7 33  1  0  0  0  0
  8  9  1  0  0  0  0
  8 34  1  0  0  0  0
  8 35  1  0  0  0  0
  9 19  1  0  0  0  0
  9 10  1  0  0  0  0
 10 11  2  0  0  0  0
 10 36  1  0  0  0  0
 11 12  1  0  0  0  0
 12 19  2  0  0  0  0
 12 13  1  0  0  0  0
 13 14  2  0  0  0  0
 13 37  1  0  0  0  0
 14 15  1  0  0  0  0
 14 16  1  0  0  0  0
 16 17  1  0  0  0  0
 16 18  2  0  0  0  0
 18 19  1  0  0  0  0
 18 38  1  0  0  0  0
 20 21  1  0  0  0  0
 20 39  1  0  0  0  0
 20 40  1  0  0  0  0
 21 22  1  0  0  0  0
 21 23  1  0  0  0  0
 21 41  1  0  0  0  0
 22 42  1  0  0  0  0
 22 43  1  0  0  0  0
 22 44  1  0  0  0  0
M  CHG  1   4   1
M  END
> <s_m_source_file>
AV-unprocessed.smi

> <i_m_source_file_index>
1824

> <i_lp_mmshare_version>
43012

> <i_f3d_flags>
0

> <s_epik_input>
W0NIM11bQ0BASF0xW0NIMl1OKFtDSDJdW0NASF0oTzEpW0NIM10pW0NIMl1bQ0BIXShbT0hdKVtDSDJdbihbY0hdbjIpYyhjMjMpW2NIXWMoRiljKEYpW2NIXTM=

> <s_epik_cmdline>
J2VwaWtfcHl0aG9uJywgJy1waCcsICc3LjAnLCAnLXRuJywgJzgnLCAnLW1hJywgJzIwMCcsICctbWV0YWxfYmluZGluZycsICctaW1hZScsICc8aW5maWxlLm1hZT4nLCAnLW9tYWUnLCAnPG91dGZpbGUubWFlPic=

> <r_epik_Ionization_Penalty>
0.61967

> <r_epik_Ionization_Penalty_Charging>
0.608065

> <r_epik_Ionization_Penalty_Neutral>
0.0116057

> <r_epik_State_Penalty>
0.664205

> <r_epik_Charging_Adjusted_Penalty>
1.27227

> <i_epik_Tot_Q>
1

> <i_epik_Tot_abs_Q>
1

> <r_epik_Metal_State_Penalty>
0.654947

> <b_epik_Metal_Only>
0

> <s_lp_Force_Field>
OPLS_2005

> <r_lp_Energy>
23.1423

> <b_lp_Chiralities_Consistent>
1

> <s_lp_Variant>
AV-unprocessed.smi:1824-12

> <Gold.Version>
5.8.1

> <Gold.Id.Protein>
6NUR|6NUR_protein|mol2

> <Gold.PLP.Fitness>
55.1983

> <Gold.PLP.PLP>
-51.8544

> <Gold.PLP.part.hbond>
-1.6501

> <Gold.PLP.part.metal>
0.0000

> <Gold.PLP.part.buried>
-4.3386

> <Gold.PLP.part.nonpolar>
-46.1960

> <Gold.PLP.part.repulsive>
0.2564

> <Gold.PLP.ligand.clash>
0.0000

> <Gold.PLP.ligand.torsion>
1.0177

> <Gold.PLP.Chemscore.Hbond>
1.0000

> <Gold.PLP.Chemscore.CHOScore>
0.7594

> <Gold.PLP.Chemscore.Metal>
0.0000

> <Gold.Chemscore.Hbonds>
donor molecule, donor type, donor heavy atom, donor atom, acceptor molecule, acceptor atom, score
      L1  H     7    33       P1  8028  1.00

> <Gold.PLP.Chemscore.Internal.Correction>
0.1012

> <Gold.Rescore>
     Score         DG    S(hbond)    S(metal)    S(lipo)     H(rot)  DE(clash)    DE(int)     intcor
     14.54     -15.77       0.76        0.00     117.14       2.33       0.29       0.94       ----

> <Gold.Chemscore.Fitness>
14.5381

> <Gold.Chemscore.DG>
-15.7673

> <Gold.Chemscore.ZeroCoef>
-5.4800

> <Gold.Chemscore.Hbond>
0.7588

> <Gold.Chemscore.Metal>
0.0000

> <Gold.Chemscore.Lipo>
117.1379

> <Gold.Chemscore.Internal_Hbond>
0.0000

> <Gold.Chemscore.DEClash>
0.2902

> <Gold.Chemscore.DEInternal>
0.9390

> <Gold.Chemscore.Rot>
2.3251

> <Gold.Chemscore.Internal.Correction>
   9.000000E+99

> <Gold.Chemscore.Hbonds>
donor molecule, donor type, donor heavy atom, donor atom, acceptor molecule, acceptor atom, score
      L1  H     7    33       P1  8028  0.50

> <Gold.Chemscore.Hbond.Weighted>
-2.5345

> <Gold.Chemscore.Metal.Weighted>
-0.0000

> <Gold.Chemscore.Lipo.Weighted>
-13.7051

> <Gold.Chemscore.Internal_Hbond.Weighted>
0.0000

> <Gold.Chemscore.DEClash.Weighted>
0.2902

> <Gold.Chemscore.DEInternal.Weighted>
0.9390

> <Gold.Chemscore.Rot.Weighted>
5.9523

> <Gold.Chemscore.Internal.Correction.Weighted>
   9.000000E+99

> <Gold.Protein.RotatedTorsions>
[ 6907 6896 6895 6894 ] final  -17.83 input  -60.11 | X-H torsion
[ 7974 7965 7964 7962 ] final -170.72 input  175.53 | X-H torsion
[ 8008 7997 7996 7995 ] final -118.56 input   59.86 | X-H torsion
[ 10167 10162 10161 10158 ] final   48.96 input  -65.29 | X-H torsion
[ 10718 10713 10712 10709 ] final  174.86 input   66.30 | X-H torsion
[ 10763 10752 10751 10750 ] final  -95.06 input  -60.55 | X-H torsion
[ 11005 11000 10999 10996 ] final -155.29 input  -57.11 | X-H torsion

> <Gold.Protein.ActiveResidues>
 VAL166  LYS551  ARG553  GLY616  TRP617  ASP618  TYR619  PRO620  LYS621  CYS622 
 ASP623  PHE694  ASN695  SER759  ASP760  ASP761  ALA762  ILE779  LEU786  VAL792 
 PHE793  MET794  SER795  GLU796  ALA797  LYS798  CYS799  TRP800  GLU811  SER814 

> <Gold.Protein.RotatedAtoms>
  151.2874  135.0732  159.9191 H   0  0  0  0  0  0  0  0  0  0  0  0  # atno 6907 bound_to 6896
  152.5323  133.9967  159.7886 H   0  0  0  0  0  0  0  0  0  0  0  0  # atno 6908 bound_to 6896
  151.0231  133.5807  159.2699 H   0  0  0  0  0  0  0  0  0  0  0  0  # atno 6909 bound_to 6896
  144.7166  140.2030  143.6336 H   0  0  0  0  0  0  0  0  0  0  0  0  # atno 7974 bound_to 7965
  155.1016  140.0396  157.2698 H   0  0  0  0  0  0  0  0  0  0  0  0  # atno 8008 bound_to 7997
  154.6754  140.2621  155.6938 H   0  0  0  0  0  0  0  0  0  0  0  0  # atno 8009 bound_to 7997
  156.2674  140.2789  156.1278 H   0  0  0  0  0  0  0  0  0  0  0  0  # atno 8010 bound_to 7997
  140.2879  144.3080  150.6248 H   0  0  0  0  0  0  0  0  0  0  0  0  # atno 10167 bound_to 10162
  156.9433  131.0008  151.2964 H   0  0  0  0  0  0  0  0  0  0  0  0  # atno 10718 bound_to 10713
  154.7113  135.5134  153.8671 H   0  0  0  0  0  0  0  0  0  0  0  0  # atno 10763 bound_to 10752
  153.0783  135.6623  154.0107 H   0  0  0  0  0  0  0  0  0  0  0  0  # atno 10764 bound_to 10752
  153.9949  135.3016  155.3388 H   0  0  0  0  0  0  0  0  0  0  0  0  # atno 10765 bound_to 10752
  140.6880  134.4072  157.5221 H   0  0  0  0  0  0  0  0  0  0  0  0  # atno 11005 bound_to 11000
  145.8662  139.2248  143.1688 LP  0  0  0  0  0  0  0  0  0  0  0  0  # atno 17320 bound_to 7965
  146.0127  140.8420  142.9962 LP  0  0  0  0  0  0  0  0  0  0  0  0  # atno 17321 bound_to 7965
  140.5757  143.2176  151.7519 LP  0  0  0  0  0  0  0  0  0  0  0  0  # atno 17342 bound_to 10162
  139.4945  144.4153  152.0037 LP  0  0  0  0  0  0  0  0  0  0  0  0  # atno 17343 bound_to 10162
  157.5770  130.8350  149.8470 LP  0  0  0  0  0  0  0  0  0  0  0  0  # atno 17370 bound_to 10713
  156.0395  130.3742  150.1473 LP  0  0  0  0  0  0  0  0  0  0  0  0  # atno 17371 bound_to 10713
  139.8932  134.8737  156.2236 LP  0  0  0  0  0  0  0  0  0  0  0  0  # atno 17394 bound_to 11000
  141.0264  133.7013  156.1355 LP  0  0  0  0  0  0  0  0  0  0  0  0  # atno 17395 bound_to 11000

$$$$
