AV-unprocessed.smi:248|AV-procd|sdf|1896|dock6
  -GOLD-   2262020563D 1   1.00000     0.00000
 Structure written by MMmdl.
 62 65  0  0  0  0  0  0  0  0  1 V2000
  151.1113  141.3599  158.2027 C   0  0  0  0  0  0  0  0  0  0  0  0
  151.7251  140.5531  159.3567 C   0  0  0  0  0  0  0  0  0  0  0  0
  152.5286  141.4790  160.2860 C   0  0  0  0  0  0  0  0  0  0  0  0
  152.5453  139.3617  158.8062 C   0  0  0  0  0  0  0  0  0  0  0  0
  151.7754  138.4904  157.9057 N   0  0  0  0  0  0  0  0  0  0  0  0
  150.6174  137.8435  158.5342 C   0  0  0  0  0  0  0  0  0  0  0  0
  150.1670  136.5866  157.7848 C   0  0  0  0  0  0  0  0  0  0  0  0
  150.0176  136.8978  156.3717 N   0  0  0  0  0  0  0  0  0  0  0  0
  149.3472  135.9320  155.7031 C   0  0  0  0  0  0  0  0  0  0  0  0
  149.9190  134.7142  155.5137 N   0  0  0  0  0  0  0  0  0  0  0  0
  149.2480  133.7590  154.8632 C   0  0  0  0  0  0  0  0  0  0  0  0
  148.0241  133.8119  154.3326 N   0  0  0  0  0  0  0  0  0  0  0  0
  147.4523  135.0365  154.5180 C   0  0  0  0  0  0  0  0  0  0  0  0
  148.0397  136.1419  155.1937 C   0  0  0  0  0  0  0  0  0  0  0  0
  147.1640  137.2187  155.2024 N   0  0  0  0  0  0  0  0  0  0  0  0
  146.1134  136.7735  154.5688 C   0  0  0  0  0  0  0  0  0  0  0  0
  146.2055  135.4783  154.1066 N   0  0  0  0  0  0  0  0  0  0  0  0
  145.1814  134.7381  153.3802 C   0  0  0  0  0  0  0  0  0  0  0  0
  145.2995  134.7845  151.8231 C   0  0  0  0  0  0  0  0  0  0  0  0
  145.6155  136.2434  151.3879 C   0  0  0  0  0  0  0  0  0  0  0  0
  144.7281  137.2004  151.9328 O   0  0  0  0  0  0  0  0  0  0  0  0
  146.4049  133.8301  151.3011 C   0  0  0  0  0  0  0  0  0  0  0  0
  146.0308  132.3454  151.4682 C   0  0  0  0  0  0  0  0  0  0  0  0
  144.7953  132.0791  150.8163 O   0  0  0  0  0  0  0  0  0  0  0  0
  143.7093  132.8117  151.3697 C   0  0  0  0  0  0  0  0  0  0  0  0
  143.9545  134.3228  151.2027 C   0  0  0  0  0  0  0  0  0  0  0  0
  151.2077  137.4335  155.6965 C   0  0  1  0  0  0  0  0  0  0  0  0
  150.8078  138.1178  154.3698 C   0  0  0  0  0  0  0  0  0  0  0  0
  152.0572  138.3783  156.5826 C   0  0  0  0  0  0  0  0  0  0  0  0
  152.9964  138.9807  156.0600 O   0  0  0  0  0  0  0  0  0  0  0  0
  151.8845  141.8002  157.5727 H   0  0  0  0  0  0  0  0  0  0  0  0
  150.4856  142.1707  158.5770 H   0  0  0  0  0  0  0  0  0  0  0  0
  150.4856  140.7296  157.5703 H   0  0  0  0  0  0  0  0  0  0  0  0
  150.8964  140.1493  159.9396 H   0  0  0  0  0  0  0  0  0  0  0  0
  153.4120  141.8742  159.7836 H   0  0  0  0  0  0  0  0  0  0  0  0
  152.8574  140.9586  161.1852 H   0  0  0  0  0  0  0  0  0  0  0  0
  151.9252  142.3266  160.6117 H   0  0  0  0  0  0  0  0  0  0  0  0
  153.4115  139.7418  158.2621 H   0  0  0  0  0  0  0  0  0  0  0  0
  152.9672  138.7892  159.6340 H   0  0  0  0  0  0  0  0  0  0  0  0
  150.8392  137.5859  159.5704 H   0  0  0  0  0  0  0  0  0  0  0  0
  149.8005  138.5661  158.5604 H   0  0  0  0  0  0  0  0  0  0  0  0
  150.9050  135.7922  157.9109 H   0  0  0  0  0  0  0  0  0  0  0  0
  149.2271  136.2232  158.2044 H   0  0  0  0  0  0  0  0  0  0  0  0
  149.7648  132.8169  154.7524 H   0  0  0  0  0  0  0  0  0  0  0  0
  145.2369  137.3858  154.4139 H   0  0  0  0  0  0  0  0  0  0  0  0
  145.1932  133.7144  153.7513 H   0  0  0  0  0  0  0  0  0  0  0  0
  144.2137  135.1411  153.6829 H   0  0  0  0  0  0  0  0  0  0  0  0
  146.6288  136.5168  151.6843 H   0  0  0  0  0  0  0  0  0  0  0  0
  145.5636  136.3445  150.3039 H   0  0  0  0  0  0  0  0  0  0  0  0
  144.3215  137.6728  151.2226 H   0  0  0  0  0  0  0  0  0  0  0  0
  146.5719  134.0051  150.2378 H   0  0  0  0  0  0  0  0  0  0  0  0
  147.3603  134.0361  151.7825 H   0  0  0  0  0  0  0  0  0  0  0  0
  146.8011  131.7176  151.0207 H   0  0  0  0  0  0  0  0  0  0  0  0
  145.9681  132.0582  152.5177 H   0  0  0  0  0  0  0  0  0  0  0  0
  142.7973  132.5267  150.8449 H   0  0  0  0  0  0  0  0  0  0  0  0
  143.5618  132.5372  152.4144 H   0  0  0  0  0  0  0  0  0  0  0  0
  143.1237  134.8849  151.6304 H   0  0  0  0  0  0  0  0  0  0  0  0
  143.9381  134.5340  150.1334 H   0  0  0  0  0  0  0  0  0  0  0  0
  151.8688  136.5987  155.4578 H   0  0  0  0  0  0  0  0  0  0  0  0
  151.6720  138.5349  153.8519 H   0  0  0  0  0  0  0  0  0  0  0  0
  150.1011  138.9302  154.5431 H   0  0  0  0  0  0  0  0  0  0  0  0
  150.3418  137.4159  153.6778 H   0  0  0  0  0  0  0  0  0  0  0  0
  1  2  1  0  0  0  0
  1 31  1  0  0  0  0
  1 32  1  0  0  0  0
  1 33  1  0  0  0  0
  2  3  1  0  0  0  0
  2  4  1  0  0  0  0
  2 34  1  0  0  0  0
  3 35  1  0  0  0  0
  3 36  1  0  0  0  0
  3 37  1  0  0  0  0
  4  5  1  0  0  0  0
  4 38  1  0  0  0  0
  4 39  1  0  0  0  0
  5 29  1  0  0  0  0
  5  6  1  0  0  0  0
  6  7  1  0  0  0  0
  6 40  1  0  0  0  0
  6 41  1  0  0  0  0
  7  8  1  0  0  0  0
  7 42  1  0  0  0  0
  7 43  1  0  0  0  0
  8  9  1  0  0  0  0
  8 27  1  0  0  0  0
  9 14  1  0  0  0  0
  9 10  2  0  0  0  0
 10 11  1  0  0  0  0
 11 12  2  0  0  0  0
 11 44  1  0  0  0  0
 12 13  1  0  0  0  0
 13 17  1  0  0  0  0
 13 14  2  0  0  0  0
 14 15  1  0  0  0  0
 15 16  2  0  0  0  0
 16 17  1  0  0  0  0
 16 45  1  0  0  0  0
 17 18  1  0  0  0  0
 18 19  1  0  0  0  0
 18 46  1  0  0  0  0
 18 47  1  0  0  0  0
 19 26  1  0  0  0  0
 19 20  1  0  0  0  0
 19 22  1  0  0  0  0
 20 21  1  0  0  0  0
 20 48  1  0  0  0  0
 20 49  1  0  0  0  0
 21 50  1  0  0  0  0
 22 23  1  0  0  0  0
 22 51  1  0  0  0  0
 22 52  1  0  0  0  0
 23 24  1  0  0  0  0
 23 53  1  0  0  0  0
 23 54  1  0  0  0  0
 24 25  1  0  0  0  0
 25 26  1  0  0  0  0
 25 55  1  0  0  0  0
 25 56  1  0  0  0  0
 26 57  1  0  0  0  0
 26 58  1  0  0  0  0
 27 28  1  0  0  0  0
 27 29  1  0  0  0  0
 27 59  1  0  0  0  0
 28 60  1  0  0  0  0
 28 61  1  0  0  0  0
 28 62  1  0  0  0  0
 29 30  2  0  0  0  0
M  END
> <s_m_source_file>
AV-unprocessed.smi

> <i_m_source_file_index>
248

> <i_lp_mmshare_version>
43012

> <i_f3d_flags>
0

> <s_epik_input>
W0NIM11bQ0hdKFtDSDNdKVtDSDJdTjFbQ0gyXVtDSDJdTihbQ0BASF0oW0NIM10pQzE9TyljKG5bY0hdbjIpYyhjMjMpbltjSF1uM1tDSDJdQzQoW0NIMl1bT0hdKVtDSDJdW0NIMl1PW0NIMl1bQ0gyXTQ=

> <s_epik_cmdline>
J2VwaWtfcHl0aG9uJywgJy1waCcsICc3LjAnLCAnLXRuJywgJzgnLCAnLW1hJywgJzIwMCcsICctbWV0YWxfYmluZGluZycsICctaW1hZScsICc8aW5maWxlLm1hZT4nLCAnLW9tYWUnLCAnPG91dGZpbGUubWFlPic=

> <r_lp_tautomer_probability>
1

> <r_epik_Ionization_Penalty>
0.000593973

> <r_epik_Ionization_Penalty_Charging>
0

> <r_epik_Ionization_Penalty_Neutral>
0.000593973

> <r_epik_State_Penalty>
0.000283267

> <r_epik_Charging_Adjusted_Penalty>
0.000283267

> <i_epik_Tot_Q>
0

> <i_epik_Tot_abs_Q>
0

> <r_epik_Metal_State_Penalty>
-0

> <b_epik_Metal_Only>
0

> <s_lp_Force_Field>
OPLS_2005

> <r_lp_Energy>
46.1111

> <b_lp_Chiralities_Consistent>
1

> <s_lp_Variant>
AV-unprocessed.smi:248-1

> <Gold.Version>
5.8.1

> <Gold.Id.Protein>
6NUR|6NUR_protein|mol2

> <Gold.PLP.Fitness>
46.4907

> <Gold.PLP.PLP>
-41.6222

> <Gold.PLP.part.hbond>
-2.0000

> <Gold.PLP.part.metal>
0.0000

> <Gold.PLP.part.buried>
-7.4661

> <Gold.PLP.part.nonpolar>
-31.9355

> <Gold.PLP.part.repulsive>
0.4433

> <Gold.PLP.ligand.clash>
0.0000

> <Gold.PLP.ligand.torsion>
0.7691

> <Gold.PLP.Chemscore.Hbond>
2.0000

> <Gold.PLP.Chemscore.CHOScore>
0.0000

> <Gold.PLP.Chemscore.Metal>
0.0000

> <Gold.Chemscore.Hbonds>
donor molecule, donor type, donor heavy atom, donor atom, acceptor molecule, acceptor atom, score
      L1  H    21    50       P1 10171  1.00
      P1  H  7997  8008       L1    30  1.00

> <Gold.PLP.Chemscore.Internal.Correction>
0.4068

> <Gold.Rescore>
     Score         DG    S(hbond)    S(metal)    S(lipo)     H(rot)  DE(clash)    DE(int)     intcor
     14.59     -15.53       1.97        0.00      90.00       2.75       0.03       0.91       ----

> <Gold.Chemscore.Fitness>
14.5949

> <Gold.Chemscore.DG>
-15.5322

> <Gold.Chemscore.ZeroCoef>
-5.4800

> <Gold.Chemscore.Hbond>
1.9665

> <Gold.Chemscore.Metal>
0.0000

> <Gold.Chemscore.Lipo>
90.0006

> <Gold.Chemscore.Internal_Hbond>
0.0000

> <Gold.Chemscore.DEClash>
0.0262

> <Gold.Chemscore.DEInternal>
0.9111

> <Gold.Chemscore.Rot>
2.7523

> <Gold.Chemscore.Internal.Correction>
   9.000000E+99

> <Gold.Chemscore.Hbonds>
donor molecule, donor type, donor heavy atom, donor atom, acceptor molecule, acceptor atom, score
      L1  H    21    50       P1 10171  1.00
      P1  H  7997  8008       L1    30  1.00

> <Gold.Chemscore.Hbond.Weighted>
-6.5681

> <Gold.Chemscore.Metal.Weighted>
-0.0000

> <Gold.Chemscore.Lipo.Weighted>
-10.5301

> <Gold.Chemscore.Internal_Hbond.Weighted>
0.0000

> <Gold.Chemscore.DEClash.Weighted>
0.0262

> <Gold.Chemscore.DEInternal.Weighted>
0.9111

> <Gold.Chemscore.Rot.Weighted>
7.0459

> <Gold.Chemscore.Internal.Correction.Weighted>
   9.000000E+99

> <Gold.Protein.RotatedTorsions>
[ 6907 6896 6895 6894 ] final  -77.36 input  -60.11 | X-H torsion
[ 7974 7965 7964 7962 ] final   93.51 input  175.53 | X-H torsion
[ 8008 7997 7996 7995 ] final  -33.78 input   59.86 | X-H torsion
[ 10167 10162 10161 10158 ] final   63.66 input  -65.29 | X-H torsion
[ 10718 10713 10712 10709 ] final -170.37 input   66.30 | X-H torsion
[ 10763 10752 10751 10750 ] final  169.97 input  -60.55 | X-H torsion
[ 11005 11000 10999 10996 ] final  -99.01 input  -57.11 | X-H torsion

> <Gold.Protein.ActiveResidues>
 VAL166  LYS551  ARG553  GLY616  TRP617  ASP618  TYR619  PRO620  LYS621  CYS622 
 ASP623  PHE694  ASN695  SER759  ASP760  ASP761  ALA762  ILE779  LEU786  VAL792 
 PHE793  MET794  SER795  GLU796  ALA797  LYS798  CYS799  TRP800  GLU811  SER814 

> <Gold.Protein.RotatedAtoms>
  150.7001  134.4434  159.5302 H   0  0  0  0  0  0  0  0  0  0  0  0  # atno 6907 bound_to 6896
  152.2139  134.8473  160.0503 H   0  0  0  0  0  0  0  0  0  0  0  0  # atno 6908 bound_to 6896
  151.9348  133.3586  159.3980 H   0  0  0  0  0  0  0  0  0  0  0  0  # atno 6909 bound_to 6896
  145.4780  139.2279  143.2898 H   0  0  0  0  0  0  0  0  0  0  0  0  # atno 7974 bound_to 7965
  154.4139  140.1701  156.1944 H   0  0  0  0  0  0  0  0  0  0  0  0  # atno 8008 bound_to 7997
  155.9576  140.3396  155.6439 H   0  0  0  0  0  0  0  0  0  0  0  0  # atno 8009 bound_to 7997
  155.6789  140.0720  157.2483 H   0  0  0  0  0  0  0  0  0  0  0  0  # atno 8010 bound_to 7997
  140.1307  144.4646  150.6867 H   0  0  0  0  0  0  0  0  0  0  0  0  # atno 10167 bound_to 10162
  156.7252  130.9285  151.3100 H   0  0  0  0  0  0  0  0  0  0  0  0  # atno 10718 bound_to 10713
  154.3909  135.2754  155.2155 H   0  0  0  0  0  0  0  0  0  0  0  0  # atno 10763 bound_to 10752
  154.4222  135.5997  153.6020 H   0  0  0  0  0  0  0  0  0  0  0  0  # atno 10764 bound_to 10752
  152.9832  135.5975  154.4163 H   0  0  0  0  0  0  0  0  0  0  0  0  # atno 10765 bound_to 10752
  141.1324  133.8289  157.0915 H   0  0  0  0  0  0  0  0  0  0  0  0  # atno 11005 bound_to 11000
  146.2358  140.5564  142.8955 LP  0  0  0  0  0  0  0  0  0  0  0  0  # atno 17320 bound_to 7965
  144.7906  140.6023  143.6544 LP  0  0  0  0  0  0  0  0  0  0  0  0  # atno 17321 bound_to 7965
  140.6819  143.2331  151.5362 LP  0  0  0  0  0  0  0  0  0  0  0  0  # atno 17342 bound_to 10162
  139.5521  144.2368  152.1549 LP  0  0  0  0  0  0  0  0  0  0  0  0  # atno 17343 bound_to 10162
  157.6881  130.9206  150.0441 LP  0  0  0  0  0  0  0  0  0  0  0  0  # atno 17370 bound_to 10713
  156.1566  130.3643  149.9359 LP  0  0  0  0  0  0  0  0  0  0  0  0  # atno 17371 bound_to 10713
  140.0389  134.9864  157.0924 LP  0  0  0  0  0  0  0  0  0  0  0  0  # atno 17394 bound_to 11000
  140.4166  134.1925  155.7163 LP  0  0  0  0  0  0  0  0  0  0  0  0  # atno 17395 bound_to 11000

$$$$
