AV-unprocessed.smi:2922|AV-procd|sdf|11198|dock9
  -GOLD-   2272016 93D 1   1.00000     0.00000
 Structure written by MMmdl.
 30 31  0  0  0  0  0  0  0  0  1 V2000
  145.8197  135.9506  150.0271 N   0  0  0  0  0  0  0  0  0  0  0  0
  145.4946  134.9609  150.8641 C   0  0  0  0  0  0  0  0  0  0  0  0
  145.4686  135.1264  152.0822 O   0  0  0  0  0  0  0  0  0  0  0  0
  145.1231  133.5986  150.2489 C   0  0  2  0  0  0  0  0  0  0  0  0
  143.6747  133.1563  150.5430 C   0  0  0  0  0  0  0  0  0  0  0  0
  143.8295  131.8557  151.3144 C   0  0  0  0  0  0  0  0  0  0  0  0
  145.2373  131.9649  151.8872 C   0  0  1  0  0  0  0  0  0  0  0  0
  145.8672  130.6131  152.2551 C   0  0  0  0  0  0  0  0  0  0  0  0
  145.9216  129.7074  151.1157 N   0  0  0  0  0  0  0  0  0  0  0  0
  145.8476  128.3288  151.2009 C   0  0  0  0  0  0  0  0  0  0  0  0
  146.1584  127.7450  152.3653 N   0  0  0  0  0  0  0  0  0  0  0  0
  146.0828  126.3971  152.4175 C   0  0  0  0  0  0  0  0  0  0  0  0
  145.6928  125.6373  151.2969 C   0  0  0  0  0  0  0  0  0  0  0  0
  145.5956  123.9160  151.3559 Cl  0  0  0  0  0  0  0  0  0  0  0  0
  145.3866  126.3577  150.1251 C   0  0  0  0  0  0  0  0  0  0  0  0
  145.4656  127.7062  150.0824 N   0  0  0  0  0  0  0  0  0  0  0  0
  145.9379  132.5678  150.8089 O   0  0  0  0  0  0  0  0  0  0  0  0
  146.0700  136.8577  150.3929 H   0  0  0  0  0  0  0  0  0  0  0  0
  145.8139  135.7842  149.0309 H   0  0  0  0  0  0  0  0  0  0  0  0
  145.3052  133.6443  149.1748 H   0  0  0  0  0  0  0  0  0  0  0  0
  143.1340  133.8831  151.1510 H   0  0  0  0  0  0  0  0  0  0  0  0
  143.1011  133.0084  149.6277 H   0  0  0  0  0  0  0  0  0  0  0  0
  143.0681  131.7231  152.0833 H   0  0  0  0  0  0  0  0  0  0  0  0
  143.7674  131.0112  150.6267 H   0  0  0  0  0  0  0  0  0  0  0  0
  145.2308  132.6413  152.7438 H   0  0  0  0  0  0  0  0  0  0  0  0
  146.8757  130.7617  152.6425 H   0  0  0  0  0  0  0  0  0  0  0  0
  145.2965  130.1376  153.0530 H   0  0  0  0  0  0  0  0  0  0  0  0
  146.1865  130.0951  150.2220 H   0  0  0  0  0  0  0  0  0  0  0  0
  146.3347  125.9257  153.3560 H   0  0  0  0  0  0  0  0  0  0  0  0
  145.0790  125.8538  149.2206 H   0  0  0  0  0  0  0  0  0  0  0  0
  1  2  1  0  0  0  0
  1 18  1  0  0  0  0
  1 19  1  0  0  0  0
  2  3  2  0  0  0  0
  2  4  1  0  0  0  0
  4 17  1  0  0  0  0
  4  5  1  0  0  0  0
  4 20  1  0  0  0  0
  5  6  1  0  0  0  0
  5 21  1  0  0  0  0
  5 22  1  0  0  0  0
  6  7  1  0  0  0  0
  6 23  1  0  0  0  0
  6 24  1  0  0  0  0
  7  8  1  0  0  0  0
  7 17  1  0  0  0  0
  7 25  1  0  0  0  0
  8  9  1  0  0  0  0
  8 26  1  0  0  0  0
  8 27  1  0  0  0  0
  9 10  1  0  0  0  0
  9 28  1  0  0  0  0
 10 16  1  0  0  0  0
 10 11  2  0  0  0  0
 11 12  1  0  0  0  0
 12 13  2  0  0  0  0
 12 29  1  0  0  0  0
 13 14  1  0  0  0  0
 13 15  1  0  0  0  0
 15 16  2  0  0  0  0
 15 30  1  0  0  0  0
M  END
> <s_m_source_file>
AV-unprocessed.smi

> <i_m_source_file_index>
2922

> <i_lp_mmshare_version>
43012

> <i_f3d_flags>
0

> <s_epik_input>
W05IMl1DKD1PKVtDQEBIXTFbQ0gyXVtDSDJdW0NASF0oTzEpW0NIMl1bTkhdYzJuW2NIXWMoQ2wpW2NIXW4y

> <s_epik_cmdline>
J2VwaWtfcHl0aG9uJywgJy1waCcsICc3LjAnLCAnLXRuJywgJzgnLCAnLW1hJywgJzIwMCcsICctbWV0YWxfYmluZGluZycsICctaW1hZScsICc8aW5maWxlLm1hZT4nLCAnLW9tYWUnLCAnPG91dGZpbGUubWFlPic=

> <r_lp_tautomer_probability>
1

> <r_epik_Ionization_Penalty>
6.13883e-06

> <r_epik_Ionization_Penalty_Charging>
0

> <r_epik_Ionization_Penalty_Neutral>
6.13883e-06

> <r_epik_State_Penalty>
-0

> <r_epik_Charging_Adjusted_Penalty>
0

> <i_epik_Tot_Q>
0

> <i_epik_Tot_abs_Q>
0

> <r_epik_Metal_State_Penalty>
-0

> <b_epik_Metal_Only>
0

> <s_lp_Force_Field>
OPLS_2005

> <r_lp_Energy>
9.74106

> <b_lp_Chiralities_Consistent>
1

> <s_lp_Variant>
AV-unprocessed.smi:2922-1

> <Gold.Version>
5.8.1

> <Gold.Id.Protein>
6NUR|6NUR_protein|mol2

> <Gold.PLP.Fitness>
37.3827

> <Gold.PLP.PLP>
-29.7272

> <Gold.PLP.part.hbond>
-3.0000

> <Gold.PLP.part.metal>
0.0000

> <Gold.PLP.part.buried>
-4.3575

> <Gold.PLP.part.nonpolar>
-23.3040

> <Gold.PLP.part.repulsive>
1.6352

> <Gold.PLP.ligand.clash>
0.0000

> <Gold.PLP.ligand.torsion>
0.3243

> <Gold.PLP.Chemscore.Hbond>
2.7600

> <Gold.PLP.Chemscore.CHOScore>
0.0000

> <Gold.PLP.Chemscore.Metal>
0.0000

> <Gold.Chemscore.Hbonds>
donor molecule, donor type, donor heavy atom, donor atom, acceptor molecule, acceptor atom, score
      L1  H     1    19       P1  7921  1.00

> <Gold.PLP.Chemscore.Internal.Correction>
0.0241

> <Gold.Rescore>
     Score         DG    S(hbond)    S(metal)    S(lipo)     H(rot)  DE(clash)    DE(int)     intcor
     16.08     -16.89       2.74        0.00      61.06       1.91       0.14       0.67       ----

> <Gold.Chemscore.Fitness>
16.0799

> <Gold.Chemscore.DG>
-16.8904

> <Gold.Chemscore.ZeroCoef>
-5.4800

> <Gold.Chemscore.Hbond>
2.7446

> <Gold.Chemscore.Metal>
0.0000

> <Gold.Chemscore.Lipo>
61.0562

> <Gold.Chemscore.Internal_Hbond>
0.0000

> <Gold.Chemscore.DEClash>
0.1409

> <Gold.Chemscore.DEInternal>
0.6695

> <Gold.Chemscore.Rot>
1.9142

> <Gold.Chemscore.Internal.Correction>
   9.000000E+99

> <Gold.Chemscore.Hbonds>
donor molecule, donor type, donor heavy atom, donor atom, acceptor molecule, acceptor atom, score
      L1  H     1    19       P1  7921  0.97

> <Gold.Chemscore.Hbond.Weighted>
-9.1670

> <Gold.Chemscore.Metal.Weighted>
-0.0000

> <Gold.Chemscore.Lipo.Weighted>
-7.1436

> <Gold.Chemscore.Internal_Hbond.Weighted>
0.0000

> <Gold.Chemscore.DEClash.Weighted>
0.1409

> <Gold.Chemscore.DEInternal.Weighted>
0.6695

> <Gold.Chemscore.Rot.Weighted>
4.9002

> <Gold.Chemscore.Internal.Correction.Weighted>
   9.000000E+99

> <Gold.Protein.RotatedTorsions>
[ 6907 6896 6895 6894 ] final  162.25 input  -60.11 | X-H torsion
[ 7974 7965 7964 7962 ] final    0.55 input  175.53 | X-H torsion
[ 8008 7997 7996 7995 ] final -158.95 input   59.86 | X-H torsion
[ 10167 10162 10161 10158 ] final   14.71 input  -65.29 | X-H torsion
[ 10718 10713 10712 10709 ] final  -45.21 input   66.30 | X-H torsion
[ 10763 10752 10751 10750 ] final   91.82 input  -60.55 | X-H torsion
[ 11005 11000 10999 10996 ] final  121.77 input  -57.11 | X-H torsion

> <Gold.Protein.ActiveResidues>
 VAL166  LYS551  ARG553  GLY616  TRP617  ASP618  TYR619  PRO620  LYS621  CYS622 
 ASP623  PHE694  ASN695  SER759  ASP760  ASP761  ALA762  ILE779  LEU786  VAL792 
 PHE793  MET794  SER795  GLU796  ALA797  LYS798  CYS799  TRP800  GLU811  SER814 

> <Gold.Protein.RotatedAtoms>
  151.9432  133.3644  159.3972 H   0  0  0  0  0  0  0  0  0  0  0  0  # atno 6907 bound_to 6896
  150.6994  134.4417  159.5304 H   0  0  0  0  0  0  0  0  0  0  0  0  # atno 6908 bound_to 6896
  152.2077  134.8530  160.0551 H   0  0  0  0  0  0  0  0  0  0  0  0  # atno 6909 bound_to 6896
  146.2435  140.1121  142.8343 H   0  0  0  0  0  0  0  0  0  0  0  0  # atno 7974 bound_to 7965
  155.7552  140.0832  157.2182 H   0  0  0  0  0  0  0  0  0  0  0  0  # atno 8008 bound_to 7997
  154.4008  140.1553  156.2826 H   0  0  0  0  0  0  0  0  0  0  0  0  # atno 8009 bound_to 7997
  155.8892  140.3416  155.5946 H   0  0  0  0  0  0  0  0  0  0  0  0  # atno 8010 bound_to 7997
  140.5917  143.8783  150.6879 H   0  0  0  0  0  0  0  0  0  0  0  0  # atno 10167 bound_to 10162
  156.2306  130.4172  149.8879 H   0  0  0  0  0  0  0  0  0  0  0  0  # atno 10718 bound_to 10713
  153.2124  135.4383  155.0395 H   0  0  0  0  0  0  0  0  0  0  0  0  # atno 10763 bound_to 10752
  154.8207  135.3336  154.7048 H   0  0  0  0  0  0  0  0  0  0  0  0  # atno 10764 bound_to 10752
  153.7485  135.7000  153.5006 H   0  0  0  0  0  0  0  0  0  0  0  0  # atno 10765 bound_to 10752
  139.9240  134.9640  156.8009 H   0  0  0  0  0  0  0  0  0  0  0  0  # atno 11005 bound_to 11000
  145.0478  140.8995  143.5014 LP  0  0  0  0  0  0  0  0  0  0  0  0  # atno 17320 bound_to 7965
  145.1213  139.2691  143.5587 LP  0  0  0  0  0  0  0  0  0  0  0  0  # atno 17321 bound_to 7965
  140.2307  143.3738  152.1568 LP  0  0  0  0  0  0  0  0  0  0  0  0  # atno 17342 bound_to 10162
  139.5231  144.7068  151.5330 LP  0  0  0  0  0  0  0  0  0  0  0  0  # atno 17343 bound_to 10162
  156.6495  130.8737  151.3528 LP  0  0  0  0  0  0  0  0  0  0  0  0  # atno 17370 bound_to 10713
  157.7131  130.9464  150.1159 LP  0  0  0  0  0  0  0  0  0  0  0  0  # atno 17371 bound_to 10713
  140.6391  133.9835  155.7698 LP  0  0  0  0  0  0  0  0  0  0  0  0  # atno 17394 bound_to 11000
  141.0783  134.0101  157.3424 LP  0  0  0  0  0  0  0  0  0  0  0  0  # atno 17395 bound_to 11000

$$$$
