AV-unprocessed.smi:3085|AV-procd|sdf|11752|dock3
  -GOLD-   2272017143D 1   1.00000     0.00000
 Structure written by MMmdl.
 28 29  0  0  0  0  0  0  0  0  2 V2000
  153.2436  141.7390  160.1258 C   0  0  0  0  0  0  0  0  0  0  0  0
  152.2372  142.8538  159.8192 C   0  0  0  0  0  0  0  0  0  0  0  0
  151.6025  142.6880  158.4781 C   0  0  0  0  0  0  0  0  0  0  0  0
  151.8123  141.5899  157.6909 N   0  0  0  0  0  0  0  0  0  0  0  0
  151.0226  141.8823  156.6617 C   0  0  0  0  0  0  0  0  0  0  0  0
  150.8194  141.0247  155.4526 C   0  0  2  0  0  0  0  0  0  0  0  0
  149.3284  140.7956  155.1378 C   0  0  0  0  0  0  0  0  0  0  0  0
  149.1902  139.8655  154.0001 N   0  3  0  0  0  0  0  0  0  0  0  0
  149.9121  138.6014  154.2458 C   0  0  0  0  0  0  0  0  0  0  0  0
  151.3825  138.8911  154.5955 C   0  0  0  0  0  0  0  0  0  0  0  0
  151.4465  139.7711  155.7133 O   0  0  0  0  0  0  0  0  0  0  0  0
  150.3841  143.0434  156.8248 N   0  0  0  0  0  0  0  0  0  0  0  0
  150.7394  143.5871  158.0076 N   0  0  0  0  0  0  0  0  0  0  0  0
  149.7276  143.4803  156.1938 H   0  0  0  0  0  0  0  0  0  0  0  0
  153.6887  141.8773  161.1113 H   0  0  0  0  0  0  0  0  0  0  0  0
  154.0513  141.7265  159.3935 H   0  0  0  0  0  0  0  0  0  0  0  0
  152.7629  140.7604  160.1118 H   0  0  0  0  0  0  0  0  0  0  0  0
  151.4604  142.8724  160.5847 H   0  0  0  0  0  0  0  0  0  0  0  0
  152.7346  143.8233  159.8605 H   0  0  0  0  0  0  0  0  0  0  0  0
  151.3127  141.5024  154.6034 H   0  0  0  0  0  0  0  0  0  0  0  0
  148.8151  140.3745  156.0035 H   0  0  0  0  0  0  0  0  0  0  0  0
  148.8348  141.7377  154.8974 H   0  0  0  0  0  0  0  0  0  0  0  0
  148.2117  139.6690  153.8428 H   0  0  0  0  0  0  0  0  0  0  0  0
  149.4291  138.0660  155.0643 H   0  0  0  0  0  0  0  0  0  0  0  0
  149.8441  137.9669  153.3618 H   0  0  0  0  0  0  0  0  0  0  0  0
  151.9000  137.9645  154.8446 H   0  0  0  0  0  0  0  0  0  0  0  0
  151.9058  139.3293  153.7442 H   0  0  0  0  0  0  0  0  0  0  0  0
  149.5751  140.3030  153.1751 H   0  0  0  0  0  0  0  0  0  0  0  0
  1  2  1  0  0  0  0
  1 15  1  0  0  0  0
  1 16  1  0  0  0  0
  1 17  1  0  0  0  0
  2 18  1  0  0  0  0
  2 19  1  0  0  0  0
  2  3  1  0  0  0  0
  3  4  1  0  0  0  0
  3 13  2  0  0  0  0
  4  5  2  0  0  0  0
  5  6  1  0  0  0  0
  5 12  1  0  0  0  0
  6 11  1  0  0  0  0
  6  7  1  0  0  0  0
  6 20  1  0  0  0  0
  7  8  1  0  0  0  0
  7 21  1  0  0  0  0
  7 22  1  0  0  0  0
  8  9  1  0  0  0  0
  8 23  1  0  0  0  0
  8 28  1  0  0  0  0
  9 10  1  0  0  0  0
  9 24  1  0  0  0  0
  9 25  1  0  0  0  0
 10 11  1  0  0  0  0
 10 26  1  0  0  0  0
 10 27  1  0  0  0  0
 12 13  1  0  0  0  0
 12 14  1  0  0  0  0
M  CHG  1   8   1
M  END
> <s_m_source_file>
AV-unprocessed.smi

> <i_m_source_file_index>
3085

> <i_lp_mmshare_version>
43012

> <i_f3d_flags>
0

> <s_epik_input>
W0NIM11bQ0gyXWMxbmMobltuSF0xKVtDQEBIXTJbQ0gyXVtOSF1bQ0gyXVtDSDJdTzI=

> <s_epik_cmdline>
J2VwaWtfcHl0aG9uJywgJy1waCcsICc3LjAnLCAnLXRuJywgJzgnLCAnLW1hJywgJzIwMCcsICctbWV0YWxfYmluZGluZycsICctaW1hZScsICc8aW5maWxlLm1hZT4nLCAnLW9tYWUnLCAnPG91dGZpbGUubWFlPic=

> <r_epik_Ionization_Penalty>
0.162344

> <r_epik_Ionization_Penalty_Charging>
0.125708

> <r_epik_Ionization_Penalty_Neutral>
0.0366364

> <r_epik_State_Penalty>
0.637958

> <r_epik_Charging_Adjusted_Penalty>
0.763666

> <i_epik_Tot_Q>
1

> <i_epik_Tot_abs_Q>
1

> <r_epik_Metal_State_Penalty>
0.860091

> <b_epik_Metal_Only>
0

> <s_lp_Force_Field>
OPLS_2005

> <r_lp_Energy>
9.17309

> <b_lp_Chiralities_Consistent>
1

> <s_lp_Variant>
AV-unprocessed.smi:3085-3

> <Gold.Version>
5.8.1

> <Gold.Id.Protein>
6NUR|6NUR_protein|mol2

> <Gold.PLP.Fitness>
30.2537

> <Gold.PLP.PLP>
-25.2473

> <Gold.PLP.part.hbond>
-2.0000

> <Gold.PLP.part.metal>
0.0000

> <Gold.PLP.part.buried>
-3.7293

> <Gold.PLP.part.nonpolar>
-20.1870

> <Gold.PLP.part.repulsive>
0.3332

> <Gold.PLP.ligand.clash>
0.0000

> <Gold.PLP.ligand.torsion>
0.2140

> <Gold.PLP.Chemscore.Hbond>
1.8089

> <Gold.PLP.Chemscore.CHOScore>
0.0000

> <Gold.PLP.Chemscore.Metal>
0.0000

> <Gold.Chemscore.Hbonds>
donor molecule, donor type, donor heavy atom, donor atom, acceptor molecule, acceptor atom, score
      L1  H     8    28       P1  7957  0.80
      L1  H    12    14       P1  8028  1.00

> <Gold.PLP.Chemscore.Internal.Correction>
0.0078

> <Gold.Rescore>
     Score         DG    S(hbond)    S(metal)    S(lipo)     H(rot)  DE(clash)    DE(int)     intcor
     13.07     -13.51       1.71        0.00      48.36       1.30       0.17       0.27       ----

> <Gold.Chemscore.Fitness>
13.0666

> <Gold.Chemscore.DG>
-13.5074

> <Gold.Chemscore.ZeroCoef>
-5.4800

> <Gold.Chemscore.Hbond>
1.7068

> <Gold.Chemscore.Metal>
0.0000

> <Gold.Chemscore.Lipo>
48.3550

> <Gold.Chemscore.Internal_Hbond>
0.0000

> <Gold.Chemscore.DEClash>
0.1739

> <Gold.Chemscore.DEInternal>
0.2669

> <Gold.Chemscore.Rot>
1.3011

> <Gold.Chemscore.Internal.Correction>
   9.000000E+99

> <Gold.Chemscore.Hbonds>
donor molecule, donor type, donor heavy atom, donor atom, acceptor molecule, acceptor atom, score
      L1  H     8    28       P1  7957  0.74
      L1  H    12    14       P1  8028  0.94

> <Gold.Chemscore.Hbond.Weighted>
-5.7006

> <Gold.Chemscore.Metal.Weighted>
-0.0000

> <Gold.Chemscore.Lipo.Weighted>
-5.6575

> <Gold.Chemscore.Internal_Hbond.Weighted>
0.0000

> <Gold.Chemscore.DEClash.Weighted>
0.1739

> <Gold.Chemscore.DEInternal.Weighted>
0.2669

> <Gold.Chemscore.Rot.Weighted>
3.3308

> <Gold.Chemscore.Internal.Correction.Weighted>
   9.000000E+99

> <Gold.Protein.RotatedTorsions>
[ 6907 6896 6895 6894 ] final -144.52 input  -60.11 | X-H torsion
[ 7974 7965 7964 7962 ] final   40.20 input  175.53 | X-H torsion
[ 8008 7997 7996 7995 ] final  -60.97 input   59.86 | X-H torsion
[ 10167 10162 10161 10158 ] final  143.21 input  -65.29 | X-H torsion
[ 10718 10713 10712 10709 ] final  146.06 input   66.30 | X-H torsion
[ 10763 10752 10751 10750 ] final -141.52 input  -60.55 | X-H torsion
[ 11005 11000 10999 10996 ] final   25.82 input  -57.11 | X-H torsion

> <Gold.Protein.ActiveResidues>
 VAL166  LYS551  ARG553  GLY616  TRP617  ASP618  TYR619  PRO620  LYS621  CYS622 
 ASP623  PHE694  ASN695  SER759  ASP760  ASP761  ALA762  ILE779  LEU786  VAL792 
 PHE793  MET794  SER795  GLU796  ALA797  LYS798  CYS799  TRP800  GLU811  SER814 

> <Gold.Protein.RotatedAtoms>
  151.1152  133.5144  159.2603 H   0  0  0  0  0  0  0  0  0  0  0  0  # atno 6907 bound_to 6896
  151.1922  135.0407  159.8847 H   0  0  0  0  0  0  0  0  0  0  0  0  # atno 6908 bound_to 6896
  152.5452  134.0991  159.8363 H   0  0  0  0  0  0  0  0  0  0  0  0  # atno 6909 bound_to 6896
  146.0924  139.5561  142.9467 H   0  0  0  0  0  0  0  0  0  0  0  0  # atno 7974 bound_to 7965
  154.4425  140.1028  156.6358 H   0  0  0  0  0  0  0  0  0  0  0  0  # atno 8008 bound_to 7997
  155.5555  140.3486  155.4460 H   0  0  0  0  0  0  0  0  0  0  0  0  # atno 8009 bound_to 7997
  156.0497  140.1301  157.0053 H   0  0  0  0  0  0  0  0  0  0  0  0  # atno 8010 bound_to 7997
  139.4975  144.6056  151.6386 H   0  0  0  0  0  0  0  0  0  0  0  0  # atno 10167 bound_to 10162
  157.3378  131.0931  151.1108 H   0  0  0  0  0  0  0  0  0  0  0  0  # atno 10718 bound_to 10713
  154.8542  135.3522  154.5880 H   0  0  0  0  0  0  0  0  0  0  0  0  # atno 10763 bound_to 10752
  153.6490  135.6995  153.5220 H   0  0  0  0  0  0  0  0  0  0  0  0  # atno 10764 bound_to 10752
  153.2909  135.4235  155.1124 H   0  0  0  0  0  0  0  0  0  0  0  0  # atno 10765 bound_to 10752
  140.3437  134.2305  155.7687 H   0  0  0  0  0  0  0  0  0  0  0  0  # atno 11005 bound_to 11000
  145.6014  141.0354  143.2016 LP  0  0  0  0  0  0  0  0  0  0  0  0  # atno 17320 bound_to 7965
  144.7370  139.7558  143.7325 LP  0  0  0  0  0  0  0  0  0  0  0  0  # atno 17321 bound_to 7965
  140.5717  144.0098  150.6220 LP  0  0  0  0  0  0  0  0  0  0  0  0  # atno 17342 bound_to 10162
  140.3218  143.3132  152.0776 LP  0  0  0  0  0  0  0  0  0  0  0  0  # atno 17343 bound_to 10162
  157.2332  130.6535  149.5858 LP  0  0  0  0  0  0  0  0  0  0  0  0  # atno 17370 bound_to 10713
  155.9703  130.4592  150.6027 LP  0  0  0  0  0  0  0  0  0  0  0  0  # atno 17371 bound_to 10713
  141.2031  133.7920  157.0355 LP  0  0  0  0  0  0  0  0  0  0  0  0  # atno 17394 bound_to 11000
  140.0760  134.9675  157.1546 LP  0  0  0  0  0  0  0  0  0  0  0  0  # atno 17395 bound_to 11000

$$$$
