AV-unprocessed.smi:963|AV-procd|sdf|4276|dock3
  -GOLD-   22720 2183D 1   1.00000     0.00000
 Structure written by MMmdl.
 36 37  0  0  0  0  0  0  0  0  1 V2000
  153.9746  141.0861  161.5702 C   0  0  0  0  0  0  0  0  0  0  0  0
  153.4706  142.4884  161.2122 C   0  0  0  0  0  0  0  0  0  0  0  0
  152.6307  142.4916  159.9688 C   0  0  0  0  0  0  0  0  0  0  0  0
  152.3188  141.2772  159.3496 N   0  0  0  0  0  0  0  0  0  0  0  0
  151.5769  141.4335  158.2515 C   0  0  0  0  0  0  0  0  0  0  0  0
  151.0717  140.2958  157.4291 C   0  0  0  0  0  0  0  0  0  0  0  0
  151.2133  140.5565  155.9237 C   0  0  0  0  0  0  0  0  0  0  0  0
  149.9679  141.0794  155.3738 N   0  0  0  0  0  0  0  0  0  0  0  0
  149.0995  140.3941  154.6135 C   0  0  0  0  0  0  0  0  0  0  0  0
  149.2655  139.2275  154.2584 O   0  0  0  0  0  0  0  0  0  0  0  0
  148.0611  141.1410  154.2051 N   0  0  0  0  0  0  0  0  0  0  0  0
  147.1021  141.9369  154.9659 C   0  0  0  0  0  0  0  0  0  0  0  0
  146.3218  142.0719  153.6604 C   0  0  0  0  0  0  0  0  0  0  0  0
  147.1424  140.9141  153.0964 C   0  0  0  0  0  0  0  0  0  0  0  0
  151.1905  143.1144  157.9126 S   0  0  0  0  0  0  0  0  0  0  0  0
  152.1081  143.5864  159.3198 C   0  0  0  0  0  0  0  0  0  0  0  0
  152.2469  145.0253  159.6925 C   0  0  0  0  0  0  0  0  0  0  0  0
  154.5797  141.1107  162.4765 H   0  0  0  0  0  0  0  0  0  0  0  0
  154.5897  140.6741  160.7696 H   0  0  0  0  0  0  0  0  0  0  0  0
  153.1442  140.4006  161.7425 H   0  0  0  0  0  0  0  0  0  0  0  0
  152.8967  142.8865  162.0498 H   0  0  0  0  0  0  0  0  0  0  0  0
  154.3233  143.1574  161.0952 H   0  0  0  0  0  0  0  0  0  0  0  0
  151.6211  139.3960  157.7079 H   0  0  0  0  0  0  0  0  0  0  0  0
  150.0265  140.1162  157.6848 H   0  0  0  0  0  0  0  0  0  0  0  0
  152.0004  141.2891  155.7427 H   0  0  0  0  0  0  0  0  0  0  0  0
  151.5190  139.6375  155.4205 H   0  0  0  0  0  0  0  0  0  0  0  0
  149.7502  142.0431  155.5810 H   0  0  0  0  0  0  0  0  0  0  0  0
  146.5738  141.3718  155.7357 H   0  0  0  0  0  0  0  0  0  0  0  0
  147.4896  142.8828  155.3456 H   0  0  0  0  0  0  0  0  0  0  0  0
  145.2541  141.8682  153.7484 H   0  0  0  0  0  0  0  0  0  0  0  0
  146.5133  143.0161  153.1477 H   0  0  0  0  0  0  0  0  0  0  0  0
  147.5614  141.1110  152.1088 H   0  0  0  0  0  0  0  0  0  0  0  0
  146.6305  139.9515  153.1389 H   0  0  0  0  0  0  0  0  0  0  0  0
  153.2862  145.2709  159.9116 H   0  0  0  0  0  0  0  0  0  0  0  0
  151.6509  145.2541  160.5762 H   0  0  0  0  0  0  0  0  0  0  0  0
  151.9131  145.6760  158.8840 H   0  0  0  0  0  0  0  0  0  0  0  0
  1  2  1  0  0  0  0
  1 18  1  0  0  0  0
  1 19  1  0  0  0  0
  1 20  1  0  0  0  0
  2  3  1  0  0  0  0
  2 21  1  0  0  0  0
  2 22  1  0  0  0  0
  3 16  2  0  0  0  0
  3  4  1  0  0  0  0
  4  5  2  0  0  0  0
  5  6  1  0  0  0  0
  5 15  1  0  0  0  0
  6  7  1  0  0  0  0
  6 23  1  0  0  0  0
  6 24  1  0  0  0  0
  7  8  1  0  0  0  0
  7 25  1  0  0  0  0
  7 26  1  0  0  0  0
  8  9  1  0  0  0  0
  8 27  1  0  0  0  0
  9 10  2  0  0  0  0
  9 11  1  0  0  0  0
 11 14  1  0  0  0  0
 11 12  1  0  0  0  0
 12 13  1  0  0  0  0
 12 28  1  0  0  0  0
 12 29  1  0  0  0  0
 13 14  1  0  0  0  0
 13 30  1  0  0  0  0
 13 31  1  0  0  0  0
 14 32  1  0  0  0  0
 14 33  1  0  0  0  0
 15 16  1  0  0  0  0
 16 17  1  0  0  0  0
 17 34  1  0  0  0  0
 17 35  1  0  0  0  0
 17 36  1  0  0  0  0
M  END
> <s_m_source_file>
AV-unprocessed.smi

> <i_m_source_file_index>
963

> <i_lp_mmshare_version>
43012

> <i_f3d_flags>
0

> <s_epik_input>
W0NIM11bQ0gyXWMxbmMoc2MxW0NIM10pW0NIMl1bQ0gyXVtOSF1DKD1PKU4yW0NIMl1bQ0gyXVtDSDJdMg==

> <s_epik_cmdline>
J2VwaWtfcHl0aG9uJywgJy1waCcsICc3LjAnLCAnLXRuJywgJzgnLCAnLW1hJywgJzIwMCcsICctbWV0YWxfYmluZGluZycsICctaW1hZScsICc8aW5maWxlLm1hZT4nLCAnLW9tYWUnLCAnPG91dGZpbGUubWFlPic=

> <r_epik_Ionization_Penalty>
0.00446738

> <r_epik_Ionization_Penalty_Charging>
0

> <r_epik_Ionization_Penalty_Neutral>
0.00446738

> <r_epik_State_Penalty>
0.00317617

> <r_epik_Charging_Adjusted_Penalty>
0.00317617

> <i_epik_Tot_Q>
0

> <i_epik_Tot_abs_Q>
0

> <r_epik_Metal_State_Penalty>
-0

> <b_epik_Metal_Only>
0

> <s_lp_Force_Field>
OPLS_2005

> <r_lp_Energy>
11.733

> <b_lp_Chiralities_Consistent>
1

> <s_lp_Variant>
AV-unprocessed.smi:963-1

> <Gold.Version>
5.8.1

> <Gold.Id.Protein>
6NUR|6NUR_protein|mol2

> <Gold.PLP.Fitness>
42.6034

> <Gold.PLP.PLP>
-41.5522

> <Gold.PLP.part.hbond>
-1.0000

> <Gold.PLP.part.metal>
0.0000

> <Gold.PLP.part.buried>
-4.6519

> <Gold.PLP.part.nonpolar>
-34.9217

> <Gold.PLP.part.repulsive>
1.0503

> <Gold.PLP.ligand.clash>
0.0000

> <Gold.PLP.ligand.torsion>
1.1058

> <Gold.PLP.Chemscore.Hbond>
0.9913

> <Gold.PLP.Chemscore.CHOScore>
0.0000

> <Gold.PLP.Chemscore.Metal>
0.0000

> <Gold.PLP.Chemscore.Internal.Correction>
0.2890

> <Gold.Rescore>
     Score         DG    S(hbond)    S(metal)    S(lipo)     H(rot)  DE(clash)    DE(int)     intcor
     15.68     -17.03       0.96        0.00     103.69       1.48       0.48       0.87       ----

> <Gold.Chemscore.Fitness>
15.6771

> <Gold.Chemscore.DG>
-17.0285

> <Gold.Chemscore.ZeroCoef>
-5.4800

> <Gold.Chemscore.Hbond>
0.9564

> <Gold.Chemscore.Metal>
0.0000

> <Gold.Chemscore.Lipo>
103.6935

> <Gold.Chemscore.Internal_Hbond>
0.0000

> <Gold.Chemscore.DEClash>
0.4837

> <Gold.Chemscore.DEInternal>
0.8677

> <Gold.Chemscore.Rot>
1.4758

> <Gold.Chemscore.Internal.Correction>
   9.000000E+99

> <Gold.Chemscore.Hbond.Weighted>
-3.1944

> <Gold.Chemscore.Metal.Weighted>
-0.0000

> <Gold.Chemscore.Lipo.Weighted>
-12.1321

> <Gold.Chemscore.Internal_Hbond.Weighted>
0.0000

> <Gold.Chemscore.DEClash.Weighted>
0.4837

> <Gold.Chemscore.DEInternal.Weighted>
0.8677

> <Gold.Chemscore.Rot.Weighted>
3.7780

> <Gold.Chemscore.Internal.Correction.Weighted>
   9.000000E+99

> <Gold.Protein.RotatedTorsions>
[ 6907 6896 6895 6894 ] final -150.62 input  -60.11 | X-H torsion
[ 7974 7965 7964 7962 ] final  -61.43 input  175.53 | X-H torsion
[ 8008 7997 7996 7995 ] final  -28.73 input   59.86 | X-H torsion
[ 10167 10162 10161 10158 ] final -132.13 input  -65.29 | X-H torsion
[ 10718 10713 10712 10709 ] final -101.43 input   66.30 | X-H torsion
[ 10763 10752 10751 10750 ] final   54.99 input  -60.55 | X-H torsion
[ 11005 11000 10999 10996 ] final -103.42 input  -57.11 | X-H torsion

> <Gold.Protein.ActiveResidues>
 VAL166  LYS551  ARG553  GLY616  TRP617  ASP618  TYR619  PRO620  LYS621  CYS622 
 ASP623  PHE694  ASN695  SER759  ASP760  ASP761  ALA762  ILE779  LEU786  VAL792 
 PHE793  MET794  SER795  GLU796  ALA797  LYS798  CYS799  TRP800  GLU811  SER814 

> <Gold.Protein.RotatedAtoms>
  151.2012  133.4610  159.2596 H   0  0  0  0  0  0  0  0  0  0  0  0  # atno 6907 bound_to 6896
  151.1067  135.0003  159.8485 H   0  0  0  0  0  0  0  0  0  0  0  0  # atno 6908 bound_to 6896
  152.5447  134.1934  159.8736 H   0  0  0  0  0  0  0  0  0  0  0  0  # atno 6909 bound_to 6896
  145.8035  140.8641  143.0219 H   0  0  0  0  0  0  0  0  0  0  0  0  # atno 7974 bound_to 7965
  154.4320  140.1837  156.1135 H   0  0  0  0  0  0  0  0  0  0  0  0  # atno 8008 bound_to 7997
  156.0199  140.3342  155.7002 H   0  0  0  0  0  0  0  0  0  0  0  0  # atno 8009 bound_to 7997
  155.5991  140.0638  157.2728 H   0  0  0  0  0  0  0  0  0  0  0  0  # atno 8010 bound_to 7997
  139.9117  143.6486  152.2574 H   0  0  0  0  0  0  0  0  0  0  0  0  # atno 10167 bound_to 10162
  156.0194  130.5373  150.6961 H   0  0  0  0  0  0  0  0  0  0  0  0  # atno 10718 bound_to 10713
  152.9811  135.5726  154.4994 H   0  0  0  0  0  0  0  0  0  0  0  0  # atno 10763 bound_to 10752
  154.4516  135.2778  155.1779 H   0  0  0  0  0  0  0  0  0  0  0  0  # atno 10764 bound_to 10752
  154.3404  135.6230  153.5647 H   0  0  0  0  0  0  0  0  0  0  0  0  # atno 10765 bound_to 10752
  141.1146  133.8639  157.1484 H   0  0  0  0  0  0  0  0  0  0  0  0  # atno 11005 bound_to 11000
  144.6766  140.0293  143.7483 LP  0  0  0  0  0  0  0  0  0  0  0  0  # atno 17320 bound_to 7965
  145.9853  139.2972  143.1017 LP  0  0  0  0  0  0  0  0  0  0  0  0  # atno 17321 bound_to 7965
  139.6936  144.7644  151.1395 LP  0  0  0  0  0  0  0  0  0  0  0  0  # atno 17342 bound_to 10162
  140.7683  143.5554  150.9158 LP  0  0  0  0  0  0  0  0  0  0  0  0  # atno 17343 bound_to 10162
  157.4632  131.0885  151.0723 LP  0  0  0  0  0  0  0  0  0  0  0  0  # atno 17370 bound_to 10713
  157.1205  130.6060  149.5504 LP  0  0  0  0  0  0  0  0  0  0  0  0  # atno 17371 bound_to 10713
  140.0061  135.0008  157.0295 LP  0  0  0  0  0  0  0  0  0  0  0  0  # atno 17394 bound_to 11000
  140.4680  134.1415  155.7199 LP  0  0  0  0  0  0  0  0  0  0  0  0  # atno 17395 bound_to 11000

$$$$
