AV-unprocessed.smi:55|AV-procd|sdf|562|dock10
  -GOLD-   2262016463D 1   1.00000     0.00000
 Structure written by MMmdl.
 31 32  0  0  0  0  0  0  0  0  1 V2000
  150.8533  144.9792  159.3591 C   0  0  0  0  0  0  0  0  0  0  0  0
  151.4495  143.6269  159.0054 C   0  0  0  0  0  0  0  0  0  0  0  0
  151.1537  142.9818  157.8481 C   0  0  0  0  0  0  0  0  0  0  0  0
  151.6812  141.7471  157.4964 N   0  0  0  0  0  0  0  0  0  0  0  0
  151.3074  141.0806  156.1918 C   0  0  1  0  0  0  0  0  0  0  0  0
  150.9408  139.6129  156.4158 C   0  0  0  0  0  0  0  0  0  0  0  0
  149.7852  139.4449  155.4518 C   0  0  1  0  0  0  0  0  0  0  0  0
  148.9408  138.3859  155.8541 O   0  0  0  0  0  0  0  0  0  0  0  0
  149.0962  140.8089  155.5386 C   0  0  2  0  0  0  0  0  0  0  0  0
  148.2606  141.1531  154.2964 C   0  0  0  0  0  0  0  0  0  0  0  0
  149.1093  141.3950  153.1946 O   0  0  0  0  0  0  0  0  0  0  0  0
  150.1868  141.7225  155.6562 O   0  0  0  0  0  0  0  0  0  0  0  0
  152.5653  141.0963  158.3822 C   0  0  0  0  0  0  0  0  0  0  0  0
  153.0541  139.9907  158.1531 O   0  0  0  0  0  0  0  0  0  0  0  0
  152.8721  141.7595  159.5693 N   0  0  0  0  0  0  0  0  0  0  0  0
  152.3728  143.0048  159.9584 C   0  0  0  0  0  0  0  0  0  0  0  0
  152.7189  143.4884  161.0350 O   0  0  0  0  0  0  0  0  0  0  0  0
  152.1297  141.2200  155.4887 H   0  0  0  0  0  0  0  0  0  0  0  0
  150.1622  139.2651  154.4437 H   0  0  0  0  0  0  0  0  0  0  0  0
  148.4888  140.8521  156.4448 H   0  0  0  0  0  0  0  0  0  0  0  0
  153.5071  141.2987  160.2047 H   0  0  0  0  0  0  0  0  0  0  0  0
  150.1983  145.3515  158.5710 H   0  0  0  0  0  0  0  0  0  0  0  0
  151.6427  145.7160  159.5121 H   0  0  0  0  0  0  0  0  0  0  0  0
  150.2672  144.9090  160.2761 H   0  0  0  0  0  0  0  0  0  0  0  0
  150.4652  143.4582  157.1668 H   0  0  0  0  0  0  0  0  0  0  0  0
  151.7876  138.9561  156.2145 H   0  0  0  0  0  0  0  0  0  0  0  0
  150.6124  139.4671  157.4466 H   0  0  0  0  0  0  0  0  0  0  0  0
  148.5036  138.6364  156.6537 H   0  0  0  0  0  0  0  0  0  0  0  0
  147.5497  140.3597  154.0636 H   0  0  0  0  0  0  0  0  0  0  0  0
  147.6857  142.0631  154.4710 H   0  0  0  0  0  0  0  0  0  0  0  0
  149.0435  140.6644  152.5988 H   0  0  0  0  0  0  0  0  0  0  0  0
  1  2  1  0  0  0  0
  1 22  1  0  0  0  0
  1 23  1  0  0  0  0
  1 24  1  0  0  0  0
  2 16  1  0  0  0  0
  2  3  2  0  0  0  0
  3  4  1  0  0  0  0
  3 25  1  0  0  0  0
  4  5  1  0  0  0  0
  4 13  1  0  0  0  0
  5 18  1  0  0  0  0
  5 12  1  0  0  0  0
  5  6  1  0  0  0  0
  6  7  1  0  0  0  0
  6 26  1  0  0  0  0
  6 27  1  0  0  0  0
  7 19  1  0  0  0  0
  7  8  1  0  0  0  0
  7  9  1  0  0  0  0
  8 28  1  0  0  0  0
  9 20  1  0  0  0  0
  9 10  1  0  0  0  0
  9 12  1  0  0  0  0
 10 11  1  0  0  0  0
 10 29  1  0  0  0  0
 10 30  1  0  0  0  0
 11 31  1  0  0  0  0
 13 14  2  0  0  0  0
 13 15  1  0  0  0  0
 15 21  1  0  0  0  0
 15 16  1  0  0  0  0
 16 17  2  0  0  0  0
M  END
> <s_m_source_file>
AV-unprocessed.smi

> <i_m_source_file_index>
55

> <i_lp_mmshare_version>
43012

> <i_f3d_flags>
0

> <s_epik_input>
Tz1jMVtuSF1jKD1PKW4oW2NIXWMxW0NIM10pW0NAQEhdMltDSDJdW0NAQEhdKFtPSF0pW0NAQEhdKE8yKVtDSDJdW09IXQ==

> <s_epik_cmdline>
J2VwaWtfcHl0aG9uJywgJy1waCcsICc3LjAnLCAnLXRuJywgJzgnLCAnLW1hJywgJzIwMCcsICctbWV0YWxfYmluZGluZycsICctaW1hZScsICc8aW5maWxlLm1hZT4nLCAnLW9tYWUnLCAnPG91dGZpbGUubWFlPic=

> <r_lp_tautomer_probability>
0.999537

> <r_epik_Ionization_Penalty>
0.00121888

> <r_epik_Ionization_Penalty_Charging>
0.00121876

> <r_epik_Ionization_Penalty_Neutral>
1.19946e-07

> <r_epik_State_Penalty>
0.000805124

> <r_epik_Charging_Adjusted_Penalty>
0.00202389

> <i_epik_Tot_Q>
0

> <i_epik_Tot_abs_Q>
0

> <r_epik_Metal_State_Penalty>
0.662472

> <b_epik_Metal_Only>
0

> <s_epik_Chemistry_Notes>
This compound contains an acetal/aminal-like group ( X-CH(R)-Y where X, Y are N, S, or O) that may be acid/base labile, releasing an aldehyde.

> <s_lp_Force_Field>
OPLS_2005

> <r_lp_Energy>
25.0544

> <b_lp_Chiralities_Consistent>
1

> <s_lp_Variant>
AV-unprocessed.smi:55-2

> <Gold.Version>
5.8.1

> <Gold.Id.Protein>
6NUR|6NUR_protein|mol2

> <Gold.PLP.Fitness>
39.9753

> <Gold.PLP.PLP>
-29.4211

> <Gold.PLP.part.hbond>
-3.5289

> <Gold.PLP.part.metal>
0.0000

> <Gold.PLP.part.buried>
-4.3603

> <Gold.PLP.part.nonpolar>
-20.9231

> <Gold.PLP.part.repulsive>
0.2536

> <Gold.PLP.ligand.clash>
0.0000

> <Gold.PLP.ligand.torsion>
0.4037

> <Gold.PLP.Chemscore.Hbond>
2.7840

> <Gold.PLP.Chemscore.CHOScore>
1.0000

> <Gold.PLP.Chemscore.Metal>
0.0000

> <Gold.Chemscore.Hbonds>
donor molecule, donor type, donor heavy atom, donor atom, acceptor molecule, acceptor atom, score
      L1  H    11    31       P1  7957  0.86
      P1  H  7997  8009       L1    14  1.00
      P1  H  8011  8017       L1    11  0.93
      L1  C     3    25       P1  8028  1.00

> <Gold.PLP.Chemscore.Internal.Correction>
0.0096

> <Gold.Rescore>
     Score         DG    S(hbond)    S(metal)    S(lipo)     H(rot)  DE(clash)    DE(int)     intcor
     10.82     -12.43       2.36        0.00      51.70       2.73       0.02       1.58       ----

> <Gold.Chemscore.Fitness>
10.8249

> <Gold.Chemscore.DG>
-12.4292

> <Gold.Chemscore.ZeroCoef>
-5.4800

> <Gold.Chemscore.Hbond>
2.3585

> <Gold.Chemscore.Metal>
0.0000

> <Gold.Chemscore.Lipo>
51.6962

> <Gold.Chemscore.Internal_Hbond>
0.0000

> <Gold.Chemscore.DEClash>
0.0243

> <Gold.Chemscore.DEInternal>
1.5800

> <Gold.Chemscore.Rot>
2.7253

> <Gold.Chemscore.Internal.Correction>
   9.000000E+99

> <Gold.Chemscore.Hbonds>
donor molecule, donor type, donor heavy atom, donor atom, acceptor molecule, acceptor atom, score
      L1  H    11    31       P1  7957  0.86
      P1  H  7997  8009       L1    14  0.86
      P1  H  8011  8017       L1    11  0.25

> <Gold.Chemscore.Hbond.Weighted>
-7.8776

> <Gold.Chemscore.Metal.Weighted>
-0.0000

> <Gold.Chemscore.Lipo.Weighted>
-6.0484

> <Gold.Chemscore.Internal_Hbond.Weighted>
0.0000

> <Gold.Chemscore.DEClash.Weighted>
0.0243

> <Gold.Chemscore.DEInternal.Weighted>
1.5800

> <Gold.Chemscore.Rot.Weighted>
6.9769

> <Gold.Chemscore.Internal.Correction.Weighted>
   9.000000E+99

> <Gold.Protein.RotatedTorsions>
[ 6907 6896 6895 6894 ] final  -22.50 input  -60.11 | X-H torsion
[ 7974 7965 7964 7962 ] final   14.20 input  175.53 | X-H torsion
[ 8008 7997 7996 7995 ] final  152.99 input   59.86 | X-H torsion
[ 10167 10162 10161 10158 ] final   39.36 input  -65.29 | X-H torsion
[ 10718 10713 10712 10709 ] final  173.42 input   66.30 | X-H torsion
[ 10763 10752 10751 10750 ] final   80.05 input  -60.55 | X-H torsion
[ 11005 11000 10999 10996 ] final  -22.47 input  -57.11 | X-H torsion

> <Gold.Protein.ActiveResidues>
 VAL166  LYS551  ARG553  GLY616  TRP617  ASP618  TYR619  PRO620  LYS621  CYS622 
 ASP623  PHE694  ASN695  SER759  ASP760  ASP761  ALA762  ILE779  LEU786  VAL792 
 PHE793  MET794  SER795  GLU796  ALA797  LYS798  CYS799  TRP800  GLU811  SER814 

> <Gold.Protein.RotatedAtoms>
  151.2177  135.0506  159.8936 H   0  0  0  0  0  0  0  0  0  0  0  0  # atno 6907 bound_to 6896
  152.5418  134.0674  159.8189 H   0  0  0  0  0  0  0  0  0  0  0  0  # atno 6908 bound_to 6896
  151.0836  133.5322  159.2651 H   0  0  0  0  0  0  0  0  0  0  0  0  # atno 6909 bound_to 6896
  146.2311  139.9076  142.8529 H   0  0  0  0  0  0  0  0  0  0  0  0  # atno 7974 bound_to 7965
  156.2603  140.2006  156.6419 H   0  0  0  0  0  0  0  0  0  0  0  0  # atno 8008 bound_to 7997
  154.6602  140.0561  157.0079 H   0  0  0  0  0  0  0  0  0  0  0  0  # atno 8009 bound_to 7997
  155.1287  140.3231  155.4482 H   0  0  0  0  0  0  0  0  0  0  0  0  # atno 8010 bound_to 7997
  140.3847  144.1933  150.6130 H   0  0  0  0  0  0  0  0  0  0  0  0  # atno 10167 bound_to 10162
  156.9645  131.0071  151.2920 H   0  0  0  0  0  0  0  0  0  0  0  0  # atno 10718 bound_to 10713
  153.1002  135.4817  154.8853 H   0  0  0  0  0  0  0  0  0  0  0  0  # atno 10763 bound_to 10752
  154.7370  135.3073  154.8796 H   0  0  0  0  0  0  0  0  0  0  0  0  # atno 10764 bound_to 10752
  153.9415  135.6833  153.4797 H   0  0  0  0  0  0  0  0  0  0  0  0  # atno 10765 bound_to 10752
  140.8660  133.7754  156.0130 H   0  0  0  0  0  0  0  0  0  0  0  0  # atno 11005 bound_to 11000
  145.2262  140.9955  143.4017 LP  0  0  0  0  0  0  0  0  0  0  0  0  # atno 17320 bound_to 7965
  144.9569  139.4022  143.6375 LP  0  0  0  0  0  0  0  0  0  0  0  0  # atno 17321 bound_to 7965
  140.4901  143.2350  151.8830 LP  0  0  0  0  0  0  0  0  0  0  0  0  # atno 17342 bound_to 10162
  139.4793  144.5175  151.8848 LP  0  0  0  0  0  0  0  0  0  0  0  0  # atno 17343 bound_to 10162
  157.5635  130.8262  149.8297 LP  0  0  0  0  0  0  0  0  0  0  0  0  # atno 17370 bound_to 10713
  156.0308  130.3765  150.1692 LP  0  0  0  0  0  0  0  0  0  0  0  0  # atno 17371 bound_to 10713
  140.8628  134.2820  157.5226 LP  0  0  0  0  0  0  0  0  0  0  0  0  # atno 17394 bound_to 11000
  139.8709  134.9527  156.4123 LP  0  0  0  0  0  0  0  0  0  0  0  0  # atno 17395 bound_to 11000

$$$$
