AV-unprocessed.smi:1497|AV-procd|sdf|6058|dock8
  -GOLD-   22720 6173D 1   1.00000     0.00000
 Structure written by MMmdl.
 33 34  0  0  0  0  0  0  0  0  1 V2000
  148.1505  138.5903  152.6830 N   0  0  0  0  0  0  0  0  0  0  0  0
  148.1327  139.0563  153.9351 C   0  0  0  0  0  0  0  0  0  0  0  0
  147.7650  138.3697  154.8856 O   0  0  0  0  0  0  0  0  0  0  0  0
  148.5853  140.5021  154.1512 C   0  0  0  0  0  0  0  0  0  0  0  0
  149.7419  140.5700  155.0268 N   0  0  0  0  0  0  0  0  0  0  0  0
  150.0276  141.5160  155.9919 C   0  0  0  0  0  0  0  0  0  0  0  0
  151.2211  141.1469  156.5346 C   0  0  0  0  0  0  0  0  0  0  0  0
  151.8878  141.8491  157.5697 N   0  0  0  0  0  0  0  0  0  0  0  0
  152.7856  141.3649  158.4488 C   0  0  0  0  0  0  0  0  0  0  0  0
  153.1277  140.1822  158.4781 O   0  0  0  0  0  0  0  0  0  0  0  0
  153.2656  142.2877  159.3223 N   0  0  0  0  0  0  0  0  0  0  0  0
  153.7105  142.0261  160.7020 C   0  0  0  0  0  0  0  0  0  0  0  0
  152.5576  142.3390  161.6702 C   0  0  0  0  0  0  0  0  0  0  0  0
  152.1006  144.0993  161.5907 S   0  0  0  0  0  0  0  0  0  0  0  0
  151.9330  144.2919  159.7882 C   0  0  0  0  0  0  0  0  0  0  0  0
  153.1621  143.7278  159.0551 C   0  0  0  0  0  0  0  0  0  0  0  0
  151.6086  139.9601  155.8505 C   0  0  0  0  0  0  0  0  0  0  0  0
  150.7067  139.6199  154.9420 N   0  0  0  0  0  0  0  0  0  0  0  0
  147.8622  137.6398  152.5006 H   0  0  0  0  0  0  0  0  0  0  0  0
  148.4536  139.1844  151.9254 H   0  0  0  0  0  0  0  0  0  0  0  0
  148.8384  140.9607  153.1942 H   0  0  0  0  0  0  0  0  0  0  0  0
  147.7723  141.0892  154.5816 H   0  0  0  0  0  0  0  0  0  0  0  0
  149.3721  142.3489  156.2003 H   0  0  0  0  0  0  0  0  0  0  0  0
  151.6690  142.8315  157.6467 H   0  0  0  0  0  0  0  0  0  0  0  0
  154.0592  141.0047  160.8557 H   0  0  0  0  0  0  0  0  0  0  0  0
  154.5726  142.6517  160.9380 H   0  0  0  0  0  0  0  0  0  0  0  0
  151.6836  141.7315  161.4322 H   0  0  0  0  0  0  0  0  0  0  0  0
  152.8450  142.0991  162.6940 H   0  0  0  0  0  0  0  0  0  0  0  0
  151.0265  143.7834  159.4582 H   0  0  0  0  0  0  0  0  0  0  0  0
  151.8065  145.3503  159.5600 H   0  0  0  0  0  0  0  0  0  0  0  0
  154.0665  144.2390  159.3874 H   0  0  0  0  0  0  0  0  0  0  0  0
  153.0886  143.9408  157.9876 H   0  0  0  0  0  0  0  0  0  0  0  0
  152.4861  139.3424  155.9708 H   0  0  0  0  0  0  0  0  0  0  0  0
  1  2  1  0  0  0  0
  1 19  1  0  0  0  0
  1 20  1  0  0  0  0
  2  3  2  0  0  0  0
  2  4  1  0  0  0  0
  4  5  1  0  0  0  0
  4 21  1  0  0  0  0
  4 22  1  0  0  0  0
  5 18  1  0  0  0  0
  5  6  1  0  0  0  0
  6  7  2  0  0  0  0
  6 23  1  0  0  0  0
  7  8  1  0  0  0  0
  7 17  1  0  0  0  0
  8  9  1  0  0  0  0
  8 24  1  0  0  0  0
  9 10  2  0  0  0  0
  9 11  1  0  0  0  0
 11 16  1  0  0  0  0
 11 12  1  0  0  0  0
 12 13  1  0  0  0  0
 12 25  1  0  0  0  0
 12 26  1  0  0  0  0
 13 14  1  0  0  0  0
 13 27  1  0  0  0  0
 13 28  1  0  0  0  0
 14 15  1  0  0  0  0
 15 16  1  0  0  0  0
 15 29  1  0  0  0  0
 15 30  1  0  0  0  0
 16 31  1  0  0  0  0
 16 32  1  0  0  0  0
 17 18  2  0  0  0  0
 17 33  1  0  0  0  0
M  END
> <s_m_source_file>
AV-unprocessed.smi

> <i_m_source_file_index>
1497

> <i_lp_mmshare_version>
43012

> <i_f3d_flags>
0

> <s_epik_input>
W05IMl1DKD1PKVtDSDJdbjFbY0hdYyhbY0hdbjEpW05IXUMoPU8pTjJbQ0gyXVtDSDJdU1tDSDJdW0NIMl0y

> <s_epik_cmdline>
J2VwaWtfcHl0aG9uJywgJy1waCcsICc3LjAnLCAnLXRuJywgJzgnLCAnLW1hJywgJzIwMCcsICctbWV0YWxfYmluZGluZycsICctaW1hZScsICc8aW5maWxlLm1hZT4nLCAnLW9tYWUnLCAnPG91dGZpbGUubWFlPic=

> <r_lp_tautomer_probability>
1

> <r_epik_Ionization_Penalty>
3.75542e-05

> <r_epik_Ionization_Penalty_Charging>
0

> <r_epik_Ionization_Penalty_Neutral>
3.75542e-05

> <r_epik_State_Penalty>
-0

> <r_epik_Charging_Adjusted_Penalty>
0

> <i_epik_Tot_Q>
0

> <i_epik_Tot_abs_Q>
0

> <r_epik_Metal_State_Penalty>
-0

> <b_epik_Metal_Only>
0

> <s_lp_Force_Field>
OPLS_2005

> <r_lp_Energy>
28.4964

> <b_lp_Chiralities_Consistent>
1

> <s_lp_Variant>
AV-unprocessed.smi:1497-1

> <Gold.Version>
5.8.1

> <Gold.Id.Protein>
6NUR|6NUR_protein|mol2

> <Gold.PLP.Fitness>
48.4004

> <Gold.PLP.PLP>
-39.7141

> <Gold.PLP.part.hbond>
-3.6645

> <Gold.PLP.part.metal>
0.0000

> <Gold.PLP.part.buried>
-1.3393

> <Gold.PLP.part.nonpolar>
-33.7481

> <Gold.PLP.part.repulsive>
0.2980

> <Gold.PLP.ligand.clash>
1.3410

> <Gold.PLP.ligand.torsion>
0.7076

> <Gold.PLP.Chemscore.Hbond>
2.8029

> <Gold.PLP.Chemscore.CHOScore>
1.0000

> <Gold.PLP.Chemscore.Metal>
0.0000

> <Gold.Chemscore.Hbonds>
donor molecule, donor type, donor heavy atom, donor atom, acceptor molecule, acceptor atom, score
      L1  H     1    19       P1  7948  0.51
      L1  H     1    20       P1  7957  1.00
      P1  H  7989  7998       L1    18  0.15
      P1  H  7997  8008       L1    10  0.90
      L1  C     6    23       P1  8028  1.00

> <Gold.PLP.Chemscore.Internal.Correction>
0.0339

> <Gold.Rescore>
     Score         DG    S(hbond)    S(metal)    S(lipo)     H(rot)  DE(clash)    DE(int)     intcor
     18.26     -19.82       2.48        0.00      85.42       1.54       0.12       1.44       ----

> <Gold.Chemscore.Fitness>
18.2625

> <Gold.Chemscore.DG>
-19.8195

> <Gold.Chemscore.ZeroCoef>
-5.4800

> <Gold.Chemscore.Hbond>
2.4803

> <Gold.Chemscore.Metal>
0.0000

> <Gold.Chemscore.Lipo>
85.4232

> <Gold.Chemscore.Internal_Hbond>
0.0000

> <Gold.Chemscore.DEClash>
0.1218

> <Gold.Chemscore.DEInternal>
1.4353

> <Gold.Chemscore.Rot>
1.5388

> <Gold.Chemscore.Internal.Correction>
   9.000000E+99

> <Gold.Chemscore.Hbonds>
donor molecule, donor type, donor heavy atom, donor atom, acceptor molecule, acceptor atom, score
      L1  H     1    19       P1  7948  0.52
      L1  H     1    20       P1  7957  0.94
      P1  H  7997  8008       L1    10  0.37

> <Gold.Chemscore.Hbond.Weighted>
-8.2842

> <Gold.Chemscore.Metal.Weighted>
-0.0000

> <Gold.Chemscore.Lipo.Weighted>
-9.9945

> <Gold.Chemscore.Internal_Hbond.Weighted>
0.0000

> <Gold.Chemscore.DEClash.Weighted>
0.1218

> <Gold.Chemscore.DEInternal.Weighted>
1.4353

> <Gold.Chemscore.Rot.Weighted>
3.9392

> <Gold.Chemscore.Internal.Correction.Weighted>
   9.000000E+99

> <Gold.Protein.RotatedTorsions>
[ 6907 6896 6895 6894 ] final   20.21 input  -60.11 | X-H torsion
[ 7974 7965 7964 7962 ] final  -61.06 input  175.53 | X-H torsion
[ 8008 7997 7996 7995 ] final  -85.63 input   59.86 | X-H torsion
[ 10167 10162 10161 10158 ] final    8.60 input  -65.29 | X-H torsion
[ 10718 10713 10712 10709 ] final  144.84 input   66.30 | X-H torsion
[ 10763 10752 10751 10750 ] final -107.47 input  -60.55 | X-H torsion
[ 11005 11000 10999 10996 ] final  -11.56 input  -57.11 | X-H torsion

> <Gold.Protein.ActiveResidues>
 VAL166  LYS551  ARG553  GLY616  TRP617  ASP618  TYR619  PRO620  LYS621  CYS622 
 ASP623  PHE694  ASN695  SER759  ASP760  ASP761  ALA762  ILE779  LEU786  VAL792 
 PHE793  MET794  SER795  GLU796  ALA797  LYS798  CYS799  TRP800  GLU811  SER814 

> <Gold.Protein.RotatedAtoms>
  151.8929  135.0409  160.0499 H   0  0  0  0  0  0  0  0  0  0  0  0  # atno 6907 bound_to 6896
  152.2421  133.5139  159.5284 H   0  0  0  0  0  0  0  0  0  0  0  0  # atno 6908 bound_to 6896
  150.7057  134.0991  159.4002 H   0  0  0  0  0  0  0  0  0  0  0  0  # atno 6909 bound_to 6896
  145.8080  140.8616  143.0197 H   0  0  0  0  0  0  0  0  0  0  0  0  # atno 7974 bound_to 7965
  154.6428  140.0589  156.9866 H   0  0  0  0  0  0  0  0  0  0  0  0  # atno 8008 bound_to 7997
  155.1490  140.3272  155.4417 H   0  0  0  0  0  0  0  0  0  0  0  0  # atno 8009 bound_to 7997
  156.2539  140.1950  156.6603 H   0  0  0  0  0  0  0  0  0  0  0  0  # atno 8010 bound_to 7997
  140.6304  143.8005  150.7288 H   0  0  0  0  0  0  0  0  0  0  0  0  # atno 10167 bound_to 10162
  157.3524  131.0953  151.0988 H   0  0  0  0  0  0  0  0  0  0  0  0  # atno 10718 bound_to 10713
  154.8077  135.4674  154.0434 H   0  0  0  0  0  0  0  0  0  0  0  0  # atno 10763 bound_to 10752
  153.1890  135.6852  153.8384 H   0  0  0  0  0  0  0  0  0  0  0  0  # atno 10764 bound_to 10752
  153.7908  135.3243  155.3355 H   0  0  0  0  0  0  0  0  0  0  0  0  # atno 10765 bound_to 10752
  140.7565  133.8549  155.9089 H   0  0  0  0  0  0  0  0  0  0  0  0  # atno 11005 bound_to 11000
  144.6760  140.0354  143.7482 LP  0  0  0  0  0  0  0  0  0  0  0  0  # atno 17320 bound_to 7965
  145.9807  139.2939  143.1043 LP  0  0  0  0  0  0  0  0  0  0  0  0  # atno 17321 bound_to 7965
  140.1615  143.4271  152.2063 LP  0  0  0  0  0  0  0  0  0  0  0  0  # atno 17342 bound_to 10162
  139.5519  144.7344  151.4408 LP  0  0  0  0  0  0  0  0  0  0  0  0  # atno 17343 bound_to 10162
  157.2159  130.6459  149.5792 LP  0  0  0  0  0  0  0  0  0  0  0  0  # atno 17370 bound_to 10713
  155.9723  130.4645  150.6219 LP  0  0  0  0  0  0  0  0  0  0  0  0  # atno 17371 bound_to 10713
  140.9702  134.1541  157.4582 LP  0  0  0  0  0  0  0  0  0  0  0  0  # atno 17394 bound_to 11000
  139.8778  134.9976  156.5855 LP  0  0  0  0  0  0  0  0  0  0  0  0  # atno 17395 bound_to 11000

$$$$
