AV-unprocessed.smi:2445|AV-procd|sdf|9636|dock3
  -GOLD-   2272013273D 1   1.00000     0.00000
 Structure written by MMmdl.
 40 41  0  0  0  0  0  0  0  0  1 V2000
  146.9664  141.1150  154.1522 C   0  0  0  0  0  0  0  0  0  0  0  0
  148.3657  140.6226  154.2988 C   0  0  0  0  0  0  0  0  0  0  0  0
  149.4747  141.3410  154.6713 C   0  0  0  0  0  0  0  0  0  0  0  0
  150.6465  140.5835  154.7221 N   0  0  0  0  0  0  0  0  0  0  0  0
  150.4433  139.3041  154.3952 C   0  0  0  0  0  0  0  0  0  0  0  0
  151.5163  138.2576  154.4187 C   0  0  1  0  0  0  0  0  0  0  0  0
  152.8758  138.8391  154.8337 C   0  0  0  0  0  0  0  0  0  0  0  0
  151.1249  137.0013  155.2274 C   0  0  0  0  0  0  0  0  0  0  0  0
  150.2475  136.1090  154.4711 N   0  0  0  0  0  0  0  0  0  0  0  0
  149.5652  135.0722  154.9787 C   0  0  0  0  0  0  0  0  0  0  0  0
  149.6415  134.6995  156.1493 O   0  0  0  0  0  0  0  0  0  0  0  0
  148.7723  134.5040  154.0598 N   0  0  0  0  0  0  0  0  0  0  0  0
  147.8480  133.3977  154.3101 C   0  0  1  0  0  0  0  0  0  0  0  0
  146.9815  133.1347  153.0794 C   0  0  0  0  0  0  0  0  0  0  0  0
  147.0888  131.6289  152.8632 C   0  0  0  0  0  0  0  0  0  0  0  0
  148.3816  131.3213  153.3535 O   0  0  0  0  0  0  0  0  0  0  0  0
  148.5514  132.0446  154.5640 C   0  0  1  0  0  0  0  0  0  0  0  0
  150.0372  132.0774  154.9564 C   0  0  0  0  0  0  0  0  0  0  0  0
  148.7663  138.9538  153.9906 S   0  0  0  0  0  0  0  0  0  0  0  0
  146.8853  142.1614  154.4476 H   0  0  0  0  0  0  0  0  0  0  0  0
  146.2857  140.5357  154.7764 H   0  0  0  0  0  0  0  0  0  0  0  0
  146.6333  141.0297  153.1176 H   0  0  0  0  0  0  0  0  0  0  0  0
  149.5202  142.3907  154.9215 H   0  0  0  0  0  0  0  0  0  0  0  0
  151.6363  137.9294  153.3853 H   0  0  0  0  0  0  0  0  0  0  0  0
  153.1647  139.6646  154.1823 H   0  0  0  0  0  0  0  0  0  0  0  0
  153.6601  138.0840  154.7777 H   0  0  0  0  0  0  0  0  0  0  0  0
  152.8498  139.2153  155.8569 H   0  0  0  0  0  0  0  0  0  0  0  0
  152.0211  136.4408  155.4946 H   0  0  0  0  0  0  0  0  0  0  0  0
  150.6582  137.2917  156.1702 H   0  0  0  0  0  0  0  0  0  0  0  0
  150.1183  136.3254  153.4936 H   0  0  0  0  0  0  0  0  0  0  0  0
  148.7857  134.8792  153.1228 H   0  0  0  0  0  0  0  0  0  0  0  0
  147.2037  133.6292  155.1603 H   0  0  0  0  0  0  0  0  0  0  0  0
  145.9494  133.4598  153.2143 H   0  0  0  0  0  0  0  0  0  0  0  0
  147.3778  133.6518  152.2040 H   0  0  0  0  0  0  0  0  0  0  0  0
  146.3389  131.0960  153.4501 H   0  0  0  0  0  0  0  0  0  0  0  0
  146.9745  131.3436  151.8174 H   0  0  0  0  0  0  0  0  0  0  0  0
  147.9995  131.5106  155.3399 H   0  0  0  0  0  0  0  0  0  0  0  0
  150.1879  132.6410  155.8772 H   0  0  0  0  0  0  0  0  0  0  0  0
  150.6500  132.5298  154.1763 H   0  0  0  0  0  0  0  0  0  0  0  0
  150.4129  131.0677  155.1232 H   0  0  0  0  0  0  0  0  0  0  0  0
  1  2  1  0  0  0  0
  1 20  1  0  0  0  0
  1 21  1  0  0  0  0
  1 22  1  0  0  0  0
  2 19  1  0  0  0  0
  2  3  2  0  0  0  0
  3  4  1  0  0  0  0
  3 23  1  0  0  0  0
  4  5  2  0  0  0  0
  5  6  1  0  0  0  0
  5 19  1  0  0  0  0
  6  7  1  0  0  0  0
  6  8  1  0  0  0  0
  6 24  1  0  0  0  0
  7 25  1  0  0  0  0
  7 26  1  0  0  0  0
  7 27  1  0  0  0  0
  8  9  1  0  0  0  0
  8 28  1  0  0  0  0
  8 29  1  0  0  0  0
  9 10  1  0  0  0  0
  9 30  1  0  0  0  0
 10 11  2  0  0  0  0
 10 12  1  0  0  0  0
 12 13  1  0  0  0  0
 12 31  1  0  0  0  0
 13 17  1  0  0  0  0
 13 14  1  0  0  0  0
 13 32  1  0  0  0  0
 14 15  1  0  0  0  0
 14 33  1  0  0  0  0
 14 34  1  0  0  0  0
 15 16  1  0  0  0  0
 15 35  1  0  0  0  0
 15 36  1  0  0  0  0
 16 17  1  0  0  0  0
 17 18  1  0  0  0  0
 17 37  1  0  0  0  0
 18 38  1  0  0  0  0
 18 39  1  0  0  0  0
 18 40  1  0  0  0  0
M  END
> <s_m_source_file>
AV-unprocessed.smi

> <i_m_source_file_index>
2445

> <i_lp_mmshare_version>
43012

> <i_f3d_flags>
0

> <s_epik_input>
W0NIM11jMVtjSF1uYyhzMSlbQ0BIXShbQ0gzXSlbQ0gyXVtOSF1DKD1PKVtOSF1bQ0BASF0yW0NIMl1bQ0gyXU9bQ0BIXTJbQ0gzXQ==

> <s_epik_cmdline>
J2VwaWtfcHl0aG9uJywgJy1waCcsICc3LjAnLCAnLXRuJywgJzgnLCAnLW1hJywgJzIwMCcsICctbWV0YWxfYmluZGluZycsICctaW1hZScsICc8aW5maWxlLm1hZT4nLCAnLW9tYWUnLCAnPG91dGZpbGUubWFlPic=

> <r_epik_Ionization_Penalty>
0.000649483

> <r_epik_Ionization_Penalty_Charging>
0

> <r_epik_Ionization_Penalty_Neutral>
0.000649483

> <r_epik_State_Penalty>
0.000379895

> <r_epik_Charging_Adjusted_Penalty>
0.000379895

> <i_epik_Tot_Q>
0

> <i_epik_Tot_abs_Q>
0

> <r_epik_Metal_State_Penalty>
-0

> <b_epik_Metal_Only>
0

> <s_lp_Force_Field>
OPLS_2005

> <r_lp_Energy>
6.66007

> <b_lp_Chiralities_Consistent>
1

> <s_lp_Variant>
AV-unprocessed.smi:2445-4

> <Gold.Version>
5.8.1

> <Gold.Id.Protein>
6NUR|6NUR_protein|mol2

> <Gold.PLP.Fitness>
43.5245

> <Gold.PLP.PLP>
-34.4822

> <Gold.PLP.part.hbond>
-3.7067

> <Gold.PLP.part.metal>
0.0000

> <Gold.PLP.part.buried>
-1.2505

> <Gold.PLP.part.nonpolar>
-28.9880

> <Gold.PLP.part.repulsive>
0.2862

> <Gold.PLP.ligand.clash>
0.0000

> <Gold.PLP.ligand.torsion>
0.4860

> <Gold.PLP.Chemscore.Hbond>
2.2940

> <Gold.PLP.Chemscore.CHOScore>
1.0000

> <Gold.PLP.Chemscore.Metal>
0.0000

> <Gold.Chemscore.Hbonds>
donor molecule, donor type, donor heavy atom, donor atom, acceptor molecule, acceptor atom, score
      L1  H     9    30       P1  7948  0.55
      L1  H    12    31       P1  7948  1.00
      P1  H  7989  7998       L1     4  0.74
      L1  C     3    23       P1  8028  1.00

> <Gold.PLP.Chemscore.Internal.Correction>
0.1322

> <Gold.Rescore>
     Score         DG    S(hbond)    S(metal)    S(lipo)     H(rot)  DE(clash)    DE(int)     intcor
     13.18     -15.78       1.59        0.00      76.14       1.53       0.02       2.58       ----

> <Gold.Chemscore.Fitness>
13.1788

> <Gold.Chemscore.DG>
-15.7761

> <Gold.Chemscore.ZeroCoef>
-5.4800

> <Gold.Chemscore.Hbond>
1.5901

> <Gold.Chemscore.Metal>
0.0000

> <Gold.Chemscore.Lipo>
76.1411

> <Gold.Chemscore.Internal_Hbond>
0.0000

> <Gold.Chemscore.DEClash>
0.0174

> <Gold.Chemscore.DEInternal>
2.5799

> <Gold.Chemscore.Rot>
1.5325

> <Gold.Chemscore.Internal.Correction>
   9.000000E+99

> <Gold.Chemscore.Hbonds>
donor molecule, donor type, donor heavy atom, donor atom, acceptor molecule, acceptor atom, score
      L1  H     9    30       P1  7948  0.03
      L1  H    12    31       P1  7948  0.30
      P1  H  7989  7998       L1     4  0.07

> <Gold.Chemscore.Hbond.Weighted>
-5.3110

> <Gold.Chemscore.Metal.Weighted>
-0.0000

> <Gold.Chemscore.Lipo.Weighted>
-8.9085

> <Gold.Chemscore.Internal_Hbond.Weighted>
0.0000

> <Gold.Chemscore.DEClash.Weighted>
0.0174

> <Gold.Chemscore.DEInternal.Weighted>
2.5799

> <Gold.Chemscore.Rot.Weighted>
3.9233

> <Gold.Chemscore.Internal.Correction.Weighted>
   9.000000E+99

> <Gold.Protein.RotatedTorsions>
[ 6907 6896 6895 6894 ] final  115.08 input  -60.11 | X-H torsion
[ 7974 7965 7964 7962 ] final   65.35 input  175.53 | X-H torsion
[ 8008 7997 7996 7995 ] final   66.52 input   59.86 | X-H torsion
[ 10167 10162 10161 10158 ] final -150.86 input  -65.29 | X-H torsion
[ 10718 10713 10712 10709 ] final -154.47 input   66.30 | X-H torsion
[ 10763 10752 10751 10750 ] final  -47.95 input  -60.55 | X-H torsion
[ 11005 11000 10999 10996 ] final -152.54 input  -57.11 | X-H torsion

> <Gold.Protein.ActiveResidues>
 VAL166  LYS551  ARG553  GLY616  TRP617  ASP618  TYR619  PRO620  LYS621  CYS622 
 ASP623  PHE694  ASN695  SER759  ASP760  ASP761  ALA762  ILE779  LEU786  VAL792 
 PHE793  MET794  SER795  GLU796  ALA797  LYS798  CYS799  TRP800  GLU811  SER814 

> <Gold.Protein.RotatedAtoms>
  152.4764  133.8148  159.7021 H   0  0  0  0  0  0  0  0  0  0  0  0  # atno 6907 bound_to 6896
  150.8783  133.7398  159.2946 H   0  0  0  0  0  0  0  0  0  0  0  0  # atno 6908 bound_to 6896
  151.4910  135.1061  159.9855 H   0  0  0  0  0  0  0  0  0  0  0  0  # atno 6909 bound_to 6896
  145.8394  139.3186  143.0940 H   0  0  0  0  0  0  0  0  0  0  0  0  # atno 7974 bound_to 7965
  155.6787  140.3496  155.4847 H   0  0  0  0  0  0  0  0  0  0  0  0  # atno 8008 bound_to 7997
  155.9625  140.1140  157.0905 H   0  0  0  0  0  0  0  0  0  0  0  0  # atno 8009 bound_to 7997
  154.4146  140.1173  156.5185 H   0  0  0  0  0  0  0  0  0  0  0  0  # atno 8010 bound_to 7997
  139.7317  143.8798  152.2537 H   0  0  0  0  0  0  0  0  0  0  0  0  # atno 10167 bound_to 10162
  156.4997  130.8385  151.2604 H   0  0  0  0  0  0  0  0  0  0  0  0  # atno 10718 bound_to 10713
  154.0699  135.6606  153.4823 H   0  0  0  0  0  0  0  0  0  0  0  0  # atno 10763 bound_to 10752
  153.0395  135.5154  154.7577 H   0  0  0  0  0  0  0  0  0  0  0  0  # atno 10764 bound_to 10752
  154.6640  135.3019  154.9797 H   0  0  0  0  0  0  0  0  0  0  0  0  # atno 10765 bound_to 10752
  140.7178  134.3761  157.5188 H   0  0  0  0  0  0  0  0  0  0  0  0  # atno 11005 bound_to 11000
  145.9482  140.8929  143.0273 LP  0  0  0  0  0  0  0  0  0  0  0  0  # atno 17320 bound_to 7965
  144.6734  140.1643  143.7420 LP  0  0  0  0  0  0  0  0  0  0  0  0  # atno 17321 bound_to 7965
  139.8723  144.7062  150.8973 LP  0  0  0  0  0  0  0  0  0  0  0  0  # atno 17342 bound_to 10162
  140.7772  143.3728  151.1617 LP  0  0  0  0  0  0  0  0  0  0  0  0  # atno 17343 bound_to 10162
  157.7464  130.9986  150.2858 LP  0  0  0  0  0  0  0  0  0  0  0  0  # atno 17370 bound_to 10713
  156.3345  130.3805  149.7462 LP  0  0  0  0  0  0  0  0  0  0  0  0  # atno 17371 bound_to 10713
  139.8855  134.8934  156.2636 LP  0  0  0  0  0  0  0  0  0  0  0  0  # atno 17394 bound_to 11000
  141.0030  133.7140  156.0990 LP  0  0  0  0  0  0  0  0  0  0  0  0  # atno 17395 bound_to 11000

$$$$
