AV-unprocessed.smi:2648|AV-procd|sdf|10285|dock1
  -GOLD-   2272014293D 1   1.00000     0.00000
 Structure written by MMmdl.
 32 33  0  0  0  0  0  0  0  0  1 V2000
  144.4030  136.4086  152.4883 O   0  0  0  0  0  0  0  0  0  0  0  0
  145.6127  136.2962  152.2905 C   0  0  0  0  0  0  0  0  0  0  0  0
  146.5110  137.2117  152.6810 N   0  0  0  0  0  0  0  0  0  0  0  0
  146.1885  138.4482  153.3820 C   0  0  0  0  0  0  0  0  0  0  0  0
  146.7848  139.6731  152.6648 C   0  0  0  0  0  0  0  0  0  0  0  0
  147.5895  140.4847  153.5807 N   0  0  0  0  0  0  0  0  0  0  0  0
  148.7455  140.0834  154.1253 C   0  0  0  0  0  0  0  0  0  0  0  0
  149.3106  139.0010  153.9726 O   0  0  0  0  0  0  0  0  0  0  0  0
  149.2844  141.2052  154.9857 C   0  0  0  0  0  0  0  0  0  0  0  0
  148.2433  142.1870  154.7704 N   0  0  0  0  0  0  0  0  0  0  0  0
  147.2811  141.7402  153.9527 C   0  0  0  0  0  0  0  0  0  0  0  0
  146.2920  142.3837  153.6050 O   0  0  0  0  0  0  0  0  0  0  0  0
  146.2074  135.2746  151.6498 N   0  0  0  0  0  0  0  0  0  0  0  0
  145.6145  134.1154  151.0787 C   0  0  0  0  0  0  0  0  0  0  0  0
  146.4718  133.0643  150.6927 C   0  0  0  0  0  0  0  0  0  0  0  0
  145.9097  131.8982  150.1362 C   0  0  0  0  0  0  0  0  0  0  0  0
  144.5832  131.7263  149.9584 N   0  0  0  0  0  0  0  0  0  0  0  0
  143.7627  132.7272  150.3414 C   0  0  0  0  0  0  0  0  0  0  0  0
  144.2207  133.9337  150.9077 C   0  0  0  0  0  0  0  0  0  0  0  0
  147.4851  137.0460  152.4739 H   0  0  0  0  0  0  0  0  0  0  0  0
  145.1061  138.5484  153.4814 H   0  0  0  0  0  0  0  0  0  0  0  0
  146.5874  138.3770  154.3944 H   0  0  0  0  0  0  0  0  0  0  0  0
  147.3948  139.3498  151.8198 H   0  0  0  0  0  0  0  0  0  0  0  0
  145.9883  140.2839  152.2359 H   0  0  0  0  0  0  0  0  0  0  0  0
  149.3525  140.9132  156.0342 H   0  0  0  0  0  0  0  0  0  0  0  0
  150.2520  141.5581  154.6277 H   0  0  0  0  0  0  0  0  0  0  0  0
  148.2573  143.1051  155.1899 H   0  0  0  0  0  0  0  0  0  0  0  0
  147.2020  135.3652  151.5030 H   0  0  0  0  0  0  0  0  0  0  0  0
  147.5421  133.1468  150.8131 H   0  0  0  0  0  0  0  0  0  0  0  0
  146.5443  131.0811  149.8267 H   0  0  0  0  0  0  0  0  0  0  0  0
  142.7056  132.5596  150.1968 H   0  0  0  0  0  0  0  0  0  0  0  0
  143.4992  134.6787  151.2046 H   0  0  0  0  0  0  0  0  0  0  0  0
  1  2  2  0  0  0  0
  2  3  1  0  0  0  0
  2 13  1  0  0  0  0
  3  4  1  0  0  0  0
  3 20  1  0  0  0  0
  4  5  1  0  0  0  0
  4 21  1  0  0  0  0
  4 22  1  0  0  0  0
  5  6  1  0  0  0  0
  5 23  1  0  0  0  0
  5 24  1  0  0  0  0
  6 11  1  0  0  0  0
  6  7  1  0  0  0  0
  7  8  2  0  0  0  0
  7  9  1  0  0  0  0
  9 10  1  0  0  0  0
  9 25  1  0  0  0  0
  9 26  1  0  0  0  0
 10 11  1  0  0  0  0
 10 27  1  0  0  0  0
 11 12  2  0  0  0  0
 13 14  1  0  0  0  0
 13 28  1  0  0  0  0
 14 19  1  0  0  0  0
 14 15  2  0  0  0  0
 15 16  1  0  0  0  0
 15 29  1  0  0  0  0
 16 17  2  0  0  0  0
 16 30  1  0  0  0  0
 17 18  1  0  0  0  0
 18 19  2  0  0  0  0
 18 31  1  0  0  0  0
 19 32  1  0  0  0  0
M  END
> <s_m_source_file>
AV-unprocessed.smi

> <i_m_source_file_index>
2648

> <i_lp_mmshare_version>
43012

> <i_f3d_flags>
0

> <s_epik_input>
W2NIXTFbY0hdbltjSF1bY0hdYzFbTkhdQyg9TylbTkhdW0NIMl1bQ0gyXU4yQyg9TylbQ0gyXVtOSF1DMj1P

> <s_epik_cmdline>
J2VwaWtfcHl0aG9uJywgJy1waCcsICc3LjAnLCAnLXRuJywgJzgnLCAnLW1hJywgJzIwMCcsICctbWV0YWxfYmluZGluZycsICctaW1hZScsICc8aW5maWxlLm1hZT4nLCAnLW9tYWUnLCAnPG91dGZpbGUubWFlPic=

> <r_lp_tautomer_probability>
1

> <r_epik_Ionization_Penalty>
0.109042

> <r_epik_Ionization_Penalty_Charging>
0

> <r_epik_Ionization_Penalty_Neutral>
0.109042

> <r_epik_State_Penalty>
0.0987421

> <r_epik_Charging_Adjusted_Penalty>
0.0987421

> <i_epik_Tot_Q>
0

> <i_epik_Tot_abs_Q>
0

> <r_epik_Metal_State_Penalty>
0.108818

> <b_epik_Metal_Only>
0

> <s_lp_Force_Field>
OPLS_2005

> <r_lp_Energy>
20.6194

> <b_lp_Chiralities_Consistent>
1

> <s_lp_Variant>
AV-unprocessed.smi:2648-1

> <Gold.Version>
5.8.1

> <Gold.Id.Protein>
6NUR|6NUR_protein|mol2

> <Gold.PLP.Fitness>
47.9423

> <Gold.PLP.PLP>
-34.1487

> <Gold.PLP.part.hbond>
-3.8110

> <Gold.PLP.part.metal>
0.0000

> <Gold.PLP.part.buried>
-5.1132

> <Gold.PLP.part.nonpolar>
-27.9176

> <Gold.PLP.part.repulsive>
1.3835

> <Gold.PLP.ligand.clash>
0.0000

> <Gold.PLP.ligand.torsion>
0.4557

> <Gold.PLP.Chemscore.Hbond>
3.0499

> <Gold.PLP.Chemscore.CHOScore>
1.8445

> <Gold.PLP.Chemscore.Metal>
0.0000

> <Gold.Chemscore.Hbonds>
donor molecule, donor type, donor heavy atom, donor atom, acceptor molecule, acceptor atom, score
      L1  H     3    20       P1  7948  1.00
      L1  H    10    27       P1  8028  1.00
      L1  H    13    28       P1  7948  1.00
      P1  H 10785 10796       L1    17  0.02
      L1  C    16    30       P1 10747  0.94
      L1  C    18    31       P1 10186  0.74

> <Gold.PLP.Chemscore.Internal.Correction>
0.0217

> <Gold.Rescore>
     Score         DG    S(hbond)    S(metal)    S(lipo)     H(rot)  DE(clash)    DE(int)     intcor
     15.76     -17.27       2.98        0.00      57.99       1.93       0.00       1.51       ----

> <Gold.Chemscore.Fitness>
15.7598

> <Gold.Chemscore.DG>
-17.2688

> <Gold.Chemscore.ZeroCoef>
-5.4800

> <Gold.Chemscore.Hbond>
2.9800

> <Gold.Chemscore.Metal>
0.0000

> <Gold.Chemscore.Lipo>
57.9912

> <Gold.Chemscore.Internal_Hbond>
0.0000

> <Gold.Chemscore.DEClash>
0.0000

> <Gold.Chemscore.DEInternal>
1.5090

> <Gold.Chemscore.Rot>
1.9334

> <Gold.Chemscore.Internal.Correction>
   9.000000E+99

> <Gold.Chemscore.Hbonds>
donor molecule, donor type, donor heavy atom, donor atom, acceptor molecule, acceptor atom, score
      L1  H     3    20       P1  7948  0.99
      L1  H    10    27       P1  8028  0.97
      L1  H    13    28       P1  7948  0.91
      P1  H 10785 10796       L1    17  0.03

> <Gold.Chemscore.Hbond.Weighted>
-9.9532

> <Gold.Chemscore.Metal.Weighted>
-0.0000

> <Gold.Chemscore.Lipo.Weighted>
-6.7850

> <Gold.Chemscore.Internal_Hbond.Weighted>
0.0000

> <Gold.Chemscore.DEClash.Weighted>
0.0000

> <Gold.Chemscore.DEInternal.Weighted>
1.5090

> <Gold.Chemscore.Rot.Weighted>
4.9494

> <Gold.Chemscore.Internal.Correction.Weighted>
   9.000000E+99

> <Gold.Protein.RotatedTorsions>
[ 6907 6896 6895 6894 ] final  143.40 input  -60.11 | X-H torsion
[ 7974 7965 7964 7962 ] final  -11.17 input  175.53 | X-H torsion
[ 8008 7997 7996 7995 ] final   -5.56 input   59.86 | X-H torsion
[ 10167 10162 10161 10158 ] final   85.64 input  -65.29 | X-H torsion
[ 10718 10713 10712 10709 ] final  -93.59 input   66.30 | X-H torsion
[ 10763 10752 10751 10750 ] final -145.48 input  -60.55 | X-H torsion
[ 11005 11000 10999 10996 ] final   25.91 input  -57.11 | X-H torsion

> <Gold.Protein.ActiveResidues>
 VAL166  LYS551  ARG553  GLY616  TRP617  ASP618  TYR619  PRO620  LYS621  CYS622 
 ASP623  PHE694  ASN695  SER759  ASP760  ASP761  ALA762  ILE779  LEU786  VAL792 
 PHE793  MET794  SER795  GLU796  ALA797  LYS798  CYS799  TRP800  GLU811  SER814 

> <Gold.Protein.RotatedAtoms>
  152.2067  133.4881  159.5087 H   0  0  0  0  0  0  0  0  0  0  0  0  # atno 6907 bound_to 6896
  150.6981  134.1520  159.4153 H   0  0  0  0  0  0  0  0  0  0  0  0  # atno 6908 bound_to 6896
  151.9438  135.0201  160.0588 H   0  0  0  0  0  0  0  0  0  0  0  0  # atno 6909 bound_to 6896
  146.2196  140.2872  142.8366 H   0  0  0  0  0  0  0  0  0  0  0  0  # atno 7974 bound_to 7965
  154.6027  140.2455  155.7772 H   0  0  0  0  0  0  0  0  0  0  0  0  # atno 8008 bound_to 7997
  156.2321  140.2963  156.0167 H   0  0  0  0  0  0  0  0  0  0  0  0  # atno 8009 bound_to 7997
  155.2184  140.0399  157.2935 H   0  0  0  0  0  0  0  0  0  0  0  0  # atno 8010 bound_to 7997
  139.8957  144.6359  150.8691 H   0  0  0  0  0  0  0  0  0  0  0  0  # atno 10167 bound_to 10162
  156.0015  130.5033  150.5799 H   0  0  0  0  0  0  0  0  0  0  0  0  # atno 10718 bound_to 10713
  154.8381  135.3412  154.6510 H   0  0  0  0  0  0  0  0  0  0  0  0  # atno 10763 bound_to 10752
  153.7123  135.6963  153.5038 H   0  0  0  0  0  0  0  0  0  0  0  0  # atno 10764 bound_to 10752
  153.2442  135.4374  155.0684 H   0  0  0  0  0  0  0  0  0  0  0  0  # atno 10765 bound_to 10752
  140.3427  134.2315  155.7688 H   0  0  0  0  0  0  0  0  0  0  0  0  # atno 11005 bound_to 11000
  144.9153  140.7805  143.5782 LP  0  0  0  0  0  0  0  0  0  0  0  0  # atno 17320 bound_to 7965
  145.2805  139.1920  143.4793 LP  0  0  0  0  0  0  0  0  0  0  0  0  # atno 17321 bound_to 7965
  140.7717  143.3475  151.2081 LP  0  0  0  0  0  0  0  0  0  0  0  0  # atno 17342 bound_to 10162
  139.7070  143.9439  152.2931 LP  0  0  0  0  0  0  0  0  0  0  0  0  # atno 17343 bound_to 10162
  157.3680  131.0761  151.1581 LP  0  0  0  0  0  0  0  0  0  0  0  0  # atno 17370 bound_to 10713
  157.2344  130.6540  149.5863 LP  0  0  0  0  0  0  0  0  0  0  0  0  # atno 17371 bound_to 10713
  141.2034  133.7913  157.0342 LP  0  0  0  0  0  0  0  0  0  0  0  0  # atno 17394 bound_to 11000
  140.0767  134.9671  157.1558 LP  0  0  0  0  0  0  0  0  0  0  0  0  # atno 17395 bound_to 11000

$$$$
