AV-unprocessed.smi:732|AV-procd|sdf|3528|dock2
  -GOLD-   22720 0523D 1   1.00000     0.00000
 Structure written by MMmdl.
 34 36  0  0  0  0  0  0  0  0  1 V2000
  147.0778  139.1016  152.6536 C   0  0  0  0  0  0  0  0  0  0  0  0
  147.4324  139.8411  153.8979 C   0  0  0  0  0  0  0  0  0  0  0  0
  148.4627  140.6791  154.2202 C   0  0  0  0  0  0  0  0  0  0  0  0
  148.1827  141.0259  155.5687 C   0  0  0  0  0  0  0  0  0  0  0  0
  149.0342  141.9047  156.2852 N   0  0  0  0  0  0  0  0  0  0  0  0
  150.3780  141.9115  156.3034 C   0  0  0  0  0  0  0  0  0  0  0  0
  151.0998  141.1424  155.6679 O   0  0  0  0  0  0  0  0  0  0  0  0
  150.8442  142.8748  157.1092 N   0  0  0  0  0  0  0  0  0  0  0  0
  152.2228  143.1654  157.3500 C   0  0  2  0  0  0  0  0  0  0  0  0
  152.7639  143.0635  158.7655 C   0  0  2  0  0  0  0  0  0  0  0  0
  151.9079  142.8012  159.9953 C   0  0  0  0  0  0  0  0  0  0  0  0
  151.9843  143.9826  160.9824 C   0  0  0  0  0  0  0  0  0  0  0  0
  151.7939  145.3748  160.3266 C   0  0  0  0  0  0  0  0  0  0  0  0
  151.5742  145.3335  158.8014 C   0  0  0  0  0  0  0  0  0  0  0  0
  152.5863  144.4187  158.1275 C   0  0  2  0  0  0  0  0  0  0  0  0
  147.0820  140.4509  156.0285 N   0  0  0  0  0  0  0  0  0  0  0  0
  146.5954  139.6889  154.9598 O   0  0  0  0  0  0  0  0  0  0  0  0
  147.8875  139.1532  151.9256 H   0  0  0  0  0  0  0  0  0  0  0  0
  146.1833  139.5239  152.1955 H   0  0  0  0  0  0  0  0  0  0  0  0
  146.8842  138.0507  152.8696 H   0  0  0  0  0  0  0  0  0  0  0  0
  149.2821  140.9921  153.5903 H   0  0  0  0  0  0  0  0  0  0  0  0
  148.5695  142.6012  156.8486 H   0  0  0  0  0  0  0  0  0  0  0  0
  150.1728  143.4552  157.5903 H   0  0  0  0  0  0  0  0  0  0  0  0
  152.9215  142.8903  156.5612 H   0  0  0  0  0  0  0  0  0  0  0  0
  153.7965  142.7365  158.8720 H   0  0  0  0  0  0  0  0  0  0  0  0
  150.8700  142.6447  159.7027 H   0  0  0  0  0  0  0  0  0  0  0  0
  152.2350  141.8772  160.4728 H   0  0  0  0  0  0  0  0  0  0  0  0
  151.2481  143.8420  161.7743 H   0  0  0  0  0  0  0  0  0  0  0  0
  152.9563  143.9619  161.4769 H   0  0  0  0  0  0  0  0  0  0  0  0
  150.9597  145.8950  160.7983 H   0  0  0  0  0  0  0  0  0  0  0  0
  152.6760  145.9811  160.5362 H   0  0  0  0  0  0  0  0  0  0  0  0
  150.5618  144.9871  158.5953 H   0  0  0  0  0  0  0  0  0  0  0  0
  151.6493  146.3332  158.3727 H   0  0  0  0  0  0  0  0  0  0  0  0
  153.5110  144.9192  157.8466 H   0  0  0  0  0  0  0  0  0  0  0  0
  1  2  1  0  0  0  0
  1 18  1  0  0  0  0
  1 19  1  0  0  0  0
  1 20  1  0  0  0  0
  2 17  1  0  0  0  0
  2  3  2  0  0  0  0
  3  4  1  0  0  0  0
  3 21  1  0  0  0  0
  4  5  1  0  0  0  0
  4 16  2  0  0  0  0
  5  6  1  0  0  0  0
  5 22  1  0  0  0  0
  6  7  2  0  0  0  0
  6  8  1  0  0  0  0
  8  9  1  0  0  0  0
  8 23  1  0  0  0  0
  9 15  1  0  0  0  0
  9 10  1  0  0  0  0
  9 24  1  0  0  0  0
 10 15  1  0  0  0  0
 10 11  1  0  0  0  0
 10 25  1  0  0  0  0
 11 12  1  0  0  0  0
 11 26  1  0  0  0  0
 11 27  1  0  0  0  0
 12 13  1  0  0  0  0
 12 28  1  0  0  0  0
 12 29  1  0  0  0  0
 13 14  1  0  0  0  0
 13 30  1  0  0  0  0
 13 31  1  0  0  0  0
 14 15  1  0  0  0  0
 14 32  1  0  0  0  0
 14 33  1  0  0  0  0
 15 34  1  0  0  0  0
 16 17  1  0  0  0  0
M  END
> <s_m_source_file>
AV-unprocessed.smi

> <i_m_source_file_index>
732

> <i_lp_mmshare_version>
43012

> <i_f3d_flags>
0

> <s_epik_input>
W0NIM11jMVtjSF1jKG5vMSlbTkhdQyg9TylbTkhdW0NASF0yW0NAQEhdKFtDQEBIXTIzKVtDSDJdW0NIMl1bQ0gyXVtDSDJdMw==

> <s_epik_cmdline>
J2VwaWtfcHl0aG9uJywgJy1waCcsICc3LjAnLCAnLXRuJywgJzgnLCAnLW1hJywgJzIwMCcsICctbWV0YWxfYmluZGluZycsICctaW1hZScsICc8aW5maWxlLm1hZT4nLCAnLW9tYWUnLCAnPG91dGZpbGUubWFlPic=

> <r_lp_tautomer_probability>
1

> <r_epik_Ionization_Penalty>
2.39506e-05

> <r_epik_Ionization_Penalty_Charging>
0

> <r_epik_Ionization_Penalty_Neutral>
2.39506e-05

> <r_epik_State_Penalty>
-0

> <r_epik_Charging_Adjusted_Penalty>
0

> <i_epik_Tot_Q>
0

> <i_epik_Tot_abs_Q>
0

> <r_epik_Metal_State_Penalty>
-0

> <b_epik_Metal_Only>
0

> <s_lp_Force_Field>
OPLS_2005

> <r_lp_Energy>
36.3442

> <b_lp_Chiralities_Consistent>
1

> <s_lp_Variant>
AV-unprocessed.smi:732-2

> <Gold.Version>
5.8.1

> <Gold.Id.Protein>
6NUR|6NUR_protein|mol2

> <Gold.PLP.Fitness>
35.2694

> <Gold.PLP.PLP>
-35.0021

> <Gold.PLP.part.hbond>
-3.0000

> <Gold.PLP.part.metal>
0.0000

> <Gold.PLP.part.buried>
-1.6018

> <Gold.PLP.part.nonpolar>
-30.1539

> <Gold.PLP.part.repulsive>
0.2149

> <Gold.PLP.ligand.clash>
0.0000

> <Gold.PLP.ligand.torsion>
0.3887

> <Gold.PLP.Chemscore.Hbond>
0.3338

> <Gold.PLP.Chemscore.CHOScore>
0.0000

> <Gold.PLP.Chemscore.Metal>
0.0000

> <Gold.Chemscore.Hbonds>
donor molecule, donor type, donor heavy atom, donor atom, acceptor molecule, acceptor atom, score
      P1  H  7989  7998       L1     7  0.29

> <Gold.PLP.Chemscore.Internal.Correction>
0.0432

> <Gold.Rescore>
     Score         DG    S(hbond)    S(metal)    S(lipo)     H(rot)  DE(clash)    DE(int)     intcor
     14.30     -17.24       0.53        0.00     107.23       1.00       1.86       1.09       ----

> <Gold.Chemscore.Fitness>
14.2972

> <Gold.Chemscore.DG>
-17.2399

> <Gold.Chemscore.ZeroCoef>
-5.4800

> <Gold.Chemscore.Hbond>
0.5310

> <Gold.Chemscore.Metal>
0.0000

> <Gold.Chemscore.Lipo>
107.2334

> <Gold.Chemscore.Internal_Hbond>
0.0000

> <Gold.Chemscore.DEClash>
1.8568

> <Gold.Chemscore.DEInternal>
1.0859

> <Gold.Chemscore.Rot>
1.0000

> <Gold.Chemscore.Internal.Correction>
   9.000000E+99

> <Gold.Chemscore.Hbonds>
donor molecule, donor type, donor heavy atom, donor atom, acceptor molecule, acceptor atom, score
      L1  H     5    22       P1  8028  0.01
      P1  H  7989  7998       L1     7  0.30

> <Gold.Chemscore.Hbond.Weighted>
-1.7736

> <Gold.Chemscore.Metal.Weighted>
-0.0000

> <Gold.Chemscore.Lipo.Weighted>
-12.5463

> <Gold.Chemscore.Internal_Hbond.Weighted>
0.0000

> <Gold.Chemscore.DEClash.Weighted>
1.8568

> <Gold.Chemscore.DEInternal.Weighted>
1.0859

> <Gold.Chemscore.Rot.Weighted>
2.5600

> <Gold.Chemscore.Internal.Correction.Weighted>
   9.000000E+99

> <Gold.Protein.RotatedTorsions>
[ 6907 6896 6895 6894 ] final   -8.54 input  -60.11 | X-H torsion
[ 7974 7965 7964 7962 ] final   18.46 input  175.53 | X-H torsion
[ 8008 7997 7996 7995 ] final  -72.21 input   59.86 | X-H torsion
[ 10167 10162 10161 10158 ] final   32.63 input  -65.29 | X-H torsion
[ 10718 10713 10712 10709 ] final  124.49 input   66.30 | X-H torsion
[ 10763 10752 10751 10750 ] final -133.11 input  -60.55 | X-H torsion
[ 11005 11000 10999 10996 ] final  170.05 input  -57.11 | X-H torsion

> <Gold.Protein.ActiveResidues>
 VAL166  LYS551  ARG553  GLY616  TRP617  ASP618  TYR619  PRO620  LYS621  CYS622 
 ASP623  PHE694  ASN695  SER759  ASP760  ASP761  ALA762  ILE779  LEU786  VAL792 
 PHE793  MET794  SER795  GLU796  ALA797  LYS798  CYS799  TRP800  GLU811  SER814 

> <Gold.Protein.RotatedAtoms>
  151.4320  135.1010  159.9644 H   0  0  0  0  0  0  0  0  0  0  0  0  # atno 6907 bound_to 6896
  152.4953  133.8609  159.7260 H   0  0  0  0  0  0  0  0  0  0  0  0  # atno 6908 bound_to 6896
  150.9148  133.6894  159.2873 H   0  0  0  0  0  0  0  0  0  0  0  0  # atno 6909 bound_to 6896
  146.2184  139.8454  142.8633 H   0  0  0  0  0  0  0  0  0  0  0  0  # atno 7974 bound_to 7965
  154.5148  140.0801  156.8060 H   0  0  0  0  0  0  0  0  0  0  0  0  # atno 8008 bound_to 7997
  155.3705  140.3422  155.4225 H   0  0  0  0  0  0  0  0  0  0  0  0  # atno 8009 bound_to 7997
  156.1615  140.1590  156.8591 H   0  0  0  0  0  0  0  0  0  0  0  0  # atno 8010 bound_to 7997
  140.4481  144.1088  150.6186 H   0  0  0  0  0  0  0  0  0  0  0  0  # atno 10167 bound_to 10162
  157.5581  131.1091  150.8586 H   0  0  0  0  0  0  0  0  0  0  0  0  # atno 10718 bound_to 10713
  154.8736  135.3776  154.4519 H   0  0  0  0  0  0  0  0  0  0  0  0  # atno 10763 bound_to 10752
  153.5194  135.7029  153.5744 H   0  0  0  0  0  0  0  0  0  0  0  0  # atno 10764 bound_to 10752
  153.3998  135.3951  155.1945 H   0  0  0  0  0  0  0  0  0  0  0  0  # atno 10765 bound_to 10752
  140.3042  134.7570  157.3940 H   0  0  0  0  0  0  0  0  0  0  0  0  # atno 11005 bound_to 11000
  145.2855  141.0152  143.3693 LP  0  0  0  0  0  0  0  0  0  0  0  0  # atno 17320 bound_to 7965
  144.9117  139.4521  143.6584 LP  0  0  0  0  0  0  0  0  0  0  0  0  # atno 17321 bound_to 7965
  140.4239  143.2599  151.9680 LP  0  0  0  0  0  0  0  0  0  0  0  0  # atno 17342 bound_to 10162
  139.4794  144.5806  151.7939 LP  0  0  0  0  0  0  0  0  0  0  0  0  # atno 17343 bound_to 10162
  156.9092  130.5274  149.5281 LP  0  0  0  0  0  0  0  0  0  0  0  0  # atno 17370 bound_to 10713
  156.0637  130.5684  150.9245 LP  0  0  0  0  0  0  0  0  0  0  0  0  # atno 17371 bound_to 10713
  140.1082  134.5381  155.8290 LP  0  0  0  0  0  0  0  0  0  0  0  0  # atno 17394 bound_to 11000
  141.2122  133.6716  156.6639 LP  0  0  0  0  0  0  0  0  0  0  0  0  # atno 17395 bound_to 11000

$$$$
