AV-unprocessed.smi:3022|AV-procd|sdf|11500|dock3
  -GOLD-   2272016433D 1   1.00000     0.00000
 Structure written by MMmdl.
 47 49  0  0  0  0  0  0  0  0  2 V2000
  150.1415  143.2772  157.6789 O   0  0  0  0  0  0  0  0  0  0  0  0
  150.1476  141.8804  157.4787 C   0  0  0  0  0  0  0  0  0  0  0  0
  150.9771  141.5365  156.2343 C   0  0  0  0  0  0  0  0  0  0  0  0
  150.2702  140.6161  155.3626 N   0  0  0  0  0  0  0  0  0  0  0  0
  150.9282  139.5202  154.8919 N   0  0  0  0  0  0  0  0  0  0  0  0
  150.0647  138.8662  154.1508 C   0  0  0  0  0  0  0  0  0  0  0  0
  148.7939  139.5240  154.1187 C   0  0  0  0  0  0  0  0  0  0  0  0
  147.5123  139.3473  153.5446 C   0  0  0  0  0  0  0  0  0  0  0  0
  147.2190  138.2453  152.7302 N   0  0  0  0  0  0  0  0  0  0  0  0
  145.8546  137.7538  152.6083 C   0  0  0  0  0  0  0  0  0  0  0  0
  145.7147  136.3393  153.1937 C   0  0  0  0  0  0  0  0  0  0  0  0
  146.1759  135.2802  152.2567 N   0  3  0  0  0  0  0  0  0  0  0  0
  145.5546  135.4072  150.9086 C   0  0  0  0  0  0  0  0  0  0  0  0
  144.1806  134.7244  150.7690 C   0  0  0  0  0  0  0  0  0  0  0  0
  144.2900  133.2699  150.2858 C   0  0  0  0  0  0  0  0  0  0  0  0
  144.8860  132.3076  151.3215 C   0  0  0  0  0  0  0  0  0  0  0  0
  146.2522  132.7427  151.8786 C   0  0  0  0  0  0  0  0  0  0  0  0
  146.1499  133.9199  152.8682 C   0  0  0  0  0  0  0  0  0  0  0  0
  146.5548  140.2744  153.8023 N   0  0  0  0  0  0  0  0  0  0  0  0
  146.8465  141.3196  154.5863 C   0  0  0  0  0  0  0  0  0  0  0  0
  148.0000  141.6151  155.1943 N   0  0  0  0  0  0  0  0  0  0  0  0
  148.9550  140.6784  154.9266 C   0  0  0  0  0  0  0  0  0  0  0  0
  149.6612  143.6801  156.9717 H   0  0  0  0  0  0  0  0  0  0  0  0
  150.5611  141.3967  158.3643 H   0  0  0  0  0  0  0  0  0  0  0  0
  149.1201  141.5329  157.3650 H   0  0  0  0  0  0  0  0  0  0  0  0
  151.2097  142.4402  155.6696 H   0  0  0  0  0  0  0  0  0  0  0  0
  151.9308  141.0901  156.5207 H   0  0  0  0  0  0  0  0  0  0  0  0
  150.3644  137.9495  153.6651 H   0  0  0  0  0  0  0  0  0  0  0  0
  145.1801  138.4378  153.1255 H   0  0  0  0  0  0  0  0  0  0  0  0
  145.5814  137.7617  151.5529 H   0  0  0  0  0  0  0  0  0  0  0  0
  146.2599  136.2600  154.1354 H   0  0  0  0  0  0  0  0  0  0  0  0
  144.6620  136.1783  153.4302 H   0  0  0  0  0  0  0  0  0  0  0  0
  145.4590  136.4633  150.6540 H   0  0  0  0  0  0  0  0  0  0  0  0
  146.2455  135.0114  150.1636 H   0  0  0  0  0  0  0  0  0  0  0  0
  143.6028  134.7924  151.6914 H   0  0  0  0  0  0  0  0  0  0  0  0
  143.6075  135.2735  150.0210 H   0  0  0  0  0  0  0  0  0  0  0  0
  143.2971  132.9115  150.0122 H   0  0  0  0  0  0  0  0  0  0  0  0
  144.8799  133.2321  149.3692 H   0  0  0  0  0  0  0  0  0  0  0  0
  144.1814  132.1702  152.1426 H   0  0  0  0  0  0  0  0  0  0  0  0
  144.9912  131.3270  150.8562 H   0  0  0  0  0  0  0  0  0  0  0  0
  146.6612  131.8910  152.4236 H   0  0  0  0  0  0  0  0  0  0  0  0
  146.9666  132.9458  151.0801 H   0  0  0  0  0  0  0  0  0  0  0  0
  146.9957  133.8589  153.5534 H   0  0  0  0  0  0  0  0  0  0  0  0
  145.2566  133.8019  153.4838 H   0  0  0  0  0  0  0  0  0  0  0  0
  146.0400  142.0188  154.7506 H   0  0  0  0  0  0  0  0  0  0  0  0
  147.9618  137.7777  152.2304 H   0  0  0  0  0  0  0  0  0  0  0  0
  147.1521  135.4833  152.0945 H   0  0  0  0  0  0  0  0  0  0  0  0
  1  2  1  0  0  0  0
  1 23  1  0  0  0  0
  2  3  1  0  0  0  0
  2 24  1  0  0  0  0
  2 25  1  0  0  0  0
  3  4  1  0  0  0  0
  3 26  1  0  0  0  0
  3 27  1  0  0  0  0
  4 22  1  0  0  0  0
  4  5  1  0  0  0  0
  5  6  2  0  0  0  0
  6  7  1  0  0  0  0
  6 28  1  0  0  0  0
  7 22  1  0  0  0  0
  7  8  2  0  0  0  0
  8  9  1  0  0  0  0
  8 19  1  0  0  0  0
  9 10  1  0  0  0  0
  9 46  1  0  0  0  0
 10 11  1  0  0  0  0
 10 29  1  0  0  0  0
 10 30  1  0  0  0  0
 11 12  1  0  0  0  0
 11 31  1  0  0  0  0
 11 32  1  0  0  0  0
 12 18  1  0  0  0  0
 12 13  1  0  0  0  0
 12 47  1  0  0  0  0
 13 14  1  0  0  0  0
 13 33  1  0  0  0  0
 13 34  1  0  0  0  0
 14 15  1  0  0  0  0
 14 35  1  0  0  0  0
 14 36  1  0  0  0  0
 15 16  1  0  0  0  0
 15 37  1  0  0  0  0
 15 38  1  0  0  0  0
 16 17  1  0  0  0  0
 16 39  1  0  0  0  0
 16 40  1  0  0  0  0
 17 18  1  0  0  0  0
 17 41  1  0  0  0  0
 17 42  1  0  0  0  0
 18 43  1  0  0  0  0
 18 44  1  0  0  0  0
 19 20  2  0  0  0  0
 20 21  1  0  0  0  0
 20 45  1  0  0  0  0
 21 22  2  0  0  0  0
M  CHG  1  12   1
M  END
> <s_m_source_file>
AV-unprocessed.smi

> <i_m_source_file_index>
3022

> <i_lp_mmshare_version>
43012

> <i_f3d_flags>
0

> <s_epik_input>
W09IXVtDSDJdW0NIMl1uKFtuSF1bY0hdMSljKGMxMiluW2NIXW5jXDI9TlxbQ0gyXVtDSDJdTjNbQ0gyXVtDSDJdW0NIMl1bQ0gyXVtDSDJdW0NIMl0z

> <s_epik_cmdline>
J2VwaWtfcHl0aG9uJywgJy1waCcsICc3LjAnLCAnLXRuJywgJzgnLCAnLW1hJywgJzIwMCcsICctbWV0YWxfYmluZGluZycsICctaW1hZScsICc8aW5maWxlLm1hZT4nLCAnLW9tYWUnLCAnPG91dGZpbGUubWFlPic=

> <r_lp_tautomer_probability>
1

> <r_epik_Ionization_Penalty>
0.000898909

> <r_epik_Ionization_Penalty_Charging>
0.000843316

> <r_epik_Ionization_Penalty_Neutral>
5.55928e-05

> <r_epik_State_Penalty>
-0

> <r_epik_Charging_Adjusted_Penalty>
0.000843316

> <i_epik_Tot_Q>
1

> <i_epik_Tot_abs_Q>
1

> <r_epik_Metal_State_Penalty>
-0

> <b_epik_Metal_Only>
0

> <s_lp_Force_Field>
OPLS_2005

> <r_lp_Energy>
21.5198

> <b_lp_Chiralities_Consistent>
1

> <s_lp_Variant>
AV-unprocessed.smi:3022-1

> <Gold.Version>
5.8.1

> <Gold.Id.Protein>
6NUR|6NUR_protein|mol2

> <Gold.PLP.Fitness>
51.5356

> <Gold.PLP.PLP>
-39.2194

> <Gold.PLP.part.hbond>
-4.0947

> <Gold.PLP.part.metal>
0.0000

> <Gold.PLP.part.buried>
-4.7375

> <Gold.PLP.part.nonpolar>
-31.2778

> <Gold.PLP.part.repulsive>
0.4169

> <Gold.PLP.ligand.clash>
0.0000

> <Gold.PLP.ligand.torsion>
0.7583

> <Gold.PLP.Chemscore.Hbond>
4.2620

> <Gold.PLP.Chemscore.CHOScore>
0.2928

> <Gold.PLP.Chemscore.Metal>
0.0000

> <Gold.Chemscore.Hbonds>
donor molecule, donor type, donor heavy atom, donor atom, acceptor molecule, acceptor atom, score
      L1  H     1    23       P1  8028  1.00
      L1  H     9    46       P1  7948  1.00
      L1  H    12    47       P1  7948  2.00
      P1  H  7989  7998       L1     5  0.14
      L1  C     6    28       P1  7948  0.29

> <Gold.PLP.Chemscore.Internal.Correction>
0.1685

> <Gold.Rescore>
     Score         DG    S(hbond)    S(metal)    S(lipo)     H(rot)  DE(clash)    DE(int)     intcor
     16.06     -16.90       2.90        0.00      75.71       2.79       0.02       0.82       ----

> <Gold.Chemscore.Fitness>
16.0572

> <Gold.Chemscore.DG>
-16.9022

> <Gold.Chemscore.ZeroCoef>
-5.4800

> <Gold.Chemscore.Hbond>
2.9042

> <Gold.Chemscore.Metal>
0.0000

> <Gold.Chemscore.Lipo>
75.7085

> <Gold.Chemscore.Internal_Hbond>
0.0000

> <Gold.Chemscore.DEClash>
0.0217

> <Gold.Chemscore.DEInternal>
0.8233

> <Gold.Chemscore.Rot>
2.7874

> <Gold.Chemscore.Internal.Correction>
   9.000000E+99

> <Gold.Chemscore.Hbonds>
donor molecule, donor type, donor heavy atom, donor atom, acceptor molecule, acceptor atom, score
      L1  H     1    23       P1  8028  0.94
      L1  H     9    46       P1  7948  0.96
      L1  H    12    47       P1  7948  0.99

> <Gold.Chemscore.Hbond.Weighted>
-9.7001

> <Gold.Chemscore.Metal.Weighted>
-0.0000

> <Gold.Chemscore.Lipo.Weighted>
-8.8579

> <Gold.Chemscore.Internal_Hbond.Weighted>
0.0000

> <Gold.Chemscore.DEClash.Weighted>
0.0217

> <Gold.Chemscore.DEInternal.Weighted>
0.8233

> <Gold.Chemscore.Rot.Weighted>
7.1358

> <Gold.Chemscore.Internal.Correction.Weighted>
   9.000000E+99

> <Gold.Protein.RotatedTorsions>
[ 6907 6896 6895 6894 ] final   88.54 input  -60.11 | X-H torsion
[ 7974 7965 7964 7962 ] final   -2.55 input  175.53 | X-H torsion
[ 8008 7997 7996 7995 ] final  124.41 input   59.86 | X-H torsion
[ 10167 10162 10161 10158 ] final   21.10 input  -65.29 | X-H torsion
[ 10718 10713 10712 10709 ] final -178.89 input   66.30 | X-H torsion
[ 10763 10752 10751 10750 ] final  -66.81 input  -60.55 | X-H torsion
[ 11005 11000 10999 10996 ] final  -97.50 input  -57.11 | X-H torsion

> <Gold.Protein.ActiveResidues>
 VAL166  LYS551  ARG553  GLY616  TRP617  ASP618  TYR619  PRO620  LYS621  CYS622 
 ASP623  PHE694  ASN695  SER759  ASP760  ASP761  ALA762  ILE779  LEU786  VAL792 
 PHE793  MET794  SER795  GLU796  ALA797  LYS798  CYS799  TRP800  GLU811  SER814 

> <Gold.Protein.RotatedAtoms>
  152.5426  134.2105  159.8747 H   0  0  0  0  0  0  0  0  0  0  0  0  # atno 6907 bound_to 6896
  151.2088  133.4561  159.2605 H   0  0  0  0  0  0  0  0  0  0  0  0  # atno 6908 bound_to 6896
  151.0917  134.9932  159.8461 H   0  0  0  0  0  0  0  0  0  0  0  0  # atno 6909 bound_to 6896
  146.2403  140.1588  142.8333 H   0  0  0  0  0  0  0  0  0  0  0  0  # atno 7974 bound_to 7965
  156.2800  140.2740  156.1783 H   0  0  0  0  0  0  0  0  0  0  0  0  # atno 8008 bound_to 7997
  155.0583  140.0386  157.2585 H   0  0  0  0  0  0  0  0  0  0  0  0  # atno 8009 bound_to 7997
  154.7138  140.2674  155.6609 H   0  0  0  0  0  0  0  0  0  0  0  0  # atno 8010 bound_to 7997
  140.5453  143.9606  150.6544 H   0  0  0  0  0  0  0  0  0  0  0  0  # atno 10167 bound_to 10162
  156.8509  130.9719  151.3092 H   0  0  0  0  0  0  0  0  0  0  0  0  # atno 10718 bound_to 10713
  154.3652  135.6107  153.5711 H   0  0  0  0  0  0  0  0  0  0  0  0  # atno 10763 bound_to 10752
  152.9792  135.5825  154.4586 H   0  0  0  0  0  0  0  0  0  0  0  0  # atno 10764 bound_to 10752
  154.4331  135.2848  155.1877 H   0  0  0  0  0  0  0  0  0  0  0  0  # atno 10765 bound_to 10752
  141.1377  133.8176  157.0715 H   0  0  0  0  0  0  0  0  0  0  0  0  # atno 11005 bound_to 11000
  145.0106  140.8711  143.5226 LP  0  0  0  0  0  0  0  0  0  0  0  0  # atno 17320 bound_to 7965
  145.1621  139.2452  143.5386 LP  0  0  0  0  0  0  0  0  0  0  0  0  # atno 17321 bound_to 7965
  140.3017  143.3256  152.0965 LP  0  0  0  0  0  0  0  0  0  0  0  0  # atno 17342 bound_to 10162
  139.5005  144.6692  151.6283 LP  0  0  0  0  0  0  0  0  0  0  0  0  # atno 17343 bound_to 10162
  157.6304  130.8724  149.9263 LP  0  0  0  0  0  0  0  0  0  0  0  0  # atno 17370 bound_to 10713
  156.0828  130.3671  150.0546 LP  0  0  0  0  0  0  0  0  0  0  0  0  # atno 17371 bound_to 10713
  140.0508  134.9806  157.1133 LP  0  0  0  0  0  0  0  0  0  0  0  0  # atno 17394 bound_to 11000
  140.3992  134.2100  155.7164 LP  0  0  0  0  0  0  0  0  0  0  0  0  # atno 17395 bound_to 11000

$$$$
