AV-unprocessed.smi:2066|AV-procd|sdf|8422|dock1
  -GOLD-   2272011113D 1   1.00000     0.00000
 Structure written by MMmdl.
 39 40  0  0  0  0  0  0  0  0  3 V2000
  145.9344  135.7848  155.8171 C   0  0  0  0  0  0  0  0  0  0  0  0
  147.1695  136.1324  154.9485 C   0  0  0  0  0  0  0  0  0  0  0  0
  147.0450  137.6405  154.6145 C   0  0  0  0  0  0  0  0  0  0  0  0
  148.4890  135.8781  155.7387 C   0  0  0  0  0  0  0  0  0  0  0  0
  148.4982  136.4915  157.0662 N   0  0  0  0  0  0  0  0  0  0  0  0
  148.7106  135.8647  158.2324 C   0  0  0  0  0  0  0  0  0  0  0  0
  148.9349  134.6523  158.2497 O   0  0  0  0  0  0  0  0  0  0  0  0
  148.6368  136.6813  159.3068 N   0  5  0  0  0  0  0  0  0  0  0  0
  147.9880  136.2781  160.4115 C   0  0  0  0  0  0  0  0  0  0  0  0
  147.7496  137.0822  161.4539 N   0  0  0  0  0  0  0  0  0  0  0  0
  147.0594  136.4543  162.4923 C   0  0  0  0  0  0  0  0  0  0  0  0
  146.7559  135.1447  162.2298 C   0  0  0  0  0  0  0  0  0  0  0  0
  147.3328  134.6574  160.6617 S   0  0  0  0  0  0  0  0  0  0  0  0
  147.1262  135.3194  153.6800 N   0  3  0  0  0  0  0  0  0  0  0  0
  147.4589  133.8735  153.8203 C   0  0  0  0  0  0  0  0  0  0  0  0
  147.5642  133.2070  152.4383 C   0  0  0  0  0  0  0  0  0  0  0  0
  146.3459  133.3763  151.7277 O   0  0  0  0  0  0  0  0  0  0  0  0
  146.0541  134.7489  151.5068 C   0  0  0  0  0  0  0  0  0  0  0  0
  145.8924  135.4671  152.8565 C   0  0  0  0  0  0  0  0  0  0  0  0
  145.8050  136.4915  156.6375 H   0  0  0  0  0  0  0  0  0  0  0  0
  146.0136  134.8001  156.2768 H   0  0  0  0  0  0  0  0  0  0  0  0
  145.0151  135.8099  155.2309 H   0  0  0  0  0  0  0  0  0  0  0  0
  146.8725  138.2390  155.5099 H   0  0  0  0  0  0  0  0  0  0  0  0
  146.2110  137.8309  153.9380 H   0  0  0  0  0  0  0  0  0  0  0  0
  147.9495  138.0397  154.1564 H   0  0  0  0  0  0  0  0  0  0  0  0
  148.6976  134.8121  155.8290 H   0  0  0  0  0  0  0  0  0  0  0  0
  149.3382  136.3009  155.2033 H   0  0  0  0  0  0  0  0  0  0  0  0
  148.3227  137.4848  157.1076 H   0  0  0  0  0  0  0  0  0  0  0  0
  146.8237  137.0168  163.3834 H   0  0  0  0  0  0  0  0  0  0  0  0
  146.2312  134.4410  162.8580 H   0  0  0  0  0  0  0  0  0  0  0  0
  148.4101  133.7270  154.3277 H   0  0  0  0  0  0  0  0  0  0  0  0
  146.6962  133.3657  154.4109 H   0  0  0  0  0  0  0  0  0  0  0  0
  148.3948  133.6244  151.8665 H   0  0  0  0  0  0  0  0  0  0  0  0
  147.7609  132.1407  152.5505 H   0  0  0  0  0  0  0  0  0  0  0  0
  146.8409  135.2121  150.9094 H   0  0  0  0  0  0  0  0  0  0  0  0
  145.1319  134.8230  150.9302 H   0  0  0  0  0  0  0  0  0  0  0  0
  145.0333  135.0486  153.3810 H   0  0  0  0  0  0  0  0  0  0  0  0
  145.6671  136.5123  152.6542 H   0  0  0  0  0  0  0  0  0  0  0  0
  147.8676  135.7041  153.1126 H   0  0  0  0  0  0  0  0  0  0  0  0
  1  2  1  0  0  0  0
  1 20  1  0  0  0  0
  1 21  1  0  0  0  0
  1 22  1  0  0  0  0
  2  3  1  0  0  0  0
  2  4  1  0  0  0  0
  2 14  1  0  0  0  0
  3 23  1  0  0  0  0
  3 24  1  0  0  0  0
  3 25  1  0  0  0  0
  4  5  1  0  0  0  0
  4 26  1  0  0  0  0
  4 27  1  0  0  0  0
  5  6  1  0  0  0  0
  5 28  1  0  0  0  0
  6  7  2  0  0  0  0
  6  8  1  0  0  0  0
  8  9  1  0  0  0  0
  9 13  1  0  0  0  0
  9 10  2  0  0  0  0
 10 11  1  0  0  0  0
 11 12  2  0  0  0  0
 11 29  1  0  0  0  0
 12 13  1  0  0  0  0
 12 30  1  0  0  0  0
 14 19  1  0  0  0  0
 14 15  1  0  0  0  0
 14 39  1  0  0  0  0
 15 16  1  0  0  0  0
 15 31  1  0  0  0  0
 15 32  1  0  0  0  0
 16 17  1  0  0  0  0
 16 33  1  0  0  0  0
 16 34  1  0  0  0  0
 17 18  1  0  0  0  0
 18 19  1  0  0  0  0
 18 35  1  0  0  0  0
 18 36  1  0  0  0  0
 19 37  1  0  0  0  0
 19 38  1  0  0  0  0
M  CHG  1   8  -1
M  CHG  1  14   1
M  END
> <s_m_source_file>
AV-unprocessed.smi

> <i_m_source_file_index>
2066

> <i_lp_mmshare_version>
43012

> <i_f3d_flags>
0

> <s_epik_input>
W0NIMl0xW0NIMl1PW0NIMl1bQ0gyXU4xQyhbQ0gzXSkoW0NIM10pW0NIMl1bTkhdQyg9TylbTkhdYzJuW2NIXVtjSF1zMg==

> <s_epik_cmdline>
J2VwaWtfcHl0aG9uJywgJy1waCcsICc3LjAnLCAnLXRuJywgJzgnLCAnLW1hJywgJzIwMCcsICctbWV0YWxfYmluZGluZycsICctaW1hZScsICc8aW5maWxlLm1hZT4nLCAnLW9tYWUnLCAnPG91dGZpbGUubWFlPic=

> <r_lp_tautomer_probability>
0.999

> <r_epik_Ionization_Penalty>
6.71078

> <r_epik_Ionization_Penalty_Charging>
5.8797

> <r_epik_Ionization_Penalty_Neutral>
0.831074

> <r_epik_State_Penalty>
6.07743

> <r_epik_Charging_Adjusted_Penalty>
11.9571

> <i_epik_Tot_Q>
0

> <i_epik_Tot_abs_Q>
2

> <r_epik_Metal_State_Penalty>
2.08929

> <b_epik_Metal_Only>
1

> <s_lp_Force_Field>
OPLS_2005

> <r_lp_Energy>
15.1529

> <b_lp_Chiralities_Consistent>
1

> <s_lp_Variant>
AV-unprocessed.smi:2066-4

> <Gold.Version>
5.8.1

> <Gold.Id.Protein>
6NUR|6NUR_protein|mol2

> <Gold.PLP.Fitness>
40.6384

> <Gold.PLP.PLP>
-27.0119

> <Gold.PLP.part.hbond>
-4.0000

> <Gold.PLP.part.metal>
0.0000

> <Gold.PLP.part.buried>
-2.6972

> <Gold.PLP.part.nonpolar>
-19.7939

> <Gold.PLP.part.repulsive>
0.1731

> <Gold.PLP.ligand.clash>
0.0000

> <Gold.PLP.ligand.torsion>
0.5267

> <Gold.PLP.Chemscore.Hbond>
4.8000

> <Gold.PLP.Chemscore.CHOScore>
0.0000

> <Gold.PLP.Chemscore.Metal>
0.0000

> <Gold.Chemscore.Hbonds>
donor molecule, donor type, donor heavy atom, donor atom, acceptor molecule, acceptor atom, score
      L1  H    14    39       P1  7948  2.00
      P1  H  6896  6908       L1     7  0.80
      P1  H  6931  6943       L1    10  1.00
      P1  H  6934  6947       L1    10  0.69

> <Gold.PLP.Chemscore.Internal.Correction>
0.2799

> <Gold.Rescore>
     Score         DG    S(hbond)    S(metal)    S(lipo)     H(rot)  DE(clash)    DE(int)     intcor
     16.85     -18.67       3.46        0.00      48.73       1.59       0.03       1.78       ----

> <Gold.Chemscore.Fitness>
16.8545

> <Gold.Chemscore.DG>
-18.6681

> <Gold.Chemscore.ZeroCoef>
-5.4800

> <Gold.Chemscore.Hbond>
3.4622

> <Gold.Chemscore.Metal>
0.0000

> <Gold.Chemscore.Lipo>
48.7300

> <Gold.Chemscore.Internal_Hbond>
0.0000

> <Gold.Chemscore.DEClash>
0.0333

> <Gold.Chemscore.DEInternal>
1.7803

> <Gold.Chemscore.Rot>
1.5926

> <Gold.Chemscore.Internal.Correction>
   9.000000E+99

> <Gold.Chemscore.Hbonds>
donor molecule, donor type, donor heavy atom, donor atom, acceptor molecule, acceptor atom, score
      L1  H    14    39       P1  7948  1.00
      P1  H  6896  6908       L1     7  0.39
      P1  H  6931  6943       L1    10  0.88
      P1  H  6934  6947       L1    10  0.58

> <Gold.Chemscore.Hbond.Weighted>
-11.5637

> <Gold.Chemscore.Metal.Weighted>
-0.0000

> <Gold.Chemscore.Lipo.Weighted>
-5.7014

> <Gold.Chemscore.Internal_Hbond.Weighted>
0.0000

> <Gold.Chemscore.DEClash.Weighted>
0.0333

> <Gold.Chemscore.DEInternal.Weighted>
1.7803

> <Gold.Chemscore.Rot.Weighted>
4.0770

> <Gold.Chemscore.Internal.Correction.Weighted>
   9.000000E+99

> <Gold.Protein.RotatedTorsions>
[ 6907 6896 6895 6894 ] final  160.82 input  -60.11 | X-H torsion
[ 7974 7965 7964 7962 ] final  115.69 input  175.53 | X-H torsion
[ 8008 7997 7996 7995 ] final  -44.97 input   59.86 | X-H torsion
[ 10167 10162 10161 10158 ] final -109.95 input  -65.29 | X-H torsion
[ 10718 10713 10712 10709 ] final  140.59 input   66.30 | X-H torsion
[ 10763 10752 10751 10750 ] final   59.73 input  -60.55 | X-H torsion
[ 11005 11000 10999 10996 ] final  108.01 input  -57.11 | X-H torsion

> <Gold.Protein.ActiveResidues>
 VAL166  LYS551  ARG553  GLY616  TRP617  ASP618  TYR619  PRO620  LYS621  CYS622 
 ASP623  PHE694  ASN695  SER759  ASP760  ASP761  ALA762  ILE779  LEU786  VAL792 
 PHE793  MET794  SER795  GLU796  ALA797  LYS798  CYS799  TRP800  GLU811  SER814 

> <Gold.Protein.RotatedAtoms>
  151.9650  133.3707  159.4049 H   0  0  0  0  0  0  0  0  0  0  0  0  # atno 6907 bound_to 6896
  150.6958  134.4201  159.5210 H   0  0  0  0  0  0  0  0  0  0  0  0  # atno 6908 bound_to 6896
  152.1896  134.8684  160.0569 H   0  0  0  0  0  0  0  0  0  0  0  0  # atno 6909 bound_to 6896
  145.1888  139.3011  143.4379 H   0  0  0  0  0  0  0  0  0  0  0  0  # atno 7974 bound_to 7965
  154.3999  140.1408  156.3770 H   0  0  0  0  0  0  0  0  0  0  0  0  # atno 8008 bound_to 7997
  155.8039  140.3475  155.5398 H   0  0  0  0  0  0  0  0  0  0  0  0  # atno 8009 bound_to 7997
  155.8455  140.0933  157.1698 H   0  0  0  0  0  0  0  0  0  0  0  0  # atno 8010 bound_to 7997
  140.1498  143.4209  152.1503 H   0  0  0  0  0  0  0  0  0  0  0  0  # atno 10167 bound_to 10162
  157.4015  131.1017  151.0546 H   0  0  0  0  0  0  0  0  0  0  0  0  # atno 10718 bound_to 10713
  152.9902  135.5561  154.5760 H   0  0  0  0  0  0  0  0  0  0  0  0  # atno 10763 bound_to 10752
  154.5151  135.2804  155.1312 H   0  0  0  0  0  0  0  0  0  0  0  0  # atno 10764 bound_to 10752
  154.2688  135.6367  153.5355 H   0  0  0  0  0  0  0  0  0  0  0  0  # atno 10765 bound_to 10752
  139.8837  134.9418  156.5907 H   0  0  0  0  0  0  0  0  0  0  0  0  # atno 11005 bound_to 11000
  146.3440  140.2094  142.8590 LP  0  0  0  0  0  0  0  0  0  0  0  0  # atno 17320 bound_to 7965
  145.0062  140.8674  143.5252 LP  0  0  0  0  0  0  0  0  0  0  0  0  # atno 17321 bound_to 7965
  139.5431  144.7275  151.4669 LP  0  0  0  0  0  0  0  0  0  0  0  0  # atno 17342 bound_to 10162
  140.6709  143.8295  150.6999 LP  0  0  0  0  0  0  0  0  0  0  0  0  # atno 17343 bound_to 10162
  157.1544  130.6198  149.5592 LP  0  0  0  0  0  0  0  0  0  0  0  0  # atno 17370 bound_to 10713
  155.9824  130.4838  150.6882 LP  0  0  0  0  0  0  0  0  0  0  0  0  # atno 17371 bound_to 10713
  140.7958  133.8545  155.8684 LP  0  0  0  0  0  0  0  0  0  0  0  0  # atno 17394 bound_to 11000
  140.9637  134.1622  157.4633 LP  0  0  0  0  0  0  0  0  0  0  0  0  # atno 17395 bound_to 11000

$$$$
