AV-unprocessed.smi:1639|AV-procd|sdf|6551|dock1
  -GOLD-   22720 7233D 1   1.00000     0.00000
 Structure written by MMmdl.
 38 39  0  0  0  0  0  0  0  0  2 V2000
  152.0554  141.3042  159.0235 C   0  0  0  0  0  0  0  0  0  0  0  0
  151.5756  140.3063  157.9607 C   0  0  0  0  0  0  0  0  0  0  0  0
  152.4491  140.2739  156.8399 O   0  0  0  0  0  0  0  0  0  0  0  0
  151.9897  139.5004  155.7384 C   0  0  1  0  0  0  0  0  0  0  0  0
  151.9039  138.0245  156.1648 C   0  0  0  0  0  0  0  0  0  0  0  0
  151.2574  137.1876  155.0494 C   0  0  0  0  0  0  0  0  0  0  0  0
  149.8912  137.7711  154.6488 C   0  0  0  0  0  0  0  0  0  0  0  0
  150.0141  139.1816  154.2897 N   0  0  0  0  0  0  0  0  0  0  0  0
  148.8319  139.7148  153.7632 C   0  0  0  0  0  0  0  0  0  0  0  0
  148.3043  140.9627  154.1587 C   0  0  0  0  0  0  0  0  0  0  0  0
  147.1097  141.3700  153.5395 C   0  0  0  0  0  0  0  0  0  0  0  0
  146.4480  142.6890  153.8783 C   0  0  0  0  0  0  0  0  0  0  0  0
  146.4984  140.6033  152.6137 N   0  0  0  0  0  0  0  0  0  0  0  0
  147.0495  139.4301  152.2830 C   0  0  0  0  0  0  0  0  0  0  0  0
  146.4185  138.6573  151.3380 N   0  0  0  0  0  0  0  0  0  0  0  0
  148.1864  138.9743  152.8289 N   0  3  0  0  0  0  0  0  0  0  0  0
  150.6018  140.0233  155.3289 C   0  0  0  0  0  0  0  0  0  0  0  0
  151.4116  141.2704  159.9025 H   0  0  0  0  0  0  0  0  0  0  0  0
  152.0478  142.3281  158.6501 H   0  0  0  0  0  0  0  0  0  0  0  0
  153.0709  141.0725  159.3455 H   0  0  0  0  0  0  0  0  0  0  0  0
  151.5588  139.3067  158.3954 H   0  0  0  0  0  0  0  0  0  0  0  0
  150.5533  140.5233  157.6473 H   0  0  0  0  0  0  0  0  0  0  0  0
  152.6583  139.5841  154.8791 H   0  0  0  0  0  0  0  0  0  0  0  0
  152.8956  137.6372  156.4000 H   0  0  0  0  0  0  0  0  0  0  0  0
  151.3109  137.9378  157.0761 H   0  0  0  0  0  0  0  0  0  0  0  0
  151.9157  137.1675  154.1798 H   0  0  0  0  0  0  0  0  0  0  0  0
  151.1419  136.1537  155.3753 H   0  0  0  0  0  0  0  0  0  0  0  0
  149.4820  137.2109  153.8069 H   0  0  0  0  0  0  0  0  0  0  0  0
  149.1879  137.6645  155.4760 H   0  0  0  0  0  0  0  0  0  0  0  0
  148.7942  141.5767  154.9005 H   0  0  0  0  0  0  0  0  0  0  0  0
  147.0192  143.2349  154.6299 H   0  0  0  0  0  0  0  0  0  0  0  0
  145.4440  142.5216  154.2692 H   0  0  0  0  0  0  0  0  0  0  0  0
  146.3707  143.3153  152.9891 H   0  0  0  0  0  0  0  0  0  0  0  0
  145.5610  138.9745  150.9091 H   0  0  0  0  0  0  0  0  0  0  0  0
  146.8067  137.7685  151.0571 H   0  0  0  0  0  0  0  0  0  0  0  0
  149.9434  140.0416  156.1984 H   0  0  0  0  0  0  0  0  0  0  0  0
  150.6845  141.0495  154.9681 H   0  0  0  0  0  0  0  0  0  0  0  0
  148.5781  138.0745  152.5506 H   0  0  0  0  0  0  0  0  0  0  0  0
  1  2  1  0  0  0  0
  1 18  1  0  0  0  0
  1 19  1  0  0  0  0
  1 20  1  0  0  0  0
  2  3  1  0  0  0  0
  2 21  1  0  0  0  0
  2 22  1  0  0  0  0
  3  4  1  0  0  0  0
  4 17  1  0  0  0  0
  4  5  1  0  0  0  0
  4 23  1  0  0  0  0
  5  6  1  0  0  0  0
  5 24  1  0  0  0  0
  5 25  1  0  0  0  0
  6  7  1  0  0  0  0
  6 26  1  0  0  0  0
  6 27  1  0  0  0  0
  7  8  1  0  0  0  0
  7 28  1  0  0  0  0
  7 29  1  0  0  0  0
  8  9  1  0  0  0  0
  8 17  1  0  0  0  0
  9 16  1  0  0  0  0
  9 10  2  0  0  0  0
 10 11  1  0  0  0  0
 10 30  1  0  0  0  0
 11 12  1  0  0  0  0
 11 13  2  0  0  0  0
 12 31  1  0  0  0  0
 12 32  1  0  0  0  0
 12 33  1  0  0  0  0
 13 14  1  0  0  0  0
 14 15  1  0  0  0  0
 14 16  2  0  0  0  0
 15 34  1  0  0  0  0
 15 35  1  0  0  0  0
 16 38  1  0  0  0  0
 17 36  1  0  0  0  0
 17 37  1  0  0  0  0
M  CHG  1  16   1
M  END
> <s_m_source_file>
AV-unprocessed.smi

> <i_m_source_file_index>
1639

> <i_lp_mmshare_version>
43012

> <i_f3d_flags>
0

> <s_epik_input>
W0NIM11bQ0gyXU9bQ0BASF0xW0NIMl1bQ0gyXVtDSDJdTihbQ0gyXTEpYzJbY0hdYyhbQ0gzXSluYyhuMilbTkgyXQ==

> <s_epik_cmdline>
J2VwaWtfcHl0aG9uJywgJy1waCcsICc3LjAnLCAnLXRuJywgJzgnLCAnLW1hJywgJzIwMCcsICctbWV0YWxfYmluZGluZycsICctaW1hZScsICc8aW5maWxlLm1hZT4nLCAnLW9tYWUnLCAnPG91dGZpbGUubWFlPic=

> <r_lp_tautomer_probability>
0.424989

> <r_epik_Ionization_Penalty>
0.443088

> <r_epik_Ionization_Penalty_Charging>
0.443085

> <r_epik_Ionization_Penalty_Neutral>
3.21819e-06

> <r_epik_State_Penalty>
1.26241

> <r_epik_Charging_Adjusted_Penalty>
1.70549

> <i_epik_Tot_Q>
1

> <i_epik_Tot_abs_Q>
1

> <r_epik_Metal_State_Penalty>
1.59997

> <b_epik_Metal_Only>
0

> <s_lp_Force_Field>
OPLS_2005

> <r_lp_Energy>
15.005

> <b_lp_Chiralities_Consistent>
1

> <s_lp_Variant>
AV-unprocessed.smi:1639-4

> <Gold.Version>
5.8.1

> <Gold.Id.Protein>
6NUR|6NUR_protein|mol2

> <Gold.PLP.Fitness>
40.5295

> <Gold.PLP.PLP>
-29.1358

> <Gold.PLP.part.hbond>
-3.8837

> <Gold.PLP.part.metal>
0.0000

> <Gold.PLP.part.buried>
0.0867

> <Gold.PLP.part.nonpolar>
-27.2021

> <Gold.PLP.part.repulsive>
2.5320

> <Gold.PLP.ligand.clash>
0.2108

> <Gold.PLP.ligand.torsion>
0.2060

> <Gold.PLP.Chemscore.Hbond>
3.9588

> <Gold.PLP.Chemscore.CHOScore>
0.0000

> <Gold.PLP.Chemscore.Metal>
0.0000

> <Gold.Chemscore.Hbonds>
donor molecule, donor type, donor heavy atom, donor atom, acceptor molecule, acceptor atom, score
      L1  H    15    34       P1 10171  1.00
      L1  H    16    38       P1  7948  2.00
      P1  H  7997  8008       L1     3  0.90

> <Gold.PLP.Chemscore.Internal.Correction>
0.1402

> <Gold.Rescore>
     Score         DG    S(hbond)    S(metal)    S(lipo)     H(rot)  DE(clash)    DE(int)     intcor
     16.69     -18.33       2.86        0.00      59.88       1.46       1.47       0.17       ----

> <Gold.Chemscore.Fitness>
16.6910

> <Gold.Chemscore.DG>
-18.3274

> <Gold.Chemscore.ZeroCoef>
-5.4800

> <Gold.Chemscore.Hbond>
2.8647

> <Gold.Chemscore.Metal>
0.0000

> <Gold.Chemscore.Lipo>
59.8842

> <Gold.Chemscore.Internal_Hbond>
0.0000

> <Gold.Chemscore.DEClash>
1.4702

> <Gold.Chemscore.DEInternal>
0.1662

> <Gold.Chemscore.Rot>
1.4560

> <Gold.Chemscore.Internal.Correction>
   9.000000E+99

> <Gold.Chemscore.Hbonds>
donor molecule, donor type, donor heavy atom, donor atom, acceptor molecule, acceptor atom, score
      L1  H    15    34       P1 10171  0.89
      L1  H    16    38       P1  7948  0.98
      P1  H  7997  8008       L1     3  0.17

> <Gold.Chemscore.Hbond.Weighted>
-9.5682

> <Gold.Chemscore.Metal.Weighted>
-0.0000

> <Gold.Chemscore.Lipo.Weighted>
-7.0065

> <Gold.Chemscore.Internal_Hbond.Weighted>
0.0000

> <Gold.Chemscore.DEClash.Weighted>
1.4702

> <Gold.Chemscore.DEInternal.Weighted>
0.1662

> <Gold.Chemscore.Rot.Weighted>
3.7272

> <Gold.Chemscore.Internal.Correction.Weighted>
   9.000000E+99

> <Gold.Protein.RotatedTorsions>
[ 6907 6896 6895 6894 ] final  -35.00 input  -60.11 | X-H torsion
[ 7974 7965 7964 7962 ] final -100.66 input  175.53 | X-H torsion
[ 8008 7997 7996 7995 ] final  -51.10 input   59.86 | X-H torsion
[ 10167 10162 10161 10158 ] final -148.36 input  -65.29 | X-H torsion
[ 10718 10713 10712 10709 ] final  104.65 input   66.30 | X-H torsion
[ 10763 10752 10751 10750 ] final  175.45 input  -60.55 | X-H torsion
[ 11005 11000 10999 10996 ] final   67.98 input  -57.11 | X-H torsion

> <Gold.Protein.ActiveResidues>
 VAL166  LYS551  ARG553  GLY616  TRP617  ASP618  TYR619  PRO620  LYS621  CYS622 
 ASP623  PHE694  ASN695  SER759  ASP760  ASP761  ALA762  ILE779  LEU786  VAL792 
 PHE793  MET794  SER795  GLU796  ALA797  LYS798  CYS799  TRP800  GLU811  SER814 

> <Gold.Protein.RotatedAtoms>
  151.0454  134.9636  159.8183 H   0  0  0  0  0  0  0  0  0  0  0  0  # atno 6907 bound_to 6896
  152.5371  134.2604  159.8943 H   0  0  0  0  0  0  0  0  0  0  0  0  # atno 6908 bound_to 6896
  151.2618  133.4255  159.2650 H   0  0  0  0  0  0  0  0  0  0  0  0  # atno 6909 bound_to 6896
  145.2917  140.9354  143.2874 H   0  0  0  0  0  0  0  0  0  0  0  0  # atno 7974 bound_to 7965
  154.4075  140.1256  156.4773 H   0  0  0  0  0  0  0  0  0  0  0  0  # atno 8008 bound_to 7997
  155.7120  140.3493  155.4958 H   0  0  0  0  0  0  0  0  0  0  0  0  # atno 8009 bound_to 7997
  155.9292  140.1066  157.1136 H   0  0  0  0  0  0  0  0  0  0  0  0  # atno 8010 bound_to 7997
  139.7539  143.8477  152.2592 H   0  0  0  0  0  0  0  0  0  0  0  0  # atno 10167 bound_to 10162
  157.6733  131.0809  150.5737 H   0  0  0  0  0  0  0  0  0  0  0  0  # atno 10718 bound_to 10713
  154.4678  135.2770  155.1665 H   0  0  0  0  0  0  0  0  0  0  0  0  # atno 10763 bound_to 10752
  154.3427  135.6167  153.5607 H   0  0  0  0  0  0  0  0  0  0  0  0  # atno 10764 bound_to 10752
  152.9861  135.5792  154.5053 H   0  0  0  0  0  0  0  0  0  0  0  0  # atno 10765 bound_to 10752
  139.9738  134.6856  156.0394 H   0  0  0  0  0  0  0  0  0  0  0  0  # atno 11005 bound_to 11000
  144.9167  139.4462  143.6561 LP  0  0  0  0  0  0  0  0  0  0  0  0  # atno 17320 bound_to 7965
  146.3182  139.8005  142.8966 LP  0  0  0  0  0  0  0  0  0  0  0  0  # atno 17321 bound_to 7965
  139.8464  144.7186  150.9268 LP  0  0  0  0  0  0  0  0  0  0  0  0  # atno 17342 bound_to 10162
  140.7801  143.3938  151.1264 LP  0  0  0  0  0  0  0  0  0  0  0  0  # atno 17343 bound_to 10162
  156.6039  130.4362  149.5886 LP  0  0  0  0  0  0  0  0  0  0  0  0  # atno 17370 bound_to 10713
  156.2484  130.6893  151.1622 LP  0  0  0  0  0  0  0  0  0  0  0  0  # atno 17371 bound_to 10713
  141.1416  133.6563  156.3747 LP  0  0  0  0  0  0  0  0  0  0  0  0  # atno 17394 bound_to 11000
  140.5237  134.6279  157.5327 LP  0  0  0  0  0  0  0  0  0  0  0  0  # atno 17395 bound_to 11000

$$$$
