AV-unprocessed.smi:148|AV-procd|sdf|1206|dock3
  -GOLD-   2262018373D 1   1.00000     0.00000
 Structure written by MMmdl.
 63 67  0  0  0  0  0  0  0  0  1 V2000
  148.9285  135.5986  154.3600 O   0  0  0  0  0  0  0  0  0  0  0  0
  149.1574  134.2061  154.3031 C   0  0  0  0  0  0  0  0  0  0  0  0
  149.9475  133.7149  155.5388 C   0  0  2  0  0  0  0  0  0  0  0  0
  151.2815  134.4892  155.7053 C   0  0  0  0  0  0  0  0  0  0  0  0
  151.0821  135.8689  156.1118 N   0  0  0  0  0  0  0  0  0  0  0  0
  150.4172  136.3141  157.2331 C   0  0  0  0  0  0  0  0  0  0  0  0
  150.3877  137.6102  157.3853 N   0  0  0  0  0  0  0  0  0  0  0  0
  151.0762  138.0917  156.2798 C   0  0  0  0  0  0  0  0  0  0  0  0
  151.4382  139.3884  155.8314 C   0  0  0  0  0  0  0  0  0  0  0  0
  151.1119  140.4992  156.5270 N   0  0  0  0  0  0  0  0  0  0  0  0
  151.8029  140.5014  157.8186 C   0  0  0  0  0  0  0  0  0  0  0  0
  151.7157  141.8715  158.4971 C   0  0  0  0  0  0  0  0  0  0  0  0
  150.2510  142.2875  158.6384 C   0  0  0  0  0  0  0  0  0  0  0  0
  149.5665  142.2629  157.2658 C   0  0  0  0  0  0  0  0  0  0  0  0
  149.6845  140.8840  156.5584 C   0  0  1  0  0  0  0  0  0  0  0  0
  149.0003  140.9347  155.1462 C   0  0  1  0  0  0  0  0  0  0  0  0
  148.6779  139.5815  154.4715 C   0  0  0  0  0  0  0  0  0  0  0  0
  147.5218  139.8263  153.4911 C   0  0  0  0  0  0  0  0  0  0  0  0
  147.0674  141.2696  153.7201 C   0  0  0  0  0  0  0  0  0  0  0  0
  147.6358  141.6551  155.0861 C   0  0  1  0  0  0  0  0  0  0  0  0
  146.7532  141.1804  156.0882 O   0  0  0  0  0  0  0  0  0  0  0  0
  152.1346  139.4926  154.6684 N   0  0  0  0  0  0  0  0  0  0  0  0
  152.4660  138.3884  153.9915 C   0  0  0  0  0  0  0  0  0  0  0  0
  152.2103  137.1134  154.2955 N   0  0  0  0  0  0  0  0  0  0  0  0
  151.5089  137.0124  155.4613 C   0  0  0  0  0  0  0  0  0  0  0  0
  150.1276  132.1715  155.5361 C   0  0  2  0  0  0  0  0  0  0  0  0
  151.3245  131.6400  156.3266 C   0  0  0  0  0  0  0  0  0  0  0  0
  151.9689  130.6165  155.3896 C   0  0  0  0  0  0  0  0  0  0  0  0
  150.9447  130.2924  154.4629 O   0  0  0  0  0  0  0  0  0  0  0  0
  150.2722  131.5035  154.1632 C   0  0  0  0  0  0  0  0  0  0  0  0
  148.8890  135.9334  153.4772 H   0  0  0  0  0  0  0  0  0  0  0  0
  148.2032  133.6854  154.2186 H   0  0  0  0  0  0  0  0  0  0  0  0
  149.7067  134.0124  153.3822 H   0  0  0  0  0  0  0  0  0  0  0  0
  149.3369  133.9478  156.4126 H   0  0  0  0  0  0  0  0  0  0  0  0
  151.9239  134.0202  156.4493 H   0  0  0  0  0  0  0  0  0  0  0  0
  151.8436  134.4925  154.7718 H   0  0  0  0  0  0  0  0  0  0  0  0
  149.9622  135.6422  157.9463 H   0  0  0  0  0  0  0  0  0  0  0  0
  151.3616  139.7445  158.4691 H   0  0  0  0  0  0  0  0  0  0  0  0
  152.8517  140.2317  157.6829 H   0  0  0  0  0  0  0  0  0  0  0  0
  152.1943  141.8372  159.4762 H   0  0  0  0  0  0  0  0  0  0  0  0
  152.2579  142.6119  157.9074 H   0  0  0  0  0  0  0  0  0  0  0  0
  149.7361  141.6094  159.3201 H   0  0  0  0  0  0  0  0  0  0  0  0
  150.1831  143.2840  159.0759 H   0  0  0  0  0  0  0  0  0  0  0  0
  148.5250  142.5443  157.4129 H   0  0  0  0  0  0  0  0  0  0  0  0
  150.0061  143.0352  156.6328 H   0  0  0  0  0  0  0  0  0  0  0  0
  149.1594  140.1485  157.1699 H   0  0  0  0  0  0  0  0  0  0  0  0
  149.6672  141.4822  154.4776 H   0  0  0  0  0  0  0  0  0  0  0  0
  149.5294  139.1624  153.9395 H   0  0  0  0  0  0  0  0  0  0  0  0
  148.3685  138.8518  155.2209 H   0  0  0  0  0  0  0  0  0  0  0  0
  147.8316  139.6744  152.4566 H   0  0  0  0  0  0  0  0  0  0  0  0
  146.7077  139.1294  153.6937 H   0  0  0  0  0  0  0  0  0  0  0  0
  147.5094  141.9095  152.9551 H   0  0  0  0  0  0  0  0  0  0  0  0
  145.9849  141.3876  153.6551 H   0  0  0  0  0  0  0  0  0  0  0  0
  147.7332  142.7376  155.1774 H   0  0  0  0  0  0  0  0  0  0  0  0
  147.2434  141.0585  156.8867 H   0  0  0  0  0  0  0  0  0  0  0  0
  153.0195  138.5491  153.0781 H   0  0  0  0  0  0  0  0  0  0  0  0
  149.2490  131.7266  156.0054 H   0  0  0  0  0  0  0  0  0  0  0  0
  152.0375  132.4084  156.6236 H   0  0  0  0  0  0  0  0  0  0  0  0
  150.9784  131.1561  157.2410 H   0  0  0  0  0  0  0  0  0  0  0  0
  152.8091  131.0619  154.8546 H   0  0  0  0  0  0  0  0  0  0  0  0
  152.3291  129.7320  155.9154 H   0  0  0  0  0  0  0  0  0  0  0  0
  149.3107  131.3180  153.6838 H   0  0  0  0  0  0  0  0  0  0  0  0
  150.8890  132.0823  153.4763 H   0  0  0  0  0  0  0  0  0  0  0  0
  1  2  1  0  0  0  0
  1 31  1  0  0  0  0
  2  3  1  0  0  0  0
  2 32  1  0  0  0  0
  2 33  1  0  0  0  0
  3  4  1  0  0  0  0
  3 26  1  0  0  0  0
  3 34  1  0  0  0  0
  4  5  1  0  0  0  0
  4 35  1  0  0  0  0
  4 36  1  0  0  0  0
  5 25  1  0  0  0  0
  5  6  1  0  0  0  0
  6  7  2  0  0  0  0
  6 37  1  0  0  0  0
  7  8  1  0  0  0  0
  8 25  2  0  0  0  0
  8  9  1  0  0  0  0
  9 10  1  0  0  0  0
  9 22  2  0  0  0  0
 10 15  1  0  0  0  0
 10 11  1  0  0  0  0
 11 12  1  0  0  0  0
 11 38  1  0  0  0  0
 11 39  1  0  0  0  0
 12 13  1  0  0  0  0
 12 40  1  0  0  0  0
 12 41  1  0  0  0  0
 13 14  1  0  0  0  0
 13 42  1  0  0  0  0
 13 43  1  0  0  0  0
 14 15  1  0  0  0  0
 14 44  1  0  0  0  0
 14 45  1  0  0  0  0
 15 16  1  0  0  0  0
 15 46  1  0  0  0  0
 16 20  1  0  0  0  0
 16 17  1  0  0  0  0
 16 47  1  0  0  0  0
 17 18  1  0  0  0  0
 17 48  1  0  0  0  0
 17 49  1  0  0  0  0
 18 19  1  0  0  0  0
 18 50  1  0  0  0  0
 18 51  1  0  0  0  0
 19 20  1  0  0  0  0
 19 52  1  0  0  0  0
 19 53  1  0  0  0  0
 20 21  1  0  0  0  0
 20 54  1  0  0  0  0
 21 55  1  0  0  0  0
 22 23  1  0  0  0  0
 23 24  2  0  0  0  0
 23 56  1  0  0  0  0
 24 25  1  0  0  0  0
 26 30  1  0  0  0  0
 26 27  1  0  0  0  0
 26 57  1  0  0  0  0
 27 28  1  0  0  0  0
 27 58  1  0  0  0  0
 27 59  1  0  0  0  0
 28 29  1  0  0  0  0
 28 60  1  0  0  0  0
 28 61  1  0  0  0  0
 29 30  1  0  0  0  0
 30 62  1  0  0  0  0
 30 63  1  0  0  0  0
M  END
> <s_m_source_file>
AV-unprocessed.smi

> <i_m_source_file_index>
148

> <i_lp_mmshare_version>
43012

> <i_f3d_flags>
0

> <s_epik_input>
W0NIMl0xT1tDSDJdW0NIMl1bQ0BIXTFbQ0BIXShbQ0gyXVtPSF0pW0NIMl1uKFtjSF1uMiljKGMyMyluW2NIXW5jM040W0NIMl1bQ0gyXVtDSDJdW0NIMl1bQ0BIXTRbQ0BASF01W0NIMl1bQ0gyXVtDSDJdW0NASF01W09IXQ==

> <s_epik_cmdline>
J2VwaWtfcHl0aG9uJywgJy1waCcsICc3LjAnLCAnLXRuJywgJzgnLCAnLW1hJywgJzIwMCcsICctbWV0YWxfYmluZGluZycsICctaW1hZScsICc8aW5maWxlLm1hZT4nLCAnLW9tYWUnLCAnPG91dGZpbGUubWFlPic=

> <r_lp_tautomer_probability>
1

> <r_epik_Ionization_Penalty>
0.00556303

> <r_epik_Ionization_Penalty_Charging>
0

> <r_epik_Ionization_Penalty_Neutral>
0.00556303

> <r_epik_State_Penalty>
0.00401767

> <r_epik_Charging_Adjusted_Penalty>
0.00401767

> <i_epik_Tot_Q>
0

> <i_epik_Tot_abs_Q>
0

> <r_epik_Metal_State_Penalty>
-0

> <b_epik_Metal_Only>
0

> <s_lp_Force_Field>
OPLS_2005

> <r_lp_Energy>
71.7906

> <b_lp_Chiralities_Consistent>
1

> <s_lp_Variant>
AV-unprocessed.smi:148-5

> <Gold.Version>
5.8.1

> <Gold.Id.Protein>
6NUR|6NUR_protein|mol2

> <Gold.PLP.Fitness>
47.3506

> <Gold.PLP.PLP>
-40.4036

> <Gold.PLP.part.hbond>
-2.9543

> <Gold.PLP.part.metal>
0.0000

> <Gold.PLP.part.buried>
-5.1131

> <Gold.PLP.part.nonpolar>
-32.7573

> <Gold.PLP.part.repulsive>
0.2671

> <Gold.PLP.ligand.clash>
0.0000

> <Gold.PLP.ligand.torsion>
1.1890

> <Gold.PLP.Chemscore.Hbond>
2.8720

> <Gold.PLP.Chemscore.CHOScore>
0.0000

> <Gold.PLP.Chemscore.Metal>
0.0000

> <Gold.Chemscore.Hbonds>
donor molecule, donor type, donor heavy atom, donor atom, acceptor molecule, acceptor atom, score
      L1  H     1    31       P1  7948  1.00
      P1  H  7989  7998       L1    22  0.83
      P1  H 10752 10763       L1    24  0.88

> <Gold.PLP.Chemscore.Internal.Correction>
0.7090

> <Gold.Rescore>
     Score         DG    S(hbond)    S(metal)    S(lipo)     H(rot)  DE(clash)    DE(int)     intcor
     14.02     -16.78       2.56        0.00      96.19       3.32       1.78       0.98       ----

> <Gold.Chemscore.Fitness>
14.0160

> <Gold.Chemscore.DG>
-16.7754

> <Gold.Chemscore.ZeroCoef>
-5.4800

> <Gold.Chemscore.Hbond>
2.5573

> <Gold.Chemscore.Metal>
0.0000

> <Gold.Chemscore.Lipo>
96.1887

> <Gold.Chemscore.Internal_Hbond>
0.0000

> <Gold.Chemscore.DEClash>
1.7837

> <Gold.Chemscore.DEInternal>
0.9758

> <Gold.Chemscore.Rot>
3.3203

> <Gold.Chemscore.Internal.Correction>
   9.000000E+99

> <Gold.Chemscore.Hbonds>
donor molecule, donor type, donor heavy atom, donor atom, acceptor molecule, acceptor atom, score
      L1  H     1    31       P1  7948  0.97
      P1  H  7989  7998       L1    22  0.59
      P1  H 10752 10763       L1    24  0.43

> <Gold.Chemscore.Hbond.Weighted>
-8.5414

> <Gold.Chemscore.Metal.Weighted>
-0.0000

> <Gold.Chemscore.Lipo.Weighted>
-11.2541

> <Gold.Chemscore.Internal_Hbond.Weighted>
0.0000

> <Gold.Chemscore.DEClash.Weighted>
1.7837

> <Gold.Chemscore.DEInternal.Weighted>
0.9758

> <Gold.Chemscore.Rot.Weighted>
8.5000

> <Gold.Chemscore.Internal.Correction.Weighted>
   9.000000E+99

> <Gold.Protein.RotatedTorsions>
[ 6907 6896 6895 6894 ] final   18.36 input  -60.11 | X-H torsion
[ 7974 7965 7964 7962 ] final   -1.37 input  175.53 | X-H torsion
[ 8008 7997 7996 7995 ] final   10.86 input   59.86 | X-H torsion
[ 10167 10162 10161 10158 ] final   54.16 input  -65.29 | X-H torsion
[ 10718 10713 10712 10709 ] final  165.07 input   66.30 | X-H torsion
[ 10763 10752 10751 10750 ] final   32.58 input  -60.55 | X-H torsion
[ 11005 11000 10999 10996 ] final   98.34 input  -57.11 | X-H torsion

> <Gold.Protein.ActiveResidues>
 VAL166  LYS551  ARG553  GLY616  TRP617  ASP618  TYR619  PRO620  LYS621  CYS622 
 ASP623  PHE694  ASN695  SER759  ASP760  ASP761  ALA762  ILE779  LEU786  VAL792 
 PHE793  MET794  SER795  GLU796  ALA797  LYS798  CYS799  TRP800  GLU811  SER814 

> <Gold.Protein.RotatedAtoms>
  151.8640  135.0513  160.0472 H   0  0  0  0  0  0  0  0  0  0  0  0  # atno 6907 bound_to 6896
  152.2640  133.5318  159.5407 H   0  0  0  0  0  0  0  0  0  0  0  0  # atno 6908 bound_to 6896
  150.7127  134.0706  159.3905 H   0  0  0  0  0  0  0  0  0  0  0  0  # atno 6909 bound_to 6896
  146.2418  140.1410  142.8335 H   0  0  0  0  0  0  0  0  0  0  0  0  # atno 7974 bound_to 7965
  154.7991  140.2849  155.5934 H   0  0  0  0  0  0  0  0  0  0  0  0  # atno 8008 bound_to 7997
  156.2975  140.2590  156.2785 H   0  0  0  0  0  0  0  0  0  0  0  0  # atno 8009 bound_to 7997
  154.9579  140.0378  157.2165 H   0  0  0  0  0  0  0  0  0  0  0  0  # atno 8010 bound_to 7997
  140.2331  144.3666  150.6407 H   0  0  0  0  0  0  0  0  0  0  0  0  # atno 10167 bound_to 10162
  157.0854  131.0403  151.2559 H   0  0  0  0  0  0  0  0  0  0  0  0  # atno 10718 bound_to 10713
  153.0255  135.6409  154.1377 H   0  0  0  0  0  0  0  0  0  0  0  0  # atno 10763 bound_to 10752
  154.1107  135.2853  155.3233 H   0  0  0  0  0  0  0  0  0  0  0  0  # atno 10764 bound_to 10752
  154.6334  135.5485  153.7768 H   0  0  0  0  0  0  0  0  0  0  0  0  # atno 10765 bound_to 10752
  139.8772  134.9044  156.4442 H   0  0  0  0  0  0  0  0  0  0  0  0  # atno 11005 bound_to 11000
  145.0247  140.8822  143.5146 LP  0  0  0  0  0  0  0  0  0  0  0  0  # atno 17320 bound_to 7965
  145.1464  139.2541  143.5463 LP  0  0  0  0  0  0  0  0  0  0  0  0  # atno 17321 bound_to 7965
  140.6170  143.2173  151.6771 LP  0  0  0  0  0  0  0  0  0  0  0  0  # atno 17342 bound_to 10162
  139.5103  144.3547  152.0619 LP  0  0  0  0  0  0  0  0  0  0  0  0  # atno 17343 bound_to 10162
  157.4766  130.7740  149.7374 LP  0  0  0  0  0  0  0  0  0  0  0  0  # atno 17370 bound_to 10713
  155.9912  130.3939  150.2994 LP  0  0  0  0  0  0  0  0  0  0  0  0  # atno 17371 bound_to 10713
  140.8978  133.7801  155.9645 LP  0  0  0  0  0  0  0  0  0  0  0  0  # atno 17394 bound_to 11000
  140.8684  134.2756  157.5202 LP  0  0  0  0  0  0  0  0  0  0  0  0  # atno 17395 bound_to 11000

$$$$
