AV-unprocessed.smi:561|AV-procd|sdf|2941|dock8
  -GOLD-   2262023443D 1   1.00000     0.00000
 Structure written by MMmdl.
 36 37  0  0  0  0  0  0  0  0  3 V2000
  152.6173  138.6822  155.3701 C   0  0  0  0  0  0  0  0  0  0  0  0
  151.5719  139.8027  155.4538 C   0  0  1  0  0  0  0  0  0  0  0  0
  150.2780  139.4229  154.6876 C   0  0  0  0  0  0  0  0  0  0  0  0
  149.3372  140.5413  154.4891 N   0  0  0  0  0  0  0  0  0  0  0  0
  148.1745  140.5261  153.7583 C   0  0  0  0  0  0  0  0  0  0  0  0
  147.6281  141.7788  153.8619 C   0  0  0  0  0  0  0  0  0  0  0  0
  148.4839  142.5119  154.6390 N   0  3  0  0  0  0  0  0  0  0  0  0
  149.5254  141.7619  155.0130 C   0  0  0  0  0  0  0  0  0  0  0  0
  151.2659  140.0572  156.8663 N   0  5  0  0  0  0  0  0  0  0  0  0
  152.1618  140.4732  157.8103 C   0  0  0  0  0  0  0  0  0  0  0  0
  153.1297  139.8256  158.2331 O   0  0  0  0  0  0  0  0  0  0  0  0
  151.9882  141.8413  158.3816 C   0  0  0  0  0  0  0  0  0  0  0  0
  152.3805  142.0638  159.5968 N   0  0  0  0  0  0  0  0  0  0  0  0
  152.2405  143.2952  160.2026 N   0  0  0  0  0  0  0  0  0  0  0  0
  152.4799  143.2991  161.6443 C   0  0  0  0  0  0  0  0  0  0  0  0
  151.9417  144.4458  159.5506 C   0  0  0  0  0  0  0  0  0  0  0  0
  151.8133  145.5356  160.1088 O   0  0  0  0  0  0  0  0  0  0  0  0
  151.7975  144.3506  158.0299 C   0  0  0  0  0  0  0  0  0  0  0  0
  151.3397  142.9521  157.5713 C   0  0  0  0  0  0  0  0  0  0  0  0
  152.8784  138.4680  154.3334 H   0  0  0  0  0  0  0  0  0  0  0  0
  152.2498  137.7576  155.8171 H   0  0  0  0  0  0  0  0  0  0  0  0
  153.5360  138.9612  155.8872 H   0  0  0  0  0  0  0  0  0  0  0  0
  152.0031  140.6787  154.9668 H   0  0  0  0  0  0  0  0  0  0  0  0
  150.5291  139.0310  153.7011 H   0  0  0  0  0  0  0  0  0  0  0  0
  149.7431  138.6277  155.2091 H   0  0  0  0  0  0  0  0  0  0  0  0
  147.8267  139.6398  153.2475 H   0  0  0  0  0  0  0  0  0  0  0  0
  146.7177  142.1914  153.4526 H   0  0  0  0  0  0  0  0  0  0  0  0
  150.3489  142.0733  155.6305 H   0  0  0  0  0  0  0  0  0  0  0  0
  153.3460  143.9165  161.8868 H   0  0  0  0  0  0  0  0  0  0  0  0
  152.6701  142.2962  162.0305 H   0  0  0  0  0  0  0  0  0  0  0  0
  151.6154  143.6973  162.1778 H   0  0  0  0  0  0  0  0  0  0  0  0
  151.1068  145.1132  157.6690 H   0  0  0  0  0  0  0  0  0  0  0  0
  152.7715  144.5772  157.5950 H   0  0  0  0  0  0  0  0  0  0  0  0
  151.5806  142.8547  156.5122 H   0  0  0  0  0  0  0  0  0  0  0  0
  150.2553  142.8683  157.6502 H   0  0  0  0  0  0  0  0  0  0  0  0
  148.3481  143.4802  154.9000 H   0  0  0  0  0  0  0  0  0  0  0  0
  1  2  1  0  0  0  0
  1 20  1  0  0  0  0
  1 21  1  0  0  0  0
  1 22  1  0  0  0  0
  2  3  1  0  0  0  0
  2  9  1  0  0  0  0
  2 23  1  0  0  0  0
  3  4  1  0  0  0  0
  3 24  1  0  0  0  0
  3 25  1  0  0  0  0
  4  8  1  0  0  0  0
  4  5  1  0  0  0  0
  5  6  2  0  0  0  0
  5 26  1  0  0  0  0
  6  7  1  0  0  0  0
  6 27  1  0  0  0  0
  7  8  2  0  0  0  0
  7 36  1  0  0  0  0
  8 28  1  0  0  0  0
  9 10  1  0  0  0  0
 10 11  2  0  0  0  0
 10 12  1  0  0  0  0
 12 19  1  0  0  0  0
 12 13  2  0  0  0  0
 13 14  1  0  0  0  0
 14 15  1  0  0  0  0
 14 16  1  0  0  0  0
 15 29  1  0  0  0  0
 15 30  1  0  0  0  0
 15 31  1  0  0  0  0
 16 17  2  0  0  0  0
 16 18  1  0  0  0  0
 18 19  1  0  0  0  0
 18 32  1  0  0  0  0
 18 33  1  0  0  0  0
 19 34  1  0  0  0  0
 19 35  1  0  0  0  0
M  CHG  1   7   1
M  CHG  1   9  -1
M  END
> <s_m_source_file>
AV-unprocessed.smi

> <i_m_source_file_index>
561

> <i_lp_mmshare_version>
43012

> <i_f3d_flags>
0

> <s_epik_input>
W2NIXTFuW2NIXVtjSF1uMVtDSDJdW0NAQEhdKFtDSDNdKVtOSF1DKD1PKUMyPU5OKFtDSDNdKUMoPU8pW0NIMl1bQ0gyXTI=

> <s_epik_cmdline>
J2VwaWtfcHl0aG9uJywgJy1waCcsICc3LjAnLCAnLXRuJywgJzgnLCAnLW1hJywgJzIwMCcsICctbWV0YWxfYmluZGluZycsICctaW1hZScsICc8aW5maWxlLm1hZT4nLCAnLW9tYWUnLCAnPG91dGZpbGUubWFlPic=

> <r_lp_tautomer_probability>
1

> <r_epik_Ionization_Penalty>
5.37239

> <r_epik_Ionization_Penalty_Charging>
5.18263

> <r_epik_Ionization_Penalty_Neutral>
0.189756

> <r_epik_State_Penalty>
5.53772

> <r_epik_Charging_Adjusted_Penalty>
10.7204

> <i_epik_Tot_Q>
0

> <i_epik_Tot_abs_Q>
2

> <r_epik_Metal_State_Penalty>
1.80836

> <b_epik_Metal_Only>
1

> <s_epik_Chemistry_Notes>
This compound has an imine and may undergo hydrolysis.

> <s_lp_Force_Field>
OPLS_2005

> <r_lp_Energy>
21.245

> <b_lp_Chiralities_Consistent>
1

> <s_lp_Variant>
AV-unprocessed.smi:561-6

> <Gold.Version>
5.8.1

> <Gold.Id.Protein>
6NUR|6NUR_protein|mol2

> <Gold.PLP.Fitness>
53.7233

> <Gold.PLP.PLP>
-46.6892

> <Gold.PLP.part.hbond>
-1.9630

> <Gold.PLP.part.metal>
0.0000

> <Gold.PLP.part.buried>
-3.7313

> <Gold.PLP.part.nonpolar>
-41.1494

> <Gold.PLP.part.repulsive>
0.4799

> <Gold.PLP.ligand.clash>
0.0000

> <Gold.PLP.ligand.torsion>
1.0957

> <Gold.PLP.Chemscore.Hbond>
2.9840

> <Gold.PLP.Chemscore.CHOScore>
0.0759

> <Gold.PLP.Chemscore.Metal>
0.0000

> <Gold.Chemscore.Hbonds>
donor molecule, donor type, donor heavy atom, donor atom, acceptor molecule, acceptor atom, score
      L1  H     7    36       P1  8028  1.90
      P1  H  7997  8009       L1    11  1.00
      L1  C     5    26       P1  7957  0.10

> <Gold.PLP.Chemscore.Internal.Correction>
0.0459

> <Gold.Rescore>
     Score         DG    S(hbond)    S(metal)    S(lipo)     H(rot)  DE(clash)    DE(int)     intcor
     11.74     -13.94       0.97        0.00      82.58       1.73       0.56       1.63       ----

> <Gold.Chemscore.Fitness>
11.7449

> <Gold.Chemscore.DG>
-13.9392

> <Gold.Chemscore.ZeroCoef>
-5.4800

> <Gold.Chemscore.Hbond>
0.9660

> <Gold.Chemscore.Metal>
0.0000

> <Gold.Chemscore.Lipo>
82.5760

> <Gold.Chemscore.Internal_Hbond>
0.0000

> <Gold.Chemscore.DEClash>
0.5599

> <Gold.Chemscore.DEInternal>
1.6344

> <Gold.Chemscore.Rot>
1.7299

> <Gold.Chemscore.Internal.Correction>
   9.000000E+99

> <Gold.Chemscore.Hbonds>
donor molecule, donor type, donor heavy atom, donor atom, acceptor molecule, acceptor atom, score
      L1  H     7    36       P1  8028  0.85
      P1  H  7997  8009       L1    11  0.49

> <Gold.Chemscore.Hbond.Weighted>
-3.2265

> <Gold.Chemscore.Metal.Weighted>
-0.0000

> <Gold.Chemscore.Lipo.Weighted>
-9.6614

> <Gold.Chemscore.Internal_Hbond.Weighted>
0.0000

> <Gold.Chemscore.DEClash.Weighted>
0.5599

> <Gold.Chemscore.DEInternal.Weighted>
1.6344

> <Gold.Chemscore.Rot.Weighted>
4.4286

> <Gold.Chemscore.Internal.Correction.Weighted>
   9.000000E+99

> <Gold.Protein.RotatedTorsions>
[ 6907 6896 6895 6894 ] final  100.34 input  -60.11 | X-H torsion
[ 7974 7965 7964 7962 ] final  105.98 input  175.53 | X-H torsion
[ 8008 7997 7996 7995 ] final  164.94 input   59.86 | X-H torsion
[ 10167 10162 10161 10158 ] final -173.98 input  -65.29 | X-H torsion
[ 10718 10713 10712 10709 ] final  -26.49 input   66.30 | X-H torsion
[ 10763 10752 10751 10750 ] final   33.08 input  -60.55 | X-H torsion
[ 11005 11000 10999 10996 ] final   -5.72 input  -57.11 | X-H torsion

> <Gold.Protein.ActiveResidues>
 VAL166  LYS551  ARG553  GLY616  TRP617  ASP618  TYR619  PRO620  LYS621  CYS622 
 ASP623  PHE694  ASN695  SER759  ASP760  ASP761  ALA762  ILE779  LEU786  VAL792 
 PHE793  MET794  SER795  GLU796  ALA797  LYS798  CYS799  TRP800  GLU811  SER814 

> <Gold.Protein.RotatedAtoms>
  152.5374  134.0291  159.8016 H   0  0  0  0  0  0  0  0  0  0  0  0  # atno 6907 bound_to 6896
  151.0465  133.5653  159.2653 H   0  0  0  0  0  0  0  0  0  0  0  0  # atno 6908 bound_to 6896
  151.2603  135.0659  159.9149 H   0  0  0  0  0  0  0  0  0  0  0  0  # atno 6909 bound_to 6896
  145.3125  139.2536  143.3755 H   0  0  0  0  0  0  0  0  0  0  0  0  # atno 7974 bound_to 7965
  156.1840  140.1683  156.8221 H   0  0  0  0  0  0  0  0  0  0  0  0  # atno 8008 bound_to 7997
  154.5392  140.0740  156.8514 H   0  0  0  0  0  0  0  0  0  0  0  0  # atno 8009 bound_to 7997
  155.3248  140.3375  155.4243 H   0  0  0  0  0  0  0  0  0  0  0  0  # atno 8010 bound_to 7997
  139.5659  144.1757  152.1311 H   0  0  0  0  0  0  0  0  0  0  0  0  # atno 10167 bound_to 10162
  156.4505  130.4483  149.6993 H   0  0  0  0  0  0  0  0  0  0  0  0  # atno 10718 bound_to 10713
  153.0229  135.6396  154.1456 H   0  0  0  0  0  0  0  0  0  0  0  0  # atno 10763 bound_to 10752
  154.1188  135.2848  155.3215 H   0  0  0  0  0  0  0  0  0  0  0  0  # atno 10764 bound_to 10752
  154.6278  135.5503  153.7709 H   0  0  0  0  0  0  0  0  0  0  0  0  # atno 10765 bound_to 10752
  140.6942  133.9045  155.8639 H   0  0  0  0  0  0  0  0  0  0  0  0  # atno 11005 bound_to 11000
  146.3112  140.3665  142.8670 LP  0  0  0  0  0  0  0  0  0  0  0  0  # atno 17320 bound_to 7965
  144.9004  140.7635  143.5870 LP  0  0  0  0  0  0  0  0  0  0  0  0  # atno 17321 bound_to 7965
  140.1280  144.5314  150.6820 LP  0  0  0  0  0  0  0  0  0  0  0  0  # atno 17342 bound_to 10162
  140.6942  143.2394  151.5047 LP  0  0  0  0  0  0  0  0  0  0  0  0  # atno 17343 bound_to 10162
  156.3821  130.7584  151.2578 LP  0  0  0  0  0  0  0  0  0  0  0  0  # atno 17370 bound_to 10713
  157.7503  131.0292  150.4085 LP  0  0  0  0  0  0  0  0  0  0  0  0  # atno 17371 bound_to 10713
  141.0216  134.0881  157.4114 LP  0  0  0  0  0  0  0  0  0  0  0  0  # atno 17394 bound_to 11000
  139.8915  135.0118  156.6793 LP  0  0  0  0  0  0  0  0  0  0  0  0  # atno 17395 bound_to 11000

$$$$
