AV-unprocessed.smi:652|AV-procd|sdf|3199|dock10
  -GOLD-   22720 0133D 1   1.00000     0.00000
 Structure written by MMmdl.
 49 50  0  0  0  0  0  0  0  0  3 V2000
  146.8859  136.7482  162.7158 C   0  0  0  0  0  0  0  0  0  0  0  0
  146.7825  135.6336  161.6660 C   0  0  0  0  0  0  0  0  0  0  0  0
  147.0825  134.2543  162.2743 C   0  0  0  0  0  0  0  0  0  0  0  0
  147.6991  135.9176  160.5652 N   0  0  0  0  0  0  0  0  0  0  0  0
  147.6069  136.9602  159.7248 C   0  0  0  0  0  0  0  0  0  0  0  0
  146.7194  137.8104  159.7994 O   0  0  0  0  0  0  0  0  0  0  0  0
  148.6836  137.0480  158.6376 C   0  0  0  0  0  0  0  0  0  0  0  0
  148.1834  137.7275  157.3456 C   0  0  0  0  0  0  0  0  0  0  0  0
  147.9155  139.1787  157.5336 N   0  3  2  0  0  0  0  0  0  0  0  0
  147.0151  139.7524  156.5032 C   0  0  0  0  0  0  0  0  0  0  0  0
  147.7636  139.9873  155.1788 C   0  0  0  0  0  0  0  0  0  0  0  0
  148.8748  140.8459  155.4070 O   0  0  0  0  0  0  0  0  0  0  0  0
  149.8129  140.2962  156.3271 C   0  0  1  0  0  0  0  0  0  0  0  0
  151.0228  141.2423  156.4219 C   0  0  0  0  0  0  0  0  0  0  0  0
  150.6363  142.6194  156.6978 N   0  0  0  0  0  0  0  0  0  0  0  0
  151.1968  143.3115  157.7795 C   0  0  0  0  0  0  0  0  0  0  0  0
  152.1518  142.7606  158.6655 C   0  0  0  0  0  0  0  0  0  0  0  0
  152.6355  143.5678  159.7094 C   0  0  0  0  0  0  0  0  0  0  0  0
  152.1347  144.8783  159.8054 C   0  0  0  0  0  0  0  0  0  0  0  0
  151.2211  145.3862  158.9483 N   0  0  0  0  0  0  0  0  0  0  0  0
  150.7779  144.5894  157.9602 N   0  3  0  0  0  0  0  0  0  0  0  0
  149.1273  140.0252  157.6882 C   0  0  0  0  0  0  0  0  0  0  0  0
  146.1896  136.5771  163.5373 H   0  0  0  0  0  0  0  0  0  0  0  0
  146.6497  137.7209  162.2825 H   0  0  0  0  0  0  0  0  0  0  0  0
  147.8900  136.8054  163.1382 H   0  0  0  0  0  0  0  0  0  0  0  0
  145.7595  135.6309  161.2848 H   0  0  0  0  0  0  0  0  0  0  0  0
  146.4003  134.0327  163.0955 H   0  0  0  0  0  0  0  0  0  0  0  0
  148.0994  134.2056  162.6654 H   0  0  0  0  0  0  0  0  0  0  0  0
  146.9709  133.4607  161.5348 H   0  0  0  0  0  0  0  0  0  0  0  0
  148.4619  135.2688  160.4344 H   0  0  0  0  0  0  0  0  0  0  0  0
  149.5308  137.6020  159.0442 H   0  0  0  0  0  0  0  0  0  0  0  0
  149.0404  136.0401  158.4258 H   0  0  0  0  0  0  0  0  0  0  0  0
  148.8862  137.5659  156.5281 H   0  0  0  0  0  0  0  0  0  0  0  0
  147.2519  137.2450  157.0451 H   0  0  0  0  0  0  0  0  0  0  0  0
  146.1456  139.1120  156.3492 H   0  0  0  0  0  0  0  0  0  0  0  0
  146.6300  140.7036  156.8729 H   0  0  0  0  0  0  0  0  0  0  0  0
  148.0957  139.0464  154.7375 H   0  0  0  0  0  0  0  0  0  0  0  0
  147.1004  140.4589  154.4536 H   0  0  0  0  0  0  0  0  0  0  0  0
  150.1798  139.3545  155.9165 H   0  0  0  0  0  0  0  0  0  0  0  0
  151.6947  140.8969  157.2087 H   0  0  0  0  0  0  0  0  0  0  0  0
  151.5818  141.2102  155.4858 H   0  0  0  0  0  0  0  0  0  0  0  0
  150.1354  143.1324  155.9863 H   0  0  0  0  0  0  0  0  0  0  0  0
  152.5121  141.7480  158.5609 H   0  0  0  0  0  0  0  0  0  0  0  0
  153.3651  143.1960  160.4137 H   0  0  0  0  0  0  0  0  0  0  0  0
  152.4744  145.5379  160.5905 H   0  0  0  0  0  0  0  0  0  0  0  0
  148.8098  140.9678  158.1353 H   0  0  0  0  0  0  0  0  0  0  0  0
  149.8309  139.5817  158.3915 H   0  0  0  0  0  0  0  0  0  0  0  0
  147.4066  139.2387  158.4044 H   0  0  0  0  0  0  0  0  0  0  0  0
  150.0893  144.9675  157.3091 H   0  0  0  0  0  0  0  0  0  0  0  0
  1  2  1  0  0  0  0
  1 23  1  0  0  0  0
  1 24  1  0  0  0  0
  1 25  1  0  0  0  0
  2  3  1  0  0  0  0
  2  4  1  0  0  0  0
  2 26  1  0  0  0  0
  3 27  1  0  0  0  0
  3 28  1  0  0  0  0
  3 29  1  0  0  0  0
  4  5  1  0  0  0  0
  4 30  1  0  0  0  0
  5  6  2  0  0  0  0
  5  7  1  0  0  0  0
  7  8  1  0  0  0  0
  7 31  1  0  0  0  0
  7 32  1  0  0  0  0
  8  9  1  0  0  0  0
  8 33  1  0  0  0  0
  8 34  1  0  0  0  0
  9 22  1  0  0  0  0
  9 10  1  0  0  0  0
  9 48  1  0  0  0  0
 10 11  1  0  0  0  0
 10 35  1  0  0  0  0
 10 36  1  0  0  0  0
 11 12  1  0  0  0  0
 11 37  1  0  0  0  0
 11 38  1  0  0  0  0
 12 13  1  0  0  0  0
 13 14  1  0  0  0  0
 13 22  1  0  0  0  0
 13 39  1  0  0  0  0
 14 15  1  0  0  0  0
 14 40  1  0  0  0  0
 14 41  1  0  0  0  0
 15 16  1  0  0  0  0
 15 42  1  0  0  0  0
 16 21  1  0  0  0  0
 16 17  2  0  0  0  0
 17 18  1  0  0  0  0
 17 43  1  0  0  0  0
 18 19  2  0  0  0  0
 18 44  1  0  0  0  0
 19 20  1  0  0  0  0
 19 45  1  0  0  0  0
 20 21  2  0  0  0  0
 21 49  1  0  0  0  0
 22 46  1  0  0  0  0
 22 47  1  0  0  0  0
M  CHG  1   9   1
M  CHG  1  21   1
M  END
> <s_m_source_file>
AV-unprocessed.smi

> <i_m_source_file_index>
652

> <i_lp_mmshare_version>
43012

> <i_f3d_flags>
0

> <s_epik_input>
W0NIM11bQ0hdKFtDSDNdKVtOSF1DKD1PKVtDSDJdW0NIMl1OMVtDSDJdW0NIMl1PW0NASF0oW0NIMl0xKVtDSDJdW05IXWMyW2NIXVtjSF1bY0hdbm4y

> <s_epik_cmdline>
J2VwaWtfcHl0aG9uJywgJy1waCcsICc3LjAnLCAnLXRuJywgJzgnLCAnLW1hJywgJzIwMCcsICctbWV0YWxfYmluZGluZycsICctaW1hZScsICc8aW5maWxlLm1hZT4nLCAnLW9tYWUnLCAnPG91dGZpbGUubWFlPic=

> <r_lp_tautomer_probability>
0.966961

> <r_epik_Ionization_Penalty>
2.79885

> <r_epik_Ionization_Penalty_Charging>
2.79884

> <r_epik_Ionization_Penalty_Neutral>
3.2567e-06

> <r_epik_State_Penalty>
2.43203

> <r_epik_Charging_Adjusted_Penalty>
5.23087

> <i_epik_Tot_Q>
2

> <i_epik_Tot_abs_Q>
2

> <r_epik_Metal_State_Penalty>
2.43963

> <b_epik_Metal_Only>
0

> <s_lp_Force_Field>
OPLS_2005

> <r_lp_Energy>
35.8493

> <b_lp_Chiralities_Consistent>
1

> <s_lp_Variant>
AV-unprocessed.smi:652-8

> <Gold.Version>
5.8.1

> <Gold.Id.Protein>
6NUR|6NUR_protein|mol2

> <Gold.PLP.Fitness>
49.8294

> <Gold.PLP.PLP>
-38.4380

> <Gold.PLP.part.hbond>
-4.0760

> <Gold.PLP.part.metal>
0.0000

> <Gold.PLP.part.buried>
-7.2733

> <Gold.PLP.part.nonpolar>
-28.5641

> <Gold.PLP.part.repulsive>
0.6497

> <Gold.PLP.ligand.clash>
0.0000

> <Gold.PLP.ligand.torsion>
0.6372

> <Gold.PLP.Chemscore.Hbond>
4.1920

> <Gold.PLP.Chemscore.CHOScore>
0.0000

> <Gold.PLP.Chemscore.Metal>
0.0000

> <Gold.Chemscore.Hbonds>
donor molecule, donor type, donor heavy atom, donor atom, acceptor molecule, acceptor atom, score
      L1  H    15    42       P1  8028  1.72
      L1  H    21    49       P1  8028  1.40
      P1  H  6934  6947       L1     6  0.96

> <Gold.PLP.Chemscore.Internal.Correction>
0.0898

> <Gold.Rescore>
     Score         DG    S(hbond)    S(metal)    S(lipo)     H(rot)  DE(clash)    DE(int)     intcor
     15.17     -15.81       1.94        0.00      83.80       2.33       0.00       0.63       ----

> <Gold.Chemscore.Fitness>
15.1746

> <Gold.Chemscore.DG>
-15.8080

> <Gold.Chemscore.ZeroCoef>
-5.4800

> <Gold.Chemscore.Hbond>
1.9446

> <Gold.Chemscore.Metal>
0.0000

> <Gold.Chemscore.Lipo>
83.7971

> <Gold.Chemscore.Internal_Hbond>
0.0000

> <Gold.Chemscore.DEClash>
0.0048

> <Gold.Chemscore.DEInternal>
0.6286

> <Gold.Chemscore.Rot>
2.3326

> <Gold.Chemscore.Internal.Correction>
   9.000000E+99

> <Gold.Chemscore.Hbonds>
donor molecule, donor type, donor heavy atom, donor atom, acceptor molecule, acceptor atom, score
      L1  H    15    42       P1  8028  0.79
      L1  H    21    49       P1  8028  0.07
      P1  H  6934  6947       L1     6  0.69

> <Gold.Chemscore.Hbond.Weighted>
-6.4951

> <Gold.Chemscore.Metal.Weighted>
-0.0000

> <Gold.Chemscore.Lipo.Weighted>
-9.8043

> <Gold.Chemscore.Internal_Hbond.Weighted>
0.0000

> <Gold.Chemscore.DEClash.Weighted>
0.0048

> <Gold.Chemscore.DEInternal.Weighted>
0.6286

> <Gold.Chemscore.Rot.Weighted>
5.9714

> <Gold.Chemscore.Internal.Correction.Weighted>
   9.000000E+99

> <Gold.Protein.RotatedTorsions>
[ 6907 6896 6895 6894 ] final -113.75 input  -60.11 | X-H torsion
[ 7974 7965 7964 7962 ] final  -92.95 input  175.53 | X-H torsion
[ 8008 7997 7996 7995 ] final -171.35 input   59.86 | X-H torsion
[ 10167 10162 10161 10158 ] final  123.52 input  -65.29 | X-H torsion
[ 10718 10713 10712 10709 ] final  132.75 input   66.30 | X-H torsion
[ 10763 10752 10751 10750 ] final  -77.75 input  -60.55 | X-H torsion
[ 11005 11000 10999 10996 ] final   83.92 input  -57.11 | X-H torsion

> <Gold.Protein.ActiveResidues>
 VAL166  LYS551  ARG553  GLY616  TRP617  ASP618  TYR619  PRO620  LYS621  CYS622 
 ASP623  PHE694  ASN695  SER759  ASP760  ASP761  ALA762  ILE779  LEU786  VAL792 
 PHE793  MET794  SER795  GLU796  ALA797  LYS798  CYS799  TRP800  GLU811  SER814 

> <Gold.Protein.RotatedAtoms>
  150.7852  133.8900  159.3310 H   0  0  0  0  0  0  0  0  0  0  0  0  # atno 6907 bound_to 6896
  151.6752  135.0968  160.0215 H   0  0  0  0  0  0  0  0  0  0  0  0  # atno 6908 bound_to 6896
  152.3914  133.6645  159.6276 H   0  0  0  0  0  0  0  0  0  0  0  0  # atno 6909 bound_to 6896
  145.3930  140.9530  143.2330 H   0  0  0  0  0  0  0  0  0  0  0  0  # atno 7974 bound_to 7965
  155.9304  140.1090  157.1137 H   0  0  0  0  0  0  0  0  0  0  0  0  # atno 8008 bound_to 7997
  154.4070  140.1238  156.4861 H   0  0  0  0  0  0  0  0  0  0  0  0  # atno 8009 bound_to 7997
  155.7087  140.3471  155.4966 H   0  0  0  0  0  0  0  0  0  0  0  0  # atno 8010 bound_to 7997
  139.5794  144.6979  151.3566 H   0  0  0  0  0  0  0  0  0  0  0  0  # atno 10167 bound_to 10162
  157.4840  131.1087  150.9644 H   0  0  0  0  0  0  0  0  0  0  0  0  # atno 10718 bound_to 10713
  154.5169  135.5753  153.6650 H   0  0  0  0  0  0  0  0  0  0  0  0  # atno 10763 bound_to 10752
  152.9909  135.6172  154.2805 H   0  0  0  0  0  0  0  0  0  0  0  0  # atno 10764 bound_to 10752
  154.2723  135.2853  155.2712 H   0  0  0  0  0  0  0  0  0  0  0  0  # atno 10765 bound_to 10752
  139.9016  134.8179  156.2374 H   0  0  0  0  0  0  0  0  0  0  0  0  # atno 11005 bound_to 11000
  144.8427  139.5446  143.6893 LP  0  0  0  0  0  0  0  0  0  0  0  0  # atno 17320 bound_to 7965
  146.2788  139.6823  142.9243 LP  0  0  0  0  0  0  0  0  0  0  0  0  # atno 17321 bound_to 7965
  140.7074  143.7478  150.7506 LP  0  0  0  0  0  0  0  0  0  0  0  0  # atno 17342 bound_to 10162
  140.1007  143.4791  152.2427 LP  0  0  0  0  0  0  0  0  0  0  0  0  # atno 17343 bound_to 10162
  157.0367  130.5733  149.5350 LP  0  0  0  0  0  0  0  0  0  0  0  0  # atno 17370 bound_to 10713
  156.0137  130.5230  150.8068 LP  0  0  0  0  0  0  0  0  0  0  0  0  # atno 17371 bound_to 10713
  141.0306  133.6990  156.1424 LP  0  0  0  0  0  0  0  0  0  0  0  0  # atno 17394 bound_to 11000
  140.7101  134.4470  157.5582 LP  0  0  0  0  0  0  0  0  0  0  0  0  # atno 17395 bound_to 11000

$$$$
