AV-unprocessed.smi:2783|AV-procd|sdf|10724|dock1
  -GOLD-   2272015163D 1   1.00000     0.00000
 Structure written by MMmdl.
 29 29  0  0  0  0  0  0  0  0  1 V2000
  152.0839  144.6423  161.0373 C   0  0  0  0  0  0  0  0  0  0  0  0
  152.1660  143.5516  160.1216 O   0  0  0  0  0  0  0  0  0  0  0  0
  151.4814  143.6694  158.8654 C   0  0  0  0  0  0  0  0  0  0  0  0
  150.0455  144.2060  159.0739 C   0  0  0  0  0  0  0  0  0  0  0  0
  152.2915  144.6910  158.0478 C   0  0  0  0  0  0  0  0  0  0  0  0
  151.4796  142.3189  158.1121 C   0  0  0  0  0  0  0  0  0  0  0  0
  152.0085  141.3338  158.6280 O   0  0  0  0  0  0  0  0  0  0  0  0
  150.8482  142.2998  156.9223 N   0  0  0  0  0  0  0  0  0  0  0  0
  150.6900  141.2238  156.0053 C   0  0  0  0  0  0  0  0  0  0  0  0
  151.5767  140.1226  155.9257 C   0  0  0  0  0  0  0  0  0  0  0  0
  151.3305  139.1241  154.9625 C   0  0  0  0  0  0  0  0  0  0  0  0
  150.2943  139.1624  154.0992 N   0  0  0  0  0  0  0  0  0  0  0  0
  149.4595  140.2201  154.1661 C   0  0  0  0  0  0  0  0  0  0  0  0
  149.6135  141.2744  155.0900 C   0  0  0  0  0  0  0  0  0  0  0  0
  148.7281  142.3156  155.0896 O   0  0  0  0  0  0  0  0  0  0  0  0
  152.5461  144.3492  161.9796 H   0  0  0  0  0  0  0  0  0  0  0  0
  151.0572  144.9369  161.2536 H   0  0  0  0  0  0  0  0  0  0  0  0
  152.6263  145.5138  160.6707 H   0  0  0  0  0  0  0  0  0  0  0  0
  149.5811  144.4807  158.1260 H   0  0  0  0  0  0  0  0  0  0  0  0
  150.0486  145.0970  159.7023 H   0  0  0  0  0  0  0  0  0  0  0  0
  149.3958  143.4684  159.5466 H   0  0  0  0  0  0  0  0  0  0  0  0
  151.8500  144.8595  157.0645 H   0  0  0  0  0  0  0  0  0  0  0  0
  153.3191  144.3575  157.8964 H   0  0  0  0  0  0  0  0  0  0  0  0
  152.3344  145.6540  158.5574 H   0  0  0  0  0  0  0  0  0  0  0  0
  150.3729  143.1536  156.6668 H   0  0  0  0  0  0  0  0  0  0  0  0
  152.4398  140.0299  156.5663 H   0  0  0  0  0  0  0  0  0  0  0  0
  151.9905  138.2732  154.8791 H   0  0  0  0  0  0  0  0  0  0  0  0
  148.6436  140.2267  153.4585 H   0  0  0  0  0  0  0  0  0  0  0  0
  149.1245  143.1386  155.3330 H   0  0  0  0  0  0  0  0  0  0  0  0
  1  2  1  0  0  0  0
  1 16  1  0  0  0  0
  1 17  1  0  0  0  0
  1 18  1  0  0  0  0
  2  3  1  0  0  0  0
  3  4  1  0  0  0  0
  3  5  1  0  0  0  0
  3  6  1  0  0  0  0
  4 19  1  0  0  0  0
  4 20  1  0  0  0  0
  4 21  1  0  0  0  0
  5 22  1  0  0  0  0
  5 23  1  0  0  0  0
  5 24  1  0  0  0  0
  6  7  2  0  0  0  0
  6  8  1  0  0  0  0
  8  9  1  0  0  0  0
  8 25  1  0  0  0  0
  9 14  1  0  0  0  0
  9 10  2  0  0  0  0
 10 11  1  0  0  0  0
 10 26  1  0  0  0  0
 11 12  2  0  0  0  0
 11 27  1  0  0  0  0
 12 13  1  0  0  0  0
 13 14  2  0  0  0  0
 13 28  1  0  0  0  0
 14 15  1  0  0  0  0
 15 29  1  0  0  0  0
M  END
> <s_m_source_file>
AV-unprocessed.smi

> <i_m_source_file_index>
2783

> <i_lp_mmshare_version>
43012

> <i_f3d_flags>
0

> <s_epik_input>
W0NIM11PQyhbQ0gzXSkoW0NIM10pQyg9TylbTkhdYzFbY0hdW2NIXW5bY0hdYzFbT0hd

> <s_epik_cmdline>
J2VwaWtfcHl0aG9uJywgJy1waCcsICc3LjAnLCAnLXRuJywgJzgnLCAnLW1hJywgJzIwMCcsICctbWV0YWxfYmluZGluZycsICctaW1hZScsICc8aW5maWxlLm1hZT4nLCAnLW9tYWUnLCAnPG91dGZpbGUubWFlPic=

> <r_lp_tautomer_probability>
0.43658

> <r_epik_Ionization_Penalty>
0.0236053

> <r_epik_Ionization_Penalty_Charging>
0

> <r_epik_Ionization_Penalty_Neutral>
0.0236053

> <r_epik_State_Penalty>
0.499983

> <r_epik_Charging_Adjusted_Penalty>
0.499983

> <i_epik_Tot_Q>
0

> <i_epik_Tot_abs_Q>
0

> <r_epik_Metal_State_Penalty>
0.746226

> <b_epik_Metal_Only>
0

> <s_lp_Force_Field>
OPLS_2005

> <r_lp_Energy>
14.4929

> <b_lp_Chiralities_Consistent>
1

> <s_lp_Variant>
AV-unprocessed.smi:2783-2

> <Gold.Version>
5.8.1

> <Gold.Id.Protein>
6NUR|6NUR_protein|mol2

> <Gold.PLP.Fitness>
36.9139

> <Gold.PLP.PLP>
-32.5670

> <Gold.PLP.part.hbond>
-1.3454

> <Gold.PLP.part.metal>
0.0000

> <Gold.PLP.part.buried>
-4.0017

> <Gold.PLP.part.nonpolar>
-27.1893

> <Gold.PLP.part.repulsive>
0.2713

> <Gold.PLP.ligand.clash>
0.0000

> <Gold.PLP.ligand.torsion>
0.2665

> <Gold.PLP.Chemscore.Hbond>
1.1063

> <Gold.PLP.Chemscore.CHOScore>
0.5086

> <Gold.PLP.Chemscore.Metal>
0.0000

> <Gold.Chemscore.Hbonds>
donor molecule, donor type, donor heavy atom, donor atom, acceptor molecule, acceptor atom, score
      L1  H     8    25       P1  8028  0.13
      L1  H    15    29       P1  8028  0.91
      L1  C    13    28       P1  7957  0.57

> <Gold.PLP.Chemscore.Internal.Correction>
0.0356

> <Gold.Rescore>
     Score         DG    S(hbond)    S(metal)    S(lipo)     H(rot)  DE(clash)    DE(int)     intcor
     14.17     -15.60       1.58        0.00      79.60       1.75       0.11       1.32       ----

> <Gold.Chemscore.Fitness>
14.1661

> <Gold.Chemscore.DG>
-15.5975

> <Gold.Chemscore.ZeroCoef>
-5.4800

> <Gold.Chemscore.Hbond>
1.5826

> <Gold.Chemscore.Metal>
0.0000

> <Gold.Chemscore.Lipo>
79.6016

> <Gold.Chemscore.Internal_Hbond>
0.0000

> <Gold.Chemscore.DEClash>
0.1071

> <Gold.Chemscore.DEInternal>
1.3243

> <Gold.Chemscore.Rot>
1.7507

> <Gold.Chemscore.Internal.Correction>
   9.000000E+99

> <Gold.Chemscore.Hbonds>
donor molecule, donor type, donor heavy atom, donor atom, acceptor molecule, acceptor atom, score
      L1  H     8    25       P1  8028  0.16
      L1  H    15    29       P1  8028  0.89

> <Gold.Chemscore.Hbond.Weighted>
-5.2858

> <Gold.Chemscore.Metal.Weighted>
-0.0000

> <Gold.Chemscore.Lipo.Weighted>
-9.3134

> <Gold.Chemscore.Internal_Hbond.Weighted>
0.0000

> <Gold.Chemscore.DEClash.Weighted>
0.1071

> <Gold.Chemscore.DEInternal.Weighted>
1.3243

> <Gold.Chemscore.Rot.Weighted>
4.4817

> <Gold.Chemscore.Internal.Correction.Weighted>
   9.000000E+99

> <Gold.Protein.RotatedTorsions>
[ 6907 6896 6895 6894 ] final  146.26 input  -60.11 | X-H torsion
[ 7974 7965 7964 7962 ] final   84.18 input  175.53 | X-H torsion
[ 8008 7997 7996 7995 ] final   99.76 input   59.86 | X-H torsion
[ 10167 10162 10161 10158 ] final  -82.12 input  -65.29 | X-H torsion
[ 10718 10713 10712 10709 ] final   69.41 input   66.30 | X-H torsion
[ 10763 10752 10751 10750 ] final  -50.29 input  -60.55 | X-H torsion
[ 11005 11000 10999 10996 ] final   86.80 input  -57.11 | X-H torsion

> <Gold.Protein.ActiveResidues>
 VAL166  LYS551  ARG553  GLY616  TRP617  ASP618  TYR619  PRO620  LYS621  CYS622 
 ASP623  PHE694  ASN695  SER759  ASP760  ASP761  ALA762  ILE779  LEU786  VAL792 
 PHE793  MET794  SER795  GLU796  ALA797  LYS798  CYS799  TRP800  GLU811  SER814 

> <Gold.Protein.RotatedAtoms>
  152.1702  133.4638  159.4905 H   0  0  0  0  0  0  0  0  0  0  0  0  # atno 6907 bound_to 6896
  150.6918  134.1962  159.4313 H   0  0  0  0  0  0  0  0  0  0  0  0  # atno 6908 bound_to 6896
  151.9869  134.9999  160.0610 H   0  0  0  0  0  0  0  0  0  0  0  0  # atno 6909 bound_to 6896
  145.6021  139.2354  143.2240 H   0  0  0  0  0  0  0  0  0  0  0  0  # atno 7974 bound_to 7965
  156.1137  140.3223  155.8109 H   0  0  0  0  0  0  0  0  0  0  0  0  # atno 8008 bound_to 7997
  155.4627  140.0540  157.3006 H   0  0  0  0  0  0  0  0  0  0  0  0  # atno 8009 bound_to 7997
  154.4778  140.2040  155.9851 H   0  0  0  0  0  0  0  0  0  0  0  0  # atno 8010 bound_to 7997
  140.4349  143.2535  151.8708 H   0  0  0  0  0  0  0  0  0  0  0  0  # atno 10167 bound_to 10162
  157.6344  130.9424  150.0510 H   0  0  0  0  0  0  0  0  0  0  0  0  # atno 10718 bound_to 10713
  154.1079  135.6553  153.4880 H   0  0  0  0  0  0  0  0  0  0  0  0  # atno 10763 bound_to 10752
  153.0266  135.5240  154.7221 H   0  0  0  0  0  0  0  0  0  0  0  0  # atno 10764 bound_to 10752
  154.6393  135.2986  155.0093 H   0  0  0  0  0  0  0  0  0  0  0  0  # atno 10765 bound_to 10752
  139.8935  134.8380  156.2771 H   0  0  0  0  0  0  0  0  0  0  0  0  # atno 11005 bound_to 11000
  146.1568  140.6846  142.9296 LP  0  0  0  0  0  0  0  0  0  0  0  0  # atno 17320 bound_to 7965
  144.7305  140.4658  143.6941 LP  0  0  0  0  0  0  0  0  0  0  0  0  # atno 17321 bound_to 7965
  139.4786  144.5294  151.8688 LP  0  0  0  0  0  0  0  0  0  0  0  0  # atno 17342 bound_to 10162
  140.4385  144.2018  150.5890 LP  0  0  0  0  0  0  0  0  0  0  0  0  # atno 17343 bound_to 10162
  156.1572  130.3643  149.9352 LP  0  0  0  0  0  0  0  0  0  0  0  0  # atno 17370 bound_to 10713
  156.7358  130.9061  151.3629 LP  0  0  0  0  0  0  0  0  0  0  0  0  # atno 17371 bound_to 10713
  141.0063  133.7122  156.1039 LP  0  0  0  0  0  0  0  0  0  0  0  0  # atno 17394 bound_to 11000
  140.7429  134.4130  157.5552 LP  0  0  0  0  0  0  0  0  0  0  0  0  # atno 17395 bound_to 11000

$$$$
