AV-unprocessed.smi:2280|AV-procd|sdf|9192|dock7
  -GOLD-   2272012413D 1   1.00000     0.00000
 Structure written by MMmdl.
 41 42  0  0  0  0  0  0  0  0  1 V2000
  147.1046  132.3743  161.3945 C   0  0  0  0  0  0  0  0  0  0  0  0
  147.6310  133.6300  160.7219 C   0  0  0  0  0  0  0  0  0  0  0  0
  148.1389  133.4559  159.4313 N   0  0  0  0  0  0  0  0  0  0  0  0
  148.6078  134.4701  158.7808 C   0  0  0  0  0  0  0  0  0  0  0  0
  148.6196  135.7608  159.3344 N   0  0  0  0  0  0  0  0  0  0  0  0
  149.1815  136.8284  158.4895 C   0  0  0  0  0  0  0  0  0  0  0  0
  150.4737  137.4268  159.0912 C   0  0  1  0  0  0  0  0  0  0  0  0
  151.5205  136.4996  158.8795 O   0  0  0  0  0  0  0  0  0  0  0  0
  150.8804  138.7363  158.3942 C   0  0  0  0  0  0  0  0  0  0  0  0
  152.1375  139.1539  158.9092 O   0  0  0  0  0  0  0  0  0  0  0  0
  152.3342  140.4936  159.1752 C   0  0  0  0  0  0  0  0  0  0  0  0
  151.4513  141.5150  158.7400 C   0  0  0  0  0  0  0  0  0  0  0  0
  151.7100  142.8640  159.0452 C   0  0  0  0  0  0  0  0  0  0  0  0
  152.8512  143.2109  159.7883 C   0  0  0  0  0  0  0  0  0  0  0  0
  153.7335  142.2071  160.2263 C   0  0  0  0  0  0  0  0  0  0  0  0
  153.4832  140.8490  159.9248 C   0  0  0  0  0  0  0  0  0  0  0  0
  154.4444  139.7656  160.4045 C   0  0  0  0  0  0  0  0  0  0  0  0
  155.3958  140.2584  161.1986 F   0  0  0  0  0  0  0  0  0  0  0  0
  153.7734  138.8373  161.0869 F   0  0  0  0  0  0  0  0  0  0  0  0
  155.0357  139.1893  159.3577 F   0  0  0  0  0  0  0  0  0  0  0  0
  148.1518  136.0170  160.5905 C   0  0  0  0  0  0  0  0  0  0  0  0
  148.1794  137.1514  161.0719 O   0  0  0  0  0  0  0  0  0  0  0  0
  147.6207  134.8533  161.3187 C   0  0  0  0  0  0  0  0  0  0  0  0
  147.0811  135.1030  162.7215 C   0  0  0  0  0  0  0  0  0  0  0  0
  146.0535  132.4937  161.6593 H   0  0  0  0  0  0  0  0  0  0  0  0
  147.6717  132.1611  162.3011 H   0  0  0  0  0  0  0  0  0  0  0  0
  147.1868  131.5074  160.7374 H   0  0  0  0  0  0  0  0  0  0  0  0
  149.0219  134.3866  157.7746 H   0  0  0  0  0  0  0  0  0  0  0  0
  149.3524  136.4954  157.4633 H   0  0  0  0  0  0  0  0  0  0  0  0
  148.4274  137.6112  158.3898 H   0  0  0  0  0  0  0  0  0  0  0  0
  150.3488  137.6092  160.1596 H   0  0  0  0  0  0  0  0  0  0  0  0
  151.9277  136.6897  158.0484 H   0  0  0  0  0  0  0  0  0  0  0  0
  150.9080  138.6083  157.3104 H   0  0  0  0  0  0  0  0  0  0  0  0
  150.1478  139.5123  158.6214 H   0  0  0  0  0  0  0  0  0  0  0  0
  150.5635  141.2911  158.1689 H   0  0  0  0  0  0  0  0  0  0  0  0
  151.0309  143.6331  158.7083 H   0  0  0  0  0  0  0  0  0  0  0  0
  153.0499  144.2462  160.0230 H   0  0  0  0  0  0  0  0  0  0  0  0
  154.6045  142.4932  160.7969 H   0  0  0  0  0  0  0  0  0  0  0  0
  147.8578  135.5374  163.3517 H   0  0  0  0  0  0  0  0  0  0  0  0
  146.7289  134.1982  163.2140 H   0  0  0  0  0  0  0  0  0  0  0  0
  146.2459  135.8032  162.6826 H   0  0  0  0  0  0  0  0  0  0  0  0
  1  2  1  0  0  0  0
  1 25  1  0  0  0  0
  1 26  1  0  0  0  0
  1 27  1  0  0  0  0
  2 23  2  0  0  0  0
  2  3  1  0  0  0  0
  3  4  2  0  0  0  0
  4  5  1  0  0  0  0
  4 28  1  0  0  0  0
  5  6  1  0  0  0  0
  5 21  1  0  0  0  0
  6  7  1  0  0  0  0
  6 29  1  0  0  0  0
  6 30  1  0  0  0  0
  7  8  1  0  0  0  0
  7  9  1  0  0  0  0
  7 31  1  0  0  0  0
  8 32  1  0  0  0  0
  9 10  1  0  0  0  0
  9 33  1  0  0  0  0
  9 34  1  0  0  0  0
 10 11  1  0  0  0  0
 11 16  1  0  0  0  0
 11 12  2  0  0  0  0
 12 13  1  0  0  0  0
 12 35  1  0  0  0  0
 13 14  2  0  0  0  0
 13 36  1  0  0  0  0
 14 15  1  0  0  0  0
 14 37  1  0  0  0  0
 15 16  2  0  0  0  0
 15 38  1  0  0  0  0
 16 17  1  0  0  0  0
 17 18  1  0  0  0  0
 17 19  1  0  0  0  0
 17 20  1  0  0  0  0
 21 22  2  0  0  0  0
 21 23  1  0  0  0  0
 23 24  1  0  0  0  0
 24 39  1  0  0  0  0
 24 40  1  0  0  0  0
 24 41  1  0  0  0  0
M  END
> <s_m_source_file>
AV-unprocessed.smi

> <i_m_source_file_index>
2280

> <i_lp_mmshare_version>
43012

> <i_f3d_flags>
0

> <s_epik_input>
W0NIM11jMW5bY0hdbihjKD1PKWMxW0NIM10pW0NIMl1bQ0BIXShbT0hdKVtDSDJdT2MyW2NIXVtjSF1bY0hdW2NIXWMyQyhGKShGKUY=

> <s_epik_cmdline>
J2VwaWtfcHl0aG9uJywgJy1waCcsICc3LjAnLCAnLXRuJywgJzgnLCAnLW1hJywgJzIwMCcsICctbWV0YWxfYmluZGluZycsICctaW1hZScsICc8aW5maWxlLm1hZT4nLCAnLW9tYWUnLCAnPG91dGZpbGUubWFlPic=

> <r_lp_tautomer_probability>
1

> <r_epik_Ionization_Penalty>
3.7476e-05

> <r_epik_Ionization_Penalty_Charging>
8.44705e-08

> <r_epik_Ionization_Penalty_Neutral>
3.73915e-05

> <r_epik_State_Penalty>
-0

> <r_epik_Charging_Adjusted_Penalty>
8.44705e-08

> <i_epik_Tot_Q>
0

> <i_epik_Tot_abs_Q>
0

> <r_epik_Metal_State_Penalty>
-0

> <b_epik_Metal_Only>
0

> <s_lp_Force_Field>
OPLS_2005

> <r_lp_Energy>
26.5065

> <b_lp_Chiralities_Consistent>
1

> <s_lp_Variant>
AV-unprocessed.smi:2280-2

> <Gold.Version>
5.8.1

> <Gold.Id.Protein>
6NUR|6NUR_protein|mol2

> <Gold.PLP.Fitness>
50.5499

> <Gold.PLP.PLP>
-44.0251

> <Gold.PLP.part.hbond>
-2.9654

> <Gold.PLP.part.metal>
0.0000

> <Gold.PLP.part.buried>
-3.8247

> <Gold.PLP.part.nonpolar>
-37.0285

> <Gold.PLP.part.repulsive>
0.0000

> <Gold.PLP.ligand.clash>
0.3751

> <Gold.PLP.ligand.torsion>
0.6629

> <Gold.PLP.Chemscore.Hbond>
2.5621

> <Gold.PLP.Chemscore.CHOScore>
0.0000

> <Gold.PLP.Chemscore.Metal>
0.0000

> <Gold.Chemscore.Hbonds>
donor molecule, donor type, donor heavy atom, donor atom, acceptor molecule, acceptor atom, score
      P1  H  6896  6907       L1     8  0.82
      P1  H  6931  6943       L1    22  1.00
      P1  H  6934  6947       L1    22  0.51

> <Gold.PLP.Chemscore.Internal.Correction>
0.5393

> <Gold.Rescore>
     Score         DG    S(hbond)    S(metal)    S(lipo)     H(rot)  DE(clash)    DE(int)     intcor
     16.00     -19.40       2.57        0.00     105.31       2.73       0.09       3.30       ----

> <Gold.Chemscore.Fitness>
16.0035

> <Gold.Chemscore.DG>
-19.3951

> <Gold.Chemscore.ZeroCoef>
-5.4800

> <Gold.Chemscore.Hbond>
2.5696

> <Gold.Chemscore.Metal>
0.0000

> <Gold.Chemscore.Lipo>
105.3098

> <Gold.Chemscore.Internal_Hbond>
0.0000

> <Gold.Chemscore.DEClash>
0.0894

> <Gold.Chemscore.DEInternal>
3.3022

> <Gold.Chemscore.Rot>
2.7300

> <Gold.Chemscore.Internal.Correction>
   9.000000E+99

> <Gold.Chemscore.Hbonds>
donor molecule, donor type, donor heavy atom, donor atom, acceptor molecule, acceptor atom, score
      P1  H  6896  6907       L1     8  0.64
      P1  H  6931  6943       L1    22  0.95
      P1  H  6934  6947       L1    22  0.49

> <Gold.Chemscore.Hbond.Weighted>
-8.5826

> <Gold.Chemscore.Metal.Weighted>
-0.0000

> <Gold.Chemscore.Lipo.Weighted>
-12.3213

> <Gold.Chemscore.Internal_Hbond.Weighted>
0.0000

> <Gold.Chemscore.DEClash.Weighted>
0.0894

> <Gold.Chemscore.DEInternal.Weighted>
3.3022

> <Gold.Chemscore.Rot.Weighted>
6.9888

> <Gold.Chemscore.Internal.Correction.Weighted>
   9.000000E+99

> <Gold.Protein.RotatedTorsions>
[ 6907 6896 6895 6894 ] final  -13.06 input  -60.11 | X-H torsion
[ 7974 7965 7964 7962 ] final  114.76 input  175.53 | X-H torsion
[ 8008 7997 7996 7995 ] final   45.71 input   59.86 | X-H torsion
[ 10167 10162 10161 10158 ] final  -14.25 input  -65.29 | X-H torsion
[ 10718 10713 10712 10709 ] final   45.16 input   66.30 | X-H torsion
[ 10763 10752 10751 10750 ] final  -58.97 input  -60.55 | X-H torsion
[ 11005 11000 10999 10996 ] final -101.53 input  -57.11 | X-H torsion

> <Gold.Protein.ActiveResidues>
 VAL166  LYS551  ARG553  GLY616  TRP617  ASP618  TYR619  PRO620  LYS621  CYS622 
 ASP623  PHE694  ASN695  SER759  ASP760  ASP761  ALA762  ILE779  LEU786  VAL792 
 PHE793  MET794  SER795  GLU796  ALA797  LYS798  CYS799  TRP800  GLU811  SER814 

> <Gold.Protein.RotatedAtoms>
  151.3608  135.0903  159.9433 H   0  0  0  0  0  0  0  0  0  0  0  0  # atno 6907 bound_to 6896
  152.5162  133.9260  159.7568 H   0  0  0  0  0  0  0  0  0  0  0  0  # atno 6908 bound_to 6896
  150.9654  133.6346  159.2776 H   0  0  0  0  0  0  0  0  0  0  0  0  # atno 6909 bound_to 6896
  145.2004  139.2955  143.4321 H   0  0  0  0  0  0  0  0  0  0  0  0  # atno 7974 bound_to 7965
  155.3404  140.3408  155.4239 H   0  0  0  0  0  0  0  0  0  0  0  0  # atno 8008 bound_to 7997
  156.1816  140.1666  156.8299 H   0  0  0  0  0  0  0  0  0  0  0  0  # atno 8009 bound_to 7997
  154.5340  140.0739  156.8378 H   0  0  0  0  0  0  0  0  0  0  0  0  # atno 8010 bound_to 7997
  140.7198  143.5341  150.9485 H   0  0  0  0  0  0  0  0  0  0  0  0  # atno 10167 bound_to 10162
  157.4346  130.8045  149.7635 H   0  0  0  0  0  0  0  0  0  0  0  0  # atno 10718 bound_to 10713
  154.2465  135.6334  153.5225 H   0  0  0  0  0  0  0  0  0  0  0  0  # atno 10763 bound_to 10752
  152.9920  135.5554  154.5854 H   0  0  0  0  0  0  0  0  0  0  0  0  # atno 10764 bound_to 10752
  154.5372  135.2892  155.1103 H   0  0  0  0  0  0  0  0  0  0  0  0  # atno 10765 bound_to 10752
  141.1227  133.8485  157.1243 H   0  0  0  0  0  0  0  0  0  0  0  0  # atno 11005 bound_to 11000
  146.3419  140.2247  142.8592 LP  0  0  0  0  0  0  0  0  0  0  0  0  # atno 17320 bound_to 7965
  144.9953  140.8584  143.5314 LP  0  0  0  0  0  0  0  0  0  0  0  0  # atno 17321 bound_to 7965
  139.9062  143.6775  152.3123 LP  0  0  0  0  0  0  0  0  0  0  0  0  # atno 17342 bound_to 10162
  139.7142  144.7615  151.1061 LP  0  0  0  0  0  0  0  0  0  0  0  0  # atno 17343 bound_to 10162
  155.9926  130.3930  150.2937 LP  0  0  0  0  0  0  0  0  0  0  0  0  # atno 17370 bound_to 10713
  157.1096  131.0218  151.3053 LP  0  0  0  0  0  0  0  0  0  0  0  0  # atno 17371 bound_to 10713
  140.0198  134.9951  157.0568 LP  0  0  0  0  0  0  0  0  0  0  0  0  # atno 17394 bound_to 11000
  140.4459  134.1632  155.7177 LP  0  0  0  0  0  0  0  0  0  0  0  0  # atno 17395 bound_to 11000

$$$$
