AV-unprocessed.smi:158|AV-procd|sdf|1323|dock8
  -GOLD-   2262019 13D 1   1.00000     0.00000
 Structure written by MMmdl.
 31 33  0  0  0  0  0  0  0  0  1 V2000
  151.9137  138.0493  159.0328 N   0  0  0  0  0  0  0  0  0  0  0  0
  151.6390  138.3960  157.7673 C   0  0  0  0  0  0  0  0  0  0  0  0
  152.4377  137.9244  156.7817 N   0  0  0  0  0  0  0  0  0  0  0  0
  152.1968  138.2469  155.5051 C   0  0  0  0  0  0  0  0  0  0  0  0
  153.2746  137.5926  154.3290 Cl  0  0  0  0  0  0  0  0  0  0  0  0
  151.2128  139.0210  155.0367 N   0  0  0  0  0  0  0  0  0  0  0  0
  150.4048  139.4994  156.0263 C   0  0  0  0  0  0  0  0  0  0  0  0
  150.5518  139.2320  157.4137 C   0  0  0  0  0  0  0  0  0  0  0  0
  149.5537  139.8787  158.1295 N   0  0  0  0  0  0  0  0  0  0  0  0
  148.8572  140.4927  157.2107 C   0  0  0  0  0  0  0  0  0  0  0  0
  149.3005  140.3212  155.9172 N   0  0  0  0  0  0  0  0  0  0  0  0
  148.7100  140.9005  154.6682 C   0  0  2  0  0  0  0  0  0  0  0  0
  147.8564  141.9401  155.0402 O   0  0  0  0  0  0  0  0  0  0  0  0
  146.6043  141.8081  154.3756 C   0  0  2  0  0  0  0  0  0  0  0  0
  145.5006  142.4553  155.2277 C   0  0  0  0  0  0  0  0  0  0  0  0
  144.4138  142.8488  154.4163 O   0  0  0  0  0  0  0  0  0  0  0  0
  146.4489  140.2994  154.1608 C   0  0  1  0  0  0  0  0  0  0  0  0
  145.6219  140.0137  153.0508 O   0  0  0  0  0  0  0  0  0  0  0  0
  147.8785  139.8668  153.8883 C   0  0  2  0  0  0  0  0  0  0  0  0
  148.1197  138.6179  154.2948 F   0  0  0  0  0  0  0  0  0  0  0  0
  149.5656  141.2760  154.1058 H   0  0  0  0  0  0  0  0  0  0  0  0
  146.6970  142.3202  153.4156 H   0  0  0  0  0  0  0  0  0  0  0  0
  146.0622  139.8135  155.0568 H   0  0  0  0  0  0  0  0  0  0  0  0
  148.1334  139.9440  152.8303 H   0  0  0  0  0  0  0  0  0  0  0  0
  151.3303  138.3896  159.7837 H   0  0  0  0  0  0  0  0  0  0  0  0
  152.7017  137.4506  159.2335 H   0  0  0  0  0  0  0  0  0  0  0  0
  147.9947  141.0962  157.4540 H   0  0  0  0  0  0  0  0  0  0  0  0
  145.1513  141.7742  156.0041 H   0  0  0  0  0  0  0  0  0  0  0  0
  145.8888  143.3421  155.7289 H   0  0  0  0  0  0  0  0  0  0  0  0
  144.1976  142.1336  153.8374 H   0  0  0  0  0  0  0  0  0  0  0  0
  145.0769  140.7685  152.8848 H   0  0  0  0  0  0  0  0  0  0  0  0
  1  2  1  0  0  0  0
  1 25  1  0  0  0  0
  1 26  1  0  0  0  0
  2  8  1  0  0  0  0
  2  3  2  0  0  0  0
  3  4  1  0  0  0  0
  4  5  1  0  0  0  0
  4  6  2  0  0  0  0
  6  7  1  0  0  0  0
  7 11  1  0  0  0  0
  7  8  2  0  0  0  0
  8  9  1  0  0  0  0
  9 10  2  0  0  0  0
 10 11  1  0  0  0  0
 10 27  1  0  0  0  0
 11 12  1  0  0  0  0
 12 21  1  0  0  0  0
 12 19  1  0  0  0  0
 12 13  1  0  0  0  0
 13 14  1  0  0  0  0
 14 22  1  0  0  0  0
 14 15  1  0  0  0  0
 14 17  1  0  0  0  0
 15 16  1  0  0  0  0
 15 28  1  0  0  0  0
 15 29  1  0  0  0  0
 16 30  1  0  0  0  0
 17 23  1  0  0  0  0
 17 18  1  0  0  0  0
 17 19  1  0  0  0  0
 18 31  1  0  0  0  0
 19 24  1  0  0  0  0
 19 20  1  0  0  0  0
M  END
> <s_m_source_file>
AV-unprocessed.smi

> <i_m_source_file_index>
158

> <i_lp_mmshare_version>
43012

> <i_f3d_flags>
0

> <s_epik_input>
Q2xjKG4xKW5jKFtOSDJdKWMoYzEyKW5bY0hdbjJbQ0BASF0zT1tDQEhdKFtDSDJdW09IXSlbQ0BASF0oW09IXSlbQ0BASF0zRg==

> <s_epik_cmdline>
J2VwaWtfcHl0aG9uJywgJy1waCcsICc3LjAnLCAnLXRuJywgJzgnLCAnLW1hJywgJzIwMCcsICctbWV0YWxfYmluZGluZycsICctaW1hZScsICc8aW5maWxlLm1hZT4nLCAnLW9tYWUnLCAnPG91dGZpbGUubWFlPic=

> <r_lp_tautomer_probability>
1

> <r_epik_Ionization_Penalty>
6.51543e-05

> <r_epik_Ionization_Penalty_Charging>
0

> <r_epik_Ionization_Penalty_Neutral>
6.51543e-05

> <r_epik_State_Penalty>
-0

> <r_epik_Charging_Adjusted_Penalty>
0

> <i_epik_Tot_Q>
0

> <i_epik_Tot_abs_Q>
0

> <r_epik_Metal_State_Penalty>
-0

> <b_epik_Metal_Only>
0

> <s_epik_Chemistry_Notes>
This compound contains an acetal/aminal-like group ( X-CH(R)-Y where X, Y are N, S, or O) that may be acid/base labile, releasing an aldehyde.

> <s_lp_Force_Field>
OPLS_2005

> <r_lp_Energy>
34.2201

> <b_lp_Chiralities_Consistent>
1

> <s_lp_Variant>
AV-unprocessed.smi:158-1

> <Gold.Version>
5.8.1

> <Gold.Id.Protein>
6NUR|6NUR_protein|mol2

> <Gold.PLP.Fitness>
35.6903

> <Gold.PLP.PLP>
-25.5917

> <Gold.PLP.part.hbond>
-4.9615

> <Gold.PLP.part.metal>
0.0000

> <Gold.PLP.part.buried>
-1.9816

> <Gold.PLP.part.nonpolar>
-21.4190

> <Gold.PLP.part.repulsive>
1.3560

> <Gold.PLP.ligand.clash>
0.0187

> <Gold.PLP.ligand.torsion>
0.7527

> <Gold.PLP.Chemscore.Hbond>
3.8640

> <Gold.PLP.Chemscore.CHOScore>
0.0000

> <Gold.PLP.Chemscore.Metal>
0.0000

> <Gold.Chemscore.Hbonds>
donor molecule, donor type, donor heavy atom, donor atom, acceptor molecule, acceptor atom, score
      L1  H    16    30       P1 10175  0.07
      L1  H    18    31       P1 10175  0.29

> <Gold.PLP.Chemscore.Internal.Correction>
0.0306

> <Gold.Rescore>
     Score         DG    S(hbond)    S(metal)    S(lipo)     H(rot)  DE(clash)    DE(int)     intcor
      5.78      -8.34       2.13        0.00      32.09       3.12       0.37       2.18       ----

> <Gold.Chemscore.Fitness>
5.7840

> <Gold.Chemscore.DG>
-8.3379

> <Gold.Chemscore.ZeroCoef>
-5.4800

> <Gold.Chemscore.Hbond>
2.1254

> <Gold.Chemscore.Metal>
0.0000

> <Gold.Chemscore.Lipo>
32.0867

> <Gold.Chemscore.Internal_Hbond>
0.0000

> <Gold.Chemscore.DEClash>
0.3701

> <Gold.Chemscore.DEInternal>
2.1838

> <Gold.Chemscore.Rot>
3.1230

> <Gold.Chemscore.Internal.Correction>
   9.000000E+99

> <Gold.Chemscore.Hbonds>
donor molecule, donor type, donor heavy atom, donor atom, acceptor molecule, acceptor atom, score
      L1  H    18    31       P1 10175  0.14
      P1  H  7989  7998       L1     6  0.04

> <Gold.Chemscore.Hbond.Weighted>
-7.0988

> <Gold.Chemscore.Metal.Weighted>
-0.0000

> <Gold.Chemscore.Lipo.Weighted>
-3.7541

> <Gold.Chemscore.Internal_Hbond.Weighted>
0.0000

> <Gold.Chemscore.DEClash.Weighted>
0.3701

> <Gold.Chemscore.DEInternal.Weighted>
2.1838

> <Gold.Chemscore.Rot.Weighted>
7.9950

> <Gold.Chemscore.Internal.Correction.Weighted>
   9.000000E+99

> <Gold.Protein.RotatedTorsions>
[ 6907 6896 6895 6894 ] final  -65.62 input  -60.11 | X-H torsion
[ 7974 7965 7964 7962 ] final  -30.10 input  175.53 | X-H torsion
[ 8008 7997 7996 7995 ] final  -75.22 input   59.86 | X-H torsion
[ 10167 10162 10161 10158 ] final -142.24 input  -65.29 | X-H torsion
[ 10718 10713 10712 10709 ] final  -87.01 input   66.30 | X-H torsion
[ 10763 10752 10751 10750 ] final   29.16 input  -60.55 | X-H torsion
[ 11005 11000 10999 10996 ] final  159.37 input  -57.11 | X-H torsion

> <Gold.Protein.ActiveResidues>
 VAL166  LYS551  ARG553  GLY616  TRP617  ASP618  TYR619  PRO620  LYS621  CYS622 
 ASP623  PHE694  ASN695  SER759  ASP760  ASP761  ALA762  ILE779  LEU786  VAL792 
 PHE793  MET794  SER795  GLU796  ALA797  LYS798  CYS799  TRP800  GLU811  SER814 

> <Gold.Protein.RotatedAtoms>
  150.7513  134.6134  159.6097 H   0  0  0  0  0  0  0  0  0  0  0  0  # atno 6907 bound_to 6896
  152.3462  134.7065  160.0259 H   0  0  0  0  0  0  0  0  0  0  0  0  # atno 6908 bound_to 6896
  151.7501  133.3291  159.3426 H   0  0  0  0  0  0  0  0  0  0  0  0  # atno 6909 bound_to 6896
  146.1168  140.5497  142.8753 H   0  0  0  0  0  0  0  0  0  0  0  0  # atno 7974 bound_to 7965
  154.5398  140.0748  156.8490 H   0  0  0  0  0  0  0  0  0  0  0  0  # atno 8008 bound_to 7997
  155.3205  140.3396  155.4223 H   0  0  0  0  0  0  0  0  0  0  0  0  # atno 8009 bound_to 7997
  156.1863  140.1670  156.8165 H   0  0  0  0  0  0  0  0  0  0  0  0  # atno 8010 bound_to 7997
  139.8107  143.7706  152.2663 H   0  0  0  0  0  0  0  0  0  0  0  0  # atno 10167 bound_to 10162
  155.9987  130.4785  150.4802 H   0  0  0  0  0  0  0  0  0  0  0  0  # atno 10718 bound_to 10713
  153.0447  135.6495  154.0849 H   0  0  0  0  0  0  0  0  0  0  0  0  # atno 10763 bound_to 10752
  154.0549  135.2892  155.3336 H   0  0  0  0  0  0  0  0  0  0  0  0  # atno 10764 bound_to 10752
  154.6696  135.5361  153.8186 H   0  0  0  0  0  0  0  0  0  0  0  0  # atno 10765 bound_to 10752
  140.1955  134.8376  157.2960 H   0  0  0  0  0  0  0  0  0  0  0  0  # atno 11005 bound_to 11000
  144.7560  140.5308  143.6768 LP  0  0  0  0  0  0  0  0  0  0  0  0  # atno 17320 bound_to 7965
  145.5550  139.1477  143.3373 LP  0  0  0  0  0  0  0  0  0  0  0  0  # atno 17321 bound_to 7965
  139.7854  144.7429  151.0029 LP  0  0  0  0  0  0  0  0  0  0  0  0  # atno 17342 bound_to 10162
  140.7818  143.4497  151.0430 LP  0  0  0  0  0  0  0  0  0  0  0  0  # atno 17343 bound_to 10162
  157.2808  131.0606  151.2199 LP  0  0  0  0  0  0  0  0  0  0  0  0  # atno 17370 bound_to 10713
  157.3246  130.6954  149.6289 LP  0  0  0  0  0  0  0  0  0  0  0  0  # atno 17371 bound_to 10713
  140.2112  134.4136  155.7612 LP  0  0  0  0  0  0  0  0  0  0  0  0  # atno 17394 bound_to 11000
  141.2227  133.7119  156.8341 LP  0  0  0  0  0  0  0  0  0  0  0  0  # atno 17395 bound_to 11000

$$$$
