AV-unprocessed.smi:3351|AV-procd|sdf|12948|dock8
  -GOLD-   2272019383D 1   1.00000     0.00000
 Structure written by MMmdl.
 35 36  0  0  0  0  0  0  0  0  2 V2000
  148.2832  140.4341  157.9028 C   0  0  0  0  0  0  0  0  0  0  0  0
  149.2494  140.5527  156.7129 C   0  0  1  0  0  0  0  0  0  0  0  0
  148.6301  141.2793  155.4991 C   0  0  0  0  0  0  0  0  0  0  0  0
  148.2124  140.3586  154.4373 N   0  0  0  0  0  0  0  0  0  0  0  0
  147.0018  140.3322  153.7938 C   0  0  0  0  0  0  0  0  0  0  0  0
  147.0647  139.3077  152.8847 C   0  0  0  0  0  0  0  0  0  0  0  0
  148.3081  138.7494  153.0152 N   0  3  0  0  0  0  0  0  0  0  0  0
  149.0034  139.3872  153.9626 C   0  0  0  0  0  0  0  0  0  0  0  0
  150.4628  141.2382  157.1479 N   0  0  0  0  0  0  0  0  0  0  0  0
  151.3413  140.7645  158.0452 C   0  0  0  0  0  0  0  0  0  0  0  0
  151.2282  139.6614  158.5815 O   0  0  0  0  0  0  0  0  0  0  0  0
  152.5407  141.6678  158.3589 C   0  0  0  0  0  0  0  0  0  0  0  0
  152.1910  142.7996  159.2194 N   0  0  0  0  0  0  0  0  0  0  0  0
  151.4015  143.8960  158.6722 C   0  0  0  0  0  0  0  0  0  0  0  0
  150.9016  144.7468  159.8417 C   0  0  0  0  0  0  0  0  0  0  0  0
  152.0019  144.4568  161.2412 S   0  0  0  0  0  0  0  0  0  0  0  0
  152.6401  142.9386  160.5262 C   0  0  0  0  0  0  0  0  0  0  0  0
  153.3704  142.1733  161.1533 O   0  0  0  0  0  0  0  0  0  0  0  0
  147.4036  139.8429  157.6471 H   0  0  0  0  0  0  0  0  0  0  0  0
  147.9417  141.4147  158.2356 H   0  0  0  0  0  0  0  0  0  0  0  0
  148.7639  139.9442  158.7505 H   0  0  0  0  0  0  0  0  0  0  0  0
  149.5179  139.5384  156.4116 H   0  0  0  0  0  0  0  0  0  0  0  0
  147.7643  141.8691  155.8053 H   0  0  0  0  0  0  0  0  0  0  0  0
  149.3451  141.9752  155.0582 H   0  0  0  0  0  0  0  0  0  0  0  0
  146.2077  141.0282  154.0235 H   0  0  0  0  0  0  0  0  0  0  0  0
  146.3367  138.9432  152.1745 H   0  0  0  0  0  0  0  0  0  0  0  0
  150.0071  139.1637  154.2778 H   0  0  0  0  0  0  0  0  0  0  0  0
  150.6370  142.1515  156.7537 H   0  0  0  0  0  0  0  0  0  0  0  0
  153.3125  141.0622  158.8352 H   0  0  0  0  0  0  0  0  0  0  0  0
  152.9751  142.0440  157.4308 H   0  0  0  0  0  0  0  0  0  0  0  0
  152.0436  144.4900  158.0208 H   0  0  0  0  0  0  0  0  0  0  0  0
  150.5689  143.5298  158.0704 H   0  0  0  0  0  0  0  0  0  0  0  0
  150.8551  145.8065  159.5905 H   0  0  0  0  0  0  0  0  0  0  0  0
  149.8997  144.4296  160.1317 H   0  0  0  0  0  0  0  0  0  0  0  0
  148.6532  137.9658  152.4753 H   0  0  0  0  0  0  0  0  0  0  0  0
  1  2  1  0  0  0  0
  1 19  1  0  0  0  0
  1 20  1  0  0  0  0
  1 21  1  0  0  0  0
  2  3  1  0  0  0  0
  2  9  1  0  0  0  0
  2 22  1  0  0  0  0
  3  4  1  0  0  0  0
  3 23  1  0  0  0  0
  3 24  1  0  0  0  0
  4  8  1  0  0  0  0
  4  5  1  0  0  0  0
  5  6  2  0  0  0  0
  5 25  1  0  0  0  0
  6  7  1  0  0  0  0
  6 26  1  0  0  0  0
  7  8  2  0  0  0  0
  7 35  1  0  0  0  0
  8 27  1  0  0  0  0
  9 10  1  0  0  0  0
  9 28  1  0  0  0  0
 10 11  2  0  0  0  0
 10 12  1  0  0  0  0
 12 13  1  0  0  0  0
 12 29  1  0  0  0  0
 12 30  1  0  0  0  0
 13 17  1  0  0  0  0
 13 14  1  0  0  0  0
 14 15  1  0  0  0  0
 14 31  1  0  0  0  0
 14 32  1  0  0  0  0
 15 16  1  0  0  0  0
 15 33  1  0  0  0  0
 15 34  1  0  0  0  0
 16 17  1  0  0  0  0
 17 18  2  0  0  0  0
M  CHG  1   7   1
M  END
> <s_m_source_file>
AV-unprocessed.smi

> <i_m_source_file_index>
3351

> <i_lp_mmshare_version>
43012

> <i_f3d_flags>
0

> <s_epik_input>
W2NIXTFuW2NIXVtjSF1uMVtDSDJdW0NAQEhdKFtDSDNdKVtOSF1DKD1PKVtDSDJdTjJbQ0gyXVtDSDJdU0MyPU8=

> <s_epik_cmdline>
J2VwaWtfcHl0aG9uJywgJy1waCcsICc3LjAnLCAnLXRuJywgJzgnLCAnLW1hJywgJzIwMCcsICctbWV0YWxfYmluZGluZycsICctaW1hZScsICc8aW5maWxlLm1hZT4nLCAnLW9tYWUnLCAnPG91dGZpbGUubWFlPic=

> <r_lp_tautomer_probability>
1

> <r_epik_Ionization_Penalty>
0.257312

> <r_epik_Ionization_Penalty_Charging>
0

> <r_epik_Ionization_Penalty_Neutral>
0.257312

> <r_epik_State_Penalty>
0.248897

> <r_epik_Charging_Adjusted_Penalty>
0.248897

> <i_epik_Tot_Q>
1

> <i_epik_Tot_abs_Q>
1

> <r_epik_Metal_State_Penalty>
0.538022

> <b_epik_Metal_Only>
0

> <s_lp_Force_Field>
OPLS_2005

> <r_lp_Energy>
6.1395

> <b_lp_Chiralities_Consistent>
1

> <s_lp_Variant>
AV-unprocessed.smi:3351-2

> <Gold.Version>
5.8.1

> <Gold.Id.Protein>
6NUR|6NUR_protein|mol2

> <Gold.PLP.Fitness>
41.5858

> <Gold.PLP.PLP>
-37.6874

> <Gold.PLP.part.hbond>
-2.0000

> <Gold.PLP.part.metal>
0.0000

> <Gold.PLP.part.buried>
-3.4444

> <Gold.PLP.part.nonpolar>
-32.5212

> <Gold.PLP.part.repulsive>
0.1078

> <Gold.PLP.ligand.clash>
0.0000

> <Gold.PLP.ligand.torsion>
1.0721

> <Gold.PLP.Chemscore.Hbond>
2.0000

> <Gold.PLP.Chemscore.CHOScore>
0.0000

> <Gold.PLP.Chemscore.Metal>
0.0000

> <Gold.Chemscore.Hbonds>
donor molecule, donor type, donor heavy atom, donor atom, acceptor molecule, acceptor atom, score
      L1  H     7    35       P1  7948  2.00

> <Gold.PLP.Chemscore.Internal.Correction>
0.0426

> <Gold.Rescore>
     Score         DG    S(hbond)    S(metal)    S(lipo)     H(rot)  DE(clash)    DE(int)     intcor
      9.69     -10.78       0.98        0.00      70.03       2.41       0.10       0.99       ----

> <Gold.Chemscore.Fitness>
9.6913

> <Gold.Chemscore.DG>
-10.7831

> <Gold.Chemscore.ZeroCoef>
-5.4800

> <Gold.Chemscore.Hbond>
0.9850

> <Gold.Chemscore.Metal>
0.0000

> <Gold.Chemscore.Lipo>
70.0280

> <Gold.Chemscore.Internal_Hbond>
0.0000

> <Gold.Chemscore.DEClash>
0.1013

> <Gold.Chemscore.DEInternal>
0.9905

> <Gold.Chemscore.Rot>
2.4141

> <Gold.Chemscore.Internal.Correction>
   9.000000E+99

> <Gold.Chemscore.Hbonds>
donor molecule, donor type, donor heavy atom, donor atom, acceptor molecule, acceptor atom, score
      L1  H     7    35       P1  7948  1.00

> <Gold.Chemscore.Hbond.Weighted>
-3.2899

> <Gold.Chemscore.Metal.Weighted>
-0.0000

> <Gold.Chemscore.Lipo.Weighted>
-8.1933

> <Gold.Chemscore.Internal_Hbond.Weighted>
0.0000

> <Gold.Chemscore.DEClash.Weighted>
0.1013

> <Gold.Chemscore.DEInternal.Weighted>
0.9905

> <Gold.Chemscore.Rot.Weighted>
6.1800

> <Gold.Chemscore.Internal.Correction.Weighted>
   9.000000E+99

> <Gold.Protein.RotatedTorsions>
[ 6907 6896 6895 6894 ] final   59.12 input  -60.11 | X-H torsion
[ 7974 7965 7964 7962 ] final  -19.81 input  175.53 | X-H torsion
[ 8008 7997 7996 7995 ] final  -19.99 input   59.86 | X-H torsion
[ 10167 10162 10161 10158 ] final  -97.40 input  -65.29 | X-H torsion
[ 10718 10713 10712 10709 ] final  -80.08 input   66.30 | X-H torsion
[ 10763 10752 10751 10750 ] final -120.41 input  -60.55 | X-H torsion
[ 11005 11000 10999 10996 ] final  111.34 input  -57.11 | X-H torsion

> <Gold.Protein.ActiveResidues>
 VAL166  LYS551  ARG553  GLY616  TRP617  ASP618  TYR619  PRO620  LYS621  CYS622 
 ASP623  PHE694  ASN695  SER759  ASP760  ASP761  ALA762  ILE779  LEU786  VAL792 
 PHE793  MET794  SER795  GLU796  ALA797  LYS798  CYS799  TRP800  GLU811  SER814 

> <Gold.Protein.RotatedAtoms>
  152.3886  134.6477  160.0115 H   0  0  0  0  0  0  0  0  0  0  0  0  # atno 6907 bound_to 6896
  151.6718  133.3308  159.3206 H   0  0  0  0  0  0  0  0  0  0  0  0  # atno 6908 bound_to 6896
  150.7807  134.6793  159.6479 H   0  0  0  0  0  0  0  0  0  0  0  0  # atno 6909 bound_to 6896
  146.1822  140.4114  142.8490 H   0  0  0  0  0  0  0  0  0  0  0  0  # atno 7974 bound_to 7965
  154.4800  140.2074  155.9787 H   0  0  0  0  0  0  0  0  0  0  0  0  # atno 8008 bound_to 7997
  156.1149  140.3223  155.8095 H   0  0  0  0  0  0  0  0  0  0  0  0  # atno 8009 bound_to 7997
  155.4569  140.0521  157.2986 H   0  0  0  0  0  0  0  0  0  0  0  0  # atno 8010 bound_to 7997
  140.2838  143.3265  152.0414 H   0  0  0  0  0  0  0  0  0  0  0  0  # atno 10167 bound_to 10162
  156.0078  130.4564  150.3745 H   0  0  0  0  0  0  0  0  0  0  0  0  # atno 10718 bound_to 10713
  154.8643  135.4204  154.2455 H   0  0  0  0  0  0  0  0  0  0  0  0  # atno 10763 bound_to 10752
  153.3412  135.6993  153.6871 H   0  0  0  0  0  0  0  0  0  0  0  0  # atno 10764 bound_to 10752
  153.5849  135.3566  155.2862 H   0  0  0  0  0  0  0  0  0  0  0  0  # atno 10765 bound_to 10752
  139.8901  134.9505  156.6417 H   0  0  0  0  0  0  0  0  0  0  0  0  # atno 11005 bound_to 11000
  144.8334  140.6743  143.6276 LP  0  0  0  0  0  0  0  0  0  0  0  0  # atno 17320 bound_to 7965
  145.4044  139.1591  143.4160 LP  0  0  0  0  0  0  0  0  0  0  0  0  # atno 17321 bound_to 7965
  139.4955  144.6573  151.6544 LP  0  0  0  0  0  0  0  0  0  0  0  0  # atno 17342 bound_to 10162
  140.5789  143.9980  150.6257 LP  0  0  0  0  0  0  0  0  0  0  0  0  # atno 17343 bound_to 10162
  157.1828  131.0396  151.2740 LP  0  0  0  0  0  0  0  0  0  0  0  0  # atno 17370 bound_to 10713
  157.4131  130.7396  149.6854 LP  0  0  0  0  0  0  0  0  0  0  0  0  # atno 17371 bound_to 10713
  140.7588  133.8835  155.8402 LP  0  0  0  0  0  0  0  0  0  0  0  0  # atno 17394 bound_to 11000
  140.9939  134.1241  157.4382 LP  0  0  0  0  0  0  0  0  0  0  0  0  # atno 17395 bound_to 11000

$$$$
