AV-unprocessed.smi:1978|AV-procd|sdf|8007|dock10
  -GOLD-   2272010193D 1   1.00000     0.00000
 Structure written by MMmdl.
 44 45  0  0  0  0  0  0  0  0  3 V2000
  152.8597  139.7052  158.0771 C   0  0  0  0  0  0  0  0  0  0  0  0
  152.1869  139.5842  156.7525 C   0  0  0  0  0  0  0  0  0  0  0  0
  150.8947  139.3311  156.3888 C   0  0  0  0  0  0  0  0  0  0  0  0
  150.9474  139.3487  154.9681 C   0  0  0  0  0  0  0  0  0  0  0  0
  149.9113  139.1630  154.1356 N   0  5  0  0  0  0  0  0  0  0  0  0
  148.6588  139.0246  154.6267 C   0  0  0  0  0  0  0  0  0  0  0  0
  148.1812  139.6161  155.5974 O   0  0  0  0  0  0  0  0  0  0  0  0
  147.9111  138.1431  153.9500 N   0  0  0  0  0  0  0  0  0  0  0  0
  146.5344  137.7840  154.2707 C   0  0  0  0  0  0  0  0  0  0  0  0
  145.7416  137.3100  153.0221 C   0  0  1  0  0  0  0  0  0  0  0  0
  146.0495  138.2427  151.8230 C   0  0  0  0  0  0  0  0  0  0  0  0
  146.0112  135.8699  152.6776 N   0  3  2  0  0  0  0  0  0  0  0  0
  145.3509  135.4166  151.4146 C   0  0  0  0  0  0  0  0  0  0  0  0
  145.8239  134.0176  150.9855 C   0  0  0  0  0  0  0  0  0  0  0  0
  145.6053  132.9873  152.0941 C   0  0  0  0  0  0  0  0  0  0  0  0
  146.2825  133.4737  153.3786 C   0  0  0  0  0  0  0  0  0  0  0  0
  145.8081  134.8831  153.7917 C   0  0  2  0  0  0  0  0  0  0  0  0
  144.3652  134.8701  154.3442 C   0  0  0  0  0  0  0  0  0  0  0  0
  152.1612  139.6059  154.5106 N   0  0  0  0  0  0  0  0  0  0  0  0
  152.9635  139.7522  155.6485 O   0  0  0  0  0  0  0  0  0  0  0  0
  152.3902  140.4843  158.6776 H   0  0  0  0  0  0  0  0  0  0  0  0
  153.9143  139.9572  157.9622 H   0  0  0  0  0  0  0  0  0  0  0  0
  152.7951  138.7674  158.6285 H   0  0  0  0  0  0  0  0  0  0  0  0
  150.0475  139.1566  157.0347 H   0  0  0  0  0  0  0  0  0  0  0  0
  148.3377  137.6816  153.1599 H   0  0  0  0  0  0  0  0  0  0  0  0
  146.5220  137.0034  155.0336 H   0  0  0  0  0  0  0  0  0  0  0  0
  146.0978  138.6786  154.7125 H   0  0  0  0  0  0  0  0  0  0  0  0
  144.6786  137.4060  153.2480 H   0  0  0  0  0  0  0  0  0  0  0  0
  145.9649  139.2970  152.0843 H   0  0  0  0  0  0  0  0  0  0  0  0
  145.3544  138.1047  150.9968 H   0  0  0  0  0  0  0  0  0  0  0  0
  147.0611  138.0831  151.4486 H   0  0  0  0  0  0  0  0  0  0  0  0
  144.2671  135.4350  151.5312 H   0  0  0  0  0  0  0  0  0  0  0  0
  145.5812  136.0823  150.5866 H   0  0  0  0  0  0  0  0  0  0  0  0
  145.2971  133.7075  150.0825 H   0  0  0  0  0  0  0  0  0  0  0  0
  146.8828  134.0552  150.7264 H   0  0  0  0  0  0  0  0  0  0  0  0
  144.5386  132.8343  152.2600 H   0  0  0  0  0  0  0  0  0  0  0  0
  146.0142  132.0214  151.7958 H   0  0  0  0  0  0  0  0  0  0  0  0
  146.1043  132.7627  154.1862 H   0  0  0  0  0  0  0  0  0  0  0  0
  147.3627  133.4903  153.2260 H   0  0  0  0  0  0  0  0  0  0  0  0
  146.4696  135.1517  154.6135 H   0  0  0  0  0  0  0  0  0  0  0  0
  144.2709  134.1469  155.1545 H   0  0  0  0  0  0  0  0  0  0  0  0
  143.6317  134.6005  153.5851 H   0  0  0  0  0  0  0  0  0  0  0  0
  144.0743  135.8377  154.7516 H   0  0  0  0  0  0  0  0  0  0  0  0
  147.0019  135.8357  152.4842 H   0  0  0  0  0  0  0  0  0  0  0  0
  1  2  1  0  0  0  0
  1 21  1  0  0  0  0
  1 22  1  0  0  0  0
  1 23  1  0  0  0  0
  2 20  1  0  0  0  0
  2  3  2  0  0  0  0
  3  4  1  0  0  0  0
  3 24  1  0  0  0  0
  4  5  1  0  0  0  0
  4 19  2  0  0  0  0
  5  6  1  0  0  0  0
  6  7  2  0  0  0  0
  6  8  1  0  0  0  0
  8  9  1  0  0  0  0
  8 25  1  0  0  0  0
  9 10  1  0  0  0  0
  9 26  1  0  0  0  0
  9 27  1  0  0  0  0
 10 11  1  0  0  0  0
 10 12  1  0  0  0  0
 10 28  1  0  0  0  0
 11 29  1  0  0  0  0
 11 30  1  0  0  0  0
 11 31  1  0  0  0  0
 12 17  1  0  0  0  0
 12 13  1  0  0  0  0
 12 44  1  0  0  0  0
 13 14  1  0  0  0  0
 13 32  1  0  0  0  0
 13 33  1  0  0  0  0
 14 15  1  0  0  0  0
 14 34  1  0  0  0  0
 14 35  1  0  0  0  0
 15 16  1  0  0  0  0
 15 36  1  0  0  0  0
 15 37  1  0  0  0  0
 16 17  1  0  0  0  0
 16 38  1  0  0  0  0
 16 39  1  0  0  0  0
 17 18  1  0  0  0  0
 17 40  1  0  0  0  0
 18 41  1  0  0  0  0
 18 42  1  0  0  0  0
 18 43  1  0  0  0  0
 19 20  1  0  0  0  0
M  CHG  1   5  -1
M  CHG  1  12   1
M  END
> <s_m_source_file>
AV-unprocessed.smi

> <i_m_source_file_index>
1978

> <i_lp_mmshare_version>
43012

> <i_f3d_flags>
0

> <s_epik_input>
W0NIM11jMVtjSF1jKG5vMSlbTkhdQyg9TylbTkhdW0NIMl1bQ0BIXShbQ0gzXSlOMltDSDJdW0NIMl1bQ0gyXVtDSDJdW0NASF0yW0NIM10=

> <s_epik_cmdline>
J2VwaWtfcHl0aG9uJywgJy1waCcsICc3LjAnLCAnLXRuJywgJzgnLCAnLW1hJywgJzIwMCcsICctbWV0YWxfYmluZGluZycsICctaW1hZScsICc8aW5maWxlLm1hZT4nLCAnLW9tYWUnLCAnPG91dGZpbGUubWFlPic=

> <r_epik_Ionization_Penalty>
6.22372

> <r_epik_Ionization_Penalty_Charging>
6.22362

> <r_epik_Ionization_Penalty_Neutral>
9.65074e-05

> <r_epik_State_Penalty>
6.22363

> <r_epik_Charging_Adjusted_Penalty>
12.4472

> <i_epik_Tot_Q>
0

> <i_epik_Tot_abs_Q>
2

> <r_epik_Metal_State_Penalty>
2.16675

> <b_epik_Metal_Only>
1

> <s_lp_Force_Field>
OPLS_2005

> <r_lp_Energy>
15.9266

> <b_lp_Chiralities_Consistent>
1

> <s_lp_Variant>
AV-unprocessed.smi:1978-16

> <Gold.Version>
5.8.1

> <Gold.Id.Protein>
6NUR|6NUR_protein|mol2

> <Gold.PLP.Fitness>
40.0319

> <Gold.PLP.PLP>
-26.2503

> <Gold.PLP.part.hbond>
-4.0000

> <Gold.PLP.part.metal>
0.0000

> <Gold.PLP.part.buried>
-2.1960

> <Gold.PLP.part.nonpolar>
-21.1760

> <Gold.PLP.part.repulsive>
0.8100

> <Gold.PLP.ligand.clash>
0.0000

> <Gold.PLP.ligand.torsion>
0.6687

> <Gold.PLP.Chemscore.Hbond>
4.9920

> <Gold.PLP.Chemscore.CHOScore>
0.0000

> <Gold.PLP.Chemscore.Metal>
0.0000

> <Gold.Chemscore.Hbonds>
donor molecule, donor type, donor heavy atom, donor atom, acceptor molecule, acceptor atom, score
      L1  H     8    25       P1  7948  1.00
      L1  H    12    44       P1  7948  1.79
      P1  H  7989  7998       L1    19  0.59
      P1  H  7997  8008       L1    20  1.00

> <Gold.PLP.Chemscore.Internal.Correction>
0.1429

> <Gold.Rescore>
     Score         DG    S(hbond)    S(metal)    S(lipo)     H(rot)  DE(clash)    DE(int)     intcor
     16.14     -18.75       2.98        0.00      61.55       1.52       0.60       2.01       ----

> <Gold.Chemscore.Fitness>
16.1419

> <Gold.Chemscore.DG>
-18.7541

> <Gold.Chemscore.ZeroCoef>
-5.4800

> <Gold.Chemscore.Hbond>
2.9823

> <Gold.Chemscore.Metal>
0.0000

> <Gold.Chemscore.Lipo>
61.5540

> <Gold.Chemscore.Internal_Hbond>
0.0000

> <Gold.Chemscore.DEClash>
0.6030

> <Gold.Chemscore.DEInternal>
2.0092

> <Gold.Chemscore.Rot>
1.5190

> <Gold.Chemscore.Internal.Correction>
   9.000000E+99

> <Gold.Chemscore.Hbonds>
donor molecule, donor type, donor heavy atom, donor atom, acceptor molecule, acceptor atom, score
      L1  H     8    25       P1  7948  0.93
      L1  H    12    44       P1  7948  0.87
      P1  H  7989  7998       L1    19  0.07
      P1  H  7997  8008       L1    20  0.56

> <Gold.Chemscore.Hbond.Weighted>
-9.9609

> <Gold.Chemscore.Metal.Weighted>
-0.0000

> <Gold.Chemscore.Lipo.Weighted>
-7.2018

> <Gold.Chemscore.Internal_Hbond.Weighted>
0.0000

> <Gold.Chemscore.DEClash.Weighted>
0.6030

> <Gold.Chemscore.DEInternal.Weighted>
2.0092

> <Gold.Chemscore.Rot.Weighted>
3.8886

> <Gold.Chemscore.Internal.Correction.Weighted>
   9.000000E+99

> <Gold.Protein.RotatedTorsions>
[ 6907 6896 6895 6894 ] final -105.16 input  -60.11 | X-H torsion
[ 7974 7965 7964 7962 ] final   17.34 input  175.53 | X-H torsion
[ 8008 7997 7996 7995 ] final  -31.19 input   59.86 | X-H torsion
[ 10167 10162 10161 10158 ] final -106.30 input  -65.29 | X-H torsion
[ 10718 10713 10712 10709 ] final  -51.49 input   66.30 | X-H torsion
[ 10763 10752 10751 10750 ] final    2.21 input  -60.55 | X-H torsion
[ 11005 11000 10999 10996 ] final -131.29 input  -57.11 | X-H torsion

> <Gold.Protein.ActiveResidues>
 VAL166  LYS551  ARG553  GLY616  TRP617  ASP618  TYR619  PRO620  LYS621  CYS622 
 ASP623  PHE694  ASN695  SER759  ASP760  ASP761  ALA762  ILE779  LEU786  VAL792 
 PHE793  MET794  SER795  GLU796  ALA797  LYS798  CYS799  TRP800  GLU811  SER814 

> <Gold.Protein.RotatedAtoms>
  150.7323  134.0169  159.3687 H   0  0  0  0  0  0  0  0  0  0  0  0  # atno 6907 bound_to 6896
  151.8131  135.0672  160.0425 H   0  0  0  0  0  0  0  0  0  0  0  0  # atno 6908 bound_to 6896
  152.3058  133.5665  159.5684 H   0  0  0  0  0  0  0  0  0  0  0  0  # atno 6909 bound_to 6896
  146.2221  139.8616  142.8604 H   0  0  0  0  0  0  0  0  0  0  0  0  # atno 7974 bound_to 7965
  154.4223  140.1771  156.1527 H   0  0  0  0  0  0  0  0  0  0  0  0  # atno 8008 bound_to 7997
  155.9902  140.3369  155.6721 H   0  0  0  0  0  0  0  0  0  0  0  0  # atno 8009 bound_to 7997
  155.6382  140.0677  157.2617 H   0  0  0  0  0  0  0  0  0  0  0  0  # atno 8010 bound_to 7997
  140.1893  143.3905  152.1219 H   0  0  0  0  0  0  0  0  0  0  0  0  # atno 10167 bound_to 10162
  156.1706  130.4149  149.9654 H   0  0  0  0  0  0  0  0  0  0  0  0  # atno 10718 bound_to 10713
  153.2984  135.6954  153.7226 H   0  0  0  0  0  0  0  0  0  0  0  0  # atno 10763 bound_to 10752
  153.6150  135.3437  155.2992 H   0  0  0  0  0  0  0  0  0  0  0  0  # atno 10764 bound_to 10752
  154.8544  135.4372  154.2087 H   0  0  0  0  0  0  0  0  0  0  0  0  # atno 10765 bound_to 10752
  140.9271  134.1368  157.4266 H   0  0  0  0  0  0  0  0  0  0  0  0  # atno 11005 bound_to 11000
  145.2699  141.0105  143.3778 LP  0  0  0  0  0  0  0  0  0  0  0  0  # atno 17320 bound_to 7965
  144.9232  139.4387  143.6531 LP  0  0  0  0  0  0  0  0  0  0  0  0  # atno 17321 bound_to 7965
  139.5263  144.7106  151.5219 LP  0  0  0  0  0  0  0  0  0  0  0  0  # atno 17342 bound_to 10162
  140.6467  143.8780  150.6744 LP  0  0  0  0  0  0  0  0  0  0  0  0  # atno 17343 bound_to 10162
  156.7455  130.9095  151.3634 LP  0  0  0  0  0  0  0  0  0  0  0  0  # atno 17370 bound_to 10713
  157.6799  130.9130  150.0242 LP  0  0  0  0  0  0  0  0  0  0  0  0  # atno 17371 bound_to 10713
  139.8788  134.9992  156.5942 LP  0  0  0  0  0  0  0  0  0  0  0  0  # atno 17394 bound_to 11000
  140.7911  133.8581  155.8647 LP  0  0  0  0  0  0  0  0  0  0  0  0  # atno 17395 bound_to 11000

$$$$
