AV-unprocessed.smi:3099|AV-procd|sdf|11802|dock1
  -GOLD-   2272017173D 1   1.00000     0.00000
 Structure written by MMmdl.
 33 34  0  0  0  0  0  0  0  0  2 V2000
  153.0247  138.7115  155.5346 C   0  0  0  0  0  0  0  0  0  0  0  0
  151.6911  138.8470  154.9445 N   0  0  0  0  0  0  0  0  0  0  0  0
  151.2015  137.9499  154.0796 C   0  0  0  0  0  0  0  0  0  0  0  0
  149.9796  138.3664  153.7412 N   0  3  0  0  0  0  0  0  0  0  0  0
  149.6857  139.5334  154.3909 C   0  0  0  0  0  0  0  0  0  0  0  0
  150.7765  139.8517  155.1652 C   0  0  0  0  0  0  0  0  0  0  0  0
  151.0459  141.0025  156.0866 C   0  0  0  0  0  0  0  0  0  0  0  0
  151.3577  140.5555  157.5262 C   0  0  0  0  0  0  0  0  0  0  0  0
  151.6873  141.6906  158.3800 N   0  0  0  0  0  0  0  0  0  0  0  0
  152.7973  141.7950  159.1264 C   0  0  0  0  0  0  0  0  0  0  0  0
  153.6674  140.9243  159.1641 O   0  0  0  0  0  0  0  0  0  0  0  0
  152.9401  143.0786  159.9496 C   0  0  0  0  0  0  0  0  0  0  0  0
  152.4051  144.3095  159.2365 C   0  0  0  0  0  0  0  0  0  0  0  0
  151.8713  145.4887  160.0199 C   0  0  0  0  0  0  0  0  0  0  0  0
  150.9257  144.6216  159.2264 C   0  0  0  0  0  0  0  0  0  0  0  0
  153.5272  137.8304  155.1331 H   0  0  0  0  0  0  0  0  0  0  0  0
  152.9275  138.6113  156.6160 H   0  0  0  0  0  0  0  0  0  0  0  0
  153.6121  139.5997  155.3003 H   0  0  0  0  0  0  0  0  0  0  0  0
  151.6945  137.0630  153.7230 H   0  0  0  0  0  0  0  0  0  0  0  0
  148.7419  140.0418  154.2568 H   0  0  0  0  0  0  0  0  0  0  0  0
  151.8813  141.5803  155.6895 H   0  0  0  0  0  0  0  0  0  0  0  0
  150.1756  141.6600  156.0794 H   0  0  0  0  0  0  0  0  0  0  0  0
  150.5150  140.0067  157.9507 H   0  0  0  0  0  0  0  0  0  0  0  0
  152.2092  139.8747  157.5303 H   0  0  0  0  0  0  0  0  0  0  0  0
  151.0261  142.4537  158.4044 H   0  0  0  0  0  0  0  0  0  0  0  0
  152.4121  142.9588  160.8959 H   0  0  0  0  0  0  0  0  0  0  0  0
  153.9931  143.2350  160.1901 H   0  0  0  0  0  0  0  0  0  0  0  0
  152.9482  144.5569  158.3258 H   0  0  0  0  0  0  0  0  0  0  0  0
  151.8399  145.4044  161.1043 H   0  0  0  0  0  0  0  0  0  0  0  0
  152.0852  146.4839  159.6357 H   0  0  0  0  0  0  0  0  0  0  0  0
  150.5082  145.0388  158.3122 H   0  0  0  0  0  0  0  0  0  0  0  0
  150.2614  143.9642  159.7840 H   0  0  0  0  0  0  0  0  0  0  0  0
  149.3633  137.8869  153.0968 H   0  0  0  0  0  0  0  0  0  0  0  0
  1  2  1  0  0  0  0
  1 16  1  0  0  0  0
  1 17  1  0  0  0  0
  1 18  1  0  0  0  0
  2  6  1  0  0  0  0
  2  3  1  0  0  0  0
  3  4  2  0  0  0  0
  3 19  1  0  0  0  0
  4  5  1  0  0  0  0
  4 33  1  0  0  0  0
  5  6  2  0  0  0  0
  5 20  1  0  0  0  0
  6  7  1  0  0  0  0
  7  8  1  0  0  0  0
  7 21  1  0  0  0  0
  7 22  1  0  0  0  0
  8  9  1  0  0  0  0
  8 23  1  0  0  0  0
  8 24  1  0  0  0  0
  9 10  1  0  0  0  0
  9 25  1  0  0  0  0
 10 11  2  0  0  0  0
 10 12  1  0  0  0  0
 12 13  1  0  0  0  0
 12 26  1  0  0  0  0
 12 27  1  0  0  0  0
 13 15  1  0  0  0  0
 13 14  1  0  0  0  0
 13 28  1  0  0  0  0
 14 15  1  0  0  0  0
 14 29  1  0  0  0  0
 14 30  1  0  0  0  0
 15 31  1  0  0  0  0
 15 32  1  0  0  0  0
M  CHG  1   4   1
M  END
> <s_m_source_file>
AV-unprocessed.smi

> <i_m_source_file_index>
3099

> <i_lp_mmshare_version>
43012

> <i_f3d_flags>
0

> <s_epik_input>
W0NIM11uMVtjSF1uW2NIXWMxW0NIMl1bQ0gyXVtOSF1DKD1PKVtDSDJdW0NIXTJbQ0gyXVtDSDJdMg==

> <s_epik_cmdline>
J2VwaWtfcHl0aG9uJywgJy1waCcsICc3LjAnLCAnLXRuJywgJzgnLCAnLW1hJywgJzIwMCcsICctbWV0YWxfYmluZGluZycsICctaW1hZScsICc8aW5maWxlLm1hZT4nLCAnLW9tYWUnLCAnPG91dGZpbGUubWFlPic=

> <r_lp_tautomer_probability>
1

> <r_epik_Ionization_Penalty>
0.156092

> <r_epik_Ionization_Penalty_Charging>
0

> <r_epik_Ionization_Penalty_Neutral>
0.156092

> <r_epik_State_Penalty>
0.145389

> <r_epik_Charging_Adjusted_Penalty>
0.145389

> <i_epik_Tot_Q>
1

> <i_epik_Tot_abs_Q>
1

> <r_epik_Metal_State_Penalty>
0.466304

> <b_epik_Metal_Only>
0

> <s_lp_Force_Field>
OPLS_2005

> <r_lp_Energy>
10.1208

> <b_lp_Chiralities_Consistent>
1

> <s_lp_Variant>
AV-unprocessed.smi:3099-1

> <Gold.Version>
5.8.1

> <Gold.Id.Protein>
6NUR|6NUR_protein|mol2

> <Gold.PLP.Fitness>
47.2363

> <Gold.PLP.PLP>
-39.3730

> <Gold.PLP.part.hbond>
-2.2727

> <Gold.PLP.part.metal>
0.0000

> <Gold.PLP.part.buried>
-1.1575

> <Gold.PLP.part.nonpolar>
-35.9693

> <Gold.PLP.part.repulsive>
0.1431

> <Gold.PLP.ligand.clash>
0.0000

> <Gold.PLP.ligand.torsion>
0.6292

> <Gold.PLP.Chemscore.Hbond>
2.0027

> <Gold.PLP.Chemscore.CHOScore>
0.8514

> <Gold.PLP.Chemscore.Metal>
0.0000

> <Gold.Chemscore.Hbonds>
donor molecule, donor type, donor heavy atom, donor atom, acceptor molecule, acceptor atom, score
      L1  H     4    33       P1  7948  1.74
      P1  H  7997  8008       L1    11  0.02
      L1  C     3    19       P1  7949  0.87

> <Gold.PLP.Chemscore.Internal.Correction>
0.5594

> <Gold.Rescore>
     Score         DG    S(hbond)    S(metal)    S(lipo)     H(rot)  DE(clash)    DE(int)     intcor
     13.34     -15.08       1.46        0.00      83.99       1.99       1.07       0.66       ----

> <Gold.Chemscore.Fitness>
13.3447

> <Gold.Chemscore.DG>
-15.0752

> <Gold.Chemscore.ZeroCoef>
-5.4800

> <Gold.Chemscore.Hbond>
1.4565

> <Gold.Chemscore.Metal>
0.0000

> <Gold.Chemscore.Lipo>
83.9851

> <Gold.Chemscore.Internal_Hbond>
0.0000

> <Gold.Chemscore.DEClash>
1.0738

> <Gold.Chemscore.DEInternal>
0.6568

> <Gold.Chemscore.Rot>
1.9905

> <Gold.Chemscore.Internal.Correction>
   9.000000E+99

> <Gold.Chemscore.Hbonds>
donor molecule, donor type, donor heavy atom, donor atom, acceptor molecule, acceptor atom, score
      L1  H     4    33       P1  7948  0.78
      P1  H  7997  8008       L1    11  0.05

> <Gold.Chemscore.Hbond.Weighted>
-4.8646

> <Gold.Chemscore.Metal.Weighted>
-0.0000

> <Gold.Chemscore.Lipo.Weighted>
-9.8263

> <Gold.Chemscore.Internal_Hbond.Weighted>
0.0000

> <Gold.Chemscore.DEClash.Weighted>
1.0738

> <Gold.Chemscore.DEInternal.Weighted>
0.6568

> <Gold.Chemscore.Rot.Weighted>
5.0957

> <Gold.Chemscore.Internal.Correction.Weighted>
   9.000000E+99

> <Gold.Protein.RotatedTorsions>
[ 6907 6896 6895 6894 ] final   32.43 input  -60.11 | X-H torsion
[ 7974 7965 7964 7962 ] final  168.99 input  175.53 | X-H torsion
[ 8008 7997 7996 7995 ] final -100.55 input   59.86 | X-H torsion
[ 10167 10162 10161 10158 ] final   12.50 input  -65.29 | X-H torsion
[ 10718 10713 10712 10709 ] final -100.38 input   66.30 | X-H torsion
[ 10763 10752 10751 10750 ] final -115.14 input  -60.55 | X-H torsion
[ 11005 11000 10999 10996 ] final   38.12 input  -57.11 | X-H torsion

> <Gold.Protein.ActiveResidues>
 VAL166  LYS551  ARG553  GLY616  TRP617  ASP618  TYR619  PRO620  LYS621  CYS622 
 ASP623  PHE694  ASN695  SER759  ASP760  ASP761  ALA762  ILE779  LEU786  VAL792 
 PHE793  MET794  SER795  GLU796  ALA797  LYS798  CYS799  TRP800  GLU811  SER814 

> <Gold.Protein.RotatedAtoms>
  152.0743  134.9513  160.0573 H   0  0  0  0  0  0  0  0  0  0  0  0  # atno 6907 bound_to 6896
  152.0827  133.4156  159.4516 H   0  0  0  0  0  0  0  0  0  0  0  0  # atno 6908 bound_to 6896
  150.6836  134.2883  159.4699 H   0  0  0  0  0  0  0  0  0  0  0  0  # atno 6909 bound_to 6896
  144.7370  139.8988  143.6408 H   0  0  0  0  0  0  0  0  0  0  0  0  # atno 7974 bound_to 7965
  154.8302  140.0440  157.1471 H   0  0  0  0  0  0  0  0  0  0  0  0  # atno 8008 bound_to 7997
  154.9161  140.3020  155.5220 H   0  0  0  0  0  0  0  0  0  0  0  0  # atno 8009 bound_to 7997
  156.2986  140.2349  156.4206 H   0  0  0  0  0  0  0  0  0  0  0  0  # atno 8010 bound_to 7997
  140.6064  143.8499  150.7018 H   0  0  0  0  0  0  0  0  0  0  0  0  # atno 10167 bound_to 10162
  156.0161  130.5325  150.6808 H   0  0  0  0  0  0  0  0  0  0  0  0  # atno 10718 bound_to 10713
  154.8469  135.4392  154.1616 H   0  0  0  0  0  0  0  0  0  0  0  0  # atno 10763 bound_to 10752
  153.2751  135.6948  153.7447 H   0  0  0  0  0  0  0  0  0  0  0  0  # atno 10764 bound_to 10752
  153.6672  135.3425  155.3118 H   0  0  0  0  0  0  0  0  0  0  0  0  # atno 10765 bound_to 10752
  140.2158  134.3700  155.8027 H   0  0  0  0  0  0  0  0  0  0  0  0  # atno 11005 bound_to 11000
  146.1087  139.4089  143.0301 LP  0  0  0  0  0  0  0  0  0  0  0  0  # atno 17320 bound_to 7965
  145.7474  140.9985  143.1268 LP  0  0  0  0  0  0  0  0  0  0  0  0  # atno 17321 bound_to 7965
  140.2057  143.3923  152.1757 LP  0  0  0  0  0  0  0  0  0  0  0  0  # atno 17342 bound_to 10162
  139.5328  144.7177  151.4997 LP  0  0  0  0  0  0  0  0  0  0  0  0  # atno 17343 bound_to 10162
  157.4511  131.0872  151.0845 LP  0  0  0  0  0  0  0  0  0  0  0  0  # atno 17370 bound_to 10713
  157.1360  130.6123  149.5542 LP  0  0  0  0  0  0  0  0  0  0  0  0  # atno 17371 bound_to 10713
  141.2225  133.7167  156.8494 LP  0  0  0  0  0  0  0  0  0  0  0  0  # atno 17394 bound_to 11000
  140.1902  134.8971  157.3051 LP  0  0  0  0  0  0  0  0  0  0  0  0  # atno 17395 bound_to 11000

$$$$
