AV-unprocessed.smi:1836|AV-procd|sdf|7479|dock8
  -GOLD-   22720 9173D 1   1.00000     0.00000
 Structure written by MMmdl.
 32 33  0  0  0  0  0  0  0  0  2 V2000
  150.6017  136.3953  156.9586 C   0  0  0  0  0  0  0  0  0  0  0  0
  150.3657  137.8238  157.4681 C   0  0  2  0  0  0  0  0  0  0  0  0
  151.6934  138.6126  157.5466 C   0  0  0  0  0  0  0  0  0  0  0  0
  151.5004  140.0542  157.3946 N   0  0  0  0  0  0  0  0  0  0  0  0
  151.6225  140.9449  158.5375 C   0  0  0  0  0  0  0  0  0  0  0  0
  151.0354  142.2788  158.0580 C   0  0  0  0  0  0  0  0  0  0  0  0
  151.0136  142.1903  156.5284 C   0  0  0  0  0  0  0  0  0  0  0  0
  151.2027  140.7059  156.2639 C   0  0  0  0  0  0  0  0  0  0  0  0
  151.0803  140.2053  155.1467 O   0  0  0  0  0  0  0  0  0  0  0  0
  149.7384  137.7476  158.7877 N   0  0  0  0  0  0  0  0  0  0  0  0
  148.5934  137.1167  159.0896 C   0  0  0  0  0  0  0  0  0  0  0  0
  147.9881  136.4841  158.2212 O   0  0  0  0  0  0  0  0  0  0  0  0
  148.2067  137.2769  160.3752 N   0  5  0  0  0  0  0  0  0  0  0  0
  147.7070  136.2325  161.0561 C   0  0  0  0  0  0  0  0  0  0  0  0
  147.5468  135.0212  160.4998 N   0  0  0  0  0  0  0  0  0  0  0  0
  147.0162  134.0842  161.3765 N   0  0  0  0  0  0  0  0  0  0  0  0
  146.7963  134.6141  162.5794 C   0  0  0  0  0  0  0  0  0  0  0  0
  147.2200  136.3041  162.7525 S   0  0  0  0  0  0  0  0  0  0  0  0
  151.0439  136.4030  155.9622 H   0  0  0  0  0  0  0  0  0  0  0  0
  149.6648  135.8406  156.8975 H   0  0  0  0  0  0  0  0  0  0  0  0
  151.2739  135.8438  157.6170 H   0  0  0  0  0  0  0  0  0  0  0  0
  149.6920  138.3068  156.7584 H   0  0  0  0  0  0  0  0  0  0  0  0
  152.2031  138.4049  158.4888 H   0  0  0  0  0  0  0  0  0  0  0  0
  152.3698  138.2773  156.7588 H   0  0  0  0  0  0  0  0  0  0  0  0
  151.0936  140.5612  159.4109 H   0  0  0  0  0  0  0  0  0  0  0  0
  152.6765  141.0515  158.7963 H   0  0  0  0  0  0  0  0  0  0  0  0
  150.0172  142.3908  158.4338 H   0  0  0  0  0  0  0  0  0  0  0  0
  151.6152  143.1303  158.4153 H   0  0  0  0  0  0  0  0  0  0  0  0
  150.0765  142.5557  156.1073 H   0  0  0  0  0  0  0  0  0  0  0  0
  151.8405  142.7454  156.0847 H   0  0  0  0  0  0  0  0  0  0  0  0
  150.1970  138.2468  159.5357 H   0  0  0  0  0  0  0  0  0  0  0  0
  146.3848  134.0053  163.3706 H   0  0  0  0  0  0  0  0  0  0  0  0
  1  2  1  0  0  0  0
  1 19  1  0  0  0  0
  1 20  1  0  0  0  0
  1 21  1  0  0  0  0
  2  3  1  0  0  0  0
  2 10  1  0  0  0  0
  2 22  1  0  0  0  0
  3  4  1  0  0  0  0
  3 23  1  0  0  0  0
  3 24  1  0  0  0  0
  4  8  1  0  0  0  0
  4  5  1  0  0  0  0
  5  6  1  0  0  0  0
  5 25  1  0  0  0  0
  5 26  1  0  0  0  0
  6  7  1  0  0  0  0
  6 27  1  0  0  0  0
  6 28  1  0  0  0  0
  7  8  1  0  0  0  0
  7 29  1  0  0  0  0
  7 30  1  0  0  0  0
  8  9  2  0  0  0  0
 10 11  1  0  0  0  0
 10 31  1  0  0  0  0
 11 12  2  0  0  0  0
 11 13  1  0  0  0  0
 13 14  1  0  0  0  0
 14 18  1  0  0  0  0
 14 15  2  0  0  0  0
 15 16  1  0  0  0  0
 16 17  2  0  0  0  0
 17 18  1  0  0  0  0
 17 32  1  0  0  0  0
M  CHG  1  13  -1
M  END
> <s_m_source_file>
AV-unprocessed.smi

> <i_m_source_file_index>
1836

> <i_lp_mmshare_version>
43012

> <i_f3d_flags>
0

> <s_epik_input>
Tz1DMVtDSDJdW0NIMl1bQ0gyXU4xW0NIMl1bQ0BASF0oW0NIM10pW05IXUMoPU8pW05IXWMybm5bY0hdczI=

> <s_epik_cmdline>
J2VwaWtfcHl0aG9uJywgJy1waCcsICc3LjAnLCAnLXRuJywgJzgnLCAnLW1hJywgJzIwMCcsICctbWV0YWxfYmluZGluZycsICctaW1hZScsICc8aW5maWxlLm1hZT4nLCAnLW9tYWUnLCAnPG91dGZpbGUubWFlPic=

> <r_lp_tautomer_probability>
1

> <r_epik_Ionization_Penalty>
3.44722

> <r_epik_Ionization_Penalty_Charging>
3.40341

> <r_epik_Ionization_Penalty_Neutral>
0.0438099

> <r_epik_State_Penalty>
3.40151

> <r_epik_Charging_Adjusted_Penalty>
6.80491

> <i_epik_Tot_Q>
-1

> <i_epik_Tot_abs_Q>
1

> <r_epik_Metal_State_Penalty>
0.49534

> <b_epik_Metal_Only>
1

> <s_lp_Force_Field>
OPLS_2005

> <r_lp_Energy>
15.5322

> <b_lp_Chiralities_Consistent>
1

> <s_lp_Variant>
AV-unprocessed.smi:1836-3

> <Gold.Version>
5.8.1

> <Gold.Id.Protein>
6NUR|6NUR_protein|mol2

> <Gold.PLP.Fitness>
39.3396

> <Gold.PLP.PLP>
-31.0148

> <Gold.PLP.part.hbond>
-3.0000

> <Gold.PLP.part.metal>
0.0000

> <Gold.PLP.part.buried>
-5.6979

> <Gold.PLP.part.nonpolar>
-22.7897

> <Gold.PLP.part.repulsive>
0.2276

> <Gold.PLP.ligand.clash>
0.0000

> <Gold.PLP.ligand.torsion>
0.8135

> <Gold.PLP.Chemscore.Hbond>
3.2918

> <Gold.PLP.Chemscore.CHOScore>
0.0000

> <Gold.PLP.Chemscore.Metal>
0.0000

> <Gold.Chemscore.Hbonds>
donor molecule, donor type, donor heavy atom, donor atom, acceptor molecule, acceptor atom, score
      P1  H  6931  6943       L1    13  1.28
      P1  H  6934  6947       L1    13  1.10
      P1  H  7989  7998       L1     9  1.00

> <Gold.PLP.Chemscore.Internal.Correction>
0.0766

> <Gold.Rescore>
     Score         DG    S(hbond)    S(metal)    S(lipo)     H(rot)  DE(clash)    DE(int)     intcor
     10.78     -13.16       1.89        0.00      49.45       1.73       0.00       2.38       ----

> <Gold.Chemscore.Fitness>
10.7756

> <Gold.Chemscore.DG>
-13.1563

> <Gold.Chemscore.ZeroCoef>
-5.4800

> <Gold.Chemscore.Hbond>
1.8923

> <Gold.Chemscore.Metal>
0.0000

> <Gold.Chemscore.Lipo>
49.4487

> <Gold.Chemscore.Internal_Hbond>
0.0000

> <Gold.Chemscore.DEClash>
0.0000

> <Gold.Chemscore.DEInternal>
2.3807

> <Gold.Chemscore.Rot>
1.7302

> <Gold.Chemscore.Internal.Correction>
   9.000000E+99

> <Gold.Chemscore.Hbonds>
donor molecule, donor type, donor heavy atom, donor atom, acceptor molecule, acceptor atom, score
      P1  H  6931  6943       L1    13  0.14
      P1  H  6934  6947       L1    13  0.39
      P1  H  7989  7998       L1     9  0.99

> <Gold.Chemscore.Hbond.Weighted>
-6.3202

> <Gold.Chemscore.Metal.Weighted>
-0.0000

> <Gold.Chemscore.Lipo.Weighted>
-5.7855

> <Gold.Chemscore.Internal_Hbond.Weighted>
0.0000

> <Gold.Chemscore.DEClash.Weighted>
0.0000

> <Gold.Chemscore.DEInternal.Weighted>
2.3807

> <Gold.Chemscore.Rot.Weighted>
4.4294

> <Gold.Chemscore.Internal.Correction.Weighted>
   9.000000E+99

> <Gold.Protein.RotatedTorsions>
[ 6907 6896 6895 6894 ] final   41.84 input  -60.11 | X-H torsion
[ 7974 7965 7964 7962 ] final   32.62 input  175.53 | X-H torsion
[ 8008 7997 7996 7995 ] final -103.41 input   59.86 | X-H torsion
[ 10167 10162 10161 10158 ] final -170.80 input  -65.29 | X-H torsion
[ 10718 10713 10712 10709 ] final -145.15 input   66.30 | X-H torsion
[ 10763 10752 10751 10750 ] final  -10.83 input  -60.55 | X-H torsion
[ 11005 11000 10999 10996 ] final  129.17 input  -57.11 | X-H torsion

> <Gold.Protein.ActiveResidues>
 VAL166  LYS551  ARG553  GLY616  TRP617  ASP618  TYR619  PRO620  LYS621  CYS622 
 ASP623  PHE694  ASN695  SER759  ASP760  ASP761  ALA762  ILE779  LEU786  VAL792 
 PHE793  MET794  SER795  GLU796  ALA797  LYS798  CYS799  TRP800  GLU811  SER814 

> <Gold.Protein.RotatedAtoms>
  152.2003  134.8593  160.0508 H   0  0  0  0  0  0  0  0  0  0  0  0  # atno 6907 bound_to 6896
  151.9449  133.3644  159.3987 H   0  0  0  0  0  0  0  0  0  0  0  0  # atno 6908 bound_to 6896
  150.6953  134.4324  159.5299 H   0  0  0  0  0  0  0  0  0  0  0  0  # atno 6909 bound_to 6896
  146.1474  139.6502  142.9122 H   0  0  0  0  0  0  0  0  0  0  0  0  # atno 7974 bound_to 7965
  154.8705  140.0423  157.1721 H   0  0  0  0  0  0  0  0  0  0  0  0  # atno 8008 bound_to 7997
  154.8744  140.2963  155.5441 H   0  0  0  0  0  0  0  0  0  0  0  0  # atno 8009 bound_to 7997
  156.2999  140.2423  156.3738 H   0  0  0  0  0  0  0  0  0  0  0  0  # atno 8010 bound_to 7997
  139.5840  144.1360  152.1552 H   0  0  0  0  0  0  0  0  0  0  0  0  # atno 10167 bound_to 10162
  156.3789  130.7826  151.2016 H   0  0  0  0  0  0  0  0  0  0  0  0  # atno 10718 bound_to 10713
  153.4750  135.7017  153.5971 H   0  0  0  0  0  0  0  0  0  0  0  0  # atno 10763 bound_to 10752
  153.4209  135.3825  155.2111 H   0  0  0  0  0  0  0  0  0  0  0  0  # atno 10764 bound_to 10752
  154.8724  135.3927  154.4192 H   0  0  0  0  0  0  0  0  0  0  0  0  # atno 10765 bound_to 10752
  139.9601  134.9604  156.9110 H   0  0  0  0  0  0  0  0  0  0  0  0  # atno 11005 bound_to 11000
  145.4904  141.0438  143.2596 LP  0  0  0  0  0  0  0  0  0  0  0  0  # atno 17320 bound_to 7965
  144.7863  139.6420  143.7133 LP  0  0  0  0  0  0  0  0  0  0  0  0  # atno 17321 bound_to 7965
  140.0919  144.5613  150.7049 LP  0  0  0  0  0  0  0  0  0  0  0  0  # atno 17342 bound_to 10162
  140.7114  143.2508  151.4568 LP  0  0  0  0  0  0  0  0  0  0  0  0  # atno 17343 bound_to 10162
  157.7490  131.0350  150.4343 LP  0  0  0  0  0  0  0  0  0  0  0  0  # atno 17370 bound_to 10713
  156.4583  130.4026  149.6592 LP  0  0  0  0  0  0  0  0  0  0  0  0  # atno 17371 bound_to 10713
  140.5520  134.0618  155.7372 LP  0  0  0  0  0  0  0  0  0  0  0  0  # atno 17394 bound_to 11000
  141.1277  133.9355  157.2601 LP  0  0  0  0  0  0  0  0  0  0  0  0  # atno 17395 bound_to 11000

$$$$
