AV-unprocessed.smi:72|AV-procd|sdf|748|dock8
  -GOLD-   2262017 83D 1   1.00000     0.00000
 Structure written by MMmdl.
 29 30  0  0  0  0  0  0  0  0  1 V2000
  155.5502  137.3546  158.8952 N   0  0  0  0  0  0  0  0  0  0  0  0
  154.3849  137.4541  158.1640 C   0  0  0  0  0  0  0  0  0  0  0  0
  153.9248  138.7509  157.8976 N   0  0  0  0  0  0  0  0  0  0  0  0
  152.8293  138.8496  157.2129 C   0  0  0  0  0  0  0  0  0  0  0  0
  152.1214  137.6687  156.7472 N   0  0  0  0  0  0  0  0  0  0  0  0
  150.8334  137.7512  155.9449 C   0  0  1  0  0  0  0  0  0  0  0  0
  150.2694  139.0251  156.0707 O   0  0  0  0  0  0  0  0  0  0  0  0
  150.4073  139.7477  154.8507 C   0  0  2  0  0  0  0  0  0  0  0  0
  149.3650  140.8749  154.7499 C   0  0  0  0  0  0  0  0  0  0  0  0
  149.2509  141.3122  153.4125 O   0  0  0  0  0  0  0  0  0  0  0  0
  150.2985  138.6478  153.7871 C   0  0  2  0  0  0  0  0  0  0  0  0
  148.9462  138.3067  153.5388 O   0  0  0  0  0  0  0  0  0  0  0  0
  151.0320  137.4796  154.4331 C   0  0  1  0  0  0  0  0  0  0  0  0
  152.3883  137.4846  154.0211 O   0  0  0  0  0  0  0  0  0  0  0  0
  152.6484  136.3838  157.0525 C   0  0  0  0  0  0  0  0  0  0  0  0
  152.0703  135.3707  156.6585 O   0  0  0  0  0  0  0  0  0  0  0  0
  153.8328  136.3335  157.7967 N   0  0  0  0  0  0  0  0  0  0  0  0
  150.1489  137.0470  156.4203 H   0  0  0  0  0  0  0  0  0  0  0  0
  151.4140  140.1662  154.7963 H   0  0  0  0  0  0  0  0  0  0  0  0
  150.7460  138.9526  152.8399 H   0  0  0  0  0  0  0  0  0  0  0  0
  150.5958  136.5147  154.1705 H   0  0  0  0  0  0  0  0  0  0  0  0
  155.9740  136.4731  159.1460 H   0  0  0  0  0  0  0  0  0  0  0  0
  156.0669  138.1543  159.2311 H   0  0  0  0  0  0  0  0  0  0  0  0
  152.3821  139.8083  156.9507 H   0  0  0  0  0  0  0  0  0  0  0  0
  148.3849  140.5085  155.0568 H   0  0  0  0  0  0  0  0  0  0  0  0
  149.6194  141.7121  155.4004 H   0  0  0  0  0  0  0  0  0  0  0  0
  149.2890  140.5578  152.8445 H   0  0  0  0  0  0  0  0  0  0  0  0
  148.9234  137.6219  152.8882 H   0  0  0  0  0  0  0  0  0  0  0  0
  152.4828  138.1035  153.3133 H   0  0  0  0  0  0  0  0  0  0  0  0
  1  2  1  0  0  0  0
  1 22  1  0  0  0  0
  1 23  1  0  0  0  0
  2 17  2  0  0  0  0
  2  3  1  0  0  0  0
  3  4  2  0  0  0  0
  4  5  1  0  0  0  0
  4 24  1  0  0  0  0
  5  6  1  0  0  0  0
  5 15  1  0  0  0  0
  6 18  1  0  0  0  0
  6 13  1  0  0  0  0
  6  7  1  0  0  0  0
  7  8  1  0  0  0  0
  8 19  1  0  0  0  0
  8  9  1  0  0  0  0
  8 11  1  0  0  0  0
  9 10  1  0  0  0  0
  9 25  1  0  0  0  0
  9 26  1  0  0  0  0
 10 27  1  0  0  0  0
 11 20  1  0  0  0  0
 11 12  1  0  0  0  0
 11 13  1  0  0  0  0
 12 28  1  0  0  0  0
 13 21  1  0  0  0  0
 13 14  1  0  0  0  0
 14 29  1  0  0  0  0
 15 16  2  0  0  0  0
 15 17  1  0  0  0  0
M  END
> <s_m_source_file>
AV-unprocessed.smi

> <i_m_source_file_index>
72

> <i_lp_mmshare_version>
43012

> <i_f3d_flags>
0

> <s_epik_input>
W05IMl1jMW5bY0hdbihjKD1PKW4xKVtDQEBIXTJPW0NASF0oW0NIMl1bT0hdKVtDQEBIXShbT0hdKVtDQEhdMltPSF0=

> <s_epik_cmdline>
J2VwaWtfcHl0aG9uJywgJy1waCcsICc3LjAnLCAnLXRuJywgJzgnLCAnLW1hJywgJzIwMCcsICctbWV0YWxfYmluZGluZycsICctaW1hZScsICc8aW5maWxlLm1hZT4nLCAnLW9tYWUnLCAnPG91dGZpbGUubWFlPic=

> <r_lp_tautomer_probability>
4.77166e-05

> <r_epik_Ionization_Penalty>
1.3546

> <r_epik_Ionization_Penalty_Charging>
1.46833e-10

> <r_epik_Ionization_Penalty_Neutral>
1.3546

> <r_epik_State_Penalty>
3.51908

> <r_epik_Charging_Adjusted_Penalty>
3.51908

> <i_epik_Tot_Q>
0

> <i_epik_Tot_abs_Q>
0

> <r_epik_Metal_State_Penalty>
3.44088

> <b_epik_Metal_Only>
1

> <s_epik_Chemistry_Notes>
This compound contains an acetal/aminal-like group ( X-CH(R)-Y where X, Y are N, S, or O) that may be acid/base labile, releasing an aldehyde.

> <s_lp_Force_Field>
OPLS_2005

> <r_lp_Energy>
33.7939

> <b_lp_Chiralities_Consistent>
1

> <s_lp_Variant>
AV-unprocessed.smi:72-86

> <Gold.Version>
5.8.1

> <Gold.Id.Protein>
6NUR|6NUR_protein|mol2

> <Gold.PLP.Fitness>
35.0665

> <Gold.PLP.PLP>
-22.4555

> <Gold.PLP.part.hbond>
-8.4143

> <Gold.PLP.part.metal>
0.0000

> <Gold.PLP.part.buried>
-0.1143

> <Gold.PLP.part.nonpolar>
-12.9010

> <Gold.PLP.part.repulsive>
0.0465

> <Gold.PLP.ligand.clash>
0.0000

> <Gold.PLP.ligand.torsion>
0.5622

> <Gold.PLP.Chemscore.Hbond>
4.5640

> <Gold.PLP.Chemscore.CHOScore>
0.0000

> <Gold.PLP.Chemscore.Metal>
0.0000

> <Gold.Chemscore.Hbonds>
donor molecule, donor type, donor heavy atom, donor atom, acceptor molecule, acceptor atom, score
      L1  H    10    27       P1  7957  0.85
      L1  H    12    28       P1  7948  1.00
      P1  H  7997  8008       L1     3  1.00
      P1  H  8011  8017       L1    10  0.84
      P1  H 10752 10764       L1    14  0.74

> <Gold.PLP.Chemscore.Internal.Correction>
0.0434

> <Gold.Rescore>
     Score         DG    S(hbond)    S(metal)    S(lipo)     H(rot)  DE(clash)    DE(int)     intcor
      9.59     -10.55       3.51        0.00      31.89       4.06       0.19       0.76       ----

> <Gold.Chemscore.Fitness>
9.5944

> <Gold.Chemscore.DG>
-10.5479

> <Gold.Chemscore.ZeroCoef>
-5.4800

> <Gold.Chemscore.Hbond>
3.5122

> <Gold.Chemscore.Metal>
0.0000

> <Gold.Chemscore.Lipo>
31.8862

> <Gold.Chemscore.Internal_Hbond>
0.0000

> <Gold.Chemscore.DEClash>
0.1949

> <Gold.Chemscore.DEInternal>
0.7585

> <Gold.Chemscore.Rot>
4.0600

> <Gold.Chemscore.Internal.Correction>
   9.000000E+99

> <Gold.Chemscore.Hbonds>
donor molecule, donor type, donor heavy atom, donor atom, acceptor molecule, acceptor atom, score
      L1  H    10    27       P1  7957  0.85
      L1  H    12    28       P1  7948  1.00
      P1  H  7997  8008       L1     3  0.29
      P1  H  8011  8017       L1    10  0.14
      P1  H 10752 10764       L1    14  0.60

> <Gold.Chemscore.Hbond.Weighted>
-11.7308

> <Gold.Chemscore.Metal.Weighted>
-0.0000

> <Gold.Chemscore.Lipo.Weighted>
-3.7307

> <Gold.Chemscore.Internal_Hbond.Weighted>
0.0000

> <Gold.Chemscore.DEClash.Weighted>
0.1949

> <Gold.Chemscore.DEInternal.Weighted>
0.7585

> <Gold.Chemscore.Rot.Weighted>
10.3936

> <Gold.Chemscore.Internal.Correction.Weighted>
   9.000000E+99

> <Gold.Protein.RotatedTorsions>
[ 6907 6896 6895 6894 ] final  176.77 input  -60.11 | X-H torsion
[ 7974 7965 7964 7962 ] final    9.06 input  175.53 | X-H torsion
[ 8008 7997 7996 7995 ] final -104.00 input   59.86 | X-H torsion
[ 10167 10162 10161 10158 ] final  100.34 input  -65.29 | X-H torsion
[ 10718 10713 10712 10709 ] final  148.10 input   66.30 | X-H torsion
[ 10763 10752 10751 10750 ] final -101.98 input  -60.55 | X-H torsion
[ 11005 11000 10999 10996 ] final -129.56 input  -57.11 | X-H torsion

> <Gold.Protein.ActiveResidues>
 VAL166  LYS551  ARG553  GLY616  TRP617  ASP618  TYR619  PRO620  LYS621  CYS622 
 ASP623  PHE694  ASN695  SER759  ASP760  ASP761  ALA762  ILE779  LEU786  VAL792 
 PHE793  MET794  SER795  GLU796  ALA797  LYS798  CYS799  TRP800  GLU811  SER814 

> <Gold.Protein.RotatedAtoms>
  151.7148  133.3313  159.3299 H   0  0  0  0  0  0  0  0  0  0  0  0  # atno 6907 bound_to 6896
  150.7678  134.6501  159.6293 H   0  0  0  0  0  0  0  0  0  0  0  0  # atno 6908 bound_to 6896
  152.3689  134.6766  160.0234 H   0  0  0  0  0  0  0  0  0  0  0  0  # atno 6909 bound_to 6896
  146.2408  139.9839  142.8433 H   0  0  0  0  0  0  0  0  0  0  0  0  # atno 7974 bound_to 7965
  154.8790  140.0420  157.1771 H   0  0  0  0  0  0  0  0  0  0  0  0  # atno 8008 bound_to 7997
  154.8659  140.2951  155.5490 H   0  0  0  0  0  0  0  0  0  0  0  0  # atno 8009 bound_to 7997
  156.2999  140.2438  156.3640 H   0  0  0  0  0  0  0  0  0  0  0  0  # atno 8010 bound_to 7997
  139.7536  144.6976  151.0396 H   0  0  0  0  0  0  0  0  0  0  0  0  # atno 10167 bound_to 10162
  157.3128  131.0890  151.1303 H   0  0  0  0  0  0  0  0  0  0  0  0  # atno 10718 bound_to 10713
  154.7699  135.4877  153.9628 H   0  0  0  0  0  0  0  0  0  0  0  0  # atno 10763 bound_to 10752
  153.1354  135.6762  153.9118 H   0  0  0  0  0  0  0  0  0  0  0  0  # atno 10764 bound_to 10752
  153.8809  135.3132  155.3423 H   0  0  0  0  0  0  0  0  0  0  0  0  # atno 10765 bound_to 10752
  140.9421  134.1179  157.4141 H   0  0  0  0  0  0  0  0  0  0  0  0  # atno 11005 bound_to 11000
  145.1566  140.9651  143.4402 LP  0  0  0  0  0  0  0  0  0  0  0  0  # atno 17320 bound_to 7965
  145.0155  139.3471  143.6098 LP  0  0  0  0  0  0  0  0  0  0  0  0  # atno 17321 bound_to 7965
  140.7800  143.4780  151.0057 LP  0  0  0  0  0  0  0  0  0  0  0  0  # atno 17342 bound_to 10162
  139.8467  143.7492  152.3179 LP  0  0  0  0  0  0  0  0  0  0  0  0  # atno 17343 bound_to 10162
  157.2618  130.6663  149.5978 LP  0  0  0  0  0  0  0  0  0  0  0  0  # atno 17370 bound_to 10713
  155.9679  130.4506  150.5703 LP  0  0  0  0  0  0  0  0  0  0  0  0  # atno 17371 bound_to 10713
  139.8823  135.0040  156.6220 LP  0  0  0  0  0  0  0  0  0  0  0  0  # atno 17394 bound_to 11000
  140.7720  133.8731  155.8499 LP  0  0  0  0  0  0  0  0  0  0  0  0  # atno 17395 bound_to 11000

$$$$
