AV-unprocessed.smi:103|AV-procd|sdf|985|dock4
  -GOLD-   2262017553D 1   1.00000     0.00000
 Structure written by MMmdl.
 53 55  0  0  0  0  0  0  0  0  1 V2000
  149.7222  133.8976  156.1198 C   0  0  0  0  0  0  0  0  0  0  0  0
  149.2108  134.5503  157.3974 C   0  0  0  0  0  0  0  0  0  0  0  0
  149.8603  135.4199  157.9786 O   0  0  0  0  0  0  0  0  0  0  0  0
  148.0147  134.0650  157.7768 O   0  0  0  0  0  0  0  0  0  0  0  0
  147.3486  134.5962  158.9148 C   0  0  0  0  0  0  0  0  0  0  0  0
  146.4315  135.7679  158.5184 C   0  0  2  0  0  0  0  0  0  0  0  0
  147.1965  136.8624  158.0317 O   0  0  0  0  0  0  0  0  0  0  0  0
  146.4697  138.0367  158.1773 C   0  0  1  0  0  0  0  0  0  0  0  0
  145.6680  138.2683  156.9110 N   0  0  0  0  0  0  0  0  0  0  0  0
  145.8361  139.2892  155.9922 C   0  0  0  0  0  0  0  0  0  0  0  0
  147.0031  140.6438  156.0985 S   0  0  0  0  0  0  0  0  0  0  0  0
  146.5884  141.6218  154.5972 C   0  0  0  0  0  0  0  0  0  0  0  0
  146.6632  141.4220  157.2995 O   0  0  0  0  0  0  0  0  0  0  0  0
  148.3469  140.0648  155.9422 O   0  0  0  0  0  0  0  0  0  0  0  0
  145.0011  139.3327  154.9919 N   0  0  0  0  0  0  0  0  0  0  0  0
  144.2403  138.1905  155.1696 C   0  0  0  0  0  0  0  0  0  0  0  0
  143.1782  137.6021  154.4375 C   0  0  0  0  0  0  0  0  0  0  0  0
  142.6801  138.1378  153.3142 N   0  0  0  0  0  0  0  0  0  0  0  0
  142.6429  136.4453  154.8887 N   0  0  0  0  0  0  0  0  0  0  0  0
  143.1257  135.8914  156.0035 C   0  0  0  0  0  0  0  0  0  0  0  0
  144.1092  136.3290  156.7923 N   0  0  0  0  0  0  0  0  0  0  0  0
  144.6550  137.5000  156.3468 C   0  0  0  0  0  0  0  0  0  0  0  0
  145.6636  137.8781  159.4780 C   0  0  1  0  0  0  0  0  0  0  0  0
  144.3820  138.4947  159.4439 O   0  0  0  0  0  0  0  0  0  0  0  0
  144.2630  139.8211  159.6178 C   0  0  0  0  0  0  0  0  0  0  0  0
  142.8098  140.2734  159.6485 C   0  0  0  0  0  0  0  0  0  0  0  0
  145.1903  140.6232  159.7280 O   0  0  0  0  0  0  0  0  0  0  0  0
  145.5793  136.3602  159.6628 C   0  0  2  0  0  0  0  0  0  0  0  0
  146.0857  136.0051  160.9462 O   0  0  0  0  0  0  0  0  0  0  0  0
  147.2795  136.4704  161.3575 C   0  0  0  0  0  0  0  0  0  0  0  0
  147.6234  136.0226  162.7718 C   0  0  0  0  0  0  0  0  0  0  0  0
  148.0479  137.1745  160.7022 O   0  0  0  0  0  0  0  0  0  0  0  0
  149.7485  132.8136  156.2312 H   0  0  0  0  0  0  0  0  0  0  0  0
  150.7292  134.2454  155.8884 H   0  0  0  0  0  0  0  0  0  0  0  0
  149.0704  134.1455  155.2819 H   0  0  0  0  0  0  0  0  0  0  0  0
  146.7407  133.7907  159.3271 H   0  0  0  0  0  0  0  0  0  0  0  0
  148.0509  134.8876  159.6974 H   0  0  0  0  0  0  0  0  0  0  0  0
  145.7690  135.4319  157.7220 H   0  0  0  0  0  0  0  0  0  0  0  0
  147.1309  138.8968  158.2407 H   0  0  0  0  0  0  0  0  0  0  0  0
  147.2546  142.4816  154.5294 H   0  0  0  0  0  0  0  0  0  0  0  0
  145.5569  141.9666  154.6536 H   0  0  0  0  0  0  0  0  0  0  0  0
  146.7123  140.9969  153.7130 H   0  0  0  0  0  0  0  0  0  0  0  0
  143.0645  139.0000  152.9552 H   0  0  0  0  0  0  0  0  0  0  0  0
  141.9258  137.6766  152.8265 H   0  0  0  0  0  0  0  0  0  0  0  0
  142.6561  134.9681  156.3095 H   0  0  0  0  0  0  0  0  0  0  0  0
  146.2650  138.2983  160.2864 H   0  0  0  0  0  0  0  0  0  0  0  0
  142.2025  139.5695  160.2181 H   0  0  0  0  0  0  0  0  0  0  0  0
  142.4131  140.3329  158.6347 H   0  0  0  0  0  0  0  0  0  0  0  0
  142.7252  141.2563  160.1128 H   0  0  0  0  0  0  0  0  0  0  0  0
  144.5546  136.0003  159.5591 H   0  0  0  0  0  0  0  0  0  0  0  0
  146.7285  135.9935  163.3937 H   0  0  0  0  0  0  0  0  0  0  0  0
  148.3363  136.7108  163.2266 H   0  0  0  0  0  0  0  0  0  0  0  0
  148.0669  135.0271  162.7543 H   0  0  0  0  0  0  0  0  0  0  0  0
  1  2  1  0  0  0  0
  1 33  1  0  0  0  0
  1 34  1  0  0  0  0
  1 35  1  0  0  0  0
  2  3  2  0  0  0  0
  2  4  1  0  0  0  0
  4  5  1  0  0  0  0
  5  6  1  0  0  0  0
  5 36  1  0  0  0  0
  5 37  1  0  0  0  0
  6 28  1  0  0  0  0
  6  7  1  0  0  0  0
  6 38  1  0  0  0  0
  7  8  1  0  0  0  0
  8  9  1  0  0  0  0
  8 23  1  0  0  0  0
  8 39  1  0  0  0  0
  9 22  1  0  0  0  0
  9 10  1  0  0  0  0
 10 11  1  0  0  0  0
 10 15  2  0  0  0  0
 11 12  1  0  0  0  0
 11 13  2  0  0  0  0
 11 14  2  0  0  0  0
 12 40  1  0  0  0  0
 12 41  1  0  0  0  0
 12 42  1  0  0  0  0
 15 16  1  0  0  0  0
 16 22  2  0  0  0  0
 16 17  1  0  0  0  0
 17 18  1  0  0  0  0
 17 19  2  0  0  0  0
 18 43  1  0  0  0  0
 18 44  1  0  0  0  0
 19 20  1  0  0  0  0
 20 21  2  0  0  0  0
 20 45  1  0  0  0  0
 21 22  1  0  0  0  0
 23 24  1  0  0  0  0
 23 28  1  0  0  0  0
 23 46  1  0  0  0  0
 24 25  1  0  0  0  0
 25 26  1  0  0  0  0
 25 27  2  0  0  0  0
 26 47  1  0  0  0  0
 26 48  1  0  0  0  0
 26 49  1  0  0  0  0
 28 29  1  0  0  0  0
 28 50  1  0  0  0  0
 29 30  1  0  0  0  0
 30 31  1  0  0  0  0
 30 32  2  0  0  0  0
 31 51  1  0  0  0  0
 31 52  1  0  0  0  0
 31 53  1  0  0  0  0
M  END
> <s_m_source_file>
AV-unprocessed.smi

> <i_m_source_file_index>
103

> <i_lp_mmshare_version>
43012

> <i_f3d_flags>
0

> <s_epik_input>
W0NIM11DKD1PKU9bQ0gyXVtDQEBIXTFPW0NASF0oW0NAQEhdKE9DKD1PKVtDSDNdKVtDQEhdMU9DKD1PKVtDSDNdKW4oYyhuMilTKD1PKSg9TylbQ0gzXSljKGMyMyluW2NIXW5jM1tOSDJd

> <s_epik_cmdline>
J2VwaWtfcHl0aG9uJywgJy1waCcsICc3LjAnLCAnLXRuJywgJzgnLCAnLW1hJywgJzIwMCcsICctbWV0YWxfYmluZGluZycsICctaW1hZScsICc8aW5maWxlLm1hZT4nLCAnLW9tYWUnLCAnPG91dGZpbGUubWFlPic=

> <r_lp_tautomer_probability>
1

> <r_epik_Ionization_Penalty>
1.51338e-05

> <r_epik_Ionization_Penalty_Charging>
0

> <r_epik_Ionization_Penalty_Neutral>
1.51338e-05

> <r_epik_State_Penalty>
-0

> <r_epik_Charging_Adjusted_Penalty>
0

> <i_epik_Tot_Q>
0

> <i_epik_Tot_abs_Q>
0

> <r_epik_Metal_State_Penalty>
-0

> <b_epik_Metal_Only>
0

> <s_epik_Chemistry_Notes>
This compound has an ester and may undergo hydrolysis at high or low pH. This compound contains an acetal/aminal-like group ( X-CH(R)-Y where X, Y are N, S, or O) that may be acid/base labile, releasing an aldehyde.

> <s_lp_Force_Field>
OPLS_2005

> <r_lp_Energy>
17.8584

> <b_lp_Chiralities_Consistent>
1

> <s_lp_Variant>
AV-unprocessed.smi:103-9

> <Gold.Version>
5.8.1

> <Gold.Id.Protein>
6NUR|6NUR_protein|mol2

> <Gold.PLP.Fitness>
35.2787

> <Gold.PLP.PLP>
-21.7552

> <Gold.PLP.part.hbond>
-5.0000

> <Gold.PLP.part.metal>
0.0000

> <Gold.PLP.part.buried>
-3.9499

> <Gold.PLP.part.nonpolar>
-13.6349

> <Gold.PLP.part.repulsive>
0.6909

> <Gold.PLP.ligand.clash>
0.0000

> <Gold.PLP.ligand.torsion>
1.7164

> <Gold.PLP.Chemscore.Hbond>
3.9920

> <Gold.PLP.Chemscore.CHOScore>
0.8439

> <Gold.PLP.Chemscore.Metal>
0.0000

> <Gold.Chemscore.Hbonds>
donor molecule, donor type, donor heavy atom, donor atom, acceptor molecule, acceptor atom, score
      L1  H    18    43       P1 10175  1.00
      P1  H  6896  6908       L1     3  0.96
      P1  H  6931  6943       L1    32  0.83
      P1  H  6934  6946       L1    27  0.51
      P1  H  6934  6947       L1    32  0.71
      L1  C    20    45       P1 11000  0.77

> <Gold.PLP.Chemscore.Internal.Correction>
2.4485

> <Gold.Rescore>
     Score         DG    S(hbond)    S(metal)    S(lipo)     H(rot)  DE(clash)    DE(int)     intcor
      4.91     -11.28       4.09        0.00      25.73       4.25       0.11       6.26       ----

> <Gold.Chemscore.Fitness>
4.9105

> <Gold.Chemscore.DG>
-11.2775

> <Gold.Chemscore.ZeroCoef>
-5.4800

> <Gold.Chemscore.Hbond>
4.0885

> <Gold.Chemscore.Metal>
0.0000

> <Gold.Chemscore.Lipo>
25.7315

> <Gold.Chemscore.Internal_Hbond>
0.0000

> <Gold.Chemscore.DEClash>
0.1112

> <Gold.Chemscore.DEInternal>
6.2559

> <Gold.Chemscore.Rot>
4.2456

> <Gold.Chemscore.Internal.Correction>
   9.000000E+99

> <Gold.Chemscore.Hbonds>
donor molecule, donor type, donor heavy atom, donor atom, acceptor molecule, acceptor atom, score
      L1  H    18    43       P1 10175  0.99
      P1  H  6896  6908       L1     3  0.46
      P1  H  6931  6943       L1    32  0.58
      P1  H  6934  6946       L1    27  0.49
      P1  H  6934  6947       L1    32  0.23

> <Gold.Chemscore.Hbond.Weighted>
-13.6556

> <Gold.Chemscore.Metal.Weighted>
-0.0000

> <Gold.Chemscore.Lipo.Weighted>
-3.0106

> <Gold.Chemscore.Internal_Hbond.Weighted>
0.0000

> <Gold.Chemscore.DEClash.Weighted>
0.1112

> <Gold.Chemscore.DEInternal.Weighted>
6.2559

> <Gold.Chemscore.Rot.Weighted>
10.8687

> <Gold.Chemscore.Internal.Correction.Weighted>
   9.000000E+99

> <Gold.Protein.RotatedTorsions>
[ 6907 6896 6895 6894 ] final  165.26 input  -60.11 | X-H torsion
[ 7974 7965 7964 7962 ] final -136.21 input  175.53 | X-H torsion
[ 8008 7997 7996 7995 ] final   -3.17 input   59.86 | X-H torsion
[ 10167 10162 10161 10158 ] final  134.59 input  -65.29 | X-H torsion
[ 10718 10713 10712 10709 ] final -166.88 input   66.30 | X-H torsion
[ 10763 10752 10751 10750 ] final  -74.82 input  -60.55 | X-H torsion
[ 11005 11000 10999 10996 ] final   98.59 input  -57.11 | X-H torsion

> <Gold.Protein.ActiveResidues>
 VAL166  LYS551  ARG553  GLY616  TRP617  ASP618  TYR619  PRO620  LYS621  CYS622 
 ASP623  PHE694  ASN695  SER759  ASP760  ASP761  ALA762  ILE779  LEU786  VAL792 
 PHE793  MET794  SER795  GLU796  ALA797  LYS798  CYS799  TRP800  GLU811  SER814 

> <Gold.Protein.RotatedAtoms>
  151.8972  133.3529  159.3818 H   0  0  0  0  0  0  0  0  0  0  0  0  # atno 6907 bound_to 6896
  150.7089  134.4864  159.5504 H   0  0  0  0  0  0  0  0  0  0  0  0  # atno 6908 bound_to 6896
  152.2446  134.8195  160.0506 H   0  0  0  0  0  0  0  0  0  0  0  0  # atno 6909 bound_to 6896
  144.8947  140.6690  143.5123 H   0  0  0  0  0  0  0  0  0  0  0  0  # atno 7974 bound_to 7965
  154.6278  140.2516  155.7470 H   0  0  0  0  0  0  0  0  0  0  0  0  # atno 8008 bound_to 7997
  156.2463  140.2913  156.0536 H   0  0  0  0  0  0  0  0  0  0  0  0  # atno 8009 bound_to 7997
  155.1793  140.0388  157.2869 H   0  0  0  0  0  0  0  0  0  0  0  0  # atno 8010 bound_to 7997
  139.5250  144.6559  151.5162 H   0  0  0  0  0  0  0  0  0  0  0  0  # atno 10167 bound_to 10162
  156.6743  130.9096  151.3048 H   0  0  0  0  0  0  0  0  0  0  0  0  # atno 10718 bound_to 10713
  154.4783  135.5851  153.6371 H   0  0  0  0  0  0  0  0  0  0  0  0  # atno 10763 bound_to 10752
  152.9844  135.6083  154.3279 H   0  0  0  0  0  0  0  0  0  0  0  0  # atno 10764 bound_to 10752
  154.3168  135.2844  155.2518 H   0  0  0  0  0  0  0  0  0  0  0  0  # atno 10765 bound_to 10752
  139.8772  134.9056  156.4479 H   0  0  0  0  0  0  0  0  0  0  0  0  # atno 11005 bound_to 11000
  145.3721  139.1656  143.4326 LP  0  0  0  0  0  0  0  0  0  0  0  0  # atno 17320 bound_to 7965
  146.3074  140.3794  142.8682 LP  0  0  0  0  0  0  0  0  0  0  0  0  # atno 17321 bound_to 7965
  140.6385  143.8936  150.6670 LP  0  0  0  0  0  0  0  0  0  0  0  0  # atno 17342 bound_to 10162
  140.2263  143.3770  152.1602 LP  0  0  0  0  0  0  0  0  0  0  0  0  # atno 17343 bound_to 10162
  157.7066  130.9392  150.0951 LP  0  0  0  0  0  0  0  0  0  0  0  0  # atno 17370 bound_to 10713
  156.1915  130.3655  149.8904 LP  0  0  0  0  0  0  0  0  0  0  0  0  # atno 17371 bound_to 10713
  140.8952  133.7819  155.9617 LP  0  0  0  0  0  0  0  0  0  0  0  0  # atno 17394 bound_to 11000
  140.8710  134.2726  157.5190 LP  0  0  0  0  0  0  0  0  0  0  0  0  # atno 17395 bound_to 11000

$$$$
