AV-unprocessed.smi:2261|AV-procd|sdf|9137|dock3
  -GOLD-   2272012343D 1   1.00000     0.00000
 Structure written by MMmdl.
 41 42  0  0  0  0  0  0  0  0  1 V2000
  143.8494  141.8882  157.8952 C   0  0  0  0  0  0  0  0  0  0  0  0
  144.6052  142.8690  156.9823 C   0  0  0  0  0  0  0  0  0  0  0  0
  143.8642  144.2112  156.8819 C   0  0  0  0  0  0  0  0  0  0  0  0
  146.0668  143.0427  157.4144 C   0  0  0  0  0  0  0  0  0  0  0  0
  146.7862  141.9666  156.6267 C   0  0  2  0  0  0  0  0  0  0  0  0
  148.2004  142.2823  156.4470 N   0  0  0  0  0  0  0  0  0  0  0  0
  149.2231  141.4917  156.8057 C   0  0  0  0  0  0  0  0  0  0  0  0
  149.0844  140.4285  157.4095 O   0  0  0  0  0  0  0  0  0  0  0  0
  150.6175  141.9632  156.3954 C   0  0  0  0  0  0  0  0  0  0  0  0
  151.3564  142.5005  157.6081 C   0  0  0  0  0  0  0  0  0  0  0  0
  151.8526  141.6272  158.5982 C   0  0  0  0  0  0  0  0  0  0  0  0
  152.5497  142.1708  159.6942 C   0  0  0  0  0  0  0  0  0  0  0  0
  152.7218  143.5681  159.7534 C   0  0  0  0  0  0  0  0  0  0  0  0
  152.2503  144.4141  158.8124 N   0  0  0  0  0  0  0  0  0  0  0  0
  151.5807  143.8851  157.7662 C   0  0  0  0  0  0  0  0  0  0  0  0
  145.9897  141.9355  155.3045 C   0  0  0  0  0  0  0  0  0  0  0  0
  146.4396  142.9844  154.2645 C   0  0  0  0  0  0  0  0  0  0  0  0
  145.9580  140.5333  154.6767 C   0  0  0  0  0  0  0  0  0  0  0  0
  144.6582  142.2816  155.6825 O   0  0  0  0  0  0  0  0  0  0  0  0
  143.7845  142.2683  158.9150 H   0  0  0  0  0  0  0  0  0  0  0  0
  144.3428  140.9168  157.9338 H   0  0  0  0  0  0  0  0  0  0  0  0
  142.8326  141.7233  157.5377 H   0  0  0  0  0  0  0  0  0  0  0  0
  143.8220  144.7113  157.8498 H   0  0  0  0  0  0  0  0  0  0  0  0
  142.8406  144.0706  156.5342 H   0  0  0  0  0  0  0  0  0  0  0  0
  144.3586  144.8837  156.1802 H   0  0  0  0  0  0  0  0  0  0  0  0
  146.4343  144.0278  157.1217 H   0  0  0  0  0  0  0  0  0  0  0  0
  146.2115  142.9479  158.4913 H   0  0  0  0  0  0  0  0  0  0  0  0
  146.6682  141.0210  157.1599 H   0  0  0  0  0  0  0  0  0  0  0  0
  148.4149  143.1375  155.9553 H   0  0  0  0  0  0  0  0  0  0  0  0
  151.1749  141.1376  155.9504 H   0  0  0  0  0  0  0  0  0  0  0  0
  150.5389  142.7407  155.6343 H   0  0  0  0  0  0  0  0  0  0  0  0
  151.7072  140.5598  158.5167 H   0  0  0  0  0  0  0  0  0  0  0  0
  152.9457  141.5319  160.4697 H   0  0  0  0  0  0  0  0  0  0  0  0
  153.2528  144.0186  160.5790 H   0  0  0  0  0  0  0  0  0  0  0  0
  151.2241  144.5873  157.0269 H   0  0  0  0  0  0  0  0  0  0  0  0
  147.4344  142.7649  153.8761 H   0  0  0  0  0  0  0  0  0  0  0  0
  146.4614  143.9894  154.6862 H   0  0  0  0  0  0  0  0  0  0  0  0
  145.7588  143.0048  153.4131 H   0  0  0  0  0  0  0  0  0  0  0  0
  146.9544  140.2165  154.3677 H   0  0  0  0  0  0  0  0  0  0  0  0
  145.3156  140.5113  153.7961 H   0  0  0  0  0  0  0  0  0  0  0  0
  145.5764  139.7927  155.3800 H   0  0  0  0  0  0  0  0  0  0  0  0
  1  2  1  0  0  0  0
  1 20  1  0  0  0  0
  1 21  1  0  0  0  0
  1 22  1  0  0  0  0
  2 19  1  0  0  0  0
  2  3  1  0  0  0  0
  2  4  1  0  0  0  0
  3 23  1  0  0  0  0
  3 24  1  0  0  0  0
  3 25  1  0  0  0  0
  4  5  1  0  0  0  0
  4 26  1  0  0  0  0
  4 27  1  0  0  0  0
  5  6  1  0  0  0  0
  5 16  1  0  0  0  0
  5 28  1  0  0  0  0
  6  7  1  0  0  0  0
  6 29  1  0  0  0  0
  7  8  2  0  0  0  0
  7  9  1  0  0  0  0
  9 10  1  0  0  0  0
  9 30  1  0  0  0  0
  9 31  1  0  0  0  0
 10 15  1  0  0  0  0
 10 11  2  0  0  0  0
 11 12  1  0  0  0  0
 11 32  1  0  0  0  0
 12 13  2  0  0  0  0
 12 33  1  0  0  0  0
 13 14  1  0  0  0  0
 13 34  1  0  0  0  0
 14 15  2  0  0  0  0
 15 35  1  0  0  0  0
 16 17  1  0  0  0  0
 16 18  1  0  0  0  0
 16 19  1  0  0  0  0
 17 36  1  0  0  0  0
 17 37  1  0  0  0  0
 17 38  1  0  0  0  0
 18 39  1  0  0  0  0
 18 40  1  0  0  0  0
 18 41  1  0  0  0  0
M  END
> <s_m_source_file>
AV-unprocessed.smi

> <i_m_source_file_index>
2261

> <i_lp_mmshare_version>
43012

> <i_f3d_flags>
0

> <s_epik_input>
W0NIM11DMShbQ0gzXSlbQ0gyXVtDQEhdKEMoTzEpKFtDSDNdKVtDSDNdKVtOSF1DKD1PKVtDSDJdYzJbY0hdW2NIXVtjSF1uW2NIXTI=

> <s_epik_cmdline>
J2VwaWtfcHl0aG9uJywgJy1waCcsICc3LjAnLCAnLXRuJywgJzgnLCAnLW1hJywgJzIwMCcsICctbWV0YWxfYmluZGluZycsICctaW1hZScsICc8aW5maWxlLm1hZT4nLCAnLW9tYWUnLCAnPG91dGZpbGUubWFlPic=

> <r_epik_Ionization_Penalty>
0.00420617

> <r_epik_Ionization_Penalty_Charging>
0

> <r_epik_Ionization_Penalty_Neutral>
0.00420617

> <r_epik_State_Penalty>
0.0030219

> <r_epik_Charging_Adjusted_Penalty>
0.0030219

> <i_epik_Tot_Q>
0

> <i_epik_Tot_abs_Q>
0

> <r_epik_Metal_State_Penalty>
-0

> <b_epik_Metal_Only>
0

> <s_lp_Force_Field>
OPLS_2005

> <r_lp_Energy>
16.2034

> <b_lp_Chiralities_Consistent>
1

> <s_lp_Variant>
AV-unprocessed.smi:2261-2

> <Gold.Version>
5.8.1

> <Gold.Id.Protein>
6NUR|6NUR_protein|mol2

> <Gold.PLP.Fitness>
37.4791

> <Gold.PLP.PLP>
-32.1537

> <Gold.PLP.part.hbond>
-1.0000

> <Gold.PLP.part.metal>
0.0000

> <Gold.PLP.part.buried>
-6.1150

> <Gold.PLP.part.nonpolar>
-27.0670

> <Gold.PLP.part.repulsive>
0.2273

> <Gold.PLP.ligand.clash>
0.0000

> <Gold.PLP.ligand.torsion>
0.3443

> <Gold.PLP.Chemscore.Hbond>
1.0000

> <Gold.PLP.Chemscore.CHOScore>
1.0000

> <Gold.PLP.Chemscore.Metal>
0.0000

> <Gold.Chemscore.Hbonds>
donor molecule, donor type, donor heavy atom, donor atom, acceptor molecule, acceptor atom, score
      L1  H     6    29       P1  8028  1.00
      L1  C    15    35       P1  8028  0.64

> <Gold.PLP.Chemscore.Internal.Correction>
0.0140

> <Gold.Rescore>
     Score         DG    S(hbond)    S(metal)    S(lipo)     H(rot)  DE(clash)    DE(int)     intcor
     15.12     -15.54       0.98        0.00      86.24       1.28       0.10       0.32       ----

> <Gold.Chemscore.Fitness>
15.1190

> <Gold.Chemscore.DG>
-15.5425

> <Gold.Chemscore.ZeroCoef>
-5.4800

> <Gold.Chemscore.Hbond>
0.9762

> <Gold.Chemscore.Metal>
0.0000

> <Gold.Chemscore.Lipo>
86.2362

> <Gold.Chemscore.Internal_Hbond>
0.0000

> <Gold.Chemscore.DEClash>
0.0999

> <Gold.Chemscore.DEInternal>
0.3236

> <Gold.Chemscore.Rot>
1.2842

> <Gold.Chemscore.Internal.Correction>
   9.000000E+99

> <Gold.Chemscore.Hbonds>
donor molecule, donor type, donor heavy atom, donor atom, acceptor molecule, acceptor atom, score
      L1  H     6    29       P1  8028  0.92

> <Gold.Chemscore.Hbond.Weighted>
-3.2604

> <Gold.Chemscore.Metal.Weighted>
-0.0000

> <Gold.Chemscore.Lipo.Weighted>
-10.0896

> <Gold.Chemscore.Internal_Hbond.Weighted>
0.0000

> <Gold.Chemscore.DEClash.Weighted>
0.0999

> <Gold.Chemscore.DEInternal.Weighted>
0.3236

> <Gold.Chemscore.Rot.Weighted>
3.2875

> <Gold.Chemscore.Internal.Correction.Weighted>
   9.000000E+99

> <Gold.Protein.RotatedTorsions>
[ 6907 6896 6895 6894 ] final   57.52 input  -60.11 | X-H torsion
[ 7974 7965 7964 7962 ] final  101.64 input  175.53 | X-H torsion
[ 8008 7997 7996 7995 ] final  136.63 input   59.86 | X-H torsion
[ 10167 10162 10161 10158 ] final -141.50 input  -65.29 | X-H torsion
[ 10718 10713 10712 10709 ] final  -96.02 input   66.30 | X-H torsion
[ 10763 10752 10751 10750 ] final  -51.74 input  -60.55 | X-H torsion
[ 11005 11000 10999 10996 ] final   60.67 input  -57.11 | X-H torsion

> <Gold.Protein.ActiveResidues>
 VAL166  LYS551  ARG553  GLY616  TRP617  ASP618  TYR619  PRO620  LYS621  CYS622 
 ASP623  PHE694  ASN695  SER759  ASP760  ASP761  ALA762  ILE779  LEU786  VAL792 
 PHE793  MET794  SER795  GLU796  ALA797  LYS798  CYS799  TRP800  GLU811  SER814 

> <Gold.Protein.RotatedAtoms>
  152.3739  134.6693  160.0166 H   0  0  0  0  0  0  0  0  0  0  0  0  # atno 6907 bound_to 6896
  151.6977  133.3305  159.3266 H   0  0  0  0  0  0  0  0  0  0  0  0  # atno 6908 bound_to 6896
  150.7694  134.6578  159.6368 H   0  0  0  0  0  0  0  0  0  0  0  0  # atno 6909 bound_to 6896
  145.3697  139.2400  143.3462 H   0  0  0  0  0  0  0  0  0  0  0  0  # atno 7974 bound_to 7965
  156.3004  140.2440  156.3777 H   0  0  0  0  0  0  0  0  0  0  0  0  # atno 8008 bound_to 7997
  154.8730  140.0415  157.1756 H   0  0  0  0  0  0  0  0  0  0  0  0  # atno 8009 bound_to 7997
  154.8775  140.2944  155.5448 H   0  0  0  0  0  0  0  0  0  0  0  0  # atno 8010 bound_to 7997
  139.8179  143.7614  152.2665 H   0  0  0  0  0  0  0  0  0  0  0  0  # atno 10167 bound_to 10162
  156.0054  130.5134  150.6164 H   0  0  0  0  0  0  0  0  0  0  0  0  # atno 10718 bound_to 10713
  154.1315  135.6519  153.4923 H   0  0  0  0  0  0  0  0  0  0  0  0  # atno 10763 bound_to 10752
  153.0194  135.5294  154.6997 H   0  0  0  0  0  0  0  0  0  0  0  0  # atno 10764 bound_to 10752
  154.6232  135.2967  155.0272 H   0  0  0  0  0  0  0  0  0  0  0  0  # atno 10765 bound_to 10752
  140.0216  134.6145  155.9632 H   0  0  0  0  0  0  0  0  0  0  0  0  # atno 11005 bound_to 11000
  146.2891  140.4346  142.8746 LP  0  0  0  0  0  0  0  0  0  0  0  0  # atno 17320 bound_to 7965
  144.8585  140.7106  143.6122 LP  0  0  0  0  0  0  0  0  0  0  0  0  # atno 17321 bound_to 7965
  139.7783  144.7453  151.0125 LP  0  0  0  0  0  0  0  0  0  0  0  0  # atno 17342 bound_to 10162
  140.7815  143.4570  151.0332 LP  0  0  0  0  0  0  0  0  0  0  0  0  # atno 17343 bound_to 10162
  157.3987  131.0806  151.1328 LP  0  0  0  0  0  0  0  0  0  0  0  0  # atno 17370 bound_to 10713
  157.1996  130.6389  149.5734 LP  0  0  0  0  0  0  0  0  0  0  0  0  # atno 17371 bound_to 10713
  141.1777  133.6542  156.4893 LP  0  0  0  0  0  0  0  0  0  0  0  0  # atno 17394 bound_to 11000
  140.4378  134.7043  157.4976 LP  0  0  0  0  0  0  0  0  0  0  0  0  # atno 17395 bound_to 11000

$$$$
