AV-unprocessed.smi:13|AV-procd|sdf|73|dock5
  -GOLD-   2262015193D 1   1.00000     0.00000
 Structure written by MMmdl.
 54 58  0  0  0  0  0  0  0  0  1 V2000
  152.9357  141.4579  161.7233 C   0  0  0  0  0  0  0  0  0  0  0  0
  153.4220  141.0366  160.3296 C   0  0  0  0  0  0  0  0  0  0  0  0
  154.9218  140.7686  160.4527 C   0  0  0  0  0  0  0  0  0  0  0  0
  152.5983  139.9209  159.6680 C   0  0  0  0  0  0  0  0  0  0  0  0
  151.8889  140.9648  158.9498 N   0  0  0  0  0  0  0  0  0  0  0  0
  151.5072  140.6046  157.6239 C   0  0  0  0  0  0  0  0  0  0  0  0
  152.3683  139.9318  156.8146 N   0  0  0  0  0  0  0  0  0  0  0  0
  152.0311  139.6028  155.5650 C   0  0  0  0  0  0  0  0  0  0  0  0
  150.8910  139.8469  154.9190 N   0  0  0  0  0  0  0  0  0  0  0  0
  150.0162  140.5263  155.7131 C   0  0  0  0  0  0  0  0  0  0  0  0
  150.2447  140.9416  157.0563 C   0  0  0  0  0  0  0  0  0  0  0  0
  149.1300  141.6205  157.5338 N   0  0  0  0  0  0  0  0  0  0  0  0
  148.2907  141.6022  156.5350 C   0  0  0  0  0  0  0  0  0  0  0  0
  148.7376  140.9577  155.4039 N   0  0  0  0  0  0  0  0  0  0  0  0
  148.0145  140.7934  154.1516 C   0  0  0  0  0  0  0  0  0  0  0  0
  147.7593  139.3156  153.7679 C   0  0  1  0  0  0  0  0  0  0  0  0
  148.9914  138.7186  153.4059 O   0  0  0  0  0  0  0  0  0  0  0  0
  147.1361  138.5158  154.9143 C   0  0  0  0  0  0  0  0  0  0  0  0
  145.7021  138.2862  154.4519 C   0  0  0  0  0  0  0  0  0  0  0  0
  145.8513  138.1290  153.0523 O   0  0  0  0  0  0  0  0  0  0  0  0
  146.7511  139.1368  152.6142 C   0  0  0  0  0  0  0  0  0  0  0  0
  152.9933  141.9030  159.1209 C   0  0  1  0  0  0  0  0  0  0  0  0
  152.5192  143.3507  159.2967 C   0  0  1  0  0  0  0  0  0  0  0  0
  151.8783  143.9502  158.0419 C   0  0  0  0  0  0  0  0  0  0  0  0
  150.8583  144.9451  158.5786 C   0  0  0  0  0  0  0  0  0  0  0  0
  150.8561  144.7012  160.0876 C   0  0  0  0  0  0  0  0  0  0  0  0
  151.4589  143.4266  160.2365 O   0  0  0  0  0  0  0  0  0  0  0  0
  153.0496  140.6474  162.4434 H   0  0  0  0  0  0  0  0  0  0  0  0
  151.8803  141.7316  161.7181 H   0  0  0  0  0  0  0  0  0  0  0  0
  153.4918  142.3124  162.1083 H   0  0  0  0  0  0  0  0  0  0  0  0
  155.3468  140.4348  159.5058 H   0  0  0  0  0  0  0  0  0  0  0  0
  155.1315  139.9932  161.1904 H   0  0  0  0  0  0  0  0  0  0  0  0
  155.4651  141.6660  160.7506 H   0  0  0  0  0  0  0  0  0  0  0  0
  153.1861  139.2760  159.0117 H   0  0  0  0  0  0  0  0  0  0  0  0
  151.9689  139.3516  160.3526 H   0  0  0  0  0  0  0  0  0  0  0  0
  152.7834  139.0688  155.0036 H   0  0  0  0  0  0  0  0  0  0  0  0
  147.3140  142.0598  156.5973 H   0  0  0  0  0  0  0  0  0  0  0  0
  147.0692  141.3319  154.2326 H   0  0  0  0  0  0  0  0  0  0  0  0
  148.5801  141.2908  153.3626 H   0  0  0  0  0  0  0  0  0  0  0  0
  148.8086  137.9456  152.8934 H   0  0  0  0  0  0  0  0  0  0  0  0
  147.6290  137.5492  155.0327 H   0  0  0  0  0  0  0  0  0  0  0  0
  147.1845  139.0253  155.8773 H   0  0  0  0  0  0  0  0  0  0  0  0
  145.2449  137.4097  154.9112 H   0  0  0  0  0  0  0  0  0  0  0  0
  145.0768  139.1554  154.6624 H   0  0  0  0  0  0  0  0  0  0  0  0
  146.1688  140.0442  152.4540 H   0  0  0  0  0  0  0  0  0  0  0  0
  147.2155  138.8719  151.6634 H   0  0  0  0  0  0  0  0  0  0  0  0
  153.7271  141.7963  158.3192 H   0  0  0  0  0  0  0  0  0  0  0  0
  153.3321  143.9962  159.6349 H   0  0  0  0  0  0  0  0  0  0  0  0
  152.6089  144.4208  157.3847 H   0  0  0  0  0  0  0  0  0  0  0  0
  151.3657  143.1754  157.4701 H   0  0  0  0  0  0  0  0  0  0  0  0
  151.1261  145.9763  158.3467 H   0  0  0  0  0  0  0  0  0  0  0  0
  149.8756  144.7478  158.1490 H   0  0  0  0  0  0  0  0  0  0  0  0
  151.4643  145.4481  160.6007 H   0  0  0  0  0  0  0  0  0  0  0  0
  149.8542  144.7215  160.5166 H   0  0  0  0  0  0  0  0  0  0  0  0
  1  2  1  0  0  0  0
  1 28  1  0  0  0  0
  1 29  1  0  0  0  0
  1 30  1  0  0  0  0
  2 22  1  0  0  0  0
  2  3  1  0  0  0  0
  2  4  1  0  0  0  0
  3 31  1  0  0  0  0
  3 32  1  0  0  0  0
  3 33  1  0  0  0  0
  4  5  1  0  0  0  0
  4 34  1  0  0  0  0
  4 35  1  0  0  0  0
  5  6  1  0  0  0  0
  5 22  1  0  0  0  0
  6 11  1  0  0  0  0
  6  7  2  0  0  0  0
  7  8  1  0  0  0  0
  8  9  2  0  0  0  0
  8 36  1  0  0  0  0
  9 10  1  0  0  0  0
 10 14  1  0  0  0  0
 10 11  2  0  0  0  0
 11 12  1  0  0  0  0
 12 13  2  0  0  0  0
 13 14  1  0  0  0  0
 13 37  1  0  0  0  0
 14 15  1  0  0  0  0
 15 16  1  0  0  0  0
 15 38  1  0  0  0  0
 15 39  1  0  0  0  0
 16 21  1  0  0  0  0
 16 17  1  0  0  0  0
 16 18  1  0  0  0  0
 17 40  1  0  0  0  0
 18 19  1  0  0  0  0
 18 41  1  0  0  0  0
 18 42  1  0  0  0  0
 19 20  1  0  0  0  0
 19 43  1  0  0  0  0
 19 44  1  0  0  0  0
 20 21  1  0  0  0  0
 21 45  1  0  0  0  0
 21 46  1  0  0  0  0
 22 23  1  0  0  0  0
 22 47  1  0  0  0  0
 23 27  1  0  0  0  0
 23 24  1  0  0  0  0
 23 48  1  0  0  0  0
 24 25  1  0  0  0  0
 24 49  1  0  0  0  0
 24 50  1  0  0  0  0
 25 26  1  0  0  0  0
 25 51  1  0  0  0  0
 25 52  1  0  0  0  0
 26 27  1  0  0  0  0
 26 53  1  0  0  0  0
 26 54  1  0  0  0  0
M  END
> <s_m_source_file>
AV-unprocessed.smi

> <i_m_source_file_index>
13

> <i_lp_mmshare_version>
43012

> <i_f3d_flags>
0

> <s_epik_input>
TzFbQ0gyXVtDSDJdW0NIMl1bQ0BIXTFbQ0BASF0yTihbQ0gyXUMyKFtDSDNdKVtDSDNdKWMobltjSF1uMyljKGMzNCluW2NIXW40W0NIMl1bQ0BAXTUoW09IXSlbQ0gyXVtDSDJdT1tDSDJdNQ==

> <s_epik_cmdline>
J2VwaWtfcHl0aG9uJywgJy1waCcsICc3LjAnLCAnLXRuJywgJzgnLCAnLW1hJywgJzIwMCcsICctbWV0YWxfYmluZGluZycsICctaW1hZScsICc8aW5maWxlLm1hZT4nLCAnLW9tYWUnLCAnPG91dGZpbGUubWFlPic=

> <r_lp_tautomer_probability>
1

> <r_epik_Ionization_Penalty>
0.00202764

> <r_epik_Ionization_Penalty_Charging>
0

> <r_epik_Ionization_Penalty_Neutral>
0.00202764

> <r_epik_State_Penalty>
0.00134017

> <r_epik_Charging_Adjusted_Penalty>
0.00134017

> <i_epik_Tot_Q>
0

> <i_epik_Tot_abs_Q>
0

> <r_epik_Metal_State_Penalty>
-0

> <b_epik_Metal_Only>
0

> <s_lp_Force_Field>
OPLS_2005

> <r_lp_Energy>
61.4884

> <b_lp_Chiralities_Consistent>
1

> <s_lp_Variant>
AV-unprocessed.smi:13-5

> <Gold.Version>
5.8.1

> <Gold.Id.Protein>
6NUR|6NUR_protein|mol2

> <Gold.PLP.Fitness>
60.0066

> <Gold.PLP.PLP>
-51.4945

> <Gold.PLP.part.hbond>
-4.0000

> <Gold.PLP.part.metal>
0.0000

> <Gold.PLP.part.buried>
-6.5893

> <Gold.PLP.part.nonpolar>
-42.2815

> <Gold.PLP.part.repulsive>
0.4357

> <Gold.PLP.ligand.clash>
0.0000

> <Gold.PLP.ligand.torsion>
0.4627

> <Gold.PLP.Chemscore.Hbond>
3.0000

> <Gold.PLP.Chemscore.CHOScore>
0.0000

> <Gold.PLP.Chemscore.Metal>
0.0000

> <Gold.Chemscore.Hbonds>
donor molecule, donor type, donor heavy atom, donor atom, acceptor molecule, acceptor atom, score
      L1  H    17    40       P1  7948  1.00
      P1  H  7989  7998       L1     9  0.85
      P1  H  7997  8009       L1     7  0.95

> <Gold.PLP.Chemscore.Internal.Correction>
0.4375

> <Gold.Rescore>
     Score         DG    S(hbond)    S(metal)    S(lipo)     H(rot)  DE(clash)    DE(int)     intcor
     18.92     -20.14       1.94        0.00     120.28       2.30       0.40       0.81       ----

> <Gold.Chemscore.Fitness>
18.9221

> <Gold.Chemscore.DG>
-20.1353

> <Gold.Chemscore.ZeroCoef>
-5.4800

> <Gold.Chemscore.Hbond>
1.9368

> <Gold.Chemscore.Metal>
0.0000

> <Gold.Chemscore.Lipo>
120.2841

> <Gold.Chemscore.Internal_Hbond>
0.0000

> <Gold.Chemscore.DEClash>
0.4038

> <Gold.Chemscore.DEInternal>
0.8093

> <Gold.Chemscore.Rot>
2.2996

> <Gold.Chemscore.Internal.Correction>
   9.000000E+99

> <Gold.Chemscore.Hbonds>
donor molecule, donor type, donor heavy atom, donor atom, acceptor molecule, acceptor atom, score
      L1  H    17    40       P1  7948  0.97
      P1  H  7989  7998       L1     9  0.13
      P1  H  7997  8009       L1     7  0.20

> <Gold.Chemscore.Hbond.Weighted>
-6.4690

> <Gold.Chemscore.Metal.Weighted>
-0.0000

> <Gold.Chemscore.Lipo.Weighted>
-14.0732

> <Gold.Chemscore.Internal_Hbond.Weighted>
0.0000

> <Gold.Chemscore.DEClash.Weighted>
0.4038

> <Gold.Chemscore.DEInternal.Weighted>
0.8093

> <Gold.Chemscore.Rot.Weighted>
5.8869

> <Gold.Chemscore.Internal.Correction.Weighted>
   9.000000E+99

> <Gold.Protein.RotatedTorsions>
[ 6907 6896 6895 6894 ] final -108.77 input  -60.11 | X-H torsion
[ 7974 7965 7964 7962 ] final -165.38 input  175.53 | X-H torsion
[ 8008 7997 7996 7995 ] final -176.02 input   59.86 | X-H torsion
[ 10167 10162 10161 10158 ] final   57.23 input  -65.29 | X-H torsion
[ 10718 10713 10712 10709 ] final  -75.16 input   66.30 | X-H torsion
[ 10763 10752 10751 10750 ] final  -24.37 input  -60.55 | X-H torsion
[ 11005 11000 10999 10996 ] final  140.91 input  -57.11 | X-H torsion

> <Gold.Protein.ActiveResidues>
 VAL166  LYS551  ARG553  GLY616  TRP617  ASP618  TYR619  PRO620  LYS621  CYS622 
 ASP623  PHE694  ASN695  SER759  ASP760  ASP761  ALA762  ILE779  LEU786  VAL792 
 PHE793  MET794  SER795  GLU796  ALA797  LYS798  CYS799  TRP800  GLU811  SER814 

> <Gold.Protein.RotatedAtoms>
  150.7522  133.9627  159.3520 H   0  0  0  0  0  0  0  0  0  0  0  0  # atno 6907 bound_to 6896
  151.7554  135.0820  160.0347 H   0  0  0  0  0  0  0  0  0  0  0  0  # atno 6908 bound_to 6896
  152.3438  133.6061  159.5931 H   0  0  0  0  0  0  0  0  0  0  0  0  # atno 6909 bound_to 6896
  144.7271  140.2823  143.6234 H   0  0  0  0  0  0  0  0  0  0  0  0  # atno 7974 bound_to 7965
  155.9898  140.1198  157.0649 H   0  0  0  0  0  0  0  0  0  0  0  0  # atno 8008 bound_to 7997
  154.4208  140.1128  156.5618 H   0  0  0  0  0  0  0  0  0  0  0  0  # atno 8009 bound_to 7997
  155.6358  140.3473  155.4700 H   0  0  0  0  0  0  0  0  0  0  0  0  # atno 8010 bound_to 7997
  140.2003  144.3995  150.6532 H   0  0  0  0  0  0  0  0  0  0  0  0  # atno 10167 bound_to 10162
  156.0217  130.4434  150.3001 H   0  0  0  0  0  0  0  0  0  0  0  0  # atno 10718 bound_to 10713
  153.6826  135.6966  153.5113 H   0  0  0  0  0  0  0  0  0  0  0  0  # atno 10763 bound_to 10752
  153.2473  135.4286  155.0760 H   0  0  0  0  0  0  0  0  0  0  0  0  # atno 10764 bound_to 10752
  154.8395  135.3522  154.6369 H   0  0  0  0  0  0  0  0  0  0  0  0  # atno 10765 bound_to 10752
  140.0362  134.9328  157.0757 H   0  0  0  0  0  0  0  0  0  0  0  0  # atno 11005 bound_to 11000
  145.7937  139.1937  143.2088 LP  0  0  0  0  0  0  0  0  0  0  0  0  # atno 17320 bound_to 7965
  146.0734  140.7844  142.9677 LP  0  0  0  0  0  0  0  0  0  0  0  0  # atno 17321 bound_to 7965
  140.6395  143.2201  151.6321 LP  0  0  0  0  0  0  0  0  0  0  0  0  # atno 17342 bound_to 10162
  139.5220  144.3176  152.0939 LP  0  0  0  0  0  0  0  0  0  0  0  0  # atno 17343 bound_to 10162
  157.1104  131.0220  151.3050 LP  0  0  0  0  0  0  0  0  0  0  0  0  # atno 17370 bound_to 10713
  157.4709  130.7708  149.7323 LP  0  0  0  0  0  0  0  0  0  0  0  0  # atno 17371 bound_to 10713
  140.4144  134.1947  155.7163 LP  0  0  0  0  0  0  0  0  0  0  0  0  # atno 17394 bound_to 11000
  141.1858  133.8315  157.1090 LP  0  0  0  0  0  0  0  0  0  0  0  0  # atno 17395 bound_to 11000

$$$$
