AV-unprocessed.smi:1295|AV-procd|sdf|5407|dock1
  -GOLD-   22720 4563D 1   1.00000     0.00000
 Structure written by MMmdl.
 43 44  0  0  0  0  0  0  0  0  1 V2000
  151.6645  140.1289  156.0191 C   0  0  0  0  0  0  0  0  0  0  0  0
  150.7402  139.1681  156.7351 C   0  0  0  0  0  0  0  0  0  0  0  0
  149.4048  139.3325  156.4066 N   0  0  0  0  0  0  0  0  0  0  0  0
  148.4822  138.4948  157.0078 C   0  0  0  0  0  0  0  0  0  0  0  0
  147.0442  138.7285  156.5791 C   0  0  0  0  0  0  0  0  0  0  0  0
  148.8704  137.5436  157.8948 C   0  0  0  0  0  0  0  0  0  0  0  0
  147.8842  136.5827  158.5612 C   0  0  0  0  0  0  0  0  0  0  0  0
  147.9684  136.5044  160.0875 C   0  0  0  0  0  0  0  0  0  0  0  0
  148.8261  137.1474  160.6913 O   0  0  0  0  0  0  0  0  0  0  0  0
  147.0620  135.7212  160.6911 N   0  0  0  0  0  0  0  0  0  0  0  0
  146.8598  135.5707  162.1302 C   0  0  2  0  0  0  0  0  0  0  0  0
  147.0000  134.0901  162.5379 C   0  0  0  0  0  0  0  0  0  0  0  0
  145.8382  133.2305  162.0099 C   0  0  0  0  0  0  0  0  0  0  0  0
  144.4811  133.8022  162.4465 C   0  0  0  0  0  0  0  0  0  0  0  0
  144.3271  135.2692  162.0153 C   0  0  0  0  0  0  0  0  0  0  0  0
  145.4820  136.1426  162.5486 C   0  0  2  0  0  0  0  0  0  0  0  0
  145.3018  137.6167  162.1448 C   0  0  0  0  0  0  0  0  0  0  0  0
  150.3144  137.4140  158.2041 C   0  0  0  0  0  0  0  0  0  0  0  0
  150.7313  136.5605  158.9856 O   0  0  0  0  0  0  0  0  0  0  0  0
  151.2091  138.2888  157.5672 N   0  0  0  0  0  0  0  0  0  0  0  0
  149.0732  140.0256  155.7512 H   0  0  0  0  0  0  0  0  0  0  0  0
  152.6857  140.0393  156.3920 H   0  0  0  0  0  0  0  0  0  0  0  0
  151.3371  141.1582  156.1699 H   0  0  0  0  0  0  0  0  0  0  0  0
  151.6724  139.9196  154.9489 H   0  0  0  0  0  0  0  0  0  0  0  0
  146.4297  139.0014  157.4371 H   0  0  0  0  0  0  0  0  0  0  0  0
  146.6289  137.8260  156.1300 H   0  0  0  0  0  0  0  0  0  0  0  0
  146.9689  139.5315  155.8447 H   0  0  0  0  0  0  0  0  0  0  0  0
  148.0513  135.5836  158.1580 H   0  0  0  0  0  0  0  0  0  0  0  0
  146.8572  136.8245  158.2863 H   0  0  0  0  0  0  0  0  0  0  0  0
  146.4139  135.2225  160.0988 H   0  0  0  0  0  0  0  0  0  0  0  0
  147.6271  136.1374  162.6604 H   0  0  0  0  0  0  0  0  0  0  0  0
  147.9516  133.6901  162.1852 H   0  0  0  0  0  0  0  0  0  0  0  0
  147.0276  134.0203  163.6259 H   0  0  0  0  0  0  0  0  0  0  0  0
  145.8807  133.1790  160.9212 H   0  0  0  0  0  0  0  0  0  0  0  0
  145.9422  132.2066  162.3697 H   0  0  0  0  0  0  0  0  0  0  0  0
  143.6732  133.2041  162.0240 H   0  0  0  0  0  0  0  0  0  0  0  0
  144.3858  133.7285  163.5305 H   0  0  0  0  0  0  0  0  0  0  0  0
  144.2878  135.3267  160.9264 H   0  0  0  0  0  0  0  0  0  0  0  0
  143.3727  135.6546  162.3758 H   0  0  0  0  0  0  0  0  0  0  0  0
  145.4387  136.1068  163.6382 H   0  0  0  0  0  0  0  0  0  0  0  0
  145.2561  137.7370  161.0618 H   0  0  0  0  0  0  0  0  0  0  0  0
  146.1260  138.2282  162.5129 H   0  0  0  0  0  0  0  0  0  0  0  0
  144.3791  138.0243  162.5586 H   0  0  0  0  0  0  0  0  0  0  0  0
  1 22  1  0  0  0  0
  1 23  1  0  0  0  0
  1 24  1  0  0  0  0
  1  2  1  0  0  0  0
  2  3  1  0  0  0  0
  2 20  2  0  0  0  0
  3  4  1  0  0  0  0
  3 21  1  0  0  0  0
  4  6  2  0  0  0  0
  4  5  1  0  0  0  0
  5 25  1  0  0  0  0
  5 26  1  0  0  0  0
  5 27  1  0  0  0  0
  6 18  1  0  0  0  0
  6  7  1  0  0  0  0
  7  8  1  0  0  0  0
  7 28  1  0  0  0  0
  7 29  1  0  0  0  0
  8  9  2  0  0  0  0
  8 10  1  0  0  0  0
 10 11  1  0  0  0  0
 10 30  1  0  0  0  0
 11 16  1  0  0  0  0
 11 12  1  0  0  0  0
 11 31  1  0  0  0  0
 12 13  1  0  0  0  0
 12 32  1  0  0  0  0
 12 33  1  0  0  0  0
 13 14  1  0  0  0  0
 13 34  1  0  0  0  0
 13 35  1  0  0  0  0
 14 15  1  0  0  0  0
 14 36  1  0  0  0  0
 14 37  1  0  0  0  0
 15 16  1  0  0  0  0
 15 38  1  0  0  0  0
 15 39  1  0  0  0  0
 16 17  1  0  0  0  0
 16 40  1  0  0  0  0
 17 41  1  0  0  0  0
 17 42  1  0  0  0  0
 17 43  1  0  0  0  0
 18 19  2  0  0  0  0
 18 20  1  0  0  0  0
M  END
> <s_m_source_file>
AV-unprocessed.smi

> <i_m_source_file_index>
1295

> <i_lp_mmshare_version>
43012

> <i_f3d_flags>
0

> <s_epik_input>
W0NIM11jMW5jKFtDSDNdKWMoYyg9TylbbkhdMSlbQ0gyXUMoPU8pW05IXVtDQEBIXTJbQ0gyXVtDSDJdW0NIMl1bQ0gyXVtDQEhdMltDSDNd

> <s_epik_cmdline>
J2VwaWtfcHl0aG9uJywgJy1waCcsICc3LjAnLCAnLXRuJywgJzgnLCAnLW1hJywgJzIwMCcsICctbWV0YWxfYmluZGluZycsICctaW1hZScsICc8aW5maWxlLm1hZT4nLCAnLW9tYWUnLCAnPG91dGZpbGUubWFlPic=

> <r_lp_tautomer_probability>
0.156392

> <r_epik_Ionization_Penalty>
0.0136057

> <r_epik_Ionization_Penalty_Charging>
0.0134742

> <r_epik_Ionization_Penalty_Neutral>
0.000131572

> <r_epik_State_Penalty>
1.15342

> <r_epik_Charging_Adjusted_Penalty>
1.16689

> <i_epik_Tot_Q>
0

> <i_epik_Tot_abs_Q>
0

> <r_epik_Metal_State_Penalty>
1.31351

> <b_epik_Metal_Only>
0

> <s_lp_Force_Field>
OPLS_2005

> <r_lp_Energy>
13.3466

> <b_lp_Chiralities_Consistent>
1

> <s_lp_Variant>
AV-unprocessed.smi:1295-7

> <Gold.Version>
5.8.1

> <Gold.Id.Protein>
6NUR|6NUR_protein|mol2

> <Gold.PLP.Fitness>
34.3278

> <Gold.PLP.PLP>
-29.1254

> <Gold.PLP.part.hbond>
-2.8101

> <Gold.PLP.part.metal>
0.0000

> <Gold.PLP.part.buried>
-4.2726

> <Gold.PLP.part.nonpolar>
-22.7155

> <Gold.PLP.part.repulsive>
0.0710

> <Gold.PLP.ligand.clash>
0.0000

> <Gold.PLP.ligand.torsion>
0.0941

> <Gold.PLP.Chemscore.Hbond>
1.7928

> <Gold.PLP.Chemscore.CHOScore>
0.0000

> <Gold.PLP.Chemscore.Metal>
0.0000

> <Gold.Chemscore.Hbonds>
donor molecule, donor type, donor heavy atom, donor atom, acceptor molecule, acceptor atom, score
      P1  H  6896  6908       L1    19  1.00
      P1  H  6931  6943       L1     9  0.77

> <Gold.PLP.Chemscore.Internal.Correction>
0.0122

> <Gold.Rescore>
     Score         DG    S(hbond)    S(metal)    S(lipo)     H(rot)  DE(clash)    DE(int)     intcor
     16.33     -16.48       2.72        0.00      48.87       1.48       0.01       0.14       ----

> <Gold.Chemscore.Fitness>
16.3314

> <Gold.Chemscore.DG>
-16.4833

> <Gold.Chemscore.ZeroCoef>
-5.4800

> <Gold.Chemscore.Hbond>
2.7168

> <Gold.Chemscore.Metal>
0.0000

> <Gold.Chemscore.Lipo>
48.8740

> <Gold.Chemscore.Internal_Hbond>
0.0000

> <Gold.Chemscore.DEClash>
0.0126

> <Gold.Chemscore.DEInternal>
0.1393

> <Gold.Chemscore.Rot>
1.4801

> <Gold.Chemscore.Internal.Correction>
   9.000000E+99

> <Gold.Chemscore.Hbonds>
donor molecule, donor type, donor heavy atom, donor atom, acceptor molecule, acceptor atom, score
      P1  H  6896  6908       L1    19  0.94
      P1  H  6931  6943       L1     9  0.75

> <Gold.Chemscore.Hbond.Weighted>
-9.0742

> <Gold.Chemscore.Metal.Weighted>
-0.0000

> <Gold.Chemscore.Lipo.Weighted>
-5.7183

> <Gold.Chemscore.Internal_Hbond.Weighted>
0.0000

> <Gold.Chemscore.DEClash.Weighted>
0.0126

> <Gold.Chemscore.DEInternal.Weighted>
0.1393

> <Gold.Chemscore.Rot.Weighted>
3.7891

> <Gold.Chemscore.Internal.Correction.Weighted>
   9.000000E+99

> <Gold.Protein.RotatedTorsions>
[ 6907 6896 6895 6894 ] final -161.88 input  -60.11 | X-H torsion
[ 7974 7965 7964 7962 ] final -179.13 input  175.53 | X-H torsion
[ 8008 7997 7996 7995 ] final   70.20 input   59.86 | X-H torsion
[ 10167 10162 10161 10158 ] final  161.64 input  -65.29 | X-H torsion
[ 10718 10713 10712 10709 ] final  112.79 input   66.30 | X-H torsion
[ 10763 10752 10751 10750 ] final  146.41 input  -60.55 | X-H torsion
[ 11005 11000 10999 10996 ] final    6.22 input  -57.11 | X-H torsion

> <Gold.Protein.ActiveResidues>
 VAL166  LYS551  ARG553  GLY616  TRP617  ASP618  TYR619  PRO620  LYS621  CYS622 
 ASP623  PHE694  ASN695  SER759  ASP760  ASP761  ALA762  ILE779  LEU786  VAL792 
 PHE793  MET794  SER795  GLU796  ALA797  LYS798  CYS799  TRP800  GLU811  SER814 

> <Gold.Protein.RotatedAtoms>
  151.3716  133.3853  159.2700 H   0  0  0  0  0  0  0  0  0  0  0  0  # atno 6907 bound_to 6896
  150.9646  134.9030  159.7762 H   0  0  0  0  0  0  0  0  0  0  0  0  # atno 6908 bound_to 6896
  152.5162  134.3676  159.9359 H   0  0  0  0  0  0  0  0  0  0  0  0  # atno 6909 bound_to 6896
  144.7135  140.0763  143.6427 H   0  0  0  0  0  0  0  0  0  0  0  0  # atno 7974 bound_to 7965
  155.7352  140.3491  155.5078 H   0  0  0  0  0  0  0  0  0  0  0  0  # atno 8008 bound_to 7997
  155.9146  140.1056  157.1275 H   0  0  0  0  0  0  0  0  0  0  0  0  # atno 8009 bound_to 7997
  154.4060  140.1261  156.4587 H   0  0  0  0  0  0  0  0  0  0  0  0  # atno 8010 bound_to 7997
  139.4851  144.4516  151.8822 H   0  0  0  0  0  0  0  0  0  0  0  0  # atno 10167 bound_to 10162
  157.6374  131.0973  150.6946 H   0  0  0  0  0  0  0  0  0  0  0  0  # atno 10718 bound_to 10713
  154.0214  135.2905  155.3380 H   0  0  0  0  0  0  0  0  0  0  0  0  # atno 10763 bound_to 10752
  154.7044  135.5175  153.8576 H   0  0  0  0  0  0  0  0  0  0  0  0  # atno 10764 bound_to 10752
  153.0679  135.6637  154.0435 H   0  0  0  0  0  0  0  0  0  0  0  0  # atno 10765 bound_to 10752
  140.5619  134.0184  155.7975 H   0  0  0  0  0  0  0  0  0  0  0  0  # atno 11005 bound_to 11000
  145.9740  139.2891  143.1082 LP  0  0  0  0  0  0  0  0  0  0  0  0  # atno 17320 bound_to 7965
  145.9085  140.9196  143.0466 LP  0  0  0  0  0  0  0  0  0  0  0  0  # atno 17321 bound_to 7965
  140.3974  144.2538  150.5895 LP  0  0  0  0  0  0  0  0  0  0  0  0  # atno 17342 bound_to 10162
  140.5090  143.2296  151.8565 LP  0  0  0  0  0  0  0  0  0  0  0  0  # atno 17343 bound_to 10162
  156.7275  130.4699  149.5507 LP  0  0  0  0  0  0  0  0  0  0  0  0  # atno 17370 bound_to 10713
  156.1624  130.6383  151.0735 LP  0  0  0  0  0  0  0  0  0  0  0  0  # atno 17371 bound_to 10713
  141.1109  133.9618  157.2911 LP  0  0  0  0  0  0  0  0  0  0  0  0  # atno 17394 bound_to 11000
  139.9404  135.0192  156.8689 LP  0  0  0  0  0  0  0  0  0  0  0  0  # atno 17395 bound_to 11000

$$$$
