AV-unprocessed.smi:60|AV-procd|sdf|594|dock5
  -GOLD-   2262016493D 1   1.00000     0.00000
 Structure written by MMmdl.
 35 36  0  0  0  0  0  0  0  0  2 V2000
  153.5357  137.6677  161.3316 O   0  0  0  0  0  0  0  0  0  0  0  0
  152.8007  138.0066  160.4045 C   0  0  0  0  0  0  0  0  0  0  0  0
  151.8948  137.1503  159.8475 N   0  5  0  0  0  0  0  0  0  0  0  0
  151.0509  137.4975  158.8284 C   0  0  0  0  0  0  0  0  0  0  0  0
  150.2485  136.7013  158.3390 O   0  0  0  0  0  0  0  0  0  0  0  0
  151.1046  138.7735  158.3451 N   0  0  0  0  0  0  0  0  0  0  0  0
  150.2480  139.1915  157.2419 C   0  0  0  0  0  0  0  0  0  0  0  0
  150.9963  139.6437  156.1527 O   0  0  0  0  0  0  0  0  0  0  0  0
  150.4589  140.7687  155.4678 C   0  0  0  0  0  0  0  0  0  0  0  0
  149.3992  140.2847  154.4710 C   0  0  0  0  0  0  0  0  0  0  0  0
  149.0661  141.3198  153.5704 O   0  0  0  0  0  0  0  0  0  0  0  0
  152.0348  139.6887  158.8645 C   0  0  0  0  0  0  0  0  0  0  0  0
  152.8800  139.3697  159.8664 C   0  0  0  0  0  0  0  0  0  0  0  0
  153.8936  140.3659  160.4121 C   0  0  0  0  0  0  0  0  0  0  0  0
  153.3101  141.7485  160.6397 C   0  0  0  0  0  0  0  0  0  0  0  0
  153.1318  142.2394  161.9506 C   0  0  0  0  0  0  0  0  0  0  0  0
  152.5917  143.5237  162.1579 C   0  0  0  0  0  0  0  0  0  0  0  0
  152.2295  144.3225  161.0559 C   0  0  0  0  0  0  0  0  0  0  0  0
  152.4074  143.8362  159.7461 C   0  0  0  0  0  0  0  0  0  0  0  0
  152.9454  142.5513  159.5384 C   0  0  0  0  0  0  0  0  0  0  0  0
  149.6448  138.3377  156.9284 H   0  0  0  0  0  0  0  0  0  0  0  0
  149.5619  139.9717  157.5753 H   0  0  0  0  0  0  0  0  0  0  0  0
  150.0415  141.5001  156.1619 H   0  0  0  0  0  0  0  0  0  0  0  0
  151.2560  141.2656  154.9137 H   0  0  0  0  0  0  0  0  0  0  0  0
  149.7956  139.4547  153.8858 H   0  0  0  0  0  0  0  0  0  0  0  0
  148.5084  139.9219  154.9845 H   0  0  0  0  0  0  0  0  0  0  0  0
  148.1853  141.6071  153.7558 H   0  0  0  0  0  0  0  0  0  0  0  0
  152.0261  140.6628  158.3980 H   0  0  0  0  0  0  0  0  0  0  0  0
  154.3431  140.0069  161.3386 H   0  0  0  0  0  0  0  0  0  0  0  0
  154.7169  140.4389  159.7003 H   0  0  0  0  0  0  0  0  0  0  0  0
  153.4095  141.6338  162.8009 H   0  0  0  0  0  0  0  0  0  0  0  0
  152.4558  143.8961  163.1625 H   0  0  0  0  0  0  0  0  0  0  0  0
  151.8157  145.3074  161.2152 H   0  0  0  0  0  0  0  0  0  0  0  0
  152.1314  144.4482  158.9002 H   0  0  0  0  0  0  0  0  0  0  0  0
  153.0805  142.1833  158.5315 H   0  0  0  0  0  0  0  0  0  0  0  0
  1  2  2  0  0  0  0
  2 13  1  0  0  0  0
  2  3  1  0  0  0  0
  3  4  1  0  0  0  0
  4  5  2  0  0  0  0
  4  6  1  0  0  0  0
  6  7  1  0  0  0  0
  6 12  1  0  0  0  0
  7  8  1  0  0  0  0
  7 21  1  0  0  0  0
  7 22  1  0  0  0  0
  8  9  1  0  0  0  0
  9 10  1  0  0  0  0
  9 23  1  0  0  0  0
  9 24  1  0  0  0  0
 10 11  1  0  0  0  0
 10 25  1  0  0  0  0
 10 26  1  0  0  0  0
 11 27  1  0  0  0  0
 12 13  2  0  0  0  0
 12 28  1  0  0  0  0
 13 14  1  0  0  0  0
 14 15  1  0  0  0  0
 14 29  1  0  0  0  0
 14 30  1  0  0  0  0
 15 20  1  0  0  0  0
 15 16  2  0  0  0  0
 16 17  1  0  0  0  0
 16 31  1  0  0  0  0
 17 18  2  0  0  0  0
 17 32  1  0  0  0  0
 18 19  1  0  0  0  0
 18 33  1  0  0  0  0
 19 20  2  0  0  0  0
 19 34  1  0  0  0  0
 20 35  1  0  0  0  0
M  CHG  1   3  -1
M  END
> <s_m_source_file>
AV-unprocessed.smi

> <i_m_source_file_index>
60

> <i_lp_mmshare_version>
43012

> <i_f3d_flags>
0

> <s_epik_input>
W09IXVtDSDJdW0NIMl1PW0NIMl1uKGMoPU8pW25IXWMxPU8pW2NIXWMxW0NIMl1jMltjSF1bY0hdW2NIXVtjSF1bY0hdMg==

> <s_epik_cmdline>
J2VwaWtfcHl0aG9uJywgJy1waCcsICc3LjAnLCAnLXRuJywgJzgnLCAnLW1hJywgJzIwMCcsICctbWV0YWxfYmluZGluZycsICctaW1hZScsICc8aW5maWxlLm1hZT4nLCAnLW9tYWUnLCAnPG91dGZpbGUubWFlPic=

> <r_lp_tautomer_probability>
0.999537

> <r_epik_Ionization_Penalty>
3.13547

> <r_epik_Ionization_Penalty_Charging>
5.3765e-08

> <r_epik_Ionization_Penalty_Neutral>
3.13547

> <r_epik_State_Penalty>
3.13458

> <r_epik_Charging_Adjusted_Penalty>
3.13458

> <i_epik_Tot_Q>
-1

> <i_epik_Tot_abs_Q>
1

> <r_epik_Metal_State_Penalty>
0.106912

> <b_epik_Metal_Only>
1

> <s_epik_Chemistry_Notes>
This compound contains an acetal/aminal-like group ( X-CH(R)-Y where X, Y are N, S, or O) that may be acid/base labile, releasing an aldehyde.

> <s_lp_Force_Field>
OPLS_2005

> <r_lp_Energy>
15.9602

> <b_lp_Chiralities_Consistent>
1

> <s_lp_Variant>
AV-unprocessed.smi:60-2

> <Gold.Version>
5.8.1

> <Gold.Id.Protein>
6NUR|6NUR_protein|mol2

> <Gold.PLP.Fitness>
54.3421

> <Gold.PLP.PLP>
-46.6866

> <Gold.PLP.part.hbond>
-4.9244

> <Gold.PLP.part.metal>
0.0000

> <Gold.PLP.part.buried>
-4.6816

> <Gold.PLP.part.nonpolar>
-36.8381

> <Gold.PLP.part.repulsive>
0.0000

> <Gold.PLP.ligand.clash>
0.0000

> <Gold.PLP.ligand.torsion>
0.7307

> <Gold.PLP.Chemscore.Hbond>
3.0000

> <Gold.PLP.Chemscore.CHOScore>
0.0000

> <Gold.PLP.Chemscore.Metal>
0.0000

> <Gold.Chemscore.Hbonds>
donor molecule, donor type, donor heavy atom, donor atom, acceptor molecule, acceptor atom, score
      P1  H  6896  6909       L1     3  2.00
      P1  H  8011  8017       L1    11  0.91

> <Gold.PLP.Chemscore.Internal.Correction>
0.1169

> <Gold.Rescore>
     Score         DG    S(hbond)    S(metal)    S(lipo)     H(rot)  DE(clash)    DE(int)     intcor
     13.77     -14.75       1.62        0.00     103.40       3.22       0.31       0.67       ----

> <Gold.Chemscore.Fitness>
13.7657

> <Gold.Chemscore.DG>
-14.7468

> <Gold.Chemscore.ZeroCoef>
-5.4800

> <Gold.Chemscore.Hbond>
1.6166

> <Gold.Chemscore.Metal>
0.0000

> <Gold.Chemscore.Lipo>
103.4004

> <Gold.Chemscore.Internal_Hbond>
0.0000

> <Gold.Chemscore.DEClash>
0.3095

> <Gold.Chemscore.DEInternal>
0.6716

> <Gold.Chemscore.Rot>
3.2151

> <Gold.Chemscore.Internal.Correction>
   9.000000E+99

> <Gold.Chemscore.Hbonds>
donor molecule, donor type, donor heavy atom, donor atom, acceptor molecule, acceptor atom, score
      P1  H  6896  6909       L1     3  0.61
      P1  H  8011  8017       L1    11  0.62

> <Gold.Chemscore.Hbond.Weighted>
-5.3995

> <Gold.Chemscore.Metal.Weighted>
-0.0000

> <Gold.Chemscore.Lipo.Weighted>
-12.0979

> <Gold.Chemscore.Internal_Hbond.Weighted>
0.0000

> <Gold.Chemscore.DEClash.Weighted>
0.3095

> <Gold.Chemscore.DEInternal.Weighted>
0.6716

> <Gold.Chemscore.Rot.Weighted>
8.2306

> <Gold.Chemscore.Internal.Correction.Weighted>
   9.000000E+99

> <Gold.Protein.RotatedTorsions>
[ 6907 6896 6895 6894 ] final  135.77 input  -60.11 | X-H torsion
[ 7974 7965 7964 7962 ] final  148.61 input  175.53 | X-H torsion
[ 8008 7997 7996 7995 ] final -151.59 input   59.86 | X-H torsion
[ 10167 10162 10161 10158 ] final -139.37 input  -65.29 | X-H torsion
[ 10718 10713 10712 10709 ] final  -28.31 input   66.30 | X-H torsion
[ 10763 10752 10751 10750 ] final -144.24 input  -60.55 | X-H torsion
[ 11005 11000 10999 10996 ] final   92.47 input  -57.11 | X-H torsion

> <Gold.Protein.ActiveResidues>
 VAL166  LYS551  ARG553  GLY616  TRP617  ASP618  TYR619  PRO620  LYS621  CYS622 
 ASP623  PHE694  ASN695  SER759  ASP760  ASP761  ALA762  ILE779  LEU786  VAL792 
 PHE793  MET794  SER795  GLU796  ALA797  LYS798  CYS799  TRP800  GLU811  SER814 

> <Gold.Protein.RotatedAtoms>
  152.2968  133.5615  159.5592 H   0  0  0  0  0  0  0  0  0  0  0  0  # atno 6907 bound_to 6896
  150.7259  134.0350  159.3755 H   0  0  0  0  0  0  0  0  0  0  0  0  # atno 6908 bound_to 6896
  151.8252  135.0639  160.0481 H   0  0  0  0  0  0  0  0  0  0  0  0  # atno 6909 bound_to 6896
  144.8500  139.6176  143.5978 H   0  0  0  0  0  0  0  0  0  0  0  0  # atno 7974 bound_to 7965
  155.6419  140.0702  157.2616 H   0  0  0  0  0  0  0  0  0  0  0  0  # atno 8008 bound_to 7997
  154.4182  140.1749  156.1631 H   0  0  0  0  0  0  0  0  0  0  0  0  # atno 8009 bound_to 7997
  155.9849  140.3350  155.6701 H   0  0  0  0  0  0  0  0  0  0  0  0  # atno 8010 bound_to 7997
  139.8386  143.7352  152.2664 H   0  0  0  0  0  0  0  0  0  0  0  0  # atno 10167 bound_to 10162
  156.4269  130.4437  149.7145 H   0  0  0  0  0  0  0  0  0  0  0  0  # atno 10718 bound_to 10713
  154.8436  135.3446  154.6314 H   0  0  0  0  0  0  0  0  0  0  0  0  # atno 10763 bound_to 10752
  153.6924  135.6974  153.5091 H   0  0  0  0  0  0  0  0  0  0  0  0  # atno 10764 bound_to 10752
  153.2585  135.4330  155.0825 H   0  0  0  0  0  0  0  0  0  0  0  0  # atno 10765 bound_to 10752
  139.8823  134.8735  156.3577 H   0  0  0  0  0  0  0  0  0  0  0  0  # atno 11005 bound_to 11000
  146.2777  139.6795  142.9251 LP  0  0  0  0  0  0  0  0  0  0  0  0  # atno 17320 bound_to 7965
  145.4518  141.0428  143.2800 LP  0  0  0  0  0  0  0  0  0  0  0  0  # atno 17321 bound_to 7965
  139.7582  144.7514  151.0404 LP  0  0  0  0  0  0  0  0  0  0  0  0  # atno 17342 bound_to 10162
  140.7800  143.4781  151.0055 LP  0  0  0  0  0  0  0  0  0  0  0  0  # atno 17343 bound_to 10162
  156.4063  130.7700  151.2710 LP  0  0  0  0  0  0  0  0  0  0  0  0  # atno 17370 bound_to 10713
  157.7508  131.0225  150.3793 LP  0  0  0  0  0  0  0  0  0  0  0  0  # atno 17371 bound_to 10713
  140.9551  133.7425  156.0324 LP  0  0  0  0  0  0  0  0  0  0  0  0  # atno 17394 bound_to 11000
  140.8059  134.3455  157.5426 LP  0  0  0  0  0  0  0  0  0  0  0  0  # atno 17395 bound_to 11000

$$$$
