AV-unprocessed.smi:2988|AV-procd|sdf|11388|dock5
  -GOLD-   2272016313D 1   1.00000     0.00000
 Structure written by MMmdl.
 37 38  0  0  0  0  0  0  0  0  1 V2000
  151.3252  141.5181  157.6251 C   0  0  0  0  0  0  0  0  0  0  0  0
  150.3327  141.1065  156.5237 C   0  0  1  0  0  0  0  0  0  0  0  0
  151.0250  140.2696  155.4261 C   0  0  0  0  0  0  0  0  0  0  0  0
  150.0491  139.8944  154.2991 C   0  0  0  0  0  0  0  0  0  0  0  0
  148.8113  139.1679  154.8463 C   0  0  0  0  0  0  0  0  0  0  0  0
  148.1175  139.9974  155.9413 C   0  0  0  0  0  0  0  0  0  0  0  0
  149.0864  140.3761  157.0826 C   0  0  1  0  0  0  0  0  0  0  0  0
  149.4860  139.1876  157.8302 N   0  0  0  0  0  0  0  0  0  0  0  0
  148.6793  138.3409  158.4902 C   0  0  0  0  0  0  0  0  0  0  0  0
  147.4629  138.5038  158.5758 O   0  0  0  0  0  0  0  0  0  0  0  0
  149.3269  137.1102  159.1506 C   0  0  0  0  0  0  0  0  0  0  0  0
  148.4103  136.3128  159.9848 N   0  0  0  0  0  0  0  0  0  0  0  0
  147.7925  137.0350  160.9909 N   0  0  0  0  0  0  0  0  0  0  0  0
  147.0163  136.4292  161.8220 C   0  0  0  0  0  0  0  0  0  0  0  0
  146.7607  135.0080  161.7414 C   0  0  0  0  0  0  0  0  0  0  0  0
  145.7173  134.2484  162.8908 Cl  0  0  0  0  0  0  0  0  0  0  0  0
  147.3613  134.3113  160.7441 C   0  0  0  0  0  0  0  0  0  0  0  0
  147.1094  132.6068  160.5865 Cl  0  0  0  0  0  0  0  0  0  0  0  0
  148.2484  134.9694  159.7754 C   0  0  0  0  0  0  0  0  0  0  0  0
  148.8190  134.3711  158.8627 O   0  0  0  0  0  0  0  0  0  0  0  0
  151.7671  140.6511  158.1173 H   0  0  0  0  0  0  0  0  0  0  0  0
  150.8343  142.1215  158.3891 H   0  0  0  0  0  0  0  0  0  0  0  0
  152.1412  142.1118  157.2122 H   0  0  0  0  0  0  0  0  0  0  0  0
  149.9825  142.0279  156.0560 H   0  0  0  0  0  0  0  0  0  0  0  0
  151.8639  140.8264  155.0075 H   0  0  0  0  0  0  0  0  0  0  0  0
  151.4480  139.3615  155.8583 H   0  0  0  0  0  0  0  0  0  0  0  0
  149.7378  140.7970  153.7715 H   0  0  0  0  0  0  0  0  0  0  0  0
  150.5538  139.2661  153.5647 H   0  0  0  0  0  0  0  0  0  0  0  0
  148.1113  138.9659  154.0350 H   0  0  0  0  0  0  0  0  0  0  0  0
  149.1036  138.1961  155.2462 H   0  0  0  0  0  0  0  0  0  0  0  0
  147.7146  140.9083  155.4973 H   0  0  0  0  0  0  0  0  0  0  0  0
  147.2598  139.4503  156.3342 H   0  0  0  0  0  0  0  0  0  0  0  0
  148.5704  141.0539  157.7653 H   0  0  0  0  0  0  0  0  0  0  0  0
  150.4719  138.9704  157.8213 H   0  0  0  0  0  0  0  0  0  0  0  0
  149.7471  136.4875  158.3587 H   0  0  0  0  0  0  0  0  0  0  0  0
  150.1827  137.4395  159.7424 H   0  0  0  0  0  0  0  0  0  0  0  0
  146.5119  136.9556  162.6326 H   0  0  0  0  0  0  0  0  0  0  0  0
  1  2  1  0  0  0  0
  1 21  1  0  0  0  0
  1 22  1  0  0  0  0
  1 23  1  0  0  0  0
  2  7  1  0  0  0  0
  2  3  1  0  0  0  0
  2 24  1  0  0  0  0
  3  4  1  0  0  0  0
  3 25  1  0  0  0  0
  3 26  1  0  0  0  0
  4  5  1  0  0  0  0
  4 27  1  0  0  0  0
  4 28  1  0  0  0  0
  5  6  1  0  0  0  0
  5 29  1  0  0  0  0
  5 30  1  0  0  0  0
  6  7  1  0  0  0  0
  6 31  1  0  0  0  0
  6 32  1  0  0  0  0
  7  8  1  0  0  0  0
  7 33  1  0  0  0  0
  8  9  1  0  0  0  0
  8 34  1  0  0  0  0
  9 10  2  0  0  0  0
  9 11  1  0  0  0  0
 11 12  1  0  0  0  0
 11 35  1  0  0  0  0
 11 36  1  0  0  0  0
 12 19  1  0  0  0  0
 12 13  1  0  0  0  0
 13 14  2  0  0  0  0
 14 15  1  0  0  0  0
 14 37  1  0  0  0  0
 15 16  1  0  0  0  0
 15 17  2  0  0  0  0
 17 18  1  0  0  0  0
 17 19  1  0  0  0  0
 19 20  2  0  0  0  0
M  END
> <s_m_source_file>
AV-unprocessed.smi

> <i_m_source_file_index>
2988

> <i_lp_mmshare_version>
43012

> <i_f3d_flags>
0

> <s_epik_input>
W0NIM11bQ0BASF0xW0NIMl1bQ0gyXVtDSDJdW0NIMl1bQ0BIXTFbTkhdQyg9TylbQ0gyXW4ybltjSF1jKENsKWMoQ2wpYzI9Tw==

> <s_epik_cmdline>
J2VwaWtfcHl0aG9uJywgJy1waCcsICc3LjAnLCAnLXRuJywgJzgnLCAnLW1hJywgJzIwMCcsICctbWV0YWxfYmluZGluZycsICctaW1hZScsICc8aW5maWxlLm1hZT4nLCAnLW9tYWUnLCAnPG91dGZpbGUubWFlPic=

> <r_lp_tautomer_probability>
1

> <r_epik_Ionization_Penalty>
1.90782e-08

> <r_epik_Ionization_Penalty_Charging>
3.13143e-11

> <r_epik_Ionization_Penalty_Neutral>
1.90469e-08

> <r_epik_State_Penalty>
-0

> <r_epik_Charging_Adjusted_Penalty>
3.13143e-11

> <i_epik_Tot_Q>
0

> <i_epik_Tot_abs_Q>
0

> <r_epik_Metal_State_Penalty>
-0

> <b_epik_Metal_Only>
0

> <s_lp_Force_Field>
OPLS_2005

> <r_lp_Energy>
22.2561

> <b_lp_Chiralities_Consistent>
1

> <s_lp_Variant>
AV-unprocessed.smi:2988-2

> <Gold.Version>
5.8.1

> <Gold.Id.Protein>
6NUR|6NUR_protein|mol2

> <Gold.PLP.Fitness>
37.9472

> <Gold.PLP.PLP>
-29.6176

> <Gold.PLP.part.hbond>
-4.0000

> <Gold.PLP.part.metal>
0.0000

> <Gold.PLP.part.buried>
1.1339

> <Gold.PLP.part.nonpolar>
-27.0646

> <Gold.PLP.part.repulsive>
0.1390

> <Gold.PLP.ligand.clash>
0.0000

> <Gold.PLP.ligand.torsion>
0.0752

> <Gold.PLP.Chemscore.Hbond>
2.8240

> <Gold.PLP.Chemscore.CHOScore>
0.0000

> <Gold.PLP.Chemscore.Metal>
0.0000

> <Gold.Chemscore.Hbonds>
donor molecule, donor type, donor heavy atom, donor atom, acceptor molecule, acceptor atom, score
      P1  H  6896  6909       L1    20  1.00
      P1  H  6931  6943       L1    13  0.98
      P1  H  6934  6947       L1    13  0.77

> <Gold.PLP.Chemscore.Internal.Correction>
0.0080

> <Gold.Rescore>
     Score         DG    S(hbond)    S(metal)    S(lipo)     H(rot)  DE(clash)    DE(int)     intcor
     14.15     -16.91       1.99        0.00      73.76       1.50       0.12       2.64       ----

> <Gold.Chemscore.Fitness>
14.1501

> <Gold.Chemscore.DG>
-16.9068

> <Gold.Chemscore.ZeroCoef>
-5.4800

> <Gold.Chemscore.Hbond>
1.9855

> <Gold.Chemscore.Metal>
0.0000

> <Gold.Chemscore.Lipo>
73.7559

> <Gold.Chemscore.Internal_Hbond>
0.0000

> <Gold.Chemscore.DEClash>
0.1163

> <Gold.Chemscore.DEInternal>
2.6403

> <Gold.Chemscore.Rot>
1.4977

> <Gold.Chemscore.Internal.Correction>
   9.000000E+99

> <Gold.Chemscore.Hbonds>
donor molecule, donor type, donor heavy atom, donor atom, acceptor molecule, acceptor atom, score
      P1  H  6896  6909       L1    20  0.69
      P1  H  6931  6943       L1    13  0.62
      P1  H  6934  6947       L1    13  0.44

> <Gold.Chemscore.Hbond.Weighted>
-6.6314

> <Gold.Chemscore.Metal.Weighted>
-0.0000

> <Gold.Chemscore.Lipo.Weighted>
-8.6294

> <Gold.Chemscore.Internal_Hbond.Weighted>
0.0000

> <Gold.Chemscore.DEClash.Weighted>
0.1163

> <Gold.Chemscore.DEInternal.Weighted>
2.6403

> <Gold.Chemscore.Rot.Weighted>
3.8341

> <Gold.Chemscore.Internal.Correction.Weighted>
   9.000000E+99

> <Gold.Protein.RotatedTorsions>
[ 6907 6896 6895 6894 ] final   16.90 input  -60.11 | X-H torsion
[ 7974 7965 7964 7962 ] final -126.78 input  175.53 | X-H torsion
[ 8008 7997 7996 7995 ] final  -84.34 input   59.86 | X-H torsion
[ 10167 10162 10161 10158 ] final   25.14 input  -65.29 | X-H torsion
[ 10718 10713 10712 10709 ] final  108.82 input   66.30 | X-H torsion
[ 10763 10752 10751 10750 ] final -119.09 input  -60.55 | X-H torsion
[ 11005 11000 10999 10996 ] final   57.53 input  -57.11 | X-H torsion

> <Gold.Protein.ActiveResidues>
 VAL166  LYS551  ARG553  GLY616  TRP617  ASP618  TYR619  PRO620  LYS621  CYS622 
 ASP623  PHE694  ASN695  SER759  ASP760  ASP761  ALA762  ILE779  LEU786  VAL792 
 PHE793  MET794  SER795  GLU796  ALA797  LYS798  CYS799  TRP800  GLU811  SER814 

> <Gold.Protein.RotatedAtoms>
  151.8412  135.0589  160.0447 H   0  0  0  0  0  0  0  0  0  0  0  0  # atno 6907 bound_to 6896
  152.2808  133.5464  159.5505 H   0  0  0  0  0  0  0  0  0  0  0  0  # atno 6908 bound_to 6896
  150.7188  134.0483  159.3832 H   0  0  0  0  0  0  0  0  0  0  0  0  # atno 6909 bound_to 6896
  144.9837  140.7665  143.4596 H   0  0  0  0  0  0  0  0  0  0  0  0  # atno 7974 bound_to 7965
  154.6288  140.0606  156.9706 H   0  0  0  0  0  0  0  0  0  0  0  0  # atno 8008 bound_to 7997
  155.1699  140.3290  155.4376 H   0  0  0  0  0  0  0  0  0  0  0  0  # atno 8009 bound_to 7997
  156.2471  140.1916  156.6802 H   0  0  0  0  0  0  0  0  0  0  0  0  # atno 8010 bound_to 7997
  140.5131  144.0127  150.6381 H   0  0  0  0  0  0  0  0  0  0  0  0  # atno 10167 bound_to 10162
  157.6569  131.0901  150.6362 H   0  0  0  0  0  0  0  0  0  0  0  0  # atno 10718 bound_to 10713
  154.8607  135.4251  154.2243 H   0  0  0  0  0  0  0  0  0  0  0  0  # atno 10763 bound_to 10752
  153.3241  135.6984  153.7010 H   0  0  0  0  0  0  0  0  0  0  0  0  # atno 10764 bound_to 10752
  153.6053  135.3529  155.2933 H   0  0  0  0  0  0  0  0  0  0  0  0  # atno 10765 bound_to 10752
  140.0446  134.5825  155.9339 H   0  0  0  0  0  0  0  0  0  0  0  0  # atno 11005 bound_to 11000
  145.2384  139.2083  143.5006 LP  0  0  0  0  0  0  0  0  0  0  0  0  # atno 17320 bound_to 7965
  146.3414  140.2274  142.8592 LP  0  0  0  0  0  0  0  0  0  0  0  0  # atno 17321 bound_to 7965
  140.3456  143.2994  152.0542 LP  0  0  0  0  0  0  0  0  0  0  0  0  # atno 17342 bound_to 10162
  139.4901  144.6411  151.6874 LP  0  0  0  0  0  0  0  0  0  0  0  0  # atno 17343 bound_to 10162
  156.6668  130.4528  149.5670 LP  0  0  0  0  0  0  0  0  0  0  0  0  # atno 17370 bound_to 10713
  156.2026  130.6629  151.1184 LP  0  0  0  0  0  0  0  0  0  0  0  0  # atno 17371 bound_to 10713
  141.1900  133.6567  156.5393 LP  0  0  0  0  0  0  0  0  0  0  0  0  # atno 17394 bound_to 11000
  140.4015  134.7353  157.4782 LP  0  0  0  0  0  0  0  0  0  0  0  0  # atno 17395 bound_to 11000

$$$$
