AV-unprocessed.smi:2325|AV-procd|sdf|9295|dock5
  -GOLD-   2272012513D 1   1.00000     0.00000
 Structure written by MMmdl.
 40 41  0  0  0  0  0  0  0  0  1 V2000
  145.9470  136.3913  150.3527 C   0  0  0  0  0  0  0  0  0  0  0  0
  145.4097  135.0909  150.7040 N   0  0  0  0  0  0  0  0  0  0  0  0
  144.0864  134.8294  150.5900 N   0  0  0  0  0  0  0  0  0  0  0  0
  144.0014  133.5624  150.9962 C   0  0  0  0  0  0  0  0  0  0  0  0
  145.1757  132.9728  151.3688 N   0  0  0  0  0  0  0  0  0  0  0  0
  146.0093  133.9870  151.1592 C   0  0  0  0  0  0  0  0  0  0  0  0
  147.4138  133.9746  151.3716 N   0  0  0  0  0  0  0  0  0  0  0  0
  148.2474  132.9231  151.3025 C   0  0  0  0  0  0  0  0  0  0  0  0
  147.9108  131.7649  151.0564 O   0  0  0  0  0  0  0  0  0  0  0  0
  149.5141  133.2940  151.5351 N   0  0  0  0  0  0  0  0  0  0  0  0
  150.6714  132.4020  151.5064 C   0  0  2  0  0  0  0  0  0  0  0  0
  151.8916  133.0558  152.1238 C   0  0  0  0  0  0  0  0  0  0  0  0
  153.0571  132.2907  151.4863 C   0  0  0  0  0  0  0  0  0  0  0  0
  154.2722  133.1935  151.2247 C   0  0  0  0  0  0  0  0  0  0  0  0
  153.4559  131.0557  152.3122 C   0  0  0  0  0  0  0  0  0  0  0  0
  152.5632  131.8223  150.2323 O   0  0  0  0  0  0  0  0  0  0  0  0
  151.1636  132.0573  150.0832 C   0  0  0  0  0  0  0  0  0  0  0  0
  150.5274  130.7681  149.5398 C   0  0  0  0  0  0  0  0  0  0  0  0
  151.0198  133.2075  149.0646 C   0  0  0  0  0  0  0  0  0  0  0  0
  146.4973  136.8019  151.1998 H   0  0  0  0  0  0  0  0  0  0  0  0
  145.1437  137.0799  150.0872 H   0  0  0  0  0  0  0  0  0  0  0  0
  146.6233  136.2901  149.5036 H   0  0  0  0  0  0  0  0  0  0  0  0
  143.0553  133.0423  151.0247 H   0  0  0  0  0  0  0  0  0  0  0  0
  147.8295  134.8675  151.5908 H   0  0  0  0  0  0  0  0  0  0  0  0
  149.6974  134.2672  151.7300 H   0  0  0  0  0  0  0  0  0  0  0  0
  150.4594  131.4872  152.0636 H   0  0  0  0  0  0  0  0  0  0  0  0
  151.9323  134.1095  151.8425 H   0  0  0  0  0  0  0  0  0  0  0  0
  151.8922  133.0093  153.2135 H   0  0  0  0  0  0  0  0  0  0  0  0
  154.6703  133.5986  152.1555 H   0  0  0  0  0  0  0  0  0  0  0  0
  154.0091  134.0333  150.5808 H   0  0  0  0  0  0  0  0  0  0  0  0
  155.0734  132.6421  150.7317 H   0  0  0  0  0  0  0  0  0  0  0  0
  153.8300  131.3423  153.2956 H   0  0  0  0  0  0  0  0  0  0  0  0
  154.2404  130.4860  151.8128 H   0  0  0  0  0  0  0  0  0  0  0  0
  152.6104  130.3838  152.4621 H   0  0  0  0  0  0  0  0  0  0  0  0
  149.4534  130.8856  149.3965 H   0  0  0  0  0  0  0  0  0  0  0  0
  150.6831  129.9318  150.2219 H   0  0  0  0  0  0  0  0  0  0  0  0
  150.9601  130.4910  148.5783 H   0  0  0  0  0  0  0  0  0  0  0  0
  149.9733  133.4274  148.8514 H   0  0  0  0  0  0  0  0  0  0  0  0
  151.4955  132.9503  148.1181 H   0  0  0  0  0  0  0  0  0  0  0  0
  151.4872  134.1245  149.4239 H   0  0  0  0  0  0  0  0  0  0  0  0
  1  2  1  0  0  0  0
  1 20  1  0  0  0  0
  1 21  1  0  0  0  0
  1 22  1  0  0  0  0
  2  6  1  0  0  0  0
  2  3  1  0  0  0  0
  3  4  2  0  0  0  0
  4  5  1  0  0  0  0
  4 23  1  0  0  0  0
  5  6  2  0  0  0  0
  6  7  1  0  0  0  0
  7  8  1  0  0  0  0
  7 24  1  0  0  0  0
  8  9  2  0  0  0  0
  8 10  1  0  0  0  0
 10 11  1  0  0  0  0
 10 25  1  0  0  0  0
 11 17  1  0  0  0  0
 11 12  1  0  0  0  0
 11 26  1  0  0  0  0
 12 13  1  0  0  0  0
 12 27  1  0  0  0  0
 12 28  1  0  0  0  0
 13 14  1  0  0  0  0
 13 15  1  0  0  0  0
 13 16  1  0  0  0  0
 14 29  1  0  0  0  0
 14 30  1  0  0  0  0
 14 31  1  0  0  0  0
 15 32  1  0  0  0  0
 15 33  1  0  0  0  0
 15 34  1  0  0  0  0
 16 17  1  0  0  0  0
 17 18  1  0  0  0  0
 17 19  1  0  0  0  0
 18 35  1  0  0  0  0
 18 36  1  0  0  0  0
 18 37  1  0  0  0  0
 19 38  1  0  0  0  0
 19 39  1  0  0  0  0
 19 40  1  0  0  0  0
M  END
> <s_m_source_file>
AV-unprocessed.smi

> <i_m_source_file_index>
2325

> <i_lp_mmshare_version>
43012

> <i_f3d_flags>
0

> <s_epik_input>
W0NIM11uMW5bY0hdbmMxW05IXUMoPU8pW05IXVtDQEBIXShDKE8yKShbQ0gzXSlbQ0gzXSlbQ0gyXUMyKFtDSDNdKVtDSDNd

> <s_epik_cmdline>
J2VwaWtfcHl0aG9uJywgJy1waCcsICc3LjAnLCAnLXRuJywgJzgnLCAnLW1hJywgJzIwMCcsICctbWV0YWxfYmluZGluZycsICctaW1hZScsICc8aW5maWxlLm1hZT4nLCAnLW9tYWUnLCAnPG91dGZpbGUubWFlPic=

> <r_lp_tautomer_probability>
1

> <r_epik_Ionization_Penalty>
1.97832e-05

> <r_epik_Ionization_Penalty_Charging>
0

> <r_epik_Ionization_Penalty_Neutral>
1.97832e-05

> <r_epik_State_Penalty>
-0

> <r_epik_Charging_Adjusted_Penalty>
0

> <i_epik_Tot_Q>
0

> <i_epik_Tot_abs_Q>
0

> <r_epik_Metal_State_Penalty>
-0

> <b_epik_Metal_Only>
0

> <s_lp_Force_Field>
OPLS_2005

> <r_lp_Energy>
17.1508

> <b_lp_Chiralities_Consistent>
1

> <s_lp_Variant>
AV-unprocessed.smi:2325-1

> <Gold.Version>
5.8.1

> <Gold.Id.Protein>
6NUR|6NUR_protein|mol2

> <Gold.PLP.Fitness>
33.0976

> <Gold.PLP.PLP>
-25.0037

> <Gold.PLP.part.hbond>
-2.0000

> <Gold.PLP.part.metal>
0.0000

> <Gold.PLP.part.buried>
-1.0529

> <Gold.PLP.part.nonpolar>
-22.6228

> <Gold.PLP.part.repulsive>
0.6851

> <Gold.PLP.ligand.clash>
0.0000

> <Gold.PLP.ligand.torsion>
0.3746

> <Gold.PLP.Chemscore.Hbond>
1.9440

> <Gold.PLP.Chemscore.CHOScore>
1.0000

> <Gold.PLP.Chemscore.Metal>
0.0000

> <Gold.Chemscore.Hbonds>
donor molecule, donor type, donor heavy atom, donor atom, acceptor molecule, acceptor atom, score
      L1  H     7    24       P1  7948  1.00
      P1  H 10744 10753       L1    16  0.06
      L1  C     4    23       P1 10186  0.10

> <Gold.PLP.Chemscore.Internal.Correction>
0.0111

> <Gold.Rescore>
     Score         DG    S(hbond)    S(metal)    S(lipo)     H(rot)  DE(clash)    DE(int)     intcor
     11.81     -14.60       1.97        0.00      43.61       1.00       1.39       1.39       ----

> <Gold.Chemscore.Fitness>
11.8145

> <Gold.Chemscore.DG>
-14.5983

> <Gold.Chemscore.ZeroCoef>
-5.4800

> <Gold.Chemscore.Hbond>
1.9687

> <Gold.Chemscore.Metal>
0.0000

> <Gold.Chemscore.Lipo>
43.6129

> <Gold.Chemscore.Internal_Hbond>
0.0000

> <Gold.Chemscore.DEClash>
1.3913

> <Gold.Chemscore.DEInternal>
1.3924

> <Gold.Chemscore.Rot>
1.0000

> <Gold.Chemscore.Internal.Correction>
   9.000000E+99

> <Gold.Chemscore.Hbonds>
donor molecule, donor type, donor heavy atom, donor atom, acceptor molecule, acceptor atom, score
      L1  H     7    24       P1  7948  0.26
      P1  H 10744 10753       L1    16  0.05

> <Gold.Chemscore.Hbond.Weighted>
-6.5755

> <Gold.Chemscore.Metal.Weighted>
-0.0000

> <Gold.Chemscore.Lipo.Weighted>
-5.1027

> <Gold.Chemscore.Internal_Hbond.Weighted>
0.0000

> <Gold.Chemscore.DEClash.Weighted>
1.3913

> <Gold.Chemscore.DEInternal.Weighted>
1.3924

> <Gold.Chemscore.Rot.Weighted>
2.5600

> <Gold.Chemscore.Internal.Correction.Weighted>
   9.000000E+99

> <Gold.Protein.RotatedTorsions>
[ 6907 6896 6895 6894 ] final   19.73 input  -60.11 | X-H torsion
[ 7974 7965 7964 7962 ] final -105.23 input  175.53 | X-H torsion
[ 8008 7997 7996 7995 ] final   -3.50 input   59.86 | X-H torsion
[ 10167 10162 10161 10158 ] final -149.60 input  -65.29 | X-H torsion
[ 10718 10713 10712 10709 ] final  165.95 input   66.30 | X-H torsion
[ 10763 10752 10751 10750 ] final   45.71 input  -60.55 | X-H torsion
[ 11005 11000 10999 10996 ] final  -54.44 input  -57.11 | X-H torsion

> <Gold.Protein.ActiveResidues>
 VAL166  LYS551  ARG553  GLY616  TRP617  ASP618  TYR619  PRO620  LYS621  CYS622 
 ASP623  PHE694  ASN695  SER759  ASP760  ASP761  ALA762  ILE779  LEU786  VAL792 
 PHE793  MET794  SER795  GLU796  ALA797  LYS798  CYS799  TRP800  GLU811  SER814 

> <Gold.Protein.RotatedAtoms>
  151.8854  135.0437  160.0492 H   0  0  0  0  0  0  0  0  0  0  0  0  # atno 6907 bound_to 6896
  152.2479  133.5186  159.5316 H   0  0  0  0  0  0  0  0  0  0  0  0  # atno 6908 bound_to 6896
  150.7074  134.0916  159.3976 H   0  0  0  0  0  0  0  0  0  0  0  0  # atno 6909 bound_to 6896
  145.2330  140.9177  143.3193 H   0  0  0  0  0  0  0  0  0  0  0  0  # atno 7974 bound_to 7965
  154.6242  140.2507  155.7512 H   0  0  0  0  0  0  0  0  0  0  0  0  # atno 8008 bound_to 7997
  156.2444  140.2920  156.0484 H   0  0  0  0  0  0  0  0  0  0  0  0  # atno 8009 bound_to 7997
  155.1848  140.0390  157.2879 H   0  0  0  0  0  0  0  0  0  0  0  0  # atno 8010 bound_to 7997
  139.7428  143.8636  152.2567 H   0  0  0  0  0  0  0  0  0  0  0  0  # atno 10167 bound_to 10162
  157.0728  131.0371  151.2605 H   0  0  0  0  0  0  0  0  0  0  0  0  # atno 10718 bound_to 10713
  152.9820  135.6031  154.3481 H   0  0  0  0  0  0  0  0  0  0  0  0  # atno 10763 bound_to 10752
  154.3173  135.2770  155.2539 H   0  0  0  0  0  0  0  0  0  0  0  0  # atno 10764 bound_to 10752
  154.4721  135.5939  153.6385 H   0  0  0  0  0  0  0  0  0  0  0  0  # atno 10765 bound_to 10752
  141.1026  133.6616  156.4321 H   0  0  0  0  0  0  0  0  0  0  0  0  # atno 11005 bound_to 11000
  144.9659  139.3931  143.6333 LP  0  0  0  0  0  0  0  0  0  0  0  0  # atno 17320 bound_to 7965
  146.3348  139.8733  142.8836 LP  0  0  0  0  0  0  0  0  0  0  0  0  # atno 17321 bound_to 7965
  139.8591  144.7126  150.9121 LP  0  0  0  0  0  0  0  0  0  0  0  0  # atno 17342 bound_to 10162
  140.7788  143.3833  151.1439 LP  0  0  0  0  0  0  0  0  0  0  0  0  # atno 17343 bound_to 10162
  157.4864  130.7795  149.7464 LP  0  0  0  0  0  0  0  0  0  0  0  0  # atno 17370 bound_to 10713
  155.9945  130.3917  150.2855 LP  0  0  0  0  0  0  0  0  0  0  0  0  # atno 17371 bound_to 10713
  140.4984  134.6509  157.5239 LP  0  0  0  0  0  0  0  0  0  0  0  0  # atno 17394 bound_to 11000
  139.9883  134.7026  155.9735 LP  0  0  0  0  0  0  0  0  0  0  0  0  # atno 17395 bound_to 11000

$$$$
