AV-unprocessed.smi:227|AV-procd|sdf|1741|dock4
  -GOLD-   2262020243D 1   1.00000     0.00000
 Structure written by MMmdl.
 54 58  0  0  0  0  0  0  0  0  1 V2000
  146.5769  131.5913  158.6914 O   0  0  0  0  0  0  0  0  0  0  0  0
  147.2796  132.1636  159.7746 C   0  0  0  0  0  0  0  0  0  0  0  0
  147.0947  133.6995  159.8084 C   0  0  2  0  0  0  0  0  0  0  0  0
  147.6587  134.3894  158.5357 C   0  0  0  0  0  0  0  0  0  0  0  0
  146.8639  134.1741  157.3349 N   0  0  0  0  0  0  0  0  0  0  0  0
  145.5079  134.3607  157.1949 C   0  0  0  0  0  0  0  0  0  0  0  0
  145.0306  134.0995  156.0100 N   0  0  0  0  0  0  0  0  0  0  0  0
  146.1345  133.6888  155.2715 C   0  0  0  0  0  0  0  0  0  0  0  0
  146.3401  133.2639  153.9244 C   0  0  0  0  0  0  0  0  0  0  0  0
  145.3646  133.1765  152.9770 N   0  0  0  0  0  0  0  0  0  0  0  0
  144.6029  134.3448  152.5586 C   0  0  1  0  0  0  0  0  0  0  0  0
  145.6006  135.1529  151.7058 C   0  0  0  0  0  0  0  0  0  0  0  0
  146.4059  134.0249  151.0430 C   0  0  0  0  0  0  0  0  0  0  0  0
  145.7071  132.7714  151.6192 C   0  0  2  0  0  0  0  0  0  0  0  0
  144.3055  132.5624  151.0022 C   0  0  2  0  0  0  0  0  0  0  0  0
  144.2095  132.4765  149.4669 C   0  0  0  0  0  0  0  0  0  0  0  0
  142.8953  132.1431  149.0740 O   0  0  0  0  0  0  0  0  0  0  0  0
  143.5356  133.7372  151.6301 C   0  0  0  0  0  0  0  0  0  0  0  0
  147.6030  132.8995  153.5767 N   0  0  0  0  0  0  0  0  0  0  0  0
  148.5996  132.9637  154.4627 C   0  0  0  0  0  0  0  0  0  0  0  0
  148.5569  133.3552  155.7361 N   0  0  0  0  0  0  0  0  0  0  0  0
  147.2932  133.7128  156.1017 C   0  0  0  0  0  0  0  0  0  0  0  0
  147.6737  134.3027  161.1155 C   0  0  1  0  0  0  0  0  0  0  0  0
  147.4886  135.8044  161.2576 C   0  0  0  0  0  0  0  0  0  0  0  0
  147.7115  136.0172  162.7501 C   0  0  0  0  0  0  0  0  0  0  0  0
  147.2226  134.8389  163.3794 O   0  0  0  0  0  0  0  0  0  0  0  0
  146.9933  133.8261  162.4046 C   0  0  0  0  0  0  0  0  0  0  0  0
  145.6519  131.6196  158.8858 H   0  0  0  0  0  0  0  0  0  0  0  0
  146.8882  131.7042  160.6816 H   0  0  0  0  0  0  0  0  0  0  0  0
  148.3328  131.8885  159.7137 H   0  0  0  0  0  0  0  0  0  0  0  0
  146.0206  133.8913  159.8191 H   0  0  0  0  0  0  0  0  0  0  0  0
  147.7401  135.4642  158.7005 H   0  0  0  0  0  0  0  0  0  0  0  0
  148.6763  134.0542  158.3356 H   0  0  0  0  0  0  0  0  0  0  0  0
  144.8765  134.7037  158.0007 H   0  0  0  0  0  0  0  0  0  0  0  0
  144.1459  134.9251  153.3577 H   0  0  0  0  0  0  0  0  0  0  0  0
  145.1072  135.8042  150.9836 H   0  0  0  0  0  0  0  0  0  0  0  0
  146.2457  135.7698  152.3329 H   0  0  0  0  0  0  0  0  0  0  0  0
  146.4037  134.0736  149.9553 H   0  0  0  0  0  0  0  0  0  0  0  0
  147.4471  134.0666  151.3648 H   0  0  0  0  0  0  0  0  0  0  0  0
  146.3200  131.8717  151.5535 H   0  0  0  0  0  0  0  0  0  0  0  0
  143.8983  131.6366  151.4130 H   0  0  0  0  0  0  0  0  0  0  0  0
  144.4643  133.4412  149.0272 H   0  0  0  0  0  0  0  0  0  0  0  0
  144.9111  131.7541  149.0517 H   0  0  0  0  0  0  0  0  0  0  0  0
  142.3411  132.8969  149.2073 H   0  0  0  0  0  0  0  0  0  0  0  0
  142.6805  133.3720  152.2003 H   0  0  0  0  0  0  0  0  0  0  0  0
  143.1672  134.4558  150.8970 H   0  0  0  0  0  0  0  0  0  0  0  0
  149.5693  132.6582  154.0984 H   0  0  0  0  0  0  0  0  0  0  0  0
  148.7368  134.0706  161.1918 H   0  0  0  0  0  0  0  0  0  0  0  0
  148.1758  136.3914  160.6492 H   0  0  0  0  0  0  0  0  0  0  0  0
  146.4704  136.0895  160.9889 H   0  0  0  0  0  0  0  0  0  0  0  0
  148.7767  136.1102  162.9659 H   0  0  0  0  0  0  0  0  0  0  0  0
  147.2098  136.9095  163.1249 H   0  0  0  0  0  0  0  0  0  0  0  0
  145.9162  133.7283  162.2614 H   0  0  0  0  0  0  0  0  0  0  0  0
  147.3765  132.8653  162.7488 H   0  0  0  0  0  0  0  0  0  0  0  0
  1  2  1  0  0  0  0
  1 28  1  0  0  0  0
  2  3  1  0  0  0  0
  2 29  1  0  0  0  0
  2 30  1  0  0  0  0
  3  4  1  0  0  0  0
  3 23  1  0  0  0  0
  3 31  1  0  0  0  0
  4  5  1  0  0  0  0
  4 32  1  0  0  0  0
  4 33  1  0  0  0  0
  5 22  1  0  0  0  0
  5  6  1  0  0  0  0
  6  7  2  0  0  0  0
  6 34  1  0  0  0  0
  7  8  1  0  0  0  0
  8 22  2  0  0  0  0
  8  9  1  0  0  0  0
  9 10  1  0  0  0  0
  9 19  2  0  0  0  0
 10 14  1  0  0  0  0
 10 11  1  0  0  0  0
 11 18  1  0  0  0  0
 11 12  1  0  0  0  0
 11 35  1  0  0  0  0
 12 13  1  0  0  0  0
 12 36  1  0  0  0  0
 12 37  1  0  0  0  0
 13 14  1  0  0  0  0
 13 38  1  0  0  0  0
 13 39  1  0  0  0  0
 14 15  1  0  0  0  0
 14 40  1  0  0  0  0
 15 16  1  0  0  0  0
 15 18  1  0  0  0  0
 15 41  1  0  0  0  0
 16 17  1  0  0  0  0
 16 42  1  0  0  0  0
 16 43  1  0  0  0  0
 17 44  1  0  0  0  0
 18 45  1  0  0  0  0
 18 46  1  0  0  0  0
 19 20  1  0  0  0  0
 20 21  2  0  0  0  0
 20 47  1  0  0  0  0
 21 22  1  0  0  0  0
 23 27  1  0  0  0  0
 23 24  1  0  0  0  0
 23 48  1  0  0  0  0
 24 25  1  0  0  0  0
 24 49  1  0  0  0  0
 24 50  1  0  0  0  0
 25 26  1  0  0  0  0
 25 51  1  0  0  0  0
 25 52  1  0  0  0  0
 26 27  1  0  0  0  0
 27 53  1  0  0  0  0
 27 54  1  0  0  0  0
M  END
> <s_m_source_file>
AV-unprocessed.smi

> <i_m_source_file_index>
227

> <i_lp_mmshare_version>
43012

> <i_f3d_flags>
0

> <s_epik_input>
W0NIMl0xT1tDSDJdW0NIMl1bQ0BIXTFbQ0BIXShbQ0gyXVtPSF0pW0NIMl1uKFtjSF1uMiljKGMyMyluW2NIXW5jM04oW0NASF00NSlbQ0BASF0oW0NIMl1bQ0gyXTQpW0NASF0oW0NIMl01KVtDSDJdW09IXQ==

> <s_epik_cmdline>
J2VwaWtfcHl0aG9uJywgJy1waCcsICc3LjAnLCAnLXRuJywgJzgnLCAnLW1hJywgJzIwMCcsICctbWV0YWxfYmluZGluZycsICctaW1hZScsICc8aW5maWxlLm1hZT4nLCAnLW9tYWUnLCAnPG91dGZpbGUubWFlPic=

> <r_lp_tautomer_probability>
1

> <r_epik_Ionization_Penalty>
0.0055791

> <r_epik_Ionization_Penalty_Charging>
0

> <r_epik_Ionization_Penalty_Neutral>
0.0055791

> <r_epik_State_Penalty>
0.00401299

> <r_epik_Charging_Adjusted_Penalty>
0.00401299

> <i_epik_Tot_Q>
0

> <i_epik_Tot_abs_Q>
0

> <r_epik_Metal_State_Penalty>
-0

> <b_epik_Metal_Only>
0

> <s_lp_Force_Field>
OPLS_2005

> <r_lp_Energy>
87.7083

> <b_lp_Chiralities_Consistent>
1

> <s_lp_Variant>
AV-unprocessed.smi:227-15

> <Gold.Version>
5.8.1

> <Gold.Id.Protein>
6NUR|6NUR_protein|mol2

> <Gold.PLP.Fitness>
47.8062

> <Gold.PLP.PLP>
-42.2819

> <Gold.PLP.part.hbond>
-4.3568

> <Gold.PLP.part.metal>
0.0000

> <Gold.PLP.part.buried>
-8.8220

> <Gold.PLP.part.nonpolar>
-30.1737

> <Gold.PLP.part.repulsive>
0.3163

> <Gold.PLP.ligand.clash>
0.0000

> <Gold.PLP.ligand.torsion>
0.2790

> <Gold.PLP.Chemscore.Hbond>
1.9263

> <Gold.PLP.Chemscore.CHOScore>
0.0000

> <Gold.PLP.Chemscore.Metal>
0.0000

> <Gold.Chemscore.Hbonds>
donor molecule, donor type, donor heavy atom, donor atom, acceptor molecule, acceptor atom, score
      L1  H    17    44       P1 10186  0.96
      P1  H 10785 10796       L1    17  0.86

> <Gold.PLP.Chemscore.Internal.Correction>
0.3036

> <Gold.Rescore>
     Score         DG    S(hbond)    S(metal)    S(lipo)     H(rot)  DE(clash)    DE(int)     intcor
     10.73     -11.57       1.54        0.00      87.15       3.61       0.02       0.82       ----

> <Gold.Chemscore.Fitness>
10.7298

> <Gold.Chemscore.DG>
-11.5728

> <Gold.Chemscore.ZeroCoef>
-5.4800

> <Gold.Chemscore.Hbond>
1.5359

> <Gold.Chemscore.Metal>
0.0000

> <Gold.Chemscore.Lipo>
87.1535

> <Gold.Chemscore.Internal_Hbond>
0.0000

> <Gold.Chemscore.DEClash>
0.0234

> <Gold.Chemscore.DEInternal>
0.8195

> <Gold.Chemscore.Rot>
3.6071

> <Gold.Chemscore.Internal.Correction>
   9.000000E+99

> <Gold.Chemscore.Hbonds>
donor molecule, donor type, donor heavy atom, donor atom, acceptor molecule, acceptor atom, score
      L1  H    17    44       P1 10186  0.91
      P1  H 10785 10796       L1    17  0.16

> <Gold.Chemscore.Hbond.Weighted>
-5.1300

> <Gold.Chemscore.Metal.Weighted>
-0.0000

> <Gold.Chemscore.Lipo.Weighted>
-10.1970

> <Gold.Chemscore.Internal_Hbond.Weighted>
0.0000

> <Gold.Chemscore.DEClash.Weighted>
0.0234

> <Gold.Chemscore.DEInternal.Weighted>
0.8195

> <Gold.Chemscore.Rot.Weighted>
9.2342

> <Gold.Chemscore.Internal.Correction.Weighted>
   9.000000E+99

> <Gold.Protein.RotatedTorsions>
[ 6907 6896 6895 6894 ] final  -42.42 input  -60.11 | X-H torsion
[ 7974 7965 7964 7962 ] final -117.29 input  175.53 | X-H torsion
[ 8008 7997 7996 7995 ] final  157.82 input   59.86 | X-H torsion
[ 10167 10162 10161 10158 ] final -132.47 input  -65.29 | X-H torsion
[ 10718 10713 10712 10709 ] final    6.88 input   66.30 | X-H torsion
[ 10763 10752 10751 10750 ] final  133.30 input  -60.55 | X-H torsion
[ 11005 11000 10999 10996 ] final  161.16 input  -57.11 | X-H torsion

> <Gold.Protein.ActiveResidues>
 VAL166  LYS551  ARG553  GLY616  TRP617  ASP618  TYR619  PRO620  LYS621  CYS622 
 ASP623  PHE694  ASN695  SER759  ASP760  ASP761  ALA762  ILE779  LEU786  VAL792 
 PHE793  MET794  SER795  GLU796  ALA797  LYS798  CYS799  TRP800  GLU811  SER814 

> <Gold.Protein.RotatedAtoms>
  150.9554  134.8949  159.7697 H   0  0  0  0  0  0  0  0  0  0  0  0  # atno 6907 bound_to 6896
  152.5136  134.3747  159.9340 H   0  0  0  0  0  0  0  0  0  0  0  0  # atno 6908 bound_to 6896
  151.3761  133.3797  159.2739 H   0  0  0  0  0  0  0  0  0  0  0  0  # atno 6909 bound_to 6896
  145.0870  140.8464  143.4005 H   0  0  0  0  0  0  0  0  0  0  0  0  # atno 7974 bound_to 7965
  156.2341  140.1875  156.7166 H   0  0  0  0  0  0  0  0  0  0  0  0  # atno 8008 bound_to 7997
  154.6074  140.0627  156.9477 H   0  0  0  0  0  0  0  0  0  0  0  0  # atno 8009 bound_to 7997
  155.2072  140.3297  155.4337 H   0  0  0  0  0  0  0  0  0  0  0  0  # atno 8010 bound_to 7997
  139.9082  143.6526  152.2581 H   0  0  0  0  0  0  0  0  0  0  0  0  # atno 10167 bound_to 10162
  156.9287  130.5818  149.5649 H   0  0  0  0  0  0  0  0  0  0  0  0  # atno 10718 bound_to 10713
  153.8048  135.3137  155.3394 H   0  0  0  0  0  0  0  0  0  0  0  0  # atno 10763 bound_to 10752
  154.8075  135.4688  154.0432 H   0  0  0  0  0  0  0  0  0  0  0  0  # atno 10764 bound_to 10752
  153.1791  135.6890  153.8590 H   0  0  0  0  0  0  0  0  0  0  0  0  # atno 10765 bound_to 10752
  140.2131  134.8253  157.3141 H   0  0  0  0  0  0  0  0  0  0  0  0  # atno 11005 bound_to 11000
  145.1111  139.2756  143.5637 LP  0  0  0  0  0  0  0  0  0  0  0  0  # atno 17320 bound_to 7965
  146.3531  140.0707  142.8623 LP  0  0  0  0  0  0  0  0  0  0  0  0  # atno 17321 bound_to 7965
  139.6966  144.7640  151.1346 LP  0  0  0  0  0  0  0  0  0  0  0  0  # atno 17342 bound_to 10162
  140.7691  143.5516  150.9198 LP  0  0  0  0  0  0  0  0  0  0  0  0  # atno 17343 bound_to 10162
  156.0457  130.5534  150.8875 LP  0  0  0  0  0  0  0  0  0  0  0  0  # atno 17370 bound_to 10713
  157.5861  131.0945  150.9194 LP  0  0  0  0  0  0  0  0  0  0  0  0  # atno 17371 bound_to 10713
  140.1930  134.4348  155.7705 LP  0  0  0  0  0  0  0  0  0  0  0  0  # atno 17394 bound_to 11000
  141.2225  133.7036  156.8058 LP  0  0  0  0  0  0  0  0  0  0  0  0  # atno 17395 bound_to 11000

$$$$
