AV-unprocessed.smi:274|AV-procd|sdf|2061|dock9
  -GOLD-   2262021303D 1   1.00000     0.00000
 Structure written by MMmdl.
 50 53  0  0  0  0  0  0  0  0  1 V2000
  146.7867  141.1769  154.8055 C   0  0  0  0  0  0  0  0  0  0  0  0
  148.2572  141.0305  155.2479 C   0  0  0  0  0  0  0  0  0  0  0  0
  149.1637  141.6876  154.1874 C   0  0  0  0  0  0  0  0  0  0  0  0
  148.6316  139.5457  155.5530 C   0  0  1  0  0  0  0  0  0  0  0  0
  148.5244  138.6315  154.3056 C   0  0  0  0  0  0  0  0  0  0  0  0
  147.4206  138.2699  153.9034 O   0  0  0  0  0  0  0  0  0  0  0  0
  149.6506  138.2175  153.6965 N   0  0  0  0  0  0  0  0  0  0  0  0
  151.0194  138.5029  154.1272 C   0  0  0  0  0  0  0  0  0  0  0  0
  151.1022  139.5973  155.2057 C   0  0  0  0  0  0  0  0  0  0  0  0
  149.9822  139.4823  156.1361 N   0  0  0  0  0  0  0  0  0  0  0  0
  150.2054  138.6613  157.1942 C   0  0  0  0  0  0  0  0  0  0  0  0
  151.4417  138.5880  157.7555 N   0  0  0  0  0  0  0  0  0  0  0  0
  151.6577  137.7927  158.8073 C   0  0  0  0  0  0  0  0  0  0  0  0
  150.7945  136.9992  159.4446 N   0  0  0  0  0  0  0  0  0  0  0  0
  149.5538  137.0646  158.8821 C   0  0  0  0  0  0  0  0  0  0  0  0
  149.1758  137.8655  157.7680 C   0  0  0  0  0  0  0  0  0  0  0  0
  147.8306  137.6716  157.4783 N   0  0  0  0  0  0  0  0  0  0  0  0
  147.4348  136.8076  158.3727 C   0  0  0  0  0  0  0  0  0  0  0  0
  148.4069  136.3833  159.2508 N   0  0  0  0  0  0  0  0  0  0  0  0
  148.2464  135.4269  160.3350 C   0  0  0  0  0  0  0  0  0  0  0  0
  147.1512  135.8264  161.3516 C   0  0  2  0  0  0  0  0  0  0  0  0
  147.4417  137.1159  161.8625 O   0  0  0  0  0  0  0  0  0  0  0  0
  147.0077  134.8621  162.5261 C   0  0  0  0  0  0  0  0  0  0  0  0
  145.5224  134.9407  162.8505 C   0  0  0  0  0  0  0  0  0  0  0  0
  144.9309  135.0088  161.5645 O   0  0  0  0  0  0  0  0  0  0  0  0
  145.7347  135.8497  160.7430 C   0  0  0  0  0  0  0  0  0  0  0  0
  146.5812  140.5791  153.9170 H   0  0  0  0  0  0  0  0  0  0  0  0
  146.5481  142.2142  154.5682 H   0  0  0  0  0  0  0  0  0  0  0  0
  146.0908  140.8659  155.5850 H   0  0  0  0  0  0  0  0  0  0  0  0
  148.3742  141.6132  156.1622 H   0  0  0  0  0  0  0  0  0  0  0  0
  149.1703  141.1116  153.2615 H   0  0  0  0  0  0  0  0  0  0  0  0
  150.1927  141.7866  154.5305 H   0  0  0  0  0  0  0  0  0  0  0  0
  148.8207  142.6943  153.9469 H   0  0  0  0  0  0  0  0  0  0  0  0
  147.9028  139.1831  156.2802 H   0  0  0  0  0  0  0  0  0  0  0  0
  149.5480  137.6225  152.8872 H   0  0  0  0  0  0  0  0  0  0  0  0
  151.4287  137.5737  154.5253 H   0  0  0  0  0  0  0  0  0  0  0  0
  151.6296  138.7693  153.2642 H   0  0  0  0  0  0  0  0  0  0  0  0
  152.0687  139.5536  155.7088 H   0  0  0  0  0  0  0  0  0  0  0  0
  151.0599  140.5795  154.7352 H   0  0  0  0  0  0  0  0  0  0  0  0
  152.6661  137.7927  159.1939 H   0  0  0  0  0  0  0  0  0  0  0  0
  146.4164  136.4497  158.4124 H   0  0  0  0  0  0  0  0  0  0  0  0
  148.0243  134.4494  159.9044 H   0  0  0  0  0  0  0  0  0  0  0  0
  149.2075  135.3257  160.8410 H   0  0  0  0  0  0  0  0  0  0  0  0
  147.0155  137.2095  162.7007 H   0  0  0  0  0  0  0  0  0  0  0  0
  147.2417  133.8447  162.2100 H   0  0  0  0  0  0  0  0  0  0  0  0
  147.6486  135.1015  163.3756 H   0  0  0  0  0  0  0  0  0  0  0  0
  145.1656  134.0787  163.4141 H   0  0  0  0  0  0  0  0  0  0  0  0
  145.2892  135.8459  163.4134 H   0  0  0  0  0  0  0  0  0  0  0  0
  145.3109  136.8553  160.7254 H   0  0  0  0  0  0  0  0  0  0  0  0
  145.7155  135.4711  159.7205 H   0  0  0  0  0  0  0  0  0  0  0  0
  1  2  1  0  0  0  0
  1 27  1  0  0  0  0
  1 28  1  0  0  0  0
  1 29  1  0  0  0  0
  2  3  1  0  0  0  0
  2  4  1  0  0  0  0
  2 30  1  0  0  0  0
  3 31  1  0  0  0  0
  3 32  1  0  0  0  0
  3 33  1  0  0  0  0
  4 10  1  0  0  0  0
  4  5  1  0  0  0  0
  4 34  1  0  0  0  0
  5  6  2  0  0  0  0
  5  7  1  0  0  0  0
  7  8  1  0  0  0  0
  7 35  1  0  0  0  0
  8  9  1  0  0  0  0
  8 36  1  0  0  0  0
  8 37  1  0  0  0  0
  9 10  1  0  0  0  0
  9 38  1  0  0  0  0
  9 39  1  0  0  0  0
 10 11  1  0  0  0  0
 11 16  1  0  0  0  0
 11 12  2  0  0  0  0
 12 13  1  0  0  0  0
 13 14  2  0  0  0  0
 13 40  1  0  0  0  0
 14 15  1  0  0  0  0
 15 19  1  0  0  0  0
 15 16  2  0  0  0  0
 16 17  1  0  0  0  0
 17 18  2  0  0  0  0
 18 19  1  0  0  0  0
 18 41  1  0  0  0  0
 19 20  1  0  0  0  0
 20 21  1  0  0  0  0
 20 42  1  0  0  0  0
 20 43  1  0  0  0  0
 21 26  1  0  0  0  0
 21 22  1  0  0  0  0
 21 23  1  0  0  0  0
 22 44  1  0  0  0  0
 23 24  1  0  0  0  0
 23 45  1  0  0  0  0
 23 46  1  0  0  0  0
 24 25  1  0  0  0  0
 24 47  1  0  0  0  0
 24 48  1  0  0  0  0
 25 26  1  0  0  0  0
 26 49  1  0  0  0  0
 26 50  1  0  0  0  0
M  END
> <s_m_source_file>
AV-unprocessed.smi

> <i_m_source_file_index>
274

> <i_lp_mmshare_version>
43012

> <i_f3d_flags>
0

> <s_epik_input>
W0NIM11bQ0hdKFtDSDNdKVtDQEBIXTFDKD1PKVtOSF1bQ0gyXVtDSDJdTjFjKG5bY0hdbjIpYyhjMjMpbltjSF1uM1tDSDJdW0NAQF00KFtPSF0pW0NIMl1bQ0gyXU9bQ0gyXTQ=

> <s_epik_cmdline>
J2VwaWtfcHl0aG9uJywgJy1waCcsICc3LjAnLCAnLXRuJywgJzgnLCAnLW1hJywgJzIwMCcsICctbWV0YWxfYmluZGluZycsICctaW1hZScsICc8aW5maWxlLm1hZT4nLCAnLW9tYWUnLCAnPG91dGZpbGUubWFlPic=

> <r_lp_tautomer_probability>
1

> <r_epik_Ionization_Penalty>
0.000690079

> <r_epik_Ionization_Penalty_Charging>
0

> <r_epik_Ionization_Penalty_Neutral>
0.000690079

> <r_epik_State_Penalty>
0.000321372

> <r_epik_Charging_Adjusted_Penalty>
0.000321372

> <i_epik_Tot_Q>
0

> <i_epik_Tot_abs_Q>
0

> <r_epik_Metal_State_Penalty>
-0

> <b_epik_Metal_Only>
0

> <s_lp_Force_Field>
OPLS_2005

> <r_lp_Energy>
41.7848

> <b_lp_Chiralities_Consistent>
1

> <s_lp_Variant>
AV-unprocessed.smi:274-4

> <Gold.Version>
5.8.1

> <Gold.Id.Protein>
6NUR|6NUR_protein|mol2

> <Gold.PLP.Fitness>
45.5486

> <Gold.PLP.PLP>
-35.1138

> <Gold.PLP.part.hbond>
-4.7287

> <Gold.PLP.part.metal>
0.0000

> <Gold.PLP.part.buried>
-2.8224

> <Gold.PLP.part.nonpolar>
-26.9913

> <Gold.PLP.part.repulsive>
0.2292

> <Gold.PLP.ligand.clash>
0.0000

> <Gold.PLP.ligand.torsion>
0.2844

> <Gold.PLP.Chemscore.Hbond>
3.5588

> <Gold.PLP.Chemscore.CHOScore>
0.0000

> <Gold.PLP.Chemscore.Metal>
0.0000

> <Gold.Chemscore.Hbonds>
donor molecule, donor type, donor heavy atom, donor atom, acceptor molecule, acceptor atom, score
      L1  H     7    35       P1  7948  1.00
      P1  H  6896  6907       L1    14  1.00
      P1  H  6931  6943       L1    22  0.96
      P1  H  6934  6947       L1    22  0.57

> <Gold.PLP.Chemscore.Internal.Correction>
0.3273

> <Gold.Rescore>
     Score         DG    S(hbond)    S(metal)    S(lipo)     H(rot)  DE(clash)    DE(int)     intcor
     13.50     -16.69       2.50        0.00      71.31       2.14       0.74       2.44       ----

> <Gold.Chemscore.Fitness>
13.4993

> <Gold.Chemscore.DG>
-16.6863

> <Gold.Chemscore.ZeroCoef>
-5.4800

> <Gold.Chemscore.Hbond>
2.4996

> <Gold.Chemscore.Metal>
0.0000

> <Gold.Chemscore.Lipo>
71.3144

> <Gold.Chemscore.Internal_Hbond>
0.0000

> <Gold.Chemscore.DEClash>
0.7447

> <Gold.Chemscore.DEInternal>
2.4423

> <Gold.Chemscore.Rot>
2.1431

> <Gold.Chemscore.Internal.Correction>
   9.000000E+99

> <Gold.Chemscore.Hbonds>
donor molecule, donor type, donor heavy atom, donor atom, acceptor molecule, acceptor atom, score
      L1  H     7    35       P1  7948  0.74
      P1  H  6896  6907       L1    14  0.43
      P1  H  6931  6943       L1    22  0.50
      P1  H  6934  6947       L1    22  0.22

> <Gold.Chemscore.Hbond.Weighted>
-8.3488

> <Gold.Chemscore.Metal.Weighted>
-0.0000

> <Gold.Chemscore.Lipo.Weighted>
-8.3438

> <Gold.Chemscore.Internal_Hbond.Weighted>
0.0000

> <Gold.Chemscore.DEClash.Weighted>
0.7447

> <Gold.Chemscore.DEInternal.Weighted>
2.4423

> <Gold.Chemscore.Rot.Weighted>
5.4863

> <Gold.Chemscore.Internal.Correction.Weighted>
   9.000000E+99

> <Gold.Protein.RotatedTorsions>
[ 6907 6896 6895 6894 ] final  -33.07 input  -60.11 | X-H torsion
[ 7974 7965 7964 7962 ] final   53.42 input  175.53 | X-H torsion
[ 8008 7997 7996 7995 ] final  108.11 input   59.86 | X-H torsion
[ 10167 10162 10161 10158 ] final  -24.79 input  -65.29 | X-H torsion
[ 10718 10713 10712 10709 ] final  -20.00 input   66.30 | X-H torsion
[ 10763 10752 10751 10750 ] final  130.46 input  -60.55 | X-H torsion
[ 11005 11000 10999 10996 ] final  -90.75 input  -57.11 | X-H torsion

> <Gold.Protein.ActiveResidues>
 VAL166  LYS551  ARG553  GLY616  TRP617  ASP618  TYR619  PRO620  LYS621  CYS622 
 ASP623  PHE694  ASN695  SER759  ASP760  ASP761  ALA762  ILE779  LEU786  VAL792 
 PHE793  MET794  SER795  GLU796  ALA797  LYS798  CYS799  TRP800  GLU811  SER814 

> <Gold.Protein.RotatedAtoms>
  151.0704  134.9795  159.8305 H   0  0  0  0  0  0  0  0  0  0  0  0  # atno 6907 bound_to 6896
  152.5407  134.2306  159.8833 H   0  0  0  0  0  0  0  0  0  0  0  0  # atno 6908 bound_to 6896
  151.2330  133.4396  159.2638 H   0  0  0  0  0  0  0  0  0  0  0  0  # atno 6909 bound_to 6896
  145.9713  139.4152  143.0188 H   0  0  0  0  0  0  0  0  0  0  0  0  # atno 7974 bound_to 7965
  156.1877  140.3082  155.9271 H   0  0  0  0  0  0  0  0  0  0  0  0  # atno 8008 bound_to 7997
  155.3243  140.0457  157.3057 H   0  0  0  0  0  0  0  0  0  0  0  0  # atno 8009 bound_to 7997
  154.5415  140.2263  155.8642 H   0  0  0  0  0  0  0  0  0  0  0  0  # atno 8010 bound_to 7997
  140.7287  143.4322  151.0785 H   0  0  0  0  0  0  0  0  0  0  0  0  # atno 10167 bound_to 10162
  156.5378  130.4671  149.6514 H   0  0  0  0  0  0  0  0  0  0  0  0  # atno 10718 bound_to 10713
  153.7585  135.3199  155.3333 H   0  0  0  0  0  0  0  0  0  0  0  0  # atno 10763 bound_to 10752
  154.8238  135.4584  154.0862 H   0  0  0  0  0  0  0  0  0  0  0  0  # atno 10764 bound_to 10752
  153.2085  135.6932  153.8226 H   0  0  0  0  0  0  0  0  0  0  0  0  # atno 10765 bound_to 10752
  141.1559  133.7712  156.9781 H   0  0  0  0  0  0  0  0  0  0  0  0  # atno 11005 bound_to 11000
  145.7901  140.9818  143.1053 LP  0  0  0  0  0  0  0  0  0  0  0  0  # atno 17320 bound_to 7965
  144.6838  139.9672  143.7481 LP  0  0  0  0  0  0  0  0  0  0  0  0  # atno 17321 bound_to 7965
  139.7980  143.8124  152.3160 LP  0  0  0  0  0  0  0  0  0  0  0  0  # atno 17342 bound_to 10162
  139.8131  144.7327  150.9671 LP  0  0  0  0  0  0  0  0  0  0  0  0  # atno 17343 bound_to 10162
  156.2999  130.7171  151.2040 LP  0  0  0  0  0  0  0  0  0  0  0  0  # atno 17370 bound_to 10713
  157.7410  131.0509  150.5124 LP  0  0  0  0  0  0  0  0  0  0  0  0  # atno 17371 bound_to 10713
  140.1084  134.9492  157.2028 LP  0  0  0  0  0  0  0  0  0  0  0  0  # atno 17394 bound_to 11000
  140.3226  134.2899  155.7243 LP  0  0  0  0  0  0  0  0  0  0  0  0  # atno 17395 bound_to 11000

$$$$
