AV-unprocessed.smi:1958|AV-procd|sdf|7909|dock8
  -GOLD-   2272010 73D 1   1.00000     0.00000
 Structure written by MMmdl.
 48 49  0  0  0  0  0  0  0  0  2 V2000
  152.3493  144.1928  158.1614 C   0  0  0  0  0  0  0  0  0  0  0  0
  151.5568  143.0187  158.1554 O   0  0  0  0  0  0  0  0  0  0  0  0
  151.0245  142.7293  156.8741 C   0  0  0  0  0  0  0  0  0  0  0  0
  150.2312  141.4169  156.9548 C   0  0  0  0  0  0  0  0  0  0  0  0
  149.3322  141.2592  155.8074 N   0  0  0  0  0  0  0  0  0  0  0  0
  148.1425  141.9577  155.9246 N   0  0  0  0  0  0  0  0  0  0  0  0
  147.2638  141.9091  154.9762 C   0  0  0  0  0  0  0  0  0  0  0  0
  145.9760  142.6522  155.0630 C   0  0  0  0  0  0  0  0  0  0  0  0
  145.2092  142.7388  154.1028 O   0  0  0  0  0  0  0  0  0  0  0  0
  145.7233  143.2234  156.2553 N   0  0  0  0  0  0  0  0  0  0  0  0
  144.5462  144.0211  156.5901 C   0  0  0  0  0  0  0  0  0  0  0  0
  144.6697  144.7156  157.9719 C   0  0  1  0  0  0  0  0  0  0  0  0
  145.5433  143.8671  158.9294 C   0  0  0  0  0  0  0  0  0  0  0  0
  145.1684  146.1221  157.8091 N   0  3  0  0  0  0  0  0  0  0  0  0
  144.4000  146.8940  156.7934 C   0  0  0  0  0  0  0  0  0  0  0  0
  144.9926  148.2988  156.5980 C   0  0  0  0  0  0  0  0  0  0  0  0
  144.9925  148.9878  157.8387 O   0  0  0  0  0  0  0  0  0  0  0  0
  145.8069  148.3289  158.7962 C   0  0  0  0  0  0  0  0  0  0  0  0
  145.2610  146.9160  159.0666 C   0  0  0  0  0  0  0  0  0  0  0  0
  147.5043  141.1229  153.7781 C   0  0  0  0  0  0  0  0  0  0  0  0
  148.6650  140.4377  153.6833 C   0  0  0  0  0  0  0  0  0  0  0  0
  149.6741  140.4719  154.7432 C   0  0  0  0  0  0  0  0  0  0  0  0
  150.7332  139.8480  154.6851 O   0  0  0  0  0  0  0  0  0  0  0  0
  152.7365  144.3676  159.1652 H   0  0  0  0  0  0  0  0  0  0  0  0
  151.7633  145.0651  157.8697 H   0  0  0  0  0  0  0  0  0  0  0  0
  153.1990  144.0989  157.4841 H   0  0  0  0  0  0  0  0  0  0  0  0
  150.3787  143.5451  156.5457 H   0  0  0  0  0  0  0  0  0  0  0  0
  151.8334  142.6350  156.1478 H   0  0  0  0  0  0  0  0  0  0  0  0
  150.9267  140.5767  156.9983 H   0  0  0  0  0  0  0  0  0  0  0  0
  149.6694  141.3755  157.8895 H   0  0  0  0  0  0  0  0  0  0  0  0
  146.4094  143.0975  156.9860 H   0  0  0  0  0  0  0  0  0  0  0  0
  144.3388  144.7658  155.8201 H   0  0  0  0  0  0  0  0  0  0  0  0
  143.7089  143.3266  156.5687 H   0  0  0  0  0  0  0  0  0  0  0  0
  143.6761  144.7687  158.4199 H   0  0  0  0  0  0  0  0  0  0  0  0
  145.1777  142.8446  159.0161 H   0  0  0  0  0  0  0  0  0  0  0  0
  145.5384  144.2592  159.9462 H   0  0  0  0  0  0  0  0  0  0  0  0
  146.5769  143.8157  158.5855 H   0  0  0  0  0  0  0  0  0  0  0  0
  144.3997  146.3918  155.8285 H   0  0  0  0  0  0  0  0  0  0  0  0
  143.3585  146.9745  157.1086 H   0  0  0  0  0  0  0  0  0  0  0  0
  146.0045  148.2447  156.1928 H   0  0  0  0  0  0  0  0  0  0  0  0
  144.3937  148.8627  155.8827 H   0  0  0  0  0  0  0  0  0  0  0  0
  146.8398  148.2868  158.4465 H   0  0  0  0  0  0  0  0  0  0  0  0
  145.8085  148.9117  159.7176 H   0  0  0  0  0  0  0  0  0  0  0  0
  144.2773  146.9771  159.5349 H   0  0  0  0  0  0  0  0  0  0  0  0
  145.9352  146.4417  159.7787 H   0  0  0  0  0  0  0  0  0  0  0  0
  146.7770  141.0786  152.9805 H   0  0  0  0  0  0  0  0  0  0  0  0
  148.8564  139.8469  152.7994 H   0  0  0  0  0  0  0  0  0  0  0  0
  146.1149  146.0463  157.4641 H   0  0  0  0  0  0  0  0  0  0  0  0
  1  2  1  0  0  0  0
  1 24  1  0  0  0  0
  1 25  1  0  0  0  0
  1 26  1  0  0  0  0
  2  3  1  0  0  0  0
  3  4  1  0  0  0  0
  3 27  1  0  0  0  0
  3 28  1  0  0  0  0
  4  5  1  0  0  0  0
  4 29  1  0  0  0  0
  4 30  1  0  0  0  0
  5 22  1  0  0  0  0
  5  6  1  0  0  0  0
  6  7  2  0  0  0  0
  7  8  1  0  0  0  0
  7 20  1  0  0  0  0
  8  9  2  0  0  0  0
  8 10  1  0  0  0  0
 10 11  1  0  0  0  0
 10 31  1  0  0  0  0
 11 12  1  0  0  0  0
 11 32  1  0  0  0  0
 11 33  1  0  0  0  0
 12 13  1  0  0  0  0
 12 14  1  0  0  0  0
 12 34  1  0  0  0  0
 13 35  1  0  0  0  0
 13 36  1  0  0  0  0
 13 37  1  0  0  0  0
 14 19  1  0  0  0  0
 14 15  1  0  0  0  0
 14 48  1  0  0  0  0
 15 16  1  0  0  0  0
 15 38  1  0  0  0  0
 15 39  1  0  0  0  0
 16 17  1  0  0  0  0
 16 40  1  0  0  0  0
 16 41  1  0  0  0  0
 17 18  1  0  0  0  0
 18 19  1  0  0  0  0
 18 42  1  0  0  0  0
 18 43  1  0  0  0  0
 19 44  1  0  0  0  0
 19 45  1  0  0  0  0
 20 21  2  0  0  0  0
 20 46  1  0  0  0  0
 21 22  1  0  0  0  0
 21 47  1  0  0  0  0
 22 23  2  0  0  0  0
M  CHG  1  14   1
M  END
> <s_m_source_file>
AV-unprocessed.smi

> <i_m_source_file_index>
1958

> <i_lp_mmshare_version>
43012

> <i_f3d_flags>
0

> <s_epik_input>
W0NIM11PW0NIMl1bQ0gyXW4xbmMoW2NIXVtjSF1jMT1PKUMoPU8pW05IXVtDSDJdW0NASF0oW0NIM10pTjJbQ0gyXVtDSDJdT1tDSDJdW0NIMl0y

> <s_epik_cmdline>
J2VwaWtfcHl0aG9uJywgJy1waCcsICc3LjAnLCAnLXRuJywgJzgnLCAnLW1hJywgJzIwMCcsICctbWV0YWxfYmluZGluZycsICctaW1hZScsICc8aW5maWxlLm1hZT4nLCAnLW9tYWUnLCAnPG91dGZpbGUubWFlPic=

> <r_lp_tautomer_probability>
1

> <r_epik_Ionization_Penalty>
0.724355

> <r_epik_Ionization_Penalty_Charging>
0.724348

> <r_epik_Ionization_Penalty_Neutral>
6.31911e-06

> <r_epik_State_Penalty>
0.749058

> <r_epik_Charging_Adjusted_Penalty>
1.47341

> <i_epik_Tot_Q>
1

> <i_epik_Tot_abs_Q>
1

> <r_epik_Metal_State_Penalty>
0.750821

> <b_epik_Metal_Only>
0

> <s_lp_Force_Field>
OPLS_2005

> <r_lp_Energy>
42.169

> <b_lp_Chiralities_Consistent>
1

> <s_lp_Variant>
AV-unprocessed.smi:1958-4

> <Gold.Version>
5.8.1

> <Gold.Id.Protein>
6NUR|6NUR_protein|mol2

> <Gold.PLP.Fitness>
45.9758

> <Gold.PLP.PLP>
-38.6142

> <Gold.PLP.part.hbond>
-2.0000

> <Gold.PLP.part.metal>
0.0000

> <Gold.PLP.part.buried>
-3.9902

> <Gold.PLP.part.nonpolar>
-35.0107

> <Gold.PLP.part.repulsive>
2.4956

> <Gold.PLP.ligand.clash>
0.0000

> <Gold.PLP.ligand.torsion>
0.8958

> <Gold.PLP.Chemscore.Hbond>
3.0000

> <Gold.PLP.Chemscore.CHOScore>
0.0000

> <Gold.PLP.Chemscore.Metal>
0.0000

> <Gold.Chemscore.Hbonds>
donor molecule, donor type, donor heavy atom, donor atom, acceptor molecule, acceptor atom, score
      L1  H    14    48       P1  8029  2.00
      P1  H  7989  7998       L1    23  1.00

> <Gold.PLP.Chemscore.Internal.Correction>
0.1532

> <Gold.Rescore>
     Score         DG    S(hbond)    S(metal)    S(lipo)     H(rot)  DE(clash)    DE(int)     intcor
     12.87     -15.95       1.89        0.00      81.98       2.12       2.22       0.86       ----

> <Gold.Chemscore.Fitness>
12.8748

> <Gold.Chemscore.DG>
-15.9468

> <Gold.Chemscore.ZeroCoef>
-5.4800

> <Gold.Chemscore.Hbond>
1.8884

> <Gold.Chemscore.Metal>
0.0000

> <Gold.Chemscore.Lipo>
81.9840

> <Gold.Chemscore.Internal_Hbond>
0.0000

> <Gold.Chemscore.DEClash>
2.2162

> <Gold.Chemscore.DEInternal>
0.8558

> <Gold.Chemscore.Rot>
2.1221

> <Gold.Chemscore.Internal.Correction>
   9.000000E+99

> <Gold.Chemscore.Hbonds>
donor molecule, donor type, donor heavy atom, donor atom, acceptor molecule, acceptor atom, score
      L1  H    14    48       P1  8029  0.60
      P1  H  7989  7998       L1    23  0.26

> <Gold.Chemscore.Hbond.Weighted>
-6.3071

> <Gold.Chemscore.Metal.Weighted>
-0.0000

> <Gold.Chemscore.Lipo.Weighted>
-9.5921

> <Gold.Chemscore.Internal_Hbond.Weighted>
0.0000

> <Gold.Chemscore.DEClash.Weighted>
2.2162

> <Gold.Chemscore.DEInternal.Weighted>
0.8558

> <Gold.Chemscore.Rot.Weighted>
5.4325

> <Gold.Chemscore.Internal.Correction.Weighted>
   9.000000E+99

> <Gold.Protein.RotatedTorsions>
[ 6907 6896 6895 6894 ] final  -60.05 input  -60.11 | X-H torsion
[ 7974 7965 7964 7962 ] final  -91.84 input  175.53 | X-H torsion
[ 8008 7997 7996 7995 ] final  -68.57 input   59.86 | X-H torsion
[ 10167 10162 10161 10158 ] final -120.59 input  -65.29 | X-H torsion
[ 10718 10713 10712 10709 ] final -164.04 input   66.30 | X-H torsion
[ 10763 10752 10751 10750 ] final -159.76 input  -60.55 | X-H torsion
[ 11005 11000 10999 10996 ] final -177.69 input  -57.11 | X-H torsion

> <Gold.Protein.ActiveResidues>
 VAL166  LYS551  ARG553  GLY616  TRP617  ASP618  TYR619  PRO620  LYS621  CYS622 
 ASP623  PHE694  ASN695  SER759  ASP760  ASP761  ALA762  ILE779  LEU786  VAL792 
 PHE793  MET794  SER795  GLU796  ALA797  LYS798  CYS799  TRP800  GLU811  SER814 

> <Gold.Protein.RotatedAtoms>
  150.7884  134.6888  159.6484 H   0  0  0  0  0  0  0  0  0  0  0  0  # atno 6907 bound_to 6896
  152.3985  134.6322  160.0088 H   0  0  0  0  0  0  0  0  0  0  0  0  # atno 6908 bound_to 6896
  151.6600  133.3280  159.3208 H   0  0  0  0  0  0  0  0  0  0  0  0  # atno 6909 bound_to 6896
  145.4077  140.9542  143.2251 H   0  0  0  0  0  0  0  0  0  0  0  0  # atno 7974 bound_to 7965
  154.4877  140.0870  156.7524 H   0  0  0  0  0  0  0  0  0  0  0  0  # atno 8008 bound_to 7997
  155.4308  140.3449  155.4262 H   0  0  0  0  0  0  0  0  0  0  0  0  # atno 8009 bound_to 7997
  156.1285  140.1494  156.9088 H   0  0  0  0  0  0  0  0  0  0  0  0  # atno 8010 bound_to 7997
  140.0341  143.5218  152.2162 H   0  0  0  0  0  0  0  0  0  0  0  0  # atno 10167 bound_to 10162
  156.6333  130.8938  151.2982 H   0  0  0  0  0  0  0  0  0  0  0  0  # atno 10718 bound_to 10713
  154.7447  135.3077  154.8665 H   0  0  0  0  0  0  0  0  0  0  0  0  # atno 10763 bound_to 10752
  153.9470  135.6768  153.4748 H   0  0  0  0  0  0  0  0  0  0  0  0  # atno 10764 bound_to 10752
  153.1044  135.4896  154.8851 H   0  0  0  0  0  0  0  0  0  0  0  0  # atno 10765 bound_to 10752
  140.4381  134.6457  157.4744 H   0  0  0  0  0  0  0  0  0  0  0  0  # atno 11005 bound_to 11000
  144.8330  139.5596  143.6935 LP  0  0  0  0  0  0  0  0  0  0  0  0  # atno 17320 bound_to 7965
  146.2720  139.6659  142.9289 LP  0  0  0  0  0  0  0  0  0  0  0  0  # atno 17321 bound_to 7965
  139.6056  144.7595  151.3069 LP  0  0  0  0  0  0  0  0  0  0  0  0  # atno 17342 bound_to 10162
  140.7289  143.6923  150.7912 LP  0  0  0  0  0  0  0  0  0  0  0  0  # atno 17343 bound_to 10162
  157.7193  130.9538  150.1377 LP  0  0  0  0  0  0  0  0  0  0  0  0  # atno 17370 bound_to 10713
  156.2217  130.3674  149.8548 LP  0  0  0  0  0  0  0  0  0  0  0  0  # atno 17371 bound_to 10713
  140.0088  134.6722  155.9412 LP  0  0  0  0  0  0  0  0  0  0  0  0  # atno 17394 bound_to 11000
  141.1717  133.6538  156.4677 LP  0  0  0  0  0  0  0  0  0  0  0  0  # atno 17395 bound_to 11000

$$$$
