AV-unprocessed.smi:1360|AV-procd|sdf|5553|dock5
  -GOLD-   22720 5143D 1   1.00000     0.00000
 Structure written by MMmdl.
 36 37  0  0  0  0  0  0  0  0  1 V2000
  153.0377  143.0339  162.2588 C   0  0  0  0  0  0  0  0  0  0  0  0
  153.5834  142.0368  161.2232 C   0  0  2  0  0  0  0  0  0  0  0  0
  152.6272  141.8127  160.0307 C   0  0  0  0  0  0  0  0  0  0  0  0
  152.2798  143.0429  159.3423 N   0  0  0  0  0  0  0  0  0  0  0  0
  153.1210  143.9573  158.7437 C   0  0  0  0  0  0  0  0  0  0  0  0
  152.3396  144.9525  158.2303 C   0  0  0  0  0  0  0  0  0  0  0  0
  151.0173  144.5558  158.5756 C   0  0  0  0  0  0  0  0  0  0  0  0
  150.9851  143.4138  159.2430 N   0  0  0  0  0  0  0  0  0  0  0  0
  153.8656  140.7667  161.8860 N   0  0  0  0  0  0  0  0  0  0  0  0
  155.0012  140.0609  161.7664 C   0  0  0  0  0  0  0  0  0  0  0  0
  155.9450  140.4156  161.0594 O   0  0  0  0  0  0  0  0  0  0  0  0
  155.0844  138.7558  162.5696 C   0  0  1  0  0  0  0  0  0  0  0  0
  155.1373  139.0332  164.0902 C   0  0  0  0  0  0  0  0  0  0  0  0
  154.9566  137.7683  164.9109 C   0  0  0  0  0  0  0  0  0  0  0  0
  154.4740  136.6207  164.4042 C   0  0  0  0  0  0  0  0  0  0  0  0
  154.0512  136.4603  162.9546 C   0  0  0  0  0  0  0  0  0  0  0  0
  153.9099  137.8149  162.2344 C   0  0  0  0  0  0  0  0  0  0  0  0
  152.9029  144.0259  161.8273 H   0  0  0  0  0  0  0  0  0  0  0  0
  153.7242  143.1406  163.0993 H   0  0  0  0  0  0  0  0  0  0  0  0
  152.0749  142.7084  162.6537 H   0  0  0  0  0  0  0  0  0  0  0  0
  154.5218  142.4465  160.8443 H   0  0  0  0  0  0  0  0  0  0  0  0
  153.0740  141.1313  159.3050 H   0  0  0  0  0  0  0  0  0  0  0  0
  151.7051  141.3406  160.3725 H   0  0  0  0  0  0  0  0  0  0  0  0
  154.1928  143.8234  158.7297 H   0  0  0  0  0  0  0  0  0  0  0  0
  152.6631  145.8306  157.6916 H   0  0  0  0  0  0  0  0  0  0  0  0
  150.0865  145.0606  158.3632 H   0  0  0  0  0  0  0  0  0  0  0  0
  153.1431  140.3982  162.4871 H   0  0  0  0  0  0  0  0  0  0  0  0
  156.0066  138.2424  162.2897 H   0  0  0  0  0  0  0  0  0  0  0  0
  156.0970  139.4813  164.3499 H   0  0  0  0  0  0  0  0  0  0  0  0
  154.3647  139.7411  164.3934 H   0  0  0  0  0  0  0  0  0  0  0  0
  155.2251  137.8229  165.9559 H   0  0  0  0  0  0  0  0  0  0  0  0
  154.3820  135.7506  165.0377 H   0  0  0  0  0  0  0  0  0  0  0  0
  154.7970  135.8430  162.4532 H   0  0  0  0  0  0  0  0  0  0  0  0
  153.1075  135.9162  162.9116 H   0  0  0  0  0  0  0  0  0  0  0  0
  152.9714  138.2831  162.5357 H   0  0  0  0  0  0  0  0  0  0  0  0
  153.8396  137.6511  161.1582 H   0  0  0  0  0  0  0  0  0  0  0  0
  1  2  1  0  0  0  0
  1 18  1  0  0  0  0
  1 19  1  0  0  0  0
  1 20  1  0  0  0  0
  2  3  1  0  0  0  0
  2  9  1  0  0  0  0
  2 21  1  0  0  0  0
  3  4  1  0  0  0  0
  3 22  1  0  0  0  0
  3 23  1  0  0  0  0
  4  8  1  0  0  0  0
  4  5  1  0  0  0  0
  5  6  2  0  0  0  0
  5 24  1  0  0  0  0
  6  7  1  0  0  0  0
  6 25  1  0  0  0  0
  7  8  2  0  0  0  0
  7 26  1  0  0  0  0
  9 10  1  0  0  0  0
  9 27  1  0  0  0  0
 10 11  2  0  0  0  0
 10 12  1  0  0  0  0
 12 17  1  0  0  0  0
 12 13  1  0  0  0  0
 12 28  1  0  0  0  0
 13 14  1  0  0  0  0
 13 29  1  0  0  0  0
 13 30  1  0  0  0  0
 14 15  2  0  0  0  0
 14 31  1  0  0  0  0
 15 16  1  0  0  0  0
 15 32  1  0  0  0  0
 16 17  1  0  0  0  0
 16 33  1  0  0  0  0
 16 34  1  0  0  0  0
 17 35  1  0  0  0  0
 17 36  1  0  0  0  0
M  END
> <s_m_source_file>
AV-unprocessed.smi

> <i_m_source_file_index>
1360

> <i_lp_mmshare_version>
43012

> <i_f3d_flags>
0

> <s_epik_input>
bjFbY0hdW2NIXVtjSF1uMVtDSDJdW0NAQEhdKFtDSDNdKVtOSF1DKD1PKVtDQEBIXTJbQ0gyXVtDSF09W0NIXVtDSDJdW0NIMl0y

> <s_epik_cmdline>
J2VwaWtfcHl0aG9uJywgJy1waCcsICc3LjAnLCAnLXRuJywgJzgnLCAnLW1hJywgJzIwMCcsICctbWV0YWxfYmluZGluZycsICctaW1hZScsICc8aW5maWxlLm1hZT4nLCAnLW9tYWUnLCAnPG91dGZpbGUubWFlPic=

> <r_lp_tautomer_probability>
1

> <r_epik_Ionization_Penalty>
0.000315076

> <r_epik_Ionization_Penalty_Charging>
0

> <r_epik_Ionization_Penalty_Neutral>
0.000315076

> <r_epik_State_Penalty>
-0

> <r_epik_Charging_Adjusted_Penalty>
0

> <i_epik_Tot_Q>
0

> <i_epik_Tot_abs_Q>
0

> <r_epik_Metal_State_Penalty>
-0

> <b_epik_Metal_Only>
0

> <s_lp_Force_Field>
OPLS_2005

> <r_lp_Energy>
8.32294

> <b_lp_Chiralities_Consistent>
1

> <s_lp_Variant>
AV-unprocessed.smi:1360-3

> <Gold.Version>
5.8.1

> <Gold.Id.Protein>
6NUR|6NUR_protein|mol2

> <Gold.PLP.Fitness>
46.3383

> <Gold.PLP.PLP>
-43.8809

> <Gold.PLP.part.hbond>
-1.0000

> <Gold.PLP.part.metal>
0.0000

> <Gold.PLP.part.buried>
-5.2360

> <Gold.PLP.part.nonpolar>
-36.9615

> <Gold.PLP.part.repulsive>
0.0761

> <Gold.PLP.ligand.clash>
0.0000

> <Gold.PLP.ligand.torsion>
0.2534

> <Gold.PLP.Chemscore.Hbond>
0.0000

> <Gold.PLP.Chemscore.CHOScore>
0.9740

> <Gold.PLP.Chemscore.Metal>
0.0000

> <Gold.Chemscore.Hbonds>
donor molecule, donor type, donor heavy atom, donor atom, acceptor molecule, acceptor atom, score
      L1  C     7    26       P1  8029  0.86

> <Gold.PLP.Chemscore.Internal.Correction>
0.0421

> <Gold.Rescore>
     Score         DG    S(hbond)    S(metal)    S(lipo)     H(rot)  DE(clash)    DE(int)     intcor
     14.89     -15.27       0.00        0.00     116.59       1.51       0.09       0.29       ----

> <Gold.Chemscore.Fitness>
14.8863

> <Gold.Chemscore.DG>
-15.2666

> <Gold.Chemscore.ZeroCoef>
-5.4800

> <Gold.Chemscore.Hbond>
0.0000

> <Gold.Chemscore.Metal>
0.0000

> <Gold.Chemscore.Lipo>
116.5916

> <Gold.Chemscore.Internal_Hbond>
0.0000

> <Gold.Chemscore.DEClash>
0.0888

> <Gold.Chemscore.DEInternal>
0.2915

> <Gold.Chemscore.Rot>
1.5057

> <Gold.Chemscore.Internal.Correction>
   9.000000E+99

> <Gold.Chemscore.Hbond.Weighted>
-0.0000

> <Gold.Chemscore.Metal.Weighted>
-0.0000

> <Gold.Chemscore.Lipo.Weighted>
-13.6412

> <Gold.Chemscore.Internal_Hbond.Weighted>
0.0000

> <Gold.Chemscore.DEClash.Weighted>
0.0888

> <Gold.Chemscore.DEInternal.Weighted>
0.2915

> <Gold.Chemscore.Rot.Weighted>
3.8546

> <Gold.Chemscore.Internal.Correction.Weighted>
   9.000000E+99

> <Gold.Protein.RotatedTorsions>
[ 6907 6896 6895 6894 ] final   86.80 input  -60.11 | X-H torsion
[ 7974 7965 7964 7962 ] final  -50.92 input  175.53 | X-H torsion
[ 8008 7997 7996 7995 ] final   41.67 input   59.86 | X-H torsion
[ 10167 10162 10161 10158 ] final  128.06 input  -65.29 | X-H torsion
[ 10718 10713 10712 10709 ] final -116.43 input   66.30 | X-H torsion
[ 10763 10752 10751 10750 ] final  100.24 input  -60.55 | X-H torsion
[ 11005 11000 10999 10996 ] final  140.29 input  -57.11 | X-H torsion

> <Gold.Protein.ActiveResidues>
 VAL166  LYS551  ARG553  GLY616  TRP617  ASP618  TYR619  PRO620  LYS621  CYS622 
 ASP623  PHE694  ASN695  SER759  ASP760  ASP761  ALA762  ILE779  LEU786  VAL792 
 PHE793  MET794  SER795  GLU796  ALA797  LYS798  CYS799  TRP800  GLU811  SER814 

> <Gold.Protein.RotatedAtoms>
  152.5400  134.2375  159.8848 H   0  0  0  0  0  0  0  0  0  0  0  0  # atno 6907 bound_to 6896
  151.2344  133.4426  159.2612 H   0  0  0  0  0  0  0  0  0  0  0  0  # atno 6908 bound_to 6896
  151.0685  134.9797  159.8353 H   0  0  0  0  0  0  0  0  0  0  0  0  # atno 6909 bound_to 6896
  145.9246  140.7803  142.9630 H   0  0  0  0  0  0  0  0  0  0  0  0  # atno 7974 bound_to 7965
  155.2734  140.3367  155.4263 H   0  0  0  0  0  0  0  0  0  0  0  0  # atno 8008 bound_to 7997
  156.2122  140.1774  156.7711 H   0  0  0  0  0  0  0  0  0  0  0  0  # atno 8009 bound_to 7997
  154.5703  140.0671  156.8938 H   0  0  0  0  0  0  0  0  0  0  0  0  # atno 8010 bound_to 7997
  139.5546  144.6839  151.4220 H   0  0  0  0  0  0  0  0  0  0  0  0  # atno 10167 bound_to 10162
  156.0963  130.6135  150.9035 H   0  0  0  0  0  0  0  0  0  0  0  0  # atno 10718 bound_to 10713
  153.3114  135.4086  155.1339 H   0  0  0  0  0  0  0  0  0  0  0  0  # atno 10763 bound_to 10752
  154.8577  135.3565  154.5718 H   0  0  0  0  0  0  0  0  0  0  0  0  # atno 10764 bound_to 10752
  153.6147  135.7066  153.5392 H   0  0  0  0  0  0  0  0  0  0  0  0  # atno 10765 bound_to 10752
  140.0316  134.9349  157.0673 H   0  0  0  0  0  0  0  0  0  0  0  0  # atno 11005 bound_to 11000
  144.6757  140.2030  143.7385 LP  0  0  0  0  0  0  0  0  0  0  0  0  # atno 17320 bound_to 7965
  145.8505  139.2173  143.1775 LP  0  0  0  0  0  0  0  0  0  0  0  0  # atno 17321 bound_to 7965
  140.6816  143.8068  150.7130 LP  0  0  0  0  0  0  0  0  0  0  0  0  # atno 17342 bound_to 10162
  140.1523  143.4347  152.2123 LP  0  0  0  0  0  0  0  0  0  0  0  0  # atno 17343 bound_to 10162
  157.6124  131.0935  150.8770 LP  0  0  0  0  0  0  0  0  0  0  0  0  # atno 17370 bound_to 10713
  156.8907  130.5212  149.5286 LP  0  0  0  0  0  0  0  0  0  0  0  0  # atno 17371 bound_to 10713
  140.4216  134.1875  155.7164 LP  0  0  0  0  0  0  0  0  0  0  0  0  # atno 17394 bound_to 11000
  141.1834  133.8365  157.1176 LP  0  0  0  0  0  0  0  0  0  0  0  0  # atno 17395 bound_to 11000

$$$$
