AV-unprocessed.smi:3201|AV-procd|sdf|12238|dock6
  -GOLD-   2272018 73D 1   1.00000     0.00000
 Structure written by MMmdl.
 41 43  0  0  0  0  0  0  0  0  2 V2000
  151.5644  145.1484  160.4190 C   0  0  0  0  0  0  0  0  0  0  0  0
  152.1380  143.8138  160.0665 C   0  0  0  0  0  0  0  0  0  0  0  0
  152.1659  143.1381  158.8758 C   0  0  0  0  0  0  0  0  0  0  0  0
  151.6121  143.5485  157.5389 C   0  0  0  0  0  0  0  0  0  0  0  0
  150.9934  142.3562  156.7977 C   0  0  0  0  0  0  0  0  0  0  0  0
  149.5226  142.4747  156.7348 N   0  3  0  0  0  0  0  0  0  0  0  0
  148.8345  141.2896  156.1776 C   0  0  1  0  0  0  0  0  0  0  0  0
  147.2951  141.3864  156.2957 C   0  0  0  0  0  0  0  0  0  0  0  0
  146.8278  141.2405  154.8363 C   0  0  2  0  0  0  0  0  0  0  0  0
  147.0860  139.8019  154.3510 C   0  0  0  0  0  0  0  0  0  0  0  0
  148.6183  139.7663  154.1959 C   0  0  0  0  0  0  0  0  0  0  0  0
  149.0396  141.1767  154.6511 C   0  0  1  0  0  0  0  0  0  0  0  0
  147.9009  142.0251  154.0919 C   0  0  0  0  0  0  0  0  0  0  0  0
  152.8492  141.9295  159.1904 C   0  0  0  0  0  0  0  0  0  0  0  0
  153.2087  141.8584  160.4593 N   0  0  0  0  0  0  0  0  0  0  0  0
  152.7745  143.0158  160.9989 N   0  0  0  0  0  0  0  0  0  0  0  0
  153.0052  143.2738  162.4071 C   0  0  0  0  0  0  0  0  0  0  0  0
  151.0721  145.6073  159.5618 H   0  0  0  0  0  0  0  0  0  0  0  0
  152.3464  145.8280  160.7581 H   0  0  0  0  0  0  0  0  0  0  0  0
  150.8275  145.0551  161.2171 H   0  0  0  0  0  0  0  0  0  0  0  0
  150.8607  144.3296  157.6609 H   0  0  0  0  0  0  0  0  0  0  0  0
  152.3967  143.9880  156.9217 H   0  0  0  0  0  0  0  0  0  0  0  0
  151.3914  142.3005  155.7836 H   0  0  0  0  0  0  0  0  0  0  0  0
  151.2634  141.4266  157.3001 H   0  0  0  0  0  0  0  0  0  0  0  0
  149.1639  142.6508  157.6623 H   0  0  0  0  0  0  0  0  0  0  0  0
  149.2169  140.3973  156.6762 H   0  0  0  0  0  0  0  0  0  0  0  0
  146.8800  140.6119  156.9418 H   0  0  0  0  0  0  0  0  0  0  0  0
  146.9790  142.3522  156.6931 H   0  0  0  0  0  0  0  0  0  0  0  0
  145.8063  141.5828  154.6681 H   0  0  0  0  0  0  0  0  0  0  0  0
  146.7208  139.0562  155.0582 H   0  0  0  0  0  0  0  0  0  0  0  0
  146.5997  139.6201  153.3915 H   0  0  0  0  0  0  0  0  0  0  0  0
  149.0800  138.9781  154.7918 H   0  0  0  0  0  0  0  0  0  0  0  0
  148.8923  139.5985  153.1534 H   0  0  0  0  0  0  0  0  0  0  0  0
  150.0375  141.4578  154.3122 H   0  0  0  0  0  0  0  0  0  0  0  0
  147.8065  141.9633  153.0062 H   0  0  0  0  0  0  0  0  0  0  0  0
  147.9531  143.0748  154.3863 H   0  0  0  0  0  0  0  0  0  0  0  0
  153.0906  141.1044  158.5367 H   0  0  0  0  0  0  0  0  0  0  0  0
  153.4727  144.2510  162.5312 H   0  0  0  0  0  0  0  0  0  0  0  0
  153.6610  142.5143  162.8356 H   0  0  0  0  0  0  0  0  0  0  0  0
  152.0547  143.2625  162.9416 H   0  0  0  0  0  0  0  0  0  0  0  0
  149.3032  143.2677  156.1489 H   0  0  0  0  0  0  0  0  0  0  0  0
  1  2  1  0  0  0  0
  1 18  1  0  0  0  0
  1 19  1  0  0  0  0
  1 20  1  0  0  0  0
  2 16  1  0  0  0  0
  2  3  2  0  0  0  0
  3  4  1  0  0  0  0
  3 14  1  0  0  0  0
  4  5  1  0  0  0  0
  4 21  1  0  0  0  0
  4 22  1  0  0  0  0
  5  6  1  0  0  0  0
  5 23  1  0  0  0  0
  5 24  1  0  0  0  0
  6  7  1  0  0  0  0
  6 25  1  0  0  0  0
  6 41  1  0  0  0  0
  7 12  1  0  0  0  0
  7  8  1  0  0  0  0
  7 26  1  0  0  0  0
  8  9  1  0  0  0  0
  8 27  1  0  0  0  0
  8 28  1  0  0  0  0
  9 13  1  0  0  0  0
  9 10  1  0  0  0  0
  9 29  1  0  0  0  0
 10 11  1  0  0  0  0
 10 30  1  0  0  0  0
 10 31  1  0  0  0  0
 11 12  1  0  0  0  0
 11 32  1  0  0  0  0
 11 33  1  0  0  0  0
 12 13  1  0  0  0  0
 12 34  1  0  0  0  0
 13 35  1  0  0  0  0
 13 36  1  0  0  0  0
 14 15  2  0  0  0  0
 14 37  1  0  0  0  0
 15 16  1  0  0  0  0
 16 17  1  0  0  0  0
 17 38  1  0  0  0  0
 17 39  1  0  0  0  0
 17 40  1  0  0  0  0
M  CHG  1   6   1
M  END
> <s_m_source_file>
AV-unprocessed.smi

> <i_m_source_file_index>
3201

> <i_lp_mmshare_version>
43012

> <i_f3d_flags>
0

> <s_epik_input>
W0NIM11uMW5bY0hdYyhjMVtDSDNdKVtDSDJdW0NIMl1bTkhdW0NASF0oW0NIMl1bQ0BIXTIzKVtDQEhdKFtDSDJdMylbQ0gyXVtDSDJdMg==

> <s_epik_cmdline>
J2VwaWtfcHl0aG9uJywgJy1waCcsICc3LjAnLCAnLXRuJywgJzgnLCAnLW1hJywgJzIwMCcsICctbWV0YWxfYmluZGluZycsICctaW1hZScsICc8aW5maWxlLm1hZT4nLCAnLW9tYWUnLCAnPG91dGZpbGUubWFlPic=

> <r_lp_tautomer_probability>
1

> <r_epik_Ionization_Penalty>
0.000331174

> <r_epik_Ionization_Penalty_Charging>
0.000242709

> <r_epik_Ionization_Penalty_Neutral>
8.84659e-05

> <r_epik_State_Penalty>
-0

> <r_epik_Charging_Adjusted_Penalty>
0.000242709

> <i_epik_Tot_Q>
1

> <i_epik_Tot_abs_Q>
1

> <r_epik_Metal_State_Penalty>
-0

> <b_epik_Metal_Only>
0

> <s_lp_Force_Field>
OPLS_2005

> <r_lp_Energy>
49.6372

> <b_lp_Chiralities_Consistent>
1

> <s_lp_Variant>
AV-unprocessed.smi:3201-2

> <Gold.Version>
5.8.1

> <Gold.Id.Protein>
6NUR|6NUR_protein|mol2

> <Gold.PLP.Fitness>
46.2327

> <Gold.PLP.PLP>
-41.6582

> <Gold.PLP.part.hbond>
-1.0000

> <Gold.PLP.part.metal>
0.0000

> <Gold.PLP.part.buried>
-5.3698

> <Gold.PLP.part.nonpolar>
-35.4260

> <Gold.PLP.part.repulsive>
0.0235

> <Gold.PLP.ligand.clash>
0.0000

> <Gold.PLP.ligand.torsion>
0.7203

> <Gold.PLP.Chemscore.Hbond>
2.0000

> <Gold.PLP.Chemscore.CHOScore>
0.0000

> <Gold.PLP.Chemscore.Metal>
0.0000

> <Gold.Chemscore.Hbonds>
donor molecule, donor type, donor heavy atom, donor atom, acceptor molecule, acceptor atom, score
      L1  H     6    41       P1  8028  2.00

> <Gold.PLP.Chemscore.Internal.Correction>
0.0151

> <Gold.Rescore>
     Score         DG    S(hbond)    S(metal)    S(lipo)     H(rot)  DE(clash)    DE(int)     intcor
     18.20     -18.92       0.99        0.00     116.20       1.36       0.06       0.65       ----

> <Gold.Chemscore.Fitness>
18.2033

> <Gold.Chemscore.DG>
-18.9154

> <Gold.Chemscore.ZeroCoef>
-5.4800

> <Gold.Chemscore.Hbond>
0.9934

> <Gold.Chemscore.Metal>
0.0000

> <Gold.Chemscore.Lipo>
116.2042

> <Gold.Chemscore.Internal_Hbond>
0.0000

> <Gold.Chemscore.DEClash>
0.0575

> <Gold.Chemscore.DEInternal>
0.6547

> <Gold.Chemscore.Rot>
1.3588

> <Gold.Chemscore.Internal.Correction>
   9.000000E+99

> <Gold.Chemscore.Hbonds>
donor molecule, donor type, donor heavy atom, donor atom, acceptor molecule, acceptor atom, score
      L1  H     6    41       P1  8028  0.98

> <Gold.Chemscore.Hbond.Weighted>
-3.3181

> <Gold.Chemscore.Metal.Weighted>
-0.0000

> <Gold.Chemscore.Lipo.Weighted>
-13.5959

> <Gold.Chemscore.Internal_Hbond.Weighted>
0.0000

> <Gold.Chemscore.DEClash.Weighted>
0.0575

> <Gold.Chemscore.DEInternal.Weighted>
0.6547

> <Gold.Chemscore.Rot.Weighted>
3.4786

> <Gold.Chemscore.Internal.Correction.Weighted>
   9.000000E+99

> <Gold.Protein.RotatedTorsions>
[ 6907 6896 6895 6894 ] final -161.28 input  -60.11 | X-H torsion
[ 7974 7965 7964 7962 ] final   -7.16 input  175.53 | X-H torsion
[ 8008 7997 7996 7995 ] final  -53.39 input   59.86 | X-H torsion
[ 10167 10162 10161 10158 ] final   55.32 input  -65.29 | X-H torsion
[ 10718 10713 10712 10709 ] final -128.99 input   66.30 | X-H torsion
[ 10763 10752 10751 10750 ] final   -0.02 input  -60.55 | X-H torsion
[ 11005 11000 10999 10996 ] final -120.43 input  -57.11 | X-H torsion

> <Gold.Protein.ActiveResidues>
 VAL166  LYS551  ARG553  GLY616  TRP617  ASP618  TYR619  PRO620  LYS621  CYS622 
 ASP623  PHE694  ASN695  SER759  ASP760  ASP761  ALA762  ILE779  LEU786  VAL792 
 PHE793  MET794  SER795  GLU796  ALA797  LYS798  CYS799  TRP800  GLU811  SER814 

> <Gold.Protein.RotatedAtoms>
  151.3622  133.3885  159.2690 H   0  0  0  0  0  0  0  0  0  0  0  0  # atno 6907 bound_to 6896
  150.9716  134.9089  159.7802 H   0  0  0  0  0  0  0  0  0  0  0  0  # atno 6908 bound_to 6896
  152.5186  134.3584  159.9328 H   0  0  0  0  0  0  0  0  0  0  0  0  # atno 6909 bound_to 6896
  146.2313  140.2279  142.8339 H   0  0  0  0  0  0  0  0  0  0  0  0  # atno 7974 bound_to 7965
  154.4132  140.1201  156.5145 H   0  0  0  0  0  0  0  0  0  0  0  0  # atno 8008 bound_to 7997
  155.6765  140.3496  155.4819 H   0  0  0  0  0  0  0  0  0  0  0  0  # atno 8009 bound_to 7997
  155.9588  140.1119  157.0903 H   0  0  0  0  0  0  0  0  0  0  0  0  # atno 8010 bound_to 7997
  140.2207  144.3792  150.6452 H   0  0  0  0  0  0  0  0  0  0  0  0  # atno 10167 bound_to 10162
  156.2003  130.6853  151.0531 H   0  0  0  0  0  0  0  0  0  0  0  0  # atno 10718 bound_to 10713
  153.3265  135.6972  153.6985 H   0  0  0  0  0  0  0  0  0  0  0  0  # atno 10763 bound_to 10752
  153.5804  135.3499  155.2873 H   0  0  0  0  0  0  0  0  0  0  0  0  # atno 10764 bound_to 10752
  154.8609  135.4294  154.2442 H   0  0  0  0  0  0  0  0  0  0  0  0  # atno 10765 bound_to 10752
  141.0144  134.0217  157.3370 H   0  0  0  0  0  0  0  0  0  0  0  0  # atno 11005 bound_to 11000
  144.9581  140.8247  143.5530 LP  0  0  0  0  0  0  0  0  0  0  0  0  # atno 17320 bound_to 7965
  145.2246  139.2143  143.5075 LP  0  0  0  0  0  0  0  0  0  0  0  0  # atno 17321 bound_to 7965
  140.6257  143.2181  151.6601 LP  0  0  0  0  0  0  0  0  0  0  0  0  # atno 17342 bound_to 10162
  139.5145  144.3408  152.0742 LP  0  0  0  0  0  0  0  0  0  0  0  0  # atno 17343 bound_to 10162
  157.6982  131.0786  150.6904 LP  0  0  0  0  0  0  0  0  0  0  0  0  # atno 17370 bound_to 10713
  156.6961  130.4609  149.5586 LP  0  0  0  0  0  0  0  0  0  0  0  0  # atno 17371 bound_to 10713
  139.9108  135.0189  156.7684 LP  0  0  0  0  0  0  0  0  0  0  0  0  # atno 17394 bound_to 11000
  140.6679  133.9586  155.7840 LP  0  0  0  0  0  0  0  0  0  0  0  0  # atno 17395 bound_to 11000

$$$$
