AV-unprocessed.smi:72|AV-procd|sdf|695|dock6
  -GOLD-   2262017 13D 1   1.00000     0.00000
 Structure written by MMmdl.
 30 31  0  0  0  0  0  0  0  0  2 V2000
  151.4426  134.6983  156.4725 N   0  0  0  0  0  0  0  0  0  0  0  0
  151.4514  136.0062  156.0343 C   0  0  0  0  0  0  0  0  0  0  0  0
  150.2307  136.6107  155.7901 N   0  3  0  0  0  0  0  0  0  0  0  0
  150.0664  137.8727  155.3701 C   0  0  0  0  0  0  0  0  0  0  0  0
  151.1301  138.6255  155.1774 N   0  0  0  0  0  0  0  0  0  0  0  0
  150.9979  140.0483  154.7094 C   0  0  2  0  0  0  0  0  0  0  0  0
  151.5073  140.8757  155.7115 O   0  0  0  0  0  0  0  0  0  0  0  0
  150.5919  141.9309  155.9893 C   0  0  2  0  0  0  0  0  0  0  0  0
  150.7772  142.4136  157.4360 C   0  0  0  0  0  0  0  0  0  0  0  0
  149.7036  143.2511  157.8072 O   0  0  0  0  0  0  0  0  0  0  0  0
  149.2388  141.2681  155.7314 C   0  0  1  0  0  0  0  0  0  0  0  0
  148.1917  142.1990  155.5346 O   0  0  0  0  0  0  0  0  0  0  0  0
  149.5171  140.4047  154.5063 C   0  0  1  0  0  0  0  0  0  0  0  0
  149.3294  141.1033  153.2894 O   0  0  0  0  0  0  0  0  0  0  0  0
  152.4263  138.0846  155.3701 C   0  0  0  0  0  0  0  0  0  0  0  0
  153.4257  138.7667  155.1463 O   0  0  0  0  0  0  0  0  0  0  0  0
  152.4961  136.7554  155.8123 N   0  0  0  0  0  0  0  0  0  0  0  0
  151.6133  140.1393  153.8123 H   0  0  0  0  0  0  0  0  0  0  0  0
  150.7467  142.7425  155.2750 H   0  0  0  0  0  0  0  0  0  0  0  0
  148.9832  140.6212  156.5719 H   0  0  0  0  0  0  0  0  0  0  0  0
  148.8896  139.5124  154.4907 H   0  0  0  0  0  0  0  0  0  0  0  0
  152.2843  134.1758  156.6713 H   0  0  0  0  0  0  0  0  0  0  0  0
  150.6022  134.1606  156.6290 H   0  0  0  0  0  0  0  0  0  0  0  0
  149.0675  138.2504  155.1911 H   0  0  0  0  0  0  0  0  0  0  0  0
  150.7789  141.5636  158.1189 H   0  0  0  0  0  0  0  0  0  0  0  0
  151.7269  142.9336  157.5639 H   0  0  0  0  0  0  0  0  0  0  0  0
  149.4367  143.7526  157.0520 H   0  0  0  0  0  0  0  0  0  0  0  0
  148.4878  143.0519  155.8138 H   0  0  0  0  0  0  0  0  0  0  0  0
  149.3047  140.4784  152.5805 H   0  0  0  0  0  0  0  0  0  0  0  0
  149.4014  136.0543  155.9415 H   0  0  0  0  0  0  0  0  0  0  0  0
  1  2  1  0  0  0  0
  1 22  1  0  0  0  0
  1 23  1  0  0  0  0
  2 17  2  0  0  0  0
  2  3  1  0  0  0  0
  3  4  2  0  0  0  0
  3 30  1  0  0  0  0
  4  5  1  0  0  0  0
  4 24  1  0  0  0  0
  5  6  1  0  0  0  0
  5 15  1  0  0  0  0
  6 18  1  0  0  0  0
  6 13  1  0  0  0  0
  6  7  1  0  0  0  0
  7  8  1  0  0  0  0
  8 19  1  0  0  0  0
  8  9  1  0  0  0  0
  8 11  1  0  0  0  0
  9 10  1  0  0  0  0
  9 25  1  0  0  0  0
  9 26  1  0  0  0  0
 10 27  1  0  0  0  0
 11 20  1  0  0  0  0
 11 12  1  0  0  0  0
 11 13  1  0  0  0  0
 12 28  1  0  0  0  0
 13 21  1  0  0  0  0
 13 14  1  0  0  0  0
 14 29  1  0  0  0  0
 15 16  2  0  0  0  0
 15 17  1  0  0  0  0
M  CHG  1   3   1
M  END
> <s_m_source_file>
AV-unprocessed.smi

> <i_m_source_file_index>
72

> <i_lp_mmshare_version>
43012

> <i_f3d_flags>
0

> <s_epik_input>
W05IMl1jMW5bY0hdbihjKD1PKW4xKVtDQEBIXTJPW0NASF0oW0NIMl1bT0hdKVtDQEBIXShbT0hdKVtDQEhdMltPSF0=

> <s_epik_cmdline>
J2VwaWtfcHl0aG9uJywgJy1waCcsICc3LjAnLCAnLXRuJywgJzgnLCAnLW1hJywgJzIwMCcsICctbWV0YWxfYmluZGluZycsICctaW1hZScsICc8aW5maWxlLm1hZT4nLCAnLW9tYWUnLCAnPG91dGZpbGUubWFlPic=

> <r_lp_tautomer_probability>
4.77166e-05

> <r_epik_Ionization_Penalty>
0.104979

> <r_epik_Ionization_Penalty_Charging>
0.0999619

> <r_epik_Ionization_Penalty_Neutral>
0.00501745

> <r_epik_State_Penalty>
2.51541

> <r_epik_Charging_Adjusted_Penalty>
2.61537

> <i_epik_Tot_Q>
1

> <i_epik_Tot_abs_Q>
1

> <r_epik_Metal_State_Penalty>
3.53763

> <b_epik_Metal_Only>
0

> <s_epik_Chemistry_Notes>
This compound contains an acetal/aminal-like group ( X-CH(R)-Y where X, Y are N, S, or O) that may be acid/base labile, releasing an aldehyde.

> <s_lp_Force_Field>
OPLS_2005

> <r_lp_Energy>
34.3488

> <b_lp_Chiralities_Consistent>
1

> <s_lp_Variant>
AV-unprocessed.smi:72-33

> <Gold.Version>
5.8.1

> <Gold.Id.Protein>
6NUR|6NUR_protein|mol2

> <Gold.PLP.Fitness>
42.2579

> <Gold.PLP.PLP>
-25.9457

> <Gold.PLP.part.hbond>
-7.7355

> <Gold.PLP.part.metal>
0.0000

> <Gold.PLP.part.buried>
-1.2708

> <Gold.PLP.part.nonpolar>
-17.5134

> <Gold.PLP.part.repulsive>
0.2234

> <Gold.PLP.ligand.clash>
0.6850

> <Gold.PLP.ligand.torsion>
0.0666

> <Gold.PLP.Chemscore.Hbond>
5.7038

> <Gold.PLP.Chemscore.CHOScore>
0.0000

> <Gold.PLP.Chemscore.Metal>
0.0000

> <Gold.Chemscore.Hbonds>
donor molecule, donor type, donor heavy atom, donor atom, acceptor molecule, acceptor atom, score
      L1  H    10    27       P1  8028  1.00
      L1  H    12    28       P1  8028  1.00
      L1  H    14    29       P1  7957  0.96
      P1  H  7997  8010       L1    16  0.99
      P1  H  8011  8017       L1    14  0.75
      P1  H 10752 10765       L1    17  0.36

> <Gold.PLP.Chemscore.Internal.Correction>
0.0190

> <Gold.Rescore>
     Score         DG    S(hbond)    S(metal)    S(lipo)     H(rot)  DE(clash)    DE(int)     intcor
      9.06     -10.98       3.74        0.00      29.46       4.08       1.47       0.45       ----

> <Gold.Chemscore.Fitness>
9.0627

> <Gold.Chemscore.DG>
-10.9829

> <Gold.Chemscore.ZeroCoef>
-5.4800

> <Gold.Chemscore.Hbond>
3.7414

> <Gold.Chemscore.Metal>
0.0000

> <Gold.Chemscore.Lipo>
29.4615

> <Gold.Chemscore.Internal_Hbond>
0.0000

> <Gold.Chemscore.DEClash>
1.4735

> <Gold.Chemscore.DEInternal>
0.4468

> <Gold.Chemscore.Rot>
4.0783

> <Gold.Chemscore.Internal.Correction>
   9.000000E+99

> <Gold.Chemscore.Hbonds>
donor molecule, donor type, donor heavy atom, donor atom, acceptor molecule, acceptor atom, score
      L1  H    10    27       P1  8028  0.78
      L1  H    12    28       P1  8028  0.97
      L1  H    14    29       P1  7957  0.88
      P1  H  7997  8010       L1    16  0.94
      P1  H  8011  8017       L1    14  0.09
      P1  H 10752 10765       L1    17  0.01

> <Gold.Chemscore.Hbond.Weighted>
-12.4963

> <Gold.Chemscore.Metal.Weighted>
-0.0000

> <Gold.Chemscore.Lipo.Weighted>
-3.4470

> <Gold.Chemscore.Internal_Hbond.Weighted>
0.0000

> <Gold.Chemscore.DEClash.Weighted>
1.4735

> <Gold.Chemscore.DEInternal.Weighted>
0.4468

> <Gold.Chemscore.Rot.Weighted>
10.4404

> <Gold.Chemscore.Internal.Correction.Weighted>
   9.000000E+99

> <Gold.Protein.RotatedTorsions>
[ 6907 6896 6895 6894 ] final -136.69 input  -60.11 | X-H torsion
[ 7974 7965 7964 7962 ] final -105.42 input  175.53 | X-H torsion
[ 8008 7997 7996 7995 ] final   98.76 input   59.86 | X-H torsion
[ 10167 10162 10161 10158 ] final  -53.07 input  -65.29 | X-H torsion
[ 10718 10713 10712 10709 ] final  118.69 input   66.30 | X-H torsion
[ 10763 10752 10751 10750 ] final -155.92 input  -60.55 | X-H torsion
[ 11005 11000 10999 10996 ] final  139.99 input  -57.11 | X-H torsion

> <Gold.Protein.ActiveResidues>
 VAL166  LYS551  ARG553  GLY616  TRP617  ASP618  TYR619  PRO620  LYS621  CYS622 
 ASP623  PHE694  ASN695  SER759  ASP760  ASP761  ALA762  ILE779  LEU786  VAL792 
 PHE793  MET794  SER795  GLU796  ALA797  LYS798  CYS799  TRP800  GLU811  SER814 

> <Gold.Protein.RotatedAtoms>
  151.0132  133.5946  159.2679 H   0  0  0  0  0  0  0  0  0  0  0  0  # atno 6907 bound_to 6896
  151.3090  135.0788  159.9275 H   0  0  0  0  0  0  0  0  0  0  0  0  # atno 6908 bound_to 6896
  152.5305  133.9800  159.7856 H   0  0  0  0  0  0  0  0  0  0  0  0  # atno 6909 bound_to 6896
  145.2307  140.9169  143.3206 H   0  0  0  0  0  0  0  0  0  0  0  0  # atno 7974 bound_to 7965
  156.1037  140.3239  155.7977 H   0  0  0  0  0  0  0  0  0  0  0  0  # atno 8008 bound_to 7997
  155.4792  140.0552  157.2986 H   0  0  0  0  0  0  0  0  0  0  0  0  # atno 8009 bound_to 7997
  154.4714  140.2013  156.0001 H   0  0  0  0  0  0  0  0  0  0  0  0  # atno 8010 bound_to 7997
  140.6504  143.2562  151.4740 H   0  0  0  0  0  0  0  0  0  0  0  0  # atno 10167 bound_to 10162
  157.6013  131.1050  150.7792 H   0  0  0  0  0  0  0  0  0  0  0  0  # atno 10718 bound_to 10713
  154.7751  135.3157  154.8108 H   0  0  0  0  0  0  0  0  0  0  0  0  # atno 10763 bound_to 10752
  153.8834  135.6832  153.4769 H   0  0  0  0  0  0  0  0  0  0  0  0  # atno 10764 bound_to 10752
  153.1373  135.4754  154.9378 H   0  0  0  0  0  0  0  0  0  0  0  0  # atno 10765 bound_to 10752
  140.0294  134.9359  157.0633 H   0  0  0  0  0  0  0  0  0  0  0  0  # atno 11005 bound_to 11000
  144.9679  139.3911  143.6323 LP  0  0  0  0  0  0  0  0  0  0  0  0  # atno 17320 bound_to 7965
  146.3353  139.8763  142.8831 LP  0  0  0  0  0  0  0  0  0  0  0  0  # atno 17321 bound_to 7965
  139.5718  144.1910  152.1848 LP  0  0  0  0  0  0  0  0  0  0  0  0  # atno 17342 bound_to 10162
  140.1209  144.5374  150.6864 LP  0  0  0  0  0  0  0  0  0  0  0  0  # atno 17343 bound_to 10162
  156.8190  130.4978  149.5345 LP  0  0  0  0  0  0  0  0  0  0  0  0  # atno 17370 bound_to 10713
  156.1087  130.6024  151.0012 LP  0  0  0  0  0  0  0  0  0  0  0  0  # atno 17371 bound_to 10713
  140.4251  134.1840  155.7166 LP  0  0  0  0  0  0  0  0  0  0  0  0  # atno 17394 bound_to 11000
  141.1822  133.8389  157.1217 LP  0  0  0  0  0  0  0  0  0  0  0  0  # atno 17395 bound_to 11000

$$$$
