AV-unprocessed.smi:201|AV-procd|sdf|1580|dock4
  -GOLD-   2262019463D 1   1.00000     0.00000
 Structure written by MMmdl.
 59 61  0  0  0  0  0  0  0  0  1 V2000
  146.2439  136.7858  162.1574 C   0  0  0  0  0  0  0  0  0  0  0  0
  145.4488  135.4879  161.9195 C   0  0  0  0  0  0  0  0  0  0  0  0
  146.0722  134.3641  162.7763 C   0  0  0  0  0  0  0  0  0  0  0  0
  145.3868  135.1359  160.4898 N   0  0  0  0  0  0  0  0  0  0  0  0
  144.3429  134.2327  159.9962 C   0  0  0  0  0  0  0  0  0  0  0  0
  143.0328  134.9532  159.6170 C   0  0  0  0  0  0  0  0  0  0  0  0
  142.0421  134.0324  159.1831 O   0  0  0  0  0  0  0  0  0  0  0  0
  141.8397  132.9346  160.0621 C   0  0  0  0  0  0  0  0  0  0  0  0
  141.7110  131.6520  159.2324 C   0  0  0  0  0  0  0  0  0  0  0  0
  140.4752  131.0248  159.5004 O   0  0  0  0  0  0  0  0  0  0  0  0
  146.5574  134.9443  159.8322 C   0  0  0  0  0  0  0  0  0  0  0  0
  146.9505  133.6612  159.6312 N   0  0  0  0  0  0  0  0  0  0  0  0
  148.0992  133.4016  159.0002 C   0  0  0  0  0  0  0  0  0  0  0  0
  148.9927  134.2607  158.5062 N   0  0  0  0  0  0  0  0  0  0  0  0
  148.6086  135.5522  158.7178 C   0  0  0  0  0  0  0  0  0  0  0  0
  147.4159  135.9819  159.3652 C   0  0  0  0  0  0  0  0  0  0  0  0
  147.3722  137.3708  159.3966 N   0  0  0  0  0  0  0  0  0  0  0  0
  148.4676  137.7397  158.7917 C   0  0  0  0  0  0  0  0  0  0  0  0
  149.2795  136.7119  158.3686 N   0  0  0  0  0  0  0  0  0  0  0  0
  150.5515  136.8324  157.6703 C   0  0  0  0  0  0  0  0  0  0  0  0
  150.5259  137.6737  156.3564 C   0  0  0  0  0  0  0  0  0  0  0  0
  149.3716  137.1221  155.4717 C   0  0  0  0  0  0  0  0  0  0  0  0
  149.7491  135.9659  154.7500 O   0  0  0  0  0  0  0  0  0  0  0  0
  150.3346  139.1834  156.6570 C   0  0  0  0  0  0  0  0  0  0  0  0
  150.4918  140.0617  155.4023 C   0  0  0  0  0  0  0  0  0  0  0  0
  151.7714  139.8469  154.8198 O   0  0  0  0  0  0  0  0  0  0  0  0
  151.9706  138.5056  154.3904 C   0  0  0  0  0  0  0  0  0  0  0  0
  151.8697  137.5460  155.5914 C   0  0  0  0  0  0  0  0  0  0  0  0
  146.3262  137.0046  163.2225 H   0  0  0  0  0  0  0  0  0  0  0  0
  145.7603  137.6489  161.7002 H   0  0  0  0  0  0  0  0  0  0  0  0
  147.2553  136.7117  161.7561 H   0  0  0  0  0  0  0  0  0  0  0  0
  144.4335  135.6611  162.2750 H   0  0  0  0  0  0  0  0  0  0  0  0
  146.1472  134.6658  163.8213 H   0  0  0  0  0  0  0  0  0  0  0  0
  147.0773  134.1184  162.4322 H   0  0  0  0  0  0  0  0  0  0  0  0
  145.4826  133.4480  162.7596 H   0  0  0  0  0  0  0  0  0  0  0  0
  144.7212  133.6811  159.1366 H   0  0  0  0  0  0  0  0  0  0  0  0
  144.1442  133.4725  160.7519 H   0  0  0  0  0  0  0  0  0  0  0  0
  142.6544  135.5610  160.4399 H   0  0  0  0  0  0  0  0  0  0  0  0
  143.2179  135.6359  158.7878 H   0  0  0  0  0  0  0  0  0  0  0  0
  142.6392  132.8402  160.7975 H   0  0  0  0  0  0  0  0  0  0  0  0
  140.9117  133.0955  160.6130 H   0  0  0  0  0  0  0  0  0  0  0  0
  141.7337  131.8954  158.1697 H   0  0  0  0  0  0  0  0  0  0  0  0
  142.5374  130.9675  159.4262 H   0  0  0  0  0  0  0  0  0  0  0  0
  140.0785  130.7847  158.6767 H   0  0  0  0  0  0  0  0  0  0  0  0
  148.3373  132.3556  158.8747 H   0  0  0  0  0  0  0  0  0  0  0  0
  148.7193  138.7799  158.6432 H   0  0  0  0  0  0  0  0  0  0  0  0
  151.2712  137.2611  158.3691 H   0  0  0  0  0  0  0  0  0  0  0  0
  150.9059  135.8215  157.4649 H   0  0  0  0  0  0  0  0  0  0  0  0
  148.4897  136.8664  156.0560 H   0  0  0  0  0  0  0  0  0  0  0  0
  149.0499  137.8789  154.7554 H   0  0  0  0  0  0  0  0  0  0  0  0
  149.5394  136.0993  153.8381 H   0  0  0  0  0  0  0  0  0  0  0  0
  149.3663  139.3668  157.1233 H   0  0  0  0  0  0  0  0  0  0  0  0
  151.0808  139.5182  157.3762 H   0  0  0  0  0  0  0  0  0  0  0  0
  149.7047  139.8698  154.6727 H   0  0  0  0  0  0  0  0  0  0  0  0
  150.4097  141.1136  155.6763 H   0  0  0  0  0  0  0  0  0  0  0  0
  151.2607  138.2510  153.6037 H   0  0  0  0  0  0  0  0  0  0  0  0
  152.9622  138.4308  153.9435 H   0  0  0  0  0  0  0  0  0  0  0  0
  152.7039  137.7814  156.2512 H   0  0  0  0  0  0  0  0  0  0  0  0
  152.0242  136.5178  155.2627 H   0  0  0  0  0  0  0  0  0  0  0  0
  1  2  1  0  0  0  0
  1 29  1  0  0  0  0
  1 30  1  0  0  0  0
  1 31  1  0  0  0  0
  2  3  1  0  0  0  0
  2  4  1  0  0  0  0
  2 32  1  0  0  0  0
  3 33  1  0  0  0  0
  3 34  1  0  0  0  0
  3 35  1  0  0  0  0
  4  5  1  0  0  0  0
  4 11  1  0  0  0  0
  5  6  1  0  0  0  0
  5 36  1  0  0  0  0
  5 37  1  0  0  0  0
  6  7  1  0  0  0  0
  6 38  1  0  0  0  0
  6 39  1  0  0  0  0
  7  8  1  0  0  0  0
  8  9  1  0  0  0  0
  8 40  1  0  0  0  0
  8 41  1  0  0  0  0
  9 10  1  0  0  0  0
  9 42  1  0  0  0  0
  9 43  1  0  0  0  0
 10 44  1  0  0  0  0
 11 16  1  0  0  0  0
 11 12  2  0  0  0  0
 12 13  1  0  0  0  0
 13 14  2  0  0  0  0
 13 45  1  0  0  0  0
 14 15  1  0  0  0  0
 15 19  1  0  0  0  0
 15 16  2  0  0  0  0
 16 17  1  0  0  0  0
 17 18  2  0  0  0  0
 18 19  1  0  0  0  0
 18 46  1  0  0  0  0
 19 20  1  0  0  0  0
 20 21  1  0  0  0  0
 20 47  1  0  0  0  0
 20 48  1  0  0  0  0
 21 28  1  0  0  0  0
 21 22  1  0  0  0  0
 21 24  1  0  0  0  0
 22 23  1  0  0  0  0
 22 49  1  0  0  0  0
 22 50  1  0  0  0  0
 23 51  1  0  0  0  0
 24 25  1  0  0  0  0
 24 52  1  0  0  0  0
 24 53  1  0  0  0  0
 25 26  1  0  0  0  0
 25 54  1  0  0  0  0
 25 55  1  0  0  0  0
 26 27  1  0  0  0  0
 27 28  1  0  0  0  0
 27 56  1  0  0  0  0
 27 57  1  0  0  0  0
 28 58  1  0  0  0  0
 28 59  1  0  0  0  0
M  END
> <s_m_source_file>
AV-unprocessed.smi

> <i_m_source_file_index>
201

> <i_lp_mmshare_version>
43012

> <i_f3d_flags>
0

> <s_epik_input>
W09IXVtDSDJdW0NIMl1PW0NIMl1bQ0gyXU4oW0NIXShbQ0gzXSlbQ0gzXSljKG5bY0hdbjEpYyhjMTIpbltjSF1uMltDSDJdQzMoW0NIMl1bT0hdKVtDSDJdW0NIMl1PW0NIMl1bQ0gyXTM=

> <s_epik_cmdline>
J2VwaWtfcHl0aG9uJywgJy1waCcsICc3LjAnLCAnLXRuJywgJzgnLCAnLW1hJywgJzIwMCcsICctbWV0YWxfYmluZGluZycsICctaW1hZScsICc8aW5maWxlLm1hZT4nLCAnLW9tYWUnLCAnPG91dGZpbGUubWFlPic=

> <r_lp_tautomer_probability>
1

> <r_epik_Ionization_Penalty>
0.00276835

> <r_epik_Ionization_Penalty_Charging>
0

> <r_epik_Ionization_Penalty_Neutral>
0.00276835

> <r_epik_State_Penalty>
0.00179834

> <r_epik_Charging_Adjusted_Penalty>
0.00179834

> <i_epik_Tot_Q>
0

> <i_epik_Tot_abs_Q>
0

> <r_epik_Metal_State_Penalty>
-0

> <b_epik_Metal_Only>
0

> <s_lp_Force_Field>
OPLS_2005

> <r_lp_Energy>
32.5455

> <b_lp_Chiralities_Consistent>
1

> <s_lp_Variant>
AV-unprocessed.smi:201-1

> <Gold.Version>
5.8.1

> <Gold.Id.Protein>
6NUR|6NUR_protein|mol2

> <Gold.PLP.Fitness>
45.7287

> <Gold.PLP.PLP>
-32.7839

> <Gold.PLP.part.hbond>
-6.8082

> <Gold.PLP.part.metal>
0.0000

> <Gold.PLP.part.buried>
-6.2899

> <Gold.PLP.part.nonpolar>
-20.7381

> <Gold.PLP.part.repulsive>
0.0553

> <Gold.PLP.ligand.clash>
0.0000

> <Gold.PLP.ligand.torsion>
2.2885

> <Gold.PLP.Chemscore.Hbond>
5.4499

> <Gold.PLP.Chemscore.CHOScore>
0.0000

> <Gold.PLP.Chemscore.Metal>
0.0000

> <Gold.Chemscore.Hbonds>
donor molecule, donor type, donor heavy atom, donor atom, acceptor molecule, acceptor atom, score
      L1  H    10    44       P1 10998  0.99
      L1  H    23    51       P1  7948  0.99
      P1  H  6896  6909       L1    14  1.00
      P1  H  6934  6947       L1    17  0.37
      P1  H  7989  7998       L1    26  1.00
      P1  H 11000 11005       L1     7  1.00

> <Gold.PLP.Chemscore.Internal.Correction>
1.1721

> <Gold.Rescore>
     Score         DG    S(hbond)    S(metal)    S(lipo)     H(rot)  DE(clash)    DE(int)     intcor
     12.00     -14.57       3.88        0.00      69.23       4.68       0.06       2.51       ----

> <Gold.Chemscore.Fitness>
12.0039

> <Gold.Chemscore.DG>
-14.5704

> <Gold.Chemscore.ZeroCoef>
-5.4800

> <Gold.Chemscore.Hbond>
3.8815

> <Gold.Chemscore.Metal>
0.0000

> <Gold.Chemscore.Lipo>
69.2260

> <Gold.Chemscore.Internal_Hbond>
0.0000

> <Gold.Chemscore.DEClash>
0.0604

> <Gold.Chemscore.DEInternal>
2.5061

> <Gold.Chemscore.Rot>
4.6771

> <Gold.Chemscore.Internal.Correction>
   9.000000E+99

> <Gold.Chemscore.Hbonds>
donor molecule, donor type, donor heavy atom, donor atom, acceptor molecule, acceptor atom, score
      L1  H    10    44       P1 10998  0.92
      L1  H    23    51       P1  7948  0.51
      P1  H  6896  6909       L1    14  0.54
      P1  H  6934  6947       L1    17  0.09
      P1  H  7989  7998       L1    26  0.18
      P1  H 11000 11005       L1     7  0.92

> <Gold.Chemscore.Hbond.Weighted>
-12.9643

> <Gold.Chemscore.Metal.Weighted>
-0.0000

> <Gold.Chemscore.Lipo.Weighted>
-8.0994

> <Gold.Chemscore.Internal_Hbond.Weighted>
0.0000

> <Gold.Chemscore.DEClash.Weighted>
0.0604

> <Gold.Chemscore.DEInternal.Weighted>
2.5061

> <Gold.Chemscore.Rot.Weighted>
11.9733

> <Gold.Chemscore.Internal.Correction.Weighted>
   9.000000E+99

> <Gold.Protein.RotatedTorsions>
[ 6907 6896 6895 6894 ] final    7.77 input  -60.11 | X-H torsion
[ 7974 7965 7964 7962 ] final  -68.33 input  175.53 | X-H torsion
[ 8008 7997 7996 7995 ] final  178.79 input   59.86 | X-H torsion
[ 10167 10162 10161 10158 ] final  -82.94 input  -65.29 | X-H torsion
[ 10718 10713 10712 10709 ] final -141.19 input   66.30 | X-H torsion
[ 10763 10752 10751 10750 ] final  152.77 input  -60.55 | X-H torsion
[ 11005 11000 10999 10996 ] final -132.57 input  -57.11 | X-H torsion

> <Gold.Protein.ActiveResidues>
 VAL166  LYS551  ARG553  GLY616  TRP617  ASP618  TYR619  PRO620  LYS621  CYS622 
 ASP623  PHE694  ASN695  SER759  ASP760  ASP761  ALA762  ILE779  LEU786  VAL792 
 PHE793  MET794  SER795  GLU796  ALA797  LYS798  CYS799  TRP800  GLU811  SER814 

> <Gold.Protein.RotatedAtoms>
  151.6952  135.0939  160.0240 H   0  0  0  0  0  0  0  0  0  0  0  0  # atno 6907 bound_to 6896
  152.3754  133.6470  159.6128 H   0  0  0  0  0  0  0  0  0  0  0  0  # atno 6908 bound_to 6896
  150.7705  133.9118  159.3413 H   0  0  0  0  0  0  0  0  0  0  0  0  # atno 6909 bound_to 6896
  145.7178  140.9051  143.0646 H   0  0  0  0  0  0  0  0  0  0  0  0  # atno 7974 bound_to 7965
  156.0507  140.1324  157.0053 H   0  0  0  0  0  0  0  0  0  0  0  0  # atno 8008 bound_to 7997
  154.4433  140.1011  156.6442 H   0  0  0  0  0  0  0  0  0  0  0  0  # atno 8009 bound_to 7997
  155.5528  140.3463  155.4475 H   0  0  0  0  0  0  0  0  0  0  0  0  # atno 8010 bound_to 7997
  140.4273  143.2561  151.8808 H   0  0  0  0  0  0  0  0  0  0  0  0  # atno 10167 bound_to 10162
  156.3311  130.7587  151.1705 H   0  0  0  0  0  0  0  0  0  0  0  0  # atno 10718 bound_to 10713
  154.1253  135.2830  155.3198 H   0  0  0  0  0  0  0  0  0  0  0  0  # atno 10763 bound_to 10752
  154.6394  135.5408  153.7775 H   0  0  0  0  0  0  0  0  0  0  0  0  # atno 10764 bound_to 10752
  153.0299  135.6482  154.1406 H   0  0  0  0  0  0  0  0  0  0  0  0  # atno 10765 bound_to 10752
  140.9158  134.1509  157.4354 H   0  0  0  0  0  0  0  0  0  0  0  0  # atno 11005 bound_to 11000
  144.6924  139.9161  143.7466 LP  0  0  0  0  0  0  0  0  0  0  0  0  # atno 17320 bound_to 7965
  146.0653  139.3645  143.0556 LP  0  0  0  0  0  0  0  0  0  0  0  0  # atno 17321 bound_to 7965
  139.4784  144.5373  151.8580 LP  0  0  0  0  0  0  0  0  0  0  0  0  # atno 17342 bound_to 10162
  140.4467  144.1912  150.5894 LP  0  0  0  0  0  0  0  0  0  0  0  0  # atno 17343 bound_to 10162
  157.7430  131.0481  150.4977 LP  0  0  0  0  0  0  0  0  0  0  0  0  # atno 17370 bound_to 10713
  156.5143  130.4147  149.6284 LP  0  0  0  0  0  0  0  0  0  0  0  0  # atno 17371 bound_to 10713
  139.8766  134.9953  156.5736 LP  0  0  0  0  0  0  0  0  0  0  0  0  # atno 17394 bound_to 11000
  140.8052  133.8473  155.8761 LP  0  0  0  0  0  0  0  0  0  0  0  0  # atno 17395 bound_to 11000

$$$$
