AV-unprocessed.smi:2924|AV-procd|sdf|11219|dock1
  -GOLD-   2272016113D 1   1.00000     0.00000
 Structure written by MMmdl.
 29 31  0  0  0  0  0  0  0  0  1 V2000
  154.0986  140.4582  160.2722 N   0  0  0  0  0  0  0  0  0  0  0  0
  153.4931  141.3014  159.7612 C   0  0  0  0  0  0  0  0  0  0  0  0
  152.7300  142.3644  159.1183 C   0  0  0  0  0  0  0  0  0  0  0  0
  152.8063  143.6727  159.6406 C   0  0  0  0  0  0  0  0  0  0  0  0
  152.0680  144.7009  159.0267 C   0  0  0  0  0  0  0  0  0  0  0  0
  151.2791  144.3770  157.9079 C   0  0  0  0  0  0  0  0  0  0  0  0
  151.1984  143.1307  157.3976 N   0  0  0  0  0  0  0  0  0  0  0  0
  151.9049  142.1340  157.9849 C   0  0  0  0  0  0  0  0  0  0  0  0
  151.8028  140.8456  157.4292 N   0  0  0  0  0  0  0  0  0  0  0  0
  151.5944  140.6511  155.9974 C   0  0  1  0  0  0  0  0  0  0  0  0
  152.3766  139.4609  155.4370 C   0  0  0  0  0  0  0  0  0  0  0  0
  151.2695  138.6526  154.7455 C   0  0  1  0  0  0  0  0  0  0  0  0
  150.3874  137.9191  155.7639 C   0  0  0  0  0  0  0  0  0  0  0  0
  149.5865  139.0712  156.3668 C   0  0  0  0  0  0  0  0  0  0  0  0
  150.1487  140.2836  155.6048 C   0  0  2  0  0  0  0  0  0  0  0  0
  150.3901  139.6886  154.3407 O   0  0  0  0  0  0  0  0  0  0  0  0
  153.4210  143.8915  160.5021 H   0  0  0  0  0  0  0  0  0  0  0  0
  152.1051  145.7122  159.4038 H   0  0  0  0  0  0  0  0  0  0  0  0
  150.6978  145.1383  157.4091 H   0  0  0  0  0  0  0  0  0  0  0  0
  151.5969  140.0707  158.0433 H   0  0  0  0  0  0  0  0  0  0  0  0
  151.9015  141.5498  155.4605 H   0  0  0  0  0  0  0  0  0  0  0  0
  153.1176  139.8040  154.7145 H   0  0  0  0  0  0  0  0  0  0  0  0
  152.8941  138.8749  156.1979 H   0  0  0  0  0  0  0  0  0  0  0  0
  151.6255  138.0197  153.9323 H   0  0  0  0  0  0  0  0  0  0  0  0
  149.7235  137.2116  155.2658 H   0  0  0  0  0  0  0  0  0  0  0  0
  150.9728  137.3753  156.5062 H   0  0  0  0  0  0  0  0  0  0  0  0
  148.5245  138.9449  156.1531 H   0  0  0  0  0  0  0  0  0  0  0  0
  149.7027  139.1521  157.4478 H   0  0  0  0  0  0  0  0  0  0  0  0
  149.4683  141.1350  155.5705 H   0  0  0  0  0  0  0  0  0  0  0  0
  1  2  3  0  0  0  0
  2  3  1  0  0  0  0
  3  8  1  0  0  0  0
  3  4  2  0  0  0  0
  4  5  1  0  0  0  0
  4 17  1  0  0  0  0
  5  6  2  0  0  0  0
  5 18  1  0  0  0  0
  6  7  1  0  0  0  0
  6 19  1  0  0  0  0
  7  8  2  0  0  0  0
  8  9  1  0  0  0  0
  9 10  1  0  0  0  0
  9 20  1  0  0  0  0
 10 15  1  0  0  0  0
 10 11  1  0  0  0  0
 10 21  1  0  0  0  0
 11 12  1  0  0  0  0
 11 22  1  0  0  0  0
 11 23  1  0  0  0  0
 12 16  1  0  0  0  0
 12 13  1  0  0  0  0
 12 24  1  0  0  0  0
 13 14  1  0  0  0  0
 13 25  1  0  0  0  0
 13 26  1  0  0  0  0
 14 15  1  0  0  0  0
 14 27  1  0  0  0  0
 14 28  1  0  0  0  0
 15 16  1  0  0  0  0
 15 29  1  0  0  0  0
M  END
> <s_m_source_file>
AV-unprocessed.smi

> <i_m_source_file_index>
2924

> <i_lp_mmshare_version>
43012

> <i_f3d_flags>
0

> <s_epik_input>
TiNDYzFbY0hdW2NIXVtjSF1uYzFbTkhdW0NASF0oW0NIMl1bQ0BASF0yMylbQ0BASF0oTzMpW0NIMl1bQ0gyXTI=

> <s_epik_cmdline>
J2VwaWtfcHl0aG9uJywgJy1waCcsICc3LjAnLCAnLXRuJywgJzgnLCAnLW1hJywgJzIwMCcsICctbWV0YWxfYmluZGluZycsICctaW1hZScsICc8aW5maWxlLm1hZT4nLCAnLW9tYWUnLCAnPG91dGZpbGUubWFlPic=

> <r_lp_tautomer_probability>
1

> <r_epik_Ionization_Penalty>
2.11559e-05

> <r_epik_Ionization_Penalty_Charging>
0

> <r_epik_Ionization_Penalty_Neutral>
2.11559e-05

> <r_epik_State_Penalty>
-0

> <r_epik_Charging_Adjusted_Penalty>
0

> <i_epik_Tot_Q>
0

> <i_epik_Tot_abs_Q>
0

> <r_epik_Metal_State_Penalty>
-0

> <b_epik_Metal_Only>
0

> <s_lp_Force_Field>
OPLS_2005

> <r_lp_Energy>
42.6424

> <b_lp_Chiralities_Consistent>
1

> <s_lp_Variant>
AV-unprocessed.smi:2924-2

> <Gold.Version>
5.8.1

> <Gold.Id.Protein>
6NUR|6NUR_protein|mol2

> <Gold.PLP.Fitness>
39.0673

> <Gold.PLP.PLP>
-34.2803

> <Gold.PLP.part.hbond>
-1.0000

> <Gold.PLP.part.metal>
0.0000

> <Gold.PLP.part.buried>
-4.8223

> <Gold.PLP.part.nonpolar>
-29.0969

> <Gold.PLP.part.repulsive>
0.3513

> <Gold.PLP.ligand.clash>
0.0000

> <Gold.PLP.ligand.torsion>
0.4813

> <Gold.PLP.Chemscore.Hbond>
1.0000

> <Gold.PLP.Chemscore.CHOScore>
0.9122

> <Gold.PLP.Chemscore.Metal>
0.0000

> <Gold.Chemscore.Hbonds>
donor molecule, donor type, donor heavy atom, donor atom, acceptor molecule, acceptor atom, score
      P1  H  7989  7998       L1    16  1.00
      L1  C     6    19       P1  8028  0.88
      L1  C     6    19       P1  8029  0.01

> <Gold.PLP.Chemscore.Internal.Correction>
0.0131

> <Gold.Rescore>
     Score         DG    S(hbond)    S(metal)    S(lipo)     H(rot)  DE(clash)    DE(int)     intcor
     14.05     -14.47       0.49        0.00      84.82       1.00       0.02       0.40       ----

> <Gold.Chemscore.Fitness>
14.0465

> <Gold.Chemscore.DG>
-14.4673

> <Gold.Chemscore.ZeroCoef>
-5.4800

> <Gold.Chemscore.Hbond>
0.4859

> <Gold.Chemscore.Metal>
0.0000

> <Gold.Chemscore.Lipo>
84.8248

> <Gold.Chemscore.Internal_Hbond>
0.0000

> <Gold.Chemscore.DEClash>
0.0183

> <Gold.Chemscore.DEInternal>
0.4025

> <Gold.Chemscore.Rot>
1.0000

> <Gold.Chemscore.Internal.Correction>
   9.000000E+99

> <Gold.Chemscore.Hbonds>
donor molecule, donor type, donor heavy atom, donor atom, acceptor molecule, acceptor atom, score
      P1  H  7989  7998       L1    16  0.13

> <Gold.Chemscore.Hbond.Weighted>
-1.6228

> <Gold.Chemscore.Metal.Weighted>
-0.0000

> <Gold.Chemscore.Lipo.Weighted>
-9.9245

> <Gold.Chemscore.Internal_Hbond.Weighted>
0.0000

> <Gold.Chemscore.DEClash.Weighted>
0.0183

> <Gold.Chemscore.DEInternal.Weighted>
0.4025

> <Gold.Chemscore.Rot.Weighted>
2.5600

> <Gold.Chemscore.Internal.Correction.Weighted>
   9.000000E+99

> <Gold.Protein.RotatedTorsions>
[ 6907 6896 6895 6894 ] final  -92.36 input  -60.11 | X-H torsion
[ 7974 7965 7964 7962 ] final -111.17 input  175.53 | X-H torsion
[ 8008 7997 7996 7995 ] final -138.09 input   59.86 | X-H torsion
[ 10167 10162 10161 10158 ] final   29.78 input  -65.29 | X-H torsion
[ 10718 10713 10712 10709 ] final   12.75 input   66.30 | X-H torsion
[ 10763 10752 10751 10750 ] final  111.96 input  -60.55 | X-H torsion
[ 11005 11000 10999 10996 ] final   64.50 input  -57.11 | X-H torsion

> <Gold.Protein.ActiveResidues>
 VAL166  LYS551  ARG553  GLY616  TRP617  ASP618  TYR619  PRO620  LYS621  CYS622 
 ASP623  PHE694  ASN695  SER759  ASP760  ASP761  ALA762  ILE779  LEU786  VAL792 
 PHE793  MET794  SER795  GLU796  ALA797  LYS798  CYS799  TRP800  GLU811  SER814 

> <Gold.Protein.RotatedAtoms>
  150.6905  134.2134  159.4367 H   0  0  0  0  0  0  0  0  0  0  0  0  # atno 6907 bound_to 6896
  152.0094  134.9882  160.0577 H   0  0  0  0  0  0  0  0  0  0  0  0  # atno 6908 bound_to 6896
  152.1503  133.4483  159.4847 H   0  0  0  0  0  0  0  0  0  0  0  0  # atno 6909 bound_to 6896
  145.1593  140.8870  143.3600 H   0  0  0  0  0  0  0  0  0  0  0  0  # atno 7974 bound_to 7965
  155.4227  140.0519  157.3024 H   0  0  0  0  0  0  0  0  0  0  0  0  # atno 8008 bound_to 7997
  154.4895  140.2114  155.9538 H   0  0  0  0  0  0  0  0  0  0  0  0  # atno 8009 bound_to 7997
  156.1323  140.3169  155.8372 H   0  0  0  0  0  0  0  0  0  0  0  0  # atno 8010 bound_to 7997
  140.4735  144.0725  150.6244 H   0  0  0  0  0  0  0  0  0  0  0  0  # atno 10167 bound_to 10162
  157.0147  130.6131  149.5713 H   0  0  0  0  0  0  0  0  0  0  0  0  # atno 10718 bound_to 10713
  153.4709  135.3701  155.2390 H   0  0  0  0  0  0  0  0  0  0  0  0  # atno 10763 bound_to 10752
  154.8757  135.3931  154.3813 H   0  0  0  0  0  0  0  0  0  0  0  0  # atno 10764 bound_to 10752
  153.4401  135.7084  153.6239 H   0  0  0  0  0  0  0  0  0  0  0  0  # atno 10765 bound_to 10752
  139.9954  134.6525  156.0018 H   0  0  0  0  0  0  0  0  0  0  0  0  # atno 11005 bound_to 11000
  145.0348  139.3310  143.6006 LP  0  0  0  0  0  0  0  0  0  0  0  0  # atno 17320 bound_to 7965
  146.3484  139.9699  142.8707 LP  0  0  0  0  0  0  0  0  0  0  0  0  # atno 17321 bound_to 7965
  140.3947  143.2734  152.0019 LP  0  0  0  0  0  0  0  0  0  0  0  0  # atno 17342 bound_to 10162
  139.4822  144.6048  151.7541 LP  0  0  0  0  0  0  0  0  0  0  0  0  # atno 17343 bound_to 10162
  156.0123  130.5216  150.8028 LP  0  0  0  0  0  0  0  0  0  0  0  0  # atno 17370 bound_to 10713
  157.5294  131.0936  150.9974 LP  0  0  0  0  0  0  0  0  0  0  0  0  # atno 17371 bound_to 10713
  141.1600  133.6539  156.4288 LP  0  0  0  0  0  0  0  0  0  0  0  0  # atno 17394 bound_to 11000
  140.4827  134.6649  157.5178 LP  0  0  0  0  0  0  0  0  0  0  0  0  # atno 17395 bound_to 11000

$$$$
