AV-unprocessed.smi:9|AV-procd|sdf|51|dock3
  -GOLD-   2262015173D 1   1.00000     0.00000
 Structure written by MMmdl.
 35 37  0  0  0  0  0  0  0  0  1 V2000
  152.7086  138.0305  154.8448 O   0  0  0  0  0  0  0  0  0  0  0  0
  152.3855  138.5804  155.8954 C   0  0  0  0  0  0  0  0  0  0  0  0
  152.7982  138.1660  157.1180 N   0  0  0  0  0  0  0  0  0  0  0  0
  152.4203  138.8036  158.3276 C   0  0  0  0  0  0  0  0  0  0  0  0
  153.0400  138.1101  159.5306 C   0  0  0  0  0  0  0  0  0  0  0  0
  152.1070  137.5246  160.2828 F   0  0  0  0  0  0  0  0  0  0  0  0
  153.9018  137.1722  159.1363 F   0  0  0  0  0  0  0  0  0  0  0  0
  153.6927  138.9902  160.2903 F   0  0  0  0  0  0  0  0  0  0  0  0
  151.6440  139.8515  158.4339 N   0  0  0  0  0  0  0  0  0  0  0  0
  151.2166  140.2926  157.1975 C   0  0  0  0  0  0  0  0  0  0  0  0
  151.5017  139.7704  155.9628 C   0  0  0  0  0  0  0  0  0  0  0  0
  150.8750  140.4899  154.9529 N   0  0  0  0  0  0  0  0  0  0  0  0
  150.2296  141.4332  155.6359 C   0  0  0  0  0  0  0  0  0  0  0  0
  150.3915  141.3899  156.9727 N   0  0  0  0  0  0  0  0  0  0  0  0
  149.8090  142.2918  157.9571 C   0  0  0  0  0  0  0  0  0  0  0  0
  150.7642  143.4138  158.4400 C   0  0  1  0  0  0  0  0  0  0  0  0
  151.2476  144.0824  157.2896 O   0  0  0  0  0  0  0  0  0  0  0  0
  150.0498  144.4309  159.3576 C   0  0  0  0  0  0  0  0  0  0  0  0
  151.0432  145.3761  160.0408 C   0  0  0  0  0  0  0  0  0  0  0  0
  152.1495  144.5709  160.7312 C   0  0  0  0  0  0  0  0  0  0  0  0
  152.8169  143.7734  159.7632 O   0  0  0  0  0  0  0  0  0  0  0  0
  151.9862  142.7880  159.1540 C   0  0  0  0  0  0  0  0  0  0  0  0
  153.4050  137.3604  157.1644 H   0  0  0  0  0  0  0  0  0  0  0  0
  149.6249  142.1841  155.1485 H   0  0  0  0  0  0  0  0  0  0  0  0
  148.9157  142.7338  157.5137 H   0  0  0  0  0  0  0  0  0  0  0  0
  149.4601  141.6988  158.8037 H   0  0  0  0  0  0  0  0  0  0  0  0
  150.5084  144.4354  156.8182 H   0  0  0  0  0  0  0  0  0  0  0  0
  149.3118  145.0107  158.8020 H   0  0  0  0  0  0  0  0  0  0  0  0
  149.4989  143.8912  160.1292 H   0  0  0  0  0  0  0  0  0  0  0  0
  151.4845  146.0490  159.3050 H   0  0  0  0  0  0  0  0  0  0  0  0
  150.5247  146.0035  160.7662 H   0  0  0  0  0  0  0  0  0  0  0  0
  152.8722  145.2450  161.1911 H   0  0  0  0  0  0  0  0  0  0  0  0
  151.7445  143.9438  161.5271 H   0  0  0  0  0  0  0  0  0  0  0  0
  151.6549  142.0941  159.9283 H   0  0  0  0  0  0  0  0  0  0  0  0
  152.5852  142.2035  158.4543 H   0  0  0  0  0  0  0  0  0  0  0  0
  1  2  2  0  0  0  0
  2 11  1  0  0  0  0
  2  3  1  0  0  0  0
  3 23  1  0  0  0  0
  3  4  1  0  0  0  0
  4  5  1  0  0  0  0
  4  9  2  0  0  0  0
  5  6  1  0  0  0  0
  5  7  1  0  0  0  0
  5  8  1  0  0  0  0
  9 10  1  0  0  0  0
 10 14  1  0  0  0  0
 10 11  2  0  0  0  0
 11 12  1  0  0  0  0
 12 13  2  0  0  0  0
 13 14  1  0  0  0  0
 13 24  1  0  0  0  0
 14 15  1  0  0  0  0
 15 16  1  0  0  0  0
 15 25  1  0  0  0  0
 15 26  1  0  0  0  0
 16 22  1  0  0  0  0
 16 17  1  0  0  0  0
 16 18  1  0  0  0  0
 17 27  1  0  0  0  0
 18 19  1  0  0  0  0
 18 28  1  0  0  0  0
 18 29  1  0  0  0  0
 19 20  1  0  0  0  0
 19 30  1  0  0  0  0
 19 31  1  0  0  0  0
 20 21  1  0  0  0  0
 20 32  1  0  0  0  0
 20 33  1  0  0  0  0
 21 22  1  0  0  0  0
 22 34  1  0  0  0  0
 22 35  1  0  0  0  0
M  END
> <s_m_source_file>
AV-unprocessed.smi

> <i_m_source_file_index>
9

> <i_lp_mmshare_version>
43012

> <i_f3d_flags>
0

> <s_epik_input>
RkMoRikoRiljKG4xKVtuSF1jKD1PKWMoYzEyKW5bY0hdbjJbQ0gyXVtDQEBdMyhbT0hdKVtDSDJdW0NIMl1bQ0gyXU9bQ0gyXTM=

> <s_epik_cmdline>
J2VwaWtfcHl0aG9uJywgJy1waCcsICc3LjAnLCAnLXRuJywgJzgnLCAnLW1hJywgJzIwMCcsICctbWV0YWxfYmluZGluZycsICctaW1hZScsICc8aW5maWxlLm1hZT4nLCAnLW9tYWUnLCAnPG91dGZpbGUubWFlPic=

> <r_lp_tautomer_probability>
0.85571

> <r_epik_Ionization_Penalty>
0.770127

> <r_epik_Ionization_Penalty_Charging>
0.770101

> <r_epik_Ionization_Penalty_Neutral>
2.64604e-05

> <r_epik_State_Penalty>
2.30539

> <r_epik_Charging_Adjusted_Penalty>
3.07549

> <i_epik_Tot_Q>
0

> <i_epik_Tot_abs_Q>
0

> <r_epik_Metal_State_Penalty>
2.4903

> <b_epik_Metal_Only>
0

> <s_lp_Force_Field>
OPLS_2005

> <r_lp_Energy>
27.1686

> <b_lp_Chiralities_Consistent>
1

> <s_lp_Variant>
AV-unprocessed.smi:9-3

> <Gold.Version>
5.8.1

> <Gold.Id.Protein>
6NUR|6NUR_protein|mol2

> <Gold.PLP.Fitness>
46.2698

> <Gold.PLP.PLP>
-38.8862

> <Gold.PLP.part.hbond>
-2.5643

> <Gold.PLP.part.metal>
0.0000

> <Gold.PLP.part.buried>
-8.1178

> <Gold.PLP.part.nonpolar>
-28.6449

> <Gold.PLP.part.repulsive>
0.2626

> <Gold.PLP.ligand.clash>
0.0000

> <Gold.PLP.ligand.torsion>
0.4749

> <Gold.PLP.Chemscore.Hbond>
2.0000

> <Gold.PLP.Chemscore.CHOScore>
0.7750

> <Gold.PLP.Chemscore.Metal>
0.0000

> <Gold.Chemscore.Hbonds>
donor molecule, donor type, donor heavy atom, donor atom, acceptor molecule, acceptor atom, score
      L1  H    17    27       P1  8028  1.00
      P1  H  7989  7998       L1    12  1.00
      L1  C    13    24       P1  8028  0.62

> <Gold.PLP.Chemscore.Internal.Correction>
0.0085

> <Gold.Rescore>
     Score         DG    S(hbond)    S(metal)    S(lipo)     H(rot)  DE(clash)    DE(int)     intcor
     13.29     -14.18       1.94        0.00      65.78       2.14       0.08       0.80       ----

> <Gold.Chemscore.Fitness>
13.2926

> <Gold.Chemscore.DG>
-14.1768

> <Gold.Chemscore.ZeroCoef>
-5.4800

> <Gold.Chemscore.Hbond>
1.9378

> <Gold.Chemscore.Metal>
0.0000

> <Gold.Chemscore.Lipo>
65.7761

> <Gold.Chemscore.Internal_Hbond>
0.0000

> <Gold.Chemscore.DEClash>
0.0832

> <Gold.Chemscore.DEInternal>
0.8009

> <Gold.Chemscore.Rot>
2.1373

> <Gold.Chemscore.Internal.Correction>
   9.000000E+99

> <Gold.Chemscore.Hbonds>
donor molecule, donor type, donor heavy atom, donor atom, acceptor molecule, acceptor atom, score
      L1  H    17    27       P1  8028  0.92
      P1  H  7989  7998       L1    12  0.92
      P1  H 10752 10763       L1     1  0.01

> <Gold.Chemscore.Hbond.Weighted>
-6.4724

> <Gold.Chemscore.Metal.Weighted>
-0.0000

> <Gold.Chemscore.Lipo.Weighted>
-7.6958

> <Gold.Chemscore.Internal_Hbond.Weighted>
0.0000

> <Gold.Chemscore.DEClash.Weighted>
0.0832

> <Gold.Chemscore.DEInternal.Weighted>
0.8009

> <Gold.Chemscore.Rot.Weighted>
5.4714

> <Gold.Chemscore.Internal.Correction.Weighted>
   9.000000E+99

> <Gold.Protein.RotatedTorsions>
[ 6907 6896 6895 6894 ] final -160.60 input  -60.11 | X-H torsion
[ 7974 7965 7964 7962 ] final  -43.84 input  175.53 | X-H torsion
[ 8008 7997 7996 7995 ] final   38.62 input   59.86 | X-H torsion
[ 10167 10162 10161 10158 ] final  157.06 input  -65.29 | X-H torsion
[ 10718 10713 10712 10709 ] final  163.51 input   66.30 | X-H torsion
[ 10763 10752 10751 10750 ] final   18.82 input  -60.55 | X-H torsion
[ 11005 11000 10999 10996 ] final    9.79 input  -57.11 | X-H torsion

> <Gold.Protein.ActiveResidues>
 VAL166  LYS551  ARG553  GLY616  TRP617  ASP618  TYR619  PRO620  LYS621  CYS622 
 ASP623  PHE694  ASN695  SER759  ASP760  ASP761  ALA762  ILE779  LEU786  VAL792 
 PHE793  MET794  SER795  GLU796  ALA797  LYS798  CYS799  TRP800  GLU811  SER814 

> <Gold.Protein.RotatedAtoms>
  151.3516  133.3923  159.2680 H   0  0  0  0  0  0  0  0  0  0  0  0  # atno 6907 bound_to 6896
  150.9796  134.9155  159.7847 H   0  0  0  0  0  0  0  0  0  0  0  0  # atno 6908 bound_to 6896
  152.5212  134.3480  159.9293 H   0  0  0  0  0  0  0  0  0  0  0  0  # atno 6909 bound_to 6896
  145.9979  140.7107  142.9285 H   0  0  0  0  0  0  0  0  0  0  0  0  # atno 7974 bound_to 7965
  155.2232  140.3332  155.4313 H   0  0  0  0  0  0  0  0  0  0  0  0  # atno 8008 bound_to 7997
  156.2325  140.1857  156.7253 H   0  0  0  0  0  0  0  0  0  0  0  0  # atno 8009 bound_to 7997
  154.6002  140.0624  156.9343 H   0  0  0  0  0  0  0  0  0  0  0  0  # atno 8010 bound_to 7997
  139.4822  144.4952  151.8251 H   0  0  0  0  0  0  0  0  0  0  0  0  # atno 10167 bound_to 10162
  157.1075  131.0459  151.2471 H   0  0  0  0  0  0  0  0  0  0  0  0  # atno 10718 bound_to 10713
  153.1215  135.6720  153.9327 H   0  0  0  0  0  0  0  0  0  0  0  0  # atno 10763 bound_to 10752
  153.8841  135.3055  155.3447 H   0  0  0  0  0  0  0  0  0  0  0  0  # atno 10764 bound_to 10752
  154.7626  135.4980  153.9573 H   0  0  0  0  0  0  0  0  0  0  0  0  # atno 10765 bound_to 10752
  140.5218  134.0551  155.7847 H   0  0  0  0  0  0  0  0  0  0  0  0  # atno 11005 bound_to 11000
  144.6910  140.3183  143.7236 LP  0  0  0  0  0  0  0  0  0  0  0  0  # atno 17320 bound_to 7965
  145.7531  139.1800  143.2310 LP  0  0  0  0  0  0  0  0  0  0  0  0  # atno 17321 bound_to 7965
  140.4439  144.1948  150.5893 LP  0  0  0  0  0  0  0  0  0  0  0  0  # atno 17342 bound_to 10162
  140.4654  143.2433  151.9162 LP  0  0  0  0  0  0  0  0  0  0  0  0  # atno 17343 bound_to 10162
  157.4588  130.7641  149.7217 LP  0  0  0  0  0  0  0  0  0  0  0  0  # atno 17370 bound_to 10713
  155.9858  130.3980  150.3242 LP  0  0  0  0  0  0  0  0  0  0  0  0  # atno 17371 bound_to 10713
  141.1330  133.9270  157.2495 LP  0  0  0  0  0  0  0  0  0  0  0  0  # atno 17394 bound_to 11000
  139.9602  135.0156  156.9239 LP  0  0  0  0  0  0  0  0  0  0  0  0  # atno 17395 bound_to 11000

$$$$
