AV-unprocessed.smi:2955|AV-procd|sdf|11301|dock9
  -GOLD-   2272016193D 1   1.00000     0.00000
 Structure written by MMmdl.
 45 47  0  0  0  0  0  0  0  0  1 V2000
  144.7815  144.5788  153.3216 C   0  0  0  0  0  0  0  0  0  0  0  0
  145.3171  143.4298  154.1504 C   0  0  0  0  0  0  0  0  0  0  0  0
  144.4567  142.6912  154.9864 C   0  0  0  0  0  0  0  0  0  0  0  0
  144.9661  141.6267  155.7525 C   0  0  0  0  0  0  0  0  0  0  0  0
  146.3331  141.2952  155.6851 C   0  0  0  0  0  0  0  0  0  0  0  0
  147.2083  142.0277  154.8440 C   0  0  0  0  0  0  0  0  0  0  0  0
  148.5553  141.7669  154.7116 O   0  0  0  0  0  0  0  0  0  0  0  0
  149.2185  141.0958  155.7745 C   0  0  0  0  0  0  0  0  0  0  0  0
  150.6602  140.7653  155.3639 C   0  0  0  0  0  0  0  0  0  0  0  0
  151.5183  140.5202  156.5159 N   0  0  0  0  0  0  0  0  0  0  0  0
  152.2943  139.4398  156.8006 C   0  0  0  0  0  0  0  0  0  0  0  0
  152.3933  138.2337  155.8994 C   0  0  2  0  0  0  0  0  0  0  0  0
  152.9073  138.5966  154.4988 C   0  0  0  0  0  0  0  0  0  0  0  0
  151.0757  137.6133  155.8101 N   0  0  0  0  0  0  0  0  0  0  0  0
  150.8338  136.3204  156.0592 C   0  0  0  0  0  0  0  0  0  0  0  0
  151.7088  135.5238  156.3882 O   0  0  0  0  0  0  0  0  0  0  0  0
  152.9987  139.5226  157.9327 N   0  0  0  0  0  0  0  0  0  0  0  0
  152.6240  140.7486  158.4424 C   0  0  0  0  0  0  0  0  0  0  0  0
  153.0126  141.4065  159.6312 C   0  0  0  0  0  0  0  0  0  0  0  0
  152.4861  142.6757  159.9489 C   0  0  0  0  0  0  0  0  0  0  0  0
  151.5671  143.3037  159.0839 C   0  0  0  0  0  0  0  0  0  0  0  0
  151.1689  142.6654  157.8934 C   0  0  0  0  0  0  0  0  0  0  0  0
  151.6965  141.3979  157.5813 C   0  0  0  0  0  0  0  0  0  0  0  0
  146.6845  143.0940  154.0839 C   0  0  0  0  0  0  0  0  0  0  0  0
  143.7524  144.8177  153.5914 H   0  0  0  0  0  0  0  0  0  0  0  0
  144.8066  144.3227  152.2623 H   0  0  0  0  0  0  0  0  0  0  0  0
  145.3880  145.4716  153.4744 H   0  0  0  0  0  0  0  0  0  0  0  0
  143.4063  142.9369  155.0437 H   0  0  0  0  0  0  0  0  0  0  0  0
  144.3062  141.0612  156.3935 H   0  0  0  0  0  0  0  0  0  0  0  0
  146.6843  140.4716  156.2875 H   0  0  0  0  0  0  0  0  0  0  0  0
  149.2307  141.7295  156.6624 H   0  0  0  0  0  0  0  0  0  0  0  0
  148.6960  140.1719  156.0277 H   0  0  0  0  0  0  0  0  0  0  0  0
  150.6931  139.9162  154.6827 H   0  0  0  0  0  0  0  0  0  0  0  0
  151.0762  141.6024  154.8025 H   0  0  0  0  0  0  0  0  0  0  0  0
  153.0894  137.5049  156.3106 H   0  0  0  0  0  0  0  0  0  0  0  0
  153.8806  139.0833  154.5551 H   0  0  0  0  0  0  0  0  0  0  0  0
  152.2279  139.2786  153.9864 H   0  0  0  0  0  0  0  0  0  0  0  0
  153.0162  137.7073  153.8774 H   0  0  0  0  0  0  0  0  0  0  0  0
  150.3013  138.2064  155.5496 H   0  0  0  0  0  0  0  0  0  0  0  0
  149.7692  136.0692  155.9307 H   0  0  0  0  0  0  0  0  0  0  0  0
  153.7156  140.9331  160.3004 H   0  0  0  0  0  0  0  0  0  0  0  0
  152.7885  143.1694  160.8607 H   0  0  0  0  0  0  0  0  0  0  0  0
  151.1681  144.2758  159.3343 H   0  0  0  0  0  0  0  0  0  0  0  0
  150.4647  143.1444  157.2297 H   0  0  0  0  0  0  0  0  0  0  0  0
  147.3414  143.6629  153.4425 H   0  0  0  0  0  0  0  0  0  0  0  0
  1  2  1  0  0  0  0
  1 25  1  0  0  0  0
  1 26  1  0  0  0  0
  1 27  1  0  0  0  0
  2 24  1  0  0  0  0
  2  3  2  0  0  0  0
  3  4  1  0  0  0  0
  3 28  1  0  0  0  0
  4  5  2  0  0  0  0
  4 29  1  0  0  0  0
  5  6  1  0  0  0  0
  5 30  1  0  0  0  0
  6  7  1  0  0  0  0
  6 24  2  0  0  0  0
  7  8  1  0  0  0  0
  8  9  1  0  0  0  0
  8 31  1  0  0  0  0
  8 32  1  0  0  0  0
  9 10  1  0  0  0  0
  9 33  1  0  0  0  0
  9 34  1  0  0  0  0
 10 23  1  0  0  0  0
 10 11  1  0  0  0  0
 11 12  1  0  0  0  0
 11 17  2  0  0  0  0
 12 13  1  0  0  0  0
 12 14  1  0  0  0  0
 12 35  1  0  0  0  0
 13 36  1  0  0  0  0
 13 37  1  0  0  0  0
 13 38  1  0  0  0  0
 14 15  1  0  0  0  0
 14 39  1  0  0  0  0
 15 16  2  0  0  0  0
 15 40  1  0  0  0  0
 17 18  1  0  0  0  0
 18 23  2  0  0  0  0
 18 19  1  0  0  0  0
 19 20  2  0  0  0  0
 19 41  1  0  0  0  0
 20 21  1  0  0  0  0
 20 42  1  0  0  0  0
 21 22  2  0  0  0  0
 21 43  1  0  0  0  0
 22 23  1  0  0  0  0
 22 44  1  0  0  0  0
 24 45  1  0  0  0  0
M  END
> <s_m_source_file>
AV-unprocessed.smi

> <i_m_source_file_index>
2955

> <i_lp_mmshare_version>
43012

> <i_f3d_flags>
0

> <s_epik_input>
W0NIM11jMVtjSF1bY0hdW2NIXWMoW2NIXTEpT1tDSDJdW0NIMl1uKGMobjIpW0NASF0oW0NIM10pW05IXVtDSF09TyljKGMyMylbY0hdW2NIXVtjSF1bY0hdMw==

> <s_epik_cmdline>
J2VwaWtfcHl0aG9uJywgJy1waCcsICc3LjAnLCAnLXRuJywgJzgnLCAnLW1hJywgJzIwMCcsICctbWV0YWxfYmluZGluZycsICctaW1hZScsICc8aW5maWxlLm1hZT4nLCAnLW9tYWUnLCAnPG91dGZpbGUubWFlPic=

> <r_lp_tautomer_probability>
1

> <r_epik_Ionization_Penalty>
0.0917757

> <r_epik_Ionization_Penalty_Charging>
0

> <r_epik_Ionization_Penalty_Neutral>
0.0917757

> <r_epik_State_Penalty>
0.0820948

> <r_epik_Charging_Adjusted_Penalty>
0.0820948

> <i_epik_Tot_Q>
0

> <i_epik_Tot_abs_Q>
0

> <r_epik_Metal_State_Penalty>
0.0709956

> <b_epik_Metal_Only>
0

> <s_lp_Force_Field>
OPLS_2005

> <r_lp_Energy>
12.8811

> <b_lp_Chiralities_Consistent>
1

> <s_lp_Variant>
AV-unprocessed.smi:2955-1

> <Gold.Version>
5.8.1

> <Gold.Id.Protein>
6NUR|6NUR_protein|mol2

> <Gold.PLP.Fitness>
48.1440

> <Gold.PLP.PLP>
-43.4106

> <Gold.PLP.part.hbond>
-2.0000

> <Gold.PLP.part.metal>
0.0000

> <Gold.PLP.part.buried>
-1.6316

> <Gold.PLP.part.nonpolar>
-40.2748

> <Gold.PLP.part.repulsive>
0.5977

> <Gold.PLP.ligand.clash>
0.0000

> <Gold.PLP.ligand.torsion>
0.5457

> <Gold.PLP.Chemscore.Hbond>
1.9120

> <Gold.PLP.Chemscore.CHOScore>
0.0000

> <Gold.PLP.Chemscore.Metal>
0.0000

> <Gold.Chemscore.Hbonds>
donor molecule, donor type, donor heavy atom, donor atom, acceptor molecule, acceptor atom, score
      P1  H  7997  8010       L1    17  0.88
      P1  H 10752 10765       L1    16  1.00

> <Gold.PLP.Chemscore.Internal.Correction>
0.0887

> <Gold.Rescore>
     Score         DG    S(hbond)    S(metal)    S(lipo)     H(rot)  DE(clash)    DE(int)     intcor
     15.05     -15.58       0.96        0.00     108.44       2.26       0.04       0.50       ----

> <Gold.Chemscore.Fitness>
15.0465

> <Gold.Chemscore.DG>
-15.5845

> <Gold.Chemscore.ZeroCoef>
-5.4800

> <Gold.Chemscore.Hbond>
0.9603

> <Gold.Chemscore.Metal>
0.0000

> <Gold.Chemscore.Lipo>
108.4407

> <Gold.Chemscore.Internal_Hbond>
0.0000

> <Gold.Chemscore.DEClash>
0.0350

> <Gold.Chemscore.DEInternal>
0.5029

> <Gold.Chemscore.Rot>
2.2619

> <Gold.Chemscore.Internal.Correction>
   9.000000E+99

> <Gold.Chemscore.Hbonds>
donor molecule, donor type, donor heavy atom, donor atom, acceptor molecule, acceptor atom, score
      P1  H  7997  8010       L1    17  0.04
      P1  H 10752 10765       L1    16  0.84

> <Gold.Chemscore.Hbond.Weighted>
-3.2075

> <Gold.Chemscore.Metal.Weighted>
-0.0000

> <Gold.Chemscore.Lipo.Weighted>
-12.6876

> <Gold.Chemscore.Internal_Hbond.Weighted>
0.0000

> <Gold.Chemscore.DEClash.Weighted>
0.0350

> <Gold.Chemscore.DEInternal.Weighted>
0.5029

> <Gold.Chemscore.Rot.Weighted>
5.7906

> <Gold.Chemscore.Internal.Correction.Weighted>
   9.000000E+99

> <Gold.Protein.RotatedTorsions>
[ 6907 6896 6895 6894 ] final  -52.46 input  -60.11 | X-H torsion
[ 7974 7965 7964 7962 ] final  -99.83 input  175.53 | X-H torsion
[ 8008 7997 7996 7995 ] final   20.93 input   59.86 | X-H torsion
[ 10167 10162 10161 10158 ] final  -92.51 input  -65.29 | X-H torsion
[ 10718 10713 10712 10709 ] final  -30.64 input   66.30 | X-H torsion
[ 10763 10752 10751 10750 ] final -145.20 input  -60.55 | X-H torsion
[ 11005 11000 10999 10996 ] final  124.31 input  -57.11 | X-H torsion

> <Gold.Protein.ActiveResidues>
 VAL166  LYS551  ARG553  GLY616  TRP617  ASP618  TYR619  PRO620  LYS621  CYS622 
 ASP623  PHE694  ASN695  SER759  ASP760  ASP761  ALA762  ILE779  LEU786  VAL792 
 PHE793  MET794  SER795  GLU796  ALA797  LYS798  CYS799  TRP800  GLU811  SER814 

> <Gold.Protein.RotatedAtoms>
  150.8516  134.7842  159.7012 H   0  0  0  0  0  0  0  0  0  0  0  0  # atno 6907 bound_to 6896
  152.4579  134.5247  159.9803 H   0  0  0  0  0  0  0  0  0  0  0  0  # atno 6908 bound_to 6896
  151.5367  133.3401  159.2963 H   0  0  0  0  0  0  0  0  0  0  0  0  # atno 6909 bound_to 6896
  145.3024  140.9380  143.2816 H   0  0  0  0  0  0  0  0  0  0  0  0  # atno 7974 bound_to 7965
  154.9430  140.3055  155.5111 H   0  0  0  0  0  0  0  0  0  0  0  0  # atno 8008 bound_to 7997
  156.2994  140.2333  156.4438 H   0  0  0  0  0  0  0  0  0  0  0  0  # atno 8009 bound_to 7997
  154.8127  140.0427  157.1343 H   0  0  0  0  0  0  0  0  0  0  0  0  # atno 8010 bound_to 7997
  140.3341  143.2978  151.9909 H   0  0  0  0  0  0  0  0  0  0  0  0  # atno 10167 bound_to 10162
  156.3973  130.4384  149.7349 H   0  0  0  0  0  0  0  0  0  0  0  0  # atno 10718 bound_to 10713
  154.8394  135.3419  154.6467 H   0  0  0  0  0  0  0  0  0  0  0  0  # atno 10763 bound_to 10752
  153.7079  135.6965  153.5050 H   0  0  0  0  0  0  0  0  0  0  0  0  # atno 10764 bound_to 10752
  153.2473  135.4365  155.0715 H   0  0  0  0  0  0  0  0  0  0  0  0  # atno 10765 bound_to 10752
  139.9352  134.9640  156.8389 H   0  0  0  0  0  0  0  0  0  0  0  0  # atno 11005 bound_to 11000
  144.9082  139.4562  143.6599 LP  0  0  0  0  0  0  0  0  0  0  0  0  # atno 17320 bound_to 7965
  146.3147  139.7876  142.8992 LP  0  0  0  0  0  0  0  0  0  0  0  0  # atno 17321 bound_to 7965
  139.4851  144.6211  151.7254 LP  0  0  0  0  0  0  0  0  0  0  0  0  # atno 17342 bound_to 10162
  140.5370  144.0640  150.6074 LP  0  0  0  0  0  0  0  0  0  0  0  0  # atno 17343 bound_to 10162
  156.4379  130.7847  151.2868 LP  0  0  0  0  0  0  0  0  0  0  0  0  # atno 17370 bound_to 10713
  157.7502  131.0134  150.3422 LP  0  0  0  0  0  0  0  0  0  0  0  0  # atno 17371 bound_to 10713
  140.6094  134.0097  155.7570 LP  0  0  0  0  0  0  0  0  0  0  0  0  # atno 17394 bound_to 11000
  141.0963  133.9839  157.3155 LP  0  0  0  0  0  0  0  0  0  0  0  0  # atno 17395 bound_to 11000

$$$$
