AV-unprocessed.smi:1543|AV-procd|sdf|6205|dock5
  -GOLD-   22720 6373D 1   1.00000     0.00000
 Structure written by MMmdl.
 48 49  0  0  0  0  0  0  0  0  1 V2000
  151.7919  137.9125  154.0927 C   0  0  0  0  0  0  0  0  0  0  0  0
  150.7472  138.7857  154.7962 C   0  0  2  0  0  0  0  0  0  0  0  0
  149.3716  138.7068  154.1093 C   0  0  0  0  0  0  0  0  0  0  0  0
  148.3963  139.6125  154.7229 N   0  0  0  0  0  0  0  0  0  0  0  0
  147.0004  139.4706  154.2208 C   0  0  0  0  0  0  0  0  0  0  0  0
  146.0354  140.5254  154.8130 C   0  0  0  0  0  0  0  0  0  0  0  0
  146.9453  139.6120  152.6783 C   0  0  0  0  0  0  0  0  0  0  0  0
  146.4113  138.0674  154.5488 C   0  0  0  0  0  0  0  0  0  0  0  0
  146.7462  137.0724  153.5298 N   0  0  0  0  0  0  0  0  0  0  0  0
  145.8844  136.2476  152.9195 C   0  0  0  0  0  0  0  0  0  0  0  0
  144.6801  136.2133  153.1699 O   0  0  0  0  0  0  0  0  0  0  0  0
  146.5170  135.4732  152.0213 N   0  0  0  0  0  0  0  0  0  0  0  0
  145.9833  134.4569  151.1822 C   0  0  0  0  0  0  0  0  0  0  0  0
  146.6447  133.2449  150.8661 C   0  0  0  0  0  0  0  0  0  0  0  0
  145.9971  132.3155  150.0289 C   0  0  0  0  0  0  0  0  0  0  0  0
  144.7117  132.6263  149.5455 C   0  0  0  0  0  0  0  0  0  0  0  0
  144.0641  133.7708  149.8484 N   0  0  0  0  0  0  0  0  0  0  0  0
  144.6913  134.6570  150.6509 C   0  0  0  0  0  0  0  0  0  0  0  0
  148.9341  140.9767  154.6740 C   0  0  0  0  0  0  0  0  0  0  0  0
  150.3200  141.0932  155.3367 C   0  0  1  0  0  0  0  0  0  0  0  0
  150.2641  141.0090  156.8718 C   0  0  0  0  0  0  0  0  0  0  0  0
  151.2164  140.1316  154.7807 O   0  0  0  0  0  0  0  0  0  0  0  0
  151.4860  136.8661  154.0812 H   0  0  0  0  0  0  0  0  0  0  0  0
  152.7548  137.9714  154.6008 H   0  0  0  0  0  0  0  0  0  0  0  0
  151.9401  138.2295  153.0602 H   0  0  0  0  0  0  0  0  0  0  0  0
  150.6568  138.4464  155.8286 H   0  0  0  0  0  0  0  0  0  0  0  0
  149.4866  138.9419  153.0508 H   0  0  0  0  0  0  0  0  0  0  0  0
  149.0343  137.6738  154.1685 H   0  0  0  0  0  0  0  0  0  0  0  0
  145.0271  140.3989  154.4167 H   0  0  0  0  0  0  0  0  0  0  0  0
  146.3413  141.5435  154.5724 H   0  0  0  0  0  0  0  0  0  0  0  0
  145.9584  140.4495  155.8974 H   0  0  0  0  0  0  0  0  0  0  0  0
  145.9669  139.3329  152.2854 H   0  0  0  0  0  0  0  0  0  0  0  0
  147.6837  138.9755  152.1890 H   0  0  0  0  0  0  0  0  0  0  0  0
  147.1218  140.6356  152.3487 H   0  0  0  0  0  0  0  0  0  0  0  0
  146.7770  137.7011  155.5079 H   0  0  0  0  0  0  0  0  0  0  0  0
  145.3304  138.1394  154.6822 H   0  0  0  0  0  0  0  0  0  0  0  0
  147.7157  137.0299  153.2517 H   0  0  0  0  0  0  0  0  0  0  0  0
  147.5190  135.5869  151.9721 H   0  0  0  0  0  0  0  0  0  0  0  0
  147.6217  133.0013  151.2521 H   0  0  0  0  0  0  0  0  0  0  0  0
  146.4742  131.3827  149.7663 H   0  0  0  0  0  0  0  0  0  0  0  0
  144.1878  131.9348  148.9023 H   0  0  0  0  0  0  0  0  0  0  0  0
  144.1421  135.5606  150.8727 H   0  0  0  0  0  0  0  0  0  0  0  0
  149.0198  141.3020  153.6370 H   0  0  0  0  0  0  0  0  0  0  0  0
  148.2682  141.6828  155.1663 H   0  0  0  0  0  0  0  0  0  0  0  0
  150.7295  142.0720  155.0865 H   0  0  0  0  0  0  0  0  0  0  0  0
  149.6614  141.8200  157.2813 H   0  0  0  0  0  0  0  0  0  0  0  0
  151.2622  141.0890  157.3027 H   0  0  0  0  0  0  0  0  0  0  0  0
  149.8242  140.0732  157.2162 H   0  0  0  0  0  0  0  0  0  0  0  0
  1  2  1  0  0  0  0
  1 23  1  0  0  0  0
  1 24  1  0  0  0  0
  1 25  1  0  0  0  0
  2 22  1  0  0  0  0
  2  3  1  0  0  0  0
  2 26  1  0  0  0  0
  3  4  1  0  0  0  0
  3 27  1  0  0  0  0
  3 28  1  0  0  0  0
  4  5  1  0  0  0  0
  4 19  1  0  0  0  0
  5  6  1  0  0  0  0
  5  7  1  0  0  0  0
  5  8  1  0  0  0  0
  6 29  1  0  0  0  0
  6 30  1  0  0  0  0
  6 31  1  0  0  0  0
  7 32  1  0  0  0  0
  7 33  1  0  0  0  0
  7 34  1  0  0  0  0
  8  9  1  0  0  0  0
  8 35  1  0  0  0  0
  8 36  1  0  0  0  0
  9 10  1  0  0  0  0
  9 37  1  0  0  0  0
 10 11  2  0  0  0  0
 10 12  1  0  0  0  0
 12 13  1  0  0  0  0
 12 38  1  0  0  0  0
 13 18  1  0  0  0  0
 13 14  2  0  0  0  0
 14 15  1  0  0  0  0
 14 39  1  0  0  0  0
 15 16  2  0  0  0  0
 15 40  1  0  0  0  0
 16 17  1  0  0  0  0
 16 41  1  0  0  0  0
 17 18  2  0  0  0  0
 18 42  1  0  0  0  0
 19 20  1  0  0  0  0
 19 43  1  0  0  0  0
 19 44  1  0  0  0  0
 20 21  1  0  0  0  0
 20 22  1  0  0  0  0
 20 45  1  0  0  0  0
 21 46  1  0  0  0  0
 21 47  1  0  0  0  0
 21 48  1  0  0  0  0
M  END
> <s_m_source_file>
AV-unprocessed.smi

> <i_m_source_file_index>
1543

> <i_lp_mmshare_version>
43012

> <i_f3d_flags>
0

> <s_epik_input>
W0NIM11bQ0BASF0xW0NIMl1OKFtDSDJdW0NASF0oTzEpW0NIM10pQyhbQ0gzXSkoW0NIM10pW0NIMl1bTkhdQyg9TylbTkhdYzJbY0hdW2NIXVtjSF1uW2NIXTI=

> <s_epik_cmdline>
J2VwaWtfcHl0aG9uJywgJy1waCcsICc3LjAnLCAnLXRuJywgJzgnLCAnLW1hJywgJzIwMCcsICctbWV0YWxfYmluZGluZycsICctaW1hZScsICc8aW5maWxlLm1hZT4nLCAnLW9tYWUnLCAnPG91dGZpbGUubWFlPic=

> <r_epik_Ionization_Penalty>
0.270794

> <r_epik_Ionization_Penalty_Charging>
0

> <r_epik_Ionization_Penalty_Neutral>
0.270794

> <r_epik_State_Penalty>
0.268291

> <r_epik_Charging_Adjusted_Penalty>
0.268291

> <i_epik_Tot_Q>
0

> <i_epik_Tot_abs_Q>
0

> <r_epik_Metal_State_Penalty>
0.264827

> <b_epik_Metal_Only>
0

> <s_lp_Force_Field>
OPLS_2005

> <r_lp_Energy>
46.6988

> <b_lp_Chiralities_Consistent>
1

> <s_lp_Variant>
AV-unprocessed.smi:1543-1

> <Gold.Version>
5.8.1

> <Gold.Id.Protein>
6NUR|6NUR_protein|mol2

> <Gold.PLP.Fitness>
40.5959

> <Gold.PLP.PLP>
-36.1465

> <Gold.PLP.part.hbond>
-2.9243

> <Gold.PLP.part.metal>
0.0000

> <Gold.PLP.part.buried>
-2.2512

> <Gold.PLP.part.nonpolar>
-30.7509

> <Gold.PLP.part.repulsive>
0.5231

> <Gold.PLP.ligand.clash>
2.3033

> <Gold.PLP.ligand.torsion>
0.9262

> <Gold.PLP.Chemscore.Hbond>
2.8480

> <Gold.PLP.Chemscore.CHOScore>
0.0000

> <Gold.PLP.Chemscore.Metal>
0.0000

> <Gold.Chemscore.Hbonds>
donor molecule, donor type, donor heavy atom, donor atom, acceptor molecule, acceptor atom, score
      L1  H     9    37       P1  7948  0.85
      L1  H    12    38       P1  7948  1.00
      P1  H  7989  7998       L1    22  1.00

> <Gold.PLP.Chemscore.Internal.Correction>
0.0612

> <Gold.Rescore>
     Score         DG    S(hbond)    S(metal)    S(lipo)     H(rot)  DE(clash)    DE(int)     intcor
     19.67     -21.95       2.54        0.00      99.51       1.43       0.21       2.07       ----

> <Gold.Chemscore.Fitness>
19.6693

> <Gold.Chemscore.DG>
-21.9452

> <Gold.Chemscore.ZeroCoef>
-5.4800

> <Gold.Chemscore.Hbond>
2.5393

> <Gold.Chemscore.Metal>
0.0000

> <Gold.Chemscore.Lipo>
99.5074

> <Gold.Chemscore.Internal_Hbond>
0.0000

> <Gold.Chemscore.DEClash>
0.2092

> <Gold.Chemscore.DEInternal>
2.0667

> <Gold.Chemscore.Rot>
1.4291

> <Gold.Chemscore.Internal.Correction>
   9.000000E+99

> <Gold.Chemscore.Hbonds>
donor molecule, donor type, donor heavy atom, donor atom, acceptor molecule, acceptor atom, score
      L1  H     9    37       P1  7948  0.79
      L1  H    12    38       P1  7948  0.94
      P1  H  7989  7998       L1    22  0.24

> <Gold.Chemscore.Hbond.Weighted>
-8.4814

> <Gold.Chemscore.Metal.Weighted>
-0.0000

> <Gold.Chemscore.Lipo.Weighted>
-11.6424

> <Gold.Chemscore.Internal_Hbond.Weighted>
0.0000

> <Gold.Chemscore.DEClash.Weighted>
0.2092

> <Gold.Chemscore.DEInternal.Weighted>
2.0667

> <Gold.Chemscore.Rot.Weighted>
3.6586

> <Gold.Chemscore.Internal.Correction.Weighted>
   9.000000E+99

> <Gold.Protein.RotatedTorsions>
[ 6907 6896 6895 6894 ] final -131.45 input  -60.11 | X-H torsion
[ 7974 7965 7964 7962 ] final   67.28 input  175.53 | X-H torsion
[ 8008 7997 7996 7995 ] final -170.07 input   59.86 | X-H torsion
[ 10167 10162 10161 10158 ] final   25.79 input  -65.29 | X-H torsion
[ 10718 10713 10712 10709 ] final  -40.85 input   66.30 | X-H torsion
[ 10763 10752 10751 10750 ] final  127.42 input  -60.55 | X-H torsion
[ 11005 11000 10999 10996 ] final  -61.74 input  -57.11 | X-H torsion

> <Gold.Protein.ActiveResidues>
 VAL166  LYS551  ARG553  GLY616  TRP617  ASP618  TYR619  PRO620  LYS621  CYS622 
 ASP623  PHE694  ASN695  SER759  ASP760  ASP761  ALA762  ILE779  LEU786  VAL792 
 PHE793  MET794  SER795  GLU796  ALA797  LYS798  CYS799  TRP800  GLU811  SER814 

> <Gold.Protein.RotatedAtoms>
  150.9511  133.6548  159.2771 H   0  0  0  0  0  0  0  0  0  0  0  0  # atno 6907 bound_to 6896
  151.3903  135.0954  159.9534 H   0  0  0  0  0  0  0  0  0  0  0  0  # atno 6908 bound_to 6896
  152.5110  133.9027  159.7504 H   0  0  0  0  0  0  0  0  0  0  0  0  # atno 6909 bound_to 6896
  145.8166  139.3061  143.1068 H   0  0  0  0  0  0  0  0  0  0  0  0  # atno 7974 bound_to 7965
  155.9134  140.1061  157.1262 H   0  0  0  0  0  0  0  0  0  0  0  0  # atno 8008 bound_to 7997
  154.4043  140.1270  156.4651 H   0  0  0  0  0  0  0  0  0  0  0  0  # atno 8009 bound_to 7997
  155.7283  140.3469  155.5050 H   0  0  0  0  0  0  0  0  0  0  0  0  # atno 8010 bound_to 7997
  140.5076  144.0212  150.6359 H   0  0  0  0  0  0  0  0  0  0  0  0  # atno 10167 bound_to 10162
  156.2768  130.4212  149.8379 H   0  0  0  0  0  0  0  0  0  0  0  0  # atno 10718 bound_to 10713
  153.7091  135.3271  155.3242 H   0  0  0  0  0  0  0  0  0  0  0  0  # atno 10763 bound_to 10752
  154.8390  135.4472  154.1332 H   0  0  0  0  0  0  0  0  0  0  0  0  # atno 10764 bound_to 10752
  153.2421  135.6972  153.7851 H   0  0  0  0  0  0  0  0  0  0  0  0  # atno 10765 bound_to 10752
  141.1335  133.6633  156.5422 H   0  0  0  0  0  0  0  0  0  0  0  0  # atno 11005 bound_to 11000
  145.9720  140.8752  143.0157 LP  0  0  0  0  0  0  0  0  0  0  0  0  # atno 17320 bound_to 7965
  144.6752  140.1959  143.7392 LP  0  0  0  0  0  0  0  0  0  0  0  0  # atno 17321 bound_to 7965
  140.3526  143.2954  152.0471 LP  0  0  0  0  0  0  0  0  0  0  0  0  # atno 17342 bound_to 10162
  139.4888  144.6362  151.6970 LP  0  0  0  0  0  0  0  0  0  0  0  0  # atno 17343 bound_to 10162
  156.5841  130.8478  151.3391 LP  0  0  0  0  0  0  0  0  0  0  0  0  # atno 17370 bound_to 10713
  157.7302  130.9681  150.1820 LP  0  0  0  0  0  0  0  0  0  0  0  0  # atno 17371 bound_to 10713
  140.4131  134.7255  157.4847 LP  0  0  0  0  0  0  0  0  0  0  0  0  # atno 17394 bound_to 11000
  140.0413  134.6263  155.8977 LP  0  0  0  0  0  0  0  0  0  0  0  0  # atno 17395 bound_to 11000

$$$$
