AV-unprocessed.smi:2419|AV-procd|sdf|9553|dock2
  -GOLD-   2272013183D 1   1.00000     0.00000
 Structure written by MMmdl.
 27 28  0  0  0  0  0  0  0  0  2 V2000
  151.1629  141.0762  157.7919 O   0  0  0  0  0  0  0  0  0  0  0  0
  150.8345  142.0949  157.1795 C   0  0  0  0  0  0  0  0  0  0  0  0
  150.0316  142.0006  156.1116 N   0  0  0  0  0  0  0  0  0  0  0  0
  149.4742  140.7604  155.5837 C   0  0  0  0  0  0  0  0  0  0  0  0
  148.6468  141.0168  154.3173 C   0  0  0  0  0  0  0  0  0  0  0  0
  149.5835  141.0370  153.2575 O   0  0  0  0  0  0  0  0  0  0  0  0
  147.4521  140.0816  154.0537 C   0  0  0  0  0  0  0  0  0  0  0  0
  146.6352  141.2881  153.5878 C   0  0  0  0  0  0  0  0  0  0  0  0
  147.6411  142.1840  154.3122 C   0  0  0  0  0  0  0  0  0  0  0  0
  151.2065  143.3621  157.4723 N   0  5  0  0  0  0  0  0  0  0  0  0
  151.6261  143.6700  158.7105 C   0  0  0  0  0  0  0  0  0  0  0  0
  151.5492  144.9044  159.2212 N   0  0  0  0  0  0  0  0  0  0  0  0
  152.0481  144.9992  160.5216 C   0  0  0  0  0  0  0  0  0  0  0  0
  152.5258  143.8115  161.0089 C   0  0  0  0  0  0  0  0  0  0  0  0
  152.3605  142.5304  159.8423 S   0  0  0  0  0  0  0  0  0  0  0  0
  149.7892  142.8540  155.6302 H   0  0  0  0  0  0  0  0  0  0  0  0
  150.2763  140.0416  155.4051 H   0  0  0  0  0  0  0  0  0  0  0  0
  148.8425  140.3225  156.3579 H   0  0  0  0  0  0  0  0  0  0  0  0
  149.3477  140.3378  152.6677 H   0  0  0  0  0  0  0  0  0  0  0  0
  147.6185  139.3292  153.2820 H   0  0  0  0  0  0  0  0  0  0  0  0
  147.0494  139.6323  154.9629 H   0  0  0  0  0  0  0  0  0  0  0  0
  146.6562  141.4196  152.5050 H   0  0  0  0  0  0  0  0  0  0  0  0
  145.6201  141.3311  153.9833 H   0  0  0  0  0  0  0  0  0  0  0  0
  147.3071  142.4622  155.3132 H   0  0  0  0  0  0  0  0  0  0  0  0
  147.9567  143.0582  153.7416 H   0  0  0  0  0  0  0  0  0  0  0  0
  152.0258  145.9541  161.0252 H   0  0  0  0  0  0  0  0  0  0  0  0
  152.9629  143.6126  161.9757 H   0  0  0  0  0  0  0  0  0  0  0  0
  1  2  2  0  0  0  0
  2  3  1  0  0  0  0
  2 10  1  0  0  0  0
  3  4  1  0  0  0  0
  3 16  1  0  0  0  0
  4  5  1  0  0  0  0
  4 17  1  0  0  0  0
  4 18  1  0  0  0  0
  5  9  1  0  0  0  0
  5  6  1  0  0  0  0
  5  7  1  0  0  0  0
  6 19  1  0  0  0  0
  7  8  1  0  0  0  0
  7 20  1  0  0  0  0
  7 21  1  0  0  0  0
  8  9  1  0  0  0  0
  8 22  1  0  0  0  0
  8 23  1  0  0  0  0
  9 24  1  0  0  0  0
  9 25  1  0  0  0  0
 10 11  1  0  0  0  0
 11 15  1  0  0  0  0
 11 12  2  0  0  0  0
 12 13  1  0  0  0  0
 13 14  2  0  0  0  0
 13 26  1  0  0  0  0
 14 15  1  0  0  0  0
 14 27  1  0  0  0  0
M  CHG  1  10  -1
M  END
> <s_m_source_file>
AV-unprocessed.smi

> <i_m_source_file_index>
2419

> <i_lp_mmshare_version>
43012

> <i_f3d_flags>
0

> <s_epik_input>
czFbY0hdW2NIXW5jMVtOSF1DKD1PKVtOSF1bQ0gyXUMyKFtPSF0pW0NIMl1bQ0gyXVtDSDJdMg==

> <s_epik_cmdline>
J2VwaWtfcHl0aG9uJywgJy1waCcsICc3LjAnLCAnLXRuJywgJzgnLCAnLW1hJywgJzIwMCcsICctbWV0YWxfYmluZGluZycsICctaW1hZScsICc8aW5maWxlLm1hZT4nLCAnLW9tYWUnLCAnPG91dGZpbGUubWFlPic=

> <r_lp_tautomer_probability>
0.999

> <r_epik_Ionization_Penalty>
8.31551

> <r_epik_Ionization_Penalty_Charging>
6.6872

> <r_epik_Ionization_Penalty_Neutral>
1.62831

> <r_epik_State_Penalty>
6.68737

> <r_epik_Charging_Adjusted_Penalty>
13.3746

> <i_epik_Tot_Q>
-1

> <i_epik_Tot_abs_Q>
1

> <r_epik_Metal_State_Penalty>
2.60943

> <b_epik_Metal_Only>
1

> <s_lp_Force_Field>
OPLS_2005

> <r_lp_Energy>
8.45088

> <b_lp_Chiralities_Consistent>
1

> <s_lp_Variant>
AV-unprocessed.smi:2419-2

> <Gold.Version>
5.8.1

> <Gold.Id.Protein>
6NUR|6NUR_protein|mol2

> <Gold.PLP.Fitness>
39.2368

> <Gold.PLP.PLP>
-31.6488

> <Gold.PLP.part.hbond>
-3.2439

> <Gold.PLP.part.metal>
0.0000

> <Gold.PLP.part.buried>
-3.9695

> <Gold.PLP.part.nonpolar>
-25.4375

> <Gold.PLP.part.repulsive>
0.3537

> <Gold.PLP.ligand.clash>
0.0000

> <Gold.PLP.ligand.torsion>
0.6212

> <Gold.PLP.Chemscore.Hbond>
2.9109

> <Gold.PLP.Chemscore.CHOScore>
0.0000

> <Gold.PLP.Chemscore.Metal>
0.0000

> <Gold.Chemscore.Hbonds>
donor molecule, donor type, donor heavy atom, donor atom, acceptor molecule, acceptor atom, score
      L1  H     3    16       P1  8028  0.89
      L1  H     6    19       P1  7957  0.69
      P1  H  7989  7998       L1     6  0.16
      P1  H  8011  8017       L1     6  1.00

> <Gold.PLP.Chemscore.Internal.Correction>
0.0977

> <Gold.Rescore>
     Score         DG    S(hbond)    S(metal)    S(lipo)     H(rot)  DE(clash)    DE(int)     intcor
     14.58     -16.93       2.45        0.00      68.86       1.88       0.17       2.18       ----

> <Gold.Chemscore.Fitness>
14.5765

> <Gold.Chemscore.DG>
-16.9257

> <Gold.Chemscore.ZeroCoef>
-5.4800

> <Gold.Chemscore.Hbond>
2.4531

> <Gold.Chemscore.Metal>
0.0000

> <Gold.Chemscore.Lipo>
68.8610

> <Gold.Chemscore.Internal_Hbond>
0.0000

> <Gold.Chemscore.DEClash>
0.1673

> <Gold.Chemscore.DEInternal>
2.1820

> <Gold.Chemscore.Rot>
1.8767

> <Gold.Chemscore.Internal.Correction>
   9.000000E+99

> <Gold.Chemscore.Hbonds>
donor molecule, donor type, donor heavy atom, donor atom, acceptor molecule, acceptor atom, score
      L1  H     3    16       P1  8028  0.82
      L1  H     6    19       P1  7957  0.65
      P1  H  7989  7998       L1     6  0.08
      P1  H  8011  8017       L1     6  0.59

> <Gold.Chemscore.Hbond.Weighted>
-8.1933

> <Gold.Chemscore.Metal.Weighted>
-0.0000

> <Gold.Chemscore.Lipo.Weighted>
-8.0567

> <Gold.Chemscore.Internal_Hbond.Weighted>
0.0000

> <Gold.Chemscore.DEClash.Weighted>
0.1673

> <Gold.Chemscore.DEInternal.Weighted>
2.1820

> <Gold.Chemscore.Rot.Weighted>
4.8043

> <Gold.Chemscore.Internal.Correction.Weighted>
   9.000000E+99

> <Gold.Protein.RotatedTorsions>
[ 6907 6896 6895 6894 ] final  -42.49 input  -60.11 | X-H torsion
[ 7974 7965 7964 7962 ] final  -68.16 input  175.53 | X-H torsion
[ 8008 7997 7996 7995 ] final  179.89 input   59.86 | X-H torsion
[ 10167 10162 10161 10158 ] final  -26.11 input  -65.29 | X-H torsion
[ 10718 10713 10712 10709 ] final  176.98 input   66.30 | X-H torsion
[ 10763 10752 10751 10750 ] final  -76.00 input  -60.55 | X-H torsion
[ 11005 11000 10999 10996 ] final   62.16 input  -57.11 | X-H torsion

> <Gold.Protein.ActiveResidues>
 VAL166  LYS551  ARG553  GLY616  TRP617  ASP618  TYR619  PRO620  LYS621  CYS622 
 ASP623  PHE694  ASN695  SER759  ASP760  ASP761  ALA762  ILE779  LEU786  VAL792 
 PHE793  MET794  SER795  GLU796  ALA797  LYS798  CYS799  TRP800  GLU811  SER814 

> <Gold.Protein.RotatedAtoms>
  150.9546  134.8942  159.7692 H   0  0  0  0  0  0  0  0  0  0  0  0  # atno 6907 bound_to 6896
  152.5133  134.3758  159.9344 H   0  0  0  0  0  0  0  0  0  0  0  0  # atno 6908 bound_to 6896
  151.3772  133.3793  159.2741 H   0  0  0  0  0  0  0  0  0  0  0  0  # atno 6909 bound_to 6896
  145.7201  140.9042  143.0635 H   0  0  0  0  0  0  0  0  0  0  0  0  # atno 7974 bound_to 7965
  156.0382  140.1297  157.0184 H   0  0  0  0  0  0  0  0  0  0  0  0  # atno 8008 bound_to 7997
  154.4379  140.1035  156.6269 H   0  0  0  0  0  0  0  0  0  0  0  0  # atno 8009 bound_to 7997
  155.5706  140.3466  155.4516 H   0  0  0  0  0  0  0  0  0  0  0  0  # atno 8010 bound_to 7997
  140.7284  143.4207  151.0956 H   0  0  0  0  0  0  0  0  0  0  0  0  # atno 10167 bound_to 10162
  156.9121  130.9913  151.3019 H   0  0  0  0  0  0  0  0  0  0  0  0  # atno 10718 bound_to 10713
  154.4941  135.5812  153.6481 H   0  0  0  0  0  0  0  0  0  0  0  0  # atno 10763 bound_to 10752
  152.9867  135.6120  154.3087 H   0  0  0  0  0  0  0  0  0  0  0  0  # atno 10764 bound_to 10752
  154.2989  135.2847  155.2599 H   0  0  0  0  0  0  0  0  0  0  0  0  # atno 10765 bound_to 10752
  140.0111  134.6294  155.9779 H   0  0  0  0  0  0  0  0  0  0  0  0  # atno 11005 bound_to 11000
  144.6919  139.9190  143.7467 LP  0  0  0  0  0  0  0  0  0  0  0  0  # atno 17320 bound_to 7965
  146.0634  139.3626  143.0567 LP  0  0  0  0  0  0  0  0  0  0  0  0  # atno 17321 bound_to 7965
  139.7852  143.8298  152.3144 LP  0  0  0  0  0  0  0  0  0  0  0  0  # atno 17342 bound_to 10162
  139.8263  144.7274  150.9508 LP  0  0  0  0  0  0  0  0  0  0  0  0  # atno 17343 bound_to 10162
  157.5961  130.8478  149.8731 LP  0  0  0  0  0  0  0  0  0  0  0  0  # atno 17370 bound_to 10713
  156.0531  130.3713  150.1155 LP  0  0  0  0  0  0  0  0  0  0  0  0  # atno 17371 bound_to 10713
  141.1711  133.6537  156.4657 LP  0  0  0  0  0  0  0  0  0  0  0  0  # atno 17394 bound_to 11000
  140.4552  134.6892  157.5059 LP  0  0  0  0  0  0  0  0  0  0  0  0  # atno 17395 bound_to 11000

$$$$
