AV-unprocessed.smi:2915|AV-procd|sdf|11187|dock7
  -GOLD-   2272016 83D 1   1.00000     0.00000
 Structure written by MMmdl.
 41 42  0  0  0  0  0  0  0  0  1 V2000
  152.6237  143.2807  161.4989 C   0  0  0  0  0  0  0  0  0  0  0  0
  152.1261  143.5949  160.1299 C   0  0  0  0  0  0  0  0  0  0  0  0
  152.0146  142.6867  159.1570 N   0  0  0  0  0  0  0  0  0  0  0  0
  151.5163  143.2297  157.9678 C   0  0  0  0  0  0  0  0  0  0  0  0
  151.3188  142.3503  156.7647 C   0  0  0  0  0  0  0  0  0  0  0  0
  150.0809  141.4529  156.8954 C   0  0  0  0  0  0  0  0  0  0  0  0
  150.1780  140.2717  157.2324 O   0  0  0  0  0  0  0  0  0  0  0  0
  148.9089  142.0434  156.6154 N   0  0  0  0  0  0  0  0  0  0  0  0
  147.5932  141.4025  156.6379 C   0  0  0  0  0  0  0  0  0  0  0  0
  146.8416  141.4769  155.2785 C   0  0  0  0  0  0  0  0  0  0  0  0
  146.1352  142.8614  155.2156 C   0  0  0  0  0  0  0  0  0  0  0  0
  145.5701  143.2962  153.8463 C   0  0  0  0  0  0  0  0  0  0  0  0
  144.3993  144.0593  154.0414 O   0  0  0  0  0  0  0  0  0  0  0  0
  147.8246  141.2835  154.0905 C   0  0  0  0  0  0  0  0  0  0  0  0
  147.1661  140.2772  153.1461 C   0  0  0  0  0  0  0  0  0  0  0  0
  146.3678  139.3695  154.0744 C   0  0  0  0  0  0  0  0  0  0  0  0
  145.8187  140.3146  155.1447 C   0  0  0  0  0  0  0  0  0  0  0  0
  151.2638  144.5768  158.0535 C   0  0  0  0  0  0  0  0  0  0  0  0
  151.6279  145.2080  159.6355 S   0  0  0  0  0  0  0  0  0  0  0  0
  152.7493  142.2048  161.6253 H   0  0  0  0  0  0  0  0  0  0  0  0
  151.9138  143.6392  162.2443 H   0  0  0  0  0  0  0  0  0  0  0  0
  153.5843  143.7679  161.6661 H   0  0  0  0  0  0  0  0  0  0  0  0
  151.2135  142.9582  155.8655 H   0  0  0  0  0  0  0  0  0  0  0  0
  152.1946  141.7186  156.6087 H   0  0  0  0  0  0  0  0  0  0  0  0
  148.9288  143.0168  156.3484 H   0  0  0  0  0  0  0  0  0  0  0  0
  147.6770  140.3628  156.9588 H   0  0  0  0  0  0  0  0  0  0  0  0
  147.0062  141.9016  157.4096 H   0  0  0  0  0  0  0  0  0  0  0  0
  145.3248  142.8728  155.9463 H   0  0  0  0  0  0  0  0  0  0  0  0
  146.8376  143.6284  155.5455 H   0  0  0  0  0  0  0  0  0  0  0  0
  146.2833  143.9079  153.2953 H   0  0  0  0  0  0  0  0  0  0  0  0
  145.3207  142.4444  153.2156 H   0  0  0  0  0  0  0  0  0  0  0  0
  143.7042  143.6823  153.5236 H   0  0  0  0  0  0  0  0  0  0  0  0
  148.0806  142.2146  153.5850 H   0  0  0  0  0  0  0  0  0  0  0  0
  148.7733  140.8643  154.4252 H   0  0  0  0  0  0  0  0  0  0  0  0
  146.4902  140.7927  152.4627 H   0  0  0  0  0  0  0  0  0  0  0  0
  147.8923  139.7283  152.5458 H   0  0  0  0  0  0  0  0  0  0  0  0
  145.5808  138.8231  153.5541 H   0  0  0  0  0  0  0  0  0  0  0  0
  147.0332  138.6377  154.5349 H   0  0  0  0  0  0  0  0  0  0  0  0
  145.6369  139.7914  156.0835 H   0  0  0  0  0  0  0  0  0  0  0  0
  144.8437  140.6782  154.8242 H   0  0  0  0  0  0  0  0  0  0  0  0
  150.8804  145.2321  157.2855 H   0  0  0  0  0  0  0  0  0  0  0  0
  1  2  1  0  0  0  0
  1 20  1  0  0  0  0
  1 21  1  0  0  0  0
  1 22  1  0  0  0  0
  2 19  1  0  0  0  0
  2  3  2  0  0  0  0
  3  4  1  0  0  0  0
  4  5  1  0  0  0  0
  4 18  2  0  0  0  0
  5  6  1  0  0  0  0
  5 23  1  0  0  0  0
  5 24  1  0  0  0  0
  6  7  2  0  0  0  0
  6  8  1  0  0  0  0
  8  9  1  0  0  0  0
  8 25  1  0  0  0  0
  9 10  1  0  0  0  0
  9 26  1  0  0  0  0
  9 27  1  0  0  0  0
 10 17  1  0  0  0  0
 10 11  1  0  0  0  0
 10 14  1  0  0  0  0
 11 12  1  0  0  0  0
 11 28  1  0  0  0  0
 11 29  1  0  0  0  0
 12 13  1  0  0  0  0
 12 30  1  0  0  0  0
 12 31  1  0  0  0  0
 13 32  1  0  0  0  0
 14 15  1  0  0  0  0
 14 33  1  0  0  0  0
 14 34  1  0  0  0  0
 15 16  1  0  0  0  0
 15 35  1  0  0  0  0
 15 36  1  0  0  0  0
 16 17  1  0  0  0  0
 16 37  1  0  0  0  0
 16 38  1  0  0  0  0
 17 39  1  0  0  0  0
 17 40  1  0  0  0  0
 18 19  1  0  0  0  0
 18 41  1  0  0  0  0
M  END
> <s_m_source_file>
AV-unprocessed.smi

> <i_m_source_file_index>
2915

> <i_lp_mmshare_version>
43012

> <i_f3d_flags>
0

> <s_epik_input>
W0NIM11jMW5jKFtjSF1zMSlbQ0gyXUMoPU8pW05IXVtDSDJdQzIoW0NIMl1bQ0gyXVtPSF0pW0NIMl1bQ0gyXVtDSDJdW0NIMl0y

> <s_epik_cmdline>
J2VwaWtfcHl0aG9uJywgJy1waCcsICc3LjAnLCAnLXRuJywgJzgnLCAnLW1hJywgJzIwMCcsICctbWV0YWxfYmluZGluZycsICctaW1hZScsICc8aW5maWxlLm1hZT4nLCAnLW9tYWUnLCAnPG91dGZpbGUubWFlPic=

> <r_lp_tautomer_probability>
1

> <r_epik_Ionization_Penalty>
5.95244e-05

> <r_epik_Ionization_Penalty_Charging>
0

> <r_epik_Ionization_Penalty_Neutral>
5.95244e-05

> <r_epik_State_Penalty>
-0

> <r_epik_Charging_Adjusted_Penalty>
0

> <i_epik_Tot_Q>
0

> <i_epik_Tot_abs_Q>
0

> <r_epik_Metal_State_Penalty>
-0

> <b_epik_Metal_Only>
0

> <s_lp_Force_Field>
OPLS_2005

> <r_lp_Energy>
27.9647

> <b_lp_Chiralities_Consistent>
1

> <s_lp_Variant>
AV-unprocessed.smi:2915-1

> <Gold.Version>
5.8.1

> <Gold.Id.Protein>
6NUR|6NUR_protein|mol2

> <Gold.PLP.Fitness>
46.0293

> <Gold.PLP.PLP>
-39.6001

> <Gold.PLP.part.hbond>
-2.0000

> <Gold.PLP.part.metal>
0.0000

> <Gold.PLP.part.buried>
-6.1353

> <Gold.PLP.part.nonpolar>
-32.6630

> <Gold.PLP.part.repulsive>
0.0107

> <Gold.PLP.ligand.clash>
0.0000

> <Gold.PLP.ligand.torsion>
1.1922

> <Gold.PLP.Chemscore.Hbond>
2.0000

> <Gold.PLP.Chemscore.CHOScore>
0.9278

> <Gold.PLP.Chemscore.Metal>
0.0000

> <Gold.Chemscore.Hbonds>
donor molecule, donor type, donor heavy atom, donor atom, acceptor molecule, acceptor atom, score
      L1  H     8    25       P1  8028  1.00
      L1  H    13    32       P1 10174  0.83
      L1  C    18    41       P1  8028  0.86

> <Gold.PLP.Chemscore.Internal.Correction>
0.0303

> <Gold.Rescore>
     Score         DG    S(hbond)    S(metal)    S(lipo)     H(rot)  DE(clash)    DE(int)     intcor
     16.79     -17.98       1.91        0.00     105.88       2.45       0.15       1.04       ----

> <Gold.Chemscore.Fitness>
16.7902

> <Gold.Chemscore.DG>
-17.9793

> <Gold.Chemscore.ZeroCoef>
-5.4800

> <Gold.Chemscore.Hbond>
1.9089

> <Gold.Chemscore.Metal>
0.0000

> <Gold.Chemscore.Lipo>
105.8777

> <Gold.Chemscore.Internal_Hbond>
0.0000

> <Gold.Chemscore.DEClash>
0.1484

> <Gold.Chemscore.DEInternal>
1.0406

> <Gold.Chemscore.Rot>
2.4469

> <Gold.Chemscore.Internal.Correction>
   9.000000E+99

> <Gold.Chemscore.Hbonds>
donor molecule, donor type, donor heavy atom, donor atom, acceptor molecule, acceptor atom, score
      L1  H     8    25       P1  8028  1.00
      L1  H    13    32       P1 10174  0.67

> <Gold.Chemscore.Hbond.Weighted>
-6.3756

> <Gold.Chemscore.Metal.Weighted>
-0.0000

> <Gold.Chemscore.Lipo.Weighted>
-12.3877

> <Gold.Chemscore.Internal_Hbond.Weighted>
0.0000

> <Gold.Chemscore.DEClash.Weighted>
0.1484

> <Gold.Chemscore.DEInternal.Weighted>
1.0406

> <Gold.Chemscore.Rot.Weighted>
6.2640

> <Gold.Chemscore.Internal.Correction.Weighted>
   9.000000E+99

> <Gold.Protein.RotatedTorsions>
[ 6907 6896 6895 6894 ] final  -17.29 input  -60.11 | X-H torsion
[ 7974 7965 7964 7962 ] final  -88.25 input  175.53 | X-H torsion
[ 8008 7997 7996 7995 ] final   41.46 input   59.86 | X-H torsion
[ 10167 10162 10161 10158 ] final -113.84 input  -65.29 | X-H torsion
[ 10718 10713 10712 10709 ] final   92.62 input   66.30 | X-H torsion
[ 10763 10752 10751 10750 ] final   68.29 input  -60.55 | X-H torsion
[ 11005 11000 10999 10996 ] final  129.97 input  -57.11 | X-H torsion

> <Gold.Protein.ActiveResidues>
 VAL166  LYS551  ARG553  GLY616  TRP617  ASP618  TYR619  PRO620  LYS621  CYS622 
 ASP623  PHE694  ASN695  SER759  ASP760  ASP761  ALA762  ILE779  LEU786  VAL792 
 PHE793  MET794  SER795  GLU796  ALA797  LYS798  CYS799  TRP800  GLU811  SER814 

> <Gold.Protein.RotatedAtoms>
  151.2957  135.0754  159.9219 H   0  0  0  0  0  0  0  0  0  0  0  0  # atno 6907 bound_to 6896
  152.5308  133.9886  159.7850 H   0  0  0  0  0  0  0  0  0  0  0  0  # atno 6908 bound_to 6896
  151.0164  133.5866  159.2707 H   0  0  0  0  0  0  0  0  0  0  0  0  # atno 6909 bound_to 6896
  145.4557  140.9561  143.1997 H   0  0  0  0  0  0  0  0  0  0  0  0  # atno 7974 bound_to 7965
  155.2699  140.3365  155.4266 H   0  0  0  0  0  0  0  0  0  0  0  0  # atno 8008 bound_to 7997
  156.2137  140.1780  156.7679 H   0  0  0  0  0  0  0  0  0  0  0  0  # atno 8009 bound_to 7997
  154.5723  140.0668  156.8967 H   0  0  0  0  0  0  0  0  0  0  0  0  # atno 8010 bound_to 7997
  140.1075  143.4557  152.1773 H   0  0  0  0  0  0  0  0  0  0  0  0  # atno 10167 bound_to 10162
  157.6958  131.0449  150.3909 H   0  0  0  0  0  0  0  0  0  0  0  0  # atno 10718 bound_to 10713
  153.0228  135.5253  154.7111 H   0  0  0  0  0  0  0  0  0  0  0  0  # atno 10763 bound_to 10752
  154.6193  135.2887  155.0346 H   0  0  0  0  0  0  0  0  0  0  0  0  # atno 10764 bound_to 10752
  154.1339  135.6588  153.4980 H   0  0  0  0  0  0  0  0  0  0  0  0  # atno 10765 bound_to 10752
  139.9645  134.9594  156.9225 H   0  0  0  0  0  0  0  0  0  0  0  0  # atno 11005 bound_to 11000
  144.8034  139.6098  143.7062 LP  0  0  0  0  0  0  0  0  0  0  0  0  # atno 17320 bound_to 7965
  146.2479  139.6137  142.9447 LP  0  0  0  0  0  0  0  0  0  0  0  0  # atno 17321 bound_to 7965
  139.5637  144.7422  151.4082 LP  0  0  0  0  0  0  0  0  0  0  0  0  # atno 17342 bound_to 10162
  140.6944  143.7785  150.7304 LP  0  0  0  0  0  0  0  0  0  0  0  0  # atno 17343 bound_to 10162
  156.4313  130.3972  149.6759 LP  0  0  0  0  0  0  0  0  0  0  0  0  # atno 17370 bound_to 10713
  156.3975  130.7658  151.2663 LP  0  0  0  0  0  0  0  0  0  0  0  0  # atno 17371 bound_to 10713
  140.5426  134.0705  155.7346 LP  0  0  0  0  0  0  0  0  0  0  0  0  # atno 17394 bound_to 11000
  141.1324  133.9279  157.2506 LP  0  0  0  0  0  0  0  0  0  0  0  0  # atno 17395 bound_to 11000

$$$$
