AV-unprocessed.smi:2473|AV-procd|sdf|9746|dock7
  -GOLD-   2272013383D 1   1.00000     0.00000
 Structure written by MMmdl.
 48 49  0  0  0  0  0  0  0  0  2 V2000
  145.6988  138.1266  154.1972 C   0  0  0  0  0  0  0  0  0  0  0  0
  146.4907  139.3715  154.6226 C   0  0  1  0  0  0  0  0  0  0  0  0
  147.3406  139.9140  153.4560 C   0  0  0  0  0  0  0  0  0  0  0  0
  148.1339  141.1921  153.8134 C   0  0  2  0  0  0  0  0  0  0  0  0
  149.4303  140.9302  154.6035 C   0  0  0  0  0  0  0  0  0  0  0  0
  150.1351  139.9481  154.3696 O   0  0  0  0  0  0  0  0  0  0  0  0
  149.7556  141.8497  155.5242 N   0  0  0  0  0  0  0  0  0  0  0  0
  150.9420  141.7859  156.3654 C   0  0  0  0  0  0  0  0  0  0  0  0
  150.5516  141.5860  157.8351 C   0  0  0  0  0  0  0  0  0  0  0  0
  151.7020  141.7910  158.7708 C   0  0  0  0  0  0  0  0  0  0  0  0
  152.1842  140.8757  159.6198 N   0  3  0  0  0  0  0  0  0  0  0  0
  153.2465  141.3842  160.3168 C   0  0  0  0  0  0  0  0  0  0  0  0
  153.4257  142.6665  159.8678 C   0  0  0  0  0  0  0  0  0  0  0  0
  152.4642  142.8879  158.9152 N   0  0  0  0  0  0  0  0  0  0  0  0
  152.2619  144.1201  158.1499 C   0  0  0  0  0  0  0  0  0  0  0  0
  147.2142  142.2556  154.4661 C   0  0  0  0  0  0  0  0  0  0  0  0
  146.2895  141.7557  155.6099 C   0  0  0  0  0  0  0  0  0  0  0  0
  147.0636  141.5203  156.9258 C   0  0  0  0  0  0  0  0  0  0  0  0
  145.2383  142.8482  155.8935 C   0  0  0  0  0  0  0  0  0  0  0  0
  145.5529  140.4704  155.1603 C   0  0  0  0  0  0  0  0  0  0  0  0
  145.0081  138.3526  153.3842 H   0  0  0  0  0  0  0  0  0  0  0  0
  145.1156  137.7294  155.0286 H   0  0  0  0  0  0  0  0  0  0  0  0
  146.3667  137.3350  153.8569 H   0  0  0  0  0  0  0  0  0  0  0  0
  147.1537  139.0570  155.4271 H   0  0  0  0  0  0  0  0  0  0  0  0
  148.0191  139.1374  153.0994 H   0  0  0  0  0  0  0  0  0  0  0  0
  146.6842  140.1374  152.6138 H   0  0  0  0  0  0  0  0  0  0  0  0
  148.4757  141.6113  152.8657 H   0  0  0  0  0  0  0  0  0  0  0  0
  149.1365  142.6373  155.6525 H   0  0  0  0  0  0  0  0  0  0  0  0
  151.5759  140.9639  156.0289 H   0  0  0  0  0  0  0  0  0  0  0  0
  151.5186  142.7050  156.2521 H   0  0  0  0  0  0  0  0  0  0  0  0
  149.7590  142.2741  158.1308 H   0  0  0  0  0  0  0  0  0  0  0  0
  150.1807  140.5741  158.0042 H   0  0  0  0  0  0  0  0  0  0  0  0
  153.7822  140.8099  161.0589 H   0  0  0  0  0  0  0  0  0  0  0  0
  154.1496  143.4182  160.1482 H   0  0  0  0  0  0  0  0  0  0  0  0
  153.0543  144.8311  158.3853 H   0  0  0  0  0  0  0  0  0  0  0  0
  151.2980  144.5546  158.4148 H   0  0  0  0  0  0  0  0  0  0  0  0
  152.2868  143.8957  157.0832 H   0  0  0  0  0  0  0  0  0  0  0  0
  147.8037  143.1049  154.8147 H   0  0  0  0  0  0  0  0  0  0  0  0
  146.5870  142.6599  153.6701 H   0  0  0  0  0  0  0  0  0  0  0  0
  146.3841  141.2674  157.7403 H   0  0  0  0  0  0  0  0  0  0  0  0
  147.6129  142.4130  157.2264 H   0  0  0  0  0  0  0  0  0  0  0  0
  147.7808  140.7062  156.8585 H   0  0  0  0  0  0  0  0  0  0  0  0
  144.5501  142.5436  156.6828 H   0  0  0  0  0  0  0  0  0  0  0  0
  144.6391  143.0696  155.0097 H   0  0  0  0  0  0  0  0  0  0  0  0
  145.7086  143.7800  156.2100 H   0  0  0  0  0  0  0  0  0  0  0  0
  144.8357  140.7232  154.3774 H   0  0  0  0  0  0  0  0  0  0  0  0
  144.9616  140.0768  155.9883 H   0  0  0  0  0  0  0  0  0  0  0  0
  151.8136  139.9400  159.7284 H   0  0  0  0  0  0  0  0  0  0  0  0
  1  2  1  0  0  0  0
  1 21  1  0  0  0  0
  1 22  1  0  0  0  0
  1 23  1  0  0  0  0
  2 20  1  0  0  0  0
  2  3  1  0  0  0  0
  2 24  1  0  0  0  0
  3  4  1  0  0  0  0
  3 25  1  0  0  0  0
  3 26  1  0  0  0  0
  4  5  1  0  0  0  0
  4 16  1  0  0  0  0
  4 27  1  0  0  0  0
  5  6  2  0  0  0  0
  5  7  1  0  0  0  0
  7  8  1  0  0  0  0
  7 28  1  0  0  0  0
  8  9  1  0  0  0  0
  8 29  1  0  0  0  0
  8 30  1  0  0  0  0
  9 10  1  0  0  0  0
  9 31  1  0  0  0  0
  9 32  1  0  0  0  0
 10 14  1  0  0  0  0
 10 11  2  0  0  0  0
 11 12  1  0  0  0  0
 11 48  1  0  0  0  0
 12 13  2  0  0  0  0
 12 33  1  0  0  0  0
 13 14  1  0  0  0  0
 13 34  1  0  0  0  0
 14 15  1  0  0  0  0
 15 35  1  0  0  0  0
 15 36  1  0  0  0  0
 15 37  1  0  0  0  0
 16 17  1  0  0  0  0
 16 38  1  0  0  0  0
 16 39  1  0  0  0  0
 17 18  1  0  0  0  0
 17 19  1  0  0  0  0
 17 20  1  0  0  0  0
 18 40  1  0  0  0  0
 18 41  1  0  0  0  0
 18 42  1  0  0  0  0
 19 43  1  0  0  0  0
 19 44  1  0  0  0  0
 19 45  1  0  0  0  0
 20 46  1  0  0  0  0
 20 47  1  0  0  0  0
M  CHG  1  11   1
M  END
> <s_m_source_file>
AV-unprocessed.smi

> <i_m_source_file_index>
2473

> <i_lp_mmshare_version>
43012

> <i_f3d_flags>
0

> <s_epik_input>
W0NIM11bQ0BASF0oW0NIMl0xKVtDSDJdW0NASF0oW0NIMl1DMShbQ0gzXSlbQ0gzXSlDKD1PKVtOSF1bQ0gyXVtDSDJdYzJuW2NIXVtjSF1uMltDSDNd

> <s_epik_cmdline>
J2VwaWtfcHl0aG9uJywgJy1waCcsICc3LjAnLCAnLXRuJywgJzgnLCAnLW1hJywgJzIwMCcsICctbWV0YWxfYmluZGluZycsICctaW1hZScsICc8aW5maWxlLm1hZT4nLCAnLW9tYWUnLCAnPG91dGZpbGUubWFlPic=

> <r_lp_tautomer_probability>
1

> <r_epik_Ionization_Penalty>
0.0796112

> <r_epik_Ionization_Penalty_Charging>
0

> <r_epik_Ionization_Penalty_Neutral>
0.0796112

> <r_epik_State_Penalty>
0.0704541

> <r_epik_Charging_Adjusted_Penalty>
0.0704541

> <i_epik_Tot_Q>
1

> <i_epik_Tot_abs_Q>
1

> <r_epik_Metal_State_Penalty>
0.409899

> <b_epik_Metal_Only>
0

> <s_lp_Force_Field>
OPLS_2005

> <r_lp_Energy>
17.0115

> <b_lp_Chiralities_Consistent>
1

> <s_lp_Variant>
AV-unprocessed.smi:2473-4

> <Gold.Version>
5.8.1

> <Gold.Id.Protein>
6NUR|6NUR_protein|mol2

> <Gold.PLP.Fitness>
47.6603

> <Gold.PLP.PLP>
-42.8558

> <Gold.PLP.part.hbond>
-2.0000

> <Gold.PLP.part.metal>
0.0000

> <Gold.PLP.part.buried>
-4.2636

> <Gold.PLP.part.nonpolar>
-36.2381

> <Gold.PLP.part.repulsive>
0.4184

> <Gold.PLP.ligand.clash>
0.0000

> <Gold.PLP.ligand.torsion>
0.5845

> <Gold.PLP.Chemscore.Hbond>
1.9600

> <Gold.PLP.Chemscore.CHOScore>
0.0000

> <Gold.PLP.Chemscore.Metal>
0.0000

> <Gold.Chemscore.Hbonds>
donor molecule, donor type, donor heavy atom, donor atom, acceptor molecule, acceptor atom, score
      L1  H     7    28       P1  8028  0.81
      P1  H  7989  7998       L1     6  0.90

> <Gold.PLP.Chemscore.Internal.Correction>
0.0936

> <Gold.Rescore>
     Score         DG    S(hbond)    S(metal)    S(lipo)     H(rot)  DE(clash)    DE(int)     intcor
     15.81     -16.68       1.54        0.00      86.52       1.58       0.09       0.78       ----

> <Gold.Chemscore.Fitness>
15.8146

> <Gold.Chemscore.DG>
-16.6843

> <Gold.Chemscore.ZeroCoef>
-5.4800

> <Gold.Chemscore.Hbond>
1.5363

> <Gold.Chemscore.Metal>
0.0000

> <Gold.Chemscore.Lipo>
86.5173

> <Gold.Chemscore.Internal_Hbond>
0.0000

> <Gold.Chemscore.DEClash>
0.0939

> <Gold.Chemscore.DEInternal>
0.7758

> <Gold.Chemscore.Rot>
1.5818

> <Gold.Chemscore.Internal.Correction>
   9.000000E+99

> <Gold.Chemscore.Hbonds>
donor molecule, donor type, donor heavy atom, donor atom, acceptor molecule, acceptor atom, score
      L1  H     7    28       P1  8028  0.76
      P1  H  7989  7998       L1     6  0.17

> <Gold.Chemscore.Hbond.Weighted>
-5.1312

> <Gold.Chemscore.Metal.Weighted>
-0.0000

> <Gold.Chemscore.Lipo.Weighted>
-10.1225

> <Gold.Chemscore.Internal_Hbond.Weighted>
0.0000

> <Gold.Chemscore.DEClash.Weighted>
0.0939

> <Gold.Chemscore.DEInternal.Weighted>
0.7758

> <Gold.Chemscore.Rot.Weighted>
4.0495

> <Gold.Chemscore.Internal.Correction.Weighted>
   9.000000E+99

> <Gold.Protein.RotatedTorsions>
[ 6907 6896 6895 6894 ] final  140.78 input  -60.11 | X-H torsion
[ 7974 7965 7964 7962 ] final -138.38 input  175.53 | X-H torsion
[ 8008 7997 7996 7995 ] final -143.23 input   59.86 | X-H torsion
[ 10167 10162 10161 10158 ] final   17.12 input  -65.29 | X-H torsion
[ 10718 10713 10712 10709 ] final   -6.59 input   66.30 | X-H torsion
[ 10763 10752 10751 10750 ] final   -2.96 input  -60.55 | X-H torsion
[ 11005 11000 10999 10996 ] final -166.03 input  -57.11 | X-H torsion

> <Gold.Protein.ActiveResidues>
 VAL166  LYS551  ARG553  GLY616  TRP617  ASP618  TYR619  PRO620  LYS621  CYS622 
 ASP623  PHE694  ASN695  SER759  ASP760  ASP761  ALA762  ILE779  LEU786  VAL792 
 PHE793  MET794  SER795  GLU796  ALA797  LYS798  CYS799  TRP800  GLU811  SER814 

> <Gold.Protein.RotatedAtoms>
  152.2390  133.5119  159.5258 H   0  0  0  0  0  0  0  0  0  0  0  0  # atno 6907 bound_to 6896
  150.7059  134.1115  159.4011 H   0  0  0  0  0  0  0  0  0  0  0  0  # atno 6908 bound_to 6896
  151.9036  135.0368  160.0559 H   0  0  0  0  0  0  0  0  0  0  0  0  # atno 6909 bound_to 6896
  144.8763  140.6442  143.5234 H   0  0  0  0  0  0  0  0  0  0  0  0  # atno 7974 bound_to 7965
  155.5073  140.0580  157.2929 H   0  0  0  0  0  0  0  0  0  0  0  0  # atno 8008 bound_to 7997
  154.4565  140.1975  156.0314 H   0  0  0  0  0  0  0  0  0  0  0  0  # atno 8009 bound_to 7997
  156.0808  140.3247  155.7696 H   0  0  0  0  0  0  0  0  0  0  0  0  # atno 8010 bound_to 7997
  140.5749  143.9092  150.6742 H   0  0  0  0  0  0  0  0  0  0  0  0  # atno 10167 bound_to 10162
  156.7297  130.5176  149.5848 H   0  0  0  0  0  0  0  0  0  0  0  0  # atno 10718 bound_to 10713
  153.3650  135.6992  153.6682 H   0  0  0  0  0  0  0  0  0  0  0  0  # atno 10763 bound_to 10752
  153.5356  135.3583  155.2696 H   0  0  0  0  0  0  0  0  0  0  0  0  # atno 10764 bound_to 10752
  154.8673  135.4191  154.2915 H   0  0  0  0  0  0  0  0  0  0  0  0  # atno 10765 bound_to 10752
  140.5691  134.5256  157.5158 H   0  0  0  0  0  0  0  0  0  0  0  0  # atno 11005 bound_to 11000
  145.4036  139.1593  143.4164 LP  0  0  0  0  0  0  0  0  0  0  0  0  # atno 17320 bound_to 7965
  146.2965  140.4135  142.8720 LP  0  0  0  0  0  0  0  0  0  0  0  0  # atno 17321 bound_to 7965
  140.2577  143.3547  152.1350 LP  0  0  0  0  0  0  0  0  0  0  0  0  # atno 17342 bound_to 10162
  139.5137  144.6936  151.5691 LP  0  0  0  0  0  0  0  0  0  0  0  0  # atno 17343 bound_to 10162
  156.1538  130.6327  151.0630 LP  0  0  0  0  0  0  0  0  0  0  0  0  # atno 17370 bound_to 10713
  157.6864  131.0823  150.7231 LP  0  0  0  0  0  0  0  0  0  0  0  0  # atno 17371 bound_to 10713
  139.9370  134.7856  156.0776 LP  0  0  0  0  0  0  0  0  0  0  0  0  # atno 17394 bound_to 11000
  141.1067  133.6657  156.2881 LP  0  0  0  0  0  0  0  0  0  0  0  0  # atno 17395 bound_to 11000

$$$$
