AV-unprocessed.smi:109|AV-procd|sdf|1036|dock7
  -GOLD-   2262018 53D 1   1.00000     0.00000
 Structure written by MMmdl.
 58 61  0  0  0  0  0  0  0  0  1 V2000
  151.4576  137.0873  159.0977 O   0  0  0  0  0  0  0  0  0  0  0  0
  151.0739  138.4169  158.8208 C   0  0  0  0  0  0  0  0  0  0  0  0
  151.9188  138.9748  157.6645 C   0  0  0  0  0  0  0  0  0  0  0  0
  151.3668  140.3034  157.1006 C   0  0  1  0  0  0  0  0  0  0  0  0
  149.9043  140.2769  157.1117 N   0  0  0  0  0  0  0  0  0  0  0  0
  149.1867  140.2149  155.9677 C   0  0  0  0  0  0  0  0  0  0  0  0
  149.4248  141.0664  154.9365 N   0  0  0  0  0  0  0  0  0  0  0  0
  148.6995  140.9800  153.8181 C   0  0  0  0  0  0  0  0  0  0  0  0
  147.7099  140.1324  153.5300 N   0  0  0  0  0  0  0  0  0  0  0  0
  147.4661  139.2709  154.5597 C   0  0  0  0  0  0  0  0  0  0  0  0
  148.1594  139.2504  155.8027 C   0  0  0  0  0  0  0  0  0  0  0  0
  147.6492  138.2438  156.6104 N   0  0  0  0  0  0  0  0  0  0  0  0
  146.7119  137.7009  155.8818 C   0  0  0  0  0  0  0  0  0  0  0  0
  146.5252  138.2611  154.6368 N   0  0  0  0  0  0  0  0  0  0  0  0
  145.5373  137.8281  153.5967 C   0  0  2  0  0  0  0  0  0  0  0  0
  145.0041  136.5965  153.9861 O   0  0  0  0  0  0  0  0  0  0  0  0
  145.3413  135.5778  153.0456 C   0  0  1  0  0  0  0  0  0  0  0  0
  144.2673  134.4759  153.0130 C   0  0  0  0  0  0  0  0  0  0  0  0
  144.0501  133.9710  154.3135 O   0  0  0  0  0  0  0  0  0  0  0  0
  145.5389  136.3512  151.7353 C   0  0  1  0  0  0  0  0  0  0  0  0
  144.2906  136.5823  151.0999 O   0  0  0  0  0  0  0  0  0  0  0  0
  146.1944  137.6405  152.2206 C   0  0  1  0  0  0  0  0  0  0  0  0
  145.9590  138.7164  151.3316 O   0  0  0  0  0  0  0  0  0  0  0  0
  151.9019  141.5702  157.8248 C   0  0  0  0  0  0  0  0  0  0  0  0
  151.8307  141.4570  159.3633 C   0  0  0  0  0  0  0  0  0  0  0  0
  152.4718  142.6769  160.0448 C   0  0  0  0  0  0  0  0  0  0  0  0
  151.8225  143.9853  159.5669 C   0  0  0  0  0  0  0  0  0  0  0  0
  151.8803  144.1070  158.0361 C   0  0  0  0  0  0  0  0  0  0  0  0
  151.2411  142.8858  157.3545 C   0  0  0  0  0  0  0  0  0  0  0  0
  144.7521  138.5851  153.6090 H   0  0  0  0  0  0  0  0  0  0  0  0
  146.3004  135.1408  153.3229 H   0  0  0  0  0  0  0  0  0  0  0  0
  146.1809  135.8106  151.0390 H   0  0  0  0  0  0  0  0  0  0  0  0
  147.2676  137.4868  152.3327 H   0  0  0  0  0  0  0  0  0  0  0  0
  152.1994  136.8698  158.5540 H   0  0  0  0  0  0  0  0  0  0  0  0
  150.0139  138.4335  158.5652 H   0  0  0  0  0  0  0  0  0  0  0  0
  151.2015  139.0142  159.7240 H   0  0  0  0  0  0  0  0  0  0  0  0
  152.9490  139.1067  157.9975 H   0  0  0  0  0  0  0  0  0  0  0  0
  151.9476  138.2209  156.8790 H   0  0  0  0  0  0  0  0  0  0  0  0
  151.6976  140.3570  156.0627 H   0  0  0  0  0  0  0  0  0  0  0  0
  149.4740  140.4008  158.0170 H   0  0  0  0  0  0  0  0  0  0  0  0
  148.9470  141.6910  153.0440 H   0  0  0  0  0  0  0  0  0  0  0  0
  146.1236  136.8678  156.2383 H   0  0  0  0  0  0  0  0  0  0  0  0
  143.3321  134.8424  152.5888 H   0  0  0  0  0  0  0  0  0  0  0  0
  144.6029  133.6435  152.3935 H   0  0  0  0  0  0  0  0  0  0  0  0
  143.4502  133.2431  154.2568 H   0  0  0  0  0  0  0  0  0  0  0  0
  144.4085  137.2641  150.4555 H   0  0  0  0  0  0  0  0  0  0  0  0
  145.3065  138.4468  150.7034 H   0  0  0  0  0  0  0  0  0  0  0  0
  152.9628  141.6492  157.5836 H   0  0  0  0  0  0  0  0  0  0  0  0
  150.7958  141.3761  159.6944 H   0  0  0  0  0  0  0  0  0  0  0  0
  152.3340  140.5483  159.6950 H   0  0  0  0  0  0  0  0  0  0  0  0
  152.3774  142.5897  161.1275 H   0  0  0  0  0  0  0  0  0  0  0  0
  153.5408  142.6976  159.8286 H   0  0  0  0  0  0  0  0  0  0  0  0
  150.7834  144.0192  159.8969 H   0  0  0  0  0  0  0  0  0  0  0  0
  152.3216  144.8383  160.0276 H   0  0  0  0  0  0  0  0  0  0  0  0
  151.3742  145.0183  157.7165 H   0  0  0  0  0  0  0  0  0  0  0  0
  152.9185  144.2020  157.7154 H   0  0  0  0  0  0  0  0  0  0  0  0
  151.3306  142.9903  156.2729 H   0  0  0  0  0  0  0  0  0  0  0  0
  150.1740  142.8728  157.5774 H   0  0  0  0  0  0  0  0  0  0  0  0
  1  2  1  0  0  0  0
  1 34  1  0  0  0  0
  2  3  1  0  0  0  0
  2 35  1  0  0  0  0
  2 36  1  0  0  0  0
  3  4  1  0  0  0  0
  3 37  1  0  0  0  0
  3 38  1  0  0  0  0
  4  5  1  0  0  0  0
  4 24  1  0  0  0  0
  4 39  1  0  0  0  0
  5  6  1  0  0  0  0
  5 40  1  0  0  0  0
  6 11  1  0  0  0  0
  6  7  2  0  0  0  0
  7  8  1  0  0  0  0
  8  9  2  0  0  0  0
  8 41  1  0  0  0  0
  9 10  1  0  0  0  0
 10 14  1  0  0  0  0
 10 11  2  0  0  0  0
 11 12  1  0  0  0  0
 12 13  2  0  0  0  0
 13 14  1  0  0  0  0
 13 42  1  0  0  0  0
 14 15  1  0  0  0  0
 15 30  1  0  0  0  0
 15 22  1  0  0  0  0
 15 16  1  0  0  0  0
 16 17  1  0  0  0  0
 17 31  1  0  0  0  0
 17 18  1  0  0  0  0
 17 20  1  0  0  0  0
 18 19  1  0  0  0  0
 18 43  1  0  0  0  0
 18 44  1  0  0  0  0
 19 45  1  0  0  0  0
 20 32  1  0  0  0  0
 20 21  1  0  0  0  0
 20 22  1  0  0  0  0
 21 46  1  0  0  0  0
 22 33  1  0  0  0  0
 22 23  1  0  0  0  0
 23 47  1  0  0  0  0
 24 29  1  0  0  0  0
 24 25  1  0  0  0  0
 24 48  1  0  0  0  0
 25 26  1  0  0  0  0
 25 49  1  0  0  0  0
 25 50  1  0  0  0  0
 26 27  1  0  0  0  0
 26 51  1  0  0  0  0
 26 52  1  0  0  0  0
 27 28  1  0  0  0  0
 27 53  1  0  0  0  0
 27 54  1  0  0  0  0
 28 29  1  0  0  0  0
 28 55  1  0  0  0  0
 28 56  1  0  0  0  0
 29 57  1  0  0  0  0
 29 58  1  0  0  0  0
M  END
> <s_m_source_file>
AV-unprocessed.smi

> <i_m_source_file_index>
109

> <i_lp_mmshare_version>
43012

> <i_f3d_flags>
0

> <s_epik_input>
W0NIMl0xW0NIMl1bQ0gyXVtDSDJdW0NIMl1bQ0hdMVtDQEhdKFtDSDJdW0NIMl1bT0hdKVtOSF1jKG5bY0hdbjIpYyhjMjMpbltjSF1uM1tDQEBIXTRPW0NASF0oW0NIMl1bT0hdKVtDQEBIXShbT0hdKVtDQEhdNFtPSF0=

> <s_epik_cmdline>
J2VwaWtfcHl0aG9uJywgJy1waCcsICc3LjAnLCAnLXRuJywgJzgnLCAnLW1hJywgJzIwMCcsICctbWV0YWxfYmluZGluZycsICctaW1hZScsICc8aW5maWxlLm1hZT4nLCAnLW9tYWUnLCAnPG91dGZpbGUubWFlPic=

> <r_lp_tautomer_probability>
1

> <r_epik_Ionization_Penalty>
0.000793976

> <r_epik_Ionization_Penalty_Charging>
0

> <r_epik_Ionization_Penalty_Neutral>
0.000793976

> <r_epik_State_Penalty>
-0

> <r_epik_Charging_Adjusted_Penalty>
0

> <i_epik_Tot_Q>
0

> <i_epik_Tot_abs_Q>
0

> <r_epik_Metal_State_Penalty>
-0

> <b_epik_Metal_Only>
0

> <s_epik_Chemistry_Notes>
This compound contains an acetal/aminal-like group ( X-CH(R)-Y where X, Y are N, S, or O) that may be acid/base labile, releasing an aldehyde.

> <s_lp_Force_Field>
OPLS_2005

> <r_lp_Energy>
57.9321

> <b_lp_Chiralities_Consistent>
1

> <s_lp_Variant>
AV-unprocessed.smi:109-6

> <Gold.Version>
5.8.1

> <Gold.Id.Protein>
6NUR|6NUR_protein|mol2

> <Gold.PLP.Fitness>
49.9657

> <Gold.PLP.PLP>
-39.8829

> <Gold.PLP.part.hbond>
-4.6227

> <Gold.PLP.part.metal>
0.0000

> <Gold.PLP.part.buried>
-5.8460

> <Gold.PLP.part.nonpolar>
-30.0462

> <Gold.PLP.part.repulsive>
0.6860

> <Gold.PLP.ligand.clash>
0.0000

> <Gold.PLP.ligand.torsion>
1.2345

> <Gold.PLP.Chemscore.Hbond>
3.8288

> <Gold.PLP.Chemscore.CHOScore>
0.2527

> <Gold.PLP.Chemscore.Metal>
0.0000

> <Gold.Chemscore.Hbonds>
donor molecule, donor type, donor heavy atom, donor atom, acceptor molecule, acceptor atom, score
      L1  H    19    45       P1 10957  1.00
      L1  H    21    46       P1 10171  0.96
      L1  H    23    47       P1 10171  1.00
      P1  H  6896  6907       L1     1  0.54
      L1  C     8    41       P1  7957  0.36

> <Gold.PLP.Chemscore.Internal.Correction>
0.3075

> <Gold.Rescore>
     Score         DG    S(hbond)    S(metal)    S(lipo)     H(rot)  DE(clash)    DE(int)     intcor
     13.27     -14.37       3.65        0.00      91.37       5.47       0.04       1.06       ----

> <Gold.Chemscore.Fitness>
13.2660

> <Gold.Chemscore.DG>
-14.3696

> <Gold.Chemscore.ZeroCoef>
-5.4800

> <Gold.Chemscore.Hbond>
3.6506

> <Gold.Chemscore.Metal>
0.0000

> <Gold.Chemscore.Lipo>
91.3679

> <Gold.Chemscore.Internal_Hbond>
0.0000

> <Gold.Chemscore.DEClash>
0.0402

> <Gold.Chemscore.DEInternal>
1.0634

> <Gold.Chemscore.Rot>
5.4662

> <Gold.Chemscore.Internal.Correction>
   9.000000E+99

> <Gold.Chemscore.Hbonds>
donor molecule, donor type, donor heavy atom, donor atom, acceptor molecule, acceptor atom, score
      L1  H    19    45       P1 10957  0.99
      L1  H    21    46       P1 10171  0.89
      L1  H    23    47       P1 10171  0.98
      P1  H  6896  6907       L1     1  0.04

> <Gold.Chemscore.Hbond.Weighted>
-12.1931

> <Gold.Chemscore.Metal.Weighted>
-0.0000

> <Gold.Chemscore.Lipo.Weighted>
-10.6900

> <Gold.Chemscore.Internal_Hbond.Weighted>
0.0000

> <Gold.Chemscore.DEClash.Weighted>
0.0402

> <Gold.Chemscore.DEInternal.Weighted>
1.0634

> <Gold.Chemscore.Rot.Weighted>
13.9935

> <Gold.Chemscore.Internal.Correction.Weighted>
   9.000000E+99

> <Gold.Protein.RotatedTorsions>
[ 6907 6896 6895 6894 ] final  -13.39 input  -60.11 | X-H torsion
[ 7974 7965 7964 7962 ] final -132.42 input  175.53 | X-H torsion
[ 8008 7997 7996 7995 ] final  110.94 input   59.86 | X-H torsion
[ 10167 10162 10161 10158 ] final   31.93 input  -65.29 | X-H torsion
[ 10718 10713 10712 10709 ] final  -64.92 input   66.30 | X-H torsion
[ 10763 10752 10751 10750 ] final    1.58 input  -60.55 | X-H torsion
[ 11005 11000 10999 10996 ] final   87.23 input  -57.11 | X-H torsion

> <Gold.Protein.ActiveResidues>
 VAL166  LYS551  ARG553  GLY616  TRP617  ASP618  TYR619  PRO620  LYS621  CYS622 
 ASP623  PHE694  ASN695  SER759  ASP760  ASP761  ALA762  ILE779  LEU786  VAL792 
 PHE793  MET794  SER795  GLU796  ALA797  LYS798  CYS799  TRP800  GLU811  SER814 

> <Gold.Protein.RotatedAtoms>
  151.3557  135.0894  159.9417 H   0  0  0  0  0  0  0  0  0  0  0  0  # atno 6907 bound_to 6896
  152.5175  133.9308  159.7590 H   0  0  0  0  0  0  0  0  0  0  0  0  # atno 6908 bound_to 6896
  150.9692  133.6308  159.2770 H   0  0  0  0  0  0  0  0  0  0  0  0  # atno 6909 bound_to 6896
  144.9287  140.7102  143.4919 H   0  0  0  0  0  0  0  0  0  0  0  0  # atno 7974 bound_to 7965
  156.2089  140.3029  155.9688 H   0  0  0  0  0  0  0  0  0  0  0  0  # atno 8008 bound_to 7997
  155.2773  140.0436  157.3029 H   0  0  0  0  0  0  0  0  0  0  0  0  # atno 8009 bound_to 7997
  154.5671  140.2337  155.8255 H   0  0  0  0  0  0  0  0  0  0  0  0  # atno 8010 bound_to 7997
  140.4544  144.1000  150.6198 H   0  0  0  0  0  0  0  0  0  0  0  0  # atno 10167 bound_to 10162
  156.0700  130.4240  150.1490 H   0  0  0  0  0  0  0  0  0  0  0  0  # atno 10718 bound_to 10713
  153.3063  135.6959  153.7157 H   0  0  0  0  0  0  0  0  0  0  0  0  # atno 10763 bound_to 10752
  153.6051  135.3455  155.2960 H   0  0  0  0  0  0  0  0  0  0  0  0  # atno 10764 bound_to 10752
  154.8564  135.4350  154.2188 H   0  0  0  0  0  0  0  0  0  0  0  0  # atno 10765 bound_to 10752
  139.8925  134.8408  156.2831 H   0  0  0  0  0  0  0  0  0  0  0  0  # atno 11005 bound_to 11000
  145.3177  139.1798  143.4605 LP  0  0  0  0  0  0  0  0  0  0  0  0  # atno 17320 bound_to 7965
  146.3237  140.3190  142.8632 LP  0  0  0  0  0  0  0  0  0  0  0  0  # atno 17321 bound_to 7965
  140.4168  143.2630  151.9764 LP  0  0  0  0  0  0  0  0  0  0  0  0  # atno 17342 bound_to 10162
  139.4799  144.5866  151.7843 LP  0  0  0  0  0  0  0  0  0  0  0  0  # atno 17343 bound_to 10162
  156.9543  130.9784  151.3492 LP  0  0  0  0  0  0  0  0  0  0  0  0  # atno 17370 bound_to 10713
  157.5765  130.8346  149.8463 LP  0  0  0  0  0  0  0  0  0  0  0  0  # atno 17371 bound_to 10713
  141.0026  133.7142  156.0984 LP  0  0  0  0  0  0  0  0  0  0  0  0  # atno 17394 bound_to 11000
  140.7477  134.4079  157.5546 LP  0  0  0  0  0  0  0  0  0  0  0  0  # atno 17395 bound_to 11000

$$$$
