AV-unprocessed.smi:1617|AV-procd|sdf|6484|dock7
  -GOLD-   22720 7143D 1   1.00000     0.00000
 Structure written by MMmdl.
 47 49  0  0  0  0  0  0  0  0  1 V2000
  146.8912  138.4610  155.4704 O   0  0  0  0  0  0  0  0  0  0  0  0
  147.7356  137.9369  154.7444 C   0  0  0  0  0  0  0  0  0  0  0  0
  149.0517  138.2093  154.7586 N   0  0  0  0  0  0  0  0  0  0  0  0
  149.7516  139.1591  155.5510 C   0  0  0  0  0  0  0  0  0  0  0  0
  151.0309  139.6729  155.2391 C   0  0  0  0  0  0  0  0  0  0  0  0
  151.6290  140.5981  156.1162 C   0  0  0  0  0  0  0  0  0  0  0  0
  150.9398  140.9890  157.2924 C   0  0  0  0  0  0  0  0  0  0  0  0
  151.4877  141.9082  158.2175 N   0  0  0  0  0  0  0  0  0  0  0  0
  152.5839  141.4689  159.0777 C   0  0  0  0  0  0  0  0  0  0  0  0
  152.8157  142.4729  160.2197 C   0  0  0  0  0  0  0  0  0  0  0  0
  153.0157  143.7755  159.6839 O   0  0  0  0  0  0  0  0  0  0  0  0
  151.8716  144.2288  158.9695 C   0  0  0  0  0  0  0  0  0  0  0  0
  151.6001  143.2985  157.7750 C   0  0  0  0  0  0  0  0  0  0  0  0
  149.7198  140.4803  157.5903 N   0  0  0  0  0  0  0  0  0  0  0  0
  149.1509  139.5931  156.7483 C   0  0  0  0  0  0  0  0  0  0  0  0
  147.4466  136.9921  153.8369 N   0  0  0  0  0  0  0  0  0  0  0  0
  146.1073  136.4724  153.5497 C   0  0  2  0  0  0  0  0  0  0  0  0
  146.2424  134.9569  153.2754 C   0  0  0  0  0  0  0  0  0  0  0  0
  144.9376  134.1691  153.4860 C   0  0  0  0  0  0  0  0  0  0  0  0
  143.8003  134.5249  152.5163 C   0  0  0  0  0  0  0  0  0  0  0  0
  143.3233  135.9830  152.6303 C   0  0  0  0  0  0  0  0  0  0  0  0
  144.2327  136.9103  151.9699 N   0  0  0  0  0  0  0  0  0  0  0  0
  145.5073  137.1635  152.3026 C   0  0  0  0  0  0  0  0  0  0  0  0
  146.1871  137.9301  151.6201 O   0  0  0  0  0  0  0  0  0  0  0  0
  149.6295  137.6369  154.1605 H   0  0  0  0  0  0  0  0  0  0  0  0
  151.5716  139.3699  154.3562 H   0  0  0  0  0  0  0  0  0  0  0  0
  152.6015  140.9893  155.8607 H   0  0  0  0  0  0  0  0  0  0  0  0
  152.3593  140.4952  159.5138 H   0  0  0  0  0  0  0  0  0  0  0  0
  153.4901  141.3637  158.4796 H   0  0  0  0  0  0  0  0  0  0  0  0
  151.9711  142.4772  160.9108 H   0  0  0  0  0  0  0  0  0  0  0  0
  153.6953  142.1871  160.7964 H   0  0  0  0  0  0  0  0  0  0  0  0
  151.0066  144.2705  159.6336 H   0  0  0  0  0  0  0  0  0  0  0  0
  152.0517  145.2450  158.6190 H   0  0  0  0  0  0  0  0  0  0  0  0
  152.4133  143.3715  157.0517 H   0  0  0  0  0  0  0  0  0  0  0  0
  150.6946  143.6375  157.2721 H   0  0  0  0  0  0  0  0  0  0  0  0
  148.1792  139.2224  157.0404 H   0  0  0  0  0  0  0  0  0  0  0  0
  148.2038  136.6186  153.2839 H   0  0  0  0  0  0  0  0  0  0  0  0
  145.4668  136.6418  154.4173 H   0  0  0  0  0  0  0  0  0  0  0  0
  146.6367  134.7739  152.2741 H   0  0  0  0  0  0  0  0  0  0  0  0
  146.9812  134.5364  153.9595 H   0  0  0  0  0  0  0  0  0  0  0  0
  145.1555  133.1053  153.3865 H   0  0  0  0  0  0  0  0  0  0  0  0
  144.5947  134.3056  154.5123 H   0  0  0  0  0  0  0  0  0  0  0  0
  144.0970  134.3049  151.4897 H   0  0  0  0  0  0  0  0  0  0  0  0
  142.9562  133.8682  152.7299 H   0  0  0  0  0  0  0  0  0  0  0  0
  142.3539  136.0820  152.1416 H   0  0  0  0  0  0  0  0  0  0  0  0
  143.1720  136.2698  153.6719 H   0  0  0  0  0  0  0  0  0  0  0  0
  143.8688  137.3870  151.1573 H   0  0  0  0  0  0  0  0  0  0  0  0
  1  2  2  0  0  0  0
  2  3  1  0  0  0  0
  2 16  1  0  0  0  0
  3  4  1  0  0  0  0
  3 25  1  0  0  0  0
  4 15  1  0  0  0  0
  4  5  2  0  0  0  0
  5  6  1  0  0  0  0
  5 26  1  0  0  0  0
  6  7  2  0  0  0  0
  6 27  1  0  0  0  0
  7  8  1  0  0  0  0
  7 14  1  0  0  0  0
  8 13  1  0  0  0  0
  8  9  1  0  0  0  0
  9 10  1  0  0  0  0
  9 28  1  0  0  0  0
  9 29  1  0  0  0  0
 10 11  1  0  0  0  0
 10 30  1  0  0  0  0
 10 31  1  0  0  0  0
 11 12  1  0  0  0  0
 12 13  1  0  0  0  0
 12 32  1  0  0  0  0
 12 33  1  0  0  0  0
 13 34  1  0  0  0  0
 13 35  1  0  0  0  0
 14 15  2  0  0  0  0
 15 36  1  0  0  0  0
 16 17  1  0  0  0  0
 16 37  1  0  0  0  0
 17 23  1  0  0  0  0
 17 18  1  0  0  0  0
 17 38  1  0  0  0  0
 18 19  1  0  0  0  0
 18 39  1  0  0  0  0
 18 40  1  0  0  0  0
 19 20  1  0  0  0  0
 19 41  1  0  0  0  0
 19 42  1  0  0  0  0
 20 21  1  0  0  0  0
 20 43  1  0  0  0  0
 20 44  1  0  0  0  0
 21 22  1  0  0  0  0
 21 45  1  0  0  0  0
 21 46  1  0  0  0  0
 22 23  1  0  0  0  0
 22 47  1  0  0  0  0
 23 24  2  0  0  0  0
M  END
> <s_m_source_file>
AV-unprocessed.smi

> <i_m_source_file_index>
1617

> <i_lp_mmshare_version>
43012

> <i_f3d_flags>
0

> <s_epik_input>
Tz1DMVtOSF1bQ0gyXVtDSDJdW0NIMl1bQ0gyXVtDQEhdMVtOSF1DKD1PKVtOSF1jMltjSF1bY0hdYyhuW2NIXTIpTjNbQ0gyXVtDSDJdT1tDSDJdW0NIMl0z

> <s_epik_cmdline>
J2VwaWtfcHl0aG9uJywgJy1waCcsICc3LjAnLCAnLXRuJywgJzgnLCAnLW1hJywgJzIwMCcsICctbWV0YWxfYmluZGluZycsICctaW1hZScsICc8aW5maWxlLm1hZT4nLCAnLW9tYWUnLCAnPG91dGZpbGUubWFlPic=

> <r_lp_tautomer_probability>
1

> <r_epik_Ionization_Penalty>
0.00171733

> <r_epik_Ionization_Penalty_Charging>
0

> <r_epik_Ionization_Penalty_Neutral>
0.00171733

> <r_epik_State_Penalty>
0.00113787

> <r_epik_Charging_Adjusted_Penalty>
0.00113787

> <i_epik_Tot_Q>
0

> <i_epik_Tot_abs_Q>
0

> <r_epik_Metal_State_Penalty>
-0

> <b_epik_Metal_Only>
0

> <s_lp_Force_Field>
OPLS_2005

> <r_lp_Energy>
27.2722

> <b_lp_Chiralities_Consistent>
1

> <s_lp_Variant>
AV-unprocessed.smi:1617-1

> <Gold.Version>
5.8.1

> <Gold.Id.Protein>
6NUR|6NUR_protein|mol2

> <Gold.PLP.Fitness>
38.8231

> <Gold.PLP.PLP>
-33.6568

> <Gold.PLP.part.hbond>
-2.0000

> <Gold.PLP.part.metal>
0.0000

> <Gold.PLP.part.buried>
-6.6719

> <Gold.PLP.part.nonpolar>
-26.7003

> <Gold.PLP.part.repulsive>
1.1450

> <Gold.PLP.ligand.clash>
0.0000

> <Gold.PLP.ligand.torsion>
0.6493

> <Gold.PLP.Chemscore.Hbond>
2.0000

> <Gold.PLP.Chemscore.CHOScore>
0.0000

> <Gold.PLP.Chemscore.Metal>
0.0000

> <Gold.Chemscore.Hbonds>
donor molecule, donor type, donor heavy atom, donor atom, acceptor molecule, acceptor atom, score
      L1  H    16    37       P1  7948  1.00
      L1  H    22    47       P1 10171  1.00

> <Gold.PLP.Chemscore.Internal.Correction>
0.4650

> <Gold.Rescore>
     Score         DG    S(hbond)    S(metal)    S(lipo)     H(rot)  DE(clash)    DE(int)     intcor
     15.69     -17.83       1.96        0.00      77.27       1.27       0.15       1.99       ----

> <Gold.Chemscore.Fitness>
15.6870

> <Gold.Chemscore.DG>
-17.8283

> <Gold.Chemscore.ZeroCoef>
-5.4800

> <Gold.Chemscore.Hbond>
1.9627

> <Gold.Chemscore.Metal>
0.0000

> <Gold.Chemscore.Lipo>
77.2654

> <Gold.Chemscore.Internal_Hbond>
0.0000

> <Gold.Chemscore.DEClash>
0.1537

> <Gold.Chemscore.DEInternal>
1.9875

> <Gold.Chemscore.Rot>
1.2684

> <Gold.Chemscore.Internal.Correction>
   9.000000E+99

> <Gold.Chemscore.Hbonds>
donor molecule, donor type, donor heavy atom, donor atom, acceptor molecule, acceptor atom, score
      L1  H    16    37       P1  7948  0.97
      L1  H    22    47       P1 10171  0.99

> <Gold.Chemscore.Hbond.Weighted>
-6.5553

> <Gold.Chemscore.Metal.Weighted>
-0.0000

> <Gold.Chemscore.Lipo.Weighted>
-9.0401

> <Gold.Chemscore.Internal_Hbond.Weighted>
0.0000

> <Gold.Chemscore.DEClash.Weighted>
0.1537

> <Gold.Chemscore.DEInternal.Weighted>
1.9875

> <Gold.Chemscore.Rot.Weighted>
3.2471

> <Gold.Chemscore.Internal.Correction.Weighted>
   9.000000E+99

> <Gold.Protein.RotatedTorsions>
[ 6907 6896 6895 6894 ] final    8.87 input  -60.11 | X-H torsion
[ 7974 7965 7964 7962 ] final -139.62 input  175.53 | X-H torsion
[ 8008 7997 7996 7995 ] final  -54.08 input   59.86 | X-H torsion
[ 10167 10162 10161 10158 ] final  -15.63 input  -65.29 | X-H torsion
[ 10718 10713 10712 10709 ] final   -4.19 input   66.30 | X-H torsion
[ 10763 10752 10751 10750 ] final -135.41 input  -60.55 | X-H torsion
[ 11005 11000 10999 10996 ] final   86.11 input  -57.11 | X-H torsion

> <Gold.Protein.ActiveResidues>
 VAL166  LYS551  ARG553  GLY616  TRP617  ASP618  TYR619  PRO620  LYS621  CYS622 
 ASP623  PHE694  ASN695  SER759  ASP760  ASP761  ALA762  ILE779  LEU786  VAL792 
 PHE793  MET794  SER795  GLU796  ALA797  LYS798  CYS799  TRP800  GLU811  SER814 

> <Gold.Protein.RotatedAtoms>
  151.7129  135.0909  160.0270 H   0  0  0  0  0  0  0  0  0  0  0  0  # atno 6907 bound_to 6896
  152.3650  133.6341  159.6052 H   0  0  0  0  0  0  0  0  0  0  0  0  # atno 6908 bound_to 6896
  150.7631  133.9279  159.3459 H   0  0  0  0  0  0  0  0  0  0  0  0  # atno 6909 bound_to 6896
  144.8662  140.6297  143.5296 H   0  0  0  0  0  0  0  0  0  0  0  0  # atno 7974 bound_to 7965
  154.4152  140.1185  156.5257 H   0  0  0  0  0  0  0  0  0  0  0  0  # atno 8008 bound_to 7997
  155.6657  140.3496  155.4780 H   0  0  0  0  0  0  0  0  0  0  0  0  # atno 8009 bound_to 7997
  155.9675  140.1135  157.0831 H   0  0  0  0  0  0  0  0  0  0  0  0  # atno 8010 bound_to 7997
  140.7221  143.5199  150.9647 H   0  0  0  0  0  0  0  0  0  0  0  0  # atno 10167 bound_to 10162
  156.7650  130.5281  149.5778 H   0  0  0  0  0  0  0  0  0  0  0  0  # atno 10718 bound_to 10713
  154.8703  135.3704  154.4894 H   0  0  0  0  0  0  0  0  0  0  0  0  # atno 10763 bound_to 10752
  153.5542  135.7024  153.5582 H   0  0  0  0  0  0  0  0  0  0  0  0  # atno 10764 bound_to 10752
  153.3687  135.4027  155.1736 H   0  0  0  0  0  0  0  0  0  0  0  0  # atno 10765 bound_to 10752
  139.8953  134.8333  156.2675 H   0  0  0  0  0  0  0  0  0  0  0  0  # atno 11005 bound_to 11000
  145.4217  139.1563  143.4070 LP  0  0  0  0  0  0  0  0  0  0  0  0  # atno 17320 bound_to 7965
  146.2897  140.4328  142.8744 LP  0  0  0  0  0  0  0  0  0  0  0  0  # atno 17321 bound_to 7965
  139.8916  143.6947  152.3144 LP  0  0  0  0  0  0  0  0  0  0  0  0  # atno 17342 bound_to 10162
  139.7264  144.7592  151.0872 LP  0  0  0  0  0  0  0  0  0  0  0  0  # atno 17343 bound_to 10162
  156.1314  130.6181  151.0339 LP  0  0  0  0  0  0  0  0  0  0  0  0  # atno 17370 bound_to 10713
  157.6717  131.0860  150.7595 LP  0  0  0  0  0  0  0  0  0  0  0  0  # atno 17371 bound_to 10713
  141.0122  133.7089  156.1131 LP  0  0  0  0  0  0  0  0  0  0  0  0  # atno 17394 bound_to 11000
  140.7351  134.4212  157.5561 LP  0  0  0  0  0  0  0  0  0  0  0  0  # atno 17395 bound_to 11000

$$$$
