AV-unprocessed.smi:1682|AV-procd|sdf|6744|dock8
  -GOLD-   22720 7493D 1   1.00000     0.00000
 Structure written by MMmdl.
 38 39  0  0  0  0  0  0  0  0  1 V2000
  151.7584  139.7250  154.9265 O   0  0  0  0  0  0  0  0  0  0  0  0
  151.8535  139.0297  155.9386 C   0  0  0  0  0  0  0  0  0  0  0  0
  151.8421  139.5352  157.1815 N   0  0  0  0  0  0  0  0  0  0  0  0
  151.7180  140.9512  157.5068 C   0  0  0  0  0  0  0  0  0  0  0  0
  151.9953  141.2168  158.9960 C   0  0  0  0  0  0  0  0  0  0  0  0
  152.0496  142.6988  159.3143 C   0  0  0  0  0  0  0  0  0  0  0  0
  152.0124  143.6594  158.2811 C   0  0  0  0  0  0  0  0  0  0  0  0
  152.0596  145.0231  158.6307 C   0  0  0  0  0  0  0  0  0  0  0  0
  152.1402  145.3713  159.9928 C   0  0  0  0  0  0  0  0  0  0  0  0
  152.1711  144.3363  160.9487 C   0  0  0  0  0  0  0  0  0  0  0  0
  152.1271  143.0260  160.6242 N   0  0  0  0  0  0  0  0  0  0  0  0
  151.9998  137.5047  155.8191 C   0  0  1  0  0  0  0  0  0  0  0  0
  151.7847  136.8079  157.1773 C   0  0  0  0  0  0  0  0  0  0  0  0
  150.4894  136.0353  156.9944 C   0  0  0  0  0  0  0  0  0  0  0  0
  149.9324  135.4429  157.9173 O   0  0  0  0  0  0  0  0  0  0  0  0
  150.0590  136.1099  155.7306 N   0  0  0  0  0  0  0  0  0  0  0  0
  148.8300  135.5246  155.1966 C   0  0  0  0  0  0  0  0  0  0  0  0
  148.8619  133.9855  155.1952 C   0  0  0  0  0  0  0  0  0  0  0  0
  150.0144  133.5256  154.7090 F   0  0  0  0  0  0  0  0  0  0  0  0
  148.7279  133.5488  156.4468 F   0  0  0  0  0  0  0  0  0  0  0  0
  147.8552  133.5017  154.4674 F   0  0  0  0  0  0  0  0  0  0  0  0
  150.9445  136.8852  154.8767 C   0  0  0  0  0  0  0  0  0  0  0  0
  151.9255  138.8941  157.9573 H   0  0  0  0  0  0  0  0  0  0  0  0
  152.3919  141.5398  156.8816 H   0  0  0  0  0  0  0  0  0  0  0  0
  150.7055  141.2670  157.2541 H   0  0  0  0  0  0  0  0  0  0  0  0
  151.2226  140.7516  159.6097 H   0  0  0  0  0  0  0  0  0  0  0  0
  152.9388  140.7561  159.2919 H   0  0  0  0  0  0  0  0  0  0  0  0
  151.9476  143.3609  157.2449 H   0  0  0  0  0  0  0  0  0  0  0  0
  152.0338  145.7872  157.8679 H   0  0  0  0  0  0  0  0  0  0  0  0
  152.1769  146.4065  160.2983 H   0  0  0  0  0  0  0  0  0  0  0  0
  152.2319  144.5668  162.0019 H   0  0  0  0  0  0  0  0  0  0  0  0
  152.9983  137.2722  155.4444 H   0  0  0  0  0  0  0  0  0  0  0  0
  152.5952  136.1115  157.3944 H   0  0  0  0  0  0  0  0  0  0  0  0
  151.7007  137.4990  158.0179 H   0  0  0  0  0  0  0  0  0  0  0  0
  147.9763  135.8796  155.7761 H   0  0  0  0  0  0  0  0  0  0  0  0
  148.6752  135.8874  154.1797 H   0  0  0  0  0  0  0  0  0  0  0  0
  150.3804  137.6342  154.3178 H   0  0  0  0  0  0  0  0  0  0  0  0
  151.4175  136.2233  154.1504 H   0  0  0  0  0  0  0  0  0  0  0  0
  1  2  2  0  0  0  0
  2  3  1  0  0  0  0
  2 12  1  0  0  0  0
  3  4  1  0  0  0  0
  3 23  1  0  0  0  0
  4  5  1  0  0  0  0
  4 24  1  0  0  0  0
  4 25  1  0  0  0  0
  5  6  1  0  0  0  0
  5 26  1  0  0  0  0
  5 27  1  0  0  0  0
  6 11  1  0  0  0  0
  6  7  2  0  0  0  0
  7  8  1  0  0  0  0
  7 28  1  0  0  0  0
  8  9  2  0  0  0  0
  8 29  1  0  0  0  0
  9 10  1  0  0  0  0
  9 30  1  0  0  0  0
 10 11  2  0  0  0  0
 10 31  1  0  0  0  0
 12 22  1  0  0  0  0
 12 13  1  0  0  0  0
 12 32  1  0  0  0  0
 13 14  1  0  0  0  0
 13 33  1  0  0  0  0
 13 34  1  0  0  0  0
 14 15  2  0  0  0  0
 14 16  1  0  0  0  0
 16 17  1  0  0  0  0
 16 22  1  0  0  0  0
 17 18  1  0  0  0  0
 17 35  1  0  0  0  0
 17 36  1  0  0  0  0
 18 19  1  0  0  0  0
 18 20  1  0  0  0  0
 18 21  1  0  0  0  0
 22 37  1  0  0  0  0
 22 38  1  0  0  0  0
M  END
> <s_m_source_file>
AV-unprocessed.smi

> <i_m_source_file_index>
1682

> <i_lp_mmshare_version>
43012

> <i_f3d_flags>
0

> <s_epik_input>
RkMoRikoRilbQ0gyXU4oW0NIMl0xKUMoPU8pW0NIMl1bQ0BIXTFDKD1PKVtOSF1bQ0gyXVtDSDJdYzJbY0hdW2NIXVtjSF1bY0hdbjI=

> <s_epik_cmdline>
J2VwaWtfcHl0aG9uJywgJy1waCcsICc3LjAnLCAnLXRuJywgJzgnLCAnLW1hJywgJzIwMCcsICctbWV0YWxfYmluZGluZycsICctaW1hZScsICc8aW5maWxlLm1hZT4nLCAnLW9tYWUnLCAnPG91dGZpbGUubWFlPic=

> <r_epik_Ionization_Penalty>
0.0252359

> <r_epik_Ionization_Penalty_Charging>
0

> <r_epik_Ionization_Penalty_Neutral>
0.0252359

> <r_epik_State_Penalty>
0.020532

> <r_epik_Charging_Adjusted_Penalty>
0.020532

> <i_epik_Tot_Q>
0

> <i_epik_Tot_abs_Q>
0

> <r_epik_Metal_State_Penalty>
0.0196899

> <b_epik_Metal_Only>
0

> <s_lp_Force_Field>
OPLS_2005

> <r_lp_Energy>
9.99714

> <b_lp_Chiralities_Consistent>
1

> <s_lp_Variant>
AV-unprocessed.smi:1682-2

> <Gold.Version>
5.8.1

> <Gold.Id.Protein>
6NUR|6NUR_protein|mol2

> <Gold.PLP.Fitness>
45.0375

> <Gold.PLP.PLP>
-41.0726

> <Gold.PLP.part.hbond>
-2.1739

> <Gold.PLP.part.metal>
0.0000

> <Gold.PLP.part.buried>
-7.3121

> <Gold.PLP.part.nonpolar>
-32.4649

> <Gold.PLP.part.repulsive>
0.1813

> <Gold.PLP.ligand.clash>
0.8021

> <Gold.PLP.ligand.torsion>
0.5402

> <Gold.PLP.Chemscore.Hbond>
1.8882

> <Gold.PLP.Chemscore.CHOScore>
0.0000

> <Gold.PLP.Chemscore.Metal>
0.0000

> <Gold.Chemscore.Hbonds>
donor molecule, donor type, donor heavy atom, donor atom, acceptor molecule, acceptor atom, score
      P1  H  6896  6907       L1    15  0.88
      P1  H  7989  7998       L1     1  1.00

> <Gold.PLP.Chemscore.Internal.Correction>
0.1828

> <Gold.Rescore>
     Score         DG    S(hbond)    S(metal)    S(lipo)     H(rot)  DE(clash)    DE(int)     intcor
     15.85     -17.94       1.90        0.00      97.91       2.09       0.01       2.09       ----

> <Gold.Chemscore.Fitness>
15.8483

> <Gold.Chemscore.DG>
-17.9445

> <Gold.Chemscore.ZeroCoef>
-5.4800

> <Gold.Chemscore.Hbond>
1.9030

> <Gold.Chemscore.Metal>
0.0000

> <Gold.Chemscore.Lipo>
97.9052

> <Gold.Chemscore.Internal_Hbond>
0.0000

> <Gold.Chemscore.DEClash>
0.0085

> <Gold.Chemscore.DEInternal>
2.0877

> <Gold.Chemscore.Rot>
2.0884

> <Gold.Chemscore.Internal.Correction>
   9.000000E+99

> <Gold.Chemscore.Hbonds>
donor molecule, donor type, donor heavy atom, donor atom, acceptor molecule, acceptor atom, score
      P1  H  6896  6907       L1    15  0.84
      P1  H  7989  7998       L1     1  0.96

> <Gold.Chemscore.Hbond.Weighted>
-6.3560

> <Gold.Chemscore.Metal.Weighted>
-0.0000

> <Gold.Chemscore.Lipo.Weighted>
-11.4549

> <Gold.Chemscore.Internal_Hbond.Weighted>
0.0000

> <Gold.Chemscore.DEClash.Weighted>
0.0085

> <Gold.Chemscore.DEInternal.Weighted>
2.0877

> <Gold.Chemscore.Rot.Weighted>
5.3464

> <Gold.Chemscore.Internal.Correction.Weighted>
   9.000000E+99

> <Gold.Protein.RotatedTorsions>
[ 6907 6896 6895 6894 ] final  -82.19 input  -60.11 | X-H torsion
[ 7974 7965 7964 7962 ] final  101.03 input  175.53 | X-H torsion
[ 8008 7997 7996 7995 ] final -148.05 input   59.86 | X-H torsion
[ 10167 10162 10161 10158 ] final  119.49 input  -65.29 | X-H torsion
[ 10718 10713 10712 10709 ] final   26.20 input   66.30 | X-H torsion
[ 10763 10752 10751 10750 ] final  -56.86 input  -60.55 | X-H torsion
[ 11005 11000 10999 10996 ] final   14.43 input  -57.11 | X-H torsion

> <Gold.Protein.ActiveResidues>
 VAL166  LYS551  ARG553  GLY616  TRP617  ASP618  TYR619  PRO620  LYS621  CYS622 
 ASP623  PHE694  ASN695  SER759  ASP760  ASP761  ALA762  ILE779  LEU786  VAL792 
 PHE793  MET794  SER795  GLU796  ALA797  LYS798  CYS799  TRP800  GLU811  SER814 

> <Gold.Protein.RotatedAtoms>
  150.6901  134.3703  159.4988 H   0  0  0  0  0  0  0  0  0  0  0  0  # atno 6907 bound_to 6896
  152.1520  134.8978  160.0556 H   0  0  0  0  0  0  0  0  0  0  0  0  # atno 6908 bound_to 6896
  152.0072  133.3813  159.4242 H   0  0  0  0  0  0  0  0  0  0  0  0  # atno 6909 bound_to 6896
  145.3778  139.2385  143.3420 H   0  0  0  0  0  0  0  0  0  0  0  0  # atno 7974 bound_to 7965
  155.5853  140.0647  157.2772 H   0  0  0  0  0  0  0  0  0  0  0  0  # atno 8008 bound_to 7997
  154.4320  140.1845  156.1065 H   0  0  0  0  0  0  0  0  0  0  0  0  # atno 8009 bound_to 7997
  156.0274  140.3310  155.7106 H   0  0  0  0  0  0  0  0  0  0  0  0  # atno 8010 bound_to 7997
  139.6043  144.7065  151.2990 H   0  0  0  0  0  0  0  0  0  0  0  0  # atno 10167 bound_to 10162
  157.2036  130.6901  149.6199 H   0  0  0  0  0  0  0  0  0  0  0  0  # atno 10718 bound_to 10713
  154.2133  135.6390  153.5122 H   0  0  0  0  0  0  0  0  0  0  0  0  # atno 10763 bound_to 10752
  152.9985  135.5479  154.6191 H   0  0  0  0  0  0  0  0  0  0  0  0  # atno 10764 bound_to 10752
  154.5634  135.2911  155.0871 H   0  0  0  0  0  0  0  0  0  0  0  0  # atno 10765 bound_to 10752
  140.4696  134.1044  155.7730 H   0  0  0  0  0  0  0  0  0  0  0  0  # atno 11005 bound_to 11000
  146.2856  140.4440  142.8759 LP  0  0  0  0  0  0  0  0  0  0  0  0  # atno 17320 bound_to 7965
  144.8530  140.7028  143.6156 LP  0  0  0  0  0  0  0  0  0  0  0  0  # atno 17321 bound_to 7965
  140.7273  143.6967  150.7878 LP  0  0  0  0  0  0  0  0  0  0  0  0  # atno 17342 bound_to 10162
  140.0550  143.5212  152.2655 LP  0  0  0  0  0  0  0  0  0  0  0  0  # atno 17343 bound_to 10162
  155.9698  130.4574  150.5962 LP  0  0  0  0  0  0  0  0  0  0  0  0  # atno 17370 bound_to 10713
  157.3742  131.0770  151.1532 LP  0  0  0  0  0  0  0  0  0  0  0  0  # atno 17371 bound_to 10713
  141.1583  133.8841  157.1918 LP  0  0  0  0  0  0  0  0  0  0  0  0  # atno 17394 bound_to 11000
  139.9893  135.0070  156.9938 LP  0  0  0  0  0  0  0  0  0  0  0  0  # atno 17395 bound_to 11000

$$$$
