AV-unprocessed.smi:284|AV-procd|sdf|2157|dock4
  -GOLD-   2262021503D 1   1.00000     0.00000
 Structure written by MMmdl.
 60 62  0  0  0  0  0  0  0  0  1 V2000
  160.2186  141.6840  163.5109 C   0  0  0  0  0  0  0  0  0  0  0  0
  158.9778  141.0218  164.0897 C   0  0  0  0  0  0  0  0  0  0  0  0
  158.5768  141.2348  165.3647 C   0  0  0  0  0  0  0  0  0  0  0  0
  157.4496  140.6523  165.9187 N   0  0  0  0  0  0  0  0  0  0  0  0
  157.0076  140.9210  167.3441 C   0  0  2  0  0  0  0  0  0  0  0  0
  156.7400  142.4228  167.5556 C   0  0  0  0  0  0  0  0  0  0  0  0
  157.5402  142.7470  168.8042 C   0  0  1  0  0  0  0  0  0  0  0  0
  156.7364  142.6101  169.9612 O   0  0  0  0  0  0  0  0  0  0  0  0
  158.6626  141.7051  168.7531 C   0  0  1  0  0  0  0  0  0  0  0  0
  159.3941  141.4000  170.0722 C   0  0  0  0  0  0  0  0  0  0  0  0
  160.4061  140.4384  169.8609 O   0  0  0  0  0  0  0  0  0  0  0  0
  158.0131  140.5464  168.2415 O   0  0  0  0  0  0  0  0  0  0  0  0
  156.6656  139.7773  165.1394 C   0  0  0  0  0  0  0  0  0  0  0  0
  155.6555  139.2494  165.6111 O   0  0  0  0  0  0  0  0  0  0  0  0
  157.0600  139.5302  163.8058 N   0  0  0  0  0  0  0  0  0  0  0  0
  156.2181  138.6397  162.9753 C   0  0  0  0  0  0  0  0  0  0  0  0
  155.4277  139.3822  161.8855 C   0  0  0  0  0  0  0  0  0  0  0  0
  155.3888  138.9392  160.7374 O   0  0  0  0  0  0  0  0  0  0  0  0
  154.8092  140.5030  162.3021 N   0  0  0  0  0  0  0  0  0  0  0  0
  154.0122  141.4357  161.5794 C   0  0  0  0  0  0  0  0  0  0  0  0
  153.5660  142.5672  162.2903 C   0  0  0  0  0  0  0  0  0  0  0  0
  152.7742  143.5490  161.6647 C   0  0  0  0  0  0  0  0  0  0  0  0
  152.4058  143.4240  160.3033 C   0  0  0  0  0  0  0  0  0  0  0  0
  151.5431  144.4754  159.5796 C   0  0  0  0  0  0  0  0  0  0  0  0
  150.1120  144.4559  160.1558 C   0  0  0  0  0  0  0  0  0  0  0  0
  151.4383  144.2268  158.0579 C   0  0  0  0  0  0  0  0  0  0  0  0
  152.1550  145.8769  159.7835 C   0  0  0  0  0  0  0  0  0  0  0  0
  152.8559  142.2855  159.5954 C   0  0  0  0  0  0  0  0  0  0  0  0
  153.6476  141.3024  160.2186 C   0  0  0  0  0  0  0  0  0  0  0  0
  158.2022  140.1313  163.2231 C   0  0  0  0  0  0  0  0  0  0  0  0
  158.5004  139.9061  162.0484 O   0  0  0  0  0  0  0  0  0  0  0  0
  160.7199  142.3189  164.2419 H   0  0  0  0  0  0  0  0  0  0  0  0
  159.9537  142.3066  162.6555 H   0  0  0  0  0  0  0  0  0  0  0  0
  160.9335  140.9307  163.1782 H   0  0  0  0  0  0  0  0  0  0  0  0
  159.1803  141.8981  165.9647 H   0  0  0  0  0  0  0  0  0  0  0  0
  156.1341  140.2874  167.5076 H   0  0  0  0  0  0  0  0  0  0  0  0
  157.1291  142.9898  166.7083 H   0  0  0  0  0  0  0  0  0  0  0  0
  155.6719  142.6251  167.6460 H   0  0  0  0  0  0  0  0  0  0  0  0
  157.9335  143.7638  168.7784 H   0  0  0  0  0  0  0  0  0  0  0  0
  157.2815  142.7368  170.7226 H   0  0  0  0  0  0  0  0  0  0  0  0
  159.3945  142.0230  168.0086 H   0  0  0  0  0  0  0  0  0  0  0  0
  159.8254  142.2990  170.5126 H   0  0  0  0  0  0  0  0  0  0  0  0
  158.6899  140.9978  170.8009 H   0  0  0  0  0  0  0  0  0  0  0  0
  161.2442  140.8751  169.8821 H   0  0  0  0  0  0  0  0  0  0  0  0
  156.8148  137.8628  162.4947 H   0  0  0  0  0  0  0  0  0  0  0  0
  155.5173  138.0829  163.6001 H   0  0  0  0  0  0  0  0  0  0  0  0
  154.9351  140.7242  163.2791 H   0  0  0  0  0  0  0  0  0  0  0  0
  153.8321  142.6900  163.3302 H   0  0  0  0  0  0  0  0  0  0  0  0
  152.4636  144.3930  162.2603 H   0  0  0  0  0  0  0  0  0  0  0  0
  149.4701  145.1768  159.6483 H   0  0  0  0  0  0  0  0  0  0  0  0
  150.0924  144.7043  161.2171 H   0  0  0  0  0  0  0  0  0  0  0  0
  149.6543  143.4726  160.0408 H   0  0  0  0  0  0  0  0  0  0  0  0
  150.9818  143.2612  157.8369 H   0  0  0  0  0  0  0  0  0  0  0  0
  152.4160  144.2590  157.5753 H   0  0  0  0  0  0  0  0  0  0  0  0
  150.8217  144.9866  157.5763 H   0  0  0  0  0  0  0  0  0  0  0  0
  151.5776  146.6413  159.2623 H   0  0  0  0  0  0  0  0  0  0  0  0
  153.1756  145.9206  159.4014 H   0  0  0  0  0  0  0  0  0  0  0  0
  152.1860  146.1635  160.8347 H   0  0  0  0  0  0  0  0  0  0  0  0
  152.5966  142.1530  158.5559 H   0  0  0  0  0  0  0  0  0  0  0  0
  153.9556  140.4617  159.6194 H   0  0  0  0  0  0  0  0  0  0  0  0
  1  2  1  0  0  0  0
  1 32  1  0  0  0  0
  1 33  1  0  0  0  0
  1 34  1  0  0  0  0
  2 30  1  0  0  0  0
  2  3  2  0  0  0  0
  3  4  1  0  0  0  0
  3 35  1  0  0  0  0
  4  5  1  0  0  0  0
  4 13  1  0  0  0  0
  5 12  1  0  0  0  0
  5  6  1  0  0  0  0
  5 36  1  0  0  0  0
  6  7  1  0  0  0  0
  6 37  1  0  0  0  0
  6 38  1  0  0  0  0
  7  8  1  0  0  0  0
  7  9  1  0  0  0  0
  7 39  1  0  0  0  0
  8 40  1  0  0  0  0
  9 10  1  0  0  0  0
  9 12  1  0  0  0  0
  9 41  1  0  0  0  0
 10 11  1  0  0  0  0
 10 42  1  0  0  0  0
 10 43  1  0  0  0  0
 11 44  1  0  0  0  0
 13 14  2  0  0  0  0
 13 15  1  0  0  0  0
 15 16  1  0  0  0  0
 15 30  1  0  0  0  0
 16 17  1  0  0  0  0
 16 45  1  0  0  0  0
 16 46  1  0  0  0  0
 17 18  2  0  0  0  0
 17 19  1  0  0  0  0
 19 20  1  0  0  0  0
 19 47  1  0  0  0  0
 20 29  1  0  0  0  0
 20 21  2  0  0  0  0
 21 22  1  0  0  0  0
 21 48  1  0  0  0  0
 22 23  2  0  0  0  0
 22 49  1  0  0  0  0
 23 24  1  0  0  0  0
 23 28  1  0  0  0  0
 24 25  1  0  0  0  0
 24 26  1  0  0  0  0
 24 27  1  0  0  0  0
 25 50  1  0  0  0  0
 25 51  1  0  0  0  0
 25 52  1  0  0  0  0
 26 53  1  0  0  0  0
 26 54  1  0  0  0  0
 26 55  1  0  0  0  0
 27 56  1  0  0  0  0
 27 57  1  0  0  0  0
 27 58  1  0  0  0  0
 28 29  2  0  0  0  0
 28 59  1  0  0  0  0
 29 60  1  0  0  0  0
 30 31  2  0  0  0  0
M  END
> <s_m_source_file>
AV-unprocessed.smi

> <i_m_source_file_index>
284

> <i_lp_mmshare_version>
43012

> <i_f3d_flags>
0

> <s_epik_input>
W09IXVtDSDJdW0NAQEhdKE8xKVtDQEhdKFtPSF0pW0NIMl1bQ0BIXTFuKFtjSF1jMltDSDNdKWMoPU8pbihjMj1PKVtDSDJdQyg9TylbTkhdYzNbY0hdW2NIXWMoQyhbQ0gzXSkoW0NIM10pW0NIM10pW2NIXVtjSF0z

> <s_epik_cmdline>
J2VwaWtfcHl0aG9uJywgJy1waCcsICc3LjAnLCAnLXRuJywgJzgnLCAnLW1hJywgJzIwMCcsICctbWV0YWxfYmluZGluZycsICctaW1hZScsICc8aW5maWxlLm1hZT4nLCAnLW9tYWUnLCAnPG91dGZpbGUubWFlPic=

> <r_lp_tautomer_probability>
1

> <r_epik_Ionization_Penalty>
4.92358e-06

> <r_epik_Ionization_Penalty_Charging>
1.29777e-07

> <r_epik_Ionization_Penalty_Neutral>
4.79381e-06

> <r_epik_State_Penalty>
-0

> <r_epik_Charging_Adjusted_Penalty>
1.29777e-07

> <i_epik_Tot_Q>
0

> <i_epik_Tot_abs_Q>
0

> <r_epik_Metal_State_Penalty>
-0

> <b_epik_Metal_Only>
0

> <s_epik_Chemistry_Notes>
This compound contains an acetal/aminal-like group ( X-CH(R)-Y where X, Y are N, S, or O) that may be acid/base labile, releasing an aldehyde.

> <s_lp_Force_Field>
OPLS_2005

> <r_lp_Energy>
42.5826

> <b_lp_Chiralities_Consistent>
1

> <s_lp_Variant>
AV-unprocessed.smi:284-1

> <Gold.Version>
5.8.1

> <Gold.Id.Protein>
6NUR|6NUR_protein|mol2

> <Gold.PLP.Fitness>
55.3281

> <Gold.PLP.PLP>
-56.2347

> <Gold.PLP.part.hbond>
-5.0927

> <Gold.PLP.part.metal>
0.0000

> <Gold.PLP.part.buried>
-6.1971

> <Gold.PLP.part.nonpolar>
-44.8340

> <Gold.PLP.part.repulsive>
0.1449

> <Gold.PLP.ligand.clash>
0.0000

> <Gold.PLP.ligand.torsion>
0.4821

> <Gold.PLP.Chemscore.Hbond>
0.0000

> <Gold.PLP.Chemscore.CHOScore>
0.0000

> <Gold.PLP.Chemscore.Metal>
0.0000

> <Gold.PLP.Chemscore.Internal.Correction>
0.0575

> <Gold.Rescore>
     Score         DG    S(hbond)    S(metal)    S(lipo)     H(rot)  DE(clash)    DE(int)     intcor
     10.79     -12.36       0.00        0.00     130.43       3.27       0.16       1.41       ----

> <Gold.Chemscore.Fitness>
10.7893

> <Gold.Chemscore.DG>
-12.3607

> <Gold.Chemscore.ZeroCoef>
-5.4800

> <Gold.Chemscore.Hbond>
0.0000

> <Gold.Chemscore.Metal>
0.0000

> <Gold.Chemscore.Lipo>
130.4337

> <Gold.Chemscore.Internal_Hbond>
0.0000

> <Gold.Chemscore.DEClash>
0.1626

> <Gold.Chemscore.DEInternal>
1.4088

> <Gold.Chemscore.Rot>
3.2735

> <Gold.Chemscore.Internal.Correction>
   9.000000E+99

> <Gold.Chemscore.Hbond.Weighted>
-0.0000

> <Gold.Chemscore.Metal.Weighted>
-0.0000

> <Gold.Chemscore.Lipo.Weighted>
-15.2607

> <Gold.Chemscore.Internal_Hbond.Weighted>
0.0000

> <Gold.Chemscore.DEClash.Weighted>
0.1626

> <Gold.Chemscore.DEInternal.Weighted>
1.4088

> <Gold.Chemscore.Rot.Weighted>
8.3801

> <Gold.Chemscore.Internal.Correction.Weighted>
   9.000000E+99

> <Gold.Protein.RotatedTorsions>
[ 6907 6896 6895 6894 ] final -130.57 input  -60.11 | X-H torsion
[ 7974 7965 7964 7962 ] final -115.18 input  175.53 | X-H torsion
[ 8008 7997 7996 7995 ] final   42.22 input   59.86 | X-H torsion
[ 10167 10162 10161 10158 ] final  -64.33 input  -65.29 | X-H torsion
[ 10718 10713 10712 10709 ] final  -58.88 input   66.30 | X-H torsion
[ 10763 10752 10751 10750 ] final   38.42 input  -60.55 | X-H torsion
[ 11005 11000 10999 10996 ] final  103.79 input  -57.11 | X-H torsion

> <Gold.Protein.ActiveResidues>
 VAL166  LYS551  ARG553  GLY616  TRP617  ASP618  TYR619  PRO620  LYS621  CYS622 
 ASP623  PHE694  ASN695  SER759  ASP760  ASP761  ALA762  ILE779  LEU786  VAL792 
 PHE793  MET794  SER795  GLU796  ALA797  LYS798  CYS799  TRP800  GLU811  SER814 

> <Gold.Protein.RotatedAtoms>
  150.9412  133.6654  159.2790 H   0  0  0  0  0  0  0  0  0  0  0  0  # atno 6907 bound_to 6896
  151.4043  135.0974  159.9575 H   0  0  0  0  0  0  0  0  0  0  0  0  # atno 6908 bound_to 6896
  152.5070  133.8899  159.7443 H   0  0  0  0  0  0  0  0  0  0  0  0  # atno 6909 bound_to 6896
  145.1114  140.8614  143.3868 H   0  0  0  0  0  0  0  0  0  0  0  0  # atno 7974 bound_to 7965
  155.2825  140.3373  155.4257 H   0  0  0  0  0  0  0  0  0  0  0  0  # atno 8008 bound_to 7997
  156.2083  140.1760  156.7792 H   0  0  0  0  0  0  0  0  0  0  0  0  # atno 8009 bound_to 7997
  154.5651  140.0680  156.8863 H   0  0  0  0  0  0  0  0  0  0  0  0  # atno 8010 bound_to 7997
  140.5808  143.2327  151.6346 H   0  0  0  0  0  0  0  0  0  0  0  0  # atno 10167 bound_to 10162
  156.1102  130.4176  150.0638 H   0  0  0  0  0  0  0  0  0  0  0  0  # atno 10718 bound_to 10713
  153.0001  135.6250  154.2302 H   0  0  0  0  0  0  0  0  0  0  0  0  # atno 10763 bound_to 10752
  154.2044  135.2802  155.2981 H   0  0  0  0  0  0  0  0  0  0  0  0  # atno 10764 bound_to 10752
  154.5657  135.5692  153.7107 H   0  0  0  0  0  0  0  0  0  0  0  0  # atno 10765 bound_to 10752
  139.8786  134.9276  156.5263 H   0  0  0  0  0  0  0  0  0  0  0  0  # atno 11005 bound_to 11000
  145.0843  139.2937  143.5767 LP  0  0  0  0  0  0  0  0  0  0  0  0  # atno 17320 bound_to 7965
  146.3526  140.0359  142.8647 LP  0  0  0  0  0  0  0  0  0  0  0  0  # atno 17321 bound_to 7965
  139.5169  144.3333  152.0806 LP  0  0  0  0  0  0  0  0  0  0  0  0  # atno 17342 bound_to 10162
  140.2483  144.4196  150.6232 LP  0  0  0  0  0  0  0  0  0  0  0  0  # atno 17343 bound_to 10162
  156.8603  130.9489  151.3618 LP  0  0  0  0  0  0  0  0  0  0  0  0  # atno 17370 bound_to 10713
  157.6283  130.8709  149.9228 LP  0  0  0  0  0  0  0  0  0  0  0  0  # atno 17371 bound_to 10713
  140.8413  133.8203  155.9078 LP  0  0  0  0  0  0  0  0  0  0  0  0  # atno 17394 bound_to 11000
  140.9234  134.2112  157.4911 LP  0  0  0  0  0  0  0  0  0  0  0  0  # atno 17395 bound_to 11000

$$$$
