AV-unprocessed.smi:2591|AV-procd|sdf|10158|dock6
  -GOLD-   2272014173D 1   1.00000     0.00000
 Structure written by MMmdl.
 34 35  0  0  0  0  0  0  0  0  1 V2000
  147.6165  141.9415  154.1557 C   0  0  0  0  0  0  0  0  0  0  0  0
  148.7685  141.0529  154.1402 N   0  0  0  0  0  0  0  0  0  0  0  0
  148.3693  139.6528  154.1025 C   0  0  0  0  0  0  0  0  0  0  0  0
  149.5898  138.7173  154.0902 C   0  0  0  0  0  0  0  0  0  0  0  0
  150.4128  138.9895  155.2207 O   0  0  0  0  0  0  0  0  0  0  0  0
  150.8658  140.3433  155.2755 C   0  0  2  0  0  0  0  0  0  0  0  0
  151.7644  140.5167  156.5085 C   0  0  0  0  0  0  0  0  0  0  0  0
  152.7869  139.8398  156.6281 O   0  0  0  0  0  0  0  0  0  0  0  0
  151.3407  141.4177  157.4156 N   0  0  0  0  0  0  0  0  0  0  0  0
  151.9469  141.7833  158.6465 C   0  0  0  0  0  0  0  0  0  0  0  0
  152.8587  140.8386  159.1681 C   0  0  0  0  0  0  0  0  0  0  0  0
  153.5259  141.1062  160.3831 C   0  0  0  0  0  0  0  0  0  0  0  0
  154.5098  140.1060  160.9700 C   0  0  0  0  0  0  0  0  0  0  0  0
  153.9495  138.9017  161.0867 F   0  0  0  0  0  0  0  0  0  0  0  0
  155.5700  140.0108  160.1688 F   0  0  0  0  0  0  0  0  0  0  0  0
  154.9176  140.4959  162.1784 F   0  0  0  0  0  0  0  0  0  0  0  0
  153.2430  142.3169  161.0475 C   0  0  0  0  0  0  0  0  0  0  0  0
  152.3193  143.2007  160.4614 C   0  0  0  0  0  0  0  0  0  0  0  0
  151.6903  142.9456  159.2957 N   0  0  0  0  0  0  0  0  0  0  0  0
  149.6385  141.2836  155.2864 C   0  0  0  0  0  0  0  0  0  0  0  0
  146.9921  141.7802  153.2765 H   0  0  0  0  0  0  0  0  0  0  0  0
  147.9342  142.9846  154.1504 H   0  0  0  0  0  0  0  0  0  0  0  0
  147.0040  141.7774  155.0434 H   0  0  0  0  0  0  0  0  0  0  0  0
  147.7464  139.4217  154.9682 H   0  0  0  0  0  0  0  0  0  0  0  0
  147.7585  139.4652  153.2189 H   0  0  0  0  0  0  0  0  0  0  0  0
  149.2700  137.6759  154.1241 H   0  0  0  0  0  0  0  0  0  0  0  0
  150.1661  138.8463  153.1729 H   0  0  0  0  0  0  0  0  0  0  0  0
  151.4750  140.5482  154.3932 H   0  0  0  0  0  0  0  0  0  0  0  0
  150.4811  141.8982  157.1930 H   0  0  0  0  0  0  0  0  0  0  0  0
  153.0463  139.9153  158.6390 H   0  0  0  0  0  0  0  0  0  0  0  0
  153.7183  142.5659  161.9850 H   0  0  0  0  0  0  0  0  0  0  0  0
  152.0773  144.1372  160.9417 H   0  0  0  0  0  0  0  0  0  0  0  0
  149.9722  142.3222  155.2836 H   0  0  0  0  0  0  0  0  0  0  0  0
  149.0751  141.1395  156.2102 H   0  0  0  0  0  0  0  0  0  0  0  0
  1  2  1  0  0  0  0
  1 21  1  0  0  0  0
  1 22  1  0  0  0  0
  1 23  1  0  0  0  0
  2 20  1  0  0  0  0
  2  3  1  0  0  0  0
  3  4  1  0  0  0  0
  3 24  1  0  0  0  0
  3 25  1  0  0  0  0
  4  5  1  0  0  0  0
  4 26  1  0  0  0  0
  4 27  1  0  0  0  0
  5  6  1  0  0  0  0
  6  7  1  0  0  0  0
  6 20  1  0  0  0  0
  6 28  1  0  0  0  0
  7  8  2  0  0  0  0
  7  9  1  0  0  0  0
  9 10  1  0  0  0  0
  9 29  1  0  0  0  0
 10 19  1  0  0  0  0
 10 11  2  0  0  0  0
 11 12  1  0  0  0  0
 11 30  1  0  0  0  0
 12 13  1  0  0  0  0
 12 17  2  0  0  0  0
 13 14  1  0  0  0  0
 13 15  1  0  0  0  0
 13 16  1  0  0  0  0
 17 18  1  0  0  0  0
 17 31  1  0  0  0  0
 18 19  2  0  0  0  0
 18 32  1  0  0  0  0
 20 33  1  0  0  0  0
 20 34  1  0  0  0  0
M  END
> <s_m_source_file>
AV-unprocessed.smi

> <i_m_source_file_index>
2591

> <i_lp_mmshare_version>
43012

> <i_f3d_flags>
0

> <s_epik_input>
W0NIM11OMVtDSDJdW0NIMl1PW0NASF0oW0NIMl0xKUMoPU8pW05IXWMyW2NIXWMoQyhGKShGKUYpW2NIXVtjSF1uMg==

> <s_epik_cmdline>
J2VwaWtfcHl0aG9uJywgJy1waCcsICc3LjAnLCAnLXRuJywgJzgnLCAnLW1hJywgJzIwMCcsICctbWV0YWxfYmluZGluZycsICctaW1hZScsICc8aW5maWxlLm1hZT4nLCAnLW9tYWUnLCAnPG91dGZpbGUubWFlPic=

> <r_epik_Ionization_Penalty>
0.526245

> <r_epik_Ionization_Penalty_Charging>
0

> <r_epik_Ionization_Penalty_Neutral>
0.526245

> <r_epik_State_Penalty>
0.534659

> <r_epik_Charging_Adjusted_Penalty>
0.534659

> <i_epik_Tot_Q>
0

> <i_epik_Tot_abs_Q>
0

> <r_epik_Metal_State_Penalty>
0.534657

> <b_epik_Metal_Only>
0

> <s_lp_Force_Field>
OPLS_2005

> <r_lp_Energy>
21.9247

> <b_lp_Chiralities_Consistent>
1

> <s_lp_Variant>
AV-unprocessed.smi:2591-6

> <Gold.Version>
5.8.1

> <Gold.Id.Protein>
6NUR|6NUR_protein|mol2

> <Gold.PLP.Fitness>
40.5001

> <Gold.PLP.PLP>
-39.3536

> <Gold.PLP.part.hbond>
-1.0051

> <Gold.PLP.part.metal>
0.0000

> <Gold.PLP.part.buried>
-1.4458

> <Gold.PLP.part.nonpolar>
-35.4512

> <Gold.PLP.part.repulsive>
0.2786

> <Gold.PLP.ligand.clash>
2.5454

> <Gold.PLP.ligand.torsion>
0.1989

> <Gold.PLP.Chemscore.Hbond>
1.0000

> <Gold.PLP.Chemscore.CHOScore>
0.0000

> <Gold.PLP.Chemscore.Metal>
0.0000

> <Gold.Chemscore.Hbonds>
donor molecule, donor type, donor heavy atom, donor atom, acceptor molecule, acceptor atom, score
      P1  H  7997  8010       L1     8  1.00

> <Gold.PLP.Chemscore.Internal.Correction>
1.0897

> <Gold.Rescore>
     Score         DG    S(hbond)    S(metal)    S(lipo)     H(rot)  DE(clash)    DE(int)     intcor
     13.92     -15.52       0.99        0.00      79.42       1.00       0.01       1.60       ----

> <Gold.Chemscore.Fitness>
13.9224

> <Gold.Chemscore.DG>
-15.5242

> <Gold.Chemscore.ZeroCoef>
-5.4800

> <Gold.Chemscore.Hbond>
0.9915

> <Gold.Chemscore.Metal>
0.0000

> <Gold.Chemscore.Lipo>
79.4248

> <Gold.Chemscore.Internal_Hbond>
0.0000

> <Gold.Chemscore.DEClash>
0.0059

> <Gold.Chemscore.DEInternal>
1.5959

> <Gold.Chemscore.Rot>
1.0000

> <Gold.Chemscore.Internal.Correction>
   9.000000E+99

> <Gold.Chemscore.Hbonds>
donor molecule, donor type, donor heavy atom, donor atom, acceptor molecule, acceptor atom, score
      P1  H  7997  8010       L1     8  0.97

> <Gold.Chemscore.Hbond.Weighted>
-3.3115

> <Gold.Chemscore.Metal.Weighted>
-0.0000

> <Gold.Chemscore.Lipo.Weighted>
-9.2927

> <Gold.Chemscore.Internal_Hbond.Weighted>
0.0000

> <Gold.Chemscore.DEClash.Weighted>
0.0059

> <Gold.Chemscore.DEInternal.Weighted>
1.5959

> <Gold.Chemscore.Rot.Weighted>
2.5600

> <Gold.Chemscore.Internal.Correction.Weighted>
   9.000000E+99

> <Gold.Protein.RotatedTorsions>
[ 6907 6896 6895 6894 ] final  143.60 input  -60.11 | X-H torsion
[ 7974 7965 7964 7962 ] final -116.33 input  175.53 | X-H torsion
[ 8008 7997 7996 7995 ] final   55.70 input   59.86 | X-H torsion
[ 10167 10162 10161 10158 ] final  143.07 input  -65.29 | X-H torsion
[ 10718 10713 10712 10709 ] final   28.65 input   66.30 | X-H torsion
[ 10763 10752 10751 10750 ] final -132.18 input  -60.55 | X-H torsion
[ 11005 11000 10999 10996 ] final    8.52 input  -57.11 | X-H torsion

> <Gold.Protein.ActiveResidues>
 VAL166  LYS551  ARG553  GLY616  TRP617  ASP618  TYR619  PRO620  LYS621  CYS622 
 ASP623  PHE694  ASN695  SER759  ASP760  ASP761  ALA762  ILE779  LEU786  VAL792 
 PHE793  MET794  SER795  GLU796  ALA797  LYS798  CYS799  TRP800  GLU811  SER814 

> <Gold.Protein.RotatedAtoms>
  152.2043  133.4864  159.5074 H   0  0  0  0  0  0  0  0  0  0  0  0  # atno 6907 bound_to 6896
  150.6976  134.1550  159.4164 H   0  0  0  0  0  0  0  0  0  0  0  0  # atno 6908 bound_to 6896
  151.9468  135.0187  160.0590 H   0  0  0  0  0  0  0  0  0  0  0  0  # atno 6909 bound_to 6896
  145.0980  140.8534  143.3943 H   0  0  0  0  0  0  0  0  0  0  0  0  # atno 7974 bound_to 7965
  155.5054  140.3475  155.4378 H   0  0  0  0  0  0  0  0  0  0  0  0  # atno 8008 bound_to 7997
  156.0885  140.1404  156.9649 H   0  0  0  0  0  0  0  0  0  0  0  0  # atno 8009 bound_to 7997
  154.4621  140.0931  156.6898 H   0  0  0  0  0  0  0  0  0  0  0  0  # atno 8010 bound_to 7997
  139.4978  144.6065  151.6367 H   0  0  0  0  0  0  0  0  0  0  0  0  # atno 10167 bound_to 10162
  157.2363  130.7047  149.6337 H   0  0  0  0  0  0  0  0  0  0  0  0  # atno 10718 bound_to 10713
  154.8745  135.3806  154.4368 H   0  0  0  0  0  0  0  0  0  0  0  0  # atno 10763 bound_to 10752
  153.5057  135.7030  153.5813 H   0  0  0  0  0  0  0  0  0  0  0  0  # atno 10764 bound_to 10752
  153.4125  135.3921  155.2026 H   0  0  0  0  0  0  0  0  0  0  0  0  # atno 10765 bound_to 10752
  140.5361  134.0420  155.7889 H   0  0  0  0  0  0  0  0  0  0  0  0  # atno 11005 bound_to 11000
  145.0988  139.2837  143.5697 LP  0  0  0  0  0  0  0  0  0  0  0  0  # atno 17320 bound_to 7965
  146.3530  140.0548  142.8633 LP  0  0  0  0  0  0  0  0  0  0  0  0  # atno 17321 bound_to 7965
  140.5728  144.0079  150.6226 LP  0  0  0  0  0  0  0  0  0  0  0  0  # atno 17342 bound_to 10162
  140.3203  143.3141  152.0791 LP  0  0  0  0  0  0  0  0  0  0  0  0  # atno 17343 bound_to 10162
  155.9672  130.4472  150.5573 LP  0  0  0  0  0  0  0  0  0  0  0  0  # atno 17370 bound_to 10713
  157.3426  131.0719  151.1776 LP  0  0  0  0  0  0  0  0  0  0  0  0  # atno 17371 bound_to 10713
  141.1254  133.9392  157.2646 LP  0  0  0  0  0  0  0  0  0  0  0  0  # atno 17394 bound_to 11000
  139.9528  135.0172  156.9044 LP  0  0  0  0  0  0  0  0  0  0  0  0  # atno 17395 bound_to 11000

$$$$
