AV-unprocessed.smi:35|AV-procd|sdf|256|dock5
  -GOLD-   2262016 23D 1   1.00000     0.00000
 Structure written by MMmdl.
 29 30  0  0  0  0  0  0  0  0  1 V2000
  152.2385  136.0175  158.1120 O   0  0  0  0  0  0  0  0  0  0  0  0
  151.8508  137.0811  157.6335 C   0  0  0  0  0  0  0  0  0  0  0  0
  152.6066  137.7334  156.6564 N   0  0  0  0  0  0  0  0  0  0  0  0
  152.2750  138.9457  156.0483 C   0  0  0  0  0  0  0  0  0  0  0  0
  152.9980  139.3999  155.1629 O   0  0  0  0  0  0  0  0  0  0  0  0
  151.0965  139.5949  156.4873 N   0  0  0  0  0  0  0  0  0  0  0  0
  150.6813  140.8981  155.8207 C   0  0  1  0  0  0  0  0  0  0  0  0
  150.4550  140.6715  154.4567 O   0  0  0  0  0  0  0  0  0  0  0  0
  149.0620  140.6444  154.1491 C   0  0  1  0  0  0  0  0  0  0  0  0
  148.4843  139.2191  154.3161 C   0  0  0  0  0  0  0  0  0  0  0  0
  148.9671  138.3807  153.2882 O   0  0  0  0  0  0  0  0  0  0  0  0
  148.5204  141.6863  155.1335 C   0  0  1  0  0  0  0  0  0  0  0  0
  147.1369  141.5444  155.3913 O   0  0  0  0  0  0  0  0  0  0  0  0
  149.3553  141.4634  156.3879 C   0  0  2  0  0  0  0  0  0  0  0  0
  149.5441  142.6985  157.0506 O   0  0  0  0  0  0  0  0  0  0  0  0
  150.2820  138.9464  157.4113 C   0  0  0  0  0  0  0  0  0  0  0  0
  150.6126  137.7656  157.9844 C   0  0  0  0  0  0  0  0  0  0  0  0
  149.3211  137.0242  159.2910 Br  0  0  0  0  0  0  0  0  0  0  0  0
  153.4582  137.2822  156.3551 H   0  0  0  0  0  0  0  0  0  0  0  0
  151.5434  141.5563  155.9441 H   0  0  0  0  0  0  0  0  0  0  0  0
  148.8993  140.9818  153.1246 H   0  0  0  0  0  0  0  0  0  0  0  0
  148.6976  138.7899  155.2938 H   0  0  0  0  0  0  0  0  0  0  0  0
  147.3995  139.2325  154.2132 H   0  0  0  0  0  0  0  0  0  0  0  0
  148.9468  138.8608  152.4744 H   0  0  0  0  0  0  0  0  0  0  0  0
  148.7089  142.6807  154.7245 H   0  0  0  0  0  0  0  0  0  0  0  0
  146.6603  142.0020  154.7154 H   0  0  0  0  0  0  0  0  0  0  0  0
  148.8782  140.7322  157.0426 H   0  0  0  0  0  0  0  0  0  0  0  0
  149.0923  143.3701  156.5617 H   0  0  0  0  0  0  0  0  0  0  0  0
  149.3374  139.3797  157.7022 H   0  0  0  0  0  0  0  0  0  0  0  0
  1  2  2  0  0  0  0
  2 17  1  0  0  0  0
  2  3  1  0  0  0  0
  3 19  1  0  0  0  0
  3  4  1  0  0  0  0
  4  5  2  0  0  0  0
  4  6  1  0  0  0  0
  6  7  1  0  0  0  0
  6 16  1  0  0  0  0
  7 14  1  0  0  0  0
  7  8  1  0  0  0  0
  7 20  1  0  0  0  0
  8  9  1  0  0  0  0
  9 10  1  0  0  0  0
  9 12  1  0  0  0  0
  9 21  1  0  0  0  0
 10 11  1  0  0  0  0
 10 22  1  0  0  0  0
 10 23  1  0  0  0  0
 11 24  1  0  0  0  0
 12 13  1  0  0  0  0
 12 14  1  0  0  0  0
 12 25  1  0  0  0  0
 13 26  1  0  0  0  0
 14 15  1  0  0  0  0
 14 27  1  0  0  0  0
 15 28  1  0  0  0  0
 16 17  2  0  0  0  0
 16 29  1  0  0  0  0
 17 18  1  0  0  0  0
M  END
> <s_m_source_file>
AV-unprocessed.smi

> <i_m_source_file_index>
35

> <i_lp_mmshare_version>
43012

> <i_f3d_flags>
0

> <s_epik_input>
Tz1jMVtuSF1jKD1PKW4oW2NIXWMxQnIpW0NAQEhdMk9bQ0BASF0oW0NIMl1bT0hdKVtDQEBIXShbT0hdKVtDQEhdMltPSF0=

> <s_epik_cmdline>
J2VwaWtfcHl0aG9uJywgJy1waCcsICc3LjAnLCAnLXRuJywgJzgnLCAnLW1hJywgJzIwMCcsICctbWV0YWxfYmluZGluZycsICctaW1hZScsICc8aW5maWxlLm1hZT4nLCAnLW9tYWUnLCAnPG91dGZpbGUubWFlPic=

> <r_lp_tautomer_probability>
0.999537

> <r_epik_Ionization_Penalty>
0.10812

> <r_epik_Ionization_Penalty_Charging>
0.108119

> <r_epik_Ionization_Penalty_Neutral>
4.93006e-07

> <r_epik_State_Penalty>
0.0979238

> <r_epik_Charging_Adjusted_Penalty>
0.206043

> <i_epik_Tot_Q>
0

> <i_epik_Tot_abs_Q>
0

> <r_epik_Metal_State_Penalty>
3.07911

> <b_epik_Metal_Only>
0

> <s_epik_Chemistry_Notes>
This compound contains an acetal/aminal-like group ( X-CH(R)-Y where X, Y are N, S, or O) that may be acid/base labile, releasing an aldehyde.

> <s_lp_Force_Field>
OPLS_2005

> <r_lp_Energy>
30.5173

> <b_lp_Chiralities_Consistent>
1

> <s_lp_Variant>
AV-unprocessed.smi:35-10

> <Gold.Version>
5.8.1

> <Gold.Id.Protein>
6NUR|6NUR_protein|mol2

> <Gold.PLP.Fitness>
37.0841

> <Gold.PLP.PLP>
-25.2336

> <Gold.PLP.part.hbond>
-6.1203

> <Gold.PLP.part.metal>
0.0000

> <Gold.PLP.part.buried>
-2.3898

> <Gold.PLP.part.nonpolar>
-17.1666

> <Gold.PLP.part.repulsive>
0.2677

> <Gold.PLP.ligand.clash>
0.0000

> <Gold.PLP.ligand.torsion>
0.0848

> <Gold.PLP.Chemscore.Hbond>
3.9849

> <Gold.PLP.Chemscore.CHOScore>
0.0000

> <Gold.PLP.Chemscore.Metal>
0.0000

> <Gold.Chemscore.Hbonds>
donor molecule, donor type, donor heavy atom, donor atom, acceptor molecule, acceptor atom, score
      L1  H    11    24       P1  7957  1.00
      L1  H    15    28       P1  8028  1.00
      P1  H  6896  6908       L1     1  0.21
      P1  H  7989  7998       L1     8  0.86
      P1  H  7997  8008       L1     5  1.00

> <Gold.PLP.Chemscore.Internal.Correction>
0.0653

> <Gold.Rescore>
     Score         DG    S(hbond)    S(metal)    S(lipo)     H(rot)  DE(clash)    DE(int)     intcor
     12.60     -13.92       4.16        0.00      33.76       3.67       0.10       1.23       ----

> <Gold.Chemscore.Fitness>
12.5960

> <Gold.Chemscore.DG>
-13.9237

> <Gold.Chemscore.ZeroCoef>
-5.4800

> <Gold.Chemscore.Hbond>
4.1584

> <Gold.Chemscore.Metal>
0.0000

> <Gold.Chemscore.Lipo>
33.7608

> <Gold.Chemscore.Internal_Hbond>
0.0000

> <Gold.Chemscore.DEClash>
0.0954

> <Gold.Chemscore.DEInternal>
1.2323

> <Gold.Chemscore.Rot>
3.6701

> <Gold.Chemscore.Internal.Correction>
   9.000000E+99

> <Gold.Chemscore.Hbonds>
donor molecule, donor type, donor heavy atom, donor atom, acceptor molecule, acceptor atom, score
      L1  H    11    24       P1  7957  0.95
      L1  H    15    28       P1  8028  0.97
      P1  H  6896  6908       L1     1  0.22
      P1  H  7989  7998       L1     8  0.76
      P1  H  7997  8008       L1     5  0.70

> <Gold.Chemscore.Hbond.Weighted>
-13.8891

> <Gold.Chemscore.Metal.Weighted>
-0.0000

> <Gold.Chemscore.Lipo.Weighted>
-3.9500

> <Gold.Chemscore.Internal_Hbond.Weighted>
0.0000

> <Gold.Chemscore.DEClash.Weighted>
0.0954

> <Gold.Chemscore.DEInternal.Weighted>
1.2323

> <Gold.Chemscore.Rot.Weighted>
9.3955

> <Gold.Chemscore.Internal.Correction.Weighted>
   9.000000E+99

> <Gold.Protein.RotatedTorsions>
[ 6907 6896 6895 6894 ] final -111.51 input  -60.11 | X-H torsion
[ 7974 7965 7964 7962 ] final   82.34 input  175.53 | X-H torsion
[ 8008 7997 7996 7995 ] final  -19.16 input   59.86 | X-H torsion
[ 10167 10162 10161 10158 ] final -119.00 input  -65.29 | X-H torsion
[ 10718 10713 10712 10709 ] final  -50.99 input   66.30 | X-H torsion
[ 10763 10752 10751 10750 ] final -119.87 input  -60.55 | X-H torsion
[ 11005 11000 10999 10996 ] final  167.51 input  -57.11 | X-H torsion

> <Gold.Protein.ActiveResidues>
 VAL166  LYS551  ARG553  GLY616  TRP617  ASP618  TYR619  PRO620  LYS621  CYS622 
 ASP623  PHE694  ASN695  SER759  ASP760  ASP761  ALA762  ILE779  LEU786  VAL792 
 PHE793  MET794  SER795  GLU796  ALA797  LYS798  CYS799  TRP800  GLU811  SER814 

> <Gold.Protein.RotatedAtoms>
  150.7695  133.9225  159.3401 H   0  0  0  0  0  0  0  0  0  0  0  0  # atno 6907 bound_to 6896
  151.7114  135.0910  160.0278 H   0  0  0  0  0  0  0  0  0  0  0  0  # atno 6908 bound_to 6896
  152.3707  133.6377  159.6120 H   0  0  0  0  0  0  0  0  0  0  0  0  # atno 6909 bound_to 6896
  145.6263  139.2396  143.2110 H   0  0  0  0  0  0  0  0  0  0  0  0  # atno 7974 bound_to 7965
  154.4856  140.2096  155.9664 H   0  0  0  0  0  0  0  0  0  0  0  0  # atno 8008 bound_to 7997
  156.1230  140.3210  155.8205 H   0  0  0  0  0  0  0  0  0  0  0  0  # atno 8009 bound_to 7997
  155.4433  140.0512  157.2999 H   0  0  0  0  0  0  0  0  0  0  0  0  # atno 8010 bound_to 7997
  140.0513  143.5057  152.2080 H   0  0  0  0  0  0  0  0  0  0  0  0  # atno 10167 bound_to 10162
  156.1751  130.4150  149.9589 H   0  0  0  0  0  0  0  0  0  0  0  0  # atno 10718 bound_to 10713
  154.8629  135.4223  154.2368 H   0  0  0  0  0  0  0  0  0  0  0  0  # atno 10763 bound_to 10752
  153.3341  135.6990  153.6928 H   0  0  0  0  0  0  0  0  0  0  0  0  # atno 10764 bound_to 10752
  153.5932  135.3551  155.2892 H   0  0  0  0  0  0  0  0  0  0  0  0  # atno 10765 bound_to 10752
  140.2776  134.7777  157.3730 H   0  0  0  0  0  0  0  0  0  0  0  0  # atno 11005 bound_to 11000
  146.1392  140.7081  142.9375 LP  0  0  0  0  0  0  0  0  0  0  0  0  # atno 17320 bound_to 7965
  144.7211  140.4376  143.7007 LP  0  0  0  0  0  0  0  0  0  0  0  0  # atno 17321 bound_to 7965
  139.5951  144.7564  151.3306 LP  0  0  0  0  0  0  0  0  0  0  0  0  # atno 17342 bound_to 10162
  140.7215  143.7122  150.7760 LP  0  0  0  0  0  0  0  0  0  0  0  0  # atno 17343 bound_to 10162
  156.7378  130.9068  151.3630 LP  0  0  0  0  0  0  0  0  0  0  0  0  # atno 17370 bound_to 10713
  157.6830  130.9158  150.0314 LP  0  0  0  0  0  0  0  0  0  0  0  0  # atno 17371 bound_to 10713
  140.1314  134.5090  155.8102 LP  0  0  0  0  0  0  0  0  0  0  0  0  # atno 17394 bound_to 11000
  141.2168  133.6791  156.7046 LP  0  0  0  0  0  0  0  0  0  0  0  0  # atno 17395 bound_to 11000

$$$$
