AV-unprocessed.smi:3303|AV-procd|sdf|12672|dock3
  -GOLD-   2272019 03D 1   1.00000     0.00000
 Structure written by MMmdl.
 45 46  0  0  0  0  0  0  0  0  3 V2000
  149.4850  131.5873  154.9447 C   0  0  0  0  0  0  0  0  0  0  0  0
  148.7670  131.7791  153.5969 C   0  0  1  0  0  0  0  0  0  0  0  0
  147.8098  130.5985  153.3337 C   0  0  0  0  0  0  0  0  0  0  0  0
  147.0984  130.7267  152.0350 N   0  3  1  0  0  0  0  0  0  0  0  0
  146.3017  129.5093  151.7463 C   0  0  0  0  0  0  0  0  0  0  0  0
  146.3196  131.9982  151.9498 C   0  0  2  0  0  0  0  0  0  0  0  0
  145.5968  132.1633  150.5985 C   0  0  0  0  0  0  0  0  0  0  0  0
  147.2482  133.2063  152.1902 C   0  0  0  0  0  0  0  0  0  0  0  0
  147.9948  133.1138  153.5301 C   0  0  2  0  0  0  0  0  0  0  0  0
  148.9142  134.2672  153.6645 N   0  3  0  0  0  0  0  0  0  0  0  0
  148.9766  134.8549  155.0175 C   0  0  0  0  0  0  0  0  0  0  0  0
  150.4215  135.2032  155.3992 C   0  0  0  0  0  0  0  0  0  0  0  0
  150.7228  136.6778  155.2144 C   0  0  0  0  0  0  0  0  0  0  0  0
  149.8949  137.6615  155.7957 C   0  0  0  0  0  0  0  0  0  0  0  0
  150.2148  139.0167  155.5842 C   0  0  0  0  0  0  0  0  0  0  0  0
  151.3436  139.3331  154.8042 C   0  0  0  0  0  0  0  0  0  0  0  0
  152.1053  138.2765  154.2667 C   0  0  0  0  0  0  0  0  0  0  0  0
  151.8054  136.9735  154.4609 N   0  0  0  0  0  0  0  0  0  0  0  0
  148.7806  131.6065  155.7770 H   0  0  0  0  0  0  0  0  0  0  0  0
  150.2278  132.3657  155.1205 H   0  0  0  0  0  0  0  0  0  0  0  0
  150.0088  130.6313  154.9770 H   0  0  0  0  0  0  0  0  0  0  0  0
  149.5255  131.7772  152.8119 H   0  0  0  0  0  0  0  0  0  0  0  0
  148.3803  129.6684  153.3385 H   0  0  0  0  0  0  0  0  0  0  0  0
  147.0771  130.5198  154.1389 H   0  0  0  0  0  0  0  0  0  0  0  0
  145.4365  129.4409  152.4068 H   0  0  0  0  0  0  0  0  0  0  0  0
  146.9038  128.6103  151.8840 H   0  0  0  0  0  0  0  0  0  0  0  0
  145.9531  129.4935  150.7142 H   0  0  0  0  0  0  0  0  0  0  0  0
  145.5626  131.9837  152.7363 H   0  0  0  0  0  0  0  0  0  0  0  0
  145.1202  133.1416  150.5293 H   0  0  0  0  0  0  0  0  0  0  0  0
  144.8063  131.4251  150.4636 H   0  0  0  0  0  0  0  0  0  0  0  0
  146.2897  132.0756  149.7611 H   0  0  0  0  0  0  0  0  0  0  0  0
  147.9683  133.2777  151.3730 H   0  0  0  0  0  0  0  0  0  0  0  0
  146.6647  134.1279  152.1647 H   0  0  0  0  0  0  0  0  0  0  0  0
  147.2574  133.1347  154.3352 H   0  0  0  0  0  0  0  0  0  0  0  0
  149.8432  133.9647  153.4075 H   0  0  0  0  0  0  0  0  0  0  0  0
  148.3524  135.7491  155.0469 H   0  0  0  0  0  0  0  0  0  0  0  0
  148.5645  134.1471  155.7381 H   0  0  0  0  0  0  0  0  0  0  0  0
  150.6107  134.9275  156.4376 H   0  0  0  0  0  0  0  0  0  0  0  0
  151.1202  134.6222  154.7951 H   0  0  0  0  0  0  0  0  0  0  0  0
  149.0344  137.3884  156.3888 H   0  0  0  0  0  0  0  0  0  0  0  0
  149.6048  139.7991  156.0112 H   0  0  0  0  0  0  0  0  0  0  0  0
  151.6190  140.3612  154.6214 H   0  0  0  0  0  0  0  0  0  0  0  0
  152.9769  138.4827  153.6635 H   0  0  0  0  0  0  0  0  0  0  0  0
  148.6234  134.9880  153.0191 H   0  0  0  0  0  0  0  0  0  0  0  0
  147.8114  130.7729  151.3207 H   0  0  0  0  0  0  0  0  0  0  0  0
  1  2  1  0  0  0  0
  1 19  1  0  0  0  0
  1 20  1  0  0  0  0
  1 21  1  0  0  0  0
  2  9  1  0  0  0  0
  2  3  1  0  0  0  0
  2 22  1  0  0  0  0
  3  4  1  0  0  0  0
  3 23  1  0  0  0  0
  3 24  1  0  0  0  0
  4  5  1  0  0  0  0
  4  6  1  0  0  0  0
  4 45  1  0  0  0  0
  5 25  1  0  0  0  0
  5 26  1  0  0  0  0
  5 27  1  0  0  0  0
  6  7  1  0  0  0  0
  6  8  1  0  0  0  0
  6 28  1  0  0  0  0
  7 29  1  0  0  0  0
  7 30  1  0  0  0  0
  7 31  1  0  0  0  0
  8  9  1  0  0  0  0
  8 32  1  0  0  0  0
  8 33  1  0  0  0  0
  9 10  1  0  0  0  0
  9 34  1  0  0  0  0
 10 11  1  0  0  0  0
 10 35  1  0  0  0  0
 10 44  1  0  0  0  0
 11 12  1  0  0  0  0
 11 36  1  0  0  0  0
 11 37  1  0  0  0  0
 12 13  1  0  0  0  0
 12 38  1  0  0  0  0
 12 39  1  0  0  0  0
 13 18  1  0  0  0  0
 13 14  2  0  0  0  0
 14 15  1  0  0  0  0
 14 40  1  0  0  0  0
 15 16  2  0  0  0  0
 15 41  1  0  0  0  0
 16 17  1  0  0  0  0
 16 42  1  0  0  0  0
 17 18  2  0  0  0  0
 17 43  1  0  0  0  0
M  CHG  1   4   1
M  CHG  1  10   1
M  END
> <s_m_source_file>
AV-unprocessed.smi

> <i_m_source_file_index>
3303

> <i_lp_mmshare_version>
43012

> <i_f3d_flags>
0

> <s_epik_input>
W0NIM11bQ0BASF0xW0NIMl1OKFtDSDNdKVtDQEBIXShbQ0gzXSlbQ0gyXVtDQEhdMVtOSF1bQ0gyXVtDSDJdYzJbY0hdW2NIXVtjSF1bY0hdbjI=

> <s_epik_cmdline>
J2VwaWtfcHl0aG9uJywgJy1waCcsICc3LjAnLCAnLXRuJywgJzgnLCAnLW1hJywgJzIwMCcsICctbWV0YWxfYmluZGluZycsICctaW1hZScsICc8aW5maWxlLm1hZT4nLCAnLW9tYWUnLCAnPG91dGZpbGUubWFlPic=

> <r_epik_Ionization_Penalty>
0.0769462

> <r_epik_Ionization_Penalty_Charging>
0.0759813

> <r_epik_Ionization_Penalty_Neutral>
0.000964829

> <r_epik_State_Penalty>
0.0654373

> <r_epik_Charging_Adjusted_Penalty>
0.141419

> <i_epik_Tot_Q>
2

> <i_epik_Tot_abs_Q>
2

> <r_epik_Metal_State_Penalty>
0.0656439

> <b_epik_Metal_Only>
0

> <s_lp_Force_Field>
OPLS_2005

> <r_lp_Energy>
29.1913

> <b_lp_Chiralities_Consistent>
1

> <s_lp_Variant>
AV-unprocessed.smi:3303-16

> <Gold.Version>
5.8.1

> <Gold.Id.Protein>
6NUR|6NUR_protein|mol2

> <Gold.PLP.Fitness>
44.5091

> <Gold.PLP.PLP>
-34.8457

> <Gold.PLP.part.hbond>
-3.0000

> <Gold.PLP.part.metal>
0.0000

> <Gold.PLP.part.buried>
-3.0362

> <Gold.PLP.part.nonpolar>
-28.5633

> <Gold.PLP.part.repulsive>
0.1632

> <Gold.PLP.ligand.clash>
0.0000

> <Gold.PLP.ligand.torsion>
1.1813

> <Gold.PLP.Chemscore.Hbond>
4.0000

> <Gold.PLP.Chemscore.CHOScore>
0.0000

> <Gold.PLP.Chemscore.Metal>
0.0000

> <Gold.Chemscore.Hbonds>
donor molecule, donor type, donor heavy atom, donor atom, acceptor molecule, acceptor atom, score
      L1  H     4    45       P1 10747  1.00
      L1  H    10    44       P1  7948  2.00
      P1  H 10752 10763       L1    18  1.00

> <Gold.PLP.Chemscore.Internal.Correction>
0.0261

> <Gold.Rescore>
     Score         DG    S(hbond)    S(metal)    S(lipo)     H(rot)  DE(clash)    DE(int)     intcor
     19.89     -20.98       2.55        0.00      89.63       1.37       0.00       1.09       ----

> <Gold.Chemscore.Fitness>
19.8926

> <Gold.Chemscore.DG>
-20.9818

> <Gold.Chemscore.ZeroCoef>
-5.4800

> <Gold.Chemscore.Hbond>
2.5549

> <Gold.Chemscore.Metal>
0.0000

> <Gold.Chemscore.Lipo>
89.6327

> <Gold.Chemscore.Internal_Hbond>
0.0000

> <Gold.Chemscore.DEClash>
0.0029

> <Gold.Chemscore.DEInternal>
1.0863

> <Gold.Chemscore.Rot>
1.3744

> <Gold.Chemscore.Internal.Correction>
   9.000000E+99

> <Gold.Chemscore.Hbonds>
donor molecule, donor type, donor heavy atom, donor atom, acceptor molecule, acceptor atom, score
      L1  H     4    45       P1 10747  0.96
      L1  H    10    44       P1  7948  0.48
      P1  H 10752 10763       L1    18  0.90

> <Gold.Chemscore.Hbond.Weighted>
-8.5332

> <Gold.Chemscore.Metal.Weighted>
-0.0000

> <Gold.Chemscore.Lipo.Weighted>
-10.4870

> <Gold.Chemscore.Internal_Hbond.Weighted>
0.0000

> <Gold.Chemscore.DEClash.Weighted>
0.0029

> <Gold.Chemscore.DEInternal.Weighted>
1.0863

> <Gold.Chemscore.Rot.Weighted>
3.5185

> <Gold.Chemscore.Internal.Correction.Weighted>
   9.000000E+99

> <Gold.Protein.RotatedTorsions>
[ 6907 6896 6895 6894 ] final  -50.89 input  -60.11 | X-H torsion
[ 7974 7965 7964 7962 ] final   63.08 input  175.53 | X-H torsion
[ 8008 7997 7996 7995 ] final   35.50 input   59.86 | X-H torsion
[ 10167 10162 10161 10158 ] final -110.36 input  -65.29 | X-H torsion
[ 10718 10713 10712 10709 ] final  102.87 input   66.30 | X-H torsion
[ 10763 10752 10751 10750 ] final   38.38 input  -60.55 | X-H torsion
[ 11005 11000 10999 10996 ] final  -68.62 input  -57.11 | X-H torsion

> <Gold.Protein.ActiveResidues>
 VAL166  LYS551  ARG553  GLY616  TRP617  ASP618  TYR619  PRO620  LYS621  CYS622 
 ASP623  PHE694  ASN695  SER759  ASP760  ASP761  ALA762  ILE779  LEU786  VAL792 
 PHE793  MET794  SER795  GLU796  ALA797  LYS798  CYS799  TRP800  GLU811  SER814 

> <Gold.Protein.RotatedAtoms>
  150.8663  134.8027  159.7120 H   0  0  0  0  0  0  0  0  0  0  0  0  # atno 6907 bound_to 6896
  152.4683  134.5018  159.9737 H   0  0  0  0  0  0  0  0  0  0  0  0  # atno 6908 bound_to 6896
  151.5114  133.3446  159.2921 H   0  0  0  0  0  0  0  0  0  0  0  0  # atno 6909 bound_to 6896
  145.8659  139.3345  143.0791 H   0  0  0  0  0  0  0  0  0  0  0  0  # atno 7974 bound_to 7965
  155.1721  140.3292  155.4391 H   0  0  0  0  0  0  0  0  0  0  0  0  # atno 8008 bound_to 7997
  156.2506  140.1942  156.6774 H   0  0  0  0  0  0  0  0  0  0  0  0  # atno 8009 bound_to 7997
  154.6330  140.0580  156.9741 H   0  0  0  0  0  0  0  0  0  0  0  0  # atno 8010 bound_to 7997
  140.1453  143.4244  152.1533 H   0  0  0  0  0  0  0  0  0  0  0  0  # atno 10167 bound_to 10162
  157.6789  131.0764  150.5469 H   0  0  0  0  0  0  0  0  0  0  0  0  # atno 10718 bound_to 10713
  153.0003  135.6251  154.2296 H   0  0  0  0  0  0  0  0  0  0  0  0  # atno 10763 bound_to 10752
  154.2038  135.2803  155.2983 H   0  0  0  0  0  0  0  0  0  0  0  0  # atno 10764 bound_to 10752
  154.5662  135.5690  153.7111 H   0  0  0  0  0  0  0  0  0  0  0  0  # atno 10765 bound_to 10752
  141.1536  133.6745  156.6474 H   0  0  0  0  0  0  0  0  0  0  0  0  # atno 11005 bound_to 11000
  145.9194  140.9126  143.0413 LP  0  0  0  0  0  0  0  0  0  0  0  0  # atno 17320 bound_to 7965
  144.6726  140.1268  143.7446 LP  0  0  0  0  0  0  0  0  0  0  0  0  # atno 17321 bound_to 7965
  139.5452  144.7292  151.4607 LP  0  0  0  0  0  0  0  0  0  0  0  0  # atno 17342 bound_to 10162
  140.6735  143.8241  150.7029 LP  0  0  0  0  0  0  0  0  0  0  0  0  # atno 17343 bound_to 10162
  156.5774  130.4295  149.5992 LP  0  0  0  0  0  0  0  0  0  0  0  0  # atno 17370 bound_to 10713
  156.2690  130.7006  151.1797 LP  0  0  0  0  0  0  0  0  0  0  0  0  # atno 17371 bound_to 10713
  140.3347  134.7899  157.4353 LP  0  0  0  0  0  0  0  0  0  0  0  0  # atno 17394 bound_to 11000
  140.0987  134.5501  155.8373 LP  0  0  0  0  0  0  0  0  0  0  0  0  # atno 17395 bound_to 11000

$$$$
