AV-unprocessed.smi:3112|AV-procd|sdf|11837|dock7
  -GOLD-   2272017213D 1   1.00000     0.00000
 Structure written by MMmdl.
 37 37  0  0  0  0  0  0  0  0  2 V2000
  144.9256  135.5515  151.1037 C   0  0  0  0  0  0  0  0  0  0  0  0
  145.2033  136.7128  152.0683 C   0  0  0  0  0  0  0  0  0  0  0  0
  146.5606  137.3984  151.8277 C   0  0  1  0  0  0  0  0  0  0  0  0
  146.6268  137.8225  150.4803 O   0  0  0  0  0  0  0  0  0  0  0  0
  146.7537  138.6260  152.7335 C   0  0  0  0  0  0  0  0  0  0  0  0
  148.1880  138.9498  152.8890 N   0  3  0  0  0  0  0  0  0  0  0  0
  148.5456  139.7488  154.0847 C   0  0  2  0  0  0  0  0  0  0  0  0
  147.9256  141.1506  153.9380 C   0  0  0  0  0  0  0  0  0  0  0  0
  150.0812  139.7510  154.3386 C   0  0  2  0  0  0  0  0  0  0  0  0
  150.6999  138.3402  154.2851 C   0  0  0  0  0  0  0  0  0  0  0  0
  150.4531  140.4621  155.5593 N   0  0  0  0  0  0  0  0  0  0  0  0
  150.1606  141.7682  155.8974 C   0  0  0  0  0  0  0  0  0  0  0  0
  150.6755  141.9976  157.1407 C   0  0  0  0  0  0  0  0  0  0  0  0
  151.2693  140.7546  157.4941 C   0  0  0  0  0  0  0  0  0  0  0  0
  151.1296  139.8380  156.5506 N   0  0  0  0  0  0  0  0  0  0  0  0
  143.9723  135.0764  151.3363 H   0  0  0  0  0  0  0  0  0  0  0  0
  145.7013  134.7883  151.1710 H   0  0  0  0  0  0  0  0  0  0  0  0
  144.8786  135.8931  150.0694 H   0  0  0  0  0  0  0  0  0  0  0  0
  144.3973  137.4451  152.0019 H   0  0  0  0  0  0  0  0  0  0  0  0
  145.1747  136.3229  153.0866 H   0  0  0  0  0  0  0  0  0  0  0  0
  147.3629  136.6820  152.0104 H   0  0  0  0  0  0  0  0  0  0  0  0
  145.7945  138.2044  150.2437 H   0  0  0  0  0  0  0  0  0  0  0  0
  146.2192  139.4860  152.3266 H   0  0  0  0  0  0  0  0  0  0  0  0
  146.3258  138.4187  153.7138 H   0  0  0  0  0  0  0  0  0  0  0  0
  148.7264  138.0954  152.8927 H   0  0  0  0  0  0  0  0  0  0  0  0
  148.0619  139.2804  154.9432 H   0  0  0  0  0  0  0  0  0  0  0  0
  148.1364  141.7805  154.8016 H   0  0  0  0  0  0  0  0  0  0  0  0
  146.8406  141.0844  153.8504 H   0  0  0  0  0  0  0  0  0  0  0  0
  148.2883  141.6665  153.0490 H   0  0  0  0  0  0  0  0  0  0  0  0
  150.5541  140.2916  153.5190 H   0  0  0  0  0  0  0  0  0  0  0  0
  150.4800  137.8537  153.3346 H   0  0  0  0  0  0  0  0  0  0  0  0
  150.3299  137.6925  155.0798 H   0  0  0  0  0  0  0  0  0  0  0  0
  151.7850  138.3886  154.3823 H   0  0  0  0  0  0  0  0  0  0  0  0
  149.6155  142.4211  155.2314 H   0  0  0  0  0  0  0  0  0  0  0  0
  150.6338  142.9136  157.7113 H   0  0  0  0  0  0  0  0  0  0  0  0
  151.7909  140.4915  158.4025 H   0  0  0  0  0  0  0  0  0  0  0  0
  148.4532  139.4868  152.0754 H   0  0  0  0  0  0  0  0  0  0  0  0
  1  2  1  0  0  0  0
  1 16  1  0  0  0  0
  1 17  1  0  0  0  0
  1 18  1  0  0  0  0
  2  3  1  0  0  0  0
  2 19  1  0  0  0  0
  2 20  1  0  0  0  0
  3  4  1  0  0  0  0
  3  5  1  0  0  0  0
  3 21  1  0  0  0  0
  4 22  1  0  0  0  0
  5  6  1  0  0  0  0
  5 23  1  0  0  0  0
  5 24  1  0  0  0  0
  6  7  1  0  0  0  0
  6 25  1  0  0  0  0
  6 37  1  0  0  0  0
  7  8  1  0  0  0  0
  7  9  1  0  0  0  0
  7 26  1  0  0  0  0
  8 27  1  0  0  0  0
  8 28  1  0  0  0  0
  8 29  1  0  0  0  0
  9 10  1  0  0  0  0
  9 11  1  0  0  0  0
  9 30  1  0  0  0  0
 10 31  1  0  0  0  0
 10 32  1  0  0  0  0
 10 33  1  0  0  0  0
 11 15  1  0  0  0  0
 11 12  1  0  0  0  0
 12 13  2  0  0  0  0
 12 34  1  0  0  0  0
 13 14  1  0  0  0  0
 13 35  1  0  0  0  0
 14 15  2  0  0  0  0
 14 36  1  0  0  0  0
M  CHG  1   6   1
M  END
> <s_m_source_file>
AV-unprocessed.smi

> <i_m_source_file_index>
3112

> <i_lp_mmshare_version>
43012

> <i_f3d_flags>
0

> <s_epik_input>
W0NIM11bQ0gyXVtDQEhdKFtPSF0pW0NIMl1bTkhdW0NASF0oW0NIM10pW0NASF0oW0NIM10pbjFbY0hdW2NIXVtjSF1uMQ==

> <s_epik_cmdline>
J2VwaWtfcHl0aG9uJywgJy1waCcsICc3LjAnLCAnLXRuJywgJzgnLCAnLW1hJywgJzIwMCcsICctbWV0YWxfYmluZGluZycsICctaW1hZScsICc8aW5maWxlLm1hZT4nLCAnLW9tYWUnLCAnPG91dGZpbGUubWFlPic=

> <r_lp_tautomer_probability>
1

> <r_epik_Ionization_Penalty>
0.0154842

> <r_epik_Ionization_Penalty_Charging>
0.0154724

> <r_epik_Ionization_Penalty_Neutral>
1.17979e-05

> <r_epik_State_Penalty>
0.0121607

> <r_epik_Charging_Adjusted_Penalty>
0.0276331

> <i_epik_Tot_Q>
1

> <i_epik_Tot_abs_Q>
1

> <r_epik_Metal_State_Penalty>
0.0121863

> <b_epik_Metal_Only>
0

> <s_lp_Force_Field>
OPLS_2005

> <r_lp_Energy>
12.6471

> <b_lp_Chiralities_Consistent>
1

> <s_lp_Variant>
AV-unprocessed.smi:3112-2

> <Gold.Version>
5.8.1

> <Gold.Id.Protein>
6NUR|6NUR_protein|mol2

> <Gold.PLP.Fitness>
48.5702

> <Gold.PLP.PLP>
-33.1424

> <Gold.PLP.part.hbond>
-4.5079

> <Gold.PLP.part.metal>
0.0000

> <Gold.PLP.part.buried>
0.7589

> <Gold.PLP.part.nonpolar>
-29.8626

> <Gold.PLP.part.repulsive>
0.0743

> <Gold.PLP.ligand.clash>
0.0000

> <Gold.PLP.ligand.torsion>
0.4947

> <Gold.PLP.Chemscore.Hbond>
4.4186

> <Gold.PLP.Chemscore.CHOScore>
0.9947

> <Gold.PLP.Chemscore.Metal>
0.0000

> <Gold.Chemscore.Hbonds>
donor molecule, donor type, donor heavy atom, donor atom, acceptor molecule, acceptor atom, score
      L1  H     4    22       P1 10171  1.00
      L1  H     6    25       P1  7948  1.32
      L1  H     6    37       P1  7957  0.98
      P1  H  7954  7966       L1     4  0.96
      L1  C    12    34       P1  8028  0.96

> <Gold.PLP.Chemscore.Internal.Correction>
0.1772

> <Gold.Rescore>
     Score         DG    S(hbond)    S(metal)    S(lipo)     H(rot)  DE(clash)    DE(int)     intcor
     18.08     -19.94       3.59        0.00      73.89       2.41       1.32       0.54       ----

> <Gold.Chemscore.Fitness>
18.0809

> <Gold.Chemscore.DG>
-19.9418

> <Gold.Chemscore.ZeroCoef>
-5.4800

> <Gold.Chemscore.Hbond>
3.5879

> <Gold.Chemscore.Metal>
0.0000

> <Gold.Chemscore.Lipo>
73.8877

> <Gold.Chemscore.Internal_Hbond>
0.0000

> <Gold.Chemscore.DEClash>
1.3228

> <Gold.Chemscore.DEInternal>
0.5381

> <Gold.Chemscore.Rot>
2.4089

> <Gold.Chemscore.Internal.Correction>
   9.000000E+99

> <Gold.Chemscore.Hbonds>
donor molecule, donor type, donor heavy atom, donor atom, acceptor molecule, acceptor atom, score
      L1  H     4    22       P1 10171  0.97
      L1  H     6    25       P1  7948  0.64
      L1  H     6    37       P1  7957  0.90
      P1  H  7954  7966       L1     4  0.81

> <Gold.Chemscore.Hbond.Weighted>
-11.9836

> <Gold.Chemscore.Metal.Weighted>
-0.0000

> <Gold.Chemscore.Lipo.Weighted>
-8.6449

> <Gold.Chemscore.Internal_Hbond.Weighted>
0.0000

> <Gold.Chemscore.DEClash.Weighted>
1.3228

> <Gold.Chemscore.DEInternal.Weighted>
0.5381

> <Gold.Chemscore.Rot.Weighted>
6.1667

> <Gold.Chemscore.Internal.Correction.Weighted>
   9.000000E+99

> <Gold.Protein.RotatedTorsions>
[ 6907 6896 6895 6894 ] final  151.85 input  -60.11 | X-H torsion
[ 7974 7965 7964 7962 ] final -149.05 input  175.53 | X-H torsion
[ 8008 7997 7996 7995 ] final  -38.08 input   59.86 | X-H torsion
[ 10167 10162 10161 10158 ] final -169.55 input  -65.29 | X-H torsion
[ 10718 10713 10712 10709 ] final   44.55 input   66.30 | X-H torsion
[ 10763 10752 10751 10750 ] final  146.10 input  -60.55 | X-H torsion
[ 11005 11000 10999 10996 ] final  113.66 input  -57.11 | X-H torsion

> <Gold.Protein.ActiveResidues>
 VAL166  LYS551  ARG553  GLY616  TRP617  ASP618  TYR619  PRO620  LYS621  CYS622 
 ASP623  PHE694  ASN695  SER759  ASP760  ASP761  ALA762  ILE779  LEU786  VAL792 
 PHE793  MET794  SER795  GLU796  ALA797  LYS798  CYS799  TRP800  GLU811  SER814 

> <Gold.Protein.RotatedAtoms>
  152.0949  133.4219  159.4560 H   0  0  0  0  0  0  0  0  0  0  0  0  # atno 6907 bound_to 6896
  150.6863  134.2828  159.4643 H   0  0  0  0  0  0  0  0  0  0  0  0  # atno 6908 bound_to 6896
  152.0683  134.9549  160.0625 H   0  0  0  0  0  0  0  0  0  0  0  0  # atno 6909 bound_to 6896
  144.7991  140.5116  143.5719 H   0  0  0  0  0  0  0  0  0  0  0  0  # atno 7974 bound_to 7965
  154.4042  140.1587  156.2642 H   0  0  0  0  0  0  0  0  0  0  0  0  # atno 8008 bound_to 7997
  155.9010  140.3433  155.6004 H   0  0  0  0  0  0  0  0  0  0  0  0  # atno 8009 bound_to 7997
  155.7448  140.0797  157.2219 H   0  0  0  0  0  0  0  0  0  0  0  0  # atno 8010 bound_to 7997
  139.5915  144.1202  152.1640 H   0  0  0  0  0  0  0  0  0  0  0  0  # atno 10167 bound_to 10162
  157.4280  130.8008  149.7576 H   0  0  0  0  0  0  0  0  0  0  0  0  # atno 10718 bound_to 10713
  154.0163  135.2910  155.3386 H   0  0  0  0  0  0  0  0  0  0  0  0  # atno 10763 bound_to 10752
  154.7073  135.5164  153.8617 H   0  0  0  0  0  0  0  0  0  0  0  0  # atno 10764 bound_to 10752
  153.0701  135.6644  154.0389 H   0  0  0  0  0  0  0  0  0  0  0  0  # atno 10765 bound_to 10752
  139.8959  134.9554  156.6773 H   0  0  0  0  0  0  0  0  0  0  0  0  # atno 11005 bound_to 11000
  145.5598  139.1479  143.3348 LP  0  0  0  0  0  0  0  0  0  0  0  0  # atno 17320 bound_to 7965
  146.2268  140.5734  142.8993 LP  0  0  0  0  0  0  0  0  0  0  0  0  # atno 17321 bound_to 7965
  140.0778  144.5726  150.7144 LP  0  0  0  0  0  0  0  0  0  0  0  0  # atno 17342 bound_to 10162
  140.7177  143.2560  151.4380 LP  0  0  0  0  0  0  0  0  0  0  0  0  # atno 17343 bound_to 10162
  155.9903  130.3945  150.3034 LP  0  0  0  0  0  0  0  0  0  0  0  0  # atno 17370 bound_to 10713
  157.1188  131.0241  151.3018 LP  0  0  0  0  0  0  0  0  0  0  0  0  # atno 17371 bound_to 10713
  140.7327  133.9045  155.8222 LP  0  0  0  0  0  0  0  0  0  0  0  0  # atno 17394 bound_to 11000
  141.0141  134.0980  157.4191 LP  0  0  0  0  0  0  0  0  0  0  0  0  # atno 17395 bound_to 11000

$$$$
