AV-unprocessed.smi:689|AV-procd|sdf|3358|dock8
  -GOLD-   22720 0333D 1   1.00000     0.00000
 Structure written by MMmdl.
 33 34  0  0  0  0  0  0  0  0  2 V2000
  149.5137  139.2708  154.5137 C   0  0  0  0  0  0  0  0  0  0  0  0
  150.7532  139.1145  155.3474 C   0  0  0  0  0  0  0  0  0  0  0  0
  151.8151  139.8572  155.0818 N   0  0  0  0  0  0  0  0  0  0  0  0
  152.7827  139.4924  156.0229 O   0  0  0  0  0  0  0  0  0  0  0  0
  152.2587  138.5339  156.8283 C   0  0  0  0  0  0  0  0  0  0  0  0
  153.1422  138.0143  157.9111 C   0  0  0  0  0  0  0  0  0  0  0  0
  150.9763  138.2427  156.4521 C   0  0  0  0  0  0  0  0  0  0  0  0
  150.0211  137.2467  157.0606 C   0  0  0  0  0  0  0  0  0  0  0  0
  149.9690  137.4383  158.5795 C   0  0  0  0  0  0  0  0  0  0  0  0
  150.4090  138.4791  159.0682 O   0  0  0  0  0  0  0  0  0  0  0  0
  149.4006  136.3813  159.2021 N   0  5  0  0  0  0  0  0  0  0  0  0
  148.1089  136.5565  160.1573 S   0  0  0  0  0  0  0  0  0  0  0  0
  148.4591  136.5548  161.5863 O   0  0  0  0  0  0  0  0  0  0  0  0
  147.1982  137.6115  159.6862 O   0  0  0  0  0  0  0  0  0  0  0  0
  147.2410  134.9595  159.8483 C   0  0  0  0  0  0  0  0  0  0  0  0
  146.0486  134.7817  160.7676 C   0  0  0  0  0  0  0  0  0  0  0  0
  146.0327  135.3917  162.1506 C   0  0  0  0  0  0  0  0  0  0  0  0
  146.1421  133.8962  161.9899 C   0  0  0  0  0  0  0  0  0  0  0  0
  149.0531  138.3042  154.3103 H   0  0  0  0  0  0  0  0  0  0  0  0
  149.7299  139.7407  153.5538 H   0  0  0  0  0  0  0  0  0  0  0  0
  148.7760  139.8878  155.0273 H   0  0  0  0  0  0  0  0  0  0  0  0
  152.5536  137.6617  158.7580 H   0  0  0  0  0  0  0  0  0  0  0  0
  153.8154  138.7923  158.2716 H   0  0  0  0  0  0  0  0  0  0  0  0
  153.7465  137.1828  157.5492 H   0  0  0  0  0  0  0  0  0  0  0  0
  149.0217  137.3359  156.6312 H   0  0  0  0  0  0  0  0  0  0  0  0
  150.3369  136.2241  156.8518 H   0  0  0  0  0  0  0  0  0  0  0  0
  146.9235  134.9409  158.8055 H   0  0  0  0  0  0  0  0  0  0  0  0
  147.9463  134.1434  160.0038 H   0  0  0  0  0  0  0  0  0  0  0  0
  145.0959  134.7510  160.2422 H   0  0  0  0  0  0  0  0  0  0  0  0
  146.9210  135.9263  162.4816 H   0  0  0  0  0  0  0  0  0  0  0  0
  145.0871  135.7910  162.5115 H   0  0  0  0  0  0  0  0  0  0  0  0
  145.2702  133.2957  162.2410 H   0  0  0  0  0  0  0  0  0  0  0  0
  147.1034  133.4383  162.2145 H   0  0  0  0  0  0  0  0  0  0  0  0
  1  2  1  0  0  0  0
  1 19  1  0  0  0  0
  1 20  1  0  0  0  0
  1 21  1  0  0  0  0
  2  7  1  0  0  0  0
  2  3  2  0  0  0  0
  3  4  1  0  0  0  0
  4  5  1  0  0  0  0
  5  6  1  0  0  0  0
  5  7  2  0  0  0  0
  6 22  1  0  0  0  0
  6 23  1  0  0  0  0
  6 24  1  0  0  0  0
  7  8  1  0  0  0  0
  8  9  1  0  0  0  0
  8 25  1  0  0  0  0
  8 26  1  0  0  0  0
  9 10  2  0  0  0  0
  9 11  1  0  0  0  0
 11 12  1  0  0  0  0
 12 13  2  0  0  0  0
 12 14  2  0  0  0  0
 12 15  1  0  0  0  0
 15 16  1  0  0  0  0
 15 27  1  0  0  0  0
 15 28  1  0  0  0  0
 16 18  1  0  0  0  0
 16 17  1  0  0  0  0
 16 29  1  0  0  0  0
 17 18  1  0  0  0  0
 17 30  1  0  0  0  0
 17 31  1  0  0  0  0
 18 32  1  0  0  0  0
 18 33  1  0  0  0  0
M  CHG  1  11  -1
M  END
> <s_m_source_file>
AV-unprocessed.smi

> <i_m_source_file_index>
689

> <i_lp_mmshare_version>
43012

> <i_f3d_flags>
0

> <s_epik_input>
W0NIM11jMW5vYyhbQ0gzXSljMVtDSDJdQyg9TylbTkhdUyg9TykoPU8pW0NIMl1bQ0hdMltDSDJdW0NIMl0y

> <s_epik_cmdline>
J2VwaWtfcHl0aG9uJywgJy1waCcsICc3LjAnLCAnLXRuJywgJzgnLCAnLW1hJywgJzIwMCcsICctbWV0YWxfYmluZGluZycsICctaW1hZScsICc8aW5maWxlLm1hZT4nLCAnLW9tYWUnLCAnPG91dGZpbGUubWFlPic=

> <r_epik_Ionization_Penalty>
0.0117783

> <r_epik_Ionization_Penalty_Charging>
0.0117783

> <r_epik_Ionization_Penalty_Neutral>
2.69026e-10

> <r_epik_State_Penalty>
0.00908283

> <r_epik_Charging_Adjusted_Penalty>
0.0208612

> <i_epik_Tot_Q>
-1

> <i_epik_Tot_abs_Q>
1

> <r_epik_Metal_State_Penalty>
0.00890557

> <b_epik_Metal_Only>
0

> <s_lp_Force_Field>
OPLS_2005

> <r_lp_Energy>
1.25467

> <b_lp_Chiralities_Consistent>
1

> <s_lp_Variant>
AV-unprocessed.smi:689-1

> <Gold.Version>
5.8.1

> <Gold.Id.Protein>
6NUR|6NUR_protein|mol2

> <Gold.PLP.Fitness>
42.4457

> <Gold.PLP.PLP>
-27.2361

> <Gold.PLP.part.hbond>
-5.7745

> <Gold.PLP.part.metal>
0.0000

> <Gold.PLP.part.buried>
-4.8440

> <Gold.PLP.part.nonpolar>
-17.9649

> <Gold.PLP.part.repulsive>
0.0373

> <Gold.PLP.ligand.clash>
0.0244

> <Gold.PLP.ligand.torsion>
1.9716

> <Gold.PLP.Chemscore.Hbond>
5.8710

> <Gold.PLP.Chemscore.CHOScore>
0.0000

> <Gold.PLP.Chemscore.Metal>
0.0000

> <Gold.Chemscore.Hbonds>
donor molecule, donor type, donor heavy atom, donor atom, acceptor molecule, acceptor atom, score
      P1  H  6896  6907       L1    11  1.43
      P1  H  6931  6943       L1    13  1.00
      P1  H  6934  6947       L1    14  0.86
      P1  H  7989  7998       L1     3  0.98
      P1  H  7997  8009       L1     4  1.00

> <Gold.PLP.Chemscore.Internal.Correction>
1.5643

> <Gold.Rescore>
     Score         DG    S(hbond)    S(metal)    S(lipo)     H(rot)  DE(clash)    DE(int)     intcor
     16.64     -20.88       3.93        0.00      54.55       1.61       0.01       4.23       ----

> <Gold.Chemscore.Fitness>
16.6404

> <Gold.Chemscore.DG>
-20.8848

> <Gold.Chemscore.ZeroCoef>
-5.4800

> <Gold.Chemscore.Hbond>
3.9322

> <Gold.Chemscore.Metal>
0.0000

> <Gold.Chemscore.Lipo>
54.5469

> <Gold.Chemscore.Internal_Hbond>
0.0000

> <Gold.Chemscore.DEClash>
0.0149

> <Gold.Chemscore.DEInternal>
4.2296

> <Gold.Chemscore.Rot>
1.6058

> <Gold.Chemscore.Internal.Correction>
   9.000000E+99

> <Gold.Chemscore.Hbonds>
donor molecule, donor type, donor heavy atom, donor atom, acceptor molecule, acceptor atom, score
      P1  H  6896  6907       L1    11  0.58
      P1  H  6931  6943       L1    13  0.50
      P1  H  6934  6947       L1    14  0.63
      P1  H  7989  7998       L1     3  0.82
      P1  H  7997  8009       L1     4  0.99

> <Gold.Chemscore.Hbond.Weighted>
-13.1336

> <Gold.Chemscore.Metal.Weighted>
-0.0000

> <Gold.Chemscore.Lipo.Weighted>
-6.3820

> <Gold.Chemscore.Internal_Hbond.Weighted>
0.0000

> <Gold.Chemscore.DEClash.Weighted>
0.0149

> <Gold.Chemscore.DEInternal.Weighted>
4.2296

> <Gold.Chemscore.Rot.Weighted>
4.1108

> <Gold.Chemscore.Internal.Correction.Weighted>
   9.000000E+99

> <Gold.Protein.RotatedTorsions>
[ 6907 6896 6895 6894 ] final  -51.39 input  -60.11 | X-H torsion
[ 7974 7965 7964 7962 ] final   56.49 input  175.53 | X-H torsion
[ 8008 7997 7996 7995 ] final -153.72 input   59.86 | X-H torsion
[ 10167 10162 10161 10158 ] final  134.61 input  -65.29 | X-H torsion
[ 10718 10713 10712 10709 ] final   62.74 input   66.30 | X-H torsion
[ 10763 10752 10751 10750 ] final   80.01 input  -60.55 | X-H torsion
[ 11005 11000 10999 10996 ] final -149.82 input  -57.11 | X-H torsion

> <Gold.Protein.ActiveResidues>
 VAL166  LYS551  ARG553  GLY616  TRP617  ASP618  TYR619  PRO620  LYS621  CYS622 
 ASP623  PHE694  ASN695  SER759  ASP760  ASP761  ALA762  ILE779  LEU786  VAL792 
 PHE793  MET794  SER795  GLU796  ALA797  LYS798  CYS799  TRP800  GLU811  SER814 

> <Gold.Protein.RotatedAtoms>
  150.8616  134.7969  159.7086 H   0  0  0  0  0  0  0  0  0  0  0  0  # atno 6907 bound_to 6896
  152.4651  134.5091  159.9758 H   0  0  0  0  0  0  0  0  0  0  0  0  # atno 6908 bound_to 6896
  151.5194  133.3431  159.2934 H   0  0  0  0  0  0  0  0  0  0  0  0  # atno 6909 bound_to 6896
  145.9393  139.3874  143.0373 H   0  0  0  0  0  0  0  0  0  0  0  0  # atno 7974 bound_to 7965
  155.6752  140.0738  157.2505 H   0  0  0  0  0  0  0  0  0  0  0  0  # atno 8008 bound_to 7997
  154.4116  140.1692  156.1974 H   0  0  0  0  0  0  0  0  0  0  0  0  # atno 8009 bound_to 7997
  155.9582  140.3372  155.6470 H   0  0  0  0  0  0  0  0  0  0  0  0  # atno 8010 bound_to 7997
  139.5249  144.6559  151.5164 H   0  0  0  0  0  0  0  0  0  0  0  0  # atno 10167 bound_to 10162
  157.5922  130.9067  149.9627 H   0  0  0  0  0  0  0  0  0  0  0  0  # atno 10718 bound_to 10713
  153.0999  135.4818  154.8847 H   0  0  0  0  0  0  0  0  0  0  0  0  # atno 10763 bound_to 10752
  154.7367  135.3072  154.8802 H   0  0  0  0  0  0  0  0  0  0  0  0  # atno 10764 bound_to 10752
  153.9422  135.6833  153.4797 H   0  0  0  0  0  0  0  0  0  0  0  0  # atno 10765 bound_to 10752
  140.7467  134.3453  157.5135 H   0  0  0  0  0  0  0  0  0  0  0  0  # atno 11005 bound_to 11000
  145.8322  140.9625  143.0843 LP  0  0  0  0  0  0  0  0  0  0  0  0  # atno 17320 bound_to 7965
  144.6776  140.0177  143.7484 LP  0  0  0  0  0  0  0  0  0  0  0  0  # atno 17321 bound_to 7965
  140.6384  143.8938  150.6669 LP  0  0  0  0  0  0  0  0  0  0  0  0  # atno 17342 bound_to 10162
  140.2264  143.3769  152.1601 LP  0  0  0  0  0  0  0  0  0  0  0  0  # atno 17343 bound_to 10162
  156.0979  130.3658  150.0272 LP  0  0  0  0  0  0  0  0  0  0  0  0  # atno 17370 bound_to 10713
  156.8393  130.9420  151.3633 LP  0  0  0  0  0  0  0  0  0  0  0  0  # atno 17371 bound_to 10713
  139.8795  134.9115  156.3039 LP  0  0  0  0  0  0  0  0  0  0  0  0  # atno 17394 bound_to 11000
  140.9788  133.7280  156.0641 LP  0  0  0  0  0  0  0  0  0  0  0  0  # atno 17395 bound_to 11000

$$$$
