AV-unprocessed.smi:155|AV-procd|sdf|1279|dock9
  -GOLD-   2262018553D 1   1.00000     0.00000
 Structure written by MMmdl.
 64 67  0  0  0  0  0  0  0  0  3 V2000
  145.5149  130.6079  151.3714 C   0  0  0  0  0  0  0  0  0  0  0  0
  146.8614  130.9862  151.8554 N   0  3  0  0  0  0  0  0  0  0  0  0
  147.2925  130.1306  152.9851 C   0  0  0  0  0  0  0  0  0  0  0  0
  146.9609  132.4386  152.1486 C   0  0  0  0  0  0  0  0  0  0  0  0
  146.4307  133.3171  150.9957 C   0  0  0  0  0  0  0  0  0  0  0  0
  145.4115  134.3030  151.4453 N   0  3  2  0  0  0  0  0  0  0  0  0
  144.0246  133.7664  151.3929 C   0  0  0  0  0  0  0  0  0  0  0  0
  143.2384  134.1682  152.6532 C   0  0  0  0  0  0  0  0  0  0  0  0
  142.8406  135.6531  152.6910 C   0  0  0  0  0  0  0  0  0  0  0  0
  143.9870  136.5474  152.5430 N   0  0  0  0  0  0  0  0  0  0  0  0
  144.7921  136.8725  153.6006 C   0  0  0  0  0  0  0  0  0  0  0  0
  144.5492  136.2592  154.7912 N   0  0  0  0  0  0  0  0  0  0  0  0
  145.2883  136.5235  155.8705 C   0  0  0  0  0  0  0  0  0  0  0  0
  146.3131  137.3651  155.9890 N   0  0  0  0  0  0  0  0  0  0  0  0
  146.5747  137.9902  154.8071 C   0  0  0  0  0  0  0  0  0  0  0  0
  145.8742  137.8101  153.5764 C   0  0  0  0  0  0  0  0  0  0  0  0
  146.4411  138.6370  152.6099 N   0  0  0  0  0  0  0  0  0  0  0  0
  147.4149  139.2507  153.2224 C   0  0  0  0  0  0  0  0  0  0  0  0
  147.5663  138.9192  154.5466 N   0  0  0  0  0  0  0  0  0  0  0  0
  148.5683  139.4381  155.4613 C   0  0  0  0  0  0  0  0  0  0  0  0
  149.4573  140.5135  154.8059 C   0  0  2  0  0  0  0  0  0  0  0  0
  150.3188  139.9368  153.8420 O   0  0  0  0  0  0  0  0  0  0  0  0
  150.2716  141.3291  155.8305 C   0  0  2  0  0  0  0  0  0  0  0  0
  151.4880  140.6130  156.4437 C   0  0  0  0  0  0  0  0  0  0  0  0
  151.2071  140.6388  157.9355 C   0  0  0  0  0  0  0  0  0  0  0  0
  150.2689  141.8299  158.0780 C   0  0  0  0  0  0  0  0  0  0  0  0
  149.4510  141.7310  156.9240 O   0  0  0  0  0  0  0  0  0  0  0  0
  144.4996  136.6848  151.1764 C   0  0  0  0  0  0  0  0  0  0  0  0
  145.5656  135.6337  150.7903 C   0  0  0  0  0  0  0  0  0  0  0  0
  144.7587  130.7883  152.1369 H   0  0  0  0  0  0  0  0  0  0  0  0
  145.4834  129.5513  151.1025 H   0  0  0  0  0  0  0  0  0  0  0  0
  145.2460  131.1802  150.4828 H   0  0  0  0  0  0  0  0  0  0  0  0
  146.6710  130.3014  153.8653 H   0  0  0  0  0  0  0  0  0  0  0  0
  148.3307  130.3218  153.2555 H   0  0  0  0  0  0  0  0  0  0  0  0
  147.2181  129.0758  152.7176 H   0  0  0  0  0  0  0  0  0  0  0  0
  146.3649  132.6491  153.0383 H   0  0  0  0  0  0  0  0  0  0  0  0
  147.9928  132.6886  152.3975 H   0  0  0  0  0  0  0  0  0  0  0  0
  147.2426  133.8369  150.4857 H   0  0  0  0  0  0  0  0  0  0  0  0
  145.9724  132.6525  150.2617 H   0  0  0  0  0  0  0  0  0  0  0  0
  143.5141  134.0819  150.4817 H   0  0  0  0  0  0  0  0  0  0  0  0
  144.0412  132.6767  151.3577 H   0  0  0  0  0  0  0  0  0  0  0  0
  142.3271  133.5718  152.7051 H   0  0  0  0  0  0  0  0  0  0  0  0
  143.8145  133.9069  153.5414 H   0  0  0  0  0  0  0  0  0  0  0  0
  142.1474  135.8485  151.8720 H   0  0  0  0  0  0  0  0  0  0  0  0
  142.2683  135.8895  153.5858 H   0  0  0  0  0  0  0  0  0  0  0  0
  145.0217  135.9821  156.7663 H   0  0  0  0  0  0  0  0  0  0  0  0
  148.0554  139.9627  152.7219 H   0  0  0  0  0  0  0  0  0  0  0  0
  148.0565  139.8518  156.3310 H   0  0  0  0  0  0  0  0  0  0  0  0
  149.1727  138.6060  155.8241 H   0  0  0  0  0  0  0  0  0  0  0  0
  148.8127  141.2081  154.2653 H   0  0  0  0  0  0  0  0  0  0  0  0
  149.8118  139.7427  153.0679 H   0  0  0  0  0  0  0  0  0  0  0  0
  150.6225  142.2422  155.3470 H   0  0  0  0  0  0  0  0  0  0  0  0
  151.6315  139.5965  156.0759 H   0  0  0  0  0  0  0  0  0  0  0  0
  152.3976  141.1717  156.2208 H   0  0  0  0  0  0  0  0  0  0  0  0
  150.6898  139.7254  158.2318 H   0  0  0  0  0  0  0  0  0  0  0  0
  152.1097  140.7313  158.5401 H   0  0  0  0  0  0  0  0  0  0  0  0
  149.6790  141.7973  158.9941 H   0  0  0  0  0  0  0  0  0  0  0  0
  150.8238  142.7691  158.0555 H   0  0  0  0  0  0  0  0  0  0  0  0
  143.6576  136.5865  150.4905 H   0  0  0  0  0  0  0  0  0  0  0  0
  144.8771  137.6932  151.0029 H   0  0  0  0  0  0  0  0  0  0  0  0
  146.5390  136.0370  151.0670 H   0  0  0  0  0  0  0  0  0  0  0  0
  145.5804  135.5175  149.7057 H   0  0  0  0  0  0  0  0  0  0  0  0
  147.4938  130.7985  151.0902 H   0  0  0  0  0  0  0  0  0  0  0  0
  145.5930  134.4501  152.4281 H   0  0  0  0  0  0  0  0  0  0  0  0
  1  2  1  0  0  0  0
  1 30  1  0  0  0  0
  1 31  1  0  0  0  0
  1 32  1  0  0  0  0
  2  3  1  0  0  0  0
  2  4  1  0  0  0  0
  2 63  1  0  0  0  0
  3 33  1  0  0  0  0
  3 34  1  0  0  0  0
  3 35  1  0  0  0  0
  4  5  1  0  0  0  0
  4 36  1  0  0  0  0
  4 37  1  0  0  0  0
  5  6  1  0  0  0  0
  5 38  1  0  0  0  0
  5 39  1  0  0  0  0
  6 29  1  0  0  0  0
  6  7  1  0  0  0  0
  6 64  1  0  0  0  0
  7  8  1  0  0  0  0
  7 40  1  0  0  0  0
  7 41  1  0  0  0  0
  8  9  1  0  0  0  0
  8 42  1  0  0  0  0
  8 43  1  0  0  0  0
  9 10  1  0  0  0  0
  9 44  1  0  0  0  0
  9 45  1  0  0  0  0
 10 11  1  0  0  0  0
 10 28  1  0  0  0  0
 11 16  1  0  0  0  0
 11 12  2  0  0  0  0
 12 13  1  0  0  0  0
 13 14  2  0  0  0  0
 13 46  1  0  0  0  0
 14 15  1  0  0  0  0
 15 19  1  0  0  0  0
 15 16  2  0  0  0  0
 16 17  1  0  0  0  0
 17 18  2  0  0  0  0
 18 19  1  0  0  0  0
 18 47  1  0  0  0  0
 19 20  1  0  0  0  0
 20 21  1  0  0  0  0
 20 48  1  0  0  0  0
 20 49  1  0  0  0  0
 21 22  1  0  0  0  0
 21 23  1  0  0  0  0
 21 50  1  0  0  0  0
 22 51  1  0  0  0  0
 23 27  1  0  0  0  0
 23 24  1  0  0  0  0
 23 52  1  0  0  0  0
 24 25  1  0  0  0  0
 24 53  1  0  0  0  0
 24 54  1  0  0  0  0
 25 26  1  0  0  0  0
 25 55  1  0  0  0  0
 25 56  1  0  0  0  0
 26 27  1  0  0  0  0
 26 57  1  0  0  0  0
 26 58  1  0  0  0  0
 28 29  1  0  0  0  0
 28 59  1  0  0  0  0
 28 60  1  0  0  0  0
 29 61  1  0  0  0  0
 29 62  1  0  0  0  0
M  CHG  1   2   1
M  CHG  1   6   1
M  END
> <s_m_source_file>
AV-unprocessed.smi

> <i_m_source_file_index>
155

> <i_lp_mmshare_version>
43012

> <i_f3d_flags>
0

> <s_epik_input>
W0NIM11OKFtDSDNdKVtDSDJdW0NIMl1OMVtDSDJdW0NIMl1bQ0gyXU4oW0NIMl1bQ0gyXTEpYyhuW2NIXW4yKWMoYzIzKW5bY0hdbjNbQ0gyXVtDQEhdKFtPSF0pW0NAQEhdNFtDSDJdW0NIMl1bQ0gyXU80

> <s_epik_cmdline>
J2VwaWtfcHl0aG9uJywgJy1waCcsICc3LjAnLCAnLXRuJywgJzgnLCAnLW1hJywgJzIwMCcsICctbWV0YWxfYmluZGluZycsICctaW1hZScsICc8aW5maWxlLm1hZT4nLCAnLW9tYWUnLCAnPG91dGZpbGUubWFlPic=

> <r_lp_tautomer_probability>
1

> <r_epik_Ionization_Penalty>
3.0333

> <r_epik_Ionization_Penalty_Charging>
3.03317

> <r_epik_Ionization_Penalty_Neutral>
0.000131872

> <r_epik_State_Penalty>
1.99939

> <r_epik_Charging_Adjusted_Penalty>
5.03256

> <i_epik_Tot_Q>
2

> <i_epik_Tot_abs_Q>
2

> <r_epik_Metal_State_Penalty>
2.00021

> <b_epik_Metal_Only>
0

> <s_lp_Force_Field>
OPLS_2005

> <r_lp_Energy>
62.7096

> <b_lp_Chiralities_Consistent>
1

> <s_lp_Variant>
AV-unprocessed.smi:155-13

> <Gold.Version>
5.8.1

> <Gold.Id.Protein>
6NUR|6NUR_protein|mol2

> <Gold.PLP.Fitness>
46.1224

> <Gold.PLP.PLP>
-36.7739

> <Gold.PLP.part.hbond>
-3.0000

> <Gold.PLP.part.metal>
0.0000

> <Gold.PLP.part.buried>
-0.8442

> <Gold.PLP.part.nonpolar>
-33.9394

> <Gold.PLP.part.repulsive>
0.4254

> <Gold.PLP.ligand.clash>
0.0000

> <Gold.PLP.ligand.torsion>
1.2576

> <Gold.PLP.Chemscore.Hbond>
2.8240

> <Gold.PLP.Chemscore.CHOScore>
1.0000

> <Gold.PLP.Chemscore.Metal>
0.0000

> <Gold.Chemscore.Hbonds>
donor molecule, donor type, donor heavy atom, donor atom, acceptor molecule, acceptor atom, score
      L1  H     2    63       P1 10747  1.00
      L1  H    22    51       P1  7957  0.91
      P1  H  7989  7998       L1    22  0.94
      L1  C    18    47       P1  7957  1.00

> <Gold.PLP.Chemscore.Internal.Correction>
0.3916

> <Gold.Rescore>
     Score         DG    S(hbond)    S(metal)    S(lipo)     H(rot)  DE(clash)    DE(int)     intcor
     14.70     -18.21       2.57        0.00      95.64       2.75       1.93       1.59       ----

> <Gold.Chemscore.Fitness>
14.6990

> <Gold.Chemscore.DG>
-18.2150

> <Gold.Chemscore.ZeroCoef>
-5.4800

> <Gold.Chemscore.Hbond>
2.5699

> <Gold.Chemscore.Metal>
0.0000

> <Gold.Chemscore.Lipo>
95.6405

> <Gold.Chemscore.Internal_Hbond>
0.0000

> <Gold.Chemscore.DEClash>
1.9300

> <Gold.Chemscore.DEInternal>
1.5860

> <Gold.Chemscore.Rot>
2.7493

> <Gold.Chemscore.Internal.Correction>
   9.000000E+99

> <Gold.Chemscore.Hbonds>
donor molecule, donor type, donor heavy atom, donor atom, acceptor molecule, acceptor atom, score
      L1  H     2    63       P1 10747  0.98
      L1  H    22    51       P1  7957  0.89
      P1  H  7989  7998       L1    22  0.63

> <Gold.Chemscore.Hbond.Weighted>
-8.5833

> <Gold.Chemscore.Metal.Weighted>
-0.0000

> <Gold.Chemscore.Lipo.Weighted>
-11.1899

> <Gold.Chemscore.Internal_Hbond.Weighted>
0.0000

> <Gold.Chemscore.DEClash.Weighted>
1.9300

> <Gold.Chemscore.DEInternal.Weighted>
1.5860

> <Gold.Chemscore.Rot.Weighted>
7.0383

> <Gold.Chemscore.Internal.Correction.Weighted>
   9.000000E+99

> <Gold.Protein.RotatedTorsions>
[ 6907 6896 6895 6894 ] final  -72.29 input  -60.11 | X-H torsion
[ 7974 7965 7964 7962 ] final  -33.15 input  175.53 | X-H torsion
[ 8008 7997 7996 7995 ] final   67.53 input   59.86 | X-H torsion
[ 10167 10162 10161 10158 ] final  150.94 input  -65.29 | X-H torsion
[ 10718 10713 10712 10709 ] final   26.27 input   66.30 | X-H torsion
[ 10763 10752 10751 10750 ] final  -59.65 input  -60.55 | X-H torsion
[ 11005 11000 10999 10996 ] final   72.83 input  -57.11 | X-H torsion

> <Gold.Protein.ActiveResidues>
 VAL166  LYS551  ARG553  GLY616  TRP617  ASP618  TYR619  PRO620  LYS621  CYS622 
 ASP623  PHE694  ASN695  SER759  ASP760  ASP761  ALA762  ILE779  LEU786  VAL792 
 PHE793  MET794  SER795  GLU796  ALA797  LYS798  CYS799  TRP800  GLU811  SER814 

> <Gold.Protein.RotatedAtoms>
  150.7176  134.5184  159.5641 H   0  0  0  0  0  0  0  0  0  0  0  0  # atno 6907 bound_to 6896
  152.2745  134.7894  160.0417 H   0  0  0  0  0  0  0  0  0  0  0  0  # atno 6908 bound_to 6896
  151.8562  133.3413  159.3726 H   0  0  0  0  0  0  0  0  0  0  0  0  # atno 6909 bound_to 6896
  146.0933  140.5881  142.8854 H   0  0  0  0  0  0  0  0  0  0  0  0  # atno 7974 bound_to 7965
  155.6944  140.3496  155.4907 H   0  0  0  0  0  0  0  0  0  0  0  0  # atno 8008 bound_to 7997
  155.9496  140.1117  157.1010 H   0  0  0  0  0  0  0  0  0  0  0  0  # atno 8009 bound_to 7997
  154.4119  140.1197  156.5021 H   0  0  0  0  0  0  0  0  0  0  0  0  # atno 8010 bound_to 7997
  139.4845  144.5481  151.7448 H   0  0  0  0  0  0  0  0  0  0  0  0  # atno 10167 bound_to 10162
  157.2045  130.6905  149.6202 H   0  0  0  0  0  0  0  0  0  0  0  0  # atno 10718 bound_to 10713
  154.2571  135.6315  153.5261 H   0  0  0  0  0  0  0  0  0  0  0  0  # atno 10763 bound_to 10752
  152.9902  135.5578  154.5745 H   0  0  0  0  0  0  0  0  0  0  0  0  # atno 10764 bound_to 10752
  154.5285  135.2887  155.1175 H   0  0  0  0  0  0  0  0  0  0  0  0  # atno 10765 bound_to 10752
  139.9470  134.7294  156.0954 H   0  0  0  0  0  0  0  0  0  0  0  0  # atno 11005 bound_to 11000
  144.7376  140.4853  143.6892 LP  0  0  0  0  0  0  0  0  0  0  0  0  # atno 17320 bound_to 7965
  145.5997  139.1502  143.3136 LP  0  0  0  0  0  0  0  0  0  0  0  0  # atno 17321 bound_to 7965
  140.5031  144.1139  150.5976 LP  0  0  0  0  0  0  0  0  0  0  0  0  # atno 17342 bound_to 10162
  140.4039  143.2690  151.9914 LP  0  0  0  0  0  0  0  0  0  0  0  0  # atno 17343 bound_to 10162
  155.9697  130.4571  150.5952 LP  0  0  0  0  0  0  0  0  0  0  0  0  # atno 17370 bound_to 10713
  157.3734  131.0769  151.1538 LP  0  0  0  0  0  0  0  0  0  0  0  0  # atno 17371 bound_to 10713
  141.1124  133.6639  156.3010 LP  0  0  0  0  0  0  0  0  0  0  0  0  # atno 17394 bound_to 11000
  140.5809  134.5746  157.5479 LP  0  0  0  0  0  0  0  0  0  0  0  0  # atno 17395 bound_to 11000

$$$$
