AV-unprocessed.smi:1718|AV-procd|sdf|6922|dock5
  -GOLD-   22720 8123D 1   1.00000     0.00000
 Structure written by MMmdl.
 40 41  0  0  0  0  0  0  0  0  1 V2000
  150.0202  138.4419  157.7248 C   0  0  0  0  0  0  0  0  0  0  0  0
  150.6814  139.5779  156.9298 C   0  0  2  0  0  0  0  0  0  0  0  0
  150.3773  140.7993  157.5970 O   0  0  0  0  0  0  0  0  0  0  0  0
  151.1987  141.9098  157.2501 C   0  0  0  0  0  0  0  0  0  0  0  0
  150.8111  143.1195  158.1117 C   0  0  2  0  0  0  0  0  0  0  0  0
  151.6449  144.3837  157.8523 C   0  0  0  0  0  0  0  0  0  0  0  0
  152.4169  144.5702  159.1439 C   0  0  0  0  0  0  0  0  0  0  0  0
  151.4875  143.9338  160.1682 C   0  0  0  0  0  0  0  0  0  0  0  0
  150.9851  142.7943  159.4884 O   0  0  0  0  0  0  0  0  0  0  0  0
  150.1720  139.6235  155.4799 C   0  0  0  0  0  0  0  0  0  0  0  0
  150.9801  139.7261  154.5573 O   0  0  0  0  0  0  0  0  0  0  0  0
  148.8341  139.5452  155.3357 N   0  0  0  0  0  0  0  0  0  0  0  0
  148.0610  139.5030  154.1632 C   0  0  0  0  0  0  0  0  0  0  0  0
  147.2004  138.5044  153.8335 C   0  0  0  0  0  0  0  0  0  0  0  0
  146.4169  138.5333  152.6103 C   0  0  0  0  0  0  0  0  0  0  0  0
  145.5160  137.3714  152.2216 C   0  0  0  0  0  0  0  0  0  0  0  0
  145.6081  136.3683  153.0958 F   0  0  0  0  0  0  0  0  0  0  0  0
  144.2420  137.7595  152.1621 F   0  0  0  0  0  0  0  0  0  0  0  0
  145.8643  136.9108  151.0211 F   0  0  0  0  0  0  0  0  0  0  0  0
  146.5908  139.6018  151.8107 C   0  0  0  0  0  0  0  0  0  0  0  0
  147.4574  140.6426  152.1521 N   0  0  0  0  0  0  0  0  0  0  0  0
  148.2059  140.6703  153.2775 C   0  0  0  0  0  0  0  0  0  0  0  0
  148.9457  141.6263  153.5077 O   0  0  0  0  0  0  0  0  0  0  0  0
  147.5205  141.4173  151.5072 H   0  0  0  0  0  0  0  0  0  0  0  0
  150.1992  137.4733  157.2566 H   0  0  0  0  0  0  0  0  0  0  0  0
  148.9414  138.5821  157.8056 H   0  0  0  0  0  0  0  0  0  0  0  0
  150.4208  138.3969  158.7376 H   0  0  0  0  0  0  0  0  0  0  0  0
  151.7613  139.4173  156.9409 H   0  0  0  0  0  0  0  0  0  0  0  0
  152.2457  141.6570  157.4234 H   0  0  0  0  0  0  0  0  0  0  0  0
  151.0962  142.1680  156.1956 H   0  0  0  0  0  0  0  0  0  0  0  0
  149.7566  143.3485  157.9526 H   0  0  0  0  0  0  0  0  0  0  0  0
  152.3006  144.3029  156.9845 H   0  0  0  0  0  0  0  0  0  0  0  0
  150.9832  145.2352  157.6889 H   0  0  0  0  0  0  0  0  0  0  0  0
  153.3559  144.0171  159.1002 H   0  0  0  0  0  0  0  0  0  0  0  0
  152.6430  145.6143  159.3617 H   0  0  0  0  0  0  0  0  0  0  0  0
  151.9989  143.6587  161.0907 H   0  0  0  0  0  0  0  0  0  0  0  0
  150.6628  144.6040  160.4153 H   0  0  0  0  0  0  0  0  0  0  0  0
  148.2965  139.5340  156.1908 H   0  0  0  0  0  0  0  0  0  0  0  0
  147.0505  137.6592  154.4848 H   0  0  0  0  0  0  0  0  0  0  0  0
  146.0940  139.7405  150.8617 H   0  0  0  0  0  0  0  0  0  0  0  0
  1  2  1  0  0  0  0
  1 25  1  0  0  0  0
  1 26  1  0  0  0  0
  1 27  1  0  0  0  0
  2  3  1  0  0  0  0
  2 10  1  0  0  0  0
  2 28  1  0  0  0  0
  3  4  1  0  0  0  0
  4  5  1  0  0  0  0
  4 29  1  0  0  0  0
  4 30  1  0  0  0  0
  5  9  1  0  0  0  0
  5  6  1  0  0  0  0
  5 31  1  0  0  0  0
  6  7  1  0  0  0  0
  6 32  1  0  0  0  0
  6 33  1  0  0  0  0
  7  8  1  0  0  0  0
  7 34  1  0  0  0  0
  7 35  1  0  0  0  0
  8  9  1  0  0  0  0
  8 36  1  0  0  0  0
  8 37  1  0  0  0  0
 10 11  2  0  0  0  0
 10 12  1  0  0  0  0
 12 13  1  0  0  0  0
 12 38  1  0  0  0  0
 13 22  1  0  0  0  0
 13 14  2  0  0  0  0
 14 15  1  0  0  0  0
 14 39  1  0  0  0  0
 15 16  1  0  0  0  0
 15 20  2  0  0  0  0
 16 17  1  0  0  0  0
 16 18  1  0  0  0  0
 16 19  1  0  0  0  0
 20 21  1  0  0  0  0
 20 40  1  0  0  0  0
 21 24  1  0  0  0  0
 21 22  1  0  0  0  0
 22 23  2  0  0  0  0
M  END
> <s_m_source_file>
AV-unprocessed.smi

> <i_m_source_file_index>
1718

> <i_lp_mmshare_version>
43012

> <i_f3d_flags>
0

> <s_epik_input>
TzFbQ0gyXVtDSDJdW0NIMl1bQ0BIXTFbQ0gyXU9bQ0BASF0oW0NIM10pQyg9TylbTkhdYzJbY0hdYyhDKEYpKEYpRilbY0hdW25IXWMyPU8=

> <s_epik_cmdline>
J2VwaWtfcHl0aG9uJywgJy1waCcsICc3LjAnLCAnLXRuJywgJzgnLCAnLW1hJywgJzIwMCcsICctbWV0YWxfYmluZGluZycsICctaW1hZScsICc8aW5maWxlLm1hZT4nLCAnLW9tYWUnLCAnPG91dGZpbGUubWFlPic=

> <r_lp_tautomer_probability>
0.999

> <r_epik_Ionization_Penalty>
0.00894336

> <r_epik_Ionization_Penalty_Charging>
0.00894326

> <r_epik_Ionization_Penalty_Neutral>
1.00145e-07

> <r_epik_State_Penalty>
0.00676626

> <r_epik_Charging_Adjusted_Penalty>
0.0157095

> <i_epik_Tot_Q>
0

> <i_epik_Tot_abs_Q>
0

> <r_epik_Metal_State_Penalty>
0.321145

> <b_epik_Metal_Only>
0

> <s_lp_Force_Field>
OPLS_2005

> <r_lp_Energy>
34.6519

> <b_lp_Chiralities_Consistent>
1

> <s_lp_Variant>
AV-unprocessed.smi:1718-1

> <Gold.Version>
5.8.1

> <Gold.Id.Protein>
6NUR|6NUR_protein|mol2

> <Gold.PLP.Fitness>
42.9271

> <Gold.PLP.PLP>
-35.5222

> <Gold.PLP.part.hbond>
-3.0000

> <Gold.PLP.part.metal>
0.0000

> <Gold.PLP.part.buried>
-2.9676

> <Gold.PLP.part.nonpolar>
-31.6864

> <Gold.PLP.part.repulsive>
0.9552

> <Gold.PLP.ligand.clash>
0.0000

> <Gold.PLP.ligand.torsion>
1.0414

> <Gold.PLP.Chemscore.Hbond>
1.7680

> <Gold.PLP.Chemscore.CHOScore>
1.3200

> <Gold.PLP.Chemscore.Metal>
0.0000

> <Gold.Chemscore.Hbonds>
donor molecule, donor type, donor heavy atom, donor atom, acceptor molecule, acceptor atom, score
      P1  H  7989  7998       L1    11  1.00
      P1  H  8011  8017       L1    23  0.75
      L1  C    20    40       P1 10171  0.63

> <Gold.PLP.Chemscore.Internal.Correction>
0.2237

> <Gold.Rescore>
     Score         DG    S(hbond)    S(metal)    S(lipo)     H(rot)  DE(clash)    DE(int)     intcor
     14.22     -16.26       1.59        0.00      87.91       1.88       0.90       1.13       ----

> <Gold.Chemscore.Fitness>
14.2246

> <Gold.Chemscore.DG>
-16.2555

> <Gold.Chemscore.ZeroCoef>
-5.4800

> <Gold.Chemscore.Hbond>
1.5869

> <Gold.Chemscore.Metal>
0.0000

> <Gold.Chemscore.Lipo>
87.9091

> <Gold.Chemscore.Internal_Hbond>
0.0000

> <Gold.Chemscore.DEClash>
0.8991

> <Gold.Chemscore.DEInternal>
1.1318

> <Gold.Chemscore.Rot>
1.8790

> <Gold.Chemscore.Internal.Correction>
   9.000000E+99

> <Gold.Chemscore.Hbonds>
donor molecule, donor type, donor heavy atom, donor atom, acceptor molecule, acceptor atom, score
      P1  H  7989  7998       L1    11  1.00
      P1  H  8011  8017       L1    23  0.73

> <Gold.Chemscore.Hbond.Weighted>
-5.3003

> <Gold.Chemscore.Metal.Weighted>
-0.0000

> <Gold.Chemscore.Lipo.Weighted>
-10.2854

> <Gold.Chemscore.Internal_Hbond.Weighted>
0.0000

> <Gold.Chemscore.DEClash.Weighted>
0.8991

> <Gold.Chemscore.DEInternal.Weighted>
1.1318

> <Gold.Chemscore.Rot.Weighted>
4.8102

> <Gold.Chemscore.Internal.Correction.Weighted>
   9.000000E+99

> <Gold.Protein.RotatedTorsions>
[ 6907 6896 6895 6894 ] final  -33.77 input  -60.11 | X-H torsion
[ 7974 7965 7964 7962 ] final -169.72 input  175.53 | X-H torsion
[ 8008 7997 7996 7995 ] final  100.63 input   59.86 | X-H torsion
[ 10167 10162 10161 10158 ] final  -98.90 input  -65.29 | X-H torsion
[ 10718 10713 10712 10709 ] final  158.80 input   66.30 | X-H torsion
[ 10763 10752 10751 10750 ] final  -51.54 input  -60.55 | X-H torsion
[ 11005 11000 10999 10996 ] final -157.50 input  -57.11 | X-H torsion

> <Gold.Protein.ActiveResidues>
 VAL166  LYS551  ARG553  GLY616  TRP617  ASP618  TYR619  PRO620  LYS621  CYS622 
 ASP623  PHE694  ASN695  SER759  ASP760  ASP761  ALA762  ILE779  LEU786  VAL792 
 PHE793  MET794  SER795  GLU796  ALA797  LYS798  CYS799  TRP800  GLU811  SER814 

> <Gold.Protein.RotatedAtoms>
  151.0613  134.9738  159.8261 H   0  0  0  0  0  0  0  0  0  0  0  0  # atno 6907 bound_to 6896
  152.5396  134.2414  159.8873 H   0  0  0  0  0  0  0  0  0  0  0  0  # atno 6908 bound_to 6896
  151.2434  133.4345  159.2642 H   0  0  0  0  0  0  0  0  0  0  0  0  # atno 6909 bound_to 6896
  144.7181  140.2179  143.6319 H   0  0  0  0  0  0  0  0  0  0  0  0  # atno 7974 bound_to 7965
  156.1221  140.3210  155.8224 H   0  0  0  0  0  0  0  0  0  0  0  0  # atno 8008 bound_to 7997
  155.4485  140.0530  157.3020 H   0  0  0  0  0  0  0  0  0  0  0  0  # atno 8009 bound_to 7997
  154.4835  140.2063  155.9721 H   0  0  0  0  0  0  0  0  0  0  0  0  # atno 8010 bound_to 7997
  140.2681  143.3362  152.0561 H   0  0  0  0  0  0  0  0  0  0  0  0  # atno 10167 bound_to 10162
  157.1730  131.0614  151.2173 H   0  0  0  0  0  0  0  0  0  0  0  0  # atno 10718 bound_to 10713
  154.1282  135.6524  153.4916 H   0  0  0  0  0  0  0  0  0  0  0  0  # atno 10763 bound_to 10752
  153.0203  135.5286  154.7028 H   0  0  0  0  0  0  0  0  0  0  0  0  # atno 10764 bound_to 10752
  154.6255  135.2970  155.0247 H   0  0  0  0  0  0  0  0  0  0  0  0  # atno 10765 bound_to 10752
  140.6639  134.4319  157.5234 H   0  0  0  0  0  0  0  0  0  0  0  0  # atno 11005 bound_to 11000
  145.8528  139.2184  143.1762 LP  0  0  0  0  0  0  0  0  0  0  0  0  # atno 17320 bound_to 7965
  146.0245  140.8317  142.9907 LP  0  0  0  0  0  0  0  0  0  0  0  0  # atno 17321 bound_to 7965
  139.4997  144.6675  151.6322 LP  0  0  0  0  0  0  0  0  0  0  0  0  # atno 17342 bound_to 10162
  140.5912  143.9776  150.6326 LP  0  0  0  0  0  0  0  0  0  0  0  0  # atno 17343 bound_to 10162
  157.4025  130.7341  149.6778 LP  0  0  0  0  0  0  0  0  0  0  0  0  # atno 17370 bound_to 10713
  155.9735  130.4117  150.3994 LP  0  0  0  0  0  0  0  0  0  0  0  0  # atno 17371 bound_to 10713
  139.9003  134.8570  156.1922 LP  0  0  0  0  0  0  0  0  0  0  0  0  # atno 17394 bound_to 11000
  141.0444  133.6921  156.1656 LP  0  0  0  0  0  0  0  0  0  0  0  0  # atno 17395 bound_to 11000

$$$$
