AV-unprocessed.smi:3326|AV-procd|sdf|12786|dock5
  -GOLD-   2272019133D 1   1.00000     0.00000
 Structure written by MMmdl.
 30 31  0  0  0  0  0  0  0  0  1 V2000
  151.8604  145.2849  160.3927 F   0  0  0  0  0  0  0  0  0  0  0  0
  151.6598  144.3777  159.4363 C   0  0  0  0  0  0  0  0  0  0  0  0
  150.3444  144.2192  159.2869 F   0  0  0  0  0  0  0  0  0  0  0  0
  152.1698  144.8551  158.3007 F   0  0  0  0  0  0  0  0  0  0  0  0
  152.3118  143.0402  159.7795 C   0  0  0  0  0  0  0  0  0  0  0  0
  153.0924  142.9040  160.9502 C   0  0  0  0  0  0  0  0  0  0  0  0
  153.6847  141.6624  161.2445 C   0  0  0  0  0  0  0  0  0  0  0  0
  153.4751  140.5959  160.3525 C   0  0  0  0  0  0  0  0  0  0  0  0
  152.7327  140.7077  159.2322 N   0  0  0  0  0  0  0  0  0  0  0  0
  152.1589  141.9016  158.9454 C   0  0  0  0  0  0  0  0  0  0  0  0
  151.3890  141.9927  157.7754 N   0  0  0  0  0  0  0  0  0  0  0  0
  151.1797  140.8372  156.9145 C   0  0  0  0  0  0  0  0  0  0  0  0
  150.3206  141.1937  155.6938 C   0  0  1  0  0  0  0  0  0  0  0  0
  149.9704  140.0085  154.7983 C   0  0  0  0  0  0  0  0  0  0  0  0
  148.7591  140.5226  154.0453 C   0  0  0  0  0  0  0  0  0  0  0  0
  148.1366  141.5353  155.0119 C   0  0  0  0  0  0  0  0  0  0  0  0
  149.0421  141.6506  156.1059 O   0  0  0  0  0  0  0  0  0  0  0  0
  153.2428  143.7351  161.6227 H   0  0  0  0  0  0  0  0  0  0  0  0
  154.2854  141.5311  162.1323 H   0  0  0  0  0  0  0  0  0  0  0  0
  153.9141  139.6276  160.5431 H   0  0  0  0  0  0  0  0  0  0  0  0
  150.9488  142.8674  157.5293 H   0  0  0  0  0  0  0  0  0  0  0  0
  152.1424  140.4376  156.5935 H   0  0  0  0  0  0  0  0  0  0  0  0
  150.6830  140.0563  157.4916 H   0  0  0  0  0  0  0  0  0  0  0  0
  150.7958  141.9829  155.1078 H   0  0  0  0  0  0  0  0  0  0  0  0
  150.7878  139.7136  154.1398 H   0  0  0  0  0  0  0  0  0  0  0  0
  149.6915  139.1450  155.4039 H   0  0  0  0  0  0  0  0  0  0  0  0
  149.0717  141.0256  153.1293 H   0  0  0  0  0  0  0  0  0  0  0  0
  148.0708  139.7224  153.7721 H   0  0  0  0  0  0  0  0  0  0  0  0
  148.0086  142.5049  154.5293 H   0  0  0  0  0  0  0  0  0  0  0  0
  147.1624  141.2067  155.3750 H   0  0  0  0  0  0  0  0  0  0  0  0
  1  2  1  0  0  0  0
  2  3  1  0  0  0  0
  2  4  1  0  0  0  0
  2  5  1  0  0  0  0
  5 10  1  0  0  0  0
  5  6  2  0  0  0  0
  6  7  1  0  0  0  0
  6 18  1  0  0  0  0
  7  8  2  0  0  0  0
  7 19  1  0  0  0  0
  8  9  1  0  0  0  0
  8 20  1  0  0  0  0
  9 10  2  0  0  0  0
 10 11  1  0  0  0  0
 11 12  1  0  0  0  0
 11 21  1  0  0  0  0
 12 13  1  0  0  0  0
 12 22  1  0  0  0  0
 12 23  1  0  0  0  0
 13 17  1  0  0  0  0
 13 14  1  0  0  0  0
 13 24  1  0  0  0  0
 14 15  1  0  0  0  0
 14 25  1  0  0  0  0
 14 26  1  0  0  0  0
 15 16  1  0  0  0  0
 15 27  1  0  0  0  0
 15 28  1  0  0  0  0
 16 17  1  0  0  0  0
 16 29  1  0  0  0  0
 16 30  1  0  0  0  0
M  END
> <s_m_source_file>
AV-unprocessed.smi

> <i_m_source_file_index>
3326

> <i_lp_mmshare_version>
43012

> <i_f3d_flags>
0

> <s_epik_input>
RkMoRikoRiljMVtjSF1bY0hdW2NIXW5jMVtOSF1bQ0gyXVtDQEBIXTJbQ0gyXVtDSDJdW0NIMl1PMg==

> <s_epik_cmdline>
J2VwaWtfcHl0aG9uJywgJy1waCcsICc3LjAnLCAnLXRuJywgJzgnLCAnLW1hJywgJzIwMCcsICctbWV0YWxfYmluZGluZycsICctaW1hZScsICc8aW5maWxlLm1hZT4nLCAnLW9tYWUnLCAnPG91dGZpbGUubWFlPic=

> <r_lp_tautomer_probability>
1

> <r_epik_Ionization_Penalty>
0.000820218

> <r_epik_Ionization_Penalty_Charging>
0

> <r_epik_Ionization_Penalty_Neutral>
0.000820218

> <r_epik_State_Penalty>
0.000527207

> <r_epik_Charging_Adjusted_Penalty>
0.000527207

> <i_epik_Tot_Q>
0

> <i_epik_Tot_abs_Q>
0

> <r_epik_Metal_State_Penalty>
-0

> <b_epik_Metal_Only>
0

> <s_lp_Force_Field>
OPLS_2005

> <r_lp_Energy>
21.9295

> <b_lp_Chiralities_Consistent>
1

> <s_lp_Variant>
AV-unprocessed.smi:3326-2

> <Gold.Version>
5.8.1

> <Gold.Id.Protein>
6NUR|6NUR_protein|mol2

> <Gold.PLP.Fitness>
43.9800

> <Gold.PLP.PLP>
-44.0268

> <Gold.PLP.part.hbond>
0.0000

> <Gold.PLP.part.metal>
0.0000

> <Gold.PLP.part.buried>
-4.2754

> <Gold.PLP.part.nonpolar>
-40.0285

> <Gold.PLP.part.repulsive>
0.6190

> <Gold.PLP.ligand.clash>
0.4301

> <Gold.PLP.ligand.torsion>
0.0518

> <Gold.PLP.Chemscore.Hbond>
0.0000

> <Gold.PLP.Chemscore.CHOScore>
0.0000

> <Gold.PLP.Chemscore.Metal>
0.0000

> <Gold.PLP.Chemscore.Internal.Correction>
0.4868

> <Gold.Rescore>
     Score         DG    S(hbond)    S(metal)    S(lipo)     H(rot)  DE(clash)    DE(int)     intcor
     10.71     -12.40       0.00        0.00      86.52       1.25       0.04       1.65       ----

> <Gold.Chemscore.Fitness>
10.7067

> <Gold.Chemscore.DG>
-12.3998

> <Gold.Chemscore.ZeroCoef>
-5.4800

> <Gold.Chemscore.Hbond>
0.0000

> <Gold.Chemscore.Metal>
0.0000

> <Gold.Chemscore.Lipo>
86.5241

> <Gold.Chemscore.Internal_Hbond>
0.0000

> <Gold.Chemscore.DEClash>
0.0410

> <Gold.Chemscore.DEInternal>
1.6521

> <Gold.Chemscore.Rot>
1.2514

> <Gold.Chemscore.Internal.Correction>
   9.000000E+99

> <Gold.Chemscore.Hbond.Weighted>
-0.0000

> <Gold.Chemscore.Metal.Weighted>
-0.0000

> <Gold.Chemscore.Lipo.Weighted>
-10.1233

> <Gold.Chemscore.Internal_Hbond.Weighted>
0.0000

> <Gold.Chemscore.DEClash.Weighted>
0.0410

> <Gold.Chemscore.DEInternal.Weighted>
1.6521

> <Gold.Chemscore.Rot.Weighted>
3.2036

> <Gold.Chemscore.Internal.Correction.Weighted>
   9.000000E+99

> <Gold.Protein.RotatedTorsions>
[ 6907 6896 6895 6894 ] final  -34.77 input  -60.11 | X-H torsion
[ 7974 7965 7964 7962 ] final  -15.85 input  175.53 | X-H torsion
[ 8008 7997 7996 7995 ] final -135.49 input   59.86 | X-H torsion
[ 10167 10162 10161 10158 ] final  -31.18 input  -65.29 | X-H torsion
[ 10718 10713 10712 10709 ] final    7.39 input   66.30 | X-H torsion
[ 10763 10752 10751 10750 ] final  158.67 input  -60.55 | X-H torsion
[ 11005 11000 10999 10996 ] final  132.59 input  -57.11 | X-H torsion

> <Gold.Protein.ActiveResidues>
 VAL166  LYS551  ARG553  GLY616  TRP617  ASP618  TYR619  PRO620  LYS621  CYS622 
 ASP623  PHE694  ASN695  SER759  ASP760  ASP761  ALA762  ILE779  LEU786  VAL792 
 PHE793  MET794  SER795  GLU796  ALA797  LYS798  CYS799  TRP800  GLU811  SER814 

> <Gold.Protein.RotatedAtoms>
  151.0484  134.9656  159.8198 H   0  0  0  0  0  0  0  0  0  0  0  0  # atno 6907 bound_to 6896
  152.5376  134.2569  159.8930 H   0  0  0  0  0  0  0  0  0  0  0  0  # atno 6908 bound_to 6896
  151.2583  133.4272  159.2648 H   0  0  0  0  0  0  0  0  0  0  0  0  # atno 6909 bound_to 6896
  146.2014  140.3551  142.8422 H   0  0  0  0  0  0  0  0  0  0  0  0  # atno 7974 bound_to 7965
  155.3795  140.0493  157.3044 H   0  0  0  0  0  0  0  0  0  0  0  0  # atno 8008 bound_to 7997
  154.5090  140.2184  155.9156 H   0  0  0  0  0  0  0  0  0  0  0  0  # atno 8009 bound_to 7997
  156.1560  140.3126  155.8732 H   0  0  0  0  0  0  0  0  0  0  0  0  # atno 8010 bound_to 7997
  140.7240  143.3791  151.1634 H   0  0  0  0  0  0  0  0  0  0  0  0  # atno 10167 bound_to 10162
  156.9362  130.5844  149.5651 H   0  0  0  0  0  0  0  0  0  0  0  0  # atno 10718 bound_to 10713
  154.2197  135.2782  155.2929 H   0  0  0  0  0  0  0  0  0  0  0  0  # atno 10763 bound_to 10752
  154.5712  135.5618  153.7100 H   0  0  0  0  0  0  0  0  0  0  0  0  # atno 10764 bound_to 10752
  153.0044  135.6321  154.2337 H   0  0  0  0  0  0  0  0  0  0  0  0  # atno 10765 bound_to 10752
  139.9800  134.9551  156.9604 H   0  0  0  0  0  0  0  0  0  0  0  0  # atno 11005 bound_to 11000
  144.8692  140.7249  143.6058 LP  0  0  0  0  0  0  0  0  0  0  0  0  # atno 17320 bound_to 7965
  145.3471  139.1716  143.4455 LP  0  0  0  0  0  0  0  0  0  0  0  0  # atno 17321 bound_to 7965
  139.7377  143.8974  152.3040 LP  0  0  0  0  0  0  0  0  0  0  0  0  # atno 17342 bound_to 10162
  139.8784  144.7031  150.8906 LP  0  0  0  0  0  0  0  0  0  0  0  0  # atno 17343 bound_to 10162
  156.0425  130.5506  150.8804 LP  0  0  0  0  0  0  0  0  0  0  0  0  # atno 17370 bound_to 10713
  157.5815  131.0946  150.9263 LP  0  0  0  0  0  0  0  0  0  0  0  0  # atno 17371 bound_to 10713
  140.5117  134.0996  155.7272 LP  0  0  0  0  0  0  0  0  0  0  0  0  # atno 17394 bound_to 11000
  141.1473  133.9032  157.2185 LP  0  0  0  0  0  0  0  0  0  0  0  0  # atno 17395 bound_to 11000

$$$$
