AV-unprocessed.smi:1033|AV-procd|sdf|4498|dock7
  -GOLD-   22720 2493D 1   1.00000     0.00000
 Structure written by MMmdl.
 57 59  0  0  0  0  0  0  0  0  3 V2000
  152.1036  144.0077  161.1168 C   0  0  0  0  0  0  0  0  0  0  0  0
  151.9325  143.1648  159.8644 C   0  0  0  0  0  0  0  0  0  0  0  0
  150.9779  143.5696  158.9043 C   0  0  0  0  0  0  0  0  0  0  0  0
  150.8441  142.7784  157.7697 C   0  0  0  0  0  0  0  0  0  0  0  0
  150.0049  142.9062  156.6612 N   0  3  0  0  0  0  0  0  0  0  0  0
  150.2347  141.8801  155.7963 C   0  0  0  0  0  0  0  0  0  0  0  0
  151.2075  141.0963  156.3365 N   0  0  0  0  0  0  0  0  0  0  0  0
  151.8249  139.8711  155.8069 C   0  0  0  0  0  0  0  0  0  0  0  0
  150.8101  138.9374  155.1182 C   0  0  2  0  0  0  0  0  0  0  0  0
  150.3539  139.5377  153.9214 O   0  0  0  0  0  0  0  0  0  0  0  0
  149.5944  138.6523  156.0232 C   0  0  0  0  0  0  0  0  0  0  0  0
  149.8870  137.6590  157.0883 N   0  3  0  0  0  0  0  0  0  0  0  0
  148.9035  136.5455  157.1089 C   0  0  0  0  0  0  0  0  0  0  0  0
  149.2919  135.5029  158.1771 C   0  0  0  0  0  0  0  0  0  0  0  0
  149.4152  136.0694  159.5198 N   0  0  0  0  0  0  0  0  0  0  0  0
  148.1180  136.4238  160.1080 C   0  0  0  0  0  0  0  0  0  0  0  0
  148.0907  136.5179  161.6464 C   0  0  2  0  0  0  0  0  0  0  0  0
  147.7958  135.1712  162.3226 C   0  0  0  0  0  0  0  0  0  0  0  0
  147.0707  137.4242  162.0085 O   0  0  0  0  0  0  0  0  0  0  0  0
  150.3867  137.1652  159.4736 C   0  0  0  0  0  0  0  0  0  0  0  0
  150.0310  138.2564  158.4430 C   0  0  0  0  0  0  0  0  0  0  0  0
  151.6202  141.6199  157.5688 C   0  0  0  0  0  0  0  0  0  0  0  0
  152.5655  141.2073  158.5059 C   0  0  0  0  0  0  0  0  0  0  0  0
  152.7160  141.9984  159.6675 C   0  0  0  0  0  0  0  0  0  0  0  0
  153.7377  141.5716  160.7077 C   0  0  0  0  0  0  0  0  0  0  0  0
  151.4069  144.8463  161.1320 H   0  0  0  0  0  0  0  0  0  0  0  0
  153.1144  144.4129  161.1691 H   0  0  0  0  0  0  0  0  0  0  0  0
  151.9231  143.4099  162.0105 H   0  0  0  0  0  0  0  0  0  0  0  0
  150.3778  144.4565  159.0476 H   0  0  0  0  0  0  0  0  0  0  0  0
  149.7354  141.7194  154.8516 H   0  0  0  0  0  0  0  0  0  0  0  0
  152.5852  140.1832  155.0898 H   0  0  0  0  0  0  0  0  0  0  0  0
  152.3576  139.3585  156.6083 H   0  0  0  0  0  0  0  0  0  0  0  0
  151.3193  138.0092  154.8605 H   0  0  0  0  0  0  0  0  0  0  0  0
  150.2645  138.8651  153.2629 H   0  0  0  0  0  0  0  0  0  0  0  0
  149.2336  139.5739  156.4824 H   0  0  0  0  0  0  0  0  0  0  0  0
  148.7785  138.2855  155.3980 H   0  0  0  0  0  0  0  0  0  0  0  0
  147.9012  136.9361  157.2902 H   0  0  0  0  0  0  0  0  0  0  0  0
  148.8799  136.0624  156.1315 H   0  0  0  0  0  0  0  0  0  0  0  0
  148.5650  134.6897  158.1830 H   0  0  0  0  0  0  0  0  0  0  0  0
  150.2424  135.0473  157.8957 H   0  0  0  0  0  0  0  0  0  0  0  0
  147.7626  137.3650  159.6893 H   0  0  0  0  0  0  0  0  0  0  0  0
  147.3811  135.6768  159.8086 H   0  0  0  0  0  0  0  0  0  0  0  0
  149.0272  136.9240  162.0270 H   0  0  0  0  0  0  0  0  0  0  0  0
  148.5772  134.4426  162.1047 H   0  0  0  0  0  0  0  0  0  0  0  0
  146.8481  134.7530  161.9813 H   0  0  0  0  0  0  0  0  0  0  0  0
  147.7419  135.2781  163.4065 H   0  0  0  0  0  0  0  0  0  0  0  0
  146.2376  137.0575  161.7537 H   0  0  0  0  0  0  0  0  0  0  0  0
  150.5109  137.6099  160.4599 H   0  0  0  0  0  0  0  0  0  0  0  0
  151.3652  136.7547  159.2202 H   0  0  0  0  0  0  0  0  0  0  0  0
  150.8218  139.0052  158.4417 H   0  0  0  0  0  0  0  0  0  0  0  0
  149.1133  138.7738  158.7251 H   0  0  0  0  0  0  0  0  0  0  0  0
  153.1610  140.3182  158.3617 H   0  0  0  0  0  0  0  0  0  0  0  0
  154.2771  140.6771  160.3948 H   0  0  0  0  0  0  0  0  0  0  0  0
  153.2476  141.3504  161.6562 H   0  0  0  0  0  0  0  0  0  0  0  0
  154.4712  142.3615  160.8721 H   0  0  0  0  0  0  0  0  0  0  0  0
  150.7765  137.2413  156.8533 H   0  0  0  0  0  0  0  0  0  0  0  0
  149.3264  143.6404  156.5031 H   0  0  0  0  0  0  0  0  0  0  0  0
  1  2  1  0  0  0  0
  1 26  1  0  0  0  0
  1 27  1  0  0  0  0
  1 28  1  0  0  0  0
  2 24  1  0  0  0  0
  2  3  2  0  0  0  0
  3  4  1  0  0  0  0
  3 29  1  0  0  0  0
  4 22  2  0  0  0  0
  4  5  1  0  0  0  0
  5  6  2  0  0  0  0
  5 57  1  0  0  0  0
  6  7  1  0  0  0  0
  6 30  1  0  0  0  0
  7  8  1  0  0  0  0
  7 22  1  0  0  0  0
  8  9  1  0  0  0  0
  8 31  1  0  0  0  0
  8 32  1  0  0  0  0
  9 10  1  0  0  0  0
  9 11  1  0  0  0  0
  9 33  1  0  0  0  0
 10 34  1  0  0  0  0
 11 12  1  0  0  0  0
 11 35  1  0  0  0  0
 11 36  1  0  0  0  0
 12 21  1  0  0  0  0
 12 13  1  0  0  0  0
 12 56  1  0  0  0  0
 13 14  1  0  0  0  0
 13 37  1  0  0  0  0
 13 38  1  0  0  0  0
 14 15  1  0  0  0  0
 14 39  1  0  0  0  0
 14 40  1  0  0  0  0
 15 16  1  0  0  0  0
 15 20  1  0  0  0  0
 16 17  1  0  0  0  0
 16 41  1  0  0  0  0
 16 42  1  0  0  0  0
 17 18  1  0  0  0  0
 17 19  1  0  0  0  0
 17 43  1  0  0  0  0
 18 44  1  0  0  0  0
 18 45  1  0  0  0  0
 18 46  1  0  0  0  0
 19 47  1  0  0  0  0
 20 21  1  0  0  0  0
 20 48  1  0  0  0  0
 20 49  1  0  0  0  0
 21 50  1  0  0  0  0
 21 51  1  0  0  0  0
 22 23  1  0  0  0  0
 23 24  2  0  0  0  0
 23 52  1  0  0  0  0
 24 25  1  0  0  0  0
 25 53  1  0  0  0  0
 25 54  1  0  0  0  0
 25 55  1  0  0  0  0
M  CHG  1   5   1
M  CHG  1  12   1
M  END
> <s_m_source_file>
AV-unprocessed.smi

> <i_m_source_file_index>
1033

> <i_lp_mmshare_version>
43012

> <i_f3d_flags>
0

> <s_epik_input>
W0NIM11jKFtjSF0xKWMoW0NIM10pW2NIXWMoYzEyKW4oW2NIXW4yKVtDSDJdW0NASF0oW09IXSlbQ0gyXU4zW0NIMl1bQ0gyXU4oW0NIMl1bQ0gyXTMpW0NIMl1bQ0BIXShbQ0gzXSlbT0hd

> <s_epik_cmdline>
J2VwaWtfcHl0aG9uJywgJy1waCcsICc3LjAnLCAnLXRuJywgJzgnLCAnLW1hJywgJzIwMCcsICctbWV0YWxfYmluZGluZycsICctaW1hZScsICc8aW5maWxlLm1hZT4nLCAnLW9tYWUnLCAnPG91dGZpbGUubWFlPic=

> <r_epik_Ionization_Penalty>
1.22049

> <r_epik_Ionization_Penalty_Charging>
1.17952

> <r_epik_Ionization_Penalty_Neutral>
0.0409743

> <r_epik_State_Penalty>
1.61468

> <r_epik_Charging_Adjusted_Penalty>
2.7942

> <i_epik_Tot_Q>
2

> <i_epik_Tot_abs_Q>
2

> <r_epik_Metal_State_Penalty>
5.63169

> <b_epik_Metal_Only>
0

> <s_lp_Force_Field>
OPLS_2005

> <r_lp_Energy>
42.2447

> <b_lp_Chiralities_Consistent>
1

> <s_lp_Variant>
AV-unprocessed.smi:1033-9

> <Gold.Version>
5.8.1

> <Gold.Id.Protein>
6NUR|6NUR_protein|mol2

> <Gold.PLP.Fitness>
58.1234

> <Gold.PLP.PLP>
-49.8358

> <Gold.PLP.part.hbond>
-5.6723

> <Gold.PLP.part.metal>
0.0000

> <Gold.PLP.part.buried>
-4.6684

> <Gold.PLP.part.nonpolar>
-39.6364

> <Gold.PLP.part.repulsive>
0.0369

> <Gold.PLP.ligand.clash>
0.0000

> <Gold.PLP.ligand.torsion>
1.6718

> <Gold.PLP.Chemscore.Hbond>
3.8320

> <Gold.PLP.Chemscore.CHOScore>
0.0000

> <Gold.PLP.Chemscore.Metal>
0.0000

> <Gold.Chemscore.Hbonds>
donor molecule, donor type, donor heavy atom, donor atom, acceptor molecule, acceptor atom, score
      L1  H     5    57       P1  8028  1.47
      P1  H  6934  6947       L1    19  0.74
      P1  H  7989  7998       L1    10  1.00

> <Gold.PLP.Chemscore.Internal.Correction>
0.1351

> <Gold.Rescore>
     Score         DG    S(hbond)    S(metal)    S(lipo)     H(rot)  DE(clash)    DE(int)     intcor
     17.48     -20.17       2.25        0.00     130.13       3.15       0.15       2.54       ----

> <Gold.Chemscore.Fitness>
17.4788

> <Gold.Chemscore.DG>
-20.1678

> <Gold.Chemscore.ZeroCoef>
-5.4800

> <Gold.Chemscore.Hbond>
2.2522

> <Gold.Chemscore.Metal>
0.0000

> <Gold.Chemscore.Lipo>
130.1290

> <Gold.Chemscore.Internal_Hbond>
0.0000

> <Gold.Chemscore.DEClash>
0.1473

> <Gold.Chemscore.DEInternal>
2.5418

> <Gold.Chemscore.Rot>
3.1483

> <Gold.Chemscore.Internal.Correction>
   9.000000E+99

> <Gold.Chemscore.Hbonds>
donor molecule, donor type, donor heavy atom, donor atom, acceptor molecule, acceptor atom, score
      L1  H     5    57       P1  8028  0.69
      P1  H  6934  6947       L1    19  0.23
      P1  H  7989  7998       L1    10  0.50

> <Gold.Chemscore.Hbond.Weighted>
-7.5225

> <Gold.Chemscore.Metal.Weighted>
-0.0000

> <Gold.Chemscore.Lipo.Weighted>
-15.2251

> <Gold.Chemscore.Internal_Hbond.Weighted>
0.0000

> <Gold.Chemscore.DEClash.Weighted>
0.1473

> <Gold.Chemscore.DEInternal.Weighted>
2.5418

> <Gold.Chemscore.Rot.Weighted>
8.0597

> <Gold.Chemscore.Internal.Correction.Weighted>
   9.000000E+99

> <Gold.Protein.RotatedTorsions>
[ 6907 6896 6895 6894 ] final  109.41 input  -60.11 | X-H torsion
[ 7974 7965 7964 7962 ] final    6.80 input  175.53 | X-H torsion
[ 8008 7997 7996 7995 ] final  175.97 input   59.86 | X-H torsion
[ 10167 10162 10161 10158 ] final    0.46 input  -65.29 | X-H torsion
[ 10718 10713 10712 10709 ] final  111.40 input   66.30 | X-H torsion
[ 10763 10752 10751 10750 ] final  -77.13 input  -60.55 | X-H torsion
[ 11005 11000 10999 10996 ] final  -53.66 input  -57.11 | X-H torsion

> <Gold.Protein.ActiveResidues>
 VAL166  LYS551  ARG553  GLY616  TRP617  ASP618  TYR619  PRO620  LYS621  CYS622 
 ASP623  PHE694  ASN695  SER759  ASP760  ASP761  ALA762  ILE779  LEU786  VAL792 
 PHE793  MET794  SER795  GLU796  ALA797  LYS798  CYS799  TRP800  GLU811  SER814 

> <Gold.Protein.RotatedAtoms>
  152.5068  133.8948  159.7411 H   0  0  0  0  0  0  0  0  0  0  0  0  # atno 6907 bound_to 6896
  150.9378  133.6683  159.2804 H   0  0  0  0  0  0  0  0  0  0  0  0  # atno 6908 bound_to 6896
  151.4005  135.0975  159.9607 H   0  0  0  0  0  0  0  0  0  0  0  0  # atno 6909 bound_to 6896
  146.2432  140.0179  142.8400 H   0  0  0  0  0  0  0  0  0  0  0  0  # atno 7974 bound_to 7965
  156.0814  140.1395  156.9707 H   0  0  0  0  0  0  0  0  0  0  0  0  # atno 8008 bound_to 7997
  154.4587  140.0951  156.6881 H   0  0  0  0  0  0  0  0  0  0  0  0  # atno 8009 bound_to 7997
  155.5069  140.3452  155.4383 H   0  0  0  0  0  0  0  0  0  0  0  0  # atno 8010 bound_to 7997
  140.6728  143.7002  150.7958 H   0  0  0  0  0  0  0  0  0  0  0  0  # atno 10167 bound_to 10162
  157.6446  131.0950  150.6743 H   0  0  0  0  0  0  0  0  0  0  0  0  # atno 10718 bound_to 10713
  154.5090  135.5774  153.6590 H   0  0  0  0  0  0  0  0  0  0  0  0  # atno 10763 bound_to 10752
  152.9893  135.6154  154.2904 H   0  0  0  0  0  0  0  0  0  0  0  0  # atno 10764 bound_to 10752
  154.2817  135.2851  155.2673 H   0  0  0  0  0  0  0  0  0  0  0  0  # atno 10765 bound_to 10752
  141.0987  133.6621  156.4205 H   0  0  0  0  0  0  0  0  0  0  0  0  # atno 11005 bound_to 11000
  145.1268  140.9495  143.4568 LP  0  0  0  0  0  0  0  0  0  0  0  0  # atno 17320 bound_to 7965
  145.0427  139.3247  143.5968 LP  0  0  0  0  0  0  0  0  0  0  0  0  # atno 17321 bound_to 7965
  140.0690  143.5080  152.2589 LP  0  0  0  0  0  0  0  0  0  0  0  0  # atno 17342 bound_to 10162
  139.6004  144.7581  151.3185 LP  0  0  0  0  0  0  0  0  0  0  0  0  # atno 17343 bound_to 10162
  156.7062  130.4638  149.5559 LP  0  0  0  0  0  0  0  0  0  0  0  0  # atno 17370 bound_to 10713
  156.1761  130.6469  151.0896 LP  0  0  0  0  0  0  0  0  0  0  0  0  # atno 17371 bound_to 10713
  140.5076  134.6426  157.5272 LP  0  0  0  0  0  0  0  0  0  0  0  0  # atno 17394 bound_to 11000
  139.9832  134.7104  155.9822 LP  0  0  0  0  0  0  0  0  0  0  0  0  # atno 17395 bound_to 11000

$$$$
