AV-unprocessed.smi:1499|AV-procd|sdf|6061|dock10
  -GOLD-   22720 6183D 1   1.00000     0.00000
 Structure written by MMmdl.
 41 42  0  0  0  0  0  0  0  0  2 V2000
  145.3957  132.0826  150.4240 C   0  0  0  0  0  0  0  0  0  0  0  0
  144.0311  132.6011  149.9477 C   0  0  0  0  0  0  0  0  0  0  0  0
  143.6187  133.8483  150.6398 N   0  3  0  0  0  0  0  0  0  0  0  0
  144.5476  134.9770  150.3592 C   0  0  0  0  0  0  0  0  0  0  0  0
  144.1086  136.2671  151.0780 C   0  0  0  0  0  0  0  0  0  0  0  0
  143.9872  135.9940  152.5173 N   0  0  0  0  0  0  0  0  0  0  0  0
  144.8824  136.3561  153.4701 C   0  0  0  0  0  0  0  0  0  0  0  0
  144.7801  136.0016  154.6448 O   0  0  0  0  0  0  0  0  0  0  0  0
  145.8319  137.2069  153.0364 N   0  0  0  0  0  0  0  0  0  0  0  0
  146.9323  137.7229  153.7668 C   0  0  0  0  0  0  0  0  0  0  0  0
  147.3667  137.2344  155.0264 C   0  0  0  0  0  0  0  0  0  0  0  0
  148.4103  137.9171  155.4715 N   0  0  0  0  0  0  0  0  0  0  0  0
  148.6584  138.8460  154.5139 N   0  0  0  0  0  0  0  0  0  0  0  0
  149.7529  139.7844  154.6873 C   0  0  0  0  0  0  0  0  0  0  0  0
  149.2548  141.2297  154.6344 C   0  0  0  0  0  0  0  0  0  0  0  0
  149.4977  141.9974  155.7001 N   0  0  0  0  0  0  0  0  0  0  0  0
  148.6592  141.6477  153.6439 O   0  0  0  0  0  0  0  0  0  0  0  0
  147.7739  138.7540  153.4569 C   0  0  0  0  0  0  0  0  0  0  0  0
  142.9552  134.9841  152.7682 C   0  0  0  0  0  0  0  0  0  0  0  0
  143.3649  133.6610  152.0956 C   0  0  0  0  0  0  0  0  0  0  0  0
  145.6177  131.1166  149.9696 H   0  0  0  0  0  0  0  0  0  0  0  0
  145.4116  131.9492  151.5058 H   0  0  0  0  0  0  0  0  0  0  0  0
  146.2077  132.7574  150.1540 H   0  0  0  0  0  0  0  0  0  0  0  0
  144.0339  132.7559  148.8676 H   0  0  0  0  0  0  0  0  0  0  0  0
  143.2918  131.8237  150.1463 H   0  0  0  0  0  0  0  0  0  0  0  0
  145.5550  134.7025  150.6770 H   0  0  0  0  0  0  0  0  0  0  0  0
  144.5920  135.1560  149.2844 H   0  0  0  0  0  0  0  0  0  0  0  0
  144.8043  137.0710  150.8380 H   0  0  0  0  0  0  0  0  0  0  0  0
  143.1410  136.5959  150.6955 H   0  0  0  0  0  0  0  0  0  0  0  0
  145.7767  137.4909  152.0692 H   0  0  0  0  0  0  0  0  0  0  0  0
  146.9677  136.4258  155.6212 H   0  0  0  0  0  0  0  0  0  0  0  0
  150.2554  139.5939  155.6372 H   0  0  0  0  0  0  0  0  0  0  0  0
  150.4860  139.6145  153.8976 H   0  0  0  0  0  0  0  0  0  0  0  0
  149.1936  142.9604  155.7065 H   0  0  0  0  0  0  0  0  0  0  0  0
  149.9913  141.6135  156.4928 H   0  0  0  0  0  0  0  0  0  0  0  0
  147.8261  139.4208  152.6089 H   0  0  0  0  0  0  0  0  0  0  0  0
  142.7741  134.8255  153.8325 H   0  0  0  0  0  0  0  0  0  0  0  0
  142.0059  135.3331  152.3593 H   0  0  0  0  0  0  0  0  0  0  0  0
  142.5755  132.9260  152.2498 H   0  0  0  0  0  0  0  0  0  0  0  0
  144.2636  133.2671  152.5734 H   0  0  0  0  0  0  0  0  0  0  0  0
  142.7352  134.1196  150.2325 H   0  0  0  0  0  0  0  0  0  0  0  0
  1  2  1  0  0  0  0
  1 21  1  0  0  0  0
  1 22  1  0  0  0  0
  1 23  1  0  0  0  0
  2  3  1  0  0  0  0
  2 24  1  0  0  0  0
  2 25  1  0  0  0  0
  3 20  1  0  0  0  0
  3  4  1  0  0  0  0
  3 41  1  0  0  0  0
  4  5  1  0  0  0  0
  4 26  1  0  0  0  0
  4 27  1  0  0  0  0
  5  6  1  0  0  0  0
  5 28  1  0  0  0  0
  5 29  1  0  0  0  0
  6  7  1  0  0  0  0
  6 19  1  0  0  0  0
  7  8  2  0  0  0  0
  7  9  1  0  0  0  0
  9 10  1  0  0  0  0
  9 30  1  0  0  0  0
 10 18  2  0  0  0  0
 10 11  1  0  0  0  0
 11 12  2  0  0  0  0
 11 31  1  0  0  0  0
 12 13  1  0  0  0  0
 13 14  1  0  0  0  0
 13 18  1  0  0  0  0
 14 15  1  0  0  0  0
 14 32  1  0  0  0  0
 14 33  1  0  0  0  0
 15 16  1  0  0  0  0
 15 17  2  0  0  0  0
 16 34  1  0  0  0  0
 16 35  1  0  0  0  0
 18 36  1  0  0  0  0
 19 20  1  0  0  0  0
 19 37  1  0  0  0  0
 19 38  1  0  0  0  0
 20 39  1  0  0  0  0
 20 40  1  0  0  0  0
M  CHG  1   3   1
M  END
> <s_m_source_file>
AV-unprocessed.smi

> <i_m_source_file_index>
1499

> <i_lp_mmshare_version>
43012

> <i_f3d_flags>
0

> <s_epik_input>
W0NIM11bQ0gyXU4xW0NIMl1bQ0gyXU4oW0NIMl1bQ0gyXTEpQyg9TylbTkhdYzJbY0hdbm4oW2NIXTIpW0NIMl1DKD1PKVtOSDJd

> <s_epik_cmdline>
J2VwaWtfcHl0aG9uJywgJy1waCcsICc3LjAnLCAnLXRuJywgJzgnLCAnLW1hJywgJzIwMCcsICctbWV0YWxfYmluZGluZycsICctaW1hZScsICc8aW5maWxlLm1hZT4nLCAnLW9tYWUnLCAnPG91dGZpbGUubWFlPic=

> <r_lp_tautomer_probability>
1

> <r_epik_Ionization_Penalty>
0.390351

> <r_epik_Ionization_Penalty_Charging>
0.390326

> <r_epik_Ionization_Penalty_Neutral>
2.46507e-05

> <r_epik_State_Penalty>
0.388987

> <r_epik_Charging_Adjusted_Penalty>
0.779313

> <i_epik_Tot_Q>
1

> <i_epik_Tot_abs_Q>
1

> <r_epik_Metal_State_Penalty>
0.388988

> <b_epik_Metal_Only>
0

> <s_lp_Force_Field>
OPLS_2005

> <r_lp_Energy>
52.2824

> <b_lp_Chiralities_Consistent>
1

> <s_lp_Variant>
AV-unprocessed.smi:1499-1

> <Gold.Version>
5.8.1

> <Gold.Id.Protein>
6NUR|6NUR_protein|mol2

> <Gold.PLP.Fitness>
40.6278

> <Gold.PLP.PLP>
-26.9418

> <Gold.PLP.part.hbond>
-3.0000

> <Gold.PLP.part.metal>
0.0000

> <Gold.PLP.part.buried>
0.0026

> <Gold.PLP.part.nonpolar>
-24.1447

> <Gold.PLP.part.repulsive>
0.3681

> <Gold.PLP.ligand.clash>
0.0000

> <Gold.PLP.ligand.torsion>
0.0889

> <Gold.PLP.Chemscore.Hbond>
3.5920

> <Gold.PLP.Chemscore.CHOScore>
0.9974

> <Gold.PLP.Chemscore.Metal>
0.0000

> <Gold.Chemscore.Hbonds>
donor molecule, donor type, donor heavy atom, donor atom, acceptor molecule, acceptor atom, score
      L1  H     3    41       P1 10186  2.00
      L1  H    16    34       P1  8028  1.00
      P1  H  8011  8017       L1    17  0.66
      L1  C    18    36       P1  7957  1.00

> <Gold.PLP.Chemscore.Internal.Correction>
0.0958

> <Gold.Rescore>
     Score         DG    S(hbond)    S(metal)    S(lipo)     H(rot)  DE(clash)    DE(int)     intcor
     13.23     -16.62       2.60        0.00      61.50       1.85       1.88       1.51       ----

> <Gold.Chemscore.Fitness>
13.2263

> <Gold.Chemscore.DG>
-16.6230

> <Gold.Chemscore.ZeroCoef>
-5.4800

> <Gold.Chemscore.Hbond>
2.6023

> <Gold.Chemscore.Metal>
0.0000

> <Gold.Chemscore.Lipo>
61.4993

> <Gold.Chemscore.Internal_Hbond>
0.0000

> <Gold.Chemscore.DEClash>
1.8823

> <Gold.Chemscore.DEInternal>
1.5145

> <Gold.Chemscore.Rot>
1.8532

> <Gold.Chemscore.Internal.Correction>
   9.000000E+99

> <Gold.Chemscore.Hbonds>
donor molecule, donor type, donor heavy atom, donor atom, acceptor molecule, acceptor atom, score
      L1  H     3    41       P1 10186  0.94
      L1  H    16    34       P1  8028  1.00
      P1  H  8011  8017       L1    17  0.58

> <Gold.Chemscore.Hbond.Weighted>
-8.6917

> <Gold.Chemscore.Metal.Weighted>
-0.0000

> <Gold.Chemscore.Lipo.Weighted>
-7.1954

> <Gold.Chemscore.Internal_Hbond.Weighted>
0.0000

> <Gold.Chemscore.DEClash.Weighted>
1.8823

> <Gold.Chemscore.DEInternal.Weighted>
1.5145

> <Gold.Chemscore.Rot.Weighted>
4.7441

> <Gold.Chemscore.Internal.Correction.Weighted>
   9.000000E+99

> <Gold.Protein.RotatedTorsions>
[ 6907 6896 6895 6894 ] final   -8.21 input  -60.11 | X-H torsion
[ 7974 7965 7964 7962 ] final   67.51 input  175.53 | X-H torsion
[ 8008 7997 7996 7995 ] final  -78.24 input   59.86 | X-H torsion
[ 10167 10162 10161 10158 ] final   59.57 input  -65.29 | X-H torsion
[ 10718 10713 10712 10709 ] final -117.52 input   66.30 | X-H torsion
[ 10763 10752 10751 10750 ] final -158.39 input  -60.55 | X-H torsion
[ 11005 11000 10999 10996 ] final  137.33 input  -57.11 | X-H torsion

> <Gold.Protein.ActiveResidues>
 VAL166  LYS551  ARG553  GLY616  TRP617  ASP618  TYR619  PRO620  LYS621  CYS622 
 ASP623  PHE694  ASN695  SER759  ASP760  ASP761  ALA762  ILE779  LEU786  VAL792 
 PHE793  MET794  SER795  GLU796  ALA797  LYS798  CYS799  TRP800  GLU811  SER814 

> <Gold.Protein.RotatedAtoms>
  151.4373  135.1016  159.9659 H   0  0  0  0  0  0  0  0  0  0  0  0  # atno 6907 bound_to 6896
  152.4935  133.8562  159.7237 H   0  0  0  0  0  0  0  0  0  0  0  0  # atno 6908 bound_to 6896
  150.9113  133.6936  159.2882 H   0  0  0  0  0  0  0  0  0  0  0  0  # atno 6909 bound_to 6896
  145.8138  139.3047  143.1083 H   0  0  0  0  0  0  0  0  0  0  0  0  # atno 7974 bound_to 7965
  154.5671  140.0697  156.8907 H   0  0  0  0  0  0  0  0  0  0  0  0  # atno 8008 bound_to 7997
  155.2704  140.3365  155.4247 H   0  0  0  0  0  0  0  0  0  0  0  0  # atno 8009 bound_to 7997
  156.2089  140.1751  156.7725 H   0  0  0  0  0  0  0  0  0  0  0  0  # atno 8010 bound_to 7997
  140.1749  144.4239  150.6643 H   0  0  0  0  0  0  0  0  0  0  0  0  # atno 10167 bound_to 10162
  156.1040  130.6195  150.9175 H   0  0  0  0  0  0  0  0  0  0  0  0  # atno 10718 bound_to 10713
  154.7560  135.3105  154.8468 H   0  0  0  0  0  0  0  0  0  0  0  0  # atno 10763 bound_to 10752
  153.9242  135.6792  153.4751 H   0  0  0  0  0  0  0  0  0  0  0  0  # atno 10764 bound_to 10752
  153.1158  135.4845  154.9042 H   0  0  0  0  0  0  0  0  0  0  0  0  # atno 10765 bound_to 10752
  140.0107  134.9440  157.0270 H   0  0  0  0  0  0  0  0  0  0  0  0  # atno 11005 bound_to 11000
  145.9749  140.8730  143.0144 LP  0  0  0  0  0  0  0  0  0  0  0  0  # atno 17320 bound_to 7965
  144.6754  140.1997  143.7388 LP  0  0  0  0  0  0  0  0  0  0  0  0  # atno 17321 bound_to 7965
  140.6558  143.2237  151.5973 LP  0  0  0  0  0  0  0  0  0  0  0  0  # atno 17342 bound_to 10162
  139.5321  144.2885  152.1171 LP  0  0  0  0  0  0  0  0  0  0  0  0  # atno 17343 bound_to 10162
  157.6214  131.0929  150.8615 LP  0  0  0  0  0  0  0  0  0  0  0  0  # atno 17370 bound_to 10713
  156.8737  130.5155  149.5295 LP  0  0  0  0  0  0  0  0  0  0  0  0  # atno 17371 bound_to 10713
  140.4560  134.1533  155.7186 LP  0  0  0  0  0  0  0  0  0  0  0  0  # atno 17394 bound_to 11000
  141.1708  133.8611  157.1575 LP  0  0  0  0  0  0  0  0  0  0  0  0  # atno 17395 bound_to 11000

$$$$
