AV-unprocessed.smi:671|AV-procd|sdf|3274|dock9
  -GOLD-   22720 0233D 1   1.00000     0.00000
 Structure written by MMmdl.
 49 50  0  0  0  0  0  0  0  0  1 V2000
  145.8361  141.0368  156.3692 C   0  0  0  0  0  0  0  0  0  0  0  0
  145.4434  142.1768  155.4735 C   0  0  0  0  0  0  0  0  0  0  0  0
  144.4329  142.9564  155.8208 N   0  0  0  0  0  0  0  0  0  0  0  0
  144.3288  143.8523  154.8189 N   0  0  0  0  0  0  0  0  0  0  0  0
  143.2946  144.8669  154.8767 C   0  0  0  0  0  0  0  0  0  0  0  0
  145.2815  143.6437  153.8408 C   0  0  0  0  0  0  0  0  0  0  0  0
  145.3751  144.5020  152.6207 C   0  0  0  0  0  0  0  0  0  0  0  0
  146.0240  142.5611  154.2293 C   0  0  0  0  0  0  0  0  0  0  0  0
  147.1762  141.9047  153.5088 C   0  0  0  0  0  0  0  0  0  0  0  0
  148.1412  141.1887  154.4740 C   0  0  1  0  0  0  0  0  0  0  0  0
  149.2590  140.4483  153.7244 C   0  0  0  0  0  0  0  0  0  0  0  0
  148.7177  142.1501  155.4201 N   0  0  0  0  0  0  0  0  0  0  0  0
  149.3921  141.9068  156.5579 C   0  0  0  0  0  0  0  0  0  0  0  0
  149.5986  140.7624  156.9570 O   0  0  0  0  0  0  0  0  0  0  0  0
  149.7986  143.0047  157.2158 N   0  0  0  0  0  0  0  0  0  0  0  0
  150.5707  143.0083  158.4540 C   0  0  2  0  0  0  0  0  0  0  0  0
  150.7261  144.4327  159.0272 C   0  0  0  0  0  0  0  0  0  0  0  0
  152.2214  144.7544  158.9825 C   0  0  0  0  0  0  0  0  0  0  0  0
  152.9058  143.3928  159.0419 C   0  0  0  0  0  0  0  0  0  0  0  0
  152.0007  142.4883  158.2024 C   0  0  1  0  0  0  0  0  0  0  0  0
  152.1781  140.9923  158.4942 C   0  0  0  0  0  0  0  0  0  0  0  0
  145.9334  140.1110  155.8016 H   0  0  0  0  0  0  0  0  0  0  0  0
  145.0972  140.8647  157.1529 H   0  0  0  0  0  0  0  0  0  0  0  0
  146.7934  141.2331  156.8521 H   0  0  0  0  0  0  0  0  0  0  0  0
  142.7186  144.8566  153.9509 H   0  0  0  0  0  0  0  0  0  0  0  0
  143.7517  145.8485  155.0023 H   0  0  0  0  0  0  0  0  0  0  0  0
  142.6190  144.6818  155.7132 H   0  0  0  0  0  0  0  0  0  0  0  0
  146.3226  144.3502  152.1039 H   0  0  0  0  0  0  0  0  0  0  0  0
  145.3050  145.5590  152.8784 H   0  0  0  0  0  0  0  0  0  0  0  0
  144.5711  144.2678  151.9228 H   0  0  0  0  0  0  0  0  0  0  0  0
  146.8058  141.1867  152.7765 H   0  0  0  0  0  0  0  0  0  0  0  0
  147.7328  142.6429  152.9302 H   0  0  0  0  0  0  0  0  0  0  0  0
  147.5495  140.4495  155.0158 H   0  0  0  0  0  0  0  0  0  0  0  0
  148.8461  139.7230  153.0230 H   0  0  0  0  0  0  0  0  0  0  0  0
  149.9045  139.9054  154.4154 H   0  0  0  0  0  0  0  0  0  0  0  0
  149.8841  141.1401  153.1586 H   0  0  0  0  0  0  0  0  0  0  0  0
  148.5362  143.1216  155.2127 H   0  0  0  0  0  0  0  0  0  0  0  0
  149.5730  143.9045  156.8182 H   0  0  0  0  0  0  0  0  0  0  0  0
  150.0745  142.3802  159.1969 H   0  0  0  0  0  0  0  0  0  0  0  0
  150.1418  145.1816  158.4904 H   0  0  0  0  0  0  0  0  0  0  0  0
  150.3810  144.4424  160.0618 H   0  0  0  0  0  0  0  0  0  0  0  0
  152.4633  145.2441  158.0384 H   0  0  0  0  0  0  0  0  0  0  0  0
  152.5328  145.4166  159.7907 H   0  0  0  0  0  0  0  0  0  0  0  0
  153.9299  143.4235  158.6692 H   0  0  0  0  0  0  0  0  0  0  0  0
  152.9357  143.0436  160.0750 H   0  0  0  0  0  0  0  0  0  0  0  0
  152.2608  142.6636  157.1565 H   0  0  0  0  0  0  0  0  0  0  0  0
  151.9410  140.7586  159.5325 H   0  0  0  0  0  0  0  0  0  0  0  0
  153.2048  140.6775  158.3067 H   0  0  0  0  0  0  0  0  0  0  0  0
  151.5255  140.3917  157.8598 H   0  0  0  0  0  0  0  0  0  0  0  0
  1  2  1  0  0  0  0
  1 22  1  0  0  0  0
  1 23  1  0  0  0  0
  1 24  1  0  0  0  0
  2  8  1  0  0  0  0
  2  3  2  0  0  0  0
  3  4  1  0  0  0  0
  4  5  1  0  0  0  0
  4  6  1  0  0  0  0
  5 25  1  0  0  0  0
  5 26  1  0  0  0  0
  5 27  1  0  0  0  0
  6  7  1  0  0  0  0
  6  8  2  0  0  0  0
  7 28  1  0  0  0  0
  7 29  1  0  0  0  0
  7 30  1  0  0  0  0
  8  9  1  0  0  0  0
  9 10  1  0  0  0  0
  9 31  1  0  0  0  0
  9 32  1  0  0  0  0
 10 11  1  0  0  0  0
 10 12  1  0  0  0  0
 10 33  1  0  0  0  0
 11 34  1  0  0  0  0
 11 35  1  0  0  0  0
 11 36  1  0  0  0  0
 12 13  1  0  0  0  0
 12 37  1  0  0  0  0
 13 14  2  0  0  0  0
 13 15  1  0  0  0  0
 15 16  1  0  0  0  0
 15 38  1  0  0  0  0
 16 20  1  0  0  0  0
 16 17  1  0  0  0  0
 16 39  1  0  0  0  0
 17 18  1  0  0  0  0
 17 40  1  0  0  0  0
 17 41  1  0  0  0  0
 18 19  1  0  0  0  0
 18 42  1  0  0  0  0
 18 43  1  0  0  0  0
 19 20  1  0  0  0  0
 19 44  1  0  0  0  0
 19 45  1  0  0  0  0
 20 21  1  0  0  0  0
 20 46  1  0  0  0  0
 21 47  1  0  0  0  0
 21 48  1  0  0  0  0
 21 49  1  0  0  0  0
M  END
> <s_m_source_file>
AV-unprocessed.smi

> <i_m_source_file_index>
671

> <i_lp_mmshare_version>
43012

> <i_f3d_flags>
0

> <s_epik_input>
W0NIM11jMW5uKFtDSDNdKWMoW0NIM10pYzFbQ0gyXVtDQEhdKFtDSDNdKVtOSF1DKD1PKVtOSF1bQ0BASF0yW0NIMl1bQ0gyXVtDSDJdW0NASF0yW0NIM10=

> <s_epik_cmdline>
J2VwaWtfcHl0aG9uJywgJy1waCcsICc3LjAnLCAnLXRuJywgJzgnLCAnLW1hJywgJzIwMCcsICctbWV0YWxfYmluZGluZycsICctaW1hZScsICc8aW5maWxlLm1hZT4nLCAnLW9tYWUnLCAnPG91dGZpbGUubWFlPic=

> <r_lp_tautomer_probability>
1

> <r_epik_Ionization_Penalty>
0.0126855

> <r_epik_Ionization_Penalty_Charging>
0

> <r_epik_Ionization_Penalty_Neutral>
0.0126855

> <r_epik_State_Penalty>
0.00977547

> <r_epik_Charging_Adjusted_Penalty>
0.00977547

> <i_epik_Tot_Q>
0

> <i_epik_Tot_abs_Q>
0

> <r_epik_Metal_State_Penalty>
0.00957132

> <b_epik_Metal_Only>
0

> <s_lp_Force_Field>
OPLS_2005

> <r_lp_Energy>
23.179

> <b_lp_Chiralities_Consistent>
1

> <s_lp_Variant>
AV-unprocessed.smi:671-2

> <Gold.Version>
5.8.1

> <Gold.Id.Protein>
6NUR|6NUR_protein|mol2

> <Gold.PLP.Fitness>
47.5902

> <Gold.PLP.PLP>
-43.2494

> <Gold.PLP.part.hbond>
-1.8773

> <Gold.PLP.part.metal>
0.0000

> <Gold.PLP.part.buried>
-4.3152

> <Gold.PLP.part.nonpolar>
-36.6812

> <Gold.PLP.part.repulsive>
0.2369

> <Gold.PLP.ligand.clash>
0.3964

> <Gold.PLP.ligand.torsion>
0.5524

> <Gold.PLP.Chemscore.Hbond>
1.9360

> <Gold.PLP.Chemscore.CHOScore>
0.0000

> <Gold.PLP.Chemscore.Metal>
0.0000

> <Gold.Chemscore.Hbonds>
donor molecule, donor type, donor heavy atom, donor atom, acceptor molecule, acceptor atom, score
      L1  H    12    37       P1  8028  0.93
      L1  H    15    38       P1  8028  0.99

> <Gold.PLP.Chemscore.Internal.Correction>
0.0341

> <Gold.Rescore>
     Score         DG    S(hbond)    S(metal)    S(lipo)     H(rot)  DE(clash)    DE(int)     intcor
     19.45     -20.68       1.80        0.00     110.26       1.45       0.02       1.21       ----

> <Gold.Chemscore.Fitness>
19.4474

> <Gold.Chemscore.DG>
-20.6836

> <Gold.Chemscore.ZeroCoef>
-5.4800

> <Gold.Chemscore.Hbond>
1.8008

> <Gold.Chemscore.Metal>
0.0000

> <Gold.Chemscore.Lipo>
110.2634

> <Gold.Chemscore.Internal_Hbond>
0.0000

> <Gold.Chemscore.DEClash>
0.0221

> <Gold.Chemscore.DEInternal>
1.2140

> <Gold.Chemscore.Rot>
1.4499

> <Gold.Chemscore.Internal.Correction>
   9.000000E+99

> <Gold.Chemscore.Hbonds>
donor molecule, donor type, donor heavy atom, donor atom, acceptor molecule, acceptor atom, score
      L1  H    12    37       P1  8028  0.89
      L1  H    15    38       P1  8028  0.84

> <Gold.Chemscore.Hbond.Weighted>
-6.0146

> <Gold.Chemscore.Metal.Weighted>
-0.0000

> <Gold.Chemscore.Lipo.Weighted>
-12.9008

> <Gold.Chemscore.Internal_Hbond.Weighted>
0.0000

> <Gold.Chemscore.DEClash.Weighted>
0.0221

> <Gold.Chemscore.DEInternal.Weighted>
1.2140

> <Gold.Chemscore.Rot.Weighted>
3.7118

> <Gold.Chemscore.Internal.Correction.Weighted>
   9.000000E+99

> <Gold.Protein.RotatedTorsions>
[ 6907 6896 6895 6894 ] final  -98.15 input  -60.11 | X-H torsion
[ 7974 7965 7964 7962 ] final  148.21 input  175.53 | X-H torsion
[ 8008 7997 7996 7995 ] final   70.57 input   59.86 | X-H torsion
[ 10167 10162 10161 10158 ] final  136.77 input  -65.29 | X-H torsion
[ 10718 10713 10712 10709 ] final -150.91 input   66.30 | X-H torsion
[ 10763 10752 10751 10750 ] final  -98.83 input  -60.55 | X-H torsion
[ 11005 11000 10999 10996 ] final  -35.57 input  -57.11 | X-H torsion

> <Gold.Protein.ActiveResidues>
 VAL166  LYS551  ARG553  GLY616  TRP617  ASP618  TYR619  PRO620  LYS621  CYS622 
 ASP623  PHE694  ASN695  SER759  ASP760  ASP761  ALA762  ILE779  LEU786  VAL792 
 PHE793  MET794  SER795  GLU796  ALA797  LYS798  CYS799  TRP800  GLU811  SER814 

> <Gold.Protein.RotatedAtoms>
  150.7038  134.1238  159.4044 H   0  0  0  0  0  0  0  0  0  0  0  0  # atno 6907 bound_to 6896
  151.9225  135.0290  160.0532 H   0  0  0  0  0  0  0  0  0  0  0  0  # atno 6908 bound_to 6896
  152.2244  133.4974  159.5217 H   0  0  0  0  0  0  0  0  0  0  0  0  # atno 6909 bound_to 6896
  144.8531  139.6125  143.5964 H   0  0  0  0  0  0  0  0  0  0  0  0  # atno 7974 bound_to 7965
  155.7409  140.3490  155.5103 H   0  0  0  0  0  0  0  0  0  0  0  0  # atno 8008 bound_to 7997
  155.9095  140.1048  157.1311 H   0  0  0  0  0  0  0  0  0  0  0  0  # atno 8009 bound_to 7997
  154.4054  140.1270  156.4526 H   0  0  0  0  0  0  0  0  0  0  0  0  # atno 8010 bound_to 7997
  139.5168  144.6446  151.5475 H   0  0  0  0  0  0  0  0  0  0  0  0  # atno 10167 bound_to 10162
  156.4523  130.8174  151.2405 H   0  0  0  0  0  0  0  0  0  0  0  0  # atno 10718 bound_to 10713
  154.7447  135.4995  153.9183 H   0  0  0  0  0  0  0  0  0  0  0  0  # atno 10763 bound_to 10752
  153.1079  135.6702  153.9561 H   0  0  0  0  0  0  0  0  0  0  0  0  # atno 10764 bound_to 10752
  153.9328  135.3076  155.3424 H   0  0  0  0  0  0  0  0  0  0  0  0  # atno 10765 bound_to 10752
  140.9806  133.7058  156.1678 H   0  0  0  0  0  0  0  0  0  0  0  0  # atno 11005 bound_to 11000
  146.2801  139.6855  142.9235 LP  0  0  0  0  0  0  0  0  0  0  0  0  # atno 17320 bound_to 7965
  145.4460  141.0425  143.2831 LP  0  0  0  0  0  0  0  0  0  0  0  0  # atno 17321 bound_to 7965
  140.6226  143.9229  150.6538 LP  0  0  0  0  0  0  0  0  0  0  0  0  # atno 17342 bound_to 10162
  140.2508  143.3595  152.1407 LP  0  0  0  0  0  0  0  0  0  0  0  0  # atno 17343 bound_to 10162
  157.7502  131.0134  150.3422 LP  0  0  0  0  0  0  0  0  0  0  0  0  # atno 17370 bound_to 10713
  156.3803  130.3879  149.7107 LP  0  0  0  0  0  0  0  0  0  0  0  0  # atno 17371 bound_to 10713
  140.7192  134.4377  157.5576 LP  0  0  0  0  0  0  0  0  0  0  0  0  # atno 17394 bound_to 11000
  139.8949  134.8696  156.2157 LP  0  0  0  0  0  0  0  0  0  0  0  0  # atno 17395 bound_to 11000

$$$$
