AV-unprocessed.smi:1216|AV-procd|sdf|5101|dock9
  -GOLD-   22720 4153D 1   1.00000     0.00000
 Structure written by MMmdl.
 42 43  0  0  0  0  0  0  0  0  1 V2000
  153.2519  139.5166  159.6385 C   0  0  0  0  0  0  0  0  0  0  0  0
  152.5090  140.8548  159.5287 C   0  0  1  0  0  0  0  0  0  0  0  0
  153.3842  142.0256  160.0243 C   0  0  0  0  0  0  0  0  0  0  0  0
  152.7028  143.3053  159.9543 N   0  0  0  0  0  0  0  0  0  0  0  0
  152.4997  144.0865  158.8240 C   0  0  0  0  0  0  0  0  0  0  0  0
  151.8067  145.2018  159.2366 C   0  0  0  0  0  0  0  0  0  0  0  0
  151.5803  145.1322  160.6091 N   0  0  0  0  0  0  0  0  0  0  0  0
  152.1410  143.9835  160.9645 C   0  0  0  0  0  0  0  0  0  0  0  0
  152.1034  141.0602  158.1386 N   0  0  0  0  0  0  0  0  0  0  0  0
  150.9161  141.5349  157.7301 C   0  0  0  0  0  0  0  0  0  0  0  0
  150.0148  141.8598  158.5047 O   0  0  0  0  0  0  0  0  0  0  0  0
  150.7435  141.6840  156.2125 C   0  0  0  0  0  0  0  0  0  0  0  0
  149.6231  140.8972  155.6754 N   0  0  0  0  0  0  0  0  0  0  0  0
  148.2856  141.2080  156.2048 C   0  0  0  0  0  0  0  0  0  0  0  0
  147.3449  141.8741  155.1744 C   0  0  0  0  0  0  0  0  0  0  0  0
  147.5712  141.4902  153.6989 C   0  0  0  0  0  0  0  0  0  0  0  0
  147.6021  139.9737  153.4162 C   0  0  0  0  0  0  0  0  0  0  0  0
  148.5994  139.1349  154.2508 C   0  0  0  0  0  0  0  0  0  0  0  0
  149.8222  139.9163  154.7593 C   0  0  0  0  0  0  0  0  0  0  0  0
  150.9351  139.6237  154.3208 O   0  0  0  0  0  0  0  0  0  0  0  0
  153.5273  139.3050  160.6720 H   0  0  0  0  0  0  0  0  0  0  0  0
  154.1661  139.5183  159.0442 H   0  0  0  0  0  0  0  0  0  0  0  0
  152.6289  138.6921  159.2902 H   0  0  0  0  0  0  0  0  0  0  0  0
  151.6257  140.7829  160.1661 H   0  0  0  0  0  0  0  0  0  0  0  0
  153.6778  141.8613  161.0618 H   0  0  0  0  0  0  0  0  0  0  0  0
  154.3070  142.0867  159.4456 H   0  0  0  0  0  0  0  0  0  0  0  0
  152.8501  143.7898  157.8467 H   0  0  0  0  0  0  0  0  0  0  0  0
  151.4580  146.0434  158.6564 H   0  0  0  0  0  0  0  0  0  0  0  0
  152.1382  143.6236  161.9830 H   0  0  0  0  0  0  0  0  0  0  0  0
  152.7832  140.8253  157.4299 H   0  0  0  0  0  0  0  0  0  0  0  0
  150.5980  142.7408  155.9853 H   0  0  0  0  0  0  0  0  0  0  0  0
  151.6752  141.4087  155.7145 H   0  0  0  0  0  0  0  0  0  0  0  0
  147.8296  140.2941  156.5862 H   0  0  0  0  0  0  0  0  0  0  0  0
  148.3610  141.8488  157.0844 H   0  0  0  0  0  0  0  0  0  0  0  0
  146.3121  141.6629  155.4534 H   0  0  0  0  0  0  0  0  0  0  0  0
  147.4547  142.9559  155.2548 H   0  0  0  0  0  0  0  0  0  0  0  0
  146.7863  141.9448  153.0937 H   0  0  0  0  0  0  0  0  0  0  0  0
  148.4976  141.9449  153.3453 H   0  0  0  0  0  0  0  0  0  0  0  0
  146.6010  139.5667  153.5622 H   0  0  0  0  0  0  0  0  0  0  0  0
  147.8236  139.8293  152.3581 H   0  0  0  0  0  0  0  0  0  0  0  0
  148.0896  138.6849  155.1025 H   0  0  0  0  0  0  0  0  0  0  0  0
  148.9403  138.2884  153.6534 H   0  0  0  0  0  0  0  0  0  0  0  0
  1  2  1  0  0  0  0
  1 21  1  0  0  0  0
  1 22  1  0  0  0  0
  1 23  1  0  0  0  0
  2  3  1  0  0  0  0
  2  9  1  0  0  0  0
  2 24  1  0  0  0  0
  3  4  1  0  0  0  0
  3 25  1  0  0  0  0
  3 26  1  0  0  0  0
  4  8  1  0  0  0  0
  4  5  1  0  0  0  0
  5  6  2  0  0  0  0
  5 27  1  0  0  0  0
  6  7  1  0  0  0  0
  6 28  1  0  0  0  0
  7  8  2  0  0  0  0
  8 29  1  0  0  0  0
  9 10  1  0  0  0  0
  9 30  1  0  0  0  0
 10 11  2  0  0  0  0
 10 12  1  0  0  0  0
 12 13  1  0  0  0  0
 12 31  1  0  0  0  0
 12 32  1  0  0  0  0
 13 19  1  0  0  0  0
 13 14  1  0  0  0  0
 14 15  1  0  0  0  0
 14 33  1  0  0  0  0
 14 34  1  0  0  0  0
 15 16  1  0  0  0  0
 15 35  1  0  0  0  0
 15 36  1  0  0  0  0
 16 17  1  0  0  0  0
 16 37  1  0  0  0  0
 16 38  1  0  0  0  0
 17 18  1  0  0  0  0
 17 39  1  0  0  0  0
 17 40  1  0  0  0  0
 18 19  1  0  0  0  0
 18 41  1  0  0  0  0
 18 42  1  0  0  0  0
 19 20  2  0  0  0  0
M  END
> <s_m_source_file>
AV-unprocessed.smi

> <i_m_source_file_index>
1216

> <i_lp_mmshare_version>
43012

> <i_f3d_flags>
0

> <s_epik_input>
W2NIXTFuW2NIXVtjSF1uMVtDSDJdW0NAQEhdKFtDSDNdKVtOSF1DKD1PKVtDSDJdTjJbQ0gyXVtDSDJdW0NIMl1bQ0gyXVtDSDJdQzI9Tw==

> <s_epik_cmdline>
J2VwaWtfcHl0aG9uJywgJy1waCcsICc3LjAnLCAnLXRuJywgJzgnLCAnLW1hJywgJzIwMCcsICctbWV0YWxfYmluZGluZycsICctaW1hZScsICc8aW5maWxlLm1hZT4nLCAnLW9tYWUnLCAnPG91dGZpbGUubWFlPic=

> <r_lp_tautomer_probability>
1

> <r_epik_Ionization_Penalty>
0.623868

> <r_epik_Ionization_Penalty_Charging>
0.623868

> <r_epik_Ionization_Penalty_Neutral>
4.50838e-08

> <r_epik_State_Penalty>
0.640129

> <r_epik_Charging_Adjusted_Penalty>
1.264

> <i_epik_Tot_Q>
0

> <i_epik_Tot_abs_Q>
0

> <r_epik_Metal_State_Penalty>
0.307431

> <b_epik_Metal_Only>
0

> <s_lp_Force_Field>
OPLS_2005

> <r_lp_Energy>
20.3142

> <b_lp_Chiralities_Consistent>
1

> <s_lp_Variant>
AV-unprocessed.smi:1216-4

> <Gold.Version>
5.8.1

> <Gold.Id.Protein>
6NUR|6NUR_protein|mol2

> <Gold.PLP.Fitness>
47.8208

> <Gold.PLP.PLP>
-45.8426

> <Gold.PLP.part.hbond>
-1.0000

> <Gold.PLP.part.metal>
0.0000

> <Gold.PLP.part.buried>
-5.7040

> <Gold.PLP.part.nonpolar>
-39.0169

> <Gold.PLP.part.repulsive>
0.4797

> <Gold.PLP.ligand.clash>
0.0000

> <Gold.PLP.ligand.torsion>
0.5171

> <Gold.PLP.Chemscore.Hbond>
1.0000

> <Gold.PLP.Chemscore.CHOScore>
0.0000

> <Gold.PLP.Chemscore.Metal>
0.0000

> <Gold.Chemscore.Hbonds>
donor molecule, donor type, donor heavy atom, donor atom, acceptor molecule, acceptor atom, score
      P1  H  7989  7998       L1    20  1.00

> <Gold.PLP.Chemscore.Internal.Correction>
0.0125

> <Gold.Rescore>
     Score         DG    S(hbond)    S(metal)    S(lipo)     H(rot)  DE(clash)    DE(int)     intcor
     12.14     -13.85       0.97        0.00      90.43       2.13       0.07       1.65       ----

> <Gold.Chemscore.Fitness>
12.1371

> <Gold.Chemscore.DG>
-13.8531

> <Gold.Chemscore.ZeroCoef>
-5.4800

> <Gold.Chemscore.Hbond>
0.9745

> <Gold.Chemscore.Metal>
0.0000

> <Gold.Chemscore.Lipo>
90.4337

> <Gold.Chemscore.Internal_Hbond>
0.0000

> <Gold.Chemscore.DEClash>
0.0691

> <Gold.Chemscore.DEInternal>
1.6469

> <Gold.Chemscore.Rot>
2.1338

> <Gold.Chemscore.Internal.Correction>
   9.000000E+99

> <Gold.Chemscore.Hbonds>
donor molecule, donor type, donor heavy atom, donor atom, acceptor molecule, acceptor atom, score
      P1  H  7989  7998       L1    20  0.85

> <Gold.Chemscore.Hbond.Weighted>
-3.2548

> <Gold.Chemscore.Metal.Weighted>
-0.0000

> <Gold.Chemscore.Lipo.Weighted>
-10.5807

> <Gold.Chemscore.Internal_Hbond.Weighted>
0.0000

> <Gold.Chemscore.DEClash.Weighted>
0.0691

> <Gold.Chemscore.DEInternal.Weighted>
1.6469

> <Gold.Chemscore.Rot.Weighted>
5.4625

> <Gold.Chemscore.Internal.Correction.Weighted>
   9.000000E+99

> <Gold.Protein.RotatedTorsions>
[ 6907 6896 6895 6894 ] final  114.90 input  -60.11 | X-H torsion
[ 7974 7965 7964 7962 ] final   63.67 input  175.53 | X-H torsion
[ 8008 7997 7996 7995 ] final -160.09 input   59.86 | X-H torsion
[ 10167 10162 10161 10158 ] final   64.41 input  -65.29 | X-H torsion
[ 10718 10713 10712 10709 ] final -108.70 input   66.30 | X-H torsion
[ 10763 10752 10751 10750 ] final -114.56 input  -60.55 | X-H torsion
[ 11005 11000 10999 10996 ] final  168.17 input  -57.11 | X-H torsion

> <Gold.Protein.ActiveResidues>
 VAL166  LYS551  ARG553  GLY616  TRP617  ASP618  TYR619  PRO620  LYS621  CYS622 
 ASP623  PHE694  ASN695  SER759  ASP760  ASP761  ALA762  ILE779  LEU786  VAL792 
 PHE793  MET794  SER795  GLU796  ALA797  LYS798  CYS799  TRP800  GLU811  SER814 

> <Gold.Protein.RotatedAtoms>
  152.4774  133.8172  159.7034 H   0  0  0  0  0  0  0  0  0  0  0  0  # atno 6907 bound_to 6896
  150.8801  133.7375  159.2941 H   0  0  0  0  0  0  0  0  0  0  0  0  # atno 6908 bound_to 6896
  151.4882  135.1059  159.9848 H   0  0  0  0  0  0  0  0  0  0  0  0  # atno 6909 bound_to 6896
  145.8591  139.3303  143.0830 H   0  0  0  0  0  0  0  0  0  0  0  0  # atno 7974 bound_to 7965
  155.7723  140.0853  157.2102 H   0  0  0  0  0  0  0  0  0  0  0  0  # atno 8008 bound_to 7997
  154.3995  140.1523  156.3013 H   0  0  0  0  0  0  0  0  0  0  0  0  # atno 8009 bound_to 7997
  155.8735  140.3424  155.5840 H   0  0  0  0  0  0  0  0  0  0  0  0  # atno 8010 bound_to 7997
  140.1225  144.4718  150.6912 H   0  0  0  0  0  0  0  0  0  0  0  0  # atno 10167 bound_to 10162
  156.0499  130.5726  150.7998 H   0  0  0  0  0  0  0  0  0  0  0  0  # atno 10718 bound_to 10713
  154.8445  135.4413  154.1525 H   0  0  0  0  0  0  0  0  0  0  0  0  # atno 10763 bound_to 10752
  153.2682  135.6942  153.7514 H   0  0  0  0  0  0  0  0  0  0  0  0  # atno 10764 bound_to 10752
  153.6764  135.3410  155.3142 H   0  0  0  0  0  0  0  0  0  0  0  0  # atno 10765 bound_to 10752
  140.2844  134.7724  157.3786 H   0  0  0  0  0  0  0  0  0  0  0  0  # atno 11005 bound_to 11000
  145.9269  140.9076  143.0376 LP  0  0  0  0  0  0  0  0  0  0  0  0  # atno 17320 bound_to 7965
  144.6727  140.1365  143.7440 LP  0  0  0  0  0  0  0  0  0  0  0  0  # atno 17321 bound_to 7965
  140.6864  143.2352  151.5250 LP  0  0  0  0  0  0  0  0  0  0  0  0  # atno 17342 bound_to 10162
  139.5561  144.2272  152.1614 LP  0  0  0  0  0  0  0  0  0  0  0  0  # atno 17343 bound_to 10162
  157.5414  131.0941  150.9822 LP  0  0  0  0  0  0  0  0  0  0  0  0  # atno 17370 bound_to 10713
  157.0104  130.5634  149.5320 LP  0  0  0  0  0  0  0  0  0  0  0  0  # atno 17371 bound_to 10713
  140.1253  134.5166  155.8150 LP  0  0  0  0  0  0  0  0  0  0  0  0  # atno 17394 bound_to 11000
  141.2157  133.6770  156.6940 LP  0  0  0  0  0  0  0  0  0  0  0  0  # atno 17395 bound_to 11000

$$$$
