AV-unprocessed.smi:2655|AV-procd|sdf|10304|dock6
  -GOLD-   2272014323D 1   1.00000     0.00000
 Structure written by MMmdl.
 33 34  0  0  0  0  0  0  0  0  2 V2000
  144.6826  132.4637  150.0237 C   0  0  0  0  0  0  0  0  0  0  0  0
  144.9305  133.8393  150.5735 C   0  0  0  0  0  0  0  0  0  0  0  0
  144.1021  134.8246  150.2405 N   0  0  0  0  0  0  0  0  0  0  0  0
  144.5916  135.9038  150.8795 N   0  0  0  0  0  0  0  0  0  0  0  0
  145.7132  135.5954  151.6060 C   0  0  0  0  0  0  0  0  0  0  0  0
  146.3670  136.5470  152.3255 O   0  0  0  0  0  0  0  0  0  0  0  0
  145.9778  134.2663  151.4486 C   0  0  0  0  0  0  0  0  0  0  0  0
  147.0941  133.4484  152.0411 C   0  0  0  0  0  0  0  0  0  0  0  0
  146.5618  132.1953  152.7483 C   0  0  0  0  0  0  0  0  0  0  0  0
  146.7039  131.0242  151.8929 N   0  0  0  0  0  0  0  0  0  0  0  0
  146.4726  129.7596  152.2702 C   0  0  0  0  0  0  0  0  0  0  0  0
  146.1036  129.5213  153.4226 O   0  0  0  0  0  0  0  0  0  0  0  0
  146.6828  128.8504  151.2899 N   0  5  0  0  0  0  0  0  0  0  0  0
  147.5801  127.8672  151.4605 C   0  0  0  0  0  0  0  0  0  0  0  0
  148.0778  127.0027  150.4473 C   0  0  0  0  0  0  0  0  0  0  0  0
  148.9609  126.2077  151.1211 C   0  0  0  0  0  0  0  0  0  0  0  0
  149.8393  125.0819  150.6929 C   0  0  0  0  0  0  0  0  0  0  0  0
  149.0074  126.5610  152.4336 O   0  0  0  0  0  0  0  0  0  0  0  0
  148.1252  127.6280  152.6415 N   0  0  0  0  0  0  0  0  0  0  0  0
  145.5817  131.8492  150.0701 H   0  0  0  0  0  0  0  0  0  0  0  0
  144.3682  132.5044  148.9805 H   0  0  0  0  0  0  0  0  0  0  0  0
  143.9024  131.9531  150.5883 H   0  0  0  0  0  0  0  0  0  0  0  0
  144.1568  136.8128  150.8079 H   0  0  0  0  0  0  0  0  0  0  0  0
  147.6689  134.0457  152.7499 H   0  0  0  0  0  0  0  0  0  0  0  0
  147.8017  133.1500  151.2666 H   0  0  0  0  0  0  0  0  0  0  0  0
  147.1055  132.0323  153.6803 H   0  0  0  0  0  0  0  0  0  0  0  0
  145.5096  132.3264  153.0054 H   0  0  0  0  0  0  0  0  0  0  0  0
  147.0038  131.1812  150.9419 H   0  0  0  0  0  0  0  0  0  0  0  0
  147.8240  126.9702  149.3984 H   0  0  0  0  0  0  0  0  0  0  0  0
  150.5449  125.4125  149.9309 H   0  0  0  0  0  0  0  0  0  0  0  0
  149.2460  124.2682  150.2757 H   0  0  0  0  0  0  0  0  0  0  0  0
  150.4107  124.6866  151.5330 H   0  0  0  0  0  0  0  0  0  0  0  0
  147.2900  136.3491  152.2981 H   0  0  0  0  0  0  0  0  0  0  0  0
  1 20  1  0  0  0  0
  1 21  1  0  0  0  0
  1 22  1  0  0  0  0
  1  2  1  0  0  0  0
  2  7  1  0  0  0  0
  2  3  2  0  0  0  0
  3  4  1  0  0  0  0
  4 23  1  0  0  0  0
  4  5  1  0  0  0  0
  5  7  2  0  0  0  0
  5  6  1  0  0  0  0
  6 33  1  0  0  0  0
  7  8  1  0  0  0  0
  8  9  1  0  0  0  0
  8 24  1  0  0  0  0
  8 25  1  0  0  0  0
  9 10  1  0  0  0  0
  9 26  1  0  0  0  0
  9 27  1  0  0  0  0
 10 11  1  0  0  0  0
 10 28  1  0  0  0  0
 11 12  2  0  0  0  0
 11 13  1  0  0  0  0
 13 14  1  0  0  0  0
 14 19  2  0  0  0  0
 14 15  1  0  0  0  0
 15 16  2  0  0  0  0
 15 29  1  0  0  0  0
 16 17  1  0  0  0  0
 16 18  1  0  0  0  0
 17 30  1  0  0  0  0
 17 31  1  0  0  0  0
 17 32  1  0  0  0  0
 18 19  1  0  0  0  0
M  CHG  1  13  -1
M  END
> <s_m_source_file>
AV-unprocessed.smi

> <i_m_source_file_index>
2655

> <i_lp_mmshare_version>
43012

> <i_f3d_flags>
0

> <s_epik_input>
W0NIM11DMT1OW05IXUMoPU8pW0NASF0xW0NIMl1bQ0gyXVtOSF1DKD1PKVtOSF1jMltjSF1jKFtDSDNdKW9uMg==

> <s_epik_cmdline>
J2VwaWtfcHl0aG9uJywgJy1waCcsICc3LjAnLCAnLXRuJywgJzgnLCAnLW1hJywgJzIwMCcsICctbWV0YWxfYmluZGluZycsICctaW1hZScsICc8aW5maWxlLm1hZT4nLCAnLW9tYWUnLCAnPG91dGZpbGUubWFlPic=

> <r_lp_tautomer_probability>
0.0227396

> <r_epik_Ionization_Penalty>
10.1454

> <r_epik_Ionization_Penalty_Charging>
6.5559

> <r_epik_Ionization_Penalty_Neutral>
3.58948

> <r_epik_State_Penalty>
8.16616

> <r_epik_Charging_Adjusted_Penalty>
14.7221

> <i_epik_Tot_Q>
-1

> <i_epik_Tot_abs_Q>
1

> <r_epik_Metal_State_Penalty>
5.48631

> <b_epik_Metal_Only>
1

> <s_lp_Force_Field>
OPLS_2005

> <r_lp_Energy>
-4.29972

> <b_lp_Chiralities_Consistent>
1

> <s_lp_Variant>
AV-unprocessed.smi:2655-7

> <Gold.Version>
5.8.1

> <Gold.Id.Protein>
6NUR|6NUR_protein|mol2

> <Gold.PLP.Fitness>
39.6906

> <Gold.PLP.PLP>
-34.0432

> <Gold.PLP.part.hbond>
-3.0000

> <Gold.PLP.part.metal>
0.0000

> <Gold.PLP.part.buried>
-6.9824

> <Gold.PLP.part.nonpolar>
-25.3787

> <Gold.PLP.part.repulsive>
1.1317

> <Gold.PLP.ligand.clash>
0.0000

> <Gold.PLP.ligand.torsion>
0.9478

> <Gold.PLP.Chemscore.Hbond>
2.4960

> <Gold.PLP.Chemscore.CHOScore>
0.0000

> <Gold.PLP.Chemscore.Metal>
0.0000

> <Gold.Chemscore.Hbonds>
donor molecule, donor type, donor heavy atom, donor atom, acceptor molecule, acceptor atom, score
      L1  H     4    23       P1 10171  0.96
      L1  H     6    33       P1  7948  1.00
      L1  H    10    28       P1 10747  0.39

> <Gold.PLP.Chemscore.Internal.Correction>
0.0551

> <Gold.Rescore>
     Score         DG    S(hbond)    S(metal)    S(lipo)     H(rot)  DE(clash)    DE(int)     intcor
      9.71     -12.20       2.08        0.00      52.54       2.49       0.26       2.24       ----

> <Gold.Chemscore.Fitness>
9.7081

> <Gold.Chemscore.DG>
-12.2025

> <Gold.Chemscore.ZeroCoef>
-5.4800

> <Gold.Chemscore.Hbond>
2.0823

> <Gold.Chemscore.Metal>
0.0000

> <Gold.Chemscore.Lipo>
52.5440

> <Gold.Chemscore.Internal_Hbond>
0.0000

> <Gold.Chemscore.DEClash>
0.2575

> <Gold.Chemscore.DEInternal>
2.2368

> <Gold.Chemscore.Rot>
2.4922

> <Gold.Chemscore.Internal.Correction>
   9.000000E+99

> <Gold.Chemscore.Hbonds>
donor molecule, donor type, donor heavy atom, donor atom, acceptor molecule, acceptor atom, score
      L1  H     4    23       P1 10171  0.86
      L1  H     6    33       P1  7948  1.00
      L1  H    10    28       P1 10747  0.39

> <Gold.Chemscore.Hbond.Weighted>
-6.9548

> <Gold.Chemscore.Metal.Weighted>
-0.0000

> <Gold.Chemscore.Lipo.Weighted>
-6.1476

> <Gold.Chemscore.Internal_Hbond.Weighted>
0.0000

> <Gold.Chemscore.DEClash.Weighted>
0.2575

> <Gold.Chemscore.DEInternal.Weighted>
2.2368

> <Gold.Chemscore.Rot.Weighted>
6.3800

> <Gold.Chemscore.Internal.Correction.Weighted>
   9.000000E+99

> <Gold.Protein.RotatedTorsions>
[ 6907 6896 6895 6894 ] final  168.82 input  -60.11 | X-H torsion
[ 7974 7965 7964 7962 ] final  -67.36 input  175.53 | X-H torsion
[ 8008 7997 7996 7995 ] final  127.84 input   59.86 | X-H torsion
[ 10167 10162 10161 10158 ] final -121.66 input  -65.29 | X-H torsion
[ 10718 10713 10712 10709 ] final   25.95 input   66.30 | X-H torsion
[ 10763 10752 10751 10750 ] final   80.56 input  -60.55 | X-H torsion
[ 11005 11000 10999 10996 ] final -163.13 input  -57.11 | X-H torsion

> <Gold.Protein.ActiveResidues>
 VAL166  LYS551  ARG553  GLY616  TRP617  ASP618  TYR619  PRO620  LYS621  CYS622 
 ASP623  PHE694  ASN695  SER759  ASP760  ASP761  ALA762  ILE779  LEU786  VAL792 
 PHE793  MET794  SER795  GLU796  ALA797  LYS798  CYS799  TRP800  GLU811  SER814 

> <Gold.Protein.RotatedAtoms>
  151.8416  133.3424  159.3644 H   0  0  0  0  0  0  0  0  0  0  0  0  # atno 6907 bound_to 6896
  150.7233  134.5386  159.5745 H   0  0  0  0  0  0  0  0  0  0  0  0  # atno 6908 bound_to 6896
  152.2860  134.7775  160.0438 H   0  0  0  0  0  0  0  0  0  0  0  0  # atno 6909 bound_to 6896
  145.7301  140.9000  143.0584 H   0  0  0  0  0  0  0  0  0  0  0  0  # atno 7974 bound_to 7965
  156.2901  140.2659  156.2339 H   0  0  0  0  0  0  0  0  0  0  0  0  # atno 8008 bound_to 7997
  155.0045  140.0387  157.2392 H   0  0  0  0  0  0  0  0  0  0  0  0  # atno 8009 bound_to 7997
  154.7572  140.2754  155.6248 H   0  0  0  0  0  0  0  0  0  0  0  0  # atno 8010 bound_to 7997
  140.0226  143.5329  152.2213 H   0  0  0  0  0  0  0  0  0  0  0  0  # atno 10167 bound_to 10162
  157.2003  130.6887  149.6185 H   0  0  0  0  0  0  0  0  0  0  0  0  # atno 10718 bound_to 10713
  153.1043  135.4798  154.8923 H   0  0  0  0  0  0  0  0  0  0  0  0  # atno 10763 bound_to 10752
  154.7413  135.3083  154.8725 H   0  0  0  0  0  0  0  0  0  0  0  0  # atno 10764 bound_to 10752
  153.9332  135.6842  153.4798 H   0  0  0  0  0  0  0  0  0  0  0  0  # atno 10765 bound_to 10752
  140.6015  134.4942  157.5205 H   0  0  0  0  0  0  0  0  0  0  0  0  # atno 11005 bound_to 11000
  144.6895  139.9320  143.7472 LP  0  0  0  0  0  0  0  0  0  0  0  0  # atno 17320 bound_to 7965
  146.0545  139.3543  143.0619 LP  0  0  0  0  0  0  0  0  0  0  0  0  # atno 17321 bound_to 7965
  139.6129  144.7613  151.2911 LP  0  0  0  0  0  0  0  0  0  0  0  0  # atno 17342 bound_to 10162
  140.7336  143.6790  150.8017 LP  0  0  0  0  0  0  0  0  0  0  0  0  # atno 17343 bound_to 10162
  155.9701  130.4585  150.6001 LP  0  0  0  0  0  0  0  0  0  0  0  0  # atno 17370 bound_to 10713
  157.3774  131.0775  151.1506 LP  0  0  0  0  0  0  0  0  0  0  0  0  # atno 17371 bound_to 10713
  139.9230  134.8110  156.1152 LP  0  0  0  0  0  0  0  0  0  0  0  0  # atno 17394 bound_to 11000
  141.0869  133.6730  156.2455 LP  0  0  0  0  0  0  0  0  0  0  0  0  # atno 17395 bound_to 11000

$$$$
