AV-unprocessed.smi:338|AV-procd|sdf|2377|dock8
  -GOLD-   2262022303D 1   1.00000     0.00000
 Structure written by MMmdl.
 42 44  0  0  0  0  0  0  0  0  2 V2000
  154.5400  141.2494  161.1142 C   0  0  0  0  0  0  0  0  0  0  0  0
  154.0799  141.1620  159.6601 C   0  0  0  0  0  0  0  0  0  0  0  0
  154.6207  140.3418  158.9189 O   0  0  0  0  0  0  0  0  0  0  0  0
  152.9912  142.0801  159.2178 C   0  0  0  0  0  0  0  0  0  0  0  0
  152.8241  143.3626  159.7902 C   0  0  0  0  0  0  0  0  0  0  0  0
  151.7887  144.2072  159.3503 C   0  0  0  0  0  0  0  0  0  0  0  0
  150.9117  143.7806  158.3370 C   0  0  0  0  0  0  0  0  0  0  0  0
  151.0566  142.5083  157.7504 C   0  0  0  0  0  0  0  0  0  0  0  0
  150.1541  142.1708  156.7646 O   0  0  0  0  0  0  0  0  0  0  0  0
  150.2597  140.8874  156.1624 C   0  0  0  0  0  0  0  0  0  0  0  0
  149.5075  140.9068  154.8243 C   0  0  1  0  0  0  0  0  0  0  0  0
  150.2658  140.1952  153.8660 O   0  0  0  0  0  0  0  0  0  0  0  0
  148.0989  140.2892  154.9317 C   0  0  0  0  0  0  0  0  0  0  0  0
  147.2330  141.0105  155.8726 N   0  0  0  0  0  0  0  0  0  0  0  0
  147.1309  140.9066  157.2254 C   0  0  0  0  0  0  0  0  0  0  0  0
  146.1776  141.7897  157.6341 N   0  3  0  0  0  0  0  0  0  0  0  0
  145.6635  142.4672  156.5259 C   0  0  0  0  0  0  0  0  0  0  0  0
  144.6838  143.4508  156.4309 C   0  0  0  0  0  0  0  0  0  0  0  0
  144.3946  143.9331  155.1373 C   0  0  0  0  0  0  0  0  0  0  0  0
  145.0680  143.4391  154.0008 C   0  0  0  0  0  0  0  0  0  0  0  0
  146.0598  142.4419  154.1085 C   0  0  0  0  0  0  0  0  0  0  0  0
  146.3388  141.9713  155.3909 C   0  0  0  0  0  0  0  0  0  0  0  0
  152.1034  141.6632  158.1982 C   0  0  0  0  0  0  0  0  0  0  0  0
  154.9489  142.2373  161.3271 H   0  0  0  0  0  0  0  0  0  0  0  0
  155.3156  140.5096  161.3142 H   0  0  0  0  0  0  0  0  0  0  0  0
  153.7069  141.0597  161.7911 H   0  0  0  0  0  0  0  0  0  0  0  0
  153.4800  143.7218  160.5690 H   0  0  0  0  0  0  0  0  0  0  0  0
  151.6669  145.1855  159.7915 H   0  0  0  0  0  0  0  0  0  0  0  0
  150.1194  144.4362  158.0068 H   0  0  0  0  0  0  0  0  0  0  0  0
  151.3120  140.6562  155.9875 H   0  0  0  0  0  0  0  0  0  0  0  0
  149.8456  140.1164  156.8148 H   0  0  0  0  0  0  0  0  0  0  0  0
  149.4324  141.9383  154.4787 H   0  0  0  0  0  0  0  0  0  0  0  0
  149.7506  140.1117  153.0778 H   0  0  0  0  0  0  0  0  0  0  0  0
  147.6054  140.2973  153.9589 H   0  0  0  0  0  0  0  0  0  0  0  0
  148.1494  139.2454  155.2444 H   0  0  0  0  0  0  0  0  0  0  0  0
  147.7001  140.2413  157.8586 H   0  0  0  0  0  0  0  0  0  0  0  0
  144.1659  143.8307  157.2993 H   0  0  0  0  0  0  0  0  0  0  0  0
  143.6406  144.6970  155.0142 H   0  0  0  0  0  0  0  0  0  0  0  0
  144.8187  143.8327  153.0260 H   0  0  0  0  0  0  0  0  0  0  0  0
  146.5703  142.0680  153.2332 H   0  0  0  0  0  0  0  0  0  0  0  0
  152.2372  140.6839  157.7643 H   0  0  0  0  0  0  0  0  0  0  0  0
  145.8996  141.9171  158.5987 H   0  0  0  0  0  0  0  0  0  0  0  0
  1  2  1  0  0  0  0
  1 24  1  0  0  0  0
  1 25  1  0  0  0  0
  1 26  1  0  0  0  0
  2  3  2  0  0  0  0
  2  4  1  0  0  0  0
  4 23  1  0  0  0  0
  4  5  2  0  0  0  0
  5  6  1  0  0  0  0
  5 27  1  0  0  0  0
  6  7  2  0  0  0  0
  6 28  1  0  0  0  0
  7  8  1  0  0  0  0
  7 29  1  0  0  0  0
  8  9  1  0  0  0  0
  8 23  2  0  0  0  0
  9 10  1  0  0  0  0
 10 11  1  0  0  0  0
 10 30  1  0  0  0  0
 10 31  1  0  0  0  0
 11 12  1  0  0  0  0
 11 13  1  0  0  0  0
 11 32  1  0  0  0  0
 12 33  1  0  0  0  0
 13 14  1  0  0  0  0
 13 34  1  0  0  0  0
 13 35  1  0  0  0  0
 14 22  1  0  0  0  0
 14 15  1  0  0  0  0
 15 16  2  0  0  0  0
 15 36  1  0  0  0  0
 16 17  1  0  0  0  0
 16 42  1  0  0  0  0
 17 22  2  0  0  0  0
 17 18  1  0  0  0  0
 18 19  2  0  0  0  0
 18 37  1  0  0  0  0
 19 20  1  0  0  0  0
 19 38  1  0  0  0  0
 20 21  2  0  0  0  0
 20 39  1  0  0  0  0
 21 22  1  0  0  0  0
 21 40  1  0  0  0  0
 23 41  1  0  0  0  0
M  CHG  1  16   1
M  END
> <s_m_source_file>
AV-unprocessed.smi

> <i_m_source_file_index>
338

> <i_lp_mmshare_version>
43012

> <i_f3d_flags>
0

> <s_epik_input>
W0NIM11DKD1PKWMxW2NIXVtjSF1bY0hdYyhbY0hdMSlPW0NIMl1bQ0BIXShbT0hdKVtDSDJdbihbY0hdbjIpYyhjMjMpW2NIXVtjSF1bY0hdW2NIXTM=

> <s_epik_cmdline>
J2VwaWtfcHl0aG9uJywgJy1waCcsICc3LjAnLCAnLXRuJywgJzgnLCAnLW1hJywgJzIwMCcsICctbWV0YWxfYmluZGluZycsICctaW1hZScsICc8aW5maWxlLm1hZT4nLCAnLW9tYWUnLCAnPG91dGZpbGUubWFlPic=

> <r_lp_tautomer_probability>
0.99995

> <r_epik_Ionization_Penalty>
1.35015

> <r_epik_Ionization_Penalty_Charging>
1.35015

> <r_epik_Ionization_Penalty_Neutral>
2.3993e-06

> <r_epik_State_Penalty>
1.42814

> <r_epik_Charging_Adjusted_Penalty>
2.77829

> <i_epik_Tot_Q>
1

> <i_epik_Tot_abs_Q>
1

> <r_epik_Metal_State_Penalty>
5.46522

> <b_epik_Metal_Only>
0

> <s_lp_Force_Field>
OPLS_2005

> <r_lp_Energy>
25.8652

> <b_lp_Chiralities_Consistent>
1

> <s_lp_Variant>
AV-unprocessed.smi:338-4

> <Gold.Version>
5.8.1

> <Gold.Id.Protein>
6NUR|6NUR_protein|mol2

> <Gold.PLP.Fitness>
54.5290

> <Gold.PLP.PLP>
-48.3160

> <Gold.PLP.part.hbond>
-3.0000

> <Gold.PLP.part.metal>
0.0000

> <Gold.PLP.part.buried>
-6.5986

> <Gold.PLP.part.nonpolar>
-39.8285

> <Gold.PLP.part.repulsive>
0.8680

> <Gold.PLP.ligand.clash>
0.0000

> <Gold.PLP.ligand.torsion>
1.3755

> <Gold.PLP.Chemscore.Hbond>
2.9520

> <Gold.PLP.Chemscore.CHOScore>
0.0000

> <Gold.PLP.Chemscore.Metal>
0.0000

> <Gold.Chemscore.Hbonds>
donor molecule, donor type, donor heavy atom, donor atom, acceptor molecule, acceptor atom, score
      L1  H    12    33       P1  7957  1.00
      P1  H  7989  7998       L1    12  0.86
      P1  H  7997  8009       L1     3  0.82

> <Gold.PLP.Chemscore.Internal.Correction>
0.1079

> <Gold.Rescore>
     Score         DG    S(hbond)    S(metal)    S(lipo)     H(rot)  DE(clash)    DE(int)     intcor
     19.46     -20.68       2.47        0.00     113.64       2.48       0.05       1.17       ----

> <Gold.Chemscore.Fitness>
19.4570

> <Gold.Chemscore.DG>
-20.6755

> <Gold.Chemscore.ZeroCoef>
-5.4800

> <Gold.Chemscore.Hbond>
2.4727

> <Gold.Chemscore.Metal>
0.0000

> <Gold.Chemscore.Lipo>
113.6436

> <Gold.Chemscore.Internal_Hbond>
0.0000

> <Gold.Chemscore.DEClash>
0.0533

> <Gold.Chemscore.DEInternal>
1.1653

> <Gold.Chemscore.Rot>
2.4842

> <Gold.Chemscore.Internal.Correction>
   9.000000E+99

> <Gold.Chemscore.Hbonds>
donor molecule, donor type, donor heavy atom, donor atom, acceptor molecule, acceptor atom, score
      L1  H    12    33       P1  7957  0.94
      P1  H  7989  7998       L1    12  0.44
      P1  H  7997  8009       L1     3  0.81

> <Gold.Chemscore.Hbond.Weighted>
-8.2587

> <Gold.Chemscore.Metal.Weighted>
-0.0000

> <Gold.Chemscore.Lipo.Weighted>
-13.2963

> <Gold.Chemscore.Internal_Hbond.Weighted>
0.0000

> <Gold.Chemscore.DEClash.Weighted>
0.0533

> <Gold.Chemscore.DEInternal.Weighted>
1.1653

> <Gold.Chemscore.Rot.Weighted>
6.3594

> <Gold.Chemscore.Internal.Correction.Weighted>
   9.000000E+99

> <Gold.Protein.RotatedTorsions>
[ 6907 6896 6895 6894 ] final  174.15 input  -60.11 | X-H torsion
[ 7974 7965 7964 7962 ] final   94.50 input  175.53 | X-H torsion
[ 8008 7997 7996 7995 ] final  125.70 input   59.86 | X-H torsion
[ 10167 10162 10161 10158 ] final  -38.40 input  -65.29 | X-H torsion
[ 10718 10713 10712 10709 ] final  174.39 input   66.30 | X-H torsion
[ 10763 10752 10751 10750 ] final  -39.03 input  -60.55 | X-H torsion
[ 11005 11000 10999 10996 ] final   -5.17 input  -57.11 | X-H torsion

> <Gold.Protein.ActiveResidues>
 VAL166  LYS551  ARG553  GLY616  TRP617  ASP618  TYR619  PRO620  LYS621  CYS622 
 ASP623  PHE694  ASN695  SER759  ASP760  ASP761  ALA762  ILE779  LEU786  VAL792 
 PHE793  MET794  SER795  GLU796  ALA797  LYS798  CYS799  TRP800  GLU811  SER814 

> <Gold.Protein.RotatedAtoms>
  151.7569  133.3331  159.3406 H   0  0  0  0  0  0  0  0  0  0  0  0  # atno 6907 bound_to 6896
  150.7513  134.6141  159.6111 H   0  0  0  0  0  0  0  0  0  0  0  0  # atno 6908 bound_to 6896
  152.3431  134.7109  160.0309 H   0  0  0  0  0  0  0  0  0  0  0  0  # atno 6909 bound_to 6896
  145.4647  139.2285  143.2968 H   0  0  0  0  0  0  0  0  0  0  0  0  # atno 7974 bound_to 7965
  156.2842  140.2710  156.1992 H   0  0  0  0  0  0  0  0  0  0  0  0  # atno 8008 bound_to 7997
  155.0379  140.0386  157.2516 H   0  0  0  0  0  0  0  0  0  0  0  0  # atno 8009 bound_to 7997
  154.7299  140.2704  155.6471 H   0  0  0  0  0  0  0  0  0  0  0  0  # atno 8010 bound_to 7997
  140.7093  143.3280  151.2636 H   0  0  0  0  0  0  0  0  0  0  0  0  # atno 10167 bound_to 10162
  156.9502  131.0029  151.2950 H   0  0  0  0  0  0  0  0  0  0  0  0  # atno 10718 bound_to 10713
  153.9227  135.6780  153.4747 H   0  0  0  0  0  0  0  0  0  0  0  0  # atno 10763 bound_to 10752
  153.1020  135.4823  154.8881 H   0  0  0  0  0  0  0  0  0  0  0  0  # atno 10764 bound_to 10752
  154.7469  135.3175  154.8584 H   0  0  0  0  0  0  0  0  0  0  0  0  # atno 10765 bound_to 10752
  140.6882  133.9094  155.8600 H   0  0  0  0  0  0  0  0  0  0  0  0  # atno 11005 bound_to 11000
  146.2431  140.5420  142.8925 LP  0  0  0  0  0  0  0  0  0  0  0  0  # atno 17320 bound_to 7965
  144.7981  140.6161  143.6496 LP  0  0  0  0  0  0  0  0  0  0  0  0  # atno 17321 bound_to 7965
  139.6753  143.9948  152.2777 LP  0  0  0  0  0  0  0  0  0  0  0  0  # atno 17342 bound_to 10162
  139.9560  144.6589  150.8125 LP  0  0  0  0  0  0  0  0  0  0  0  0  # atno 17343 bound_to 10162
  157.5727  130.8321  149.8413 LP  0  0  0  0  0  0  0  0  0  0  0  0  # atno 17370 bound_to 10713
  156.0366  130.3750  150.1545 LP  0  0  0  0  0  0  0  0  0  0  0  0  # atno 17371 bound_to 10713
  141.0262  134.0819  157.4065 LP  0  0  0  0  0  0  0  0  0  0  0  0  # atno 17394 bound_to 11000
  139.8931  135.0128  156.6881 LP  0  0  0  0  0  0  0  0  0  0  0  0  # atno 17395 bound_to 11000

$$$$
