AV-unprocessed.smi:2448|AV-procd|sdf|9659|dock2
  -GOLD-   2272013293D 1   1.00000     0.00000
 Structure written by MMmdl.
 38 39  0  0  0  0  0  0  0  0  2 V2000
  150.1401  142.7500  159.2301 O   0  0  0  0  0  0  0  0  0  0  0  0
  151.4667  142.9998  158.7991 C   0  0  1  0  0  0  0  0  0  0  0  0
  151.5576  142.6522  157.2990 C   0  0  0  0  0  0  0  0  0  0  0  0
  151.6499  141.2079  157.0745 N   0  0  0  0  0  0  0  0  0  0  0  0
  150.7110  140.6316  156.1005 C   0  0  2  0  0  0  0  0  0  0  0  0
  149.2641  140.5136  156.6480 C   0  0  0  0  0  0  0  0  0  0  0  0
  148.1605  140.6013  155.6057 C   0  0  0  0  0  0  0  0  0  0  0  0
  147.2740  139.5180  155.4111 C   0  0  0  0  0  0  0  0  0  0  0  0
  146.2617  139.6213  154.4355 C   0  0  0  0  0  0  0  0  0  0  0  0
  146.1525  140.7465  153.6960 N   0  3  0  0  0  0  0  0  0  0  0  0
  146.9835  141.8015  153.8423 C   0  0  0  0  0  0  0  0  0  0  0  0
  148.0152  141.7550  154.8020 C   0  0  0  0  0  0  0  0  0  0  0  0
  151.2382  139.2586  155.6323 C   0  0  0  0  0  0  0  0  0  0  0  0
  150.4447  138.7699  154.6783 F   0  0  0  0  0  0  0  0  0  0  0  0
  152.4766  139.3675  155.1495 F   0  0  0  0  0  0  0  0  0  0  0  0
  151.2432  138.3950  156.6479 F   0  0  0  0  0  0  0  0  0  0  0  0
  151.7622  144.4873  159.0540 C   0  0  0  0  0  0  0  0  0  0  0  0
  151.9612  144.6769  160.5613 C   0  0  0  0  0  0  0  0  0  0  0  0
  152.7414  143.1748  161.2018 S   0  0  0  0  0  0  0  0  0  0  0  0
  152.4624  142.2254  159.6826 C   0  0  0  0  0  0  0  0  0  0  0  0
  149.5422  143.1257  158.6025 H   0  0  0  0  0  0  0  0  0  0  0  0
  150.6958  143.0717  156.7840 H   0  0  0  0  0  0  0  0  0  0  0  0
  152.4394  143.1369  156.8785 H   0  0  0  0  0  0  0  0  0  0  0  0
  152.5998  140.9670  156.8080 H   0  0  0  0  0  0  0  0  0  0  0  0
  150.6987  141.2620  155.2108 H   0  0  0  0  0  0  0  0  0  0  0  0
  149.1364  139.5487  157.1388 H   0  0  0  0  0  0  0  0  0  0  0  0
  149.1022  141.2609  157.4260 H   0  0  0  0  0  0  0  0  0  0  0  0
  147.3634  138.6190  156.0039 H   0  0  0  0  0  0  0  0  0  0  0  0
  145.5426  138.8431  154.2253 H   0  0  0  0  0  0  0  0  0  0  0  0
  146.8009  142.6434  153.1904 H   0  0  0  0  0  0  0  0  0  0  0  0
  148.6844  142.5954  154.9163 H   0  0  0  0  0  0  0  0  0  0  0  0
  152.6864  144.7644  158.5448 H   0  0  0  0  0  0  0  0  0  0  0  0
  150.9801  145.1407  158.6647 H   0  0  0  0  0  0  0  0  0  0  0  0
  152.5618  145.5578  160.7887 H   0  0  0  0  0  0  0  0  0  0  0  0
  150.9967  144.7963  161.0558 H   0  0  0  0  0  0  0  0  0  0  0  0
  152.1258  141.2133  159.9104 H   0  0  0  0  0  0  0  0  0  0  0  0
  153.4237  142.1420  159.1746 H   0  0  0  0  0  0  0  0  0  0  0  0
  145.4134  140.8001  152.9944 H   0  0  0  0  0  0  0  0  0  0  0  0
  1  2  1  0  0  0  0
  1 21  1  0  0  0  0
  2 20  1  0  0  0  0
  2  3  1  0  0  0  0
  2 17  1  0  0  0  0
  3  4  1  0  0  0  0
  3 22  1  0  0  0  0
  3 23  1  0  0  0  0
  4  5  1  0  0  0  0
  4 24  1  0  0  0  0
  5  6  1  0  0  0  0
  5 13  1  0  0  0  0
  5 25  1  0  0  0  0
  6  7  1  0  0  0  0
  6 26  1  0  0  0  0
  6 27  1  0  0  0  0
  7 12  1  0  0  0  0
  7  8  2  0  0  0  0
  8  9  1  0  0  0  0
  8 28  1  0  0  0  0
  9 10  2  0  0  0  0
  9 29  1  0  0  0  0
 10 11  1  0  0  0  0
 10 38  1  0  0  0  0
 11 12  2  0  0  0  0
 11 30  1  0  0  0  0
 12 31  1  0  0  0  0
 13 14  1  0  0  0  0
 13 15  1  0  0  0  0
 13 16  1  0  0  0  0
 17 18  1  0  0  0  0
 17 32  1  0  0  0  0
 17 33  1  0  0  0  0
 18 19  1  0  0  0  0
 18 34  1  0  0  0  0
 18 35  1  0  0  0  0
 19 20  1  0  0  0  0
 20 36  1  0  0  0  0
 20 37  1  0  0  0  0
M  CHG  1  10   1
M  END
> <s_m_source_file>
AV-unprocessed.smi

> <i_m_source_file_index>
2448

> <i_lp_mmshare_version>
43012

> <i_f3d_flags>
0

> <s_epik_input>
W0NIMl0xU1tDSDJdW0NIMl1bQ0BAXTEoW09IXSlbQ0gyXVtOSF1bQ0BASF0oQyhGKShGKUYpW0NIMl1jMltjSF1bY0hdbltjSF1bY0hdMg==

> <s_epik_cmdline>
J2VwaWtfcHl0aG9uJywgJy1waCcsICc3LjAnLCAnLXRuJywgJzgnLCAnLW1hJywgJzIwMCcsICctbWV0YWxfYmluZGluZycsICctaW1hZScsICc8aW5maWxlLm1hZT4nLCAnLW9tYWUnLCAnPG91dGZpbGUubWFlPic=

> <r_epik_Ionization_Penalty>
1.11129

> <r_epik_Ionization_Penalty_Charging>
1.08366

> <r_epik_Ionization_Penalty_Neutral>
0.0276276

> <r_epik_State_Penalty>
1.93785

> <r_epik_Charging_Adjusted_Penalty>
3.02151

> <i_epik_Tot_Q>
1

> <i_epik_Tot_abs_Q>
1

> <r_epik_Metal_State_Penalty>
5.97911

> <b_epik_Metal_Only>
0

> <s_lp_Force_Field>
OPLS_2005

> <r_lp_Energy>
39.4187

> <b_lp_Chiralities_Consistent>
1

> <s_lp_Variant>
AV-unprocessed.smi:2448-9

> <Gold.Version>
5.8.1

> <Gold.Id.Protein>
6NUR|6NUR_protein|mol2

> <Gold.PLP.Fitness>
44.2224

> <Gold.PLP.PLP>
-39.6517

> <Gold.PLP.part.hbond>
-2.0000

> <Gold.PLP.part.metal>
0.0000

> <Gold.PLP.part.buried>
-4.3301

> <Gold.PLP.part.nonpolar>
-33.2614

> <Gold.PLP.part.repulsive>
0.0001

> <Gold.PLP.ligand.clash>
0.0000

> <Gold.PLP.ligand.torsion>
1.0301

> <Gold.PLP.Chemscore.Hbond>
2.0000

> <Gold.PLP.Chemscore.CHOScore>
0.0000

> <Gold.PLP.Chemscore.Metal>
0.0000

> <Gold.Chemscore.Hbonds>
donor molecule, donor type, donor heavy atom, donor atom, acceptor molecule, acceptor atom, score
      L1  H    10    38       P1 10175  2.00

> <Gold.PLP.Chemscore.Internal.Correction>
0.6309

> <Gold.Rescore>
     Score         DG    S(hbond)    S(metal)    S(lipo)     H(rot)  DE(clash)    DE(int)     intcor
     13.18     -14.34       0.95        0.00     101.61       2.42       0.06       1.10       ----

> <Gold.Chemscore.Fitness>
13.1753

> <Gold.Chemscore.DG>
-14.3399

> <Gold.Chemscore.ZeroCoef>
-5.4800

> <Gold.Chemscore.Hbond>
0.9518

> <Gold.Chemscore.Metal>
0.0000

> <Gold.Chemscore.Lipo>
101.6073

> <Gold.Chemscore.Internal_Hbond>
0.0000

> <Gold.Chemscore.DEClash>
0.0603

> <Gold.Chemscore.DEInternal>
1.1043

> <Gold.Chemscore.Rot>
2.4247

> <Gold.Chemscore.Internal.Correction>
   9.000000E+99

> <Gold.Chemscore.Hbonds>
donor molecule, donor type, donor heavy atom, donor atom, acceptor molecule, acceptor atom, score
      L1  H    10    38       P1 10175  0.53

> <Gold.Chemscore.Hbond.Weighted>
-3.1791

> <Gold.Chemscore.Metal.Weighted>
-0.0000

> <Gold.Chemscore.Lipo.Weighted>
-11.8881

> <Gold.Chemscore.Internal_Hbond.Weighted>
0.0000

> <Gold.Chemscore.DEClash.Weighted>
0.0603

> <Gold.Chemscore.DEInternal.Weighted>
1.1043

> <Gold.Chemscore.Rot.Weighted>
6.2072

> <Gold.Chemscore.Internal.Correction.Weighted>
   9.000000E+99

> <Gold.Protein.RotatedTorsions>
[ 6907 6896 6895 6894 ] final  -81.05 input  -60.11 | X-H torsion
[ 7974 7965 7964 7962 ] final -125.94 input  175.53 | X-H torsion
[ 8008 7997 7996 7995 ] final   33.74 input   59.86 | X-H torsion
[ 10167 10162 10161 10158 ] final -137.99 input  -65.29 | X-H torsion
[ 10718 10713 10712 10709 ] final  101.10 input   66.30 | X-H torsion
[ 10763 10752 10751 10750 ] final  131.51 input  -60.55 | X-H torsion
[ 11005 11000 10999 10996 ] final -117.96 input  -57.11 | X-H torsion

> <Gold.Protein.ActiveResidues>
 VAL166  LYS551  ARG553  GLY616  TRP617  ASP618  TYR619  PRO620  LYS621  CYS622 
 ASP623  PHE694  ASN695  SER759  ASP760  ASP761  ALA762  ILE779  LEU786  VAL792 
 PHE793  MET794  SER795  GLU796  ALA797  LYS798  CYS799  TRP800  GLU811  SER814 

> <Gold.Protein.RotatedAtoms>
  150.6918  134.3877  159.5062 H   0  0  0  0  0  0  0  0  0  0  0  0  # atno 6907 bound_to 6896
  152.1670  134.8863  160.0546 H   0  0  0  0  0  0  0  0  0  0  0  0  # atno 6908 bound_to 6896
  151.9903  133.3754  159.4179 H   0  0  0  0  0  0  0  0  0  0  0  0  # atno 6909 bound_to 6896
  144.9924  140.7744  143.4546 H   0  0  0  0  0  0  0  0  0  0  0  0  # atno 7974 bound_to 7965
  155.1434  140.3268  155.4447 H   0  0  0  0  0  0  0  0  0  0  0  0  # atno 8008 bound_to 7997
  156.2597  140.1989  156.6499 H   0  0  0  0  0  0  0  0  0  0  0  0  # atno 8009 bound_to 7997
  154.6525  140.0557  156.9958 H   0  0  0  0  0  0  0  0  0  0  0  0  # atno 8010 bound_to 7997
  139.8522  143.7184  152.2657 H   0  0  0  0  0  0  0  0  0  0  0  0  # atno 10167 bound_to 10162
  157.6838  131.0717  150.5202 H   0  0  0  0  0  0  0  0  0  0  0  0  # atno 10718 bound_to 10713
  153.7755  135.3176  155.3358 H   0  0  0  0  0  0  0  0  0  0  0  0  # atno 10763 bound_to 10752
  154.8181  135.4622  154.0703 H   0  0  0  0  0  0  0  0  0  0  0  0  # atno 10764 bound_to 10752
  153.1975  135.6917  153.8358 H   0  0  0  0  0  0  0  0  0  0  0  0  # atno 10765 bound_to 10752
  141.0318  133.9969  157.3131 H   0  0  0  0  0  0  0  0  0  0  0  0  # atno 11005 bound_to 11000
  145.2268  139.2133  143.5064 LP  0  0  0  0  0  0  0  0  0  0  0  0  # atno 17320 bound_to 7965
  146.3434  140.2136  142.8590 LP  0  0  0  0  0  0  0  0  0  0  0  0  # atno 17321 bound_to 7965
  139.7454  144.7548  151.0588 LP  0  0  0  0  0  0  0  0  0  0  0  0  # atno 17342 bound_to 10162
  140.7786  143.4922  150.9878 LP  0  0  0  0  0  0  0  0  0  0  0  0  # atno 17343 bound_to 10162
  156.5515  130.4233  149.6105 LP  0  0  0  0  0  0  0  0  0  0  0  0  # atno 17370 bound_to 10713
  156.2898  130.7118  151.1964 LP  0  0  0  0  0  0  0  0  0  0  0  0  # atno 17371 bound_to 10713
  139.9213  135.0200  156.8075 LP  0  0  0  0  0  0  0  0  0  0  0  0  # atno 17394 bound_to 11000
  140.6392  133.9834  155.7699 LP  0  0  0  0  0  0  0  0  0  0  0  0  # atno 17395 bound_to 11000

$$$$
