AV-unprocessed.smi:2685|AV-procd|sdf|10382|dock4
  -GOLD-   2272014413D 1   1.00000     0.00000
 Structure written by MMmdl.
 22 22  0  0  0  0  0  0  0  0  2 V2000
  153.3353  140.6488  159.4440 C   0  0  0  0  0  0  0  0  0  0  0  0
  152.4853  141.6279  158.6535 C   0  0  0  0  0  0  0  0  0  0  0  0
  152.4847  142.8683  158.9894 N   0  0  0  0  0  0  0  0  0  0  0  0
  151.7268  143.8123  158.2790 C   0  0  0  0  0  0  0  0  0  0  0  0
  151.7042  145.0048  158.5754 O   0  0  0  0  0  0  0  0  0  0  0  0
  150.9975  143.3744  157.2252 N   0  0  0  0  0  0  0  0  0  0  0  0
  150.9631  142.0365  156.8279 C   0  0  0  0  0  0  0  0  0  0  0  0
  150.0885  141.7665  155.6177 C   0  0  0  0  0  0  0  0  0  0  0  0
  151.6770  141.1133  157.5066 C   0  0  0  0  0  0  0  0  0  0  0  0
  151.7138  139.6276  157.1449 C   0  0  0  0  0  0  0  0  0  0  0  0
  152.1871  139.3220  155.7187 C   0  0  0  0  0  0  0  0  0  0  0  0
  153.3673  138.9283  155.5974 O   0  0  0  0  0  0  0  0  0  0  0  0
  151.3786  139.4785  154.7766 O   0  5  0  0  0  0  0  0  0  0  0  0
  150.4488  144.0328  156.6916 H   0  0  0  0  0  0  0  0  0  0  0  0
  154.0019  140.0954  158.7824 H   0  0  0  0  0  0  0  0  0  0  0  0
  152.7024  139.9429  159.9819 H   0  0  0  0  0  0  0  0  0  0  0  0
  153.9519  141.1723  160.1756 H   0  0  0  0  0  0  0  0  0  0  0  0
  150.6731  141.2924  154.8288 H   0  0  0  0  0  0  0  0  0  0  0  0
  149.6612  142.6857  155.2150 H   0  0  0  0  0  0  0  0  0  0  0  0
  149.2673  141.1011  155.8850 H   0  0  0  0  0  0  0  0  0  0  0  0
  152.3322  139.0756  157.8519 H   0  0  0  0  0  0  0  0  0  0  0  0
  150.7148  139.2072  157.2593 H   0  0  0  0  0  0  0  0  0  0  0  0
  1  2  1  0  0  0  0
  1 15  1  0  0  0  0
  1 16  1  0  0  0  0
  1 17  1  0  0  0  0
  2  9  1  0  0  0  0
  2  3  2  0  0  0  0
  3  4  1  0  0  0  0
  4  5  2  0  0  0  0
  4  6  1  0  0  0  0
  6 14  1  0  0  0  0
  6  7  1  0  0  0  0
  7  8  1  0  0  0  0
  7  9  2  0  0  0  0
  8 18  1  0  0  0  0
  8 19  1  0  0  0  0
  8 20  1  0  0  0  0
  9 10  1  0  0  0  0
 10 11  1  0  0  0  0
 10 21  1  0  0  0  0
 10 22  1  0  0  0  0
 11 12  2  0  0  0  0
 11 13  1  0  0  0  0
M  CHG  1  13  -1
M  END
> <s_m_source_file>
AV-unprocessed.smi

> <i_m_source_file_index>
2685

> <i_lp_mmshare_version>
43012

> <i_f3d_flags>
0

> <s_epik_input>
W0NIM11jMW5jKD1PKVtuSF1jKFtDSDNdKWMxW0NIMl1DKD1PKVtPSF0=

> <s_epik_cmdline>
J2VwaWtfcHl0aG9uJywgJy1waCcsICc3LjAnLCAnLXRuJywgJzgnLCAnLW1hJywgJzIwMCcsICctbWV0YWxfYmluZGluZycsICctaW1hZScsICc8aW5maWxlLm1hZT4nLCAnLW9tYWUnLCAnPG91dGZpbGUubWFlPic=

> <r_lp_tautomer_probability>
1

> <r_epik_Ionization_Penalty>
0.00220208

> <r_epik_Ionization_Penalty_Charging>
0.000649408

> <r_epik_Ionization_Penalty_Neutral>
0.00155267

> <r_epik_State_Penalty>
-0

> <r_epik_Charging_Adjusted_Penalty>
0.000649408

> <i_epik_Tot_Q>
-1

> <i_epik_Tot_abs_Q>
1

> <r_epik_Metal_State_Penalty>
0.0484136

> <b_epik_Metal_Only>
0

> <s_lp_Force_Field>
OPLS_2005

> <r_lp_Energy>
-3.03599

> <b_lp_Chiralities_Consistent>
1

> <s_lp_Variant>
AV-unprocessed.smi:2685-1

> <Gold.Version>
5.8.1

> <Gold.Id.Protein>
6NUR|6NUR_protein|mol2

> <Gold.PLP.Fitness>
36.9092

> <Gold.PLP.PLP>
-25.4213

> <Gold.PLP.part.hbond>
-3.0000

> <Gold.PLP.part.metal>
0.0000

> <Gold.PLP.part.buried>
-5.4385

> <Gold.PLP.part.nonpolar>
-16.7566

> <Gold.PLP.part.repulsive>
0.1636

> <Gold.PLP.ligand.clash>
0.0000

> <Gold.PLP.ligand.torsion>
0.2567

> <Gold.PLP.Chemscore.Hbond>
4.0000

> <Gold.PLP.Chemscore.CHOScore>
0.0000

> <Gold.PLP.Chemscore.Metal>
0.0000

> <Gold.Chemscore.Hbonds>
donor molecule, donor type, donor heavy atom, donor atom, acceptor molecule, acceptor atom, score
      L1  H     6    14       P1  8028  1.00
      P1  H  7989  7998       L1    13  1.00
      P1  H  7997  8009       L1    12  2.00

> <Gold.PLP.Chemscore.Internal.Correction>
0.0013

> <Gold.Rescore>
     Score         DG    S(hbond)    S(metal)    S(lipo)     H(rot)  DE(clash)    DE(int)     intcor
     14.61     -16.22       2.91        0.00      41.97       1.52       0.00       1.62       ----

> <Gold.Chemscore.Fitness>
14.6082

> <Gold.Chemscore.DG>
-16.2250

> <Gold.Chemscore.ZeroCoef>
-5.4800

> <Gold.Chemscore.Hbond>
2.9112

> <Gold.Chemscore.Metal>
0.0000

> <Gold.Chemscore.Lipo>
41.9667

> <Gold.Chemscore.Internal_Hbond>
0.0000

> <Gold.Chemscore.DEClash>
0.0000

> <Gold.Chemscore.DEInternal>
1.6167

> <Gold.Chemscore.Rot>
1.5189

> <Gold.Chemscore.Internal.Correction>
   9.000000E+99

> <Gold.Chemscore.Hbonds>
donor molecule, donor type, donor heavy atom, donor atom, acceptor molecule, acceptor atom, score
      L1  H     6    14       P1  8028  0.97
      P1  H  7989  7998       L1    13  0.97
      P1  H  7997  8009       L1    12  0.67

> <Gold.Chemscore.Hbond.Weighted>
-9.7233

> <Gold.Chemscore.Metal.Weighted>
-0.0000

> <Gold.Chemscore.Lipo.Weighted>
-4.9101

> <Gold.Chemscore.Internal_Hbond.Weighted>
0.0000

> <Gold.Chemscore.DEClash.Weighted>
0.0000

> <Gold.Chemscore.DEInternal.Weighted>
1.6167

> <Gold.Chemscore.Rot.Weighted>
3.8884

> <Gold.Chemscore.Internal.Correction.Weighted>
   9.000000E+99

> <Gold.Protein.RotatedTorsions>
[ 6907 6896 6895 6894 ] final  -23.76 input  -60.11 | X-H torsion
[ 7974 7965 7964 7962 ] final  -78.65 input  175.53 | X-H torsion
[ 8008 7997 7996 7995 ] final -145.56 input   59.86 | X-H torsion
[ 10167 10162 10161 10158 ] final  -99.17 input  -65.29 | X-H torsion
[ 10718 10713 10712 10709 ] final   36.90 input   66.30 | X-H torsion
[ 10763 10752 10751 10750 ] final  144.25 input  -60.55 | X-H torsion
[ 11005 11000 10999 10996 ] final  122.59 input  -57.11 | X-H torsion

> <Gold.Protein.ActiveResidues>
 VAL166  LYS551  ARG553  GLY616  TRP617  ASP618  TYR619  PRO620  LYS621  CYS622 
 ASP623  PHE694  ASN695  SER759  ASP760  ASP761  ALA762  ILE779  LEU786  VAL792 
 PHE793  MET794  SER795  GLU796  ALA797  LYS798  CYS799  TRP800  GLU811  SER814 

> <Gold.Protein.RotatedAtoms>
  151.1993  135.0435  159.8865 H   0  0  0  0  0  0  0  0  0  0  0  0  # atno 6907 bound_to 6896
  152.5434  134.0868  159.8270 H   0  0  0  0  0  0  0  0  0  0  0  0  # atno 6908 bound_to 6896
  151.1007  133.5198  159.2642 H   0  0  0  0  0  0  0  0  0  0  0  0  # atno 6909 bound_to 6896
  145.5837  140.9443  143.1330 H   0  0  0  0  0  0  0  0  0  0  0  0  # atno 7974 bound_to 7965
  155.5452  140.0611  157.2861 H   0  0  0  0  0  0  0  0  0  0  0  0  # atno 8008 bound_to 7997
  154.4439  140.1912  156.0675 H   0  0  0  0  0  0  0  0  0  0  0  0  # atno 8009 bound_to 7997
  156.0556  140.3279  155.7405 H   0  0  0  0  0  0  0  0  0  0  0  0  # atno 8010 bound_to 7997
  140.2652  143.3380  152.0587 H   0  0  0  0  0  0  0  0  0  0  0  0  # atno 10167 bound_to 10162
  157.3405  130.7545  149.6908 H   0  0  0  0  0  0  0  0  0  0  0  0  # atno 10718 bound_to 10713
  153.9858  135.2937  155.3416 H   0  0  0  0  0  0  0  0  0  0  0  0  # atno 10763 bound_to 10752
  154.7243  135.5095  153.8864 H   0  0  0  0  0  0  0  0  0  0  0  0  # atno 10764 bound_to 10752
  153.0833  135.6685  154.0116 H   0  0  0  0  0  0  0  0  0  0  0  0  # atno 10765 bound_to 10752
  139.9275  134.9641  156.8132 H   0  0  0  0  0  0  0  0  0  0  0  0  # atno 11005 bound_to 11000
  144.7382  139.7523  143.7321 LP  0  0  0  0  0  0  0  0  0  0  0  0  # atno 17320 bound_to 7965
  146.1698  139.4844  142.9935 LP  0  0  0  0  0  0  0  0  0  0  0  0  # atno 17321 bound_to 7965
  139.5005  144.6693  151.6282 LP  0  0  0  0  0  0  0  0  0  0  0  0  # atno 17342 bound_to 10162
  140.5934  143.9739  150.6339 LP  0  0  0  0  0  0  0  0  0  0  0  0  # atno 17343 bound_to 10162
  155.9707  130.4169  150.4254 LP  0  0  0  0  0  0  0  0  0  0  0  0  # atno 17370 bound_to 10713
  157.2301  131.0502  151.2497 LP  0  0  0  0  0  0  0  0  0  0  0  0  # atno 17371 bound_to 10713
  140.6295  133.9919  155.7655 LP  0  0  0  0  0  0  0  0  0  0  0  0  # atno 17394 bound_to 11000
  141.0842  134.0015  157.3338 LP  0  0  0  0  0  0  0  0  0  0  0  0  # atno 17395 bound_to 11000

$$$$
