AV-unprocessed.smi:1744|AV-procd|sdf|7026|dock4
  -GOLD-   22720 8243D 1   1.00000     0.00000
 Structure written by MMmdl.
 44 45  0  0  0  0  0  0  0  0  2 V2000
  151.3673  145.2223  159.0817 C   0  0  0  0  0  0  0  0  0  0  0  0
  152.7078  144.4938  158.9238 C   0  0  0  0  0  0  0  0  0  0  0  0
  152.5476  143.0536  158.9769 N   0  0  0  0  0  0  0  0  0  0  0  0
  151.8086  142.2449  158.1365 C   0  0  0  0  0  0  0  0  0  0  0  0
  151.9788  140.9744  158.5983 C   0  0  0  0  0  0  0  0  0  0  0  0
  151.3892  139.8199  158.0258 N   0  0  0  0  0  0  0  0  0  0  0  0
  151.6235  139.3081  156.8068 C   0  0  0  0  0  0  0  0  0  0  0  0
  152.3973  139.7826  155.9757 O   0  0  0  0  0  0  0  0  0  0  0  0
  150.8968  138.2011  156.5955 N   0  0  0  0  0  0  0  0  0  0  0  0
  150.9206  137.3942  155.3758 C   0  0  2  0  0  0  0  0  0  0  0  0
  150.9023  138.2701  154.1073 C   0  0  0  0  0  0  0  0  0  0  0  0
  149.5408  138.9565  153.9012 C   0  0  0  0  0  0  0  0  0  0  0  0
  148.4381  137.9590  153.8639 N   0  3  2  0  0  0  0  0  0  0  0  0
  147.1203  138.5591  153.5307 C   0  0  0  0  0  0  0  0  0  0  0  0
  147.0893  139.2068  152.1422 C   0  0  0  0  0  0  0  0  0  0  0  0
  147.0999  140.5409  152.1001 N   0  0  0  0  0  0  0  0  0  0  0  0
  147.0404  138.5194  151.1237 O   0  0  0  0  0  0  0  0  0  0  0  0
  148.3926  137.1480  155.1074 C   0  0  0  0  0  0  0  0  0  0  0  0
  149.7287  136.4218  155.3507 C   0  0  0  0  0  0  0  0  0  0  0  0
  152.8351  141.0839  159.7305 C   0  0  0  0  0  0  0  0  0  0  0  0
  153.1727  142.3459  159.9501 N   0  0  0  0  0  0  0  0  0  0  0  0
  151.5079  146.3028  159.0520 H   0  0  0  0  0  0  0  0  0  0  0  0
  150.8937  144.9737  160.0320 H   0  0  0  0  0  0  0  0  0  0  0  0
  150.6756  144.9559  158.2818 H   0  0  0  0  0  0  0  0  0  0  0  0
  153.1764  144.7600  157.9752 H   0  0  0  0  0  0  0  0  0  0  0  0
  153.3959  144.7980  159.7136 H   0  0  0  0  0  0  0  0  0  0  0  0
  151.2425  142.6358  157.3037 H   0  0  0  0  0  0  0  0  0  0  0  0
  150.7197  139.3348  158.6048 H   0  0  0  0  0  0  0  0  0  0  0  0
  150.2938  137.8845  157.3405 H   0  0  0  0  0  0  0  0  0  0  0  0
  151.8384  136.8030  155.3824 H   0  0  0  0  0  0  0  0  0  0  0  0
  151.6965  139.0168  154.1426 H   0  0  0  0  0  0  0  0  0  0  0  0
  151.1183  137.6452  153.2396 H   0  0  0  0  0  0  0  0  0  0  0  0
  149.3569  139.6774  154.6994 H   0  0  0  0  0  0  0  0  0  0  0  0
  149.5666  139.5226  152.9697 H   0  0  0  0  0  0  0  0  0  0  0  0
  146.3533  137.7834  153.5280 H   0  0  0  0  0  0  0  0  0  0  0  0
  146.8322  139.2812  154.2969 H   0  0  0  0  0  0  0  0  0  0  0  0
  147.0865  141.0223  151.2125 H   0  0  0  0  0  0  0  0  0  0  0  0
  147.1273  141.0689  152.9612 H   0  0  0  0  0  0  0  0  0  0  0  0
  148.1477  137.7910  155.9542 H   0  0  0  0  0  0  0  0  0  0  0  0
  147.5955  136.4071  155.0336 H   0  0  0  0  0  0  0  0  0  0  0  0
  149.8832  135.6893  154.5572 H   0  0  0  0  0  0  0  0  0  0  0  0
  149.6837  135.8534  156.2807 H   0  0  0  0  0  0  0  0  0  0  0  0
  153.2174  140.3189  160.3898 H   0  0  0  0  0  0  0  0  0  0  0  0
  148.6483  137.3159  153.1134 H   0  0  0  0  0  0  0  0  0  0  0  0
  1  2  1  0  0  0  0
  1 22  1  0  0  0  0
  1 23  1  0  0  0  0
  1 24  1  0  0  0  0
  2  3  1  0  0  0  0
  2 25  1  0  0  0  0
  2 26  1  0  0  0  0
  3 21  1  0  0  0  0
  3  4  1  0  0  0  0
  4  5  2  0  0  0  0
  4 27  1  0  0  0  0
  5  6  1  0  0  0  0
  5 20  1  0  0  0  0
  6  7  1  0  0  0  0
  6 28  1  0  0  0  0
  7  8  2  0  0  0  0
  7  9  1  0  0  0  0
  9 10  1  0  0  0  0
  9 29  1  0  0  0  0
 10 19  1  0  0  0  0
 10 11  1  0  0  0  0
 10 30  1  0  0  0  0
 11 12  1  0  0  0  0
 11 31  1  0  0  0  0
 11 32  1  0  0  0  0
 12 13  1  0  0  0  0
 12 33  1  0  0  0  0
 12 34  1  0  0  0  0
 13 14  1  0  0  0  0
 13 18  1  0  0  0  0
 13 44  1  0  0  0  0
 14 15  1  0  0  0  0
 14 35  1  0  0  0  0
 14 36  1  0  0  0  0
 15 16  1  0  0  0  0
 15 17  2  0  0  0  0
 16 37  1  0  0  0  0
 16 38  1  0  0  0  0
 18 19  1  0  0  0  0
 18 39  1  0  0  0  0
 18 40  1  0  0  0  0
 19 41  1  0  0  0  0
 19 42  1  0  0  0  0
 20 21  2  0  0  0  0
 20 43  1  0  0  0  0
M  CHG  1  13   1
M  END
> <s_m_source_file>
AV-unprocessed.smi

> <i_m_source_file_index>
1744

> <i_lp_mmshare_version>
43012

> <i_f3d_flags>
0

> <s_epik_input>
W0NIM11bQ0gyXW4xW2NIXWMoW2NIXW4xKVtOSF1DKD1PKVtOSF1bQ0hdMltDSDJdW0NIMl1OKFtDSDJdW0NIMl0yKVtDSDJdQyg9TylbTkgyXQ==

> <s_epik_cmdline>
J2VwaWtfcHl0aG9uJywgJy1waCcsICc3LjAnLCAnLXRuJywgJzgnLCAnLW1hJywgJzIwMCcsICctbWV0YWxfYmluZGluZycsICctaW1hZScsICc8aW5maWxlLm1hZT4nLCAnLW9tYWUnLCAnPG91dGZpbGUubWFlPic=

> <r_lp_tautomer_probability>
1

> <r_epik_Ionization_Penalty>
0.839033

> <r_epik_Ionization_Penalty_Charging>
0.838844

> <r_epik_Ionization_Penalty_Neutral>
0.000189439

> <r_epik_State_Penalty>
0.8734

> <r_epik_Charging_Adjusted_Penalty>
1.71224

> <i_epik_Tot_Q>
1

> <i_epik_Tot_abs_Q>
1

> <r_epik_Metal_State_Penalty>
0.89072

> <b_epik_Metal_Only>
0

> <s_lp_Force_Field>
OPLS_2005

> <r_lp_Energy>
17.546

> <b_lp_Chiralities_Consistent>
1

> <s_lp_Variant>
AV-unprocessed.smi:1744-3

> <Gold.Version>
5.8.1

> <Gold.Id.Protein>
6NUR|6NUR_protein|mol2

> <Gold.PLP.Fitness>
48.4887

> <Gold.PLP.PLP>
-38.4476

> <Gold.PLP.part.hbond>
-4.6662

> <Gold.PLP.part.metal>
0.0000

> <Gold.PLP.part.buried>
-5.4257

> <Gold.PLP.part.nonpolar>
-29.7430

> <Gold.PLP.part.repulsive>
1.1105

> <Gold.PLP.ligand.clash>
0.0000

> <Gold.PLP.ligand.torsion>
1.0046

> <Gold.PLP.Chemscore.Hbond>
4.0000

> <Gold.PLP.Chemscore.CHOScore>
0.0000

> <Gold.PLP.Chemscore.Metal>
0.0000

> <Gold.Chemscore.Hbonds>
donor molecule, donor type, donor heavy atom, donor atom, acceptor molecule, acceptor atom, score
      L1  H    13    44       P1  7948  2.00
      P1  H  7954  7966       L1    17  1.00
      P1  H  7997  8009       L1     8  1.00

> <Gold.PLP.Chemscore.Internal.Correction>
0.0502

> <Gold.Rescore>
     Score         DG    S(hbond)    S(metal)    S(lipo)     H(rot)  DE(clash)    DE(int)     intcor
     16.92     -19.45       2.95        0.00      83.80       2.22       0.43       2.09       ----

> <Gold.Chemscore.Fitness>
16.9190

> <Gold.Chemscore.DG>
-19.4451

> <Gold.Chemscore.ZeroCoef>
-5.4800

> <Gold.Chemscore.Hbond>
2.9481

> <Gold.Chemscore.Metal>
0.0000

> <Gold.Chemscore.Lipo>
83.7986

> <Gold.Chemscore.Internal_Hbond>
0.0000

> <Gold.Chemscore.DEClash>
0.4312

> <Gold.Chemscore.DEInternal>
2.0949

> <Gold.Chemscore.Rot>
2.2211

> <Gold.Chemscore.Internal.Correction>
   9.000000E+99

> <Gold.Chemscore.Hbonds>
donor molecule, donor type, donor heavy atom, donor atom, acceptor molecule, acceptor atom, score
      L1  H    13    44       P1  7948  1.00
      P1  H  7954  7966       L1    17  0.98
      P1  H  7997  8009       L1     8  0.96

> <Gold.Chemscore.Hbond.Weighted>
-9.8467

> <Gold.Chemscore.Metal.Weighted>
-0.0000

> <Gold.Chemscore.Lipo.Weighted>
-9.8044

> <Gold.Chemscore.Internal_Hbond.Weighted>
0.0000

> <Gold.Chemscore.DEClash.Weighted>
0.4312

> <Gold.Chemscore.DEInternal.Weighted>
2.0949

> <Gold.Chemscore.Rot.Weighted>
5.6860

> <Gold.Chemscore.Internal.Correction.Weighted>
   9.000000E+99

> <Gold.Protein.RotatedTorsions>
[ 6907 6896 6895 6894 ] final  -96.45 input  -60.11 | X-H torsion
[ 7974 7965 7964 7962 ] final  -56.41 input  175.53 | X-H torsion
[ 8008 7997 7996 7995 ] final -162.92 input   59.86 | X-H torsion
[ 10167 10162 10161 10158 ] final   72.38 input  -65.29 | X-H torsion
[ 10718 10713 10712 10709 ] final  -17.70 input   66.30 | X-H torsion
[ 10763 10752 10751 10750 ] final  -95.76 input  -60.55 | X-H torsion
[ 11005 11000 10999 10996 ] final  134.34 input  -57.11 | X-H torsion

> <Gold.Protein.ActiveResidues>
 VAL166  LYS551  ARG553  GLY616  TRP617  ASP618  TYR619  PRO620  LYS621  CYS622 
 ASP623  PHE694  ASN695  SER759  ASP760  ASP761  ALA762  ILE779  LEU786  VAL792 
 PHE793  MET794  SER795  GLU796  ALA797  LYS798  CYS799  TRP800  GLU811  SER814 

> <Gold.Protein.RotatedAtoms>
  150.6989  134.1501  159.4136 H   0  0  0  0  0  0  0  0  0  0  0  0  # atno 6907 bound_to 6896
  151.9484  135.0178  160.0549 H   0  0  0  0  0  0  0  0  0  0  0  0  # atno 6908 bound_to 6896
  152.2033  133.4821  159.5107 H   0  0  0  0  0  0  0  0  0  0  0  0  # atno 6909 bound_to 6896
  145.8630  140.8272  142.9927 H   0  0  0  0  0  0  0  0  0  0  0  0  # atno 7974 bound_to 7965
  155.8138  140.0909  157.1888 H   0  0  0  0  0  0  0  0  0  0  0  0  # atno 8008 bound_to 7997
  154.3979  140.1449  156.3478 H   0  0  0  0  0  0  0  0  0  0  0  0  # atno 8009 bound_to 7997
  155.8337  140.3441  155.5591 H   0  0  0  0  0  0  0  0  0  0  0  0  # atno 8010 bound_to 7997
  140.0360  144.5428  150.7471 H   0  0  0  0  0  0  0  0  0  0  0  0  # atno 10167 bound_to 10162
  156.5699  130.4747  149.6367 H   0  0  0  0  0  0  0  0  0  0  0  0  # atno 10718 bound_to 10713
  154.7178  135.5109  153.8764 H   0  0  0  0  0  0  0  0  0  0  0  0  # atno 10763 bound_to 10752
  153.0835  135.6638  154.0005 H   0  0  0  0  0  0  0  0  0  0  0  0  # atno 10764 bound_to 10752
  153.9834  135.3027  155.3397 H   0  0  0  0  0  0  0  0  0  0  0  0  # atno 10765 bound_to 10752
  139.9909  134.9515  156.9853 H   0  0  0  0  0  0  0  0  0  0  0  0  # atno 11005 bound_to 11000
  144.6726  140.1124  143.7454 LP  0  0  0  0  0  0  0  0  0  0  0  0  # atno 17320 bound_to 7965
  145.9226  139.2555  143.1372 LP  0  0  0  0  0  0  0  0  0  0  0  0  # atno 17321 bound_to 7965
  140.7281  143.2659  151.4048 LP  0  0  0  0  0  0  0  0  0  0  0  0  # atno 17342 bound_to 10162
  139.6045  144.1226  152.2234 LP  0  0  0  0  0  0  0  0  0  0  0  0  # atno 17343 bound_to 10162
  156.2724  130.7024  151.1825 LP  0  0  0  0  0  0  0  0  0  0  0  0  # atno 17370 bound_to 10713
  157.7350  131.0576  150.5492 LP  0  0  0  0  0  0  0  0  0  0  0  0  # atno 17371 bound_to 10713
  140.4911  134.1192  155.7233 LP  0  0  0  0  0  0  0  0  0  0  0  0  # atno 17394 bound_to 11000
  141.1565  133.8873  157.1964 LP  0  0  0  0  0  0  0  0  0  0  0  0  # atno 17395 bound_to 11000

$$$$
