AV-unprocessed.smi:645|AV-procd|sdf|3161|dock8
  -GOLD-   22720 0 83D 1   1.00000     0.00000
 Structure written by MMmdl.
 22 23  0  0  0  0  0  0  0  0  2 V2000
  150.1688  140.4948  156.7070 C   0  0  0  0  0  0  0  0  0  0  0  0
  151.0818  139.9245  157.8127 C   0  0  1  0  0  0  0  0  0  0  0  0
  151.8352  141.0301  158.5729 C   0  0  0  0  0  0  0  0  0  0  0  0
  151.7027  142.4000  158.2369 C   0  0  0  0  0  0  0  0  0  0  0  0
  152.4281  143.3577  158.9730 C   0  0  0  0  0  0  0  0  0  0  0  0
  153.2551  143.0431  159.9915 N   0  0  0  0  0  0  0  0  0  0  0  0
  153.3836  141.7394  160.3133 C   0  0  0  0  0  0  0  0  0  0  0  0
  152.7051  140.7048  159.6401 C   0  0  0  0  0  0  0  0  0  0  0  0
  150.2978  139.0620  158.6761 N   0  0  0  0  0  0  0  0  0  0  0  0
  150.7471  137.8087  158.6590 C   0  0  0  0  0  0  0  0  0  0  0  0
  150.2294  136.9274  159.3412 O   0  0  0  0  0  0  0  0  0  0  0  0
  151.7918  137.7020  157.8160 N   0  5  0  0  0  0  0  0  0  0  0  0
  152.0699  138.8938  157.2438 C   0  0  0  0  0  0  0  0  0  0  0  0
  152.9219  139.1846  156.4041 O   0  0  0  0  0  0  0  0  0  0  0  0
  150.7316  141.0588  155.9630 H   0  0  0  0  0  0  0  0  0  0  0  0
  149.4175  141.1635  157.1278 H   0  0  0  0  0  0  0  0  0  0  0  0
  149.6401  139.7017  156.1761 H   0  0  0  0  0  0  0  0  0  0  0  0
  151.0594  142.7307  157.4355 H   0  0  0  0  0  0  0  0  0  0  0  0
  152.3411  144.4076  158.7355 H   0  0  0  0  0  0  0  0  0  0  0  0
  154.0481  141.5121  161.1338 H   0  0  0  0  0  0  0  0  0  0  0  0
  152.8466  139.6800  159.9495 H   0  0  0  0  0  0  0  0  0  0  0  0
  149.5250  139.3904  159.2359 H   0  0  0  0  0  0  0  0  0  0  0  0
  1  2  1  0  0  0  0
  1 15  1  0  0  0  0
  1 16  1  0  0  0  0
  1 17  1  0  0  0  0
  2 13  1  0  0  0  0
  2  3  1  0  0  0  0
  2  9  1  0  0  0  0
  3  8  1  0  0  0  0
  3  4  2  0  0  0  0
  4  5  1  0  0  0  0
  4 18  1  0  0  0  0
  5  6  2  0  0  0  0
  5 19  1  0  0  0  0
  6  7  1  0  0  0  0
  7  8  2  0  0  0  0
  7 20  1  0  0  0  0
  8 21  1  0  0  0  0
  9 10  1  0  0  0  0
  9 22  1  0  0  0  0
 10 11  2  0  0  0  0
 10 12  1  0  0  0  0
 12 13  1  0  0  0  0
 13 14  2  0  0  0  0
M  CHG  1  12  -1
M  END
> <s_m_source_file>
AV-unprocessed.smi

> <i_m_source_file_index>
645

> <i_lp_mmshare_version>
43012

> <i_f3d_flags>
0

> <s_epik_input>
Tz1DMVtOSF1DKD1PKVtOSF1bQ0BAXTEoW0NIM10pYzJbY0hdW2NIXW5bY0hdW2NIXTI=

> <s_epik_cmdline>
J2VwaWtfcHl0aG9uJywgJy1waCcsICc3LjAnLCAnLXRuJywgJzgnLCAnLW1hJywgJzIwMCcsICctbWV0YWxfYmluZGluZycsICctaW1hZScsICc8aW5maWxlLm1hZT4nLCAnLW9tYWUnLCAnPG91dGZpbGUubWFlPic=

> <r_epik_Ionization_Penalty>
1.83307

> <r_epik_Ionization_Penalty_Charging>
1.82122

> <r_epik_Ionization_Penalty_Neutral>
0.0118514

> <r_epik_State_Penalty>
1.93645

> <r_epik_Charging_Adjusted_Penalty>
3.75767

> <i_epik_Tot_Q>
-1

> <i_epik_Tot_abs_Q>
1

> <r_epik_Metal_State_Penalty>
0.53507

> <b_epik_Metal_Only>
0

> <s_lp_Force_Field>
OPLS_2005

> <r_lp_Energy>
9.09868

> <b_lp_Chiralities_Consistent>
1

> <s_lp_Variant>
AV-unprocessed.smi:645-3

> <Gold.Version>
5.8.1

> <Gold.Id.Protein>
6NUR|6NUR_protein|mol2

> <Gold.PLP.Fitness>
29.1383

> <Gold.PLP.PLP>
-23.1463

> <Gold.PLP.part.hbond>
-1.8238

> <Gold.PLP.part.metal>
0.0000

> <Gold.PLP.part.buried>
-4.4383

> <Gold.PLP.part.nonpolar>
-17.5326

> <Gold.PLP.part.repulsive>
0.1919

> <Gold.PLP.ligand.clash>
0.0000

> <Gold.PLP.ligand.torsion>
0.0450

> <Gold.PLP.Chemscore.Hbond>
2.0000

> <Gold.PLP.Chemscore.CHOScore>
0.0000

> <Gold.PLP.Chemscore.Metal>
0.0000

> <Gold.Chemscore.Hbonds>
donor molecule, donor type, donor heavy atom, donor atom, acceptor molecule, acceptor atom, score
      P1  H  6896  6908       L1    11  0.80
      P1  H  7997  8009       L1    14  1.00

> <Gold.PLP.Chemscore.Internal.Correction>
0.0820

> <Gold.Rescore>
     Score         DG    S(hbond)    S(metal)    S(lipo)     H(rot)  DE(clash)    DE(int)     intcor
     16.33     -16.37       1.99        0.00      58.21       1.00       0.00       0.04       ----

> <Gold.Chemscore.Fitness>
16.3253

> <Gold.Chemscore.DG>
-16.3696

> <Gold.Chemscore.ZeroCoef>
-5.4800

> <Gold.Chemscore.Hbond>
1.9876

> <Gold.Chemscore.Metal>
0.0000

> <Gold.Chemscore.Lipo>
58.2125

> <Gold.Chemscore.Internal_Hbond>
0.0000

> <Gold.Chemscore.DEClash>
0.0000

> <Gold.Chemscore.DEInternal>
0.0443

> <Gold.Chemscore.Rot>
1.0000

> <Gold.Chemscore.Internal.Correction>
   9.000000E+99

> <Gold.Chemscore.Hbonds>
donor molecule, donor type, donor heavy atom, donor atom, acceptor molecule, acceptor atom, score
      P1  H  6896  6908       L1    11  0.78
      P1  H  7997  8009       L1    14  0.99

> <Gold.Chemscore.Hbond.Weighted>
-6.6388

> <Gold.Chemscore.Metal.Weighted>
-0.0000

> <Gold.Chemscore.Lipo.Weighted>
-6.8109

> <Gold.Chemscore.Internal_Hbond.Weighted>
0.0000

> <Gold.Chemscore.DEClash.Weighted>
0.0000

> <Gold.Chemscore.DEInternal.Weighted>
0.0443

> <Gold.Chemscore.Rot.Weighted>
2.5600

> <Gold.Chemscore.Internal.Correction.Weighted>
   9.000000E+99

> <Gold.Protein.RotatedTorsions>
[ 6907 6896 6895 6894 ] final -147.48 input  -60.11 | X-H torsion
[ 7974 7965 7964 7962 ] final -158.76 input  175.53 | X-H torsion
[ 8008 7997 7996 7995 ] final -152.34 input   59.86 | X-H torsion
[ 10167 10162 10161 10158 ] final  116.88 input  -65.29 | X-H torsion
[ 10718 10713 10712 10709 ] final  -24.89 input   66.30 | X-H torsion
[ 10763 10752 10751 10750 ] final  112.35 input  -60.55 | X-H torsion
[ 11005 11000 10999 10996 ] final   94.48 input  -57.11 | X-H torsion

> <Gold.Protein.ActiveResidues>
 VAL166  LYS551  ARG553  GLY616  TRP617  ASP618  TYR619  PRO620  LYS621  CYS622 
 ASP623  PHE694  ASN695  SER759  ASP760  ASP761  ALA762  ILE779  LEU786  VAL792 
 PHE793  MET794  SER795  GLU796  ALA797  LYS798  CYS799  TRP800  GLU811  SER814 

> <Gold.Protein.RotatedAtoms>
  151.1563  133.4874  159.2594 H   0  0  0  0  0  0  0  0  0  0  0  0  # atno 6907 bound_to 6896
  151.1501  135.0223  159.8674 H   0  0  0  0  0  0  0  0  0  0  0  0  # atno 6908 bound_to 6896
  152.5463  134.1448  159.8547 H   0  0  0  0  0  0  0  0  0  0  0  0  # atno 6909 bound_to 6896
  144.7492  140.3781  143.6061 H   0  0  0  0  0  0  0  0  0  0  0  0  # atno 7974 bound_to 7965
  155.6537  140.0715  157.2578 H   0  0  0  0  0  0  0  0  0  0  0  0  # atno 8008 bound_to 7997
  154.4157  140.1729  156.1752 H   0  0  0  0  0  0  0  0  0  0  0  0  # atno 8009 bound_to 7997
  155.9756  140.3358  155.6618 H   0  0  0  0  0  0  0  0  0  0  0  0  # atno 8010 bound_to 7997
  139.6217  144.7102  151.2620 H   0  0  0  0  0  0  0  0  0  0  0  0  # atno 10167 bound_to 10162
  156.4717  130.4525  149.6865 H   0  0  0  0  0  0  0  0  0  0  0  0  # atno 10718 bound_to 10713
  153.4766  135.3689  155.2419 H   0  0  0  0  0  0  0  0  0  0  0  0  # atno 10763 bound_to 10752
  154.8756  135.3944  154.3749 H   0  0  0  0  0  0  0  0  0  0  0  0  # atno 10764 bound_to 10752
  153.4346  135.7083  153.6273 H   0  0  0  0  0  0  0  0  0  0  0  0  # atno 10765 bound_to 10752
  139.8798  134.8847  156.3870 H   0  0  0  0  0  0  0  0  0  0  0  0  # atno 11005 bound_to 11000
  145.7006  139.1660  143.2595 LP  0  0  0  0  0  0  0  0  0  0  0  0  # atno 17320 bound_to 7965
  146.1418  140.7047  142.9363 LP  0  0  0  0  0  0  0  0  0  0  0  0  # atno 17321 bound_to 7965
  140.7386  143.6643  150.8136 LP  0  0  0  0  0  0  0  0  0  0  0  0  # atno 17342 bound_to 10162
  140.0255  143.5498  152.2782 LP  0  0  0  0  0  0  0  0  0  0  0  0  # atno 17343 bound_to 10162
  156.3612  130.7482  151.2455 LP  0  0  0  0  0  0  0  0  0  0  0  0  # atno 17370 bound_to 10713
  157.7491  131.0350  150.4341 LP  0  0  0  0  0  0  0  0  0  0  0  0  # atno 17371 bound_to 10713
  140.9359  133.7547  156.0084 LP  0  0  0  0  0  0  0  0  0  0  0  0  # atno 17394 bound_to 11000
  140.8276  134.3216  157.5360 LP  0  0  0  0  0  0  0  0  0  0  0  0  # atno 17395 bound_to 11000

$$$$
