AV-unprocessed.smi:3255|AV-procd|sdf|12463|dock6
  -GOLD-   2272018363D 1   1.00000     0.00000
 Structure written by MMmdl.
 38 39  0  0  0  0  0  0  0  0  1 V2000
  145.3835  142.4675  159.3568 C   0  0  0  0  0  0  0  0  0  0  0  0
  145.2369  143.9912  159.2343 C   0  0  2  0  0  0  0  0  0  0  0  0
  146.5692  144.5905  159.1708 N   0  0  0  0  0  0  0  0  0  0  0  0
  147.5571  144.3926  160.0554 C   0  0  0  0  0  0  0  0  0  0  0  0
  147.4547  143.6913  161.0620 O   0  0  0  0  0  0  0  0  0  0  0  0
  148.6807  145.0295  159.6963 N   0  0  0  0  0  0  0  0  0  0  0  0
  149.9529  144.9520  160.4091 C   0  0  0  0  0  0  0  0  0  0  0  0
  151.1553  144.9553  159.4461 C   0  0  0  0  0  0  0  0  0  0  0  0
  151.9867  143.7729  159.5801 N   0  0  0  0  0  0  0  0  0  0  0  0
  152.4702  142.9682  158.5564 C   0  0  0  0  0  0  0  0  0  0  0  0
  153.1988  141.9654  159.1550 C   0  0  0  0  0  0  0  0  0  0  0  0
  153.1863  142.1378  160.5370 N   0  0  0  0  0  0  0  0  0  0  0  0
  152.4519  143.2289  160.7132 C   0  0  0  0  0  0  0  0  0  0  0  0
  144.4299  144.5875  160.4071 C   0  0  1  0  0  0  0  0  0  0  0  0
  143.0554  143.9527  160.6399 C   0  0  0  0  0  0  0  0  0  0  0  0
  142.8324  144.2210  162.1093 C   0  0  0  0  0  0  0  0  0  0  0  0
  144.2331  144.0040  162.6695 C   0  0  0  0  0  0  0  0  0  0  0  0
  145.1295  144.4074  161.6379 O   0  0  0  0  0  0  0  0  0  0  0  0
  144.4095  141.9776  159.3707 H   0  0  0  0  0  0  0  0  0  0  0  0
  145.9079  142.1900  160.2718 H   0  0  0  0  0  0  0  0  0  0  0  0
  145.9425  142.0586  158.5145 H   0  0  0  0  0  0  0  0  0  0  0  0
  144.6961  144.1948  158.3083 H   0  0  0  0  0  0  0  0  0  0  0  0
  146.7585  145.1837  158.3761 H   0  0  0  0  0  0  0  0  0  0  0  0
  148.6644  145.5835  158.8527 H   0  0  0  0  0  0  0  0  0  0  0  0
  150.0152  145.8217  161.0630 H   0  0  0  0  0  0  0  0  0  0  0  0
  149.9858  144.0798  161.0646 H   0  0  0  0  0  0  0  0  0  0  0  0
  150.8159  145.0335  158.4124 H   0  0  0  0  0  0  0  0  0  0  0  0
  151.7794  145.8290  159.6371 H   0  0  0  0  0  0  0  0  0  0  0  0
  152.2547  143.1642  157.5164 H   0  0  0  0  0  0  0  0  0  0  0  0
  153.7266  141.1399  158.7005 H   0  0  0  0  0  0  0  0  0  0  0  0
  152.2407  143.6382  161.6903 H   0  0  0  0  0  0  0  0  0  0  0  0
  144.2974  145.6608  160.2613 H   0  0  0  0  0  0  0  0  0  0  0  0
  142.2783  144.3799  160.0061 H   0  0  0  0  0  0  0  0  0  0  0  0
  143.0896  142.8767  160.4622 H   0  0  0  0  0  0  0  0  0  0  0  0
  142.5199  145.2552  162.2595 H   0  0  0  0  0  0  0  0  0  0  0  0
  142.0852  143.5660  162.5580 H   0  0  0  0  0  0  0  0  0  0  0  0
  144.4059  144.5606  163.5909 H   0  0  0  0  0  0  0  0  0  0  0  0
  144.3989  142.9460  162.8763 H   0  0  0  0  0  0  0  0  0  0  0  0
  1  2  1  0  0  0  0
  1 19  1  0  0  0  0
  1 20  1  0  0  0  0
  1 21  1  0  0  0  0
  2  3  1  0  0  0  0
  2 14  1  0  0  0  0
  2 22  1  0  0  0  0
  3  4  1  0  0  0  0
  3 23  1  0  0  0  0
  4  5  2  0  0  0  0
  4  6  1  0  0  0  0
  6  7  1  0  0  0  0
  6 24  1  0  0  0  0
  7  8  1  0  0  0  0
  7 25  1  0  0  0  0
  7 26  1  0  0  0  0
  8  9  1  0  0  0  0
  8 27  1  0  0  0  0
  8 28  1  0  0  0  0
  9 13  1  0  0  0  0
  9 10  1  0  0  0  0
 10 11  2  0  0  0  0
 10 29  1  0  0  0  0
 11 12  1  0  0  0  0
 11 30  1  0  0  0  0
 12 13  2  0  0  0  0
 13 31  1  0  0  0  0
 14 18  1  0  0  0  0
 14 15  1  0  0  0  0
 14 32  1  0  0  0  0
 15 16  1  0  0  0  0
 15 33  1  0  0  0  0
 15 34  1  0  0  0  0
 16 17  1  0  0  0  0
 16 35  1  0  0  0  0
 16 36  1  0  0  0  0
 17 18  1  0  0  0  0
 17 37  1  0  0  0  0
 17 38  1  0  0  0  0
M  END
> <s_m_source_file>
AV-unprocessed.smi

> <i_m_source_file_index>
3255

> <i_lp_mmshare_version>
43012

> <i_f3d_flags>
0

> <s_epik_input>
TzFbQ0gyXVtDSDJdW0NIMl1bQ0BIXTFbQ0BIXShbQ0gzXSlbTkhdQyg9TylbTkhdW0NIMl1bQ0gyXW4yW2NIXVtjSF1uW2NIXTI=

> <s_epik_cmdline>
J2VwaWtfcHl0aG9uJywgJy1waCcsICc3LjAnLCAnLXRuJywgJzgnLCAnLW1hJywgJzIwMCcsICctbWV0YWxfYmluZGluZycsICctaW1hZScsICc8aW5maWxlLm1hZT4nLCAnLW9tYWUnLCAnPG91dGZpbGUubWFlPic=

> <r_lp_tautomer_probability>
1

> <r_epik_Ionization_Penalty>
0.620274

> <r_epik_Ionization_Penalty_Charging>
0.620225

> <r_epik_Ionization_Penalty_Neutral>
4.91362e-05

> <r_epik_State_Penalty>
0.636186

> <r_epik_Charging_Adjusted_Penalty>
1.25641

> <i_epik_Tot_Q>
0

> <i_epik_Tot_abs_Q>
0

> <r_epik_Metal_State_Penalty>
0.306491

> <b_epik_Metal_Only>
0

> <s_lp_Force_Field>
OPLS_2005

> <r_lp_Energy>
16.3443

> <b_lp_Chiralities_Consistent>
1

> <s_lp_Variant>
AV-unprocessed.smi:3255-7

> <Gold.Version>
5.8.1

> <Gold.Id.Protein>
6NUR|6NUR_protein|mol2

> <Gold.PLP.Fitness>
43.6777

> <Gold.PLP.PLP>
-36.2623

> <Gold.PLP.part.hbond>
-3.0000

> <Gold.PLP.part.metal>
0.0000

> <Gold.PLP.part.buried>
-6.0655

> <Gold.PLP.part.nonpolar>
-27.5089

> <Gold.PLP.part.repulsive>
0.4141

> <Gold.PLP.ligand.clash>
0.0000

> <Gold.PLP.ligand.torsion>
0.7661

> <Gold.PLP.Chemscore.Hbond>
2.9600

> <Gold.PLP.Chemscore.CHOScore>
0.0000

> <Gold.PLP.Chemscore.Metal>
0.0000

> <Gold.Chemscore.Hbonds>
donor molecule, donor type, donor heavy atom, donor atom, acceptor molecule, acceptor atom, score
      L1  H     3    23       P1  8029  1.00
      L1  H     6    24       P1  8029  0.99
      P1  H  6933  6944       L1     5  1.00

> <Gold.PLP.Chemscore.Internal.Correction>
0.0676

> <Gold.Rescore>
     Score         DG    S(hbond)    S(metal)    S(lipo)     H(rot)  DE(clash)    DE(int)     intcor
     15.05     -18.54       2.92        0.00      76.04       2.18       0.02       3.47       ----

> <Gold.Chemscore.Fitness>
15.0489

> <Gold.Chemscore.DG>
-18.5394

> <Gold.Chemscore.ZeroCoef>
-5.4800

> <Gold.Chemscore.Hbond>
2.9193

> <Gold.Chemscore.Metal>
0.0000

> <Gold.Chemscore.Lipo>
76.0423

> <Gold.Chemscore.Internal_Hbond>
0.0000

> <Gold.Chemscore.DEClash>
0.0208

> <Gold.Chemscore.DEInternal>
3.4697

> <Gold.Chemscore.Rot>
2.1828

> <Gold.Chemscore.Internal.Correction>
   9.000000E+99

> <Gold.Chemscore.Hbonds>
donor molecule, donor type, donor heavy atom, donor atom, acceptor molecule, acceptor atom, score
      L1  H     3    23       P1  8029  0.96
      L1  H     6    24       P1  8029  0.93
      P1  H  6933  6944       L1     5  1.00

> <Gold.Chemscore.Hbond.Weighted>
-9.7506

> <Gold.Chemscore.Metal.Weighted>
-0.0000

> <Gold.Chemscore.Lipo.Weighted>
-8.8969

> <Gold.Chemscore.Internal_Hbond.Weighted>
0.0000

> <Gold.Chemscore.DEClash.Weighted>
0.0208

> <Gold.Chemscore.DEInternal.Weighted>
3.4697

> <Gold.Chemscore.Rot.Weighted>
5.5881

> <Gold.Chemscore.Internal.Correction.Weighted>
   9.000000E+99

> <Gold.Protein.RotatedTorsions>
[ 6907 6896 6895 6894 ] final -147.69 input  -60.11 | X-H torsion
[ 7974 7965 7964 7962 ] final -117.64 input  175.53 | X-H torsion
[ 8008 7997 7996 7995 ] final  -32.42 input   59.86 | X-H torsion
[ 10167 10162 10161 10158 ] final  158.45 input  -65.29 | X-H torsion
[ 10718 10713 10712 10709 ] final   26.25 input   66.30 | X-H torsion
[ 10763 10752 10751 10750 ] final  166.08 input  -60.55 | X-H torsion
[ 11005 11000 10999 10996 ] final -153.26 input  -57.11 | X-H torsion

> <Gold.Protein.ActiveResidues>
 VAL166  LYS551  ARG553  GLY616  TRP617  ASP618  TYR619  PRO620  LYS621  CYS622 
 ASP623  PHE694  ASN695  SER759  ASP760  ASP761  ALA762  ILE779  LEU786  VAL792 
 PHE793  MET794  SER795  GLU796  ALA797  LYS798  CYS799  TRP800  GLU811  SER814 

> <Gold.Protein.RotatedAtoms>
  151.1592  133.4856  159.2594 H   0  0  0  0  0  0  0  0  0  0  0  0  # atno 6907 bound_to 6896
  151.1472  135.0209  159.8662 H   0  0  0  0  0  0  0  0  0  0  0  0  # atno 6908 bound_to 6896
  152.5463  134.1480  159.8560 H   0  0  0  0  0  0  0  0  0  0  0  0  # atno 6909 bound_to 6896
  145.0829  140.8438  143.4028 H   0  0  0  0  0  0  0  0  0  0  0  0  # atno 7974 bound_to 7965
  154.4180  140.1738  156.1724 H   0  0  0  0  0  0  0  0  0  0  0  0  # atno 8008 bound_to 7997
  155.9749  140.3382  155.6585 H   0  0  0  0  0  0  0  0  0  0  0  0  # atno 8009 bound_to 7997
  155.6576  140.0697  157.2556 H   0  0  0  0  0  0  0  0  0  0  0  0  # atno 8010 bound_to 7997
  139.4827  144.4823  151.8427 H   0  0  0  0  0  0  0  0  0  0  0  0  # atno 10167 bound_to 10162
  157.2043  130.6904  149.6201 H   0  0  0  0  0  0  0  0  0  0  0  0  # atno 10718 bound_to 10713
  154.3336  135.2754  155.2459 H   0  0  0  0  0  0  0  0  0  0  0  0  # atno 10763 bound_to 10752
  154.4760  135.5871  153.6359 H   0  0  0  0  0  0  0  0  0  0  0  0  # atno 10764 bound_to 10752
  152.9864  135.6100  154.3531 H   0  0  0  0  0  0  0  0  0  0  0  0  # atno 10765 bound_to 10752
  140.7101  134.3842  157.5199 H   0  0  0  0  0  0  0  0  0  0  0  0  # atno 11005 bound_to 11000
  145.1157  139.2727  143.5614 LP  0  0  0  0  0  0  0  0  0  0  0  0  # atno 17320 bound_to 7965
  146.3531  140.0766  142.8620 LP  0  0  0  0  0  0  0  0  0  0  0  0  # atno 17321 bound_to 7965
  140.4300  144.2129  150.5888 LP  0  0  0  0  0  0  0  0  0  0  0  0  # atno 17342 bound_to 10162
  140.4789  143.2386  151.8983 LP  0  0  0  0  0  0  0  0  0  0  0  0  # atno 17343 bound_to 10162
  155.9697  130.4572  150.5954 LP  0  0  0  0  0  0  0  0  0  0  0  0  # atno 17370 bound_to 10713
  157.3736  131.0769  151.1537 LP  0  0  0  0  0  0  0  0  0  0  0  0  # atno 17371 bound_to 10713
  139.8874  134.8884  156.2532 LP  0  0  0  0  0  0  0  0  0  0  0  0  # atno 17394 bound_to 11000
  141.0091  133.7106  156.1083 LP  0  0  0  0  0  0  0  0  0  0  0  0  # atno 17395 bound_to 11000

$$$$
