AV-unprocessed.smi:1996|AV-procd|sdf|8085|dock9
  -GOLD-   2272010303D 1   1.00000     0.00000
 Structure written by MMmdl.
 32 33  0  0  0  0  0  0  0  0  2 V2000
  151.0418  137.0355  159.7572 O   0  0  0  0  0  0  0  0  0  0  0  0
  150.0325  137.3208  159.1086 C   0  0  0  0  0  0  0  0  0  0  0  0
  150.0538  138.3627  158.2666 N   0  0  0  0  0  0  0  0  0  0  0  0
  151.2027  139.2274  158.0317 C   0  0  0  0  0  0  0  0  0  0  0  0
  150.7607  140.5464  157.3806 C   0  0  0  0  0  0  0  0  0  0  0  0
  151.4144  141.7645  158.0125 C   0  0  0  0  0  0  0  0  0  0  0  0
  151.2430  143.0048  157.5145 C   0  0  0  0  0  0  0  0  0  0  0  0
  151.8592  144.2575  158.1121 C   0  0  0  0  0  0  0  0  0  0  0  0
  152.4132  144.0211  159.5272 C   0  0  0  0  0  0  0  0  0  0  0  0
  153.1795  142.6951  159.6074 C   0  0  0  0  0  0  0  0  0  0  0  0
  152.2765  141.5032  159.2428 C   0  0  0  0  0  0  0  0  0  0  0  0
  148.8457  136.6726  159.1458 N   0  5  0  0  0  0  0  0  0  0  0  0
  148.3891  136.1753  160.3068 C   0  0  0  0  0  0  0  0  0  0  0  0
  147.9945  136.9625  161.3207 N   0  0  0  0  0  0  0  0  0  0  0  0
  147.5553  136.2485  162.4276 N   0  0  0  0  0  0  0  0  0  0  0  0
  147.6220  134.9344  162.2156 C   0  0  0  0  0  0  0  0  0  0  0  0
  148.2230  134.4498  160.6440 S   0  0  0  0  0  0  0  0  0  0  0  0
  149.2093  138.5672  157.7529 H   0  0  0  0  0  0  0  0  0  0  0  0
  151.7025  139.4268  158.9810 H   0  0  0  0  0  0  0  0  0  0  0  0
  151.9161  138.7065  157.3916 H   0  0  0  0  0  0  0  0  0  0  0  0
  150.9966  140.5372  156.3159 H   0  0  0  0  0  0  0  0  0  0  0  0
  149.6762  140.6408  157.4538 H   0  0  0  0  0  0  0  0  0  0  0  0
  150.6407  143.1498  156.6294 H   0  0  0  0  0  0  0  0  0  0  0  0
  152.6556  144.5910  157.4462 H   0  0  0  0  0  0  0  0  0  0  0  0
  151.1111  145.0503  158.1349 H   0  0  0  0  0  0  0  0  0  0  0  0
  153.0567  144.8513  159.8198 H   0  0  0  0  0  0  0  0  0  0  0  0
  151.5897  144.0015  160.2423 H   0  0  0  0  0  0  0  0  0  0  0  0
  154.0287  142.7305  158.9236 H   0  0  0  0  0  0  0  0  0  0  0  0
  153.5936  142.5555  160.6064 H   0  0  0  0  0  0  0  0  0  0  0  0
  151.6154  141.2753  160.0794 H   0  0  0  0  0  0  0  0  0  0  0  0
  152.8919  140.6185  159.0765 H   0  0  0  0  0  0  0  0  0  0  0  0
  147.3126  134.2460  162.9875 H   0  0  0  0  0  0  0  0  0  0  0  0
  1  2  2  0  0  0  0
  2  3  1  0  0  0  0
  2 12  1  0  0  0  0
  3  4  1  0  0  0  0
  3 18  1  0  0  0  0
  4  5  1  0  0  0  0
  4 19  1  0  0  0  0
  4 20  1  0  0  0  0
  5  6  1  0  0  0  0
  5 21  1  0  0  0  0
  5 22  1  0  0  0  0
  6 11  1  0  0  0  0
  6  7  2  0  0  0  0
  7  8  1  0  0  0  0
  7 23  1  0  0  0  0
  8  9  1  0  0  0  0
  8 24  1  0  0  0  0
  8 25  1  0  0  0  0
  9 10  1  0  0  0  0
  9 26  1  0  0  0  0
  9 27  1  0  0  0  0
 10 11  1  0  0  0  0
 10 28  1  0  0  0  0
 10 29  1  0  0  0  0
 11 30  1  0  0  0  0
 11 31  1  0  0  0  0
 12 13  1  0  0  0  0
 13 17  1  0  0  0  0
 13 14  2  0  0  0  0
 14 15  1  0  0  0  0
 15 16  2  0  0  0  0
 16 17  1  0  0  0  0
 16 32  1  0  0  0  0
M  CHG  1  12  -1
M  END
> <s_m_source_file>
AV-unprocessed.smi

> <i_m_source_file_index>
1996

> <i_lp_mmshare_version>
43012

> <i_f3d_flags>
0

> <s_epik_input>
czFbY0hdbm5jMVtOSF1DKD1PKVtOSF1bQ0gyXVtDSDJdQzI9W0NIXVtDSDJdW0NIMl1bQ0gyXVtDSDJdMg==

> <s_epik_cmdline>
J2VwaWtfcHl0aG9uJywgJy1waCcsICc3LjAnLCAnLXRuJywgJzgnLCAnLW1hJywgJzIwMCcsICctbWV0YWxfYmluZGluZycsICctaW1hZScsICc8aW5maWxlLm1hZT4nLCAnLW9tYWUnLCAnPG91dGZpbGUubWFlPic=

> <r_lp_tautomer_probability>
1

> <r_epik_Ionization_Penalty>
3.56684

> <r_epik_Ionization_Penalty_Charging>
3.52481

> <r_epik_Ionization_Penalty_Neutral>
0.0420339

> <r_epik_State_Penalty>
3.52326

> <r_epik_Charging_Adjusted_Penalty>
7.04807

> <i_epik_Tot_Q>
-1

> <i_epik_Tot_abs_Q>
1

> <r_epik_Metal_State_Penalty>
0.513455

> <b_epik_Metal_Only>
1

> <s_lp_Force_Field>
OPLS_2005

> <r_lp_Energy>
5.58763

> <b_lp_Chiralities_Consistent>
1

> <s_lp_Variant>
AV-unprocessed.smi:1996-2

> <Gold.Version>
5.8.1

> <Gold.Id.Protein>
6NUR|6NUR_protein|mol2

> <Gold.PLP.Fitness>
42.5106

> <Gold.PLP.PLP>
-36.9361

> <Gold.PLP.part.hbond>
-3.0850

> <Gold.PLP.part.metal>
0.0000

> <Gold.PLP.part.buried>
-5.0366

> <Gold.PLP.part.nonpolar>
-29.0554

> <Gold.PLP.part.repulsive>
0.1362

> <Gold.PLP.ligand.clash>
0.0000

> <Gold.PLP.ligand.torsion>
1.3864

> <Gold.PLP.Chemscore.Hbond>
2.7680

> <Gold.PLP.Chemscore.CHOScore>
0.0000

> <Gold.PLP.Chemscore.Metal>
0.0000

> <Gold.Chemscore.Hbonds>
donor molecule, donor type, donor heavy atom, donor atom, acceptor molecule, acceptor atom, score
      P1  H  6896  6908       L1     1  1.00
      P1  H  6931  6943       L1    14  1.00
      P1  H  6934  6947       L1    14  0.35

> <Gold.PLP.Chemscore.Internal.Correction>
0.0434

> <Gold.Rescore>
     Score         DG    S(hbond)    S(metal)    S(lipo)     H(rot)  DE(clash)    DE(int)     intcor
     18.84     -20.04       2.54        0.00      86.87       1.59       0.00       1.21       ----

> <Gold.Chemscore.Fitness>
18.8355

> <Gold.Chemscore.DG>
-20.0428

> <Gold.Chemscore.ZeroCoef>
-5.4800

> <Gold.Chemscore.Hbond>
2.5355

> <Gold.Chemscore.Metal>
0.0000

> <Gold.Chemscore.Lipo>
86.8724

> <Gold.Chemscore.Internal_Hbond>
0.0000

> <Gold.Chemscore.DEClash>
0.0009

> <Gold.Chemscore.DEInternal>
1.2064

> <Gold.Chemscore.Rot>
1.5898

> <Gold.Chemscore.Internal.Correction>
   9.000000E+99

> <Gold.Chemscore.Hbonds>
donor molecule, donor type, donor heavy atom, donor atom, acceptor molecule, acceptor atom, score
      P1  H  6896  6908       L1     1  0.85
      P1  H  6931  6943       L1    14  0.59
      P1  H  6934  6947       L1    14  0.34

> <Gold.Chemscore.Hbond.Weighted>
-8.4685

> <Gold.Chemscore.Metal.Weighted>
-0.0000

> <Gold.Chemscore.Lipo.Weighted>
-10.1641

> <Gold.Chemscore.Internal_Hbond.Weighted>
0.0000

> <Gold.Chemscore.DEClash.Weighted>
0.0009

> <Gold.Chemscore.DEInternal.Weighted>
1.2064

> <Gold.Chemscore.Rot.Weighted>
4.0698

> <Gold.Chemscore.Internal.Correction.Weighted>
   9.000000E+99

> <Gold.Protein.RotatedTorsions>
[ 6907 6896 6895 6894 ] final -134.95 input  -60.11 | X-H torsion
[ 7974 7965 7964 7962 ] final  103.17 input  175.53 | X-H torsion
[ 8008 7997 7996 7995 ] final  104.05 input   59.86 | X-H torsion
[ 10167 10162 10161 10158 ] final   15.24 input  -65.29 | X-H torsion
[ 10718 10713 10712 10709 ] final  142.58 input   66.30 | X-H torsion
[ 10763 10752 10751 10750 ] final  155.67 input  -60.55 | X-H torsion
[ 11005 11000 10999 10996 ] final   -2.29 input  -57.11 | X-H torsion

> <Gold.Protein.ActiveResidues>
 VAL166  LYS551  ARG553  GLY616  TRP617  ASP618  TYR619  PRO620  LYS621  CYS622 
 ASP623  PHE694  ASN695  SER759  ASP760  ASP761  ALA762  ILE779  LEU786  VAL792 
 PHE793  MET794  SER795  GLU796  ALA797  LYS798  CYS799  TRP800  GLU811  SER814 

> <Gold.Protein.RotatedAtoms>
  150.9920  133.6140  159.2706 H   0  0  0  0  0  0  0  0  0  0  0  0  # atno 6907 bound_to 6896
  151.3357  135.0851  159.9363 H   0  0  0  0  0  0  0  0  0  0  0  0  # atno 6908 bound_to 6896
  152.5249  133.9541  159.7740 H   0  0  0  0  0  0  0  0  0  0  0  0  # atno 6909 bound_to 6896
  145.3495  139.2443  143.3566 H   0  0  0  0  0  0  0  0  0  0  0  0  # atno 7974 bound_to 7965
  156.1538  140.3154  155.8692 H   0  0  0  0  0  0  0  0  0  0  0  0  # atno 8008 bound_to 7997
  155.3918  140.0494  157.3057 H   0  0  0  0  0  0  0  0  0  0  0  0  # atno 8009 bound_to 7997
  154.5083  140.2155  155.9219 H   0  0  0  0  0  0  0  0  0  0  0  0  # atno 8010 bound_to 7997
  140.5881  143.8850  150.6848 H   0  0  0  0  0  0  0  0  0  0  0  0  # atno 10167 bound_to 10162
  157.3789  131.0989  151.0757 H   0  0  0  0  0  0  0  0  0  0  0  0  # atno 10718 bound_to 10713
  154.1721  135.2804  155.3077 H   0  0  0  0  0  0  0  0  0  0  0  0  # atno 10763 bound_to 10752
  154.6067  135.5512  153.7433 H   0  0  0  0  0  0  0  0  0  0  0  0  # atno 10764 bound_to 10752
  153.0161  135.6405  154.1862 H   0  0  0  0  0  0  0  0  0  0  0  0  # atno 10765 bound_to 10752
  140.6567  133.9356  155.8412 H   0  0  0  0  0  0  0  0  0  0  0  0  # atno 11005 bound_to 11000
  146.2974  140.4108  142.8716 LP  0  0  0  0  0  0  0  0  0  0  0  0  # atno 17320 bound_to 7965
  144.8729  140.7297  143.6035 LP  0  0  0  0  0  0  0  0  0  0  0  0  # atno 17321 bound_to 7965
  140.2366  143.3695  152.1521 LP  0  0  0  0  0  0  0  0  0  0  0  0  # atno 17342 bound_to 10162
  139.5210  144.7040  151.5409 LP  0  0  0  0  0  0  0  0  0  0  0  0  # atno 17343 bound_to 10162
  157.1833  130.6319  149.5679 LP  0  0  0  0  0  0  0  0  0  0  0  0  # atno 17370 bound_to 10713
  155.9771  130.4746  150.6574 LP  0  0  0  0  0  0  0  0  0  0  0  0  # atno 17371 bound_to 10713
  141.0496  134.0504  157.3800 LP  0  0  0  0  0  0  0  0  0  0  0  0  # atno 17394 bound_to 11000
  139.9027  135.0170  156.7344 LP  0  0  0  0  0  0  0  0  0  0  0  0  # atno 17395 bound_to 11000

$$$$
