AV-unprocessed.smi:2046|AV-procd|sdf|8312|dock4
  -GOLD-   2272010583D 1   1.00000     0.00000
 Structure written by MMmdl.
 30 31  0  0  0  0  0  0  0  0  1 V2000
  148.9609  137.1146  156.3455 O   0  0  0  0  0  0  0  0  0  0  0  0
  149.0357  136.7866  155.1611 C   0  0  0  0  0  0  0  0  0  0  0  0
  149.4469  135.5887  154.7093 N   0  0  0  0  0  0  0  0  0  0  0  0
  149.8760  134.4635  155.4617 C   0  0  0  0  0  0  0  0  0  0  0  0
  150.3264  134.5397  156.7240 N   0  0  0  0  0  0  0  0  0  0  0  0
  150.6799  133.2937  157.2257 N   0  0  0  0  0  0  0  0  0  0  0  0
  150.4828  132.3284  156.3233 C   0  0  0  0  0  0  0  0  0  0  0  0
  149.8467  132.8469  154.7718 S   0  0  0  0  0  0  0  0  0  0  0  0
  148.7099  137.6002  154.1461 N   0  0  0  0  0  0  0  0  0  0  0  0
  148.1941  138.9641  154.2753 C   0  0  1  0  0  0  0  0  0  0  0  0
  149.3264  139.9879  154.0342 C   0  0  0  0  0  0  0  0  0  0  0  0
  149.0647  141.3679  154.6591 C   0  0  0  0  0  0  0  0  0  0  0  0
  147.8437  142.1109  154.0966 C   0  0  0  0  0  0  0  0  0  0  0  0
  146.5052  141.4136  154.3954 C   0  0  0  0  0  0  0  0  0  0  0  0
  146.2435  140.2957  153.4972 N   0  0  0  0  0  0  0  0  0  0  0  0
  146.9582  139.1664  153.3785 C   0  0  0  0  0  0  0  0  0  0  0  0
  146.6357  138.3064  152.5590 O   0  0  0  0  0  0  0  0  0  0  0  0
  149.4507  135.4656  153.7077 H   0  0  0  0  0  0  0  0  0  0  0  0
  150.7142  131.3036  156.5735 H   0  0  0  0  0  0  0  0  0  0  0  0
  148.7982  137.2451  153.2051 H   0  0  0  0  0  0  0  0  0  0  0  0
  147.8446  139.0724  155.3040 H   0  0  0  0  0  0  0  0  0  0  0  0
  150.2558  139.6116  154.4631 H   0  0  0  0  0  0  0  0  0  0  0  0
  149.5175  140.0911  152.9652 H   0  0  0  0  0  0  0  0  0  0  0  0
  148.9612  141.2630  155.7396 H   0  0  0  0  0  0  0  0  0  0  0  0
  149.9480  141.9889  154.5061 H   0  0  0  0  0  0  0  0  0  0  0  0
  147.8196  143.1044  154.5457 H   0  0  0  0  0  0  0  0  0  0  0  0
  147.9571  142.2720  153.0236 H   0  0  0  0  0  0  0  0  0  0  0  0
  146.4528  141.0877  155.4351 H   0  0  0  0  0  0  0  0  0  0  0  0
  145.6926  142.1274  154.2584 H   0  0  0  0  0  0  0  0  0  0  0  0
  145.4402  140.3920  152.8930 H   0  0  0  0  0  0  0  0  0  0  0  0
  1  2  2  0  0  0  0
  2  3  1  0  0  0  0
  2  9  1  0  0  0  0
  3  4  1  0  0  0  0
  3 18  1  0  0  0  0
  4  8  1  0  0  0  0
  4  5  2  0  0  0  0
  5  6  1  0  0  0  0
  6  7  2  0  0  0  0
  7  8  1  0  0  0  0
  7 19  1  0  0  0  0
  9 10  1  0  0  0  0
  9 20  1  0  0  0  0
 10 16  1  0  0  0  0
 10 11  1  0  0  0  0
 10 21  1  0  0  0  0
 11 12  1  0  0  0  0
 11 22  1  0  0  0  0
 11 23  1  0  0  0  0
 12 13  1  0  0  0  0
 12 24  1  0  0  0  0
 12 25  1  0  0  0  0
 13 14  1  0  0  0  0
 13 26  1  0  0  0  0
 13 27  1  0  0  0  0
 14 15  1  0  0  0  0
 14 28  1  0  0  0  0
 14 29  1  0  0  0  0
 15 16  1  0  0  0  0
 15 30  1  0  0  0  0
 16 17  2  0  0  0  0
M  END
> <s_m_source_file>
AV-unprocessed.smi

> <i_m_source_file_index>
2046

> <i_lp_mmshare_version>
43012

> <i_f3d_flags>
0

> <s_epik_input>
czFbY0hdbm5jMVtOSF1DKD1PKVtOSF1bQ0BASF0yW0NIMl1bQ0gyXVtDSDJdW0NIMl1bTkhdQzI9Tw==

> <s_epik_cmdline>
J2VwaWtfcHl0aG9uJywgJy1waCcsICc3LjAnLCAnLXRuJywgJzgnLCAnLW1hJywgJzIwMCcsICctbWV0YWxfYmluZGluZycsICctaW1hZScsICc8aW5maWxlLm1hZT4nLCAnLW9tYWUnLCAnPG91dGZpbGUubWFlPic=

> <r_lp_tautomer_probability>
1

> <r_epik_Ionization_Penalty>
0.000691558

> <r_epik_Ionization_Penalty_Charging>
0

> <r_epik_Ionization_Penalty_Neutral>
0.000691558

> <r_epik_State_Penalty>
-0

> <r_epik_Charging_Adjusted_Penalty>
0

> <i_epik_Tot_Q>
0

> <i_epik_Tot_abs_Q>
0

> <r_epik_Metal_State_Penalty>
0.252698

> <b_epik_Metal_Only>
0

> <s_lp_Force_Field>
OPLS_2005

> <r_lp_Energy>
9.05746

> <b_lp_Chiralities_Consistent>
1

> <s_lp_Variant>
AV-unprocessed.smi:2046-2

> <Gold.Version>
5.8.1

> <Gold.Id.Protein>
6NUR|6NUR_protein|mol2

> <Gold.PLP.Fitness>
35.3193

> <Gold.PLP.PLP>
-24.2747

> <Gold.PLP.part.hbond>
-4.0000

> <Gold.PLP.part.metal>
0.0000

> <Gold.PLP.part.buried>
-1.5792

> <Gold.PLP.part.nonpolar>
-19.4316

> <Gold.PLP.part.repulsive>
0.3456

> <Gold.PLP.ligand.clash>
0.0000

> <Gold.PLP.ligand.torsion>
0.2994

> <Gold.PLP.Chemscore.Hbond>
3.8720

> <Gold.PLP.Chemscore.CHOScore>
0.0000

> <Gold.PLP.Chemscore.Metal>
0.0000

> <Gold.Chemscore.Hbonds>
donor molecule, donor type, donor heavy atom, donor atom, acceptor molecule, acceptor atom, score
      L1  H     3    18       P1  7948  0.98
      L1  H     9    20       P1  7948  1.00
      L1  H    15    30       P1 10175  1.00
      P1  H  6896  6907       L1     6  0.90

> <Gold.PLP.Chemscore.Internal.Correction>
0.0274

> <Gold.Rescore>
     Score         DG    S(hbond)    S(metal)    S(lipo)     H(rot)  DE(clash)    DE(int)     intcor
     17.20     -18.86       3.32        0.00      41.40       1.00       0.19       1.47       ----

> <Gold.Chemscore.Fitness>
17.1975

> <Gold.Chemscore.DG>
-18.8568

> <Gold.Chemscore.ZeroCoef>
-5.4800

> <Gold.Chemscore.Hbond>
3.3213

> <Gold.Chemscore.Metal>
0.0000

> <Gold.Chemscore.Lipo>
41.3987

> <Gold.Chemscore.Internal_Hbond>
0.0000

> <Gold.Chemscore.DEClash>
0.1921

> <Gold.Chemscore.DEInternal>
1.4672

> <Gold.Chemscore.Rot>
1.0000

> <Gold.Chemscore.Internal.Correction>
   9.000000E+99

> <Gold.Chemscore.Hbonds>
donor molecule, donor type, donor heavy atom, donor atom, acceptor molecule, acceptor atom, score
      L1  H     3    18       P1  7948  0.23
      L1  H     9    20       P1  7948  1.00
      L1  H    15    30       P1 10175  0.90
      P1  H  6896  6907       L1     6  0.58

> <Gold.Chemscore.Hbond.Weighted>
-11.0932

> <Gold.Chemscore.Metal.Weighted>
-0.0000

> <Gold.Chemscore.Lipo.Weighted>
-4.8436

> <Gold.Chemscore.Internal_Hbond.Weighted>
0.0000

> <Gold.Chemscore.DEClash.Weighted>
0.1921

> <Gold.Chemscore.DEInternal.Weighted>
1.4672

> <Gold.Chemscore.Rot.Weighted>
2.5600

> <Gold.Chemscore.Internal.Correction.Weighted>
   9.000000E+99

> <Gold.Protein.RotatedTorsions>
[ 6907 6896 6895 6894 ] final -148.32 input  -60.11 | X-H torsion
[ 7974 7965 7964 7962 ] final  -64.04 input  175.53 | X-H torsion
[ 8008 7997 7996 7995 ] final -171.30 input   59.86 | X-H torsion
[ 10167 10162 10161 10158 ] final -159.17 input  -65.29 | X-H torsion
[ 10718 10713 10712 10709 ] final  -54.41 input   66.30 | X-H torsion
[ 10763 10752 10751 10750 ] final -167.44 input  -60.55 | X-H torsion
[ 11005 11000 10999 10996 ] final  -63.94 input  -57.11 | X-H torsion

> <Gold.Protein.ActiveResidues>
 VAL166  LYS551  ARG553  GLY616  TRP617  ASP618  TYR619  PRO620  LYS621  CYS622 
 ASP623  PHE694  ASN695  SER759  ASP760  ASP761  ALA762  ILE779  LEU786  VAL792 
 PHE793  MET794  SER795  GLU796  ALA797  LYS798  CYS799  TRP800  GLU811  SER814 

> <Gold.Protein.RotatedAtoms>
  151.1681  133.4802  159.2593 H   0  0  0  0  0  0  0  0  0  0  0  0  # atno 6907 bound_to 6896
  151.1384  135.0167  159.8624 H   0  0  0  0  0  0  0  0  0  0  0  0  # atno 6908 bound_to 6896
  152.5462  134.1577  159.8598 H   0  0  0  0  0  0  0  0  0  0  0  0  # atno 6909 bound_to 6896
  145.7716  140.8809  143.0377 H   0  0  0  0  0  0  0  0  0  0  0  0  # atno 7974 bound_to 7965
  155.9297  140.1089  157.1142 H   0  0  0  0  0  0  0  0  0  0  0  0  # atno 8008 bound_to 7997
  154.4068  140.1240  156.4852 H   0  0  0  0  0  0  0  0  0  0  0  0  # atno 8009 bound_to 7997
  155.7095  140.3471  155.4970 H   0  0  0  0  0  0  0  0  0  0  0  0  # atno 8010 bound_to 7997
  139.6635  143.9870  152.2240 H   0  0  0  0  0  0  0  0  0  0  0  0  # atno 10167 bound_to 10162
  156.1453  130.4153  150.0034 H   0  0  0  0  0  0  0  0  0  0  0  0  # atno 10718 bound_to 10713
  154.6732  135.2942  154.9714 H   0  0  0  0  0  0  0  0  0  0  0  0  # atno 10763 bound_to 10752
  154.0734  135.6615  153.4831 H   0  0  0  0  0  0  0  0  0  0  0  0  # atno 10764 bound_to 10752
  153.0500  135.5180  154.7738 H   0  0  0  0  0  0  0  0  0  0  0  0  # atno 10765 bound_to 10752
  141.1409  133.6658  156.5756 H   0  0  0  0  0  0  0  0  0  0  0  0  # atno 11005 bound_to 11000
  144.6811  139.9864  143.7484 LP  0  0  0  0  0  0  0  0  0  0  0  0  # atno 17320 bound_to 7965
  146.0164  139.3213  143.0839 LP  0  0  0  0  0  0  0  0  0  0  0  0  # atno 17321 bound_to 7965
  139.9615  144.6554  150.8075 LP  0  0  0  0  0  0  0  0  0  0  0  0  # atno 17342 bound_to 10162
  140.7590  143.3119  151.2825 LP  0  0  0  0  0  0  0  0  0  0  0  0  # atno 17343 bound_to 10162
  156.7908  130.9255  151.3646 LP  0  0  0  0  0  0  0  0  0  0  0  0  # atno 17370 bound_to 10713
  157.6611  130.8967  149.9832 LP  0  0  0  0  0  0  0  0  0  0  0  0  # atno 17371 bound_to 10713
  140.3878  134.7467  157.4702 LP  0  0  0  0  0  0  0  0  0  0  0  0  # atno 17394 bound_to 11000
  140.0589  134.6024  155.8772 LP  0  0  0  0  0  0  0  0  0  0  0  0  # atno 17395 bound_to 11000

$$$$
