AV-unprocessed.smi:1063|AV-procd|sdf|4663|dock5
  -GOLD-   22720 3173D 1   1.00000     0.00000
 Structure written by MMmdl.
 38 39  0  0  0  0  0  0  0  0  1 V2000
  151.9306  142.6280  159.0620 C   0  0  0  0  0  0  0  0  0  0  0  0
  151.1968  141.6523  158.1386 C   0  0  0  0  0  0  0  0  0  0  0  0
  150.7680  142.4290  156.5538 S   0  0  0  0  0  0  0  0  0  0  0  0
  149.9134  141.2195  155.5884 C   0  0  0  0  0  0  0  0  0  0  0  0
  148.5662  141.4176  155.2307 C   0  0  0  0  0  0  0  0  0  0  0  0
  147.9319  140.4271  154.4570 C   0  0  0  0  0  0  0  0  0  0  0  0
  148.6586  139.2788  154.0791 C   0  0  0  0  0  0  0  0  0  0  0  0
  148.0016  138.3069  153.2774 N   0  0  0  0  0  0  0  0  0  0  0  0
  146.6819  138.1031  153.1272 C   0  0  0  0  0  0  0  0  0  0  0  0
  145.7948  138.7999  153.6188 O   0  0  0  0  0  0  0  0  0  0  0  0
  146.4423  137.0390  152.3480 N   0  0  0  0  0  0  0  0  0  0  0  0
  145.1212  136.5327  151.9895 C   0  0  0  0  0  0  0  0  0  0  0  0
  145.2104  135.2987  151.0747 C   0  0  1  0  0  0  0  0  0  0  0  0
  146.1603  134.1993  151.5502 C   0  0  0  0  0  0  0  0  0  0  0  0
  145.6062  132.9439  150.8957 C   0  0  0  0  0  0  0  0  0  0  0  0
  144.1939  133.3425  150.4563 C   0  0  0  0  0  0  0  0  0  0  0  0
  143.9656  134.6206  151.0349 O   0  0  0  0  0  0  0  0  0  0  0  0
  150.0134  139.1890  154.4863 C   0  0  0  0  0  0  0  0  0  0  0  0
  150.6304  140.1345  155.2268 N   0  0  0  0  0  0  0  0  0  0  0  0
  152.1771  142.1519  160.0111 H   0  0  0  0  0  0  0  0  0  0  0  0
  151.3171  143.5028  159.2778 H   0  0  0  0  0  0  0  0  0  0  0  0
  152.8613  142.9718  158.6102 H   0  0  0  0  0  0  0  0  0  0  0  0
  151.8216  140.7791  157.9497 H   0  0  0  0  0  0  0  0  0  0  0  0
  150.2840  141.2999  158.6193 H   0  0  0  0  0  0  0  0  0  0  0  0
  148.0329  142.3050  155.5383 H   0  0  0  0  0  0  0  0  0  0  0  0
  146.9001  140.5488  154.1612 H   0  0  0  0  0  0  0  0  0  0  0  0
  148.6084  137.7142  152.7301 H   0  0  0  0  0  0  0  0  0  0  0  0
  147.2346  136.5312  151.9825 H   0  0  0  0  0  0  0  0  0  0  0  0
  144.5303  136.3111  152.8801 H   0  0  0  0  0  0  0  0  0  0  0  0
  144.5942  137.3312  151.4669 H   0  0  0  0  0  0  0  0  0  0  0  0
  145.4704  135.6022  150.0586 H   0  0  0  0  0  0  0  0  0  0  0  0
  147.1997  134.3944  151.2838 H   0  0  0  0  0  0  0  0  0  0  0  0
  146.1042  134.0971  152.6348 H   0  0  0  0  0  0  0  0  0  0  0  0
  146.2056  132.6459  150.0346 H   0  0  0  0  0  0  0  0  0  0  0  0
  145.5927  132.1111  151.5995 H   0  0  0  0  0  0  0  0  0  0  0  0
  144.1408  133.4261  149.3699 H   0  0  0  0  0  0  0  0  0  0  0  0
  143.4373  132.6269  150.7790 H   0  0  0  0  0  0  0  0  0  0  0  0
  150.6423  138.3597  154.2029 H   0  0  0  0  0  0  0  0  0  0  0  0
  1  2  1  0  0  0  0
  1 20  1  0  0  0  0
  1 21  1  0  0  0  0
  1 22  1  0  0  0  0
  2  3  1  0  0  0  0
  2 23  1  0  0  0  0
  2 24  1  0  0  0  0
  3  4  1  0  0  0  0
  4 19  1  0  0  0  0
  4  5  2  0  0  0  0
  5  6  1  0  0  0  0
  5 25  1  0  0  0  0
  6  7  2  0  0  0  0
  6 26  1  0  0  0  0
  7  8  1  0  0  0  0
  7 18  1  0  0  0  0
  8  9  1  0  0  0  0
  8 27  1  0  0  0  0
  9 10  2  0  0  0  0
  9 11  1  0  0  0  0
 11 12  1  0  0  0  0
 11 28  1  0  0  0  0
 12 13  1  0  0  0  0
 12 29  1  0  0  0  0
 12 30  1  0  0  0  0
 13 17  1  0  0  0  0
 13 14  1  0  0  0  0
 13 31  1  0  0  0  0
 14 15  1  0  0  0  0
 14 32  1  0  0  0  0
 14 33  1  0  0  0  0
 15 16  1  0  0  0  0
 15 34  1  0  0  0  0
 15 35  1  0  0  0  0
 16 17  1  0  0  0  0
 16 36  1  0  0  0  0
 16 37  1  0  0  0  0
 18 19  2  0  0  0  0
 18 38  1  0  0  0  0
M  END
> <s_m_source_file>
AV-unprocessed.smi

> <i_m_source_file_index>
1063

> <i_lp_mmshare_version>
43012

> <i_f3d_flags>
0

> <s_epik_input>
W0NIM11bQ0gyXVNjMVtjSF1bY0hdYyhbY0hdbjEpW05IXUMoPU8pW05IXVtDSDJdW0NAQEhdMltDSDJdW0NIMl1bQ0gyXU8y

> <s_epik_cmdline>
J2VwaWtfcHl0aG9uJywgJy1waCcsICc3LjAnLCAnLXRuJywgJzgnLCAnLW1hJywgJzIwMCcsICctbWV0YWxfYmluZGluZycsICctaW1hZScsICc8aW5maWxlLm1hZT4nLCAnLW9tYWUnLCAnPG91dGZpbGUubWFlPic=

> <r_lp_tautomer_probability>
1

> <r_epik_Ionization_Penalty>
0.000426617

> <r_epik_Ionization_Penalty_Charging>
0

> <r_epik_Ionization_Penalty_Neutral>
0.000426617

> <r_epik_State_Penalty>
0.000241115

> <r_epik_Charging_Adjusted_Penalty>
0.000241115

> <i_epik_Tot_Q>
0

> <i_epik_Tot_abs_Q>
0

> <r_epik_Metal_State_Penalty>
-0

> <b_epik_Metal_Only>
0

> <s_lp_Force_Field>
OPLS_2005

> <r_lp_Energy>
18.8486

> <b_lp_Chiralities_Consistent>
1

> <s_lp_Variant>
AV-unprocessed.smi:1063-2

> <Gold.Version>
5.8.1

> <Gold.Id.Protein>
6NUR|6NUR_protein|mol2

> <Gold.PLP.Fitness>
42.6365

> <Gold.PLP.PLP>
-35.0547

> <Gold.PLP.part.hbond>
-3.7585

> <Gold.PLP.part.metal>
0.0000

> <Gold.PLP.part.buried>
-5.5724

> <Gold.PLP.part.nonpolar>
-27.9452

> <Gold.PLP.part.repulsive>
0.6526

> <Gold.PLP.ligand.clash>
0.0000

> <Gold.PLP.ligand.torsion>
0.1998

> <Gold.PLP.Chemscore.Hbond>
2.6500

> <Gold.PLP.Chemscore.CHOScore>
0.0000

> <Gold.PLP.Chemscore.Metal>
0.0000

> <Gold.Chemscore.Hbonds>
donor molecule, donor type, donor heavy atom, donor atom, acceptor molecule, acceptor atom, score
      L1  H     8    27       P1  7948  1.00
      L1  H    11    28       P1  7948  1.00
      P1  H  7989  7998       L1    19  0.42

> <Gold.PLP.Chemscore.Internal.Correction>
0.0314

> <Gold.Rescore>
     Score         DG    S(hbond)    S(metal)    S(lipo)     H(rot)  DE(clash)    DE(int)     intcor
     16.61     -18.78       1.93        0.00      90.78       1.47       0.39       1.78       ----

> <Gold.Chemscore.Fitness>
16.6059

> <Gold.Chemscore.DG>
-18.7776

> <Gold.Chemscore.ZeroCoef>
-5.4800

> <Gold.Chemscore.Hbond>
1.9266

> <Gold.Chemscore.Metal>
0.0000

> <Gold.Chemscore.Lipo>
90.7794

> <Gold.Chemscore.Internal_Hbond>
0.0000

> <Gold.Chemscore.DEClash>
0.3922

> <Gold.Chemscore.DEInternal>
1.7795

> <Gold.Chemscore.Rot>
1.4681

> <Gold.Chemscore.Internal.Correction>
   9.000000E+99

> <Gold.Chemscore.Hbonds>
donor molecule, donor type, donor heavy atom, donor atom, acceptor molecule, acceptor atom, score
      L1  H     8    27       P1  7948  0.98
      L1  H    11    28       P1  7948  0.97
      P1  H  7989  7998       L1    19  0.01

> <Gold.Chemscore.Hbond.Weighted>
-6.4348

> <Gold.Chemscore.Metal.Weighted>
-0.0000

> <Gold.Chemscore.Lipo.Weighted>
-10.6212

> <Gold.Chemscore.Internal_Hbond.Weighted>
0.0000

> <Gold.Chemscore.DEClash.Weighted>
0.3922

> <Gold.Chemscore.DEInternal.Weighted>
1.7795

> <Gold.Chemscore.Rot.Weighted>
3.7584

> <Gold.Chemscore.Internal.Correction.Weighted>
   9.000000E+99

> <Gold.Protein.RotatedTorsions>
[ 6907 6896 6895 6894 ] final   17.50 input  -60.11 | X-H torsion
[ 7974 7965 7964 7962 ] final  -64.98 input  175.53 | X-H torsion
[ 8008 7997 7996 7995 ] final  -50.02 input   59.86 | X-H torsion
[ 10167 10162 10161 10158 ] final  -15.07 input  -65.29 | X-H torsion
[ 10718 10713 10712 10709 ] final  140.61 input   66.30 | X-H torsion
[ 10763 10752 10751 10750 ] final  -45.01 input  -60.55 | X-H torsion
[ 11005 11000 10999 10996 ] final   34.90 input  -57.11 | X-H torsion

> <Gold.Protein.ActiveResidues>
 VAL166  LYS551  ARG553  GLY616  TRP617  ASP618  TYR619  PRO620  LYS621  CYS622 
 ASP623  PHE694  ASN695  SER759  ASP760  ASP761  ALA762  ILE779  LEU786  VAL792 
 PHE793  MET794  SER795  GLU796  ALA797  LYS798  CYS799  TRP800  GLU811  SER814 

> <Gold.Protein.RotatedAtoms>
  151.8506  135.0559  160.0458 H   0  0  0  0  0  0  0  0  0  0  0  0  # atno 6907 bound_to 6896
  152.2739  133.5403  159.5464 H   0  0  0  0  0  0  0  0  0  0  0  0  # atno 6908 bound_to 6896
  150.7162  134.0575  159.3862 H   0  0  0  0  0  0  0  0  0  0  0  0  # atno 6909 bound_to 6896
  145.7599  140.8866  143.0435 H   0  0  0  0  0  0  0  0  0  0  0  0  # atno 7974 bound_to 7965
  154.4054  140.1282  156.4597 H   0  0  0  0  0  0  0  0  0  0  0  0  # atno 8008 bound_to 7997
  155.7285  140.3491  155.5028 H   0  0  0  0  0  0  0  0  0  0  0  0  # atno 8009 bound_to 7997
  155.9149  140.1042  157.1241 H   0  0  0  0  0  0  0  0  0  0  0  0  # atno 8010 bound_to 7997
  140.7212  143.5256  150.9581 H   0  0  0  0  0  0  0  0  0  0  0  0  # atno 10167 bound_to 10162
  157.4013  131.1017  151.0549 H   0  0  0  0  0  0  0  0  0  0  0  0  # atno 10718 bound_to 10713
  154.0215  135.6668  153.4773 H   0  0  0  0  0  0  0  0  0  0  0  0  # atno 10763 bound_to 10752
  153.0578  135.5045  154.8019 H   0  0  0  0  0  0  0  0  0  0  0  0  # atno 10764 bound_to 10752
  154.6934  135.3065  154.9411 H   0  0  0  0  0  0  0  0  0  0  0  0  # atno 10765 bound_to 10752
  140.2482  134.3335  155.7900 H   0  0  0  0  0  0  0  0  0  0  0  0  # atno 11005 bound_to 11000
  144.6832  139.9708  143.7482 LP  0  0  0  0  0  0  0  0  0  0  0  0  # atno 17320 bound_to 7965
  146.0274  139.3304  143.0776 LP  0  0  0  0  0  0  0  0  0  0  0  0  # atno 17321 bound_to 7965
  139.8974  143.6877  152.3136 LP  0  0  0  0  0  0  0  0  0  0  0  0  # atno 17342 bound_to 10162
  139.7215  144.7601  151.0948 LP  0  0  0  0  0  0  0  0  0  0  0  0  # atno 17343 bound_to 10162
  157.1547  130.6199  149.5592 LP  0  0  0  0  0  0  0  0  0  0  0  0  # atno 17370 bound_to 10713
  155.9824  130.4837  150.6879 LP  0  0  0  0  0  0  0  0  0  0  0  0  # atno 17371 bound_to 10713
  141.2204  133.7338  156.8994 LP  0  0  0  0  0  0  0  0  0  0  0  0  # atno 17394 bound_to 11000
  140.1585  134.9182  157.2684 LP  0  0  0  0  0  0  0  0  0  0  0  0  # atno 17395 bound_to 11000

$$$$
