AV-unprocessed.smi:2336|AV-procd|sdf|9332|dock6
  -GOLD-   2272012553D 1   1.00000     0.00000
 Structure written by MMmdl.
 49 50  0  0  0  0  0  0  0  0  1 V2000
  147.8755  139.0144  153.8987 C   0  0  0  0  0  0  0  0  0  0  0  0
  148.6452  139.8667  154.9239 C   0  0  0  0  0  0  0  0  0  0  0  0
  149.0110  141.2368  154.3219 C   0  0  0  0  0  0  0  0  0  0  0  0
  149.8376  139.1088  155.6034 C   0  0  1  0  0  0  0  0  0  0  0  0
  150.9074  138.6684  154.5609 C   0  0  0  0  0  0  0  0  0  0  0  0
  150.6696  137.3167  154.0632 N   0  0  0  0  0  0  0  0  0  0  0  0
  151.2400  136.1990  154.5315 C   0  0  0  0  0  0  0  0  0  0  0  0
  152.0767  136.1872  155.4341 O   0  0  0  0  0  0  0  0  0  0  0  0
  150.7833  135.1183  153.8766 N   0  0  0  0  0  0  0  0  0  0  0  0
  151.0811  133.7464  154.0990 C   0  0  0  0  0  0  0  0  0  0  0  0
  151.9029  133.2702  155.1495 C   0  0  0  0  0  0  0  0  0  0  0  0
  152.0989  131.8801  155.2751 C   0  0  0  0  0  0  0  0  0  0  0  0
  151.5378  130.9716  154.4492 N   0  0  0  0  0  0  0  0  0  0  0  0
  150.7456  131.4287  153.4567 C   0  0  0  0  0  0  0  0  0  0  0  0
  150.4836  132.7968  153.2435 C   0  0  0  0  0  0  0  0  0  0  0  0
  149.6728  133.1879  152.2304 F   0  0  0  0  0  0  0  0  0  0  0  0
  150.4210  139.8064  156.7791 N   0  0  0  0  0  0  0  0  0  0  0  0
  151.1633  141.0207  156.4009 C   0  0  0  0  0  0  0  0  0  0  0  0
  151.7465  141.7576  157.6205 C   0  0  0  0  0  0  0  0  0  0  0  0
  152.6498  140.8997  158.3784 N   0  0  0  0  0  0  0  0  0  0  0  0
  153.2122  141.5957  159.5255 C   0  0  0  0  0  0  0  0  0  0  0  0
  151.9202  139.7032  158.7813 C   0  0  0  0  0  0  0  0  0  0  0  0
  151.3350  138.9616  157.5651 C   0  0  0  0  0  0  0  0  0  0  0  0
  148.4324  138.8825  152.9713 H   0  0  0  0  0  0  0  0  0  0  0  0
  146.9305  139.4899  153.6348 H   0  0  0  0  0  0  0  0  0  0  0  0
  147.6427  138.0275  154.2994 H   0  0  0  0  0  0  0  0  0  0  0  0
  147.9009  140.0551  155.6956 H   0  0  0  0  0  0  0  0  0  0  0  0
  149.6189  141.1377  153.4238 H   0  0  0  0  0  0  0  0  0  0  0  0
  149.5575  141.8579  155.0314 H   0  0  0  0  0  0  0  0  0  0  0  0
  148.1117  141.7841  154.0384 H   0  0  0  0  0  0  0  0  0  0  0  0
  149.4024  138.1799  155.9759 H   0  0  0  0  0  0  0  0  0  0  0  0
  150.9050  139.3435  153.7057 H   0  0  0  0  0  0  0  0  0  0  0  0
  151.9132  138.7678  154.9654 H   0  0  0  0  0  0  0  0  0  0  0  0
  149.9934  137.2286  153.3183 H   0  0  0  0  0  0  0  0  0  0  0  0
  150.1661  135.3006  153.0986 H   0  0  0  0  0  0  0  0  0  0  0  0
  152.3709  133.9313  155.8619 H   0  0  0  0  0  0  0  0  0  0  0  0
  152.7190  131.4866  156.0670 H   0  0  0  0  0  0  0  0  0  0  0  0
  150.3042  130.6813  152.8141 H   0  0  0  0  0  0  0  0  0  0  0  0
  151.9660  140.7668  155.7066 H   0  0  0  0  0  0  0  0  0  0  0  0
  150.5135  141.7252  155.8853 H   0  0  0  0  0  0  0  0  0  0  0  0
  152.2808  142.6462  157.2827 H   0  0  0  0  0  0  0  0  0  0  0  0
  150.9341  142.1065  158.2604 H   0  0  0  0  0  0  0  0  0  0  0  0
  153.8968  140.9470  160.0728 H   0  0  0  0  0  0  0  0  0  0  0  0
  152.4298  141.9212  160.2125 H   0  0  0  0  0  0  0  0  0  0  0  0
  153.7720  142.4755  159.2066 H   0  0  0  0  0  0  0  0  0  0  0  0
  152.5861  139.0324  159.3252 H   0  0  0  0  0  0  0  0  0  0  0  0
  151.1154  139.9685  159.4690 H   0  0  0  0  0  0  0  0  0  0  0  0
  150.8126  138.0913  157.9569 H   0  0  0  0  0  0  0  0  0  0  0  0
  152.1427  138.5914  156.9317 H   0  0  0  0  0  0  0  0  0  0  0  0
  1  2  1  0  0  0  0
  1 24  1  0  0  0  0
  1 25  1  0  0  0  0
  1 26  1  0  0  0  0
  2  3  1  0  0  0  0
  2  4  1  0  0  0  0
  2 27  1  0  0  0  0
  3 28  1  0  0  0  0
  3 29  1  0  0  0  0
  3 30  1  0  0  0  0
  4  5  1  0  0  0  0
  4 17  1  0  0  0  0
  4 31  1  0  0  0  0
  5  6  1  0  0  0  0
  5 32  1  0  0  0  0
  5 33  1  0  0  0  0
  6  7  1  0  0  0  0
  6 34  1  0  0  0  0
  7  8  2  0  0  0  0
  7  9  1  0  0  0  0
  9 10  1  0  0  0  0
  9 35  1  0  0  0  0
 10 15  1  0  0  0  0
 10 11  2  0  0  0  0
 11 12  1  0  0  0  0
 11 36  1  0  0  0  0
 12 13  2  0  0  0  0
 12 37  1  0  0  0  0
 13 14  1  0  0  0  0
 14 15  2  0  0  0  0
 14 38  1  0  0  0  0
 15 16  1  0  0  0  0
 17 23  1  0  0  0  0
 17 18  1  0  0  0  0
 18 19  1  0  0  0  0
 18 39  1  0  0  0  0
 18 40  1  0  0  0  0
 19 20  1  0  0  0  0
 19 41  1  0  0  0  0
 19 42  1  0  0  0  0
 20 21  1  0  0  0  0
 20 22  1  0  0  0  0
 21 43  1  0  0  0  0
 21 44  1  0  0  0  0
 21 45  1  0  0  0  0
 22 23  1  0  0  0  0
 22 46  1  0  0  0  0
 22 47  1  0  0  0  0
 23 48  1  0  0  0  0
 23 49  1  0  0  0  0
M  END
> <s_m_source_file>
AV-unprocessed.smi

> <i_m_source_file_index>
2336

> <i_lp_mmshare_version>
43012

> <i_f3d_flags>
0

> <s_epik_input>
W0NIMl0xW0NIMl1OKFtDSDNdKVtDSDJdW0NIMl1OMVtDQEhdKFtDSF0oW0NIM10pW0NIM10pW0NIMl1bTkhdQyg9TylbTkhdYzJbY0hdW2NIXW5bY0hdYzJG

> <s_epik_cmdline>
J2VwaWtfcHl0aG9uJywgJy1waCcsICc3LjAnLCAnLXRuJywgJzgnLCAnLW1hJywgJzIwMCcsICctbWV0YWxfYmluZGluZycsICctaW1hZScsICc8aW5maWxlLm1hZT4nLCAnLW9tYWUnLCAnPG91dGZpbGUubWFlPic=

> <r_epik_Ionization_Penalty>
2.58102

> <r_epik_Ionization_Penalty_Charging>
0

> <r_epik_Ionization_Penalty_Neutral>
2.58102

> <r_epik_State_Penalty>
2.00874

> <r_epik_Charging_Adjusted_Penalty>
2.00874

> <i_epik_Tot_Q>
0

> <i_epik_Tot_abs_Q>
0

> <r_epik_Metal_State_Penalty>
2.00867

> <b_epik_Metal_Only>
0

> <s_lp_Force_Field>
OPLS_2005

> <r_lp_Energy>
52.4608

> <b_lp_Chiralities_Consistent>
1

> <s_lp_Variant>
AV-unprocessed.smi:2336-6

> <Gold.Version>
5.8.1

> <Gold.Id.Protein>
6NUR|6NUR_protein|mol2

> <Gold.PLP.Fitness>
43.8806

> <Gold.PLP.PLP>
-36.8818

> <Gold.PLP.part.hbond>
-3.3984

> <Gold.PLP.part.metal>
0.0000

> <Gold.PLP.part.buried>
-5.0422

> <Gold.PLP.part.nonpolar>
-28.1418

> <Gold.PLP.part.repulsive>
0.1471

> <Gold.PLP.ligand.clash>
0.0000

> <Gold.PLP.ligand.torsion>
0.8068

> <Gold.PLP.Chemscore.Hbond>
2.7723

> <Gold.PLP.Chemscore.CHOScore>
0.0000

> <Gold.PLP.Chemscore.Metal>
0.0000

> <Gold.Chemscore.Hbonds>
donor molecule, donor type, donor heavy atom, donor atom, acceptor molecule, acceptor atom, score
      L1  H     6    34       P1  7948  1.00
      P1  H 10752 10765       L1     8  0.57

> <Gold.PLP.Chemscore.Internal.Correction>
0.2956

> <Gold.Rescore>
     Score         DG    S(hbond)    S(metal)    S(lipo)     H(rot)  DE(clash)    DE(int)     intcor
     13.02     -15.16       1.33        0.00      80.33       1.63       0.10       2.05       ----

> <Gold.Chemscore.Fitness>
13.0174

> <Gold.Chemscore.DG>
-15.1598

> <Gold.Chemscore.ZeroCoef>
-5.4800

> <Gold.Chemscore.Hbond>
1.3319

> <Gold.Chemscore.Metal>
0.0000

> <Gold.Chemscore.Lipo>
80.3269

> <Gold.Chemscore.Internal_Hbond>
0.0000

> <Gold.Chemscore.DEClash>
0.0955

> <Gold.Chemscore.DEInternal>
2.0469

> <Gold.Chemscore.Rot>
1.6277

> <Gold.Chemscore.Internal.Correction>
   9.000000E+99

> <Gold.Chemscore.Hbonds>
donor molecule, donor type, donor heavy atom, donor atom, acceptor molecule, acceptor atom, score
      L1  H     6    34       P1  7948  0.28
      P1  H 10752 10765       L1     8  0.45

> <Gold.Chemscore.Hbond.Weighted>
-4.4485

> <Gold.Chemscore.Metal.Weighted>
-0.0000

> <Gold.Chemscore.Lipo.Weighted>
-9.3982

> <Gold.Chemscore.Internal_Hbond.Weighted>
0.0000

> <Gold.Chemscore.DEClash.Weighted>
0.0955

> <Gold.Chemscore.DEInternal.Weighted>
2.0469

> <Gold.Chemscore.Rot.Weighted>
4.1670

> <Gold.Chemscore.Internal.Correction.Weighted>
   9.000000E+99

> <Gold.Protein.RotatedTorsions>
[ 6907 6896 6895 6894 ] final  -35.17 input  -60.11 | X-H torsion
[ 7974 7965 7964 7962 ] final  -28.51 input  175.53 | X-H torsion
[ 8008 7997 7996 7995 ] final  -89.57 input   59.86 | X-H torsion
[ 10167 10162 10161 10158 ] final   77.65 input  -65.29 | X-H torsion
[ 10718 10713 10712 10709 ] final  -57.67 input   66.30 | X-H torsion
[ 10763 10752 10751 10750 ] final -144.99 input  -60.55 | X-H torsion
[ 11005 11000 10999 10996 ] final -175.21 input  -57.11 | X-H torsion

> <Gold.Protein.ActiveResidues>
 VAL166  LYS551  ARG553  GLY616  TRP617  ASP618  TYR619  PRO620  LYS621  CYS622 
 ASP623  PHE694  ASN695  SER759  ASP760  ASP761  ALA762  ILE779  LEU786  VAL792 
 PHE793  MET794  SER795  GLU796  ALA797  LYS798  CYS799  TRP800  GLU811  SER814 

> <Gold.Protein.RotatedAtoms>
  151.0432  134.9622  159.8172 H   0  0  0  0  0  0  0  0  0  0  0  0  # atno 6907 bound_to 6896
  152.5368  134.2631  159.8953 H   0  0  0  0  0  0  0  0  0  0  0  0  # atno 6908 bound_to 6896
  151.2644  133.4243  159.2652 H   0  0  0  0  0  0  0  0  0  0  0  0  # atno 6909 bound_to 6896
  146.1283  140.5292  142.8705 H   0  0  0  0  0  0  0  0  0  0  0  0  # atno 7974 bound_to 7965
  154.6882  140.0540  157.0336 H   0  0  0  0  0  0  0  0  0  0  0  0  # atno 8008 bound_to 7997
  155.0854  140.3214  155.4570 H   0  0  0  0  0  0  0  0  0  0  0  0  # atno 8009 bound_to 7997
  156.2719  140.2057  156.5982 H   0  0  0  0  0  0  0  0  0  0  0  0  # atno 8010 bound_to 7997
  139.9793  144.5838  150.7915 H   0  0  0  0  0  0  0  0  0  0  0  0  # atno 10167 bound_to 10162
  156.1193  130.4167  150.0472 H   0  0  0  0  0  0  0  0  0  0  0  0  # atno 10718 bound_to 10713
  154.8403  135.3425  154.6434 H   0  0  0  0  0  0  0  0  0  0  0  0  # atno 10763 bound_to 10752
  153.7046  135.6967  153.5058 H   0  0  0  0  0  0  0  0  0  0  0  0  # atno 10764 bound_to 10752
  153.2497  135.4357  155.0739 H   0  0  0  0  0  0  0  0  0  0  0  0  # atno 10765 bound_to 10752
  140.4659  134.6211  157.4862 H   0  0  0  0  0  0  0  0  0  0  0  0  # atno 11005 bound_to 11000
  144.7664  140.5541  143.6700 LP  0  0  0  0  0  0  0  0  0  0  0  0  # atno 17320 bound_to 7965
  145.5317  139.1475  143.3496 LP  0  0  0  0  0  0  0  0  0  0  0  0  # atno 17321 bound_to 7965
  140.7495  143.2939  151.3257 LP  0  0  0  0  0  0  0  0  0  0  0  0  # atno 17342 bound_to 10162
  139.6422  144.0518  152.2563 LP  0  0  0  0  0  0  0  0  0  0  0  0  # atno 17343 bound_to 10162
  156.8414  130.9427  151.3631 LP  0  0  0  0  0  0  0  0  0  0  0  0  # atno 17370 bound_to 10713
  157.6377  130.8780  149.9389 LP  0  0  0  0  0  0  0  0  0  0  0  0  # atno 17371 bound_to 10713
  139.9916  134.6977  155.9680 LP  0  0  0  0  0  0  0  0  0  0  0  0  # atno 17394 bound_to 11000
  141.1600  133.6539  156.4286 LP  0  0  0  0  0  0  0  0  0  0  0  0  # atno 17395 bound_to 11000

$$$$
