AV-unprocessed.smi:99|AV-procd|sdf|890|dock7
  -GOLD-   2262017373D 1   1.00000     0.00000
 Structure written by MMmdl.
 52 55  0  0  0  0  0  0  0  0  2 V2000
  146.1004  134.0608  158.1122 O   0  0  0  0  0  0  0  0  0  0  0  0
  145.8449  135.1161  158.6956 C   0  0  0  0  0  0  0  0  0  0  0  0
  145.3103  136.1916  158.0917 O   0  0  0  0  0  0  0  0  0  0  0  0
  144.4461  136.0398  156.9769 C   0  0  0  0  0  0  0  0  0  0  0  0
  145.0563  136.7343  155.7517 C   0  0  1  0  0  0  0  0  0  0  0  0
  144.9340  138.1428  155.8624 O   0  0  0  0  0  0  0  0  0  0  0  0
  145.9467  138.7612  155.1279 C   0  0  1  0  0  0  0  0  0  0  0  0
  146.5264  139.8793  155.9696 N   0  0  0  0  0  0  0  0  0  0  0  0
  146.9924  139.6217  157.2473 C   0  0  0  0  0  0  0  0  0  0  0  0
  147.5210  140.5976  158.0132 C   0  0  0  0  0  0  0  0  0  0  0  0
  147.6047  141.9559  157.4837 C   0  0  0  0  0  0  0  0  0  0  0  0
  148.0769  142.8430  158.1918 O   0  0  0  0  0  0  0  0  0  0  0  0
  147.1530  142.1809  156.2157 N   0  5  0  0  0  0  0  0  0  0  0  0
  146.6265  141.1923  155.4352 C   0  0  0  0  0  0  0  0  0  0  0  0
  146.2446  141.3783  154.2795 O   0  0  0  0  0  0  0  0  0  0  0  0
  146.9959  137.6908  154.7415 C   0  0  1  0  0  0  0  0  0  0  0  0
  148.3318  138.0219  155.0741 O   0  0  0  0  0  0  0  0  0  0  0  0
  146.5468  136.4712  155.5342 C   0  0  2  0  0  0  0  0  0  0  0  0
  146.7094  135.2816  154.7724 O   0  0  0  0  0  0  0  0  0  0  0  0
  147.9386  134.8487  154.4205 C   0  0  0  0  0  0  0  0  0  0  0  0
  148.9721  135.4958  154.6000 O   0  0  0  0  0  0  0  0  0  0  0  0
  147.9164  133.4963  153.7919 C   0  0  0  0  0  0  0  0  0  0  0  0
  149.1107  132.7409  153.7308 C   0  0  0  0  0  0  0  0  0  0  0  0
  149.1206  131.4607  153.1438 C   0  0  0  0  0  0  0  0  0  0  0  0
  147.9366  130.9206  152.6093 C   0  0  0  0  0  0  0  0  0  0  0  0
  146.7420  131.6623  152.6628 C   0  0  0  0  0  0  0  0  0  0  0  0
  146.7299  132.9425  153.2505 C   0  0  0  0  0  0  0  0  0  0  0  0
  146.0874  135.3359  160.1506 C   0  0  0  0  0  0  0  0  0  0  0  0
  145.7215  136.5701  160.7360 C   0  0  0  0  0  0  0  0  0  0  0  0
  145.9444  136.8076  162.1063 C   0  0  0  0  0  0  0  0  0  0  0  0
  146.5353  135.8134  162.9080 C   0  0  0  0  0  0  0  0  0  0  0  0
  146.9008  134.5799  162.3382 C   0  0  0  0  0  0  0  0  0  0  0  0
  146.6769  134.3400  160.9687 C   0  0  0  0  0  0  0  0  0  0  0  0
  144.3072  134.9773  156.7736 H   0  0  0  0  0  0  0  0  0  0  0  0
  143.4651  136.4642  157.1945 H   0  0  0  0  0  0  0  0  0  0  0  0
  144.5017  136.4440  154.8575 H   0  0  0  0  0  0  0  0  0  0  0  0
  145.4844  139.2315  154.2595 H   0  0  0  0  0  0  0  0  0  0  0  0
  146.9395  138.6206  157.6452 H   0  0  0  0  0  0  0  0  0  0  0  0
  147.8811  140.3766  159.0072 H   0  0  0  0  0  0  0  0  0  0  0  0
  146.9114  137.5144  153.6682 H   0  0  0  0  0  0  0  0  0  0  0  0
  148.3781  138.1687  156.0071 H   0  0  0  0  0  0  0  0  0  0  0  0
  147.0607  136.4371  156.4960 H   0  0  0  0  0  0  0  0  0  0  0  0
  150.0326  133.1345  154.1342 H   0  0  0  0  0  0  0  0  0  0  0  0
  150.0386  130.8928  153.1039 H   0  0  0  0  0  0  0  0  0  0  0  0
  147.9447  129.9390  152.1589 H   0  0  0  0  0  0  0  0  0  0  0  0
  145.8326  131.2489  152.2524 H   0  0  0  0  0  0  0  0  0  0  0  0
  145.7960  133.4848  153.2747 H   0  0  0  0  0  0  0  0  0  0  0  0
  145.2687  137.3494  160.1400 H   0  0  0  0  0  0  0  0  0  0  0  0
  145.6623  137.7547  162.5422 H   0  0  0  0  0  0  0  0  0  0  0  0
  146.7070  135.9961  163.9584 H   0  0  0  0  0  0  0  0  0  0  0  0
  147.3528  133.8149  162.9520 H   0  0  0  0  0  0  0  0  0  0  0  0
  146.9638  133.3797  160.5665 H   0  0  0  0  0  0  0  0  0  0  0  0
  1  2  2  0  0  0  0
  2  3  1  0  0  0  0
  2 28  1  0  0  0  0
  3  4  1  0  0  0  0
  4  5  1  0  0  0  0
  4 34  1  0  0  0  0
  4 35  1  0  0  0  0
  5 18  1  0  0  0  0
  5  6  1  0  0  0  0
  5 36  1  0  0  0  0
  6  7  1  0  0  0  0
  7  8  1  0  0  0  0
  7 16  1  0  0  0  0
  7 37  1  0  0  0  0
  8 14  1  0  0  0  0
  8  9  1  0  0  0  0
  9 10  2  0  0  0  0
  9 38  1  0  0  0  0
 10 11  1  0  0  0  0
 10 39  1  0  0  0  0
 11 12  2  0  0  0  0
 11 13  1  0  0  0  0
 13 14  1  0  0  0  0
 14 15  2  0  0  0  0
 16 17  1  0  0  0  0
 16 18  1  0  0  0  0
 16 40  1  0  0  0  0
 17 41  1  0  0  0  0
 18 19  1  0  0  0  0
 18 42  1  0  0  0  0
 19 20  1  0  0  0  0
 20 21  2  0  0  0  0
 20 22  1  0  0  0  0
 22 27  1  0  0  0  0
 22 23  2  0  0  0  0
 23 24  1  0  0  0  0
 23 43  1  0  0  0  0
 24 25  2  0  0  0  0
 24 44  1  0  0  0  0
 25 26  1  0  0  0  0
 25 45  1  0  0  0  0
 26 27  2  0  0  0  0
 26 46  1  0  0  0  0
 27 47  1  0  0  0  0
 28 33  1  0  0  0  0
 28 29  2  0  0  0  0
 29 30  1  0  0  0  0
 29 48  1  0  0  0  0
 30 31  2  0  0  0  0
 30 49  1  0  0  0  0
 31 32  1  0  0  0  0
 31 50  1  0  0  0  0
 32 33  2  0  0  0  0
 32 51  1  0  0  0  0
 33 52  1  0  0  0  0
M  CHG  1  13  -1
M  END
> <s_m_source_file>
AV-unprocessed.smi

> <i_m_source_file_index>
99

> <i_lp_mmshare_version>
43012

> <i_f3d_flags>
0

> <s_epik_input>
W2NIXTFbY0hdW2NIXVtjSF1bY0hdYzFDKD1PKU9bQ0gyXVtDQEBIXTJPW0NAQEhdKG4zW2NIXVtjSF1jKD1PKVtuSF1jMz1PKVtDQEBIXShbT0hdKVtDQEhdMk9DKD1PKWM0W2NIXVtjSF1bY0hdW2NIXVtjSF00

> <s_epik_cmdline>
J2VwaWtfcHl0aG9uJywgJy1waCcsICc3LjAnLCAnLXRuJywgJzgnLCAnLW1hJywgJzIwMCcsICctbWV0YWxfYmluZGluZycsICctaW1hZScsICc8aW5maWxlLm1hZT4nLCAnLW9tYWUnLCAnPG91dGZpbGUubWFlPic=

> <r_lp_tautomer_probability>
1

> <r_epik_Ionization_Penalty>
2.89159

> <r_epik_Ionization_Penalty_Charging>
2.1077e-08

> <r_epik_Ionization_Penalty_Neutral>
2.89159

> <r_epik_State_Penalty>
2.88671

> <r_epik_Charging_Adjusted_Penalty>
2.88671

> <i_epik_Tot_Q>
-1

> <i_epik_Tot_abs_Q>
1

> <r_epik_Metal_State_Penalty>
0.0727308

> <b_epik_Metal_Only>
1

> <s_epik_Chemistry_Notes>
This compound has an ester and may undergo hydrolysis at high or low pH. This compound contains an acetal/aminal-like group ( X-CH(R)-Y where X, Y are N, S, or O) that may be acid/base labile, releasing an aldehyde.

> <s_lp_Force_Field>
OPLS_2005

> <r_lp_Energy>
45.1404

> <b_lp_Chiralities_Consistent>
1

> <s_lp_Variant>
AV-unprocessed.smi:99-26

> <Gold.Version>
5.8.1

> <Gold.Id.Protein>
6NUR|6NUR_protein|mol2

> <Gold.PLP.Fitness>
54.4789

> <Gold.PLP.PLP>
-44.4070

> <Gold.PLP.part.hbond>
-3.8011

> <Gold.PLP.part.metal>
0.0000

> <Gold.PLP.part.buried>
-4.5941

> <Gold.PLP.part.nonpolar>
-36.0971

> <Gold.PLP.part.repulsive>
0.2299

> <Gold.PLP.ligand.clash>
0.0000

> <Gold.PLP.ligand.torsion>
1.1732

> <Gold.PLP.Chemscore.Hbond>
3.9760

> <Gold.PLP.Chemscore.CHOScore>
0.0000

> <Gold.PLP.Chemscore.Metal>
0.0000

> <Gold.PLP.Chemscore.Internal.Correction>
0.4903

> <Gold.Rescore>
     Score         DG    S(hbond)    S(metal)    S(lipo)     H(rot)  DE(clash)    DE(int)     intcor
     13.60     -17.06       2.69        0.00      90.74       3.13       0.03       3.42       ----

> <Gold.Chemscore.Fitness>
13.6008

> <Gold.Chemscore.DG>
-17.0582

> <Gold.Chemscore.ZeroCoef>
-5.4800

> <Gold.Chemscore.Hbond>
2.6905

> <Gold.Chemscore.Metal>
0.0000

> <Gold.Chemscore.Lipo>
90.7392

> <Gold.Chemscore.Internal_Hbond>
0.0000

> <Gold.Chemscore.DEClash>
0.0324

> <Gold.Chemscore.DEInternal>
3.4249

> <Gold.Chemscore.Rot>
3.1346

> <Gold.Chemscore.Internal.Correction>
   9.000000E+99

> <Gold.Chemscore.Hbond.Weighted>
-8.9862

> <Gold.Chemscore.Metal.Weighted>
-0.0000

> <Gold.Chemscore.Lipo.Weighted>
-10.6165

> <Gold.Chemscore.Internal_Hbond.Weighted>
0.0000

> <Gold.Chemscore.DEClash.Weighted>
0.0324

> <Gold.Chemscore.DEInternal.Weighted>
3.4249

> <Gold.Chemscore.Rot.Weighted>
8.0246

> <Gold.Chemscore.Internal.Correction.Weighted>
   9.000000E+99

> <Gold.Protein.RotatedTorsions>
[ 6907 6896 6895 6894 ] final  122.31 input  -60.11 | X-H torsion
[ 7974 7965 7964 7962 ] final -115.93 input  175.53 | X-H torsion
[ 8008 7997 7996 7995 ] final   83.66 input   59.86 | X-H torsion
[ 10167 10162 10161 10158 ] final -104.29 input  -65.29 | X-H torsion
[ 10718 10713 10712 10709 ] final -175.94 input   66.30 | X-H torsion
[ 10763 10752 10751 10750 ] final   55.87 input  -60.55 | X-H torsion
[ 11005 11000 10999 10996 ] final  -95.53 input  -57.11 | X-H torsion

> <Gold.Protein.ActiveResidues>
 VAL166  LYS551  ARG553  GLY616  TRP617  ASP618  TYR619  PRO620  LYS621  CYS622 
 ASP623  PHE694  ASN695  SER759  ASP760  ASP761  ALA762  ILE779  LEU786  VAL792 
 PHE793  MET794  SER795  GLU796  ALA797  LYS798  CYS799  TRP800  GLU811  SER814 

> <Gold.Protein.RotatedAtoms>
  152.4253  133.7184  159.6518 H   0  0  0  0  0  0  0  0  0  0  0  0  # atno 6907 bound_to 6896
  150.8129  133.8378  159.3180 H   0  0  0  0  0  0  0  0  0  0  0  0  # atno 6908 bound_to 6896
  151.6083  135.1044  160.0127 H   0  0  0  0  0  0  0  0  0  0  0  0  # atno 6909 bound_to 6896
  145.1027  140.8562  143.3917 H   0  0  0  0  0  0  0  0  0  0  0  0  # atno 7974 bound_to 7965
  155.9268  140.3417  155.6217 H   0  0  0  0  0  0  0  0  0  0  0  0  # atno 8008 bound_to 7997
  155.7206  140.0783  157.2351 H   0  0  0  0  0  0  0  0  0  0  0  0  # atno 8009 bound_to 7997
  154.4078  140.1606  156.2385 H   0  0  0  0  0  0  0  0  0  0  0  0  # atno 8010 bound_to 7997
  140.2108  143.3748  152.1052 H   0  0  0  0  0  0  0  0  0  0  0  0  # atno 10167 bound_to 10162
  156.8073  130.9573  151.3117 H   0  0  0  0  0  0  0  0  0  0  0  0  # atno 10718 bound_to 10713
  152.9823  135.5696  154.5136 H   0  0  0  0  0  0  0  0  0  0  0  0  # atno 10763 bound_to 10752
  154.4636  135.2782  155.1696 H   0  0  0  0  0  0  0  0  0  0  0  0  # atno 10764 bound_to 10752
  154.3274  135.6256  153.5589 H   0  0  0  0  0  0  0  0  0  0  0  0  # atno 10765 bound_to 10752
  141.1439  133.8033  157.0448 H   0  0  0  0  0  0  0  0  0  0  0  0  # atno 11005 bound_to 11000
  145.0937  139.2872  143.5722 LP  0  0  0  0  0  0  0  0  0  0  0  0  # atno 17320 bound_to 7965
  146.3529  140.0482  142.8638 LP  0  0  0  0  0  0  0  0  0  0  0  0  # atno 17321 bound_to 7965
  139.5180  144.7000  151.5520 LP  0  0  0  0  0  0  0  0  0  0  0  0  # atno 17342 bound_to 10162
  140.6324  143.9049  150.6617 LP  0  0  0  0  0  0  0  0  0  0  0  0  # atno 17343 bound_to 10162
  157.6524  130.8895  149.9659 LP  0  0  0  0  0  0  0  0  0  0  0  0  # atno 17370 bound_to 10713
  156.1066  130.3652  150.0123 LP  0  0  0  0  0  0  0  0  0  0  0  0  # atno 17371 bound_to 10713
  140.0669  134.9724  157.1402 LP  0  0  0  0  0  0  0  0  0  0  0  0  # atno 17394 bound_to 11000
  140.3766  134.2332  155.7174 LP  0  0  0  0  0  0  0  0  0  0  0  0  # atno 17395 bound_to 11000

$$$$
