AV-unprocessed.smi:287|AV-procd|sdf|2186|dock1
  -GOLD-   2262021563D 1   1.00000     0.00000
 Structure written by MMmdl.
 55 58  0  0  0  0  0  0  0  0  1 V2000
  153.8280  141.7973  161.3572 C   0  0  0  0  0  0  0  0  0  0  0  0
  152.9782  142.2050  160.2030 C   0  0  0  0  0  0  0  0  0  0  0  0
  151.9977  141.5837  159.4861 C   0  0  0  0  0  0  0  0  0  0  0  0
  151.5436  142.5056  158.4961 C   0  0  0  0  0  0  0  0  0  0  0  0
  150.4458  142.2470  157.4723 C   0  0  2  0  0  0  0  0  0  0  0  0
  150.7614  140.9679  156.6794 C   0  0  0  0  0  0  0  0  0  0  0  0
  150.3439  143.2729  156.5039 O   0  0  0  0  0  0  0  0  0  0  0  0
  149.0488  142.1389  158.1255 C   0  0  0  0  0  0  0  0  0  0  0  0
  147.9652  142.4140  157.1876 N   0  0  0  0  0  0  0  0  0  0  0  0
  146.6913  142.4947  157.6235 C   0  0  0  0  0  0  0  0  0  0  0  0
  146.3979  142.4293  158.9483 N   0  0  0  0  0  0  0  0  0  0  0  0
  145.1280  142.5192  159.3548 C   0  0  0  0  0  0  0  0  0  0  0  0
  144.0254  142.6745  158.6184 N   0  0  0  0  0  0  0  0  0  0  0  0
  144.3153  142.7371  157.2866 C   0  0  0  0  0  0  0  0  0  0  0  0
  145.6148  142.6544  156.7139 C   0  0  0  0  0  0  0  0  0  0  0  0
  145.5286  142.7576  155.3319 N   0  0  0  0  0  0  0  0  0  0  0  0
  144.2501  142.8968  155.1055 C   0  0  0  0  0  0  0  0  0  0  0  0
  143.4476  142.8938  156.2250 N   0  0  0  0  0  0  0  0  0  0  0  0
  141.9628  143.0422  156.2822 C   0  0  2  0  0  0  0  0  0  0  0  0
  141.3943  141.9152  155.6956 O   0  0  0  0  0  0  0  0  0  0  0  0
  140.1923  142.3019  155.0487 C   0  0  2  0  0  0  0  0  0  0  0  0
  139.7209  141.2187  154.0623 C   0  0  0  0  0  0  0  0  0  0  0  0
  140.8219  140.6894  153.3545 O   0  0  0  0  0  0  0  0  0  0  0  0
  140.5228  143.6860  154.4680 C   0  0  2  0  0  0  0  0  0  0  0  0
  141.1446  143.5865  153.2009 O   0  0  0  0  0  0  0  0  0  0  0  0
  141.4909  144.2778  155.4922 C   0  0  1  0  0  0  0  0  0  0  0  0
  140.7939  145.1782  156.3300 O   0  0  0  0  0  0  0  0  0  0  0  0
  152.3119  143.6293  158.6853 C   0  0  0  0  0  0  0  0  0  0  0  0
  152.3873  144.9607  158.0137 C   0  0  0  0  0  0  0  0  0  0  0  0
  153.1815  143.4560  159.7198 O   0  0  0  0  0  0  0  0  0  0  0  0
  141.7204  143.0811  157.3456 H   0  0  0  0  0  0  0  0  0  0  0  0
  139.4398  142.4220  155.8308 H   0  0  0  0  0  0  0  0  0  0  0  0
  139.6220  144.2884  154.3430 H   0  0  0  0  0  0  0  0  0  0  0  0
  142.3291  144.7973  155.0245 H   0  0  0  0  0  0  0  0  0  0  0  0
  153.5046  140.8364  161.7580 H   0  0  0  0  0  0  0  0  0  0  0  0
  153.7706  142.5334  162.1591 H   0  0  0  0  0  0  0  0  0  0  0  0
  154.8712  141.7045  161.0555 H   0  0  0  0  0  0  0  0  0  0  0  0
  151.6368  140.5804  159.6578 H   0  0  0  0  0  0  0  0  0  0  0  0
  150.8287  140.1008  157.3375 H   0  0  0  0  0  0  0  0  0  0  0  0
  151.7124  141.0525  156.1516 H   0  0  0  0  0  0  0  0  0  0  0  0
  149.9897  140.7558  155.9382 H   0  0  0  0  0  0  0  0  0  0  0  0
  149.5115  143.7063  156.6136 H   0  0  0  0  0  0  0  0  0  0  0  0
  148.9091  141.1632  158.5934 H   0  0  0  0  0  0  0  0  0  0  0  0
  148.9813  142.8800  158.9236 H   0  0  0  0  0  0  0  0  0  0  0  0
  148.2436  142.6185  156.2382 H   0  0  0  0  0  0  0  0  0  0  0  0
  144.9733  142.4587  160.4219 H   0  0  0  0  0  0  0  0  0  0  0  0
  143.8549  143.0067  154.1062 H   0  0  0  0  0  0  0  0  0  0  0  0
  139.1843  140.4162  154.5688 H   0  0  0  0  0  0  0  0  0  0  0  0
  139.0289  141.6522  153.3399 H   0  0  0  0  0  0  0  0  0  0  0  0
  140.5167  140.3694  152.5194 H   0  0  0  0  0  0  0  0  0  0  0  0
  141.7929  142.8987  153.2399 H   0  0  0  0  0  0  0  0  0  0  0  0
  139.9860  144.7704  156.6020 H   0  0  0  0  0  0  0  0  0  0  0  0
  152.5607  144.8444  156.9439 H   0  0  0  0  0  0  0  0  0  0  0  0
  153.1994  145.5637  158.4209 H   0  0  0  0  0  0  0  0  0  0  0  0
  151.4580  145.5139  158.1493 H   0  0  0  0  0  0  0  0  0  0  0  0
  1  2  1  0  0  0  0
  1 35  1  0  0  0  0
  1 36  1  0  0  0  0
  1 37  1  0  0  0  0
  2 30  1  0  0  0  0
  2  3  2  0  0  0  0
  3  4  1  0  0  0  0
  3 38  1  0  0  0  0
  4  5  1  0  0  0  0
  4 28  2  0  0  0  0
  5  6  1  0  0  0  0
  5  7  1  0  0  0  0
  5  8  1  0  0  0  0
  6 39  1  0  0  0  0
  6 40  1  0  0  0  0
  6 41  1  0  0  0  0
  7 42  1  0  0  0  0
  8  9  1  0  0  0  0
  8 43  1  0  0  0  0
  8 44  1  0  0  0  0
  9 10  1  0  0  0  0
  9 45  1  0  0  0  0
 10 15  1  0  0  0  0
 10 11  2  0  0  0  0
 11 12  1  0  0  0  0
 12 13  2  0  0  0  0
 12 46  1  0  0  0  0
 13 14  1  0  0  0  0
 14 18  1  0  0  0  0
 14 15  2  0  0  0  0
 15 16  1  0  0  0  0
 16 17  2  0  0  0  0
 17 18  1  0  0  0  0
 17 47  1  0  0  0  0
 18 19  1  0  0  0  0
 19 31  1  0  0  0  0
 19 26  1  0  0  0  0
 19 20  1  0  0  0  0
 20 21  1  0  0  0  0
 21 32  1  0  0  0  0
 21 22  1  0  0  0  0
 21 24  1  0  0  0  0
 22 23  1  0  0  0  0
 22 48  1  0  0  0  0
 22 49  1  0  0  0  0
 23 50  1  0  0  0  0
 24 33  1  0  0  0  0
 24 25  1  0  0  0  0
 24 26  1  0  0  0  0
 25 51  1  0  0  0  0
 26 34  1  0  0  0  0
 26 27  1  0  0  0  0
 27 52  1  0  0  0  0
 28 29  1  0  0  0  0
 28 30  1  0  0  0  0
 29 53  1  0  0  0  0
 29 54  1  0  0  0  0
 29 55  1  0  0  0  0
M  END
> <s_m_source_file>
AV-unprocessed.smi

> <i_m_source_file_index>
287

> <i_lp_mmshare_version>
43012

> <i_f3d_flags>
0

> <s_epik_input>
W0NIM11jMVtjSF1jKGMobzEpW0NIM10pW0NAQF0oW0NIM10pKFtPSF0pW0NIMl1bTkhdYyhuW2NIXW4yKWMoYzIzKW5bY0hdbjNbQ0BASF00T1tDQEhdKFtDSDJdW09IXSlbQ0BASF0oW09IXSlbQ0BIXTRbT0hd

> <s_epik_cmdline>
J2VwaWtfcHl0aG9uJywgJy1waCcsICc3LjAnLCAnLXRuJywgJzgnLCAnLW1hJywgJzIwMCcsICctbWV0YWxfYmluZGluZycsICctaW1hZScsICc8aW5maWxlLm1hZT4nLCAnLW9tYWUnLCAnPG91dGZpbGUubWFlPic=

> <r_lp_tautomer_probability>
1

> <r_epik_Ionization_Penalty>
0.000992612

> <r_epik_Ionization_Penalty_Charging>
0

> <r_epik_Ionization_Penalty_Neutral>
0.000992612

> <r_epik_State_Penalty>
-0

> <r_epik_Charging_Adjusted_Penalty>
0

> <i_epik_Tot_Q>
0

> <i_epik_Tot_abs_Q>
0

> <r_epik_Metal_State_Penalty>
-0

> <b_epik_Metal_Only>
0

> <s_epik_Chemistry_Notes>
This compound contains an acetal/aminal-like group ( X-CH(R)-Y where X, Y are N, S, or O) that may be acid/base labile, releasing an aldehyde.

> <s_lp_Force_Field>
OPLS_2005

> <r_lp_Energy>
38.0531

> <b_lp_Chiralities_Consistent>
1

> <s_lp_Variant>
AV-unprocessed.smi:287-10

> <Gold.Version>
5.8.1

> <Gold.Id.Protein>
6NUR|6NUR_protein|mol2

> <Gold.PLP.Fitness>
54.4169

> <Gold.PLP.PLP>
-43.9273

> <Gold.PLP.part.hbond>
-6.7665

> <Gold.PLP.part.metal>
0.0000

> <Gold.PLP.part.buried>
-6.4603

> <Gold.PLP.part.nonpolar>
-31.5215

> <Gold.PLP.part.repulsive>
0.3894

> <Gold.PLP.ligand.clash>
0.0000

> <Gold.PLP.ligand.torsion>
0.8200

> <Gold.PLP.Chemscore.Hbond>
3.0685

> <Gold.PLP.Chemscore.CHOScore>
0.8803

> <Gold.PLP.Chemscore.Metal>
0.0000

> <Gold.Chemscore.Hbonds>
donor molecule, donor type, donor heavy atom, donor atom, acceptor molecule, acceptor atom, score
      L1  H     7    42       P1  8028  0.53
      L1  H     9    45       P1  8028  0.17
      L1  H    23    50       P1 10160  0.98
      L1  H    25    51       P1 10174  0.37
      P1  H  6934  6946       L1    11  0.03
      P1  H 10162 10167       L1    25  0.51
      L1  C    17    47       P1 10174  0.91

> <Gold.PLP.Chemscore.Internal.Correction>
0.2833

> <Gold.Rescore>
     Score         DG    S(hbond)    S(metal)    S(lipo)     H(rot)  DE(clash)    DE(int)     intcor
     11.71     -13.57       3.02        0.00      98.20       5.27       0.08       1.78       ----

> <Gold.Chemscore.Fitness>
11.7090

> <Gold.Chemscore.DG>
-13.5729

> <Gold.Chemscore.ZeroCoef>
-5.4800

> <Gold.Chemscore.Hbond>
3.0201

> <Gold.Chemscore.Metal>
0.0000

> <Gold.Chemscore.Lipo>
98.2027

> <Gold.Chemscore.Internal_Hbond>
0.0000

> <Gold.Chemscore.DEClash>
0.0792

> <Gold.Chemscore.DEInternal>
1.7846

> <Gold.Chemscore.Rot>
5.2672

> <Gold.Chemscore.Internal.Correction>
   9.000000E+99

> <Gold.Chemscore.Hbonds>
donor molecule, donor type, donor heavy atom, donor atom, acceptor molecule, acceptor atom, score
      L1  H     7    42       P1  8028  0.49
      L1  H     9    45       P1  8028  0.15
      L1  H    23    50       P1 10160  0.93
      L1  H    25    51       P1 10174  0.37
      P1  H 10162 10167       L1    25  0.15

> <Gold.Chemscore.Hbond.Weighted>
-10.0871

> <Gold.Chemscore.Metal.Weighted>
-0.0000

> <Gold.Chemscore.Lipo.Weighted>
-11.4897

> <Gold.Chemscore.Internal_Hbond.Weighted>
0.0000

> <Gold.Chemscore.DEClash.Weighted>
0.0792

> <Gold.Chemscore.DEInternal.Weighted>
1.7846

> <Gold.Chemscore.Rot.Weighted>
13.4839

> <Gold.Chemscore.Internal.Correction.Weighted>
   9.000000E+99

> <Gold.Protein.RotatedTorsions>
[ 6907 6896 6895 6894 ] final   41.41 input  -60.11 | X-H torsion
[ 7974 7965 7964 7962 ] final -128.57 input  175.53 | X-H torsion
[ 8008 7997 7996 7995 ] final  -40.02 input   59.86 | X-H torsion
[ 10167 10162 10161 10158 ] final -133.45 input  -65.29 | X-H torsion
[ 10718 10713 10712 10709 ] final   59.50 input   66.30 | X-H torsion
[ 10763 10752 10751 10750 ] final -171.14 input  -60.55 | X-H torsion
[ 11005 11000 10999 10996 ] final  152.77 input  -57.11 | X-H torsion

> <Gold.Protein.ActiveResidues>
 VAL166  LYS551  ARG553  GLY616  TRP617  ASP618  TYR619  PRO620  LYS621  CYS622 
 ASP623  PHE694  ASN695  SER759  ASP760  ASP761  ALA762  ILE779  LEU786  VAL792 
 PHE793  MET794  SER795  GLU796  ALA797  LYS798  CYS799  TRP800  GLU811  SER814 

> <Gold.Protein.RotatedAtoms>
  152.1949  134.8639  160.0513 H   0  0  0  0  0  0  0  0  0  0  0  0  # atno 6907 bound_to 6896
  151.9514  133.3662  159.4010 H   0  0  0  0  0  0  0  0  0  0  0  0  # atno 6908 bound_to 6896
  150.6942  134.4260  159.5270 H   0  0  0  0  0  0  0  0  0  0  0  0  # atno 6909 bound_to 6896
  144.9657  140.7493  143.4701 H   0  0  0  0  0  0  0  0  0  0  0  0  # atno 7974 bound_to 7965
  154.4016  140.1536  156.2959 H   0  0  0  0  0  0  0  0  0  0  0  0  # atno 8008 bound_to 7997
  155.8743  140.3447  155.5821 H   0  0  0  0  0  0  0  0  0  0  0  0  # atno 8009 bound_to 7997
  155.7738  140.0834  157.2085 H   0  0  0  0  0  0  0  0  0  0  0  0  # atno 8010 bound_to 7997
  139.8982  143.6640  152.2600 H   0  0  0  0  0  0  0  0  0  0  0  0  # atno 10167 bound_to 10162
  157.5681  130.8886  149.9220 H   0  0  0  0  0  0  0  0  0  0  0  0  # atno 10718 bound_to 10713
  154.6338  135.2890  155.0185 H   0  0  0  0  0  0  0  0  0  0  0  0  # atno 10763 bound_to 10752
  154.1336  135.6529  153.4931 H   0  0  0  0  0  0  0  0  0  0  0  0  # atno 10764 bound_to 10752
  153.0292  135.5316  154.7176 H   0  0  0  0  0  0  0  0  0  0  0  0  # atno 10765 bound_to 10752
  140.1337  134.8785  157.2238 H   0  0  0  0  0  0  0  0  0  0  0  0  # atno 11005 bound_to 11000
  145.2633  139.1983  143.4880 LP  0  0  0  0  0  0  0  0  0  0  0  0  # atno 17320 bound_to 7965
  146.3367  140.2567  142.8600 LP  0  0  0  0  0  0  0  0  0  0  0  0  # atno 17321 bound_to 7965
  139.7049  144.7629  151.1210 LP  0  0  0  0  0  0  0  0  0  0  0  0  # atno 17342 bound_to 10162
  140.7712  143.5408  150.9315 LP  0  0  0  0  0  0  0  0  0  0  0  0  # atno 17343 bound_to 10162
  156.0727  130.3683  150.0741 LP  0  0  0  0  0  0  0  0  0  0  0  0  # atno 17370 bound_to 10713
  156.8897  130.9584  151.3590 LP  0  0  0  0  0  0  0  0  0  0  0  0  # atno 17371 bound_to 10713
  140.2809  134.3351  155.7343 LP  0  0  0  0  0  0  0  0  0  0  0  0  # atno 17394 bound_to 11000
  141.2174  133.7478  156.9363 LP  0  0  0  0  0  0  0  0  0  0  0  0  # atno 17395 bound_to 11000

$$$$
