AV-unprocessed.smi:99|AV-procd|sdf|879|dock3
  -GOLD-   2262017353D 1   1.00000     0.00000
 Structure written by MMmdl.
 53 56  0  0  0  0  0  0  0  0  1 V2000
  145.0544  134.7677  155.2942 O   0  0  0  0  0  0  0  0  0  0  0  0
  145.9726  134.6681  154.4779 C   0  0  0  0  0  0  0  0  0  0  0  0
  147.2471  135.0125  154.7435 O   0  0  0  0  0  0  0  0  0  0  0  0
  147.5560  135.7157  155.9347 C   0  0  0  0  0  0  0  0  0  0  0  0
  146.7394  137.0197  155.9766 C   0  0  2  0  0  0  0  0  0  0  0  0
  147.4184  138.0417  155.2458 O   0  0  0  0  0  0  0  0  0  0  0  0
  148.1370  138.8959  156.0953 C   0  0  2  0  0  0  0  0  0  0  0  0
  149.6022  138.8937  155.7041 N   0  0  0  0  0  0  0  0  0  0  0  0
  150.0945  138.1375  154.6467 C   0  0  0  0  0  0  0  0  0  0  0  0
  151.4006  138.1303  154.2895 C   0  0  0  0  0  0  0  0  0  0  0  0
  152.3724  138.9409  155.0160 C   0  0  0  0  0  0  0  0  0  0  0  0
  153.5744  138.9995  154.7665 O   0  0  0  0  0  0  0  0  0  0  0  0
  151.8339  139.6890  156.0667 N   0  0  0  0  0  0  0  0  0  0  0  0
  150.4905  139.7039  156.4443 C   0  0  0  0  0  0  0  0  0  0  0  0
  150.1215  140.4005  157.3891 O   0  0  0  0  0  0  0  0  0  0  0  0
  147.8878  138.4282  157.5474 C   0  0  2  0  0  0  0  0  0  0  0  0
  148.9397  137.6269  158.0643 O   0  0  0  0  0  0  0  0  0  0  0  0
  146.6008  137.6358  157.3679 C   0  0  2  0  0  0  0  0  0  0  0  0
  146.3393  136.6972  158.4061 O   0  0  0  0  0  0  0  0  0  0  0  0
  146.2984  137.0818  159.6988 C   0  0  0  0  0  0  0  0  0  0  0  0
  145.9963  138.2195  160.0644 O   0  0  0  0  0  0  0  0  0  0  0  0
  146.6653  135.9836  160.6383 C   0  0  0  0  0  0  0  0  0  0  0  0
  146.9883  136.2963  161.9795 C   0  0  0  0  0  0  0  0  0  0  0  0
  147.3418  135.2795  162.8877 C   0  0  0  0  0  0  0  0  0  0  0  0
  147.3778  133.9377  162.4657 C   0  0  0  0  0  0  0  0  0  0  0  0
  147.0588  133.6135  161.1342 C   0  0  0  0  0  0  0  0  0  0  0  0
  146.7039  134.6287  160.2248 C   0  0  0  0  0  0  0  0  0  0  0  0
  145.7888  134.1531  153.0907 C   0  0  0  0  0  0  0  0  0  0  0  0
  146.9270  133.8405  152.3110 C   0  0  0  0  0  0  0  0  0  0  0  0
  146.7846  133.3542  150.9970 C   0  0  0  0  0  0  0  0  0  0  0  0
  145.5021  133.1761  150.4459 C   0  0  0  0  0  0  0  0  0  0  0  0
  144.3620  133.4851  151.2107 C   0  0  0  0  0  0  0  0  0  0  0  0
  144.5025  133.9708  152.5254 C   0  0  0  0  0  0  0  0  0  0  0  0
  152.4704  140.2660  156.5970 H   0  0  0  0  0  0  0  0  0  0  0  0
  147.3006  135.0852  156.7872 H   0  0  0  0  0  0  0  0  0  0  0  0
  148.6257  135.9168  155.9868 H   0  0  0  0  0  0  0  0  0  0  0  0
  145.7536  136.8428  155.5453 H   0  0  0  0  0  0  0  0  0  0  0  0
  147.7841  139.9124  155.9082 H   0  0  0  0  0  0  0  0  0  0  0  0
  149.4295  137.5197  154.0643 H   0  0  0  0  0  0  0  0  0  0  0  0
  151.7285  137.5220  153.4590 H   0  0  0  0  0  0  0  0  0  0  0  0
  147.7507  139.2918  158.1989 H   0  0  0  0  0  0  0  0  0  0  0  0
  148.9065  137.6602  159.0080 H   0  0  0  0  0  0  0  0  0  0  0  0
  145.7738  138.3457  157.3105 H   0  0  0  0  0  0  0  0  0  0  0  0
  146.9685  137.3195  162.3264 H   0  0  0  0  0  0  0  0  0  0  0  0
  147.5860  135.5299  163.9098 H   0  0  0  0  0  0  0  0  0  0  0  0
  147.6503  133.1583  163.1622 H   0  0  0  0  0  0  0  0  0  0  0  0
  147.0870  132.5842  160.8082 H   0  0  0  0  0  0  0  0  0  0  0  0
  146.4657  134.3443  159.2102 H   0  0  0  0  0  0  0  0  0  0  0  0
  147.9219  133.9690  152.7130 H   0  0  0  0  0  0  0  0  0  0  0  0
  147.6606  133.1172  150.4116 H   0  0  0  0  0  0  0  0  0  0  0  0
  145.3929  132.8029  149.4384 H   0  0  0  0  0  0  0  0  0  0  0  0
  143.3771  133.3496  150.7887 H   0  0  0  0  0  0  0  0  0  0  0  0
  143.6067  134.2006  153.0840 H   0  0  0  0  0  0  0  0  0  0  0  0
  1  2  2  0  0  0  0
  2  3  1  0  0  0  0
  2 28  1  0  0  0  0
  3  4  1  0  0  0  0
  4  5  1  0  0  0  0
  4 35  1  0  0  0  0
  4 36  1  0  0  0  0
  5 18  1  0  0  0  0
  5  6  1  0  0  0  0
  5 37  1  0  0  0  0
  6  7  1  0  0  0  0
  7  8  1  0  0  0  0
  7 16  1  0  0  0  0
  7 38  1  0  0  0  0
  8 14  1  0  0  0  0
  8  9  1  0  0  0  0
  9 10  2  0  0  0  0
  9 39  1  0  0  0  0
 10 11  1  0  0  0  0
 10 40  1  0  0  0  0
 11 12  2  0  0  0  0
 11 13  1  0  0  0  0
 13 34  1  0  0  0  0
 13 14  1  0  0  0  0
 14 15  2  0  0  0  0
 16 17  1  0  0  0  0
 16 18  1  0  0  0  0
 16 41  1  0  0  0  0
 17 42  1  0  0  0  0
 18 19  1  0  0  0  0
 18 43  1  0  0  0  0
 19 20  1  0  0  0  0
 20 21  2  0  0  0  0
 20 22  1  0  0  0  0
 22 27  1  0  0  0  0
 22 23  2  0  0  0  0
 23 24  1  0  0  0  0
 23 44  1  0  0  0  0
 24 25  2  0  0  0  0
 24 45  1  0  0  0  0
 25 26  1  0  0  0  0
 25 46  1  0  0  0  0
 26 27  2  0  0  0  0
 26 47  1  0  0  0  0
 27 48  1  0  0  0  0
 28 33  1  0  0  0  0
 28 29  2  0  0  0  0
 29 30  1  0  0  0  0
 29 49  1  0  0  0  0
 30 31  2  0  0  0  0
 30 50  1  0  0  0  0
 31 32  1  0  0  0  0
 31 51  1  0  0  0  0
 32 33  2  0  0  0  0
 32 52  1  0  0  0  0
 33 53  1  0  0  0  0
M  END
> <s_m_source_file>
AV-unprocessed.smi

> <i_m_source_file_index>
99

> <i_lp_mmshare_version>
43012

> <i_f3d_flags>
0

> <s_epik_input>
W2NIXTFbY0hdW2NIXVtjSF1bY0hdYzFDKD1PKU9bQ0gyXVtDQEBIXTJPW0NAQEhdKG4zW2NIXVtjSF1jKD1PKVtuSF1jMz1PKVtDQEBIXShbT0hdKVtDQEhdMk9DKD1PKWM0W2NIXVtjSF1bY0hdW2NIXVtjSF00

> <s_epik_cmdline>
J2VwaWtfcHl0aG9uJywgJy1waCcsICc3LjAnLCAnLXRuJywgJzgnLCAnLW1hJywgJzIwMCcsICctbWV0YWxfYmluZGluZycsICctaW1hZScsICc8aW5maWxlLm1hZT4nLCAnLW9tYWUnLCAnPG91dGZpbGUubWFlPic=

> <r_lp_tautomer_probability>
1

> <r_epik_Ionization_Penalty>
0.00454555

> <r_epik_Ionization_Penalty_Charging>
0.0045191

> <r_epik_Ionization_Penalty_Neutral>
2.64449e-05

> <r_epik_State_Penalty>
-0

> <r_epik_Charging_Adjusted_Penalty>
0.0045191

> <i_epik_Tot_Q>
0

> <i_epik_Tot_abs_Q>
0

> <r_epik_Metal_State_Penalty>
1.27877

> <b_epik_Metal_Only>
0

> <s_epik_Chemistry_Notes>
This compound has an ester and may undergo hydrolysis at high or low pH. This compound contains an acetal/aminal-like group ( X-CH(R)-Y where X, Y are N, S, or O) that may be acid/base labile, releasing an aldehyde.

> <s_lp_Force_Field>
OPLS_2005

> <r_lp_Energy>
46.8858

> <b_lp_Chiralities_Consistent>
1

> <s_lp_Variant>
AV-unprocessed.smi:99-15

> <Gold.Version>
5.8.1

> <Gold.Id.Protein>
6NUR|6NUR_protein|mol2

> <Gold.PLP.Fitness>
48.7505

> <Gold.PLP.PLP>
-41.8764

> <Gold.PLP.part.hbond>
-1.7314

> <Gold.PLP.part.metal>
0.0000

> <Gold.PLP.part.buried>
-7.6152

> <Gold.PLP.part.nonpolar>
-33.3659

> <Gold.PLP.part.repulsive>
0.3445

> <Gold.PLP.ligand.clash>
0.0000

> <Gold.PLP.ligand.torsion>
0.8691

> <Gold.PLP.Chemscore.Hbond>
1.7840

> <Gold.PLP.Chemscore.CHOScore>
1.0000

> <Gold.PLP.Chemscore.Metal>
0.0000

> <Gold.Chemscore.Hbonds>
donor molecule, donor type, donor heavy atom, donor atom, acceptor molecule, acceptor atom, score
      P1  H  6934  6947       L1    21  0.80
      P1  H  7997  8008       L1    12  1.00
      L1  C     9    39       P1  7948  0.90

> <Gold.PLP.Chemscore.Internal.Correction>
0.2604

> <Gold.Rescore>
     Score         DG    S(hbond)    S(metal)    S(lipo)     H(rot)  DE(clash)    DE(int)     intcor
     13.82     -14.95       1.97        0.00      94.45       3.19       0.04       1.08       ----

> <Gold.Chemscore.Fitness>
13.8201

> <Gold.Chemscore.DG>
-14.9468

> <Gold.Chemscore.ZeroCoef>
-5.4800

> <Gold.Chemscore.Hbond>
1.9709

> <Gold.Chemscore.Metal>
0.0000

> <Gold.Chemscore.Lipo>
94.4542

> <Gold.Chemscore.Internal_Hbond>
0.0000

> <Gold.Chemscore.DEClash>
0.0445

> <Gold.Chemscore.DEInternal>
1.0823

> <Gold.Chemscore.Rot>
3.1903

> <Gold.Chemscore.Internal.Correction>
   9.000000E+99

> <Gold.Chemscore.Hbonds>
donor molecule, donor type, donor heavy atom, donor atom, acceptor molecule, acceptor atom, score
      P1  H  6934  6947       L1    21  0.75
      P1  H  7997  8008       L1    12  0.94

> <Gold.Chemscore.Hbond.Weighted>
-6.5828

> <Gold.Chemscore.Metal.Weighted>
-0.0000

> <Gold.Chemscore.Lipo.Weighted>
-11.0511

> <Gold.Chemscore.Internal_Hbond.Weighted>
0.0000

> <Gold.Chemscore.DEClash.Weighted>
0.0445

> <Gold.Chemscore.DEInternal.Weighted>
1.0823

> <Gold.Chemscore.Rot.Weighted>
8.1671

> <Gold.Chemscore.Internal.Correction.Weighted>
   9.000000E+99

> <Gold.Protein.RotatedTorsions>
[ 6907 6896 6895 6894 ] final   76.67 input  -60.11 | X-H torsion
[ 7974 7965 7964 7962 ] final -106.30 input  175.53 | X-H torsion
[ 8008 7997 7996 7995 ] final    4.54 input   59.86 | X-H torsion
[ 10167 10162 10161 10158 ] final -127.77 input  -65.29 | X-H torsion
[ 10718 10713 10712 10709 ] final  -53.59 input   66.30 | X-H torsion
[ 10763 10752 10751 10750 ] final  -55.40 input  -60.55 | X-H torsion
[ 11005 11000 10999 10996 ] final   53.67 input  -57.11 | X-H torsion

> <Gold.Protein.ActiveResidues>
 VAL166  LYS551  ARG553  GLY616  TRP617  ASP618  TYR619  PRO620  LYS621  CYS622 
 ASP623  PHE694  ASN695  SER759  ASP760  ASP761  ALA762  ILE779  LEU786  VAL792 
 PHE793  MET794  SER795  GLU796  ALA797  LYS798  CYS799  TRP800  GLU811  SER814 

> <Gold.Protein.RotatedAtoms>
  152.5083  134.3934  159.9391 H   0  0  0  0  0  0  0  0  0  0  0  0  # atno 6907 bound_to 6896
  151.3895  133.3787  159.2727 H   0  0  0  0  0  0  0  0  0  0  0  0  # atno 6908 bound_to 6896
  150.9443  134.8870  159.7691 H   0  0  0  0  0  0  0  0  0  0  0  0  # atno 6909 bound_to 6896
  145.2196  140.9129  143.3267 H   0  0  0  0  0  0  0  0  0  0  0  0  # atno 7974 bound_to 7965
  154.7172  140.2704  155.6574 H   0  0  0  0  0  0  0  0  0  0  0  0  # atno 8008 bound_to 7997
  156.2813  140.2741  156.1757 H   0  0  0  0  0  0  0  0  0  0  0  0  # atno 8009 bound_to 7997
  155.0555  140.0371  157.2549 H   0  0  0  0  0  0  0  0  0  0  0  0  # atno 8010 bound_to 7997
  139.9573  143.5989  152.2456 H   0  0  0  0  0  0  0  0  0  0  0  0  # atno 10167 bound_to 10162
  156.1522  130.4151  149.9926 H   0  0  0  0  0  0  0  0  0  0  0  0  # atno 10718 bound_to 10713
  154.1902  135.6428  153.5058 H   0  0  0  0  0  0  0  0  0  0  0  0  # atno 10763 bound_to 10752
  153.0037  135.5427  154.6423 H   0  0  0  0  0  0  0  0  0  0  0  0  # atno 10764 bound_to 10752
  154.5810  135.2925  155.0705 H   0  0  0  0  0  0  0  0  0  0  0  0  # atno 10765 bound_to 10752
  140.0748  134.5420  155.9008 H   0  0  0  0  0  0  0  0  0  0  0  0  # atno 11005 bound_to 11000
  144.9778  139.3814  143.6277 LP  0  0  0  0  0  0  0  0  0  0  0  0  # atno 17320 bound_to 7965
  146.3379  139.8905  142.8810 LP  0  0  0  0  0  0  0  0  0  0  0  0  # atno 17321 bound_to 7965
  139.6581  144.7662  151.2015 LP  0  0  0  0  0  0  0  0  0  0  0  0  # atno 17342 bound_to 10162
  140.7564  143.6053  150.8659 LP  0  0  0  0  0  0  0  0  0  0  0  0  # atno 17343 bound_to 10162
  156.7780  130.9211  151.3645 LP  0  0  0  0  0  0  0  0  0  0  0  0  # atno 17370 bound_to 10713
  157.6666  130.9013  149.9946 LP  0  0  0  0  0  0  0  0  0  0  0  0  # atno 17371 bound_to 10713
  141.2025  133.6625  156.6011 LP  0  0  0  0  0  0  0  0  0  0  0  0  # atno 17394 bound_to 11000
  140.3574  134.7717  157.4510 LP  0  0  0  0  0  0  0  0  0  0  0  0  # atno 17395 bound_to 11000

$$$$
