AV-unprocessed.smi:54|AV-procd|sdf|541|dock1
  -GOLD-   2262016423D 1   1.00000     0.00000
 Structure written by MMmdl.
 44 46  0  0  0  0  0  0  0  0  1 V2000
  151.9275  145.3358  159.7229 C   0  0  0  0  0  0  0  0  0  0  0  0
  150.5879  144.7496  159.2481 C   0  0  0  0  0  0  0  0  0  0  0  0
  149.5163  144.8446  160.3460 C   0  0  0  0  0  0  0  0  0  0  0  0
  150.7639  143.2969  158.7909 C   0  0  0  0  0  0  0  0  0  0  0  0
  151.2541  142.4372  159.5240 O   0  0  0  0  0  0  0  0  0  0  0  0
  150.3083  143.0100  157.4422 N   0  0  0  0  0  0  0  0  0  0  0  0
  150.3443  141.8214  156.7959 C   0  0  0  0  0  0  0  0  0  0  0  0
  149.3114  141.3237  156.1305 N   0  0  0  0  0  0  0  0  0  0  0  0
  149.5415  140.1077  155.5494 C   0  0  0  0  0  0  0  0  0  0  0  0
  150.7132  139.3818  155.5972 C   0  0  0  0  0  0  0  0  0  0  0  0
  150.5711  138.1948  154.8876 N   0  0  0  0  0  0  0  0  0  0  0  0
  149.3460  138.2366  154.4435 C   0  0  0  0  0  0  0  0  0  0  0  0
  148.6527  139.3712  154.7956 N   0  0  0  0  0  0  0  0  0  0  0  0
  147.2432  139.7619  154.4704 C   0  0  2  0  0  0  0  0  0  0  0  0
  146.4912  138.5871  154.3996 O   0  0  0  0  0  0  0  0  0  0  0  0
  145.8791  138.4462  153.1184 C   0  0  2  0  0  0  0  0  0  0  0  0
  145.7538  136.9632  152.7270 C   0  0  0  0  0  0  0  0  0  0  0  0
  145.5760  136.8434  151.3317 O   0  0  0  0  0  0  0  0  0  0  0  0
  146.7292  139.3126  152.1776 C   0  0  2  0  0  0  0  0  0  0  0  0
  147.8391  138.5936  151.6653 O   0  0  0  0  0  0  0  0  0  0  0  0
  147.1412  140.4533  153.0980 C   0  0  2  0  0  0  0  0  0  0  0  0
  148.3082  141.1292  152.6621 O   0  0  0  0  0  0  0  0  0  0  0  0
  151.8383  139.9041  156.3173 C   0  0  0  0  0  0  0  0  0  0  0  0
  152.9489  139.3991  156.4660 O   0  0  0  0  0  0  0  0  0  0  0  0
  151.5627  141.1493  156.8970 N   0  0  0  0  0  0  0  0  0  0  0  0
  146.9265  140.3891  155.3045 H   0  0  0  0  0  0  0  0  0  0  0  0
  144.8881  138.9004  153.1758 H   0  0  0  0  0  0  0  0  0  0  0  0
  146.1451  139.6730  151.3302 H   0  0  0  0  0  0  0  0  0  0  0  0
  146.3225  141.1714  153.1591 H   0  0  0  0  0  0  0  0  0  0  0  0
  152.6919  145.2579  158.9487 H   0  0  0  0  0  0  0  0  0  0  0  0
  152.2989  144.8219  160.6105 H   0  0  0  0  0  0  0  0  0  0  0  0
  151.8232  146.3918  159.9734 H   0  0  0  0  0  0  0  0  0  0  0  0
  150.2487  145.3367  158.3934 H   0  0  0  0  0  0  0  0  0  0  0  0
  148.5643  144.4330  160.0082 H   0  0  0  0  0  0  0  0  0  0  0  0
  149.3405  145.8825  160.6291 H   0  0  0  0  0  0  0  0  0  0  0  0
  149.8132  144.3032  161.2453 H   0  0  0  0  0  0  0  0  0  0  0  0
  149.9029  143.7859  156.9401 H   0  0  0  0  0  0  0  0  0  0  0  0
  148.9193  137.4422  153.8488 H   0  0  0  0  0  0  0  0  0  0  0  0
  146.6678  136.4275  152.9850 H   0  0  0  0  0  0  0  0  0  0  0  0
  144.9318  136.4796  153.2556 H   0  0  0  0  0  0  0  0  0  0  0  0
  144.8812  137.4261  151.0660 H   0  0  0  0  0  0  0  0  0  0  0  0
  148.6196  139.1058  151.8134 H   0  0  0  0  0  0  0  0  0  0  0  0
  148.6007  140.7244  151.8596 H   0  0  0  0  0  0  0  0  0  0  0  0
  152.3117  141.5780  157.4204 H   0  0  0  0  0  0  0  0  0  0  0  0
  1  2  1  0  0  0  0
  1 30  1  0  0  0  0
  1 31  1  0  0  0  0
  1 32  1  0  0  0  0
  2  3  1  0  0  0  0
  2  4  1  0  0  0  0
  2 33  1  0  0  0  0
  3 34  1  0  0  0  0
  3 35  1  0  0  0  0
  3 36  1  0  0  0  0
  4  5  2  0  0  0  0
  4  6  1  0  0  0  0
  6 37  1  0  0  0  0
  6  7  1  0  0  0  0
  7 25  1  0  0  0  0
  7  8  2  0  0  0  0
  8  9  1  0  0  0  0
  9 13  1  0  0  0  0
  9 10  2  0  0  0  0
 10 11  1  0  0  0  0
 10 23  1  0  0  0  0
 11 12  2  0  0  0  0
 12 13  1  0  0  0  0
 12 38  1  0  0  0  0
 13 14  1  0  0  0  0
 14 26  1  0  0  0  0
 14 21  1  0  0  0  0
 14 15  1  0  0  0  0
 15 16  1  0  0  0  0
 16 27  1  0  0  0  0
 16 17  1  0  0  0  0
 16 19  1  0  0  0  0
 17 18  1  0  0  0  0
 17 39  1  0  0  0  0
 17 40  1  0  0  0  0
 18 41  1  0  0  0  0
 19 28  1  0  0  0  0
 19 20  1  0  0  0  0
 19 21  1  0  0  0  0
 20 42  1  0  0  0  0
 21 29  1  0  0  0  0
 21 22  1  0  0  0  0
 22 43  1  0  0  0  0
 23 24  2  0  0  0  0
 23 25  1  0  0  0  0
 25 44  1  0  0  0  0
M  END
> <s_m_source_file>
AV-unprocessed.smi

> <i_m_source_file_index>
54

> <i_lp_mmshare_version>
43012

> <i_f3d_flags>
0

> <s_epik_input>
W0NIM11bQ0hdKFtDSDNdKUMoPU8pW05IXWMobjEpW25IXWMoPU8pYyhjMTIpbltjSF1uMltDQEBIXTNPW0NASF0oW0NIMl1bT0hdKVtDQEBIXShbT0hdKVtDQEhdM1tPSF0=

> <s_epik_cmdline>
J2VwaWtfcHl0aG9uJywgJy1waCcsICc3LjAnLCAnLXRuJywgJzgnLCAnLW1hJywgJzIwMCcsICctbWV0YWxfYmluZGluZycsICctaW1hZScsICc8aW5maWxlLm1hZT4nLCAnLW9tYWUnLCAnPG91dGZpbGUubWFlPic=

> <r_lp_tautomer_probability>
0.85571

> <r_epik_Ionization_Penalty>
0.0316551

> <r_epik_Ionization_Penalty_Charging>
0.0316043

> <r_epik_Ionization_Penalty_Neutral>
5.07097e-05

> <r_epik_State_Penalty>
3.15494e-07

> <r_epik_Charging_Adjusted_Penalty>
0.0316047

> <i_epik_Tot_Q>
0

> <i_epik_Tot_abs_Q>
0

> <r_epik_Metal_State_Penalty>
0.421206

> <b_epik_Metal_Only>
0

> <s_epik_Chemistry_Notes>
This compound contains an acetal/aminal-like group ( X-CH(R)-Y where X, Y are N, S, or O) that may be acid/base labile, releasing an aldehyde.

> <s_lp_Force_Field>
OPLS_2005

> <r_lp_Energy>
46.8633

> <b_lp_Chiralities_Consistent>
1

> <s_lp_Variant>
AV-unprocessed.smi:54-13

> <Gold.Version>
5.8.1

> <Gold.Id.Protein>
6NUR|6NUR_protein|mol2

> <Gold.PLP.Fitness>
52.5724

> <Gold.PLP.PLP>
-35.0421

> <Gold.PLP.part.hbond>
-6.9879

> <Gold.PLP.part.metal>
0.0000

> <Gold.PLP.part.buried>
-0.4336

> <Gold.PLP.part.nonpolar>
-27.7555

> <Gold.PLP.part.repulsive>
0.4509

> <Gold.PLP.ligand.clash>
0.0000

> <Gold.PLP.ligand.torsion>
1.3817

> <Gold.PLP.Chemscore.Hbond>
5.6511

> <Gold.PLP.Chemscore.CHOScore>
1.0000

> <Gold.PLP.Chemscore.Metal>
0.0000

> <Gold.Chemscore.Hbonds>
donor molecule, donor type, donor heavy atom, donor atom, acceptor molecule, acceptor atom, score
      L1  H     6    37       P1  8028  1.00
      L1  H    18    41       P1 10171  1.00
      L1  H    20    42       P1  7957  0.74
      L1  H    22    43       P1  7957  0.62
      P1  H  7954  7966       L1    20  0.88
      P1  H  7997  8008       L1    24  1.00
      P1  H  8011  8017       L1    22  0.18
      L1  C    12    38       P1  7948  1.00

> <Gold.PLP.Chemscore.Internal.Correction>
0.3404

> <Gold.Rescore>
     Score         DG    S(hbond)    S(metal)    S(lipo)     H(rot)  DE(clash)    DE(int)     intcor
     14.66     -17.90       4.69        0.00      60.81       4.05       1.79       1.44       ----

> <Gold.Chemscore.Fitness>
14.6647

> <Gold.Chemscore.DG>
-17.8963

> <Gold.Chemscore.ZeroCoef>
-5.4800

> <Gold.Chemscore.Hbond>
4.6908

> <Gold.Chemscore.Metal>
0.0000

> <Gold.Chemscore.Lipo>
60.8146

> <Gold.Chemscore.Internal_Hbond>
0.0000

> <Gold.Chemscore.DEClash>
1.7892

> <Gold.Chemscore.DEInternal>
1.4425

> <Gold.Chemscore.Rot>
4.0493

> <Gold.Chemscore.Internal.Correction>
   9.000000E+99

> <Gold.Chemscore.Hbonds>
donor molecule, donor type, donor heavy atom, donor atom, acceptor molecule, acceptor atom, score
      L1  H     6    37       P1  8028  0.97
      L1  H    18    41       P1 10171  0.96
      L1  H    20    42       P1  7957  0.67
      L1  H    22    43       P1  7957  0.59
      P1  H  7954  7966       L1    20  0.26
      P1  H  7997  8008       L1    24  0.98

> <Gold.Chemscore.Hbond.Weighted>
-15.6672

> <Gold.Chemscore.Metal.Weighted>
-0.0000

> <Gold.Chemscore.Lipo.Weighted>
-7.1153

> <Gold.Chemscore.Internal_Hbond.Weighted>
0.0000

> <Gold.Chemscore.DEClash.Weighted>
1.7892

> <Gold.Chemscore.DEInternal.Weighted>
1.4425

> <Gold.Chemscore.Rot.Weighted>
10.3662

> <Gold.Chemscore.Internal.Correction.Weighted>
   9.000000E+99

> <Gold.Protein.RotatedTorsions>
[ 6907 6896 6895 6894 ] final   84.33 input  -60.11 | X-H torsion
[ 7974 7965 7964 7962 ] final  -32.70 input  175.53 | X-H torsion
[ 8008 7997 7996 7995 ] final  -34.21 input   59.86 | X-H torsion
[ 10167 10162 10161 10158 ] final  160.66 input  -65.29 | X-H torsion
[ 10718 10713 10712 10709 ] final   22.17 input   66.30 | X-H torsion
[ 10763 10752 10751 10750 ] final  173.63 input  -60.55 | X-H torsion
[ 11005 11000 10999 10996 ] final -138.91 input  -57.11 | X-H torsion

> <Gold.Protein.ActiveResidues>
 VAL166  LYS551  ARG553  GLY616  TRP617  ASP618  TYR619  PRO620  LYS621  CYS622 
 ASP623  PHE694  ASN695  SER759  ASP760  ASP761  ALA762  ILE779  LEU786  VAL792 
 PHE793  MET794  SER795  GLU796  ALA797  LYS798  CYS799  TRP800  GLU811  SER814 

> <Gold.Protein.RotatedAtoms>
  152.5350  134.2757  159.8987 H   0  0  0  0  0  0  0  0  0  0  0  0  # atno 6907 bound_to 6896
  151.2712  133.4247  159.2629 H   0  0  0  0  0  0  0  0  0  0  0  0  # atno 6908 bound_to 6896
  151.0366  134.9592  159.8196 H   0  0  0  0  0  0  0  0  0  0  0  0  # atno 6909 bound_to 6896
  146.0969  140.5825  142.8838 H   0  0  0  0  0  0  0  0  0  0  0  0  # atno 7974 bound_to 7965
  154.4127  140.1690  156.2013 H   0  0  0  0  0  0  0  0  0  0  0  0  # atno 8008 bound_to 7997
  155.9521  140.3400  155.6394 H   0  0  0  0  0  0  0  0  0  0  0  0  # atno 8009 bound_to 7997
  155.6856  140.0727  157.2459 H   0  0  0  0  0  0  0  0  0  0  0  0  # atno 8010 bound_to 7997
  139.4842  144.4612  151.8702 H   0  0  0  0  0  0  0  0  0  0  0  0  # atno 10167 bound_to 10162
  157.1486  130.6664  149.6004 H   0  0  0  0  0  0  0  0  0  0  0  0  # atno 10718 bound_to 10713
  154.4427  135.2762  155.1836 H   0  0  0  0  0  0  0  0  0  0  0  0  # atno 10763 bound_to 10752
  154.3696  135.6111  153.5736 H   0  0  0  0  0  0  0  0  0  0  0  0  # atno 10764 bound_to 10752
  152.9842  135.5854  154.4758 H   0  0  0  0  0  0  0  0  0  0  0  0  # atno 10765 bound_to 10752
  140.8571  134.2215  157.4728 H   0  0  0  0  0  0  0  0  0  0  0  0  # atno 11005 bound_to 11000
  144.7402  140.4922  143.6874 LP  0  0  0  0  0  0  0  0  0  0  0  0  # atno 17320 bound_to 7965
  145.5930  139.1497  143.3171 LP  0  0  0  0  0  0  0  0  0  0  0  0  # atno 17321 bound_to 7965
  140.4074  144.2413  150.5890 LP  0  0  0  0  0  0  0  0  0  0  0  0  # atno 17342 bound_to 10162
  140.4999  143.2321  151.8694 LP  0  0  0  0  0  0  0  0  0  0  0  0  # atno 17343 bound_to 10162
  155.9775  130.4752  150.6595 LP  0  0  0  0  0  0  0  0  0  0  0  0  # atno 17370 bound_to 10713
  157.4241  131.0840  151.1102 LP  0  0  0  0  0  0  0  0  0  0  0  0  # atno 17371 bound_to 10713
  139.8705  134.9711  156.4726 LP  0  0  0  0  0  0  0  0  0  0  0  0  # atno 17394 bound_to 11000
  140.8725  133.7977  155.9380 LP  0  0  0  0  0  0  0  0  0  0  0  0  # atno 17395 bound_to 11000

$$$$
