AV-unprocessed.smi:81|AV-procd|sdf|787|dock10
  -GOLD-   2262017153D 1   1.00000     0.00000
 Structure written by MMmdl.
 64 67  0  0  0  0  0  0  0  0  2 V2000
  145.0617  134.2952  152.7725 C   0  0  0  0  0  0  0  0  0  0  0  0
  145.7448  133.5888  151.5898 C   0  0  0  0  0  0  0  0  0  0  0  0
  144.8757  132.4311  151.0791 C   0  0  0  0  0  0  0  0  0  0  0  0
  147.1551  133.0796  151.9638 C   0  0  0  0  0  0  0  0  0  0  0  0
  147.3137  132.7574  153.3849 N   0  0  0  0  0  0  0  0  0  0  0  0
  148.2455  133.5005  154.0326 C   0  0  0  0  0  0  0  0  0  0  0  0
  149.4336  132.9441  154.3877 N   0  0  0  0  0  0  0  0  0  0  0  0
  150.3555  133.6799  155.0159 C   0  0  0  0  0  0  0  0  0  0  0  0
  150.2962  134.9644  155.3735 N   0  0  0  0  0  0  0  0  0  0  0  0
  149.1071  135.5260  155.0115 C   0  0  0  0  0  0  0  0  0  0  0  0
  148.0370  134.8710  154.3415 C   0  0  0  0  0  0  0  0  0  0  0  0
  146.9909  135.7595  154.1296 N   0  0  0  0  0  0  0  0  0  0  0  0
  147.4180  136.8789  154.6475 C   0  0  0  0  0  0  0  0  0  0  0  0
  148.6755  136.8261  155.2060 N   0  0  0  0  0  0  0  0  0  0  0  0
  149.3904  137.9163  155.8502 C   0  0  0  0  0  0  0  0  0  0  0  0
  150.4389  138.5908  154.9344 C   0  0  2  0  0  0  0  0  0  0  0  0
  149.8106  138.9596  153.7166 O   0  0  0  0  0  0  0  0  0  0  0  0
  151.6368  137.7103  154.6101 C   0  0  0  0  0  0  0  0  0  0  0  0
  152.7157  138.7319  154.2721 C   0  0  0  0  0  0  0  0  0  0  0  0
  152.4756  139.8190  155.1560 O   0  0  0  0  0  0  0  0  0  0  0  0
  151.1175  139.8116  155.5943 C   0  0  1  0  0  0  0  0  0  0  0  0
  150.4559  141.1786  155.3562 C   0  0  0  0  0  0  0  0  0  0  0  0
  147.2529  131.3333  153.7449 C   0  0  2  0  0  0  0  0  0  0  0  0
  146.4019  130.4815  152.7787 C   0  0  0  0  0  0  0  0  0  0  0  0
  146.4493  128.9952  153.1676 C   0  0  0  0  0  0  0  0  0  0  0  0
  146.0046  128.7974  154.5696 N   0  3  1  0  0  0  0  0  0  0  0  0
  145.9190  127.3674  154.9357 C   0  0  0  0  0  0  0  0  0  0  0  0
  146.8247  129.5787  155.5286 C   0  0  0  0  0  0  0  0  0  0  0  0
  146.7863  131.0790  155.1947 C   0  0  0  0  0  0  0  0  0  0  0  0
  144.9447  133.6219  153.6219 H   0  0  0  0  0  0  0  0  0  0  0  0
  144.0709  134.6553  152.4943 H   0  0  0  0  0  0  0  0  0  0  0  0
  145.6367  135.1581  153.1090 H   0  0  0  0  0  0  0  0  0  0  0  0
  145.8268  134.3051  150.7716 H   0  0  0  0  0  0  0  0  0  0  0  0
  144.7430  131.6662  151.8449 H   0  0  0  0  0  0  0  0  0  0  0  0
  145.3279  131.9559  150.2082 H   0  0  0  0  0  0  0  0  0  0  0  0
  143.8865  132.7819  150.7837 H   0  0  0  0  0  0  0  0  0  0  0  0
  147.3824  132.1923  151.3719 H   0  0  0  0  0  0  0  0  0  0  0  0
  147.8994  133.8253  151.6813 H   0  0  0  0  0  0  0  0  0  0  0  0
  151.2719  133.1669  155.2677 H   0  0  0  0  0  0  0  0  0  0  0  0
  146.8215  137.7797  154.6398 H   0  0  0  0  0  0  0  0  0  0  0  0
  148.6627  138.6516  156.1959 H   0  0  0  0  0  0  0  0  0  0  0  0
  149.8704  137.5191  156.7454 H   0  0  0  0  0  0  0  0  0  0  0  0
  150.4706  139.0063  153.0419 H   0  0  0  0  0  0  0  0  0  0  0  0
  151.9405  137.1481  155.4944 H   0  0  0  0  0  0  0  0  0  0  0  0
  151.4548  136.9965  153.8056 H   0  0  0  0  0  0  0  0  0  0  0  0
  153.7238  138.3345  154.3907 H   0  0  0  0  0  0  0  0  0  0  0  0
  152.6057  139.0806  153.2446 H   0  0  0  0  0  0  0  0  0  0  0  0
  151.1648  139.6420  156.6708 H   0  0  0  0  0  0  0  0  0  0  0  0
  149.4146  141.1713  155.6787 H   0  0  0  0  0  0  0  0  0  0  0  0
  150.4819  141.4618  154.3038 H   0  0  0  0  0  0  0  0  0  0  0  0
  150.9712  141.9589  155.9167 H   0  0  0  0  0  0  0  0  0  0  0  0
  148.2776  130.9672  153.6653 H   0  0  0  0  0  0  0  0  0  0  0  0
  145.3627  130.8127  152.7853 H   0  0  0  0  0  0  0  0  0  0  0  0
  146.7635  130.6017  151.7570 H   0  0  0  0  0  0  0  0  0  0  0  0
  145.8065  128.4242  152.4964 H   0  0  0  0  0  0  0  0  0  0  0  0
  147.4614  128.6058  153.0456 H   0  0  0  0  0  0  0  0  0  0  0  0
  146.9011  126.8940  154.8973 H   0  0  0  0  0  0  0  0  0  0  0  0
  145.2550  126.8346  154.2543 H   0  0  0  0  0  0  0  0  0  0  0  0
  145.5216  127.2512  155.9445 H   0  0  0  0  0  0  0  0  0  0  0  0
  146.4503  129.4232  156.5412 H   0  0  0  0  0  0  0  0  0  0  0  0
  147.8540  129.2162  155.5115 H   0  0  0  0  0  0  0  0  0  0  0  0
  147.4171  131.6199  155.9006 H   0  0  0  0  0  0  0  0  0  0  0  0
  145.7705  131.4476  155.3395 H   0  0  0  0  0  0  0  0  0  0  0  0
  145.0652  129.1645  154.6290 H   0  0  0  0  0  0  0  0  0  0  0  0
  1  2  1  0  0  0  0
  1 30  1  0  0  0  0
  1 31  1  0  0  0  0
  1 32  1  0  0  0  0
  2  3  1  0  0  0  0
  2  4  1  0  0  0  0
  2 33  1  0  0  0  0
  3 34  1  0  0  0  0
  3 35  1  0  0  0  0
  3 36  1  0  0  0  0
  4  5  1  0  0  0  0
  4 37  1  0  0  0  0
  4 38  1  0  0  0  0
  5  6  1  0  0  0  0
  5 23  1  0  0  0  0
  6 11  1  0  0  0  0
  6  7  2  0  0  0  0
  7  8  1  0  0  0  0
  8  9  2  0  0  0  0
  8 39  1  0  0  0  0
  9 10  1  0  0  0  0
 10 14  1  0  0  0  0
 10 11  2  0  0  0  0
 11 12  1  0  0  0  0
 12 13  2  0  0  0  0
 13 14  1  0  0  0  0
 13 40  1  0  0  0  0
 14 15  1  0  0  0  0
 15 16  1  0  0  0  0
 15 41  1  0  0  0  0
 15 42  1  0  0  0  0
 16 21  1  0  0  0  0
 16 17  1  0  0  0  0
 16 18  1  0  0  0  0
 17 43  1  0  0  0  0
 18 19  1  0  0  0  0
 18 44  1  0  0  0  0
 18 45  1  0  0  0  0
 19 20  1  0  0  0  0
 19 46  1  0  0  0  0
 19 47  1  0  0  0  0
 20 21  1  0  0  0  0
 21 22  1  0  0  0  0
 21 48  1  0  0  0  0
 22 49  1  0  0  0  0
 22 50  1  0  0  0  0
 22 51  1  0  0  0  0
 23 29  1  0  0  0  0
 23 24  1  0  0  0  0
 23 52  1  0  0  0  0
 24 25  1  0  0  0  0
 24 53  1  0  0  0  0
 24 54  1  0  0  0  0
 25 26  1  0  0  0  0
 25 55  1  0  0  0  0
 25 56  1  0  0  0  0
 26 27  1  0  0  0  0
 26 28  1  0  0  0  0
 26 64  1  0  0  0  0
 27 57  1  0  0  0  0
 27 58  1  0  0  0  0
 27 59  1  0  0  0  0
 28 29  1  0  0  0  0
 28 60  1  0  0  0  0
 28 61  1  0  0  0  0
 29 62  1  0  0  0  0
 29 63  1  0  0  0  0
M  CHG  1  26   1
M  END
> <s_m_source_file>
AV-unprocessed.smi

> <i_m_source_file_index>
81

> <i_lp_mmshare_version>
43012

> <i_f3d_flags>
0

> <s_epik_input>
W0NIMl0xW0NIMl1OKFtDSDNdKVtDSDJdW0NIMl1bQ0hdMU4oW0NIMl1bQ0hdKFtDSDNdKVtDSDNdKWMobltjSF1uMiljKGMyMyluW2NIXW4zW0NIMl1bQ0BAXTQoW09IXSlbQ0gyXVtDSDJdT1tDQEhdNFtDSDNd

> <s_epik_cmdline>
J2VwaWtfcHl0aG9uJywgJy1waCcsICc3LjAnLCAnLXRuJywgJzgnLCAnLW1hJywgJzIwMCcsICctbWV0YWxfYmluZGluZycsICctaW1hZScsICc8aW5maWxlLm1hZT4nLCAnLW9tYWUnLCAnPG91dGZpbGUubWFlPic=

> <r_lp_tautomer_probability>
1

> <r_epik_Ionization_Penalty>
0.00272708

> <r_epik_Ionization_Penalty_Charging>
0.00158983

> <r_epik_Ionization_Penalty_Neutral>
0.00113725

> <r_epik_State_Penalty>
-0

> <r_epik_Charging_Adjusted_Penalty>
0.00158983

> <i_epik_Tot_Q>
1

> <i_epik_Tot_abs_Q>
1

> <r_epik_Metal_State_Penalty>
-0

> <b_epik_Metal_Only>
0

> <s_lp_Force_Field>
OPLS_2005

> <r_lp_Energy>
45.4509

> <b_lp_Chiralities_Consistent>
1

> <s_lp_Variant>
AV-unprocessed.smi:81-2

> <Gold.Version>
5.8.1

> <Gold.Id.Protein>
6NUR|6NUR_protein|mol2

> <Gold.PLP.Fitness>
45.0038

> <Gold.PLP.PLP>
-39.8781

> <Gold.PLP.part.hbond>
-3.6408

> <Gold.PLP.part.metal>
0.0000

> <Gold.PLP.part.buried>
-5.7624

> <Gold.PLP.part.nonpolar>
-30.6130

> <Gold.PLP.part.repulsive>
0.9630

> <Gold.PLP.ligand.clash>
0.0000

> <Gold.PLP.ligand.torsion>
2.3417

> <Gold.PLP.Chemscore.Hbond>
2.9839

> <Gold.PLP.Chemscore.CHOScore>
0.0000

> <Gold.PLP.Chemscore.Metal>
0.0000

> <Gold.Chemscore.Hbonds>
donor molecule, donor type, donor heavy atom, donor atom, acceptor molecule, acceptor atom, score
      L1  H    17    43       P1  7957  0.08
      L1  H    26    64       P1 10956  2.00
      P1  H  7989  7998       L1    20  0.04
      P1  H  7997  8008       L1    20  0.75

> <Gold.PLP.Chemscore.Internal.Correction>
0.8574

> <Gold.Rescore>
     Score         DG    S(hbond)    S(metal)    S(lipo)     H(rot)  DE(clash)    DE(int)     intcor
     12.84     -15.42       1.96        0.00      85.33       2.58       0.07       2.51       ----

> <Gold.Chemscore.Fitness>
12.8438

> <Gold.Chemscore.DG>
-15.4246

> <Gold.Chemscore.ZeroCoef>
-5.4800

> <Gold.Chemscore.Hbond>
1.9640

> <Gold.Chemscore.Metal>
0.0000

> <Gold.Chemscore.Lipo>
85.3260

> <Gold.Chemscore.Internal_Hbond>
0.0000

> <Gold.Chemscore.DEClash>
0.0718

> <Gold.Chemscore.DEInternal>
2.5091

> <Gold.Chemscore.Rot>
2.5774

> <Gold.Chemscore.Internal.Correction>
   9.000000E+99

> <Gold.Chemscore.Hbonds>
donor molecule, donor type, donor heavy atom, donor atom, acceptor molecule, acceptor atom, score
      L1  H    17    43       P1  7957  0.04
      L1  H    26    64       P1 10956  1.00
      P1  H  7997  8008       L1    20  0.33

> <Gold.Chemscore.Hbond.Weighted>
-6.5597

> <Gold.Chemscore.Metal.Weighted>
-0.0000

> <Gold.Chemscore.Lipo.Weighted>
-9.9831

> <Gold.Chemscore.Internal_Hbond.Weighted>
0.0000

> <Gold.Chemscore.DEClash.Weighted>
0.0718

> <Gold.Chemscore.DEInternal.Weighted>
2.5091

> <Gold.Chemscore.Rot.Weighted>
6.5982

> <Gold.Chemscore.Internal.Correction.Weighted>
   9.000000E+99

> <Gold.Protein.RotatedTorsions>
[ 6907 6896 6895 6894 ] final   71.23 input  -60.11 | X-H torsion
[ 7974 7965 7964 7962 ] final -135.14 input  175.53 | X-H torsion
[ 8008 7997 7996 7995 ] final  -26.44 input   59.86 | X-H torsion
[ 10167 10162 10161 10158 ] final  116.16 input  -65.29 | X-H torsion
[ 10718 10713 10712 10709 ] final  -39.85 input   66.30 | X-H torsion
[ 10763 10752 10751 10750 ] final  103.43 input  -60.55 | X-H torsion
[ 11005 11000 10999 10996 ] final -171.07 input  -57.11 | X-H torsion

> <Gold.Protein.ActiveResidues>
 VAL166  LYS551  ARG553  GLY616  TRP617  ASP618  TYR619  PRO620  LYS621  CYS622 
 ASP623  PHE694  ASN695  SER759  ASP760  ASP761  ALA762  ILE779  LEU786  VAL792 
 PHE793  MET794  SER795  GLU796  ALA797  LYS798  CYS799  TRP800  GLU811  SER814 

> <Gold.Protein.RotatedAtoms>
  152.4797  134.4751  159.9647 H   0  0  0  0  0  0  0  0  0  0  0  0  # atno 6907 bound_to 6896
  151.4760  133.3552  159.2838 H   0  0  0  0  0  0  0  0  0  0  0  0  # atno 6908 bound_to 6896
  150.8861  134.8285  159.7321 H   0  0  0  0  0  0  0  0  0  0  0  0  # atno 6909 bound_to 6896
  144.9041  140.6809  143.5066 H   0  0  0  0  0  0  0  0  0  0  0  0  # atno 7974 bound_to 7965
  154.4425  140.1899  156.0776 H   0  0  0  0  0  0  0  0  0  0  0  0  # atno 8008 bound_to 7997
  156.0463  140.3314  155.7274 H   0  0  0  0  0  0  0  0  0  0  0  0  # atno 8009 bound_to 7997
  155.5624  140.0605  157.2816 H   0  0  0  0  0  0  0  0  0  0  0  0  # atno 8010 bound_to 7997
  139.6266  144.7109  151.2520 H   0  0  0  0  0  0  0  0  0  0  0  0  # atno 10167 bound_to 10162
  156.2879  130.4225  149.8269 H   0  0  0  0  0  0  0  0  0  0  0  0  # atno 10718 bound_to 10713
  153.3526  135.3977  155.1658 H   0  0  0  0  0  0  0  0  0  0  0  0  # atno 10763 bound_to 10752
  154.8665  135.3660  154.5202 H   0  0  0  0  0  0  0  0  0  0  0  0  # atno 10764 bound_to 10752
  153.5655  135.7080  153.5588 H   0  0  0  0  0  0  0  0  0  0  0  0  # atno 10765 bound_to 10752
  140.5124  134.5789  157.5023 H   0  0  0  0  0  0  0  0  0  0  0  0  # atno 11005 bound_to 11000
  145.3566  139.1692  143.4406 LP  0  0  0  0  0  0  0  0  0  0  0  0  # atno 17320 bound_to 7965
  146.3124  140.3624  142.8666 LP  0  0  0  0  0  0  0  0  0  0  0  0  # atno 17321 bound_to 7965
  140.7415  143.6556  150.8210 LP  0  0  0  0  0  0  0  0  0  0  0  0  # atno 17342 bound_to 10162
  140.0175  143.5577  152.2814 LP  0  0  0  0  0  0  0  0  0  0  0  0  # atno 17343 bound_to 10162
  156.5693  130.8418  151.3352 LP  0  0  0  0  0  0  0  0  0  0  0  0  # atno 17370 bound_to 10713
  157.7334  130.9729  150.1975 LP  0  0  0  0  0  0  0  0  0  0  0  0  # atno 17371 bound_to 10713
  139.9651  134.7386  156.0155 LP  0  0  0  0  0  0  0  0  0  0  0  0  # atno 17394 bound_to 11000
  141.1378  133.6571  156.3644 LP  0  0  0  0  0  0  0  0  0  0  0  0  # atno 17395 bound_to 11000

$$$$
