AV-unprocessed.smi:1494|AV-procd|sdf|6052|dock7
  -GOLD-   22720 6173D 1   1.00000     0.00000
 Structure written by MMmdl.
 30 31  0  0  0  0  0  0  0  0  1 V2000
  151.5990  141.7546  157.8391 O   0  0  0  0  0  0  0  0  0  0  0  0
  150.9153  142.5900  157.2482 C   0  0  0  0  0  0  0  0  0  0  0  0
  150.9637  143.9034  157.5113 N   0  0  0  0  0  0  0  0  0  0  0  0
  151.8067  144.5255  158.5253 C   0  0  0  0  0  0  0  0  0  0  0  0
  151.6125  143.8670  159.8885 C   0  0  0  0  0  0  0  0  0  0  0  0
  151.9990  144.6263  161.1672 C   0  0  0  0  0  0  0  0  0  0  0  0
  152.4308  143.2891  161.7744 C   0  0  0  0  0  0  0  0  0  0  0  0
  152.5795  142.7641  160.3437 C   0  0  0  0  0  0  0  0  0  0  0  0
  150.0423  142.3278  156.2605 N   0  0  0  0  0  0  0  0  0  0  0  0
  149.7144  141.0783  155.6670 C   0  0  0  0  0  0  0  0  0  0  0  0
  150.5422  139.9297  155.7036 C   0  0  0  0  0  0  0  0  0  0  0  0
  150.0926  138.7483  155.0830 C   0  0  0  0  0  0  0  0  0  0  0  0
  148.8317  138.7548  154.4557 C   0  0  0  0  0  0  0  0  0  0  0  0
  148.0264  139.8373  154.4253 N   0  0  0  0  0  0  0  0  0  0  0  0
  148.4641  140.9662  155.0226 C   0  0  0  0  0  0  0  0  0  0  0  0
  150.3693  144.5186  156.9752 H   0  0  0  0  0  0  0  0  0  0  0  0
  152.8539  144.4825  158.2224 H   0  0  0  0  0  0  0  0  0  0  0  0
  151.5476  145.5834  158.5741 H   0  0  0  0  0  0  0  0  0  0  0  0
  150.5914  143.4951  159.9979 H   0  0  0  0  0  0  0  0  0  0  0  0
  152.8356  145.3110  161.0176 H   0  0  0  0  0  0  0  0  0  0  0  0
  151.1668  145.1136  161.6760 H   0  0  0  0  0  0  0  0  0  0  0  0
  153.3573  143.3249  162.3485 H   0  0  0  0  0  0  0  0  0  0  0  0
  151.6285  142.7957  162.3254 H   0  0  0  0  0  0  0  0  0  0  0  0
  152.2178  141.7470  160.1897 H   0  0  0  0  0  0  0  0  0  0  0  0
  153.5894  142.8952  159.9511 H   0  0  0  0  0  0  0  0  0  0  0  0
  149.6017  143.1319  155.8380 H   0  0  0  0  0  0  0  0  0  0  0  0
  151.4997  139.9227  156.2001 H   0  0  0  0  0  0  0  0  0  0  0  0
  150.7004  137.8557  155.0909 H   0  0  0  0  0  0  0  0  0  0  0  0
  148.4580  137.8655  153.9699 H   0  0  0  0  0  0  0  0  0  0  0  0
  147.7927  141.8118  154.9800 H   0  0  0  0  0  0  0  0  0  0  0  0
  1  2  2  0  0  0  0
  2  3  1  0  0  0  0
  2  9  1  0  0  0  0
  3  4  1  0  0  0  0
  3 16  1  0  0  0  0
  4  5  1  0  0  0  0
  4 17  1  0  0  0  0
  4 18  1  0  0  0  0
  5  8  1  0  0  0  0
  5  6  1  0  0  0  0
  5 19  1  0  0  0  0
  6  7  1  0  0  0  0
  6 20  1  0  0  0  0
  6 21  1  0  0  0  0
  7  8  1  0  0  0  0
  7 22  1  0  0  0  0
  7 23  1  0  0  0  0
  8 24  1  0  0  0  0
  8 25  1  0  0  0  0
  9 10  1  0  0  0  0
  9 26  1  0  0  0  0
 10 15  1  0  0  0  0
 10 11  2  0  0  0  0
 11 12  1  0  0  0  0
 11 27  1  0  0  0  0
 12 13  2  0  0  0  0
 12 28  1  0  0  0  0
 13 14  1  0  0  0  0
 13 29  1  0  0  0  0
 14 15  2  0  0  0  0
 15 30  1  0  0  0  0
M  END
> <s_m_source_file>
AV-unprocessed.smi

> <i_m_source_file_index>
1494

> <i_lp_mmshare_version>
43012

> <i_f3d_flags>
0

> <s_epik_input>
W0NIMl0xW0NIMl1bQ0gyXVtDSF0xW0NIMl1bTkhdQyg9TylbTkhdYzJbY0hdW2NIXVtjSF1uW2NIXTI=

> <s_epik_cmdline>
J2VwaWtfcHl0aG9uJywgJy1waCcsICc3LjAnLCAnLXRuJywgJzgnLCAnLW1hJywgJzIwMCcsICctbWV0YWxfYmluZGluZycsICctaW1hZScsICc8aW5maWxlLm1hZT4nLCAnLW9tYWUnLCAnPG91dGZpbGUubWFlPic=

> <r_epik_Ionization_Penalty>
0.00485471

> <r_epik_Ionization_Penalty_Charging>
0

> <r_epik_Ionization_Penalty_Neutral>
0.00485471

> <r_epik_State_Penalty>
0.00349083

> <r_epik_Charging_Adjusted_Penalty>
0.00349083

> <i_epik_Tot_Q>
0

> <i_epik_Tot_abs_Q>
0

> <r_epik_Metal_State_Penalty>
-0

> <b_epik_Metal_Only>
0

> <s_lp_Force_Field>
OPLS_2005

> <r_lp_Energy>
15.2707

> <b_lp_Chiralities_Consistent>
1

> <s_lp_Variant>
AV-unprocessed.smi:1494-1

> <Gold.Version>
5.8.1

> <Gold.Id.Protein>
6NUR|6NUR_protein|mol2

> <Gold.PLP.Fitness>
45.8802

> <Gold.PLP.PLP>
-37.8524

> <Gold.PLP.part.hbond>
-2.0000

> <Gold.PLP.part.metal>
0.0000

> <Gold.PLP.part.buried>
-3.5823

> <Gold.PLP.part.nonpolar>
-32.3694

> <Gold.PLP.part.repulsive>
0.2758

> <Gold.PLP.ligand.clash>
0.0000

> <Gold.PLP.ligand.torsion>
0.4788

> <Gold.PLP.Chemscore.Hbond>
1.9760

> <Gold.PLP.Chemscore.CHOScore>
1.0000

> <Gold.PLP.Chemscore.Metal>
0.0000

> <Gold.Chemscore.Hbonds>
donor molecule, donor type, donor heavy atom, donor atom, acceptor molecule, acceptor atom, score
      L1  H     3    16       P1  8028  0.99
      L1  H     9    26       P1  8028  1.00
      L1  C    13    29       P1  7948  0.57

> <Gold.PLP.Chemscore.Internal.Correction>
0.0574

> <Gold.Rescore>
     Score         DG    S(hbond)    S(metal)    S(lipo)     H(rot)  DE(clash)    DE(int)     intcor
     18.70     -19.51       1.94        0.00      90.85       1.20       0.07       0.74       ----

> <Gold.Chemscore.Fitness>
18.6956

> <Gold.Chemscore.DG>
-19.5076

> <Gold.Chemscore.ZeroCoef>
-5.4800

> <Gold.Chemscore.Hbond>
1.9382

> <Gold.Chemscore.Metal>
0.0000

> <Gold.Chemscore.Lipo>
90.8528

> <Gold.Chemscore.Internal_Hbond>
0.0000

> <Gold.Chemscore.DEClash>
0.0727

> <Gold.Chemscore.DEInternal>
0.7393

> <Gold.Chemscore.Rot>
1.2015

> <Gold.Chemscore.Internal.Correction>
   9.000000E+99

> <Gold.Chemscore.Hbonds>
donor molecule, donor type, donor heavy atom, donor atom, acceptor molecule, acceptor atom, score
      L1  H     3    16       P1  8028  0.73
      L1  H     9    26       P1  8028  1.00

> <Gold.Chemscore.Hbond.Weighted>
-6.4736

> <Gold.Chemscore.Metal.Weighted>
-0.0000

> <Gold.Chemscore.Lipo.Weighted>
-10.6298

> <Gold.Chemscore.Internal_Hbond.Weighted>
0.0000

> <Gold.Chemscore.DEClash.Weighted>
0.0727

> <Gold.Chemscore.DEInternal.Weighted>
0.7393

> <Gold.Chemscore.Rot.Weighted>
3.0758

> <Gold.Chemscore.Internal.Correction.Weighted>
   9.000000E+99

> <Gold.Protein.RotatedTorsions>
[ 6907 6896 6895 6894 ] final  110.00 input  -60.11 | X-H torsion
[ 7974 7965 7964 7962 ] final    8.94 input  175.53 | X-H torsion
[ 8008 7997 7996 7995 ] final   32.22 input   59.86 | X-H torsion
[ 10167 10162 10161 10158 ] final -177.98 input  -65.29 | X-H torsion
[ 10718 10713 10712 10709 ] final   10.92 input   66.30 | X-H torsion
[ 10763 10752 10751 10750 ] final  123.51 input  -60.55 | X-H torsion
[ 11005 11000 10999 10996 ] final  -70.09 input  -57.11 | X-H torsion

> <Gold.Protein.ActiveResidues>
 VAL166  LYS551  ARG553  GLY616  TRP617  ASP618  TYR619  PRO620  LYS621  CYS622 
 ASP623  PHE694  ASN695  SER759  ASP760  ASP761  ALA762  ILE779  LEU786  VAL792 
 PHE793  MET794  SER795  GLU796  ALA797  LYS798  CYS799  TRP800  GLU811  SER814 

> <Gold.Protein.RotatedAtoms>
  152.5041  133.8863  159.7371 H   0  0  0  0  0  0  0  0  0  0  0  0  # atno 6907 bound_to 6896
  150.9313  133.6755  159.2817 H   0  0  0  0  0  0  0  0  0  0  0  0  # atno 6908 bound_to 6896
  151.4098  135.0988  159.9634 H   0  0  0  0  0  0  0  0  0  0  0  0  # atno 6909 bound_to 6896
  146.2410  139.9858  142.8431 H   0  0  0  0  0  0  0  0  0  0  0  0  # atno 7974 bound_to 7965
  155.1189  140.3246  155.4502 H   0  0  0  0  0  0  0  0  0  0  0  0  # atno 8008 bound_to 7997
  156.2669  140.2031  156.6260 H   0  0  0  0  0  0  0  0  0  0  0  0  # atno 8009 bound_to 7997
  154.6699  140.0537  157.0141 H   0  0  0  0  0  0  0  0  0  0  0  0  # atno 8010 bound_to 7997
  139.5454  144.2250  152.0977 H   0  0  0  0  0  0  0  0  0  0  0  0  # atno 10167 bound_to 10162
  156.9880  130.6031  149.5683 H   0  0  0  0  0  0  0  0  0  0  0  0  # atno 10718 bound_to 10713
  153.6467  135.3370  155.3088 H   0  0  0  0  0  0  0  0  0  0  0  0  # atno 10763 bound_to 10752
  154.8547  135.4331  154.1947 H   0  0  0  0  0  0  0  0  0  0  0  0  # atno 10764 bound_to 10752
  153.2880  135.7014  153.7395 H   0  0  0  0  0  0  0  0  0  0  0  0  # atno 10765 bound_to 10752
  141.1567  133.6781  156.6699 H   0  0  0  0  0  0  0  0  0  0  0  0  # atno 11005 bound_to 11000
  145.1549  140.9642  143.4411 LP  0  0  0  0  0  0  0  0  0  0  0  0  # atno 17320 bound_to 7965
  145.0170  139.3458  143.6091 LP  0  0  0  0  0  0  0  0  0  0  0  0  # atno 17321 bound_to 7965
  140.1736  144.4912  150.6566 LP  0  0  0  0  0  0  0  0  0  0  0  0  # atno 17342 bound_to 10162
  140.6700  143.2282  151.5649 LP  0  0  0  0  0  0  0  0  0  0  0  0  # atno 17343 bound_to 10162
  156.0218  130.5313  150.8297 LP  0  0  0  0  0  0  0  0  0  0  0  0  # atno 17370 bound_to 10713
  157.5479  131.0943  150.9737 LP  0  0  0  0  0  0  0  0  0  0  0  0  # atno 17371 bound_to 10713
  140.3183  134.8029  157.4232 LP  0  0  0  0  0  0  0  0  0  0  0  0  # atno 17394 bound_to 11000
  140.1119  134.5334  155.8258 LP  0  0  0  0  0  0  0  0  0  0  0  0  # atno 17395 bound_to 11000

$$$$
