AV-unprocessed.smi:1338|AV-procd|sdf|5500|dock3
  -GOLD-   22720 5 83D 1   1.00000     0.00000
 Structure written by MMmdl.
 40 41  0  0  0  0  0  0  0  0  1 V2000
  146.1598  138.0948  152.5223 C   0  0  0  0  0  0  0  0  0  0  0  0
  147.0573  139.1139  153.1899 C   0  0  0  0  0  0  0  0  0  0  0  0
  146.4226  140.3105  153.4788 N   0  0  0  0  0  0  0  0  0  0  0  0
  147.1617  141.3023  154.0992 C   0  0  0  0  0  0  0  0  0  0  0  0
  146.3884  142.5777  154.3869 C   0  0  0  0  0  0  0  0  0  0  0  0
  148.4697  141.1137  154.4095 C   0  0  0  0  0  0  0  0  0  0  0  0
  149.3195  142.1826  155.0940 C   0  0  0  0  0  0  0  0  0  0  0  0
  149.7606  141.8487  156.5201 C   0  0  0  0  0  0  0  0  0  0  0  0
  149.2369  140.9112  157.1214 O   0  0  0  0  0  0  0  0  0  0  0  0
  150.7283  142.6160  157.0454 N   0  0  0  0  0  0  0  0  0  0  0  0
  151.3065  142.4524  158.3755 C   0  0  0  0  0  0  0  0  0  0  0  0
  152.1477  143.6877  158.7585 C   0  0  0  0  0  0  0  0  0  0  0  0
  152.8273  143.5027  160.1250 C   0  0  0  0  0  0  0  0  0  0  0  0
  153.6791  142.2239  160.1565 C   0  0  0  0  0  0  0  0  0  0  0  0
  152.8426  140.9908  159.7804 C   0  0  0  0  0  0  0  0  0  0  0  0
  152.1641  141.1733  158.4128 C   0  0  0  0  0  0  0  0  0  0  0  0
  149.0973  139.8161  154.0636 C   0  0  0  0  0  0  0  0  0  0  0  0
  150.2826  139.5892  154.3025 O   0  0  0  0  0  0  0  0  0  0  0  0
  148.3005  138.8394  153.4445 N   0  0  0  0  0  0  0  0  0  0  0  0
  145.4526  140.4925  153.2649 H   0  0  0  0  0  0  0  0  0  0  0  0
  146.6733  137.1395  152.4067 H   0  0  0  0  0  0  0  0  0  0  0  0
  145.8609  138.4433  151.5334 H   0  0  0  0  0  0  0  0  0  0  0  0
  145.2620  137.9275  153.1182 H   0  0  0  0  0  0  0  0  0  0  0  0
  146.3767  142.7846  155.4572 H   0  0  0  0  0  0  0  0  0  0  0  0
  145.3533  142.5042  154.0510 H   0  0  0  0  0  0  0  0  0  0  0  0
  146.8453  143.4248  153.8750 H   0  0  0  0  0  0  0  0  0  0  0  0
  148.7939  143.1378  155.1155 H   0  0  0  0  0  0  0  0  0  0  0  0
  150.2004  142.3702  154.4790 H   0  0  0  0  0  0  0  0  0  0  0  0
  151.0982  143.3648  156.4780 H   0  0  0  0  0  0  0  0  0  0  0  0
  150.5002  142.3368  159.1026 H   0  0  0  0  0  0  0  0  0  0  0  0
  152.9092  143.8667  157.9978 H   0  0  0  0  0  0  0  0  0  0  0  0
  151.5200  144.5792  158.7819 H   0  0  0  0  0  0  0  0  0  0  0  0
  153.4490  144.3693  160.3512 H   0  0  0  0  0  0  0  0  0  0  0  0
  152.0676  143.4547  160.9062 H   0  0  0  0  0  0  0  0  0  0  0  0
  154.5149  142.3244  159.4628 H   0  0  0  0  0  0  0  0  0  0  0  0
  154.1135  142.0907  161.1476 H   0  0  0  0  0  0  0  0  0  0  0  0
  153.4753  140.1029  159.7659 H   0  0  0  0  0  0  0  0  0  0  0  0
  152.0836  140.8173  160.5443 H   0  0  0  0  0  0  0  0  0  0  0  0
  151.5465  140.3020  158.1911 H   0  0  0  0  0  0  0  0  0  0  0  0
  152.9279  141.2167  157.6350 H   0  0  0  0  0  0  0  0  0  0  0  0
  1 21  1  0  0  0  0
  1 22  1  0  0  0  0
  1 23  1  0  0  0  0
  1  2  1  0  0  0  0
  2  3  1  0  0  0  0
  2 19  2  0  0  0  0
  3  4  1  0  0  0  0
  3 20  1  0  0  0  0
  4  6  2  0  0  0  0
  4  5  1  0  0  0  0
  5 24  1  0  0  0  0
  5 25  1  0  0  0  0
  5 26  1  0  0  0  0
  6 17  1  0  0  0  0
  6  7  1  0  0  0  0
  7  8  1  0  0  0  0
  7 27  1  0  0  0  0
  7 28  1  0  0  0  0
  8  9  2  0  0  0  0
  8 10  1  0  0  0  0
 10 11  1  0  0  0  0
 10 29  1  0  0  0  0
 11 16  1  0  0  0  0
 11 12  1  0  0  0  0
 11 30  1  0  0  0  0
 12 13  1  0  0  0  0
 12 31  1  0  0  0  0
 12 32  1  0  0  0  0
 13 14  1  0  0  0  0
 13 33  1  0  0  0  0
 13 34  1  0  0  0  0
 14 15  1  0  0  0  0
 14 35  1  0  0  0  0
 14 36  1  0  0  0  0
 15 16  1  0  0  0  0
 15 37  1  0  0  0  0
 15 38  1  0  0  0  0
 16 39  1  0  0  0  0
 16 40  1  0  0  0  0
 17 18  2  0  0  0  0
 17 19  1  0  0  0  0
M  END
> <s_m_source_file>
AV-unprocessed.smi

> <i_m_source_file_index>
1338

> <i_lp_mmshare_version>
43012

> <i_f3d_flags>
0

> <s_epik_input>
W0NIM11jMW5jKFtDSDNdKWMoYyg9TylbbkhdMSlbQ0gyXUMoPU8pW05IXVtDSF0yW0NIMl1bQ0gyXVtDSDJdW0NIMl1bQ0gyXTI=

> <s_epik_cmdline>
J2VwaWtfcHl0aG9uJywgJy1waCcsICc3LjAnLCAnLXRuJywgJzgnLCAnLW1hJywgJzIwMCcsICctbWV0YWxfYmluZGluZycsICctaW1hZScsICc8aW5maWxlLm1hZT4nLCAnLW9tYWUnLCAnPG91dGZpbGUubWFlPic=

> <r_lp_tautomer_probability>
0.156392

> <r_epik_Ionization_Penalty>
0.0136832

> <r_epik_Ionization_Penalty_Charging>
0.0135532

> <r_epik_Ionization_Penalty_Neutral>
0.000130025

> <r_epik_State_Penalty>
1.15342

> <r_epik_Charging_Adjusted_Penalty>
1.16697

> <i_epik_Tot_Q>
0

> <i_epik_Tot_abs_Q>
0

> <r_epik_Metal_State_Penalty>
1.31441

> <b_epik_Metal_Only>
0

> <s_lp_Force_Field>
OPLS_2005

> <r_lp_Energy>
13.63

> <b_lp_Chiralities_Consistent>
1

> <s_lp_Variant>
AV-unprocessed.smi:1338-2

> <Gold.Version>
5.8.1

> <Gold.Id.Protein>
6NUR|6NUR_protein|mol2

> <Gold.PLP.Fitness>
42.4651

> <Gold.PLP.PLP>
-37.4976

> <Gold.PLP.part.hbond>
-2.5743

> <Gold.PLP.part.metal>
0.0000

> <Gold.PLP.part.buried>
0.5259

> <Gold.PLP.part.nonpolar>
-37.2001

> <Gold.PLP.part.repulsive>
2.5329

> <Gold.PLP.ligand.clash>
0.0000

> <Gold.PLP.ligand.torsion>
0.3347

> <Gold.PLP.Chemscore.Hbond>
1.8775

> <Gold.PLP.Chemscore.CHOScore>
0.0000

> <Gold.PLP.Chemscore.Metal>
0.0000

> <Gold.Chemscore.Hbonds>
donor molecule, donor type, donor heavy atom, donor atom, acceptor molecule, acceptor atom, score
      L1  H     3    20       P1 10175  1.00
      P1  H  7989  7998       L1    18  1.00

> <Gold.PLP.Chemscore.Internal.Correction>
0.0045

> <Gold.Rescore>
     Score         DG    S(hbond)    S(metal)    S(lipo)     H(rot)  DE(clash)    DE(int)     intcor
     16.18     -18.59       1.68        0.00      96.80       1.49       1.99       0.42       ----

> <Gold.Chemscore.Fitness>
16.1839

> <Gold.Chemscore.DG>
-18.5918

> <Gold.Chemscore.ZeroCoef>
-5.4800

> <Gold.Chemscore.Hbond>
1.6800

> <Gold.Chemscore.Metal>
0.0000

> <Gold.Chemscore.Lipo>
96.8022

> <Gold.Chemscore.Internal_Hbond>
0.0000

> <Gold.Chemscore.DEClash>
1.9885

> <Gold.Chemscore.DEInternal>
0.4195

> <Gold.Chemscore.Rot>
1.4942

> <Gold.Chemscore.Internal.Correction>
   9.000000E+99

> <Gold.Chemscore.Hbonds>
donor molecule, donor type, donor heavy atom, donor atom, acceptor molecule, acceptor atom, score
      L1  H     3    20       P1 10175  0.94
      P1  H  7989  7998       L1    18  0.87

> <Gold.Chemscore.Hbond.Weighted>
-5.6112

> <Gold.Chemscore.Metal.Weighted>
-0.0000

> <Gold.Chemscore.Lipo.Weighted>
-11.3259

> <Gold.Chemscore.Internal_Hbond.Weighted>
0.0000

> <Gold.Chemscore.DEClash.Weighted>
1.9885

> <Gold.Chemscore.DEInternal.Weighted>
0.4195

> <Gold.Chemscore.Rot.Weighted>
3.8253

> <Gold.Chemscore.Internal.Correction.Weighted>
   9.000000E+99

> <Gold.Protein.RotatedTorsions>
[ 6907 6896 6895 6894 ] final   99.97 input  -60.11 | X-H torsion
[ 7974 7965 7964 7962 ] final   75.01 input  175.53 | X-H torsion
[ 8008 7997 7996 7995 ] final  100.22 input   59.86 | X-H torsion
[ 10167 10162 10161 10158 ] final  114.54 input  -65.29 | X-H torsion
[ 10718 10713 10712 10709 ] final   11.83 input   66.30 | X-H torsion
[ 10763 10752 10751 10750 ] final  -43.27 input  -60.55 | X-H torsion
[ 11005 11000 10999 10996 ] final -107.47 input  -57.11 | X-H torsion

> <Gold.Protein.ActiveResidues>
 VAL166  LYS551  ARG553  GLY616  TRP617  ASP618  TYR619  PRO620  LYS621  CYS622 
 ASP623  PHE694  ASN695  SER759  ASP760  ASP761  ALA762  ILE779  LEU786  VAL792 
 PHE793  MET794  SER795  GLU796  ALA797  LYS798  CYS799  TRP800  GLU811  SER814 

> <Gold.Protein.RotatedAtoms>
  152.5381  134.0348  159.8040 H   0  0  0  0  0  0  0  0  0  0  0  0  # atno 6907 bound_to 6896
  151.0513  133.5614  159.2649 H   0  0  0  0  0  0  0  0  0  0  0  0  # atno 6908 bound_to 6896
  151.2547  135.0641  159.9129 H   0  0  0  0  0  0  0  0  0  0  0  0  # atno 6909 bound_to 6896
  145.7210  139.2648  143.1596 H   0  0  0  0  0  0  0  0  0  0  0  0  # atno 7974 bound_to 7965
  156.1182  140.3216  155.8170 H   0  0  0  0  0  0  0  0  0  0  0  0  # atno 8008 bound_to 7997
  155.4551  140.0535  157.3014 H   0  0  0  0  0  0  0  0  0  0  0  0  # atno 8009 bound_to 7997
  154.4808  140.2052  155.9782 H   0  0  0  0  0  0  0  0  0  0  0  0  # atno 8010 bound_to 7997
  139.6381  144.7121  151.2293 H   0  0  0  0  0  0  0  0  0  0  0  0  # atno 10167 bound_to 10162
  157.0012  130.6080  149.5696 H   0  0  0  0  0  0  0  0  0  0  0  0  # atno 10718 bound_to 10713
  153.9927  135.6703  153.4755 H   0  0  0  0  0  0  0  0  0  0  0  0  # atno 10763 bound_to 10752
  153.0697  135.4981  154.8275 H   0  0  0  0  0  0  0  0  0  0  0  0  # atno 10764 bound_to 10752
  154.7099  135.3095  154.9175 H   0  0  0  0  0  0  0  0  0  0  0  0  # atno 10765 bound_to 10752
  141.0952  133.8983  157.1979 H   0  0  0  0  0  0  0  0  0  0  0  0  # atno 11005 bound_to 11000
  146.0625  140.7955  142.9727 LP  0  0  0  0  0  0  0  0  0  0  0  0  # atno 17320 bound_to 7965
  144.6916  140.3219  143.7231 LP  0  0  0  0  0  0  0  0  0  0  0  0  # atno 17321 bound_to 7965
  140.7476  143.6360  150.8379 LP  0  0  0  0  0  0  0  0  0  0  0  0  # atno 17342 bound_to 10162
  139.9994  143.5761  152.2881 LP  0  0  0  0  0  0  0  0  0  0  0  0  # atno 17343 bound_to 10162
  156.0170  130.5264  150.8164 LP  0  0  0  0  0  0  0  0  0  0  0  0  # atno 17370 bound_to 10713
  157.5388  131.0940  150.9855 LP  0  0  0  0  0  0  0  0  0  0  0  0  # atno 17371 bound_to 10713
  139.9787  135.0105  156.9696 LP  0  0  0  0  0  0  0  0  0  0  0  0  # atno 17394 bound_to 11000
  140.5156  134.0958  155.7280 LP  0  0  0  0  0  0  0  0  0  0  0  0  # atno 17395 bound_to 11000

$$$$
