AV-unprocessed.smi:1314|AV-procd|sdf|5453|dock3
  -GOLD-   22720 5 23D 1   1.00000     0.00000
 Structure written by MMmdl.
 41 42  0  0  0  0  0  0  0  0  1 V2000
  146.3562  138.4558  155.3260 C   0  0  0  0  0  0  0  0  0  0  0  0
  145.6596  139.3196  156.3379 C   0  0  0  0  0  0  0  0  0  0  0  0
  144.7796  138.7796  157.1645 N   0  0  0  0  0  0  0  0  0  0  0  0
  144.3199  139.8255  157.9708 O   0  0  0  0  0  0  0  0  0  0  0  0
  144.9483  140.9677  157.5923 C   0  0  0  0  0  0  0  0  0  0  0  0
  144.5951  142.2077  158.3416 C   0  0  0  0  0  0  0  0  0  0  0  0
  145.8089  140.7188  156.5586 C   0  0  0  0  0  0  0  0  0  0  0  0
  146.7065  141.6820  155.8250 C   0  0  0  0  0  0  0  0  0  0  0  0
  148.1567  141.1991  155.8937 C   0  0  0  0  0  0  0  0  0  0  0  0
  148.5379  140.2874  155.1594 O   0  0  0  0  0  0  0  0  0  0  0  0
  148.9505  141.8164  156.7827 N   0  0  0  0  0  0  0  0  0  0  0  0
  150.3547  141.5037  157.0307 C   0  0  0  0  0  0  0  0  0  0  0  0
  150.6465  141.3049  158.5269 C   0  0  0  0  0  0  0  0  0  0  0  0
  152.4235  141.3349  158.9025 S   0  0  0  0  0  0  0  0  0  0  0  0
  152.6306  143.0727  159.3874 C   0  0  0  0  0  0  0  0  0  0  0  0
  152.1940  143.3320  160.8286 C   0  0  0  0  0  0  0  0  0  0  0  0
  151.9570  144.8427  160.8901 C   0  0  0  0  0  0  0  0  0  0  0  0
  151.5742  145.2712  159.4652 C   0  0  0  0  0  0  0  0  0  0  0  0
  151.7632  144.0367  158.5732 C   0  0  0  0  0  0  0  0  0  0  0  0
  147.4255  138.6661  155.3044 H   0  0  0  0  0  0  0  0  0  0  0  0
  145.9624  138.6346  154.3255 H   0  0  0  0  0  0  0  0  0  0  0  0
  146.2339  137.3949  155.5473 H   0  0  0  0  0  0  0  0  0  0  0  0
  145.4886  142.7886  158.5703 H   0  0  0  0  0  0  0  0  0  0  0  0
  144.0992  141.9696  159.2831 H   0  0  0  0  0  0  0  0  0  0  0  0
  143.9244  142.8346  157.7543 H   0  0  0  0  0  0  0  0  0  0  0  0
  146.4235  141.7681  154.7755 H   0  0  0  0  0  0  0  0  0  0  0  0
  146.6271  142.6872  156.2417 H   0  0  0  0  0  0  0  0  0  0  0  0
  148.5469  142.5565  157.3383 H   0  0  0  0  0  0  0  0  0  0  0  0
  150.5756  140.5776  156.4995 H   0  0  0  0  0  0  0  0  0  0  0  0
  151.0173  142.2599  156.6063 H   0  0  0  0  0  0  0  0  0  0  0  0
  150.1368  142.0645  159.1208 H   0  0  0  0  0  0  0  0  0  0  0  0
  150.2508  140.3396  158.8419 H   0  0  0  0  0  0  0  0  0  0  0  0
  153.6807  143.3484  159.2805 H   0  0  0  0  0  0  0  0  0  0  0  0
  151.2586  142.8096  161.0349 H   0  0  0  0  0  0  0  0  0  0  0  0
  152.9306  142.9940  161.5581 H   0  0  0  0  0  0  0  0  0  0  0  0
  151.1908  145.1047  161.6205 H   0  0  0  0  0  0  0  0  0  0  0  0
  152.8773  145.3471  161.1876 H   0  0  0  0  0  0  0  0  0  0  0  0
  150.5452  145.6290  159.4172 H   0  0  0  0  0  0  0  0  0  0  0  0
  152.2178  146.0876  159.1352 H   0  0  0  0  0  0  0  0  0  0  0  0
  152.2103  144.2883  157.6111 H   0  0  0  0  0  0  0  0  0  0  0  0
  150.7909  143.5835  158.3753 H   0  0  0  0  0  0  0  0  0  0  0  0
  1  2  1  0  0  0  0
  1 20  1  0  0  0  0
  1 21  1  0  0  0  0
  1 22  1  0  0  0  0
  2  7  1  0  0  0  0
  2  3  2  0  0  0  0
  3  4  1  0  0  0  0
  4  5  1  0  0  0  0
  5  6  1  0  0  0  0
  5  7  2  0  0  0  0
  6 23  1  0  0  0  0
  6 24  1  0  0  0  0
  6 25  1  0  0  0  0
  7  8  1  0  0  0  0
  8  9  1  0  0  0  0
  8 26  1  0  0  0  0
  8 27  1  0  0  0  0
  9 10  2  0  0  0  0
  9 11  1  0  0  0  0
 11 12  1  0  0  0  0
 11 28  1  0  0  0  0
 12 13  1  0  0  0  0
 12 29  1  0  0  0  0
 12 30  1  0  0  0  0
 13 14  1  0  0  0  0
 13 31  1  0  0  0  0
 13 32  1  0  0  0  0
 14 15  1  0  0  0  0
 15 19  1  0  0  0  0
 15 16  1  0  0  0  0
 15 33  1  0  0  0  0
 16 17  1  0  0  0  0
 16 34  1  0  0  0  0
 16 35  1  0  0  0  0
 17 18  1  0  0  0  0
 17 36  1  0  0  0  0
 17 37  1  0  0  0  0
 18 19  1  0  0  0  0
 18 38  1  0  0  0  0
 18 39  1  0  0  0  0
 19 40  1  0  0  0  0
 19 41  1  0  0  0  0
M  END
> <s_m_source_file>
AV-unprocessed.smi

> <i_m_source_file_index>
1314

> <i_lp_mmshare_version>
43012

> <i_f3d_flags>
0

> <s_epik_input>
W0NIM11jMW5vYyhbQ0gzXSljMVtDSDJdQyg9TylbTkhdW0NIMl1bQ0gyXVNbQ0hdMltDSDJdW0NIMl1bQ0gyXVtDSDJdMg==

> <s_epik_cmdline>
J2VwaWtfcHl0aG9uJywgJy1waCcsICc3LjAnLCAnLXRuJywgJzgnLCAnLW1hJywgJzIwMCcsICctbWV0YWxfYmluZGluZycsICctaW1hZScsICc8aW5maWxlLm1hZT4nLCAnLW9tYWUnLCAnPG91dGZpbGUubWFlPic=

> <r_lp_tautomer_probability>
1

> <r_epik_Ionization_Penalty>
2.75407e-08

> <r_epik_Ionization_Penalty_Charging>
0

> <r_epik_Ionization_Penalty_Neutral>
2.75407e-08

> <r_epik_State_Penalty>
-0

> <r_epik_Charging_Adjusted_Penalty>
0

> <i_epik_Tot_Q>
0

> <i_epik_Tot_abs_Q>
0

> <r_epik_Metal_State_Penalty>
-0

> <b_epik_Metal_Only>
0

> <s_lp_Force_Field>
OPLS_2005

> <r_lp_Energy>
14.7141

> <b_lp_Chiralities_Consistent>
1

> <s_lp_Variant>
AV-unprocessed.smi:1314-1

> <Gold.Version>
5.8.1

> <Gold.Id.Protein>
6NUR|6NUR_protein|mol2

> <Gold.PLP.Fitness>
45.8068

> <Gold.PLP.PLP>
-42.0446

> <Gold.PLP.part.hbond>
-2.0000

> <Gold.PLP.part.metal>
0.0000

> <Gold.PLP.part.buried>
-4.6287

> <Gold.PLP.part.nonpolar>
-36.1906

> <Gold.PLP.part.repulsive>
0.9646

> <Gold.PLP.ligand.clash>
0.0000

> <Gold.PLP.ligand.torsion>
0.8200

> <Gold.PLP.Chemscore.Hbond>
1.7600

> <Gold.PLP.Chemscore.CHOScore>
0.0000

> <Gold.PLP.Chemscore.Metal>
0.0000

> <Gold.PLP.Chemscore.Internal.Correction>
0.1221

> <Gold.Rescore>
     Score         DG    S(hbond)    S(metal)    S(lipo)     H(rot)  DE(clash)    DE(int)     intcor
     15.96     -19.01       1.46        0.00     110.27       1.66       0.46       2.60       ----

> <Gold.Chemscore.Fitness>
15.9571

> <Gold.Chemscore.DG>
-19.0094

> <Gold.Chemscore.ZeroCoef>
-5.4800

> <Gold.Chemscore.Hbond>
1.4640

> <Gold.Chemscore.Metal>
0.0000

> <Gold.Chemscore.Lipo>
110.2690

> <Gold.Chemscore.Internal_Hbond>
0.0000

> <Gold.Chemscore.DEClash>
0.4566

> <Gold.Chemscore.DEInternal>
2.5957

> <Gold.Chemscore.Rot>
1.6648

> <Gold.Chemscore.Internal.Correction>
   9.000000E+99

> <Gold.Chemscore.Hbond.Weighted>
-4.8898

> <Gold.Chemscore.Metal.Weighted>
-0.0000

> <Gold.Chemscore.Lipo.Weighted>
-12.9015

> <Gold.Chemscore.Internal_Hbond.Weighted>
0.0000

> <Gold.Chemscore.DEClash.Weighted>
0.4566

> <Gold.Chemscore.DEInternal.Weighted>
2.5957

> <Gold.Chemscore.Rot.Weighted>
4.2619

> <Gold.Chemscore.Internal.Correction.Weighted>
   9.000000E+99

> <Gold.Protein.RotatedTorsions>
[ 6907 6896 6895 6894 ] final  -55.96 input  -60.11 | X-H torsion
[ 7974 7965 7964 7962 ] final  110.36 input  175.53 | X-H torsion
[ 8008 7997 7996 7995 ] final  -67.30 input   59.86 | X-H torsion
[ 10167 10162 10161 10158 ] final  125.66 input  -65.29 | X-H torsion
[ 10718 10713 10712 10709 ] final  -36.57 input   66.30 | X-H torsion
[ 10763 10752 10751 10750 ] final   78.45 input  -60.55 | X-H torsion
[ 11005 11000 10999 10996 ] final  159.11 input  -57.11 | X-H torsion

> <Gold.Protein.ActiveResidues>
 VAL166  LYS551  ARG553  GLY616  TRP617  ASP618  TYR619  PRO620  LYS621  CYS622 
 ASP623  PHE694  ASN695  SER759  ASP760  ASP761  ALA762  ILE779  LEU786  VAL792 
 PHE793  MET794  SER795  GLU796  ALA797  LYS798  CYS799  TRP800  GLU811  SER814 

> <Gold.Protein.RotatedAtoms>
  150.8207  134.7413  159.6769 H   0  0  0  0  0  0  0  0  0  0  0  0  # atno 6907 bound_to 6896
  152.4323  134.5751  159.9942 H   0  0  0  0  0  0  0  0  0  0  0  0  # atno 6908 bound_to 6896
  151.5936  133.3326  159.3068 H   0  0  0  0  0  0  0  0  0  0  0  0  # atno 6909 bound_to 6896
  145.2559  139.2721  143.4042 H   0  0  0  0  0  0  0  0  0  0  0  0  # atno 7974 bound_to 7965
  154.4790  140.0895  156.7333 H   0  0  0  0  0  0  0  0  0  0  0  0  # atno 8008 bound_to 7997
  155.4519  140.3458  155.4283 H   0  0  0  0  0  0  0  0  0  0  0  0  # atno 8009 bound_to 7997
  156.1162  140.1461  156.9257 H   0  0  0  0  0  0  0  0  0  0  0  0  # atno 8010 bound_to 7997
  139.5673  144.6919  151.3875 H   0  0  0  0  0  0  0  0  0  0  0  0  # atno 10167 bound_to 10162
  156.3253  130.4271  149.7922 H   0  0  0  0  0  0  0  0  0  0  0  0  # atno 10718 bound_to 10713
  153.0875  135.4876  154.8625 H   0  0  0  0  0  0  0  0  0  0  0  0  # atno 10763 bound_to 10752
  154.7228  135.3043  154.9021 H   0  0  0  0  0  0  0  0  0  0  0  0  # atno 10764 bound_to 10752
  153.9680  135.6804  153.4799 H   0  0  0  0  0  0  0  0  0  0  0  0  # atno 10765 bound_to 10752
  140.1930  134.8393  157.2933 H   0  0  0  0  0  0  0  0  0  0  0  0  # atno 11005 bound_to 11000
  146.3289  140.2963  142.8618 LP  0  0  0  0  0  0  0  0  0  0  0  0  # atno 17320 bound_to 7965
  144.9461  140.8129  143.5601 LP  0  0  0  0  0  0  0  0  0  0  0  0  # atno 17321 bound_to 7965
  140.6957  143.7755  150.7323 LP  0  0  0  0  0  0  0  0  0  0  0  0  # atno 17342 bound_to 10162
  140.1250  143.4577  152.2289 LP  0  0  0  0  0  0  0  0  0  0  0  0  # atno 17343 bound_to 10162
  156.5215  130.8217  151.3205 LP  0  0  0  0  0  0  0  0  0  0  0  0  # atno 17370 bound_to 10713
  157.7420  130.9881  150.2484 LP  0  0  0  0  0  0  0  0  0  0  0  0  # atno 17371 bound_to 10713
  140.2139  134.4106  155.7599 LP  0  0  0  0  0  0  0  0  0  0  0  0  # atno 17394 bound_to 11000
  141.2226  133.7132  156.8381 LP  0  0  0  0  0  0  0  0  0  0  0  0  # atno 17395 bound_to 11000

$$$$
