AV-unprocessed.smi:356|AV-procd|sdf|2411|dock3
  -GOLD-   2262022343D 1   1.00000     0.00000
 Structure written by MMmdl.
 42 44  0  0  0  0  0  0  0  0  2 V2000
  152.1968  138.6582  156.9494 C   0  0  0  0  0  0  0  0  0  0  0  0
  152.2522  139.8387  157.8664 C   0  0  0  0  0  0  0  0  0  0  0  0
  152.9186  139.8117  159.0204 N   0  0  0  0  0  0  0  0  0  0  0  0
  152.7080  141.0818  159.5216 C   0  0  0  0  0  0  0  0  0  0  0  0
  153.1535  141.6815  160.7214 C   0  0  0  0  0  0  0  0  0  0  0  0
  152.8073  143.0146  161.0244 C   0  0  0  0  0  0  0  0  0  0  0  0
  152.0120  143.7658  160.1348 C   0  0  0  0  0  0  0  0  0  0  0  0
  151.5567  143.1874  158.9345 C   0  0  0  0  0  0  0  0  0  0  0  0
  151.9049  141.8561  158.6364 C   0  0  0  0  0  0  0  0  0  0  0  0
  151.6261  141.0046  157.5711 N   0  0  0  0  0  0  0  0  0  0  0  0
  150.8267  141.3192  156.3946 C   0  0  0  0  0  0  0  0  0  0  0  0
  149.3108  141.2791  156.6752 C   0  0  1  0  0  0  0  0  0  0  0  0
  148.9589  142.3473  157.5340 O   0  0  0  0  0  0  0  0  0  0  0  0
  148.4863  141.3959  155.3783 C   0  0  0  0  0  0  0  0  0  0  0  0
  147.3789  142.3793  155.4931 N   0  3  0  0  0  0  0  0  0  0  0  0
  146.8873  142.8384  154.1721 C   0  0  0  0  0  0  0  0  0  0  0  0
  145.7902  143.9020  154.3464 C   0  0  0  0  0  0  0  0  0  0  0  0
  144.7323  143.3713  155.1348 O   0  0  0  0  0  0  0  0  0  0  0  0
  145.1708  143.0047  156.4370 C   0  0  0  0  0  0  0  0  0  0  0  0
  146.2470  141.9108  156.3311 C   0  0  0  0  0  0  0  0  0  0  0  0
  152.7374  137.8146  157.3798 H   0  0  0  0  0  0  0  0  0  0  0  0
  152.6530  138.9030  155.9901 H   0  0  0  0  0  0  0  0  0  0  0  0
  151.1638  138.3530  156.7837 H   0  0  0  0  0  0  0  0  0  0  0  0
  153.7617  141.1143  161.4103 H   0  0  0  0  0  0  0  0  0  0  0  0
  153.1533  143.4632  161.9440 H   0  0  0  0  0  0  0  0  0  0  0  0
  151.7511  144.7863  160.3752 H   0  0  0  0  0  0  0  0  0  0  0  0
  150.9458  143.7607  158.2537 H   0  0  0  0  0  0  0  0  0  0  0  0
  151.1190  142.3053  156.0313 H   0  0  0  0  0  0  0  0  0  0  0  0
  151.0826  140.6192  155.5989 H   0  0  0  0  0  0  0  0  0  0  0  0
  149.0763  140.3469  157.1868 H   0  0  0  0  0  0  0  0  0  0  0  0
  149.0318  143.1585  157.0544 H   0  0  0  0  0  0  0  0  0  0  0  0
  149.1557  141.6913  154.5686 H   0  0  0  0  0  0  0  0  0  0  0  0
  148.0770  140.4250  155.0946 H   0  0  0  0  0  0  0  0  0  0  0  0
  147.7120  143.2571  153.5942 H   0  0  0  0  0  0  0  0  0  0  0  0
  146.4987  141.9878  153.6099 H   0  0  0  0  0  0  0  0  0  0  0  0
  146.1916  144.8036  154.8122 H   0  0  0  0  0  0  0  0  0  0  0  0
  145.3938  144.1957  153.3743 H   0  0  0  0  0  0  0  0  0  0  0  0
  145.5542  143.8792  156.9654 H   0  0  0  0  0  0  0  0  0  0  0  0
  144.3171  142.6376  157.0071 H   0  0  0  0  0  0  0  0  0  0  0  0
  145.8162  141.0081  155.8948 H   0  0  0  0  0  0  0  0  0  0  0  0
  146.5915  141.6487  157.3307 H   0  0  0  0  0  0  0  0  0  0  0  0
  147.7687  143.1928  155.9484 H   0  0  0  0  0  0  0  0  0  0  0  0
  1  2  1  0  0  0  0
  1 21  1  0  0  0  0
  1 22  1  0  0  0  0
  1 23  1  0  0  0  0
  2 10  1  0  0  0  0
  2  3  2  0  0  0  0
  3  4  1  0  0  0  0
  4  9  2  0  0  0  0
  4  5  1  0  0  0  0
  5  6  2  0  0  0  0
  5 24  1  0  0  0  0
  6  7  1  0  0  0  0
  6 25  1  0  0  0  0
  7  8  2  0  0  0  0
  7 26  1  0  0  0  0
  8  9  1  0  0  0  0
  8 27  1  0  0  0  0
  9 10  1  0  0  0  0
 10 11  1  0  0  0  0
 11 12  1  0  0  0  0
 11 28  1  0  0  0  0
 11 29  1  0  0  0  0
 12 13  1  0  0  0  0
 12 14  1  0  0  0  0
 12 30  1  0  0  0  0
 13 31  1  0  0  0  0
 14 15  1  0  0  0  0
 14 32  1  0  0  0  0
 14 33  1  0  0  0  0
 15 20  1  0  0  0  0
 15 16  1  0  0  0  0
 15 42  1  0  0  0  0
 16 17  1  0  0  0  0
 16 34  1  0  0  0  0
 16 35  1  0  0  0  0
 17 18  1  0  0  0  0
 17 36  1  0  0  0  0
 17 37  1  0  0  0  0
 18 19  1  0  0  0  0
 19 20  1  0  0  0  0
 19 38  1  0  0  0  0
 19 39  1  0  0  0  0
 20 40  1  0  0  0  0
 20 41  1  0  0  0  0
M  CHG  1  15   1
M  END
> <s_m_source_file>
AV-unprocessed.smi

> <i_m_source_file_index>
356

> <i_lp_mmshare_version>
43012

> <i_f3d_flags>
0

> <s_epik_input>
W2NIXTFbY0hdW2NIXVtjSF1jKGMxMiluKGMobjIpW0NIM10pW0NIMl1bQ0BIXShbT0hdKVtDSDJdTjNbQ0gyXVtDSDJdT1tDSDJdW0NIMl0z

> <s_epik_cmdline>
J2VwaWtfcHl0aG9uJywgJy1waCcsICc3LjAnLCAnLXRuJywgJzgnLCAnLW1hJywgJzIwMCcsICctbWV0YWxfYmluZGluZycsICctaW1hZScsICc8aW5maWxlLm1hZT4nLCAnLW9tYWUnLCAnPG91dGZpbGUubWFlPic=

> <r_epik_Ionization_Penalty>
0.706388

> <r_epik_Ionization_Penalty_Charging>
0.608065

> <r_epik_Ionization_Penalty_Neutral>
0.0983237

> <r_epik_State_Penalty>
0.742533

> <r_epik_Charging_Adjusted_Penalty>
1.3506

> <i_epik_Tot_Q>
1

> <i_epik_Tot_abs_Q>
1

> <r_epik_Metal_State_Penalty>
0.651809

> <b_epik_Metal_Only>
0

> <s_lp_Force_Field>
OPLS_2005

> <r_lp_Energy>
21.7358

> <b_lp_Chiralities_Consistent>
1

> <s_lp_Variant>
AV-unprocessed.smi:356-4

> <Gold.Version>
5.8.1

> <Gold.Id.Protein>
6NUR|6NUR_protein|mol2

> <Gold.PLP.Fitness>
49.1256

> <Gold.PLP.PLP>
-42.3151

> <Gold.PLP.part.hbond>
-2.0000

> <Gold.PLP.part.metal>
0.0000

> <Gold.PLP.part.buried>
-6.8740

> <Gold.PLP.part.nonpolar>
-33.2396

> <Gold.PLP.part.repulsive>
0.2762

> <Gold.PLP.ligand.clash>
0.0475

> <Gold.PLP.ligand.torsion>
1.0801

> <Gold.PLP.Chemscore.Hbond>
3.0000

> <Gold.PLP.Chemscore.CHOScore>
0.0000

> <Gold.PLP.Chemscore.Metal>
0.0000

> <Gold.Chemscore.Hbonds>
donor molecule, donor type, donor heavy atom, donor atom, acceptor molecule, acceptor atom, score
      L1  H    13    31       P1  8028  0.84
      L1  H    15    42       P1  8028  1.64

> <Gold.PLP.Chemscore.Internal.Correction>
0.0183

> <Gold.Rescore>
     Score         DG    S(hbond)    S(metal)    S(lipo)     H(rot)  DE(clash)    DE(int)     intcor
     16.11     -19.26       1.87        0.00     109.65       2.07       0.55       2.59       ----

> <Gold.Chemscore.Fitness>
16.1144

> <Gold.Chemscore.DG>
-19.2599

> <Gold.Chemscore.ZeroCoef>
-5.4800

> <Gold.Chemscore.Hbond>
1.8678

> <Gold.Chemscore.Metal>
0.0000

> <Gold.Chemscore.Lipo>
109.6506

> <Gold.Chemscore.Internal_Hbond>
0.0000

> <Gold.Chemscore.DEClash>
0.5535

> <Gold.Chemscore.DEInternal>
2.5919

> <Gold.Chemscore.Rot>
2.0656

> <Gold.Chemscore.Internal.Correction>
   9.000000E+99

> <Gold.Chemscore.Hbonds>
donor molecule, donor type, donor heavy atom, donor atom, acceptor molecule, acceptor atom, score
      L1  H    13    31       P1  8028  0.69
      L1  H    15    42       P1  8028  0.18

> <Gold.Chemscore.Hbond.Weighted>
-6.2386

> <Gold.Chemscore.Metal.Weighted>
-0.0000

> <Gold.Chemscore.Lipo.Weighted>
-12.8291

> <Gold.Chemscore.Internal_Hbond.Weighted>
0.0000

> <Gold.Chemscore.DEClash.Weighted>
0.5535

> <Gold.Chemscore.DEInternal.Weighted>
2.5919

> <Gold.Chemscore.Rot.Weighted>
5.2879

> <Gold.Chemscore.Internal.Correction.Weighted>
   9.000000E+99

> <Gold.Protein.RotatedTorsions>
[ 6907 6896 6895 6894 ] final -159.49 input  -60.11 | X-H torsion
[ 7974 7965 7964 7962 ] final  -60.94 input  175.53 | X-H torsion
[ 8008 7997 7996 7995 ] final  137.25 input   59.86 | X-H torsion
[ 10167 10162 10161 10158 ] final   92.44 input  -65.29 | X-H torsion
[ 10718 10713 10712 10709 ] final -163.21 input   66.30 | X-H torsion
[ 10763 10752 10751 10750 ] final   90.37 input  -60.55 | X-H torsion
[ 11005 11000 10999 10996 ] final  110.85 input  -57.11 | X-H torsion

> <Gold.Protein.ActiveResidues>
 VAL166  LYS551  ARG553  GLY616  TRP617  ASP618  TYR619  PRO620  LYS621  CYS622 
 ASP623  PHE694  ASN695  SER759  ASP760  ASP761  ALA762  ILE779  LEU786  VAL792 
 PHE793  MET794  SER795  GLU796  ALA797  LYS798  CYS799  TRP800  GLU811  SER814 

> <Gold.Protein.RotatedAtoms>
  151.3344  133.3987  159.2665 H   0  0  0  0  0  0  0  0  0  0  0  0  # atno 6907 bound_to 6896
  150.9929  134.9260  159.7920 H   0  0  0  0  0  0  0  0  0  0  0  0  # atno 6908 bound_to 6896
  152.5252  134.3309  159.9235 H   0  0  0  0  0  0  0  0  0  0  0  0  # atno 6909 bound_to 6896
  145.8094  140.8607  143.0189 H   0  0  0  0  0  0  0  0  0  0  0  0  # atno 7974 bound_to 7965
  156.3002  140.2424  156.3878 H   0  0  0  0  0  0  0  0  0  0  0  0  # atno 8008 bound_to 7997
  154.8642  140.0419  157.1704 H   0  0  0  0  0  0  0  0  0  0  0  0  # atno 8009 bound_to 7997
  154.8864  140.2957  155.5399 H   0  0  0  0  0  0  0  0  0  0  0  0  # atno 8010 bound_to 7997
  139.8276  144.6702  150.9439 H   0  0  0  0  0  0  0  0  0  0  0  0  # atno 10167 bound_to 10162
  156.6214  130.8892  151.2958 H   0  0  0  0  0  0  0  0  0  0  0  0  # atno 10718 bound_to 10713
  153.1968  135.4436  155.0218 H   0  0  0  0  0  0  0  0  0  0  0  0  # atno 10763 bound_to 10752
  154.8123  135.3300  154.7273 H   0  0  0  0  0  0  0  0  0  0  0  0  # atno 10764 bound_to 10752
  153.7721  135.6984  153.4960 H   0  0  0  0  0  0  0  0  0  0  0  0  # atno 10765 bound_to 10752
  139.8890  134.9494  156.6341 H   0  0  0  0  0  0  0  0  0  0  0  0  # atno 11005 bound_to 11000
  144.6759  140.0374  143.7481 LP  0  0  0  0  0  0  0  0  0  0  0  0  # atno 17320 bound_to 7965
  145.9793  139.2929  143.1051 LP  0  0  0  0  0  0  0  0  0  0  0  0  # atno 17321 bound_to 7965
  140.7809  143.4031  151.1116 LP  0  0  0  0  0  0  0  0  0  0  0  0  # atno 17342 bound_to 10162
  139.7687  143.8526  152.3116 LP  0  0  0  0  0  0  0  0  0  0  0  0  # atno 17343 bound_to 10162
  157.7226  130.9579  150.1502 LP  0  0  0  0  0  0  0  0  0  0  0  0  # atno 17370 bound_to 10713
  156.2309  130.3682  149.8446 LP  0  0  0  0  0  0  0  0  0  0  0  0  # atno 17371 bound_to 10713
  140.7644  133.8791  155.8443 LP  0  0  0  0  0  0  0  0  0  0  0  0  # atno 17394 bound_to 11000
  140.9895  134.1297  157.4421 LP  0  0  0  0  0  0  0  0  0  0  0  0  # atno 17395 bound_to 11000

$$$$
