AV-unprocessed.smi:3330|AV-procd|sdf|12815|dock1
  -GOLD-   2272019183D 1   1.00000     0.00000
 Structure written by MMmdl.
 37 38  0  0  0  0  0  0  0  0  2 V2000
  146.9028  140.2560  154.1632 C   0  0  0  0  0  0  0  0  0  0  0  0
  147.1244  138.8114  153.6785 C   0  0  2  0  0  0  0  0  0  0  0  0
  148.5123  138.7221  153.2380 N   0  0  0  0  0  0  0  0  0  0  0  0
  149.4347  138.9839  154.3315 C   0  0  0  0  0  0  0  0  0  0  0  0
  150.6512  138.0544  154.2149 C   0  0  0  0  0  0  0  0  0  0  0  0
  151.5546  138.2331  155.3546 N   0  0  0  0  0  0  0  0  0  0  0  0
  152.0558  137.2285  156.0796 C   0  0  0  0  0  0  0  0  0  0  0  0
  151.8752  136.0202  155.9254 O   0  0  0  0  0  0  0  0  0  0  0  0
  152.9037  137.8353  157.1731 C   0  0  0  0  0  0  0  0  0  0  0  0
  152.7633  139.2518  156.9223 N   0  5  0  0  0  0  0  0  0  0  0  0
  151.9575  139.4198  155.8476 C   0  0  0  0  0  0  0  0  0  0  0  0
  151.6051  140.4902  155.3530 O   0  0  0  0  0  0  0  0  0  0  0  0
  146.1792  138.3961  152.5186 C   0  0  1  0  0  0  0  0  0  0  0  0
  146.6212  138.9457  151.1499 C   0  0  0  0  0  0  0  0  0  0  0  0
  146.0353  136.9481  152.4373 N   0  0  0  0  0  0  0  0  0  0  0  0
  145.4976  136.1910  151.4152 C   0  0  0  0  0  0  0  0  0  0  0  0
  145.5768  134.8809  151.7914 C   0  0  0  0  0  0  0  0  0  0  0  0
  146.1834  134.9355  153.0770 C   0  0  0  0  0  0  0  0  0  0  0  0
  146.4546  136.1720  153.4612 N   0  0  0  0  0  0  0  0  0  0  0  0
  145.9104  140.3902  154.5935 H   0  0  0  0  0  0  0  0  0  0  0  0
  147.0095  140.9702  153.3460 H   0  0  0  0  0  0  0  0  0  0  0  0
  147.6234  140.5252  154.9365 H   0  0  0  0  0  0  0  0  0  0  0  0
  146.9552  138.1522  154.5316 H   0  0  0  0  0  0  0  0  0  0  0  0
  148.6878  137.8048  152.8530 H   0  0  0  0  0  0  0  0  0  0  0  0
  149.7503  140.0275  154.3007 H   0  0  0  0  0  0  0  0  0  0  0  0
  148.9354  138.8220  155.2871 H   0  0  0  0  0  0  0  0  0  0  0  0
  150.3245  137.0142  154.1622 H   0  0  0  0  0  0  0  0  0  0  0  0
  151.1831  138.2449  153.2809 H   0  0  0  0  0  0  0  0  0  0  0  0
  152.5236  137.5305  158.1487 H   0  0  0  0  0  0  0  0  0  0  0  0
  153.9315  137.4817  157.0861 H   0  0  0  0  0  0  0  0  0  0  0  0
  145.1895  138.8071  152.7293 H   0  0  0  0  0  0  0  0  0  0  0  0
  146.6013  140.0353  151.1313 H   0  0  0  0  0  0  0  0  0  0  0  0
  145.9570  138.6002  150.3572 H   0  0  0  0  0  0  0  0  0  0  0  0
  147.6333  138.6269  150.8989 H   0  0  0  0  0  0  0  0  0  0  0  0
  145.1095  136.6437  150.5146 H   0  0  0  0  0  0  0  0  0  0  0  0
  145.2509  134.0153  151.2342 H   0  0  0  0  0  0  0  0  0  0  0  0
  146.4326  134.1190  153.7384 H   0  0  0  0  0  0  0  0  0  0  0  0
  1  2  1  0  0  0  0
  1 20  1  0  0  0  0
  1 21  1  0  0  0  0
  1 22  1  0  0  0  0
  2  3  1  0  0  0  0
  2 13  1  0  0  0  0
  2 23  1  0  0  0  0
  3  4  1  0  0  0  0
  3 24  1  0  0  0  0
  4  5  1  0  0  0  0
  4 25  1  0  0  0  0
  4 26  1  0  0  0  0
  5  6  1  0  0  0  0
  5 27  1  0  0  0  0
  5 28  1  0  0  0  0
  6 11  1  0  0  0  0
  6  7  1  0  0  0  0
  7  8  2  0  0  0  0
  7  9  1  0  0  0  0
  9 10  1  0  0  0  0
  9 29  1  0  0  0  0
  9 30  1  0  0  0  0
 10 11  1  0  0  0  0
 11 12  2  0  0  0  0
 13 14  1  0  0  0  0
 13 15  1  0  0  0  0
 13 31  1  0  0  0  0
 14 32  1  0  0  0  0
 14 33  1  0  0  0  0
 14 34  1  0  0  0  0
 15 19  1  0  0  0  0
 15 16  1  0  0  0  0
 16 17  2  0  0  0  0
 16 35  1  0  0  0  0
 17 18  1  0  0  0  0
 17 36  1  0  0  0  0
 18 19  2  0  0  0  0
 18 37  1  0  0  0  0
M  CHG  1  10  -1
M  END
> <s_m_source_file>
AV-unprocessed.smi

> <i_m_source_file_index>
3330

> <i_lp_mmshare_version>
43012

> <i_f3d_flags>
0

> <s_epik_input>
bjFbY0hdW2NIXVtjSF1uMVtDQEBIXShbQ0gzXSlbQ0BIXShbQ0gzXSlbTkhdW0NIMl1bQ0gyXU4yQyg9TylbQ0gyXVtOSF1DMj1P

> <s_epik_cmdline>
J2VwaWtfcHl0aG9uJywgJy1waCcsICc3LjAnLCAnLXRuJywgJzgnLCAnLW1hJywgJzIwMCcsICctbWV0YWxfYmluZGluZycsICctaW1hZScsICc8aW5maWxlLm1hZT4nLCAnLW9tYWUnLCAnPG91dGZpbGUubWFlPic=

> <r_lp_tautomer_probability>
1

> <r_epik_Ionization_Penalty>
8.77477

> <r_epik_Ionization_Penalty_Charging>
6.28461

> <r_epik_Ionization_Penalty_Neutral>
2.49016

> <r_epik_State_Penalty>
8.73376

> <r_epik_Charging_Adjusted_Penalty>
15.0184

> <i_epik_Tot_Q>
-1

> <i_epik_Tot_abs_Q>
1

> <r_epik_Metal_State_Penalty>
4.73175

> <b_epik_Metal_Only>
1

> <s_lp_Force_Field>
OPLS_2005

> <r_lp_Energy>
21.2445

> <b_lp_Chiralities_Consistent>
1

> <s_lp_Variant>
AV-unprocessed.smi:3330-15

> <Gold.Version>
5.8.1

> <Gold.Id.Protein>
6NUR|6NUR_protein|mol2

> <Gold.PLP.Fitness>
45.0589

> <Gold.PLP.PLP>
-29.8631

> <Gold.PLP.part.hbond>
-5.0000

> <Gold.PLP.part.metal>
0.0000

> <Gold.PLP.part.buried>
1.8724

> <Gold.PLP.part.nonpolar>
-27.3848

> <Gold.PLP.part.repulsive>
1.1750

> <Gold.PLP.ligand.clash>
0.0000

> <Gold.PLP.ligand.torsion>
1.2397

> <Gold.PLP.Chemscore.Hbond>
4.8000

> <Gold.PLP.Chemscore.CHOScore>
1.0000

> <Gold.PLP.Chemscore.Metal>
0.0000

> <Gold.Chemscore.Hbonds>
donor molecule, donor type, donor heavy atom, donor atom, acceptor molecule, acceptor atom, score
      L1  H     3    24       P1  7948  1.00
      P1  H  7989  7998       L1    12  0.80
      P1  H  7997  8009       L1    10  2.00
      P1  H 10752 10765       L1     8  1.00
      L1  C    16    35       P1 10171  1.00

> <Gold.PLP.Chemscore.Internal.Correction>
0.2752

> <Gold.Rescore>
     Score         DG    S(hbond)    S(metal)    S(lipo)     H(rot)  DE(clash)    DE(int)     intcor
     13.27     -16.58       3.12        0.00      60.83       2.52       0.75       2.56       ----

> <Gold.Chemscore.Fitness>
13.2706

> <Gold.Chemscore.DG>
-16.5792

> <Gold.Chemscore.ZeroCoef>
-5.4800

> <Gold.Chemscore.Hbond>
3.1208

> <Gold.Chemscore.Metal>
0.0000

> <Gold.Chemscore.Lipo>
60.8263

> <Gold.Chemscore.Internal_Hbond>
0.0000

> <Gold.Chemscore.DEClash>
0.7461

> <Gold.Chemscore.DEInternal>
2.5624

> <Gold.Chemscore.Rot>
2.5160

> <Gold.Chemscore.Internal.Correction>
   9.000000E+99

> <Gold.Chemscore.Hbonds>
donor molecule, donor type, donor heavy atom, donor atom, acceptor molecule, acceptor atom, score
      L1  H     3    24       P1  7948  1.00
      P1  H  7989  7998       L1    12  0.79
      P1  H  7997  8009       L1    10  0.69
      P1  H 10752 10765       L1     8  0.55

> <Gold.Chemscore.Hbond.Weighted>
-10.4235

> <Gold.Chemscore.Metal.Weighted>
-0.0000

> <Gold.Chemscore.Lipo.Weighted>
-7.1167

> <Gold.Chemscore.Internal_Hbond.Weighted>
0.0000

> <Gold.Chemscore.DEClash.Weighted>
0.7461

> <Gold.Chemscore.DEInternal.Weighted>
2.5624

> <Gold.Chemscore.Rot.Weighted>
6.4410

> <Gold.Chemscore.Internal.Correction.Weighted>
   9.000000E+99

> <Gold.Protein.RotatedTorsions>
[ 6907 6896 6895 6894 ] final -161.69 input  -60.11 | X-H torsion
[ 7974 7965 7964 7962 ] final   72.03 input  175.53 | X-H torsion
[ 8008 7997 7996 7995 ] final  171.64 input   59.86 | X-H torsion
[ 10167 10162 10161 10158 ] final   74.69 input  -65.29 | X-H torsion
[ 10718 10713 10712 10709 ] final   55.03 input   66.30 | X-H torsion
[ 10763 10752 10751 10750 ] final -158.65 input  -60.55 | X-H torsion
[ 11005 11000 10999 10996 ] final -145.95 input  -57.11 | X-H torsion

> <Gold.Protein.ActiveResidues>
 VAL166  LYS551  ARG553  GLY616  TRP617  ASP618  TYR619  PRO620  LYS621  CYS622 
 ASP623  PHE694  ASN695  SER759  ASP760  ASP761  ALA762  ILE779  LEU786  VAL792 
 PHE793  MET794  SER795  GLU796  ALA797  LYS798  CYS799  TRP800  GLU811  SER814 

> <Gold.Protein.RotatedAtoms>
  151.3686  133.3863  159.2696 H   0  0  0  0  0  0  0  0  0  0  0  0  # atno 6907 bound_to 6896
  150.9669  134.9049  159.7775 H   0  0  0  0  0  0  0  0  0  0  0  0  # atno 6908 bound_to 6896
  152.5170  134.3647  159.9349 H   0  0  0  0  0  0  0  0  0  0  0  0  # atno 6909 bound_to 6896
  145.7584  139.2790  143.1390 H   0  0  0  0  0  0  0  0  0  0  0  0  # atno 7974 bound_to 7965
  156.1251  140.1506  156.9148 H   0  0  0  0  0  0  0  0  0  0  0  0  # atno 8008 bound_to 7997
  154.4865  140.0863  156.7540 H   0  0  0  0  0  0  0  0  0  0  0  0  # atno 8009 bound_to 7997
  155.4358  140.3429  155.4287 H   0  0  0  0  0  0  0  0  0  0  0  0  # atno 8010 bound_to 7997
  140.0110  144.5614  150.7659 H   0  0  0  0  0  0  0  0  0  0  0  0  # atno 10167 bound_to 10162
  157.5309  130.8630  149.8687 H   0  0  0  0  0  0  0  0  0  0  0  0  # atno 10718 bound_to 10713
  154.7539  135.3099  154.8505 H   0  0  0  0  0  0  0  0  0  0  0  0  # atno 10763 bound_to 10752
  153.9285  135.6788  153.4750 H   0  0  0  0  0  0  0  0  0  0  0  0  # atno 10764 bound_to 10752
  153.1136  135.4855  154.9007 H   0  0  0  0  0  0  0  0  0  0  0  0  # atno 10765 bound_to 10752
  140.7870  134.3013  157.5026 H   0  0  0  0  0  0  0  0  0  0  0  0  # atno 11005 bound_to 11000
  146.0288  140.8278  142.9886 LP  0  0  0  0  0  0  0  0  0  0  0  0  # atno 17320 bound_to 7965
  144.6835  140.2738  143.7302 LP  0  0  0  0  0  0  0  0  0  0  0  0  # atno 17321 bound_to 7965
  140.7381  143.2774  151.3700 LP  0  0  0  0  0  0  0  0  0  0  0  0  # atno 17342 bound_to 10162
  139.6205  144.0916  152.2387 LP  0  0  0  0  0  0  0  0  0  0  0  0  # atno 17343 bound_to 10162
  156.0422  130.3736  150.1407 LP  0  0  0  0  0  0  0  0  0  0  0  0  # atno 17370 bound_to 10713
  156.9591  130.9799  151.3483 LP  0  0  0  0  0  0  0  0  0  0  0  0  # atno 17371 bound_to 10713
  139.8735  134.9352  156.3627 LP  0  0  0  0  0  0  0  0  0  0  0  0  # atno 17394 bound_to 11000
  140.9427  133.7504  156.0167 LP  0  0  0  0  0  0  0  0  0  0  0  0  # atno 17395 bound_to 11000

$$$$
