AV-unprocessed.smi:119|AV-procd|sdf|1135|dock5
  -GOLD-   2262018263D 1   1.00000     0.00000
 Structure written by MMmdl.
 51 54  0  0  0  0  0  0  0  0  1 V2000
  146.2208  130.8558  151.8469 C   0  0  0  0  0  0  0  0  0  0  0  0
  145.8872  131.9087  152.9160 C   0  0  2  0  0  0  0  0  0  0  0  0
  146.5529  133.2773  152.6681 C   0  0  0  0  0  0  0  0  0  0  0  0
  148.0947  133.2976  152.7027 C   0  0  0  0  0  0  0  0  0  0  0  0
  148.6398  133.0716  154.0477 N   0  0  0  0  0  0  0  0  0  0  0  0
  148.8631  134.0661  154.9463 C   0  0  0  0  0  0  0  0  0  0  0  0
  148.6567  135.2514  154.6714 O   0  0  0  0  0  0  0  0  0  0  0  0
  149.3891  133.7104  156.3549 C   0  0  0  0  0  0  0  0  0  0  0  0
  149.4001  134.8579  157.2897 N   0  0  0  0  0  0  0  0  0  0  0  0
  150.2538  135.9518  157.0072 C   0  0  0  0  0  0  0  0  0  0  0  0
  150.9815  135.9541  156.0129 O   0  0  0  0  0  0  0  0  0  0  0  0
  150.1993  137.0535  157.9604 C   0  0  0  0  0  0  0  0  0  0  0  0
  150.9872  138.1273  157.7804 F   0  0  0  0  0  0  0  0  0  0  0  0
  149.3732  137.0132  159.0264 C   0  0  0  0  0  0  0  0  0  0  0  0
  148.5352  135.9418  159.2881 N   0  0  0  0  0  0  0  0  0  0  0  0
  147.5619  135.9116  160.4499 C   0  0  1  0  0  0  0  0  0  0  0  0
  147.6244  134.6717  161.3463 C   0  0  0  0  0  0  0  0  0  0  0  0
  146.9703  135.2250  162.5911 C   0  0  0  0  0  0  0  0  0  0  0  0
  147.5601  136.6346  162.6417 C   0  0  0  0  0  0  0  0  0  0  0  0
  147.8431  136.9914  161.2891 O   0  0  0  0  0  0  0  0  0  0  0  0
  148.5331  134.8358  158.4081 C   0  0  0  0  0  0  0  0  0  0  0  0
  147.7873  133.8747  158.6100 O   0  0  0  0  0  0  0  0  0  0  0  0
  148.9263  131.7241  154.3965 C   0  0  0  0  0  0  0  0  0  0  0  0
  150.2725  131.3025  154.4774 C   0  0  0  0  0  0  0  0  0  0  0  0
  150.5809  129.9730  154.8220 C   0  0  0  0  0  0  0  0  0  0  0  0
  149.5460  129.0571  155.0884 C   0  0  0  0  0  0  0  0  0  0  0  0
  148.2025  129.4705  155.0093 C   0  0  0  0  0  0  0  0  0  0  0  0
  147.8875  130.7987  154.6594 C   0  0  0  0  0  0  0  0  0  0  0  0
  146.1862  131.2748  154.5923 S   0  0  0  0  0  0  0  0  0  0  0  0
  145.9853  131.2235  150.8479 H   0  0  0  0  0  0  0  0  0  0  0  0
  145.6432  129.9450  152.0062 H   0  0  0  0  0  0  0  0  0  0  0  0
  147.2747  130.5788  151.8594 H   0  0  0  0  0  0  0  0  0  0  0  0
  144.8109  132.0763  152.8648 H   0  0  0  0  0  0  0  0  0  0  0  0
  146.2315  133.6390  151.6909 H   0  0  0  0  0  0  0  0  0  0  0  0
  146.1564  133.9962  153.3850 H   0  0  0  0  0  0  0  0  0  0  0  0
  148.4910  132.5406  152.0253 H   0  0  0  0  0  0  0  0  0  0  0  0
  148.4569  134.2365  152.2852 H   0  0  0  0  0  0  0  0  0  0  0  0
  148.7835  132.8969  156.7559 H   0  0  0  0  0  0  0  0  0  0  0  0
  150.3902  133.2868  156.2791 H   0  0  0  0  0  0  0  0  0  0  0  0
  149.4039  137.8629  159.6875 H   0  0  0  0  0  0  0  0  0  0  0  0
  146.5716  136.0290  160.0042 H   0  0  0  0  0  0  0  0  0  0  0  0
  147.1062  133.8217  160.9019 H   0  0  0  0  0  0  0  0  0  0  0  0
  148.6519  134.4064  161.5918 H   0  0  0  0  0  0  0  0  0  0  0  0
  145.8881  135.2707  162.4597 H   0  0  0  0  0  0  0  0  0  0  0  0
  147.1832  134.6408  163.4868 H   0  0  0  0  0  0  0  0  0  0  0  0
  146.8804  137.3491  163.1063 H   0  0  0  0  0  0  0  0  0  0  0  0
  148.4948  136.6401  163.2034 H   0  0  0  0  0  0  0  0  0  0  0  0
  151.0726  132.0002  154.2760 H   0  0  0  0  0  0  0  0  0  0  0  0
  151.6118  129.6570  154.8840 H   0  0  0  0  0  0  0  0  0  0  0  0
  149.7828  128.0378  155.3554 H   0  0  0  0  0  0  0  0  0  0  0  0
  147.4126  128.7639  155.2177 H   0  0  0  0  0  0  0  0  0  0  0  0
  1  2  1  0  0  0  0
  1 30  1  0  0  0  0
  1 31  1  0  0  0  0
  1 32  1  0  0  0  0
  2 29  1  0  0  0  0
  2  3  1  0  0  0  0
  2 33  1  0  0  0  0
  3  4  1  0  0  0  0
  3 34  1  0  0  0  0
  3 35  1  0  0  0  0
  4  5  1  0  0  0  0
  4 36  1  0  0  0  0
  4 37  1  0  0  0  0
  5  6  1  0  0  0  0
  5 23  1  0  0  0  0
  6  7  2  0  0  0  0
  6  8  1  0  0  0  0
  8  9  1  0  0  0  0
  8 38  1  0  0  0  0
  8 39  1  0  0  0  0
  9 21  1  0  0  0  0
  9 10  1  0  0  0  0
 10 11  2  0  0  0  0
 10 12  1  0  0  0  0
 12 13  1  0  0  0  0
 12 14  2  0  0  0  0
 14 15  1  0  0  0  0
 14 40  1  0  0  0  0
 15 16  1  0  0  0  0
 15 21  1  0  0  0  0
 16 20  1  0  0  0  0
 16 17  1  0  0  0  0
 16 41  1  0  0  0  0
 17 18  1  0  0  0  0
 17 42  1  0  0  0  0
 17 43  1  0  0  0  0
 18 19  1  0  0  0  0
 18 44  1  0  0  0  0
 18 45  1  0  0  0  0
 19 20  1  0  0  0  0
 19 46  1  0  0  0  0
 19 47  1  0  0  0  0
 21 22  2  0  0  0  0
 23 28  2  0  0  0  0
 23 24  1  0  0  0  0
 24 25  2  0  0  0  0
 24 48  1  0  0  0  0
 25 26  1  0  0  0  0
 25 49  1  0  0  0  0
 26 27  2  0  0  0  0
 26 50  1  0  0  0  0
 27 28  1  0  0  0  0
 27 51  1  0  0  0  0
 28 29  1  0  0  0  0
M  END
> <s_m_source_file>
AV-unprocessed.smi

> <i_m_source_file_index>
119

> <i_lp_mmshare_version>
43012

> <i_f3d_flags>
0

> <s_epik_input>
W2NIXTFbY0hdW2NIXVtjSF1jKGMxMilTW0NASF0oW0NIM10pW0NIMl1bQ0gyXU4yQyg9TylbQ0gyXW4zYyg9TyljKEYpW2NIXW4oYzM9TylbQ0BASF00W0NIMl1bQ0gyXVtDSDJdTzQ=

> <s_epik_cmdline>
J2VwaWtfcHl0aG9uJywgJy1waCcsICc3LjAnLCAnLXRuJywgJzgnLCAnLW1hJywgJzIwMCcsICctbWV0YWxfYmluZGluZycsICctaW1hZScsICc8aW5maWxlLm1hZT4nLCAnLW9tYWUnLCAnPG91dGZpbGUubWFlPic=

> <r_lp_tautomer_probability>
1

> <r_epik_Ionization_Penalty>
1.68882e-06

> <r_epik_Ionization_Penalty_Charging>
3.67303e-09

> <r_epik_Ionization_Penalty_Neutral>
1.68515e-06

> <r_epik_State_Penalty>
-0

> <r_epik_Charging_Adjusted_Penalty>
3.67303e-09

> <i_epik_Tot_Q>
0

> <i_epik_Tot_abs_Q>
0

> <r_epik_Metal_State_Penalty>
-0

> <b_epik_Metal_Only>
0

> <s_epik_Chemistry_Notes>
This compound contains an acetal/aminal-like group ( X-CH(R)-Y where X, Y are N, S, or O) that may be acid/base labile, releasing an aldehyde.

> <s_lp_Force_Field>
OPLS_2005

> <r_lp_Energy>
51.5083

> <b_lp_Chiralities_Consistent>
1

> <s_lp_Variant>
AV-unprocessed.smi:119-3

> <Gold.Version>
5.8.1

> <Gold.Id.Protein>
6NUR|6NUR_protein|mol2

> <Gold.PLP.Fitness>
45.5629

> <Gold.PLP.PLP>
-42.2647

> <Gold.PLP.part.hbond>
-1.9998

> <Gold.PLP.part.metal>
0.0000

> <Gold.PLP.part.buried>
-3.5042

> <Gold.PLP.part.nonpolar>
-36.3523

> <Gold.PLP.part.repulsive>
0.6379

> <Gold.PLP.ligand.clash>
0.0000

> <Gold.PLP.ligand.torsion>
0.2419

> <Gold.PLP.Chemscore.Hbond>
1.2547

> <Gold.PLP.Chemscore.CHOScore>
0.0000

> <Gold.PLP.Chemscore.Metal>
0.0000

> <Gold.Chemscore.Hbonds>
donor molecule, donor type, donor heavy atom, donor atom, acceptor molecule, acceptor atom, score
      P1  H  6931  6943       L1    20  0.45
      P1  H  6934  6947       L1    20  0.55
      P1  H 10752 10765       L1    11  0.13

> <Gold.PLP.Chemscore.Internal.Correction>
0.0181

> <Gold.Rescore>
     Score         DG    S(hbond)    S(metal)    S(lipo)     H(rot)  DE(clash)    DE(int)     intcor
     10.38     -15.42       1.18        0.00      84.54       1.53       0.03       5.00       ----

> <Gold.Chemscore.Fitness>
10.3819

> <Gold.Chemscore.DG>
-15.4178

> <Gold.Chemscore.ZeroCoef>
-5.4800

> <Gold.Chemscore.Hbond>
1.1840

> <Gold.Chemscore.Metal>
0.0000

> <Gold.Chemscore.Lipo>
84.5424

> <Gold.Chemscore.Internal_Hbond>
0.0000

> <Gold.Chemscore.DEClash>
0.0312

> <Gold.Chemscore.DEInternal>
5.0047

> <Gold.Chemscore.Rot>
1.5266

> <Gold.Chemscore.Internal.Correction>
   9.000000E+99

> <Gold.Chemscore.Hbonds>
donor molecule, donor type, donor heavy atom, donor atom, acceptor molecule, acceptor atom, score
      P1  H  6931  6943       L1    20  0.02
      P1  H  6934  6947       L1    20  0.37
      P1  H 10752 10765       L1    11  0.14

> <Gold.Chemscore.Hbond.Weighted>
-3.9544

> <Gold.Chemscore.Metal.Weighted>
-0.0000

> <Gold.Chemscore.Lipo.Weighted>
-9.8915

> <Gold.Chemscore.Internal_Hbond.Weighted>
0.0000

> <Gold.Chemscore.DEClash.Weighted>
0.0312

> <Gold.Chemscore.DEInternal.Weighted>
5.0047

> <Gold.Chemscore.Rot.Weighted>
3.9081

> <Gold.Chemscore.Internal.Correction.Weighted>
   9.000000E+99

> <Gold.Protein.RotatedTorsions>
[ 6907 6896 6895 6894 ] final    8.98 input  -60.11 | X-H torsion
[ 7974 7965 7964 7962 ] final  105.17 input  175.53 | X-H torsion
[ 8008 7997 7996 7995 ] final  -23.28 input   59.86 | X-H torsion
[ 10167 10162 10161 10158 ] final  106.04 input  -65.29 | X-H torsion
[ 10718 10713 10712 10709 ] final  -65.96 input   66.30 | X-H torsion
[ 10763 10752 10751 10750 ] final -158.89 input  -60.55 | X-H torsion
[ 11005 11000 10999 10996 ] final -145.64 input  -57.11 | X-H torsion

> <Gold.Protein.ActiveResidues>
 VAL166  LYS551  ARG553  GLY616  TRP617  ASP618  TYR619  PRO620  LYS621  CYS622 
 ASP623  PHE694  ASN695  SER759  ASP760  ASP761  ALA762  ILE779  LEU786  VAL792 
 PHE793  MET794  SER795  GLU796  ALA797  LYS798  CYS799  TRP800  GLU811  SER814 

> <Gold.Protein.RotatedAtoms>
  151.7147  135.0906  160.0273 H   0  0  0  0  0  0  0  0  0  0  0  0  # atno 6907 bound_to 6896
  152.3639  133.6328  159.6044 H   0  0  0  0  0  0  0  0  0  0  0  0  # atno 6908 bound_to 6896
  150.7624  133.9295  159.3464 H   0  0  0  0  0  0  0  0  0  0  0  0  # atno 6909 bound_to 6896
  145.3232  139.2507  143.3701 H   0  0  0  0  0  0  0  0  0  0  0  0  # atno 7974 bound_to 7965
  154.4594  140.1985  156.0286 H   0  0  0  0  0  0  0  0  0  0  0  0  # atno 8008 bound_to 7997
  156.0811  140.3271  155.7667 H   0  0  0  0  0  0  0  0  0  0  0  0  # atno 8009 bound_to 7997
  155.5110  140.0561  157.2914 H   0  0  0  0  0  0  0  0  0  0  0  0  # atno 8010 bound_to 7997
  139.7042  144.7089  151.1134 H   0  0  0  0  0  0  0  0  0  0  0  0  # atno 10167 bound_to 10162
  156.0639  130.4255  150.1640 H   0  0  0  0  0  0  0  0  0  0  0  0  # atno 10718 bound_to 10713
  154.7520  135.3095  154.8540 H   0  0  0  0  0  0  0  0  0  0  0  0  # atno 10763 bound_to 10752
  153.9325  135.6783  153.4749 H   0  0  0  0  0  0  0  0  0  0  0  0  # atno 10764 bound_to 10752
  153.1116  135.4864  154.8973 H   0  0  0  0  0  0  0  0  0  0  0  0  # atno 10765 bound_to 10752
  140.7902  134.2977  157.5016 H   0  0  0  0  0  0  0  0  0  0  0  0  # atno 11005 bound_to 11000
  146.3074  140.3793  142.8682 LP  0  0  0  0  0  0  0  0  0  0  0  0  # atno 17320 bound_to 7965
  144.8923  140.7539  143.5919 LP  0  0  0  0  0  0  0  0  0  0  0  0  # atno 17321 bound_to 7965
  140.7717  143.5382  150.9344 LP  0  0  0  0  0  0  0  0  0  0  0  0  # atno 17342 bound_to 10162
  139.9064  143.6773  152.3123 LP  0  0  0  0  0  0  0  0  0  0  0  0  # atno 17343 bound_to 10162
  156.9704  130.9833  151.3460 LP  0  0  0  0  0  0  0  0  0  0  0  0  # atno 17370 bound_to 10713
  157.5667  130.8283  149.8337 LP  0  0  0  0  0  0  0  0  0  0  0  0  # atno 17371 bound_to 10713
  139.8732  134.9370  156.3675 LP  0  0  0  0  0  0  0  0  0  0  0  0  # atno 17394 bound_to 11000
  140.9397  133.7523  156.0130 LP  0  0  0  0  0  0  0  0  0  0  0  0  # atno 17395 bound_to 11000

$$$$
