AV-unprocessed.smi:2526|AV-procd|sdf|9937|dock1
  -GOLD-   2272013583D 1   1.00000     0.00000
 Structure written by MMmdl.
 29 30  0  0  0  0  0  0  0  0  2 V2000
  145.5142  143.2175  154.4104 C   0  0  0  0  0  0  0  0  0  0  0  0
  146.5476  142.2599  154.7412 N   0  0  0  0  0  0  0  0  0  0  0  0
  147.7035  141.9696  154.0498 C   0  0  0  0  0  0  0  0  0  0  0  0
  148.3664  140.9945  154.7442 C   0  0  0  0  0  0  0  0  0  0  0  0
  149.6825  140.3236  154.4310 C   0  0  1  0  0  0  0  0  0  0  0  0
  150.6601  140.5835  155.4912 N   0  0  0  0  0  0  0  0  0  0  0  0
  151.6220  139.7490  155.9247 C   0  0  0  0  0  0  0  0  0  0  0  0
  152.4330  140.0959  156.7792 O   0  0  0  0  0  0  0  0  0  0  0  0
  151.6819  138.3194  155.3646 C   0  0  0  0  0  0  0  0  0  0  0  0
  150.8618  138.1230  154.0787 C   0  0  0  0  0  0  0  0  0  0  0  0
  149.4946  138.8074  154.1905 C   0  0  2  0  0  0  0  0  0  0  0  0
  148.6670  138.5415  152.9996 N   0  3  0  0  0  0  0  0  0  0  0  0
  147.5133  140.7536  155.8600 C   0  0  0  0  0  0  0  0  0  0  0  0
  146.4307  141.5123  155.8572 N   0  0  0  0  0  0  0  0  0  0  0  0
  145.8894  143.9332  153.6781 H   0  0  0  0  0  0  0  0  0  0  0  0
  145.2047  143.7584  155.3056 H   0  0  0  0  0  0  0  0  0  0  0  0
  144.6530  142.6968  153.9907 H   0  0  0  0  0  0  0  0  0  0  0  0
  147.9574  142.4771  153.1304 H   0  0  0  0  0  0  0  0  0  0  0  0
  150.1092  140.7616  153.5272 H   0  0  0  0  0  0  0  0  0  0  0  0
  150.6367  141.5062  155.9018 H   0  0  0  0  0  0  0  0  0  0  0  0
  152.7217  138.0396  155.1916 H   0  0  0  0  0  0  0  0  0  0  0  0
  151.3054  137.6503  156.1390 H   0  0  0  0  0  0  0  0  0  0  0  0
  151.4127  138.5245  153.2266 H   0  0  0  0  0  0  0  0  0  0  0  0
  150.7361  137.0562  153.8898 H   0  0  0  0  0  0  0  0  0  0  0  0
  148.9668  138.3757  155.0428 H   0  0  0  0  0  0  0  0  0  0  0  0
  147.7083  138.7965  153.1896 H   0  0  0  0  0  0  0  0  0  0  0  0
  148.7157  137.5590  152.7705 H   0  0  0  0  0  0  0  0  0  0  0  0
  147.6512  140.0539  156.6710 H   0  0  0  0  0  0  0  0  0  0  0  0
  149.0119  139.0852  152.2213 H   0  0  0  0  0  0  0  0  0  0  0  0
  1  2  1  0  0  0  0
  1 15  1  0  0  0  0
  1 16  1  0  0  0  0
  1 17  1  0  0  0  0
  2 14  1  0  0  0  0
  2  3  1  0  0  0  0
  3  4  2  0  0  0  0
  3 18  1  0  0  0  0
  4  5  1  0  0  0  0
  4 13  1  0  0  0  0
  5 11  1  0  0  0  0
  5  6  1  0  0  0  0
  5 19  1  0  0  0  0
  6  7  1  0  0  0  0
  6 20  1  0  0  0  0
  7  8  2  0  0  0  0
  7  9  1  0  0  0  0
  9 10  1  0  0  0  0
  9 21  1  0  0  0  0
  9 22  1  0  0  0  0
 10 11  1  0  0  0  0
 10 23  1  0  0  0  0
 10 24  1  0  0  0  0
 11 12  1  0  0  0  0
 11 25  1  0  0  0  0
 12 26  1  0  0  0  0
 12 27  1  0  0  0  0
 12 29  1  0  0  0  0
 13 14  2  0  0  0  0
 13 28  1  0  0  0  0
M  CHG  1  12   1
M  END
> <s_m_source_file>
AV-unprocessed.smi

> <i_m_source_file_index>
2526

> <i_lp_mmshare_version>
43012

> <i_f3d_flags>
0

> <s_epik_input>
W0NIM11uMVtjSF1jKFtjSF1uMSlbQ0BASF0yW05IXUMoPU8pW0NIMl1bQ0gyXVtDQEhdMltOSDJd

> <s_epik_cmdline>
J2VwaWtfcHl0aG9uJywgJy1waCcsICc3LjAnLCAnLXRuJywgJzgnLCAnLW1hJywgJzIwMCcsICctbWV0YWxfYmluZGluZycsICctaW1hZScsICc8aW5maWxlLm1hZT4nLCAnLW9tYWUnLCAnPG91dGZpbGUubWFlPic=

> <r_lp_tautomer_probability>
1

> <r_epik_Ionization_Penalty>
0.00878543

> <r_epik_Ionization_Penalty_Charging>
0.00874185

> <r_epik_Ionization_Penalty_Neutral>
4.35793e-05

> <r_epik_State_Penalty>
0.00660351

> <r_epik_Charging_Adjusted_Penalty>
0.0153454

> <i_epik_Tot_Q>
1

> <i_epik_Tot_abs_Q>
1

> <r_epik_Metal_State_Penalty>
0.00660727

> <b_epik_Metal_Only>
0

> <s_lp_Force_Field>
OPLS_2005

> <r_lp_Energy>
10.7235

> <b_lp_Chiralities_Consistent>
1

> <s_lp_Variant>
AV-unprocessed.smi:2526-4

> <Gold.Version>
5.8.1

> <Gold.Id.Protein>
6NUR|6NUR_protein|mol2

> <Gold.PLP.Fitness>
40.5211

> <Gold.PLP.PLP>
-28.5223

> <Gold.PLP.part.hbond>
-3.0000

> <Gold.PLP.part.metal>
0.0000

> <Gold.PLP.part.buried>
-2.1302

> <Gold.PLP.part.nonpolar>
-23.4519

> <Gold.PLP.part.repulsive>
0.5593

> <Gold.PLP.ligand.clash>
0.0000

> <Gold.PLP.ligand.torsion>
0.0114

> <Gold.PLP.Chemscore.Hbond>
4.0000

> <Gold.PLP.Chemscore.CHOScore>
0.0000

> <Gold.PLP.Chemscore.Metal>
0.0000

> <Gold.Chemscore.Hbonds>
donor molecule, donor type, donor heavy atom, donor atom, acceptor molecule, acceptor atom, score
      L1  H    12    27       P1  7948  2.00
      L1  H    12    29       P1  7957  1.00
      P1  H  7997  8010       L1     8  1.00

> <Gold.PLP.Chemscore.Internal.Correction>
0.0215

> <Gold.Rescore>
     Score         DG    S(hbond)    S(metal)    S(lipo)     H(rot)  DE(clash)    DE(int)     intcor
     18.89     -18.91       2.99        0.00      51.35       1.00       0.01       0.01       ----

> <Gold.Chemscore.Fitness>
18.8857

> <Gold.Chemscore.DG>
-18.9113

> <Gold.Chemscore.ZeroCoef>
-5.4800

> <Gold.Chemscore.Hbond>
2.9889

> <Gold.Chemscore.Metal>
0.0000

> <Gold.Chemscore.Lipo>
51.3534

> <Gold.Chemscore.Internal_Hbond>
0.0000

> <Gold.Chemscore.DEClash>
0.0149

> <Gold.Chemscore.DEInternal>
0.0108

> <Gold.Chemscore.Rot>
1.0000

> <Gold.Chemscore.Internal.Correction>
   9.000000E+99

> <Gold.Chemscore.Hbonds>
donor molecule, donor type, donor heavy atom, donor atom, acceptor molecule, acceptor atom, score
      L1  H    12    27       P1  7948  0.98
      L1  H    12    29       P1  7957  0.91
      P1  H  7997  8010       L1     8  0.98

> <Gold.Chemscore.Hbond.Weighted>
-9.9830

> <Gold.Chemscore.Metal.Weighted>
-0.0000

> <Gold.Chemscore.Lipo.Weighted>
-6.0084

> <Gold.Chemscore.Internal_Hbond.Weighted>
0.0000

> <Gold.Chemscore.DEClash.Weighted>
0.0149

> <Gold.Chemscore.DEInternal.Weighted>
0.0108

> <Gold.Chemscore.Rot.Weighted>
2.5600

> <Gold.Chemscore.Internal.Correction.Weighted>
   9.000000E+99

> <Gold.Protein.RotatedTorsions>
[ 6907 6896 6895 6894 ] final   63.92 input  -60.11 | X-H torsion
[ 7974 7965 7964 7962 ] final  106.76 input  175.53 | X-H torsion
[ 8008 7997 7996 7995 ] final   70.74 input   59.86 | X-H torsion
[ 10167 10162 10161 10158 ] final  151.96 input  -65.29 | X-H torsion
[ 10718 10713 10712 10709 ] final  -58.60 input   66.30 | X-H torsion
[ 10763 10752 10751 10750 ] final  -27.60 input  -60.55 | X-H torsion
[ 11005 11000 10999 10996 ] final  -12.99 input  -57.11 | X-H torsion

> <Gold.Protein.ActiveResidues>
 VAL166  LYS551  ARG553  GLY616  TRP617  ASP618  TYR619  PRO620  LYS621  CYS622 
 ASP623  PHE694  ASN695  SER759  ASP760  ASP761  ALA762  ILE779  LEU786  VAL792 
 PHE793  MET794  SER795  GLU796  ALA797  LYS798  CYS799  TRP800  GLU811  SER814 

> <Gold.Protein.RotatedAtoms>
  152.4291  134.5811  159.9947 H   0  0  0  0  0  0  0  0  0  0  0  0  # atno 6907 bound_to 6896
  151.5939  133.3358  159.3041 H   0  0  0  0  0  0  0  0  0  0  0  0  # atno 6908 bound_to 6896
  150.8183  134.7413  159.6814 H   0  0  0  0  0  0  0  0  0  0  0  0  # atno 6909 bound_to 6896
  145.3025  139.2565  143.3806 H   0  0  0  0  0  0  0  0  0  0  0  0  # atno 7974 bound_to 7965
  155.7434  140.3490  155.5115 H   0  0  0  0  0  0  0  0  0  0  0  0  # atno 8008 bound_to 7997
  155.9073  140.1044  157.1327 H   0  0  0  0  0  0  0  0  0  0  0  0  # atno 8009 bound_to 7997
  154.4051  140.1274  156.4499 H   0  0  0  0  0  0  0  0  0  0  0  0  # atno 8010 bound_to 7997
  139.4836  144.5397  151.7585 H   0  0  0  0  0  0  0  0  0  0  0  0  # atno 10167 bound_to 10162
  156.1123  130.4174  150.0599 H   0  0  0  0  0  0  0  0  0  0  0  0  # atno 10718 bound_to 10713
  153.7348  135.6936  153.4981 H   0  0  0  0  0  0  0  0  0  0  0  0  # atno 10763 bound_to 10752
  153.2110  135.4403  155.0379 H   0  0  0  0  0  0  0  0  0  0  0  0  # atno 10764 bound_to 10752
  154.8241  135.3437  154.6876 H   0  0  0  0  0  0  0  0  0  0  0  0  # atno 10765 bound_to 10752
  140.7714  133.8435  155.9211 H   0  0  0  0  0  0  0  0  0  0  0  0  # atno 11005 bound_to 11000
  146.3147  140.3542  142.8659 LP  0  0  0  0  0  0  0  0  0  0  0  0  # atno 17320 bound_to 7965
  144.9082  140.7725  143.5824 LP  0  0  0  0  0  0  0  0  0  0  0  0  # atno 17321 bound_to 7965
  140.4935  144.1275  150.5955 LP  0  0  0  0  0  0  0  0  0  0  0  0  # atno 17342 bound_to 10162
  140.4144  143.2641  151.9793 LP  0  0  0  0  0  0  0  0  0  0  0  0  # atno 17343 bound_to 10162
  156.8560  130.9475  151.3622 LP  0  0  0  0  0  0  0  0  0  0  0  0  # atno 17370 bound_to 10713
  157.6305  130.8725  149.9265 LP  0  0  0  0  0  0  0  0  0  0  0  0  # atno 17371 bound_to 10713
  140.9570  134.1705  157.4684 LP  0  0  0  0  0  0  0  0  0  0  0  0  # atno 17394 bound_to 11000
  139.8755  134.9930  156.5626 LP  0  0  0  0  0  0  0  0  0  0  0  0  # atno 17395 bound_to 11000

$$$$
