AV-unprocessed.smi:544|AV-procd|sdf|2877|dock4
  -GOLD-   2262023373D 1   1.00000     0.00000
 Structure written by MMmdl.
 49 51  0  0  0  0  0  0  0  0  1 V2000
  154.7670  138.8736  160.3074 C   0  0  0  0  0  0  0  0  0  0  0  0
  153.4061  138.5603  159.6823 C   0  0  0  0  0  0  0  0  0  0  0  0
  153.4410  138.9284  158.3153 O   0  0  0  0  0  0  0  0  0  0  0  0
  152.1523  139.0678  157.7440 C   0  0  0  0  0  0  0  0  0  0  0  0
  152.2558  139.8226  156.4100 C   0  0  0  0  0  0  0  0  0  0  0  0
  150.9997  140.4633  156.0300 N   0  0  0  0  0  0  0  0  0  0  0  0
  150.4529  141.6058  156.5206 C   0  0  0  0  0  0  0  0  0  0  0  0
  151.0893  142.3382  157.5165 N   0  0  0  0  0  0  0  0  0  0  0  0
  151.2018  143.7935  157.5266 C   0  0  0  0  0  0  0  0  0  0  0  0
  152.6436  144.2426  157.8149 C   0  0  0  0  0  0  0  0  0  0  0  0
  153.1281  143.6652  159.1523 C   0  0  0  0  0  0  0  0  0  0  0  0
  152.9265  142.1393  159.1808 C   0  0  1  0  0  0  0  0  0  0  0  0
  153.3197  141.5431  160.5390 C   0  0  0  0  0  0  0  0  0  0  0  0
  151.4693  141.7899  158.8151 C   0  0  0  0  0  0  0  0  0  0  0  0
  149.2747  141.9414  155.9899 N   0  0  0  0  0  0  0  0  0  0  0  0
  149.0517  140.9240  155.0729 C   0  0  0  0  0  0  0  0  0  0  0  0
  150.0697  140.0257  155.0880 C   0  0  0  0  0  0  0  0  0  0  0  0
  150.0845  138.8342  154.2313 C   0  0  0  0  0  0  0  0  0  0  0  0
  150.9952  138.0088  154.2347 O   0  0  0  0  0  0  0  0  0  0  0  0
  148.9871  138.7348  153.4421 N   0  0  0  0  0  0  0  0  0  0  0  0
  147.9274  139.5981  153.3787 C   0  0  0  0  0  0  0  0  0  0  0  0
  146.9893  139.3638  152.6173 O   0  0  0  0  0  0  0  0  0  0  0  0
  147.9588  140.7070  154.1861 N   0  0  0  0  0  0  0  0  0  0  0  0
  146.8553  141.6688  154.1617 C   0  0  0  0  0  0  0  0  0  0  0  0
  148.9440  137.9291  152.8354 H   0  0  0  0  0  0  0  0  0  0  0  0
  154.7826  138.6034  161.3632 H   0  0  0  0  0  0  0  0  0  0  0  0
  154.9979  139.9363  160.2291 H   0  0  0  0  0  0  0  0  0  0  0  0
  155.5627  138.3202  159.8080 H   0  0  0  0  0  0  0  0  0  0  0  0
  153.1856  137.4967  159.7815 H   0  0  0  0  0  0  0  0  0  0  0  0
  152.6215  139.1126  160.2011 H   0  0  0  0  0  0  0  0  0  0  0  0
  151.7105  138.0827  157.5904 H   0  0  0  0  0  0  0  0  0  0  0  0
  151.4981  139.6144  158.4247 H   0  0  0  0  0  0  0  0  0  0  0  0
  153.0353  140.5824  156.4638 H   0  0  0  0  0  0  0  0  0  0  0  0
  152.5671  139.1372  155.6228 H   0  0  0  0  0  0  0  0  0  0  0  0
  150.8665  144.1932  156.5699 H   0  0  0  0  0  0  0  0  0  0  0  0
  150.5252  144.1971  158.2809 H   0  0  0  0  0  0  0  0  0  0  0  0
  153.3014  143.9117  157.0104 H   0  0  0  0  0  0  0  0  0  0  0  0
  152.6999  145.3313  157.8333 H   0  0  0  0  0  0  0  0  0  0  0  0
  154.1778  143.9149  159.3097 H   0  0  0  0  0  0  0  0  0  0  0  0
  152.5706  144.1269  159.9687 H   0  0  0  0  0  0  0  0  0  0  0  0
  153.5793  141.6981  158.4265 H   0  0  0  0  0  0  0  0  0  0  0  0
  152.6985  141.9421  161.3414 H   0  0  0  0  0  0  0  0  0  0  0  0
  154.3597  141.7654  160.7794 H   0  0  0  0  0  0  0  0  0  0  0  0
  153.2056  140.4588  160.5382 H   0  0  0  0  0  0  0  0  0  0  0  0
  150.7842  142.1669  159.5754 H   0  0  0  0  0  0  0  0  0  0  0  0
  151.3435  140.7066  158.7931 H   0  0  0  0  0  0  0  0  0  0  0  0
  146.5674  141.9157  153.1388 H   0  0  0  0  0  0  0  0  0  0  0  0
  147.1142  142.6070  154.6517 H   0  0  0  0  0  0  0  0  0  0  0  0
  145.9842  141.2558  154.6713 H   0  0  0  0  0  0  0  0  0  0  0  0
  1  2  1  0  0  0  0
  1 26  1  0  0  0  0
  1 27  1  0  0  0  0
  1 28  1  0  0  0  0
  2  3  1  0  0  0  0
  2 29  1  0  0  0  0
  2 30  1  0  0  0  0
  3  4  1  0  0  0  0
  4  5  1  0  0  0  0
  4 31  1  0  0  0  0
  4 32  1  0  0  0  0
  5  6  1  0  0  0  0
  5 33  1  0  0  0  0
  5 34  1  0  0  0  0
  6 17  1  0  0  0  0
  6  7  1  0  0  0  0
  7  8  1  0  0  0  0
  7 15  2  0  0  0  0
  8 14  1  0  0  0  0
  8  9  1  0  0  0  0
  9 10  1  0  0  0  0
  9 35  1  0  0  0  0
  9 36  1  0  0  0  0
 10 11  1  0  0  0  0
 10 37  1  0  0  0  0
 10 38  1  0  0  0  0
 11 12  1  0  0  0  0
 11 39  1  0  0  0  0
 11 40  1  0  0  0  0
 12 13  1  0  0  0  0
 12 14  1  0  0  0  0
 12 41  1  0  0  0  0
 13 42  1  0  0  0  0
 13 43  1  0  0  0  0
 13 44  1  0  0  0  0
 14 45  1  0  0  0  0
 14 46  1  0  0  0  0
 15 16  1  0  0  0  0
 16 23  1  0  0  0  0
 16 17  2  0  0  0  0
 17 18  1  0  0  0  0
 18 19  2  0  0  0  0
 18 20  1  0  0  0  0
 20 25  1  0  0  0  0
 20 21  1  0  0  0  0
 21 22  2  0  0  0  0
 21 23  1  0  0  0  0
 23 24  1  0  0  0  0
 24 47  1  0  0  0  0
 24 48  1  0  0  0  0
 24 49  1  0  0  0  0
M  END
> <s_m_source_file>
AV-unprocessed.smi

> <i_m_source_file_index>
544

> <i_lp_mmshare_version>
43012

> <i_f3d_flags>
0

> <s_epik_input>
W0NIM11uMWMoPU8pW25IXWMoPU8pYyhjMTIpbihbQ0gyXVtDSDJdT1tDSDJdW0NIM10pYyhuMilOM1tDSDJdW0NIMl1bQ0gyXVtDQEBIXShbQ0gzXSlbQ0gyXTM=

> <s_epik_cmdline>
J2VwaWtfcHl0aG9uJywgJy1waCcsICc3LjAnLCAnLXRuJywgJzgnLCAnLW1hJywgJzIwMCcsICctbWV0YWxfYmluZGluZycsICctaW1hZScsICc8aW5maWxlLm1hZT4nLCAnLW9tYWUnLCAnPG91dGZpbGUubWFlPic=

> <r_lp_tautomer_probability>
1

> <r_epik_Ionization_Penalty>
0.000382477

> <r_epik_Ionization_Penalty_Charging>
0.000119472

> <r_epik_Ionization_Penalty_Neutral>
0.000263005

> <r_epik_State_Penalty>
-0

> <r_epik_Charging_Adjusted_Penalty>
0.000119472

> <i_epik_Tot_Q>
0

> <i_epik_Tot_abs_Q>
0

> <r_epik_Metal_State_Penalty>
0.0919313

> <b_epik_Metal_Only>
0

> <s_lp_Force_Field>
OPLS_2005

> <r_lp_Energy>
37.8306

> <b_lp_Chiralities_Consistent>
1

> <s_lp_Variant>
AV-unprocessed.smi:544-1

> <Gold.Version>
5.8.1

> <Gold.Id.Protein>
6NUR|6NUR_protein|mol2

> <Gold.PLP.Fitness>
50.8540

> <Gold.PLP.PLP>
-46.6373

> <Gold.PLP.part.hbond>
-3.0000

> <Gold.PLP.part.metal>
0.0000

> <Gold.PLP.part.buried>
-1.7767

> <Gold.PLP.part.nonpolar>
-45.5513

> <Gold.PLP.part.repulsive>
3.5415

> <Gold.PLP.ligand.clash>
0.0000

> <Gold.PLP.ligand.torsion>
1.3750

> <Gold.PLP.Chemscore.Hbond>
2.0000

> <Gold.PLP.Chemscore.CHOScore>
0.0000

> <Gold.PLP.Chemscore.Metal>
0.0000

> <Gold.Chemscore.Hbonds>
donor molecule, donor type, donor heavy atom, donor atom, acceptor molecule, acceptor atom, score
      L1  H    20    25       P1  7948  1.00
      P1  H  7997  8009       L1     3  0.70

> <Gold.PLP.Chemscore.Internal.Correction>
0.9668

> <Gold.Rescore>
     Score         DG    S(hbond)    S(metal)    S(lipo)     H(rot)  DE(clash)    DE(int)     intcor
     15.05     -16.32       1.00        0.00      98.83       1.58       0.05       1.22       ----

> <Gold.Chemscore.Fitness>
15.0526

> <Gold.Chemscore.DG>
-16.3236

> <Gold.Chemscore.ZeroCoef>
-5.4800

> <Gold.Chemscore.Hbond>
0.9960

> <Gold.Chemscore.Metal>
0.0000

> <Gold.Chemscore.Lipo>
98.8307

> <Gold.Chemscore.Internal_Hbond>
0.0000

> <Gold.Chemscore.DEClash>
0.0486

> <Gold.Chemscore.DEInternal>
1.2225

> <Gold.Chemscore.Rot>
1.5806

> <Gold.Chemscore.Internal.Correction>
   9.000000E+99

> <Gold.Chemscore.Hbonds>
donor molecule, donor type, donor heavy atom, donor atom, acceptor molecule, acceptor atom, score
      L1  H    20    25       P1  7948  0.99
      P1  H  7997  8009       L1     3  0.12

> <Gold.Chemscore.Hbond.Weighted>
-3.3267

> <Gold.Chemscore.Metal.Weighted>
-0.0000

> <Gold.Chemscore.Lipo.Weighted>
-11.5632

> <Gold.Chemscore.Internal_Hbond.Weighted>
0.0000

> <Gold.Chemscore.DEClash.Weighted>
0.0486

> <Gold.Chemscore.DEInternal.Weighted>
1.2225

> <Gold.Chemscore.Rot.Weighted>
4.0463

> <Gold.Chemscore.Internal.Correction.Weighted>
   9.000000E+99

> <Gold.Protein.RotatedTorsions>
[ 6907 6896 6895 6894 ] final   72.85 input  -60.11 | X-H torsion
[ 7974 7965 7964 7962 ] final -104.78 input  175.53 | X-H torsion
[ 8008 7997 7996 7995 ] final  166.93 input   59.86 | X-H torsion
[ 10167 10162 10161 10158 ] final   90.37 input  -65.29 | X-H torsion
[ 10718 10713 10712 10709 ] final -120.99 input   66.30 | X-H torsion
[ 10763 10752 10751 10750 ] final  107.85 input  -60.55 | X-H torsion
[ 11005 11000 10999 10996 ] final  -20.44 input  -57.11 | X-H torsion

> <Gold.Protein.ActiveResidues>
 VAL166  LYS551  ARG553  GLY616  TRP617  ASP618  TYR619  PRO620  LYS621  CYS622 
 ASP623  PHE694  ASN695  SER759  ASP760  ASP761  ALA762  ILE779  LEU786  VAL792 
 PHE793  MET794  SER795  GLU796  ALA797  LYS798  CYS799  TRP800  GLU811  SER814 

> <Gold.Protein.RotatedAtoms>
  152.4891  134.4510  159.9574 H   0  0  0  0  0  0  0  0  0  0  0  0  # atno 6907 bound_to 6896
  151.4500  133.3614  159.2802 H   0  0  0  0  0  0  0  0  0  0  0  0  # atno 6908 bound_to 6896
  150.9028  134.8465  159.7432 H   0  0  0  0  0  0  0  0  0  0  0  0  # atno 6909 bound_to 6896
  145.2388  140.9197  143.3162 H   0  0  0  0  0  0  0  0  0  0  0  0  # atno 7974 bound_to 7965
  156.1677  140.1630  156.8502 H   0  0  0  0  0  0  0  0  0  0  0  0  # atno 8008 bound_to 7997
  154.5224  140.0775  156.8232 H   0  0  0  0  0  0  0  0  0  0  0  0  # atno 8009 bound_to 7997
  155.3577  140.3393  155.4242 H   0  0  0  0  0  0  0  0  0  0  0  0  # atno 8010 bound_to 7997
  139.8480  144.6608  150.9203 H   0  0  0  0  0  0  0  0  0  0  0  0  # atno 10167 bound_to 10162
  156.1302  130.6389  150.9608 H   0  0  0  0  0  0  0  0  0  0  0  0  # atno 10718 bound_to 10713
  153.4124  135.3831  155.2059 H   0  0  0  0  0  0  0  0  0  0  0  0  # atno 10763 bound_to 10752
  154.8739  135.3797  154.4484 H   0  0  0  0  0  0  0  0  0  0  0  0  # atno 10764 bound_to 10752
  153.4994  135.7088  153.5902 H   0  0  0  0  0  0  0  0  0  0  0  0  # atno 10765 bound_to 10752
  140.8465  133.7888  155.9918 H   0  0  0  0  0  0  0  0  0  0  0  0  # atno 11005 bound_to 11000
  144.9608  139.3982  143.6357 LP  0  0  0  0  0  0  0  0  0  0  0  0  # atno 17320 bound_to 7965
  146.3334  139.8660  142.8848 LP  0  0  0  0  0  0  0  0  0  0  0  0  # atno 17321 bound_to 7965
  140.7791  143.3853  151.1405 LP  0  0  0  0  0  0  0  0  0  0  0  0  # atno 17342 bound_to 10162
  139.7493  143.8803  152.3072 LP  0  0  0  0  0  0  0  0  0  0  0  0  # atno 17343 bound_to 10162
  157.6480  131.0901  150.8112 LP  0  0  0  0  0  0  0  0  0  0  0  0  # atno 17370 bound_to 10713
  156.8197  130.4980  149.5344 LP  0  0  0  0  0  0  0  0  0  0  0  0  # atno 17371 bound_to 10713
  140.8838  134.2579  157.5130 LP  0  0  0  0  0  0  0  0  0  0  0  0  # atno 17394 bound_to 11000
  139.8703  134.9628  156.4441 LP  0  0  0  0  0  0  0  0  0  0  0  0  # atno 17395 bound_to 11000

$$$$
