AV-unprocessed.smi:2061|AV-procd|sdf|8374|dock10
  -GOLD-   2272011 53D 1   1.00000     0.00000
 Structure written by MMmdl.
 44 45  0  0  0  0  0  0  0  0  2 V2000
  146.0183  132.6998  161.6426 C   0  0  0  0  0  0  0  0  0  0  0  0
  146.6534  134.0430  161.5218 C   0  0  0  0  0  0  0  0  0  0  0  0
  147.0932  134.7679  160.4509 C   0  0  0  0  0  0  0  0  0  0  0  0
  147.5935  135.9577  161.0473 C   0  0  0  0  0  0  0  0  0  0  0  0
  148.1279  137.0021  160.3960 N   0  5  0  0  0  0  0  0  0  0  0  0
  148.8614  136.8041  159.2764 C   0  0  0  0  0  0  0  0  0  0  0  0
  149.5026  135.7896  158.9939 O   0  0  0  0  0  0  0  0  0  0  0  0
  148.8403  137.8451  158.4308 N   0  0  0  0  0  0  0  0  0  0  0  0
  149.5276  137.9379  157.1436 C   0  0  0  0  0  0  0  0  0  0  0  0
  150.4546  139.1824  157.0373 C   0  0  2  0  0  0  0  0  0  0  0  0
  151.0968  139.2174  155.6268 C   0  0  0  0  0  0  0  0  0  0  0  0
  151.4594  139.2581  158.1254 N   0  0  0  0  0  0  0  0  0  0  0  0
  152.6097  138.3784  157.8910 C   0  0  0  0  0  0  0  0  0  0  0  0
  153.6696  138.4637  159.0057 C   0  0  1  0  0  0  0  0  0  0  0  0
  154.8969  137.5967  158.7053 C   0  0  0  0  0  0  0  0  0  0  0  0
  154.0995  139.8124  159.1387 O   0  0  0  0  0  0  0  0  0  0  0  0
  153.0313  140.6988  159.4471 C   0  0  1  0  0  0  0  0  0  0  0  0
  153.6070  142.1113  159.5946 C   0  0  0  0  0  0  0  0  0  0  0  0
  151.9678  140.6181  158.3352 C   0  0  0  0  0  0  0  0  0  0  0  0
  147.4533  135.9617  162.3624 N   0  0  0  0  0  0  0  0  0  0  0  0
  146.8563  134.7347  162.6753 O   0  0  0  0  0  0  0  0  0  0  0  0
  145.0046  132.7164  161.2426 H   0  0  0  0  0  0  0  0  0  0  0  0
  145.9661  132.3815  162.6840 H   0  0  0  0  0  0  0  0  0  0  0  0
  146.5887  131.9529  161.0902 H   0  0  0  0  0  0  0  0  0  0  0  0
  147.0662  134.4913  159.4076 H   0  0  0  0  0  0  0  0  0  0  0  0
  148.2971  138.6486  158.7102 H   0  0  0  0  0  0  0  0  0  0  0  0
  150.0997  137.0143  157.0812 H   0  0  0  0  0  0  0  0  0  0  0  0
  148.8268  137.9194  156.3074 H   0  0  0  0  0  0  0  0  0  0  0  0
  149.8124  140.0612  157.1133 H   0  0  0  0  0  0  0  0  0  0  0  0
  150.3565  139.1396  154.8322 H   0  0  0  0  0  0  0  0  0  0  0  0
  151.8049  138.3987  155.4957 H   0  0  0  0  0  0  0  0  0  0  0  0
  151.6185  140.1522  155.4286 H   0  0  0  0  0  0  0  0  0  0  0  0
  152.2911  137.3390  157.8364 H   0  0  0  0  0  0  0  0  0  0  0  0
  153.0684  138.6207  156.9311 H   0  0  0  0  0  0  0  0  0  0  0  0
  153.2330  138.1347  159.9504 H   0  0  0  0  0  0  0  0  0  0  0  0
  154.6205  136.5469  158.6040 H   0  0  0  0  0  0  0  0  0  0  0  0
  155.6316  137.6706  159.5073 H   0  0  0  0  0  0  0  0  0  0  0  0
  155.3819  137.9066  157.7791 H   0  0  0  0  0  0  0  0  0  0  0  0
  152.5873  140.4018  160.3991 H   0  0  0  0  0  0  0  0  0  0  0  0
  152.8257  142.8287  159.8470 H   0  0  0  0  0  0  0  0  0  0  0  0
  154.0799  142.4429  158.6697 H   0  0  0  0  0  0  0  0  0  0  0  0
  154.3581  142.1462  160.3841 H   0  0  0  0  0  0  0  0  0  0  0  0
  152.3824  141.0038  157.4025 H   0  0  0  0  0  0  0  0  0  0  0  0
  151.1606  141.2876  158.6249 H   0  0  0  0  0  0  0  0  0  0  0  0
  1  2  1  0  0  0  0
  1 22  1  0  0  0  0
  1 23  1  0  0  0  0
  1 24  1  0  0  0  0
  2 21  1  0  0  0  0
  2  3  2  0  0  0  0
  3  4  1  0  0  0  0
  3 25  1  0  0  0  0
  4  5  1  0  0  0  0
  4 20  2  0  0  0  0
  5  6  1  0  0  0  0
  6  7  2  0  0  0  0
  6  8  1  0  0  0  0
  8  9  1  0  0  0  0
  8 26  1  0  0  0  0
  9 10  1  0  0  0  0
  9 27  1  0  0  0  0
  9 28  1  0  0  0  0
 10 11  1  0  0  0  0
 10 12  1  0  0  0  0
 10 29  1  0  0  0  0
 11 30  1  0  0  0  0
 11 31  1  0  0  0  0
 11 32  1  0  0  0  0
 12 19  1  0  0  0  0
 12 13  1  0  0  0  0
 13 14  1  0  0  0  0
 13 33  1  0  0  0  0
 13 34  1  0  0  0  0
 14 15  1  0  0  0  0
 14 16  1  0  0  0  0
 14 35  1  0  0  0  0
 15 36  1  0  0  0  0
 15 37  1  0  0  0  0
 15 38  1  0  0  0  0
 16 17  1  0  0  0  0
 17 18  1  0  0  0  0
 17 19  1  0  0  0  0
 17 39  1  0  0  0  0
 18 40  1  0  0  0  0
 18 41  1  0  0  0  0
 18 42  1  0  0  0  0
 19 43  1  0  0  0  0
 19 44  1  0  0  0  0
 20 21  1  0  0  0  0
M  CHG  1   5  -1
M  END
> <s_m_source_file>
AV-unprocessed.smi

> <i_m_source_file_index>
2061

> <i_lp_mmshare_version>
43012

> <i_f3d_flags>
0

> <s_epik_input>
W0NIM11jMVtjSF1jKG5vMSlbTkhdQyg9TylbTkhdW0NIMl1bQ0BIXShbQ0gzXSlOMltDSDJdW0NAQEhdKFtDSDNdKU9bQ0BASF0oW0NIM10pW0NIMl0y

> <s_epik_cmdline>
J2VwaWtfcHl0aG9uJywgJy1waCcsICc3LjAnLCAnLXRuJywgJzgnLCAnLW1hJywgJzIwMCcsICctbWV0YWxfYmluZGluZycsICctaW1hZScsICc8aW5maWxlLm1hZT4nLCAnLW9tYWUnLCAnPG91dGZpbGUubWFlPic=

> <r_epik_Ionization_Penalty>
6.88367

> <r_epik_Ionization_Penalty_Charging>
6.57198

> <r_epik_Ionization_Penalty_Neutral>
0.311681

> <r_epik_State_Penalty>
6.77619

> <r_epik_Charging_Adjusted_Penalty>
13.3482

> <i_epik_Tot_Q>
-1

> <i_epik_Tot_abs_Q>
1

> <r_epik_Metal_State_Penalty>
2.70524

> <b_epik_Metal_Only>
1

> <s_lp_Force_Field>
OPLS_2005

> <r_lp_Energy>
21.032

> <b_lp_Chiralities_Consistent>
1

> <s_lp_Variant>
AV-unprocessed.smi:2061-15

> <Gold.Version>
5.8.1

> <Gold.Id.Protein>
6NUR|6NUR_protein|mol2

> <Gold.PLP.Fitness>
44.7383

> <Gold.PLP.PLP>
-30.6481

> <Gold.PLP.part.hbond>
-4.3217

> <Gold.PLP.part.metal>
0.0000

> <Gold.PLP.part.buried>
-5.9592

> <Gold.PLP.part.nonpolar>
-20.8782

> <Gold.PLP.part.repulsive>
0.2004

> <Gold.PLP.ligand.clash>
0.0000

> <Gold.PLP.ligand.torsion>
0.7352

> <Gold.PLP.Chemscore.Hbond>
5.1680

> <Gold.PLP.Chemscore.CHOScore>
0.0000

> <Gold.PLP.Chemscore.Metal>
0.0000

> <Gold.Chemscore.Hbonds>
donor molecule, donor type, donor heavy atom, donor atom, acceptor molecule, acceptor atom, score
      P1  H  6896  6909       L1     7  1.00
      P1  H  6931  6943       L1     5  1.12
      P1  H  6934  6947       L1     5  0.53
      P1  H  7997  8008       L1    16  0.80

> <Gold.PLP.Chemscore.Internal.Correction>
0.0566

> <Gold.Rescore>
     Score         DG    S(hbond)    S(metal)    S(lipo)     H(rot)  DE(clash)    DE(int)     intcor
     16.35     -17.81       2.60        0.00      64.49       1.52       0.04       1.42       ----

> <Gold.Chemscore.Fitness>
16.3455

> <Gold.Chemscore.DG>
-17.8093

> <Gold.Chemscore.ZeroCoef>
-5.4800

> <Gold.Chemscore.Hbond>
2.5965

> <Gold.Chemscore.Metal>
0.0000

> <Gold.Chemscore.Lipo>
64.4921

> <Gold.Chemscore.Internal_Hbond>
0.0000

> <Gold.Chemscore.DEClash>
0.0407

> <Gold.Chemscore.DEInternal>
1.4231

> <Gold.Chemscore.Rot>
1.5190

> <Gold.Chemscore.Internal.Correction>
   9.000000E+99

> <Gold.Chemscore.Hbonds>
donor molecule, donor type, donor heavy atom, donor atom, acceptor molecule, acceptor atom, score
      P1  H  6896  6909       L1     7  1.00
      P1  H  6931  6943       L1     5  0.30
      P1  H  6934  6947       L1     5  0.25
      P1  H  7997  8008       L1    16  0.11

> <Gold.Chemscore.Hbond.Weighted>
-8.6724

> <Gold.Chemscore.Metal.Weighted>
-0.0000

> <Gold.Chemscore.Lipo.Weighted>
-7.5456

> <Gold.Chemscore.Internal_Hbond.Weighted>
0.0000

> <Gold.Chemscore.DEClash.Weighted>
0.0407

> <Gold.Chemscore.DEInternal.Weighted>
1.4231

> <Gold.Chemscore.Rot.Weighted>
3.8886

> <Gold.Chemscore.Internal.Correction.Weighted>
   9.000000E+99

> <Gold.Protein.RotatedTorsions>
[ 6907 6896 6895 6894 ] final   53.88 input  -60.11 | X-H torsion
[ 7974 7965 7964 7962 ] final   90.23 input  175.53 | X-H torsion
[ 8008 7997 7996 7995 ] final -105.05 input   59.86 | X-H torsion
[ 10167 10162 10161 10158 ] final   94.13 input  -65.29 | X-H torsion
[ 10718 10713 10712 10709 ] final   86.59 input   66.30 | X-H torsion
[ 10763 10752 10751 10750 ] final  105.65 input  -60.55 | X-H torsion
[ 11005 11000 10999 10996 ] final  116.76 input  -57.11 | X-H torsion

> <Gold.Protein.ActiveResidues>
 VAL166  LYS551  ARG553  GLY616  TRP617  ASP618  TYR619  PRO620  LYS621  CYS622 
 ASP623  PHE694  ASN695  SER759  ASP760  ASP761  ALA762  ILE779  LEU786  VAL792 
 PHE793  MET794  SER795  GLU796  ALA797  LYS798  CYS799  TRP800  GLU811  SER814 

> <Gold.Protein.RotatedAtoms>
  152.3382  134.7169  160.0270 H   0  0  0  0  0  0  0  0  0  0  0  0  # atno 6907 bound_to 6896
  151.7563  133.3325  159.3413 H   0  0  0  0  0  0  0  0  0  0  0  0  # atno 6908 bound_to 6896
  150.7464  134.6079  159.6115 H   0  0  0  0  0  0  0  0  0  0  0  0  # atno 6909 bound_to 6896
  145.5218  139.2279  143.2667 H   0  0  0  0  0  0  0  0  0  0  0  0  # atno 7974 bound_to 7965
  154.8942  140.0415  157.1856 H   0  0  0  0  0  0  0  0  0  0  0  0  # atno 8008 bound_to 7997
  154.8510  140.2929  155.5577 H   0  0  0  0  0  0  0  0  0  0  0  0  # atno 8009 bound_to 7997
  156.2996  140.2465  156.3468 H   0  0  0  0  0  0  0  0  0  0  0  0  # atno 8010 bound_to 7997
  139.8113  144.6772  150.9637 H   0  0  0  0  0  0  0  0  0  0  0  0  # atno 10167 bound_to 10162
  157.6930  131.0222  150.2996 H   0  0  0  0  0  0  0  0  0  0  0  0  # atno 10718 bound_to 10713
  153.3823  135.3903  155.1865 H   0  0  0  0  0  0  0  0  0  0  0  0  # atno 10763 bound_to 10752
  154.8709  135.3728  154.4842 H   0  0  0  0  0  0  0  0  0  0  0  0  # atno 10764 bound_to 10752
  153.5320  135.7085  153.5740 H   0  0  0  0  0  0  0  0  0  0  0  0  # atno 10765 bound_to 10752
  139.9052  134.9602  156.7247 H   0  0  0  0  0  0  0  0  0  0  0  0  # atno 11005 bound_to 11000
  146.2101  140.6031  142.9063 LP  0  0  0  0  0  0  0  0  0  0  0  0  # atno 17320 bound_to 7965
  144.7672  140.5556  143.6695 LP  0  0  0  0  0  0  0  0  0  0  0  0  # atno 17321 bound_to 7965
  140.7817  143.4182  151.0883 LP  0  0  0  0  0  0  0  0  0  0  0  0  # atno 17342 bound_to 10162
  139.7849  143.8302  152.3143 LP  0  0  0  0  0  0  0  0  0  0  0  0  # atno 17343 bound_to 10162
  156.3514  130.3831  149.7326 LP  0  0  0  0  0  0  0  0  0  0  0  0  # atno 17370 bound_to 10713
  156.4802  130.8037  151.3052 LP  0  0  0  0  0  0  0  0  0  0  0  0  # atno 17371 bound_to 10713
  140.6973  133.9337  155.8002 LP  0  0  0  0  0  0  0  0  0  0  0  0  # atno 17394 bound_to 11000
  141.0398  134.0638  157.3916 LP  0  0  0  0  0  0  0  0  0  0  0  0  # atno 17395 bound_to 11000

$$$$
