AV-unprocessed.smi:2875|AV-procd|sdf|11041|dock2
  -GOLD-   2272015503D 1   1.00000     0.00000
 Structure written by MMmdl.
 39 39  0  0  0  0  0  0  0  0  2 V2000
  148.3005  141.7498  154.3675 C   0  0  0  0  0  0  0  0  0  0  0  0
  148.9248  140.4877  154.9782 C   0  0  0  0  0  0  0  0  0  0  0  0
  150.1499  139.9476  154.2107 C   0  0  0  0  0  0  0  0  0  0  0  0
  150.8411  138.8517  154.9296 N   0  0  0  0  0  0  0  0  0  0  0  0
  150.1913  137.5975  155.0960 C   0  0  0  0  0  0  0  0  0  0  0  0
  148.9071  137.4281  154.5985 N   0  0  0  0  0  0  0  0  0  0  0  0
  150.8217  136.5853  155.7509 C   0  0  0  0  0  0  0  0  0  0  0  0
  150.2362  135.3110  155.8979 N   0  0  0  0  0  0  0  0  0  0  0  0
  150.0373  134.5162  154.6739 C   0  0  0  0  0  0  0  0  0  0  0  0
  148.5484  134.2725  154.3795 C   0  0  0  0  0  0  0  0  0  0  0  0
  148.4280  133.3728  153.2907 O   0  0  0  0  0  0  0  0  0  0  0  0
  149.0201  132.1144  153.5558 C   0  0  0  0  0  0  0  0  0  0  0  0
  149.8139  134.8442  157.1027 C   0  0  0  0  0  0  0  0  0  0  0  0
  149.2696  133.4142  157.2119 C   0  0  0  0  0  0  0  0  0  0  0  0
  149.8781  135.5162  158.1332 O   0  0  0  0  0  0  0  0  0  0  0  0
  152.1870  136.8048  156.2470 C   0  0  0  0  0  0  0  0  0  0  0  0
  152.7969  135.8949  156.8096 O   0  0  0  0  0  0  0  0  0  0  0  0
  152.7387  138.0322  156.0593 N   0  5  0  0  0  0  0  0  0  0  0  0
  152.1043  139.0534  155.4169 C   0  0  0  0  0  0  0  0  0  0  0  0
  152.6419  140.1510  155.2621 O   0  0  0  0  0  0  0  0  0  0  0  0
  147.4150  142.0518  154.9268 H   0  0  0  0  0  0  0  0  0  0  0  0
  147.9988  141.5800  153.3340 H   0  0  0  0  0  0  0  0  0  0  0  0
  148.9988  142.5869  154.3830 H   0  0  0  0  0  0  0  0  0  0  0  0
  149.1972  140.6907  156.0143 H   0  0  0  0  0  0  0  0  0  0  0  0
  148.1662  139.7058  155.0185 H   0  0  0  0  0  0  0  0  0  0  0  0
  149.8256  139.5967  153.2294 H   0  0  0  0  0  0  0  0  0  0  0  0
  150.8184  140.7722  153.9675 H   0  0  0  0  0  0  0  0  0  0  0  0
  148.4182  138.1708  154.1203 H   0  0  0  0  0  0  0  0  0  0  0  0
  148.3960  136.5677  154.7342 H   0  0  0  0  0  0  0  0  0  0  0  0
  150.5020  135.0217  153.8256 H   0  0  0  0  0  0  0  0  0  0  0  0
  150.5455  133.5537  154.7478 H   0  0  0  0  0  0  0  0  0  0  0  0
  148.0364  133.8853  155.2616 H   0  0  0  0  0  0  0  0  0  0  0  0
  148.0690  135.2162  154.1159 H   0  0  0  0  0  0  0  0  0  0  0  0
  148.8921  131.4611  152.6928 H   0  0  0  0  0  0  0  0  0  0  0  0
  148.5548  131.6329  154.4169 H   0  0  0  0  0  0  0  0  0  0  0  0
  150.0894  132.2156  153.7451 H   0  0  0  0  0  0  0  0  0  0  0  0
  149.9393  132.6993  156.7328 H   0  0  0  0  0  0  0  0  0  0  0  0
  148.2851  133.3377  156.7507 H   0  0  0  0  0  0  0  0  0  0  0  0
  149.1692  133.1224  158.2576 H   0  0  0  0  0  0  0  0  0  0  0  0
  1  2  1  0  0  0  0
  1 21  1  0  0  0  0
  1 22  1  0  0  0  0
  1 23  1  0  0  0  0
  2  3  1  0  0  0  0
  2 24  1  0  0  0  0
  2 25  1  0  0  0  0
  3  4  1  0  0  0  0
  3 26  1  0  0  0  0
  3 27  1  0  0  0  0
  4 19  1  0  0  0  0
  4  5  1  0  0  0  0
  5  6  1  0  0  0  0
  5  7  2  0  0  0  0
  6 28  1  0  0  0  0
  6 29  1  0  0  0  0
  7  8  1  0  0  0  0
  7 16  1  0  0  0  0
  8  9  1  0  0  0  0
  8 13  1  0  0  0  0
  9 10  1  0  0  0  0
  9 30  1  0  0  0  0
  9 31  1  0  0  0  0
 10 11  1  0  0  0  0
 10 32  1  0  0  0  0
 10 33  1  0  0  0  0
 11 12  1  0  0  0  0
 12 34  1  0  0  0  0
 12 35  1  0  0  0  0
 12 36  1  0  0  0  0
 13 14  1  0  0  0  0
 13 15  2  0  0  0  0
 14 37  1  0  0  0  0
 14 38  1  0  0  0  0
 14 39  1  0  0  0  0
 16 17  2  0  0  0  0
 16 18  1  0  0  0  0
 18 19  1  0  0  0  0
 19 20  2  0  0  0  0
M  CHG  1  18  -1
M  END
> <s_m_source_file>
AV-unprocessed.smi

> <i_m_source_file_index>
2875

> <i_lp_mmshare_version>
43012

> <i_f3d_flags>
0

> <s_epik_input>
W0NIM11bQ0gyXVtDSDJdbjFjKFtOSDJdKWMoYyg9TylbbkhdYzE9TylOKEMoPU8pW0NIM10pW0NIMl1bQ0gyXU9bQ0gzXQ==

> <s_epik_cmdline>
J2VwaWtfcHl0aG9uJywgJy1waCcsICc3LjAnLCAnLXRuJywgJzgnLCAnLW1hJywgJzIwMCcsICctbWV0YWxfYmluZGluZycsICctaW1hZScsICc8aW5maWxlLm1hZT4nLCAnLW9tYWUnLCAnPG91dGZpbGUubWFlPic=

> <r_lp_tautomer_probability>
1

> <r_epik_Ionization_Penalty>
7.11914

> <r_epik_Ionization_Penalty_Charging>
0.302695

> <r_epik_Ionization_Penalty_Neutral>
6.81644

> <r_epik_State_Penalty>
6.81644

> <r_epik_Charging_Adjusted_Penalty>
7.11913

> <i_epik_Tot_Q>
-1

> <i_epik_Tot_abs_Q>
1

> <r_epik_Metal_State_Penalty>
2.72963

> <b_epik_Metal_Only>
1

> <s_epik_Chemistry_Notes>
This compound has an imine and may undergo hydrolysis.

> <s_lp_Force_Field>
OPLS_2005

> <r_lp_Energy>
36.1064

> <b_lp_Chiralities_Consistent>
1

> <s_lp_Variant>
AV-unprocessed.smi:2875-2

> <Gold.Version>
5.8.1

> <Gold.Id.Protein>
6NUR|6NUR_protein|mol2

> <Gold.PLP.Fitness>
37.4193

> <Gold.PLP.PLP>
-27.5347

> <Gold.PLP.part.hbond>
-5.0000

> <Gold.PLP.part.metal>
0.0000

> <Gold.PLP.part.buried>
2.1508

> <Gold.PLP.part.nonpolar>
-24.4601

> <Gold.PLP.part.repulsive>
0.1972

> <Gold.PLP.ligand.clash>
0.0000

> <Gold.PLP.ligand.torsion>
1.4217

> <Gold.PLP.Chemscore.Hbond>
3.4645

> <Gold.PLP.Chemscore.CHOScore>
0.0000

> <Gold.PLP.Chemscore.Metal>
0.0000

> <Gold.Chemscore.Hbonds>
donor molecule, donor type, donor heavy atom, donor atom, acceptor molecule, acceptor atom, score
      P1  H  6896  6909       L1    15  0.93
      P1  H  7989  7998       L1    20  0.38
      P1  H  7997  8009       L1    20  1.00
      P1  H 10752 10763       L1    17  0.85

> <Gold.PLP.Chemscore.Internal.Correction>
2.3345

> <Gold.Rescore>
     Score         DG    S(hbond)    S(metal)    S(lipo)     H(rot)  DE(clash)    DE(int)     intcor
     10.43     -12.55       2.16        0.00      43.39       2.04       0.42       1.69       ----

> <Gold.Chemscore.Fitness>
10.4320

> <Gold.Chemscore.DG>
-12.5479

> <Gold.Chemscore.ZeroCoef>
-5.4800

> <Gold.Chemscore.Hbond>
2.1604

> <Gold.Chemscore.Metal>
0.0000

> <Gold.Chemscore.Lipo>
43.3913

> <Gold.Chemscore.Internal_Hbond>
0.0000

> <Gold.Chemscore.DEClash>
0.4224

> <Gold.Chemscore.DEInternal>
1.6936

> <Gold.Chemscore.Rot>
2.0409

> <Gold.Chemscore.Internal.Correction>
   9.000000E+99

> <Gold.Chemscore.Hbonds>
donor molecule, donor type, donor heavy atom, donor atom, acceptor molecule, acceptor atom, score
      P1  H  6896  6909       L1    15  0.55
      P1  H  7989  7998       L1    20  0.13
      P1  H  7997  8009       L1    20  0.85
      P1  H 10752 10763       L1    17  0.14

> <Gold.Chemscore.Hbond.Weighted>
-7.2157

> <Gold.Chemscore.Metal.Weighted>
-0.0000

> <Gold.Chemscore.Lipo.Weighted>
-5.0768

> <Gold.Chemscore.Internal_Hbond.Weighted>
0.0000

> <Gold.Chemscore.DEClash.Weighted>
0.4224

> <Gold.Chemscore.DEInternal.Weighted>
1.6936

> <Gold.Chemscore.Rot.Weighted>
5.2246

> <Gold.Chemscore.Internal.Correction.Weighted>
   9.000000E+99

> <Gold.Protein.RotatedTorsions>
[ 6907 6896 6895 6894 ] final   39.04 input  -60.11 | X-H torsion
[ 7974 7965 7964 7962 ] final    7.60 input  175.53 | X-H torsion
[ 8008 7997 7996 7995 ] final -139.61 input   59.86 | X-H torsion
[ 10167 10162 10161 10158 ] final  -77.37 input  -65.29 | X-H torsion
[ 10718 10713 10712 10709 ] final  154.13 input   66.30 | X-H torsion
[ 10763 10752 10751 10750 ] final  131.26 input  -60.55 | X-H torsion
[ 11005 11000 10999 10996 ] final -153.09 input  -57.11 | X-H torsion

> <Gold.Protein.ActiveResidues>
 VAL166  LYS551  ARG553  GLY616  TRP617  ASP618  TYR619  PRO620  LYS621  CYS622 
 ASP623  PHE694  ASN695  SER759  ASP760  ASP761  ALA762  ILE779  LEU786  VAL792 
 PHE793  MET794  SER795  GLU796  ALA797  LYS798  CYS799  TRP800  GLU811  SER814 

> <Gold.Protein.RotatedAtoms>
  152.1644  134.8886  160.0538 H   0  0  0  0  0  0  0  0  0  0  0  0  # atno 6907 bound_to 6896
  151.9869  133.3772  159.4137 H   0  0  0  0  0  0  0  0  0  0  0  0  # atno 6908 bound_to 6896
  150.6892  134.3901  159.5116 H   0  0  0  0  0  0  0  0  0  0  0  0  # atno 6909 bound_to 6896
  146.2425  140.0059  142.8411 H   0  0  0  0  0  0  0  0  0  0  0  0  # atno 7974 bound_to 7965
  155.4477  140.0536  157.3004 H   0  0  0  0  0  0  0  0  0  0  0  0  # atno 8008 bound_to 7997
  154.4790  140.2073  155.9764 H   0  0  0  0  0  0  0  0  0  0  0  0  # atno 8009 bound_to 7997
  156.1177  140.3193  155.8168 H   0  0  0  0  0  0  0  0  0  0  0  0  # atno 8010 bound_to 7997
  140.4776  143.2410  151.8109 H   0  0  0  0  0  0  0  0  0  0  0  0  # atno 10167 bound_to 10162
  157.2356  131.0748  151.1825 H   0  0  0  0  0  0  0  0  0  0  0  0  # atno 10718 bound_to 10713
  153.7715  135.3181  155.3352 H   0  0  0  0  0  0  0  0  0  0  0  0  # atno 10763 bound_to 10752
  154.8195  135.4613  154.0740 H   0  0  0  0  0  0  0  0  0  0  0  0  # atno 10764 bound_to 10752
  153.2001  135.6921  153.8327 H   0  0  0  0  0  0  0  0  0  0  0  0  # atno 10765 bound_to 10752
  140.7119  134.3823  157.5196 H   0  0  0  0  0  0  0  0  0  0  0  0  # atno 11005 bound_to 11000
  145.1372  140.9551  143.4510 LP  0  0  0  0  0  0  0  0  0  0  0  0  # atno 17320 bound_to 7965
  145.0331  139.3324  143.6015 LP  0  0  0  0  0  0  0  0  0  0  0  0  # atno 17321 bound_to 7965
  139.4828  144.4814  151.9302 LP  0  0  0  0  0  0  0  0  0  0  0  0  # atno 17342 bound_to 10162
  140.3899  144.2629  150.5900 LP  0  0  0  0  0  0  0  0  0  0  0  0  # atno 17343 bound_to 10162
  157.3432  130.7044  149.6394 LP  0  0  0  0  0  0  0  0  0  0  0  0  # atno 17370 bound_to 10713
  155.9673  130.4274  150.4741 LP  0  0  0  0  0  0  0  0  0  0  0  0  # atno 17371 bound_to 10713
  139.8869  134.8896  156.2556 LP  0  0  0  0  0  0  0  0  0  0  0  0  # atno 17394 bound_to 11000
  141.0077  133.7114  156.1062 LP  0  0  0  0  0  0  0  0  0  0  0  0  # atno 17395 bound_to 11000

$$$$
