AV-unprocessed.smi:2558|AV-procd|sdf|10033|dock8
  -GOLD-   2272014 73D 1   1.00000     0.00000
 Structure written by MMmdl.
 42 43  0  0  0  0  0  0  0  0  2 V2000
  150.7048  138.9706  154.7755 C   0  0  0  0  0  0  0  0  0  0  0  0
  152.1066  138.4797  155.8629 S   0  0  0  0  0  0  0  0  0  0  0  0
  152.1907  137.0104  155.8788 O   0  0  0  0  0  0  0  0  0  0  0  0
  153.2887  139.2631  155.4693 O   0  0  0  0  0  0  0  0  0  0  0  0
  151.5817  139.0409  157.4371 N   0  0  0  0  0  0  0  0  0  0  0  0
  151.0216  138.1899  158.4207 C   0  0  0  0  0  0  0  0  0  0  0  0
  151.2856  138.3914  159.6081 O   0  0  0  0  0  0  0  0  0  0  0  0
  150.1347  137.2977  157.9027 N   0  5  0  0  0  0  0  0  0  0  0  0
  149.5622  136.2792  158.5925 C   0  0  0  0  0  0  0  0  0  0  0  0
  149.5756  135.0822  158.2972 O   0  0  0  0  0  0  0  0  0  0  0  0
  148.9107  136.7042  159.6898 N   0  0  0  0  0  0  0  0  0  0  0  0
  148.2442  135.9344  160.6801 C   0  0  0  0  0  0  0  0  0  0  0  0
  148.0174  136.5233  161.9406 C   0  0  0  0  0  0  0  0  0  0  0  0
  147.3842  135.7671  162.9453 C   0  0  0  0  0  0  0  0  0  0  0  0
  147.0125  134.4411  162.6504 C   0  0  0  0  0  0  0  0  0  0  0  0
  147.2386  133.8558  161.4555 N   0  0  0  0  0  0  0  0  0  0  0  0
  147.8436  134.5883  160.4951 C   0  0  0  0  0  0  0  0  0  0  0  0
  151.6808  140.5061  157.6816 C   0  0  0  0  0  0  0  0  0  0  0  0
  152.5874  140.8381  158.8854 C   0  0  0  0  0  0  0  0  0  0  0  0
  152.7437  142.3593  159.0464 C   0  0  0  0  0  0  0  0  0  0  0  0
  151.3758  143.0556  159.1524 C   0  0  0  0  0  0  0  0  0  0  0  0
  150.4807  142.7264  157.9452 C   0  0  0  0  0  0  0  0  0  0  0  0
  150.3056  141.2082  157.7796 C   0  0  0  0  0  0  0  0  0  0  0  0
  150.9312  138.6936  153.7464 H   0  0  0  0  0  0  0  0  0  0  0  0
  150.5554  140.0482  154.8378 H   0  0  0  0  0  0  0  0  0  0  0  0
  149.7968  138.4607  155.0965 H   0  0  0  0  0  0  0  0  0  0  0  0
  148.8401  137.7055  159.7953 H   0  0  0  0  0  0  0  0  0  0  0  0
  148.3190  137.5421  162.1354 H   0  0  0  0  0  0  0  0  0  0  0  0
  147.1897  136.1927  163.9185 H   0  0  0  0  0  0  0  0  0  0  0  0
  146.5264  133.8314  163.3976 H   0  0  0  0  0  0  0  0  0  0  0  0
  148.0276  134.0636  159.5699 H   0  0  0  0  0  0  0  0  0  0  0  0
  152.1613  140.9469  156.8081 H   0  0  0  0  0  0  0  0  0  0  0  0
  152.1752  140.4274  159.8064 H   0  0  0  0  0  0  0  0  0  0  0  0
  153.5677  140.3789  158.7539 H   0  0  0  0  0  0  0  0  0  0  0  0
  153.3421  142.5789  159.9307 H   0  0  0  0  0  0  0  0  0  0  0  0
  153.2929  142.7617  158.1942 H   0  0  0  0  0  0  0  0  0  0  0  0
  150.8782  142.7422  160.0712 H   0  0  0  0  0  0  0  0  0  0  0  0
  151.5142  144.1344  159.2287 H   0  0  0  0  0  0  0  0  0  0  0  0
  149.5064  143.2013  158.0639 H   0  0  0  0  0  0  0  0  0  0  0  0
  150.9201  143.1453  157.0389 H   0  0  0  0  0  0  0  0  0  0  0  0
  149.7134  140.9987  156.8881 H   0  0  0  0  0  0  0  0  0  0  0  0
  149.7338  140.8323  158.6283 H   0  0  0  0  0  0  0  0  0  0  0  0
  1  2  1  0  0  0  0
  1 24  1  0  0  0  0
  1 25  1  0  0  0  0
  1 26  1  0  0  0  0
  2  3  2  0  0  0  0
  2  4  2  0  0  0  0
  2  5  1  0  0  0  0
  5  6  1  0  0  0  0
  5 18  1  0  0  0  0
  6  7  2  0  0  0  0
  6  8  1  0  0  0  0
  8  9  1  0  0  0  0
  9 10  2  0  0  0  0
  9 11  1  0  0  0  0
 11 12  1  0  0  0  0
 11 27  1  0  0  0  0
 12 17  1  0  0  0  0
 12 13  2  0  0  0  0
 13 14  1  0  0  0  0
 13 28  1  0  0  0  0
 14 15  2  0  0  0  0
 14 29  1  0  0  0  0
 15 16  1  0  0  0  0
 15 30  1  0  0  0  0
 16 17  2  0  0  0  0
 17 31  1  0  0  0  0
 18 23  1  0  0  0  0
 18 19  1  0  0  0  0
 18 32  1  0  0  0  0
 19 20  1  0  0  0  0
 19 33  1  0  0  0  0
 19 34  1  0  0  0  0
 20 21  1  0  0  0  0
 20 35  1  0  0  0  0
 20 36  1  0  0  0  0
 21 22  1  0  0  0  0
 21 37  1  0  0  0  0
 21 38  1  0  0  0  0
 22 23  1  0  0  0  0
 22 39  1  0  0  0  0
 22 40  1  0  0  0  0
 23 41  1  0  0  0  0
 23 42  1  0  0  0  0
M  CHG  1   8  -1
M  END
> <s_m_source_file>
AV-unprocessed.smi

> <i_m_source_file_index>
2558

> <i_lp_mmshare_version>
43012

> <i_f3d_flags>
0

> <s_epik_input>
W0NIMl0xW0NIMl1bQ0gyXVtDSDJdW0NIMl1bQ0hdMU4oUyg9TykoPU8pW0NIM10pQyg9TylbTkhdQyg9TylbTkhdYzJbY0hdW2NIXVtjSF1uW2NIXTI=

> <s_epik_cmdline>
J2VwaWtfcHl0aG9uJywgJy1waCcsICc3LjAnLCAnLXRuJywgJzgnLCAnLW1hJywgJzIwMCcsICctbWV0YWxfYmluZGluZycsICctaW1hZScsICc8aW5maWxlLm1hZT4nLCAnLW9tYWUnLCAnPG91dGZpbGUubWFlPic=

> <r_epik_Ionization_Penalty>
6.14208

> <r_epik_Ionization_Penalty_Charging>
6.14039

> <r_epik_Ionization_Penalty_Neutral>
0.00168563

> <r_epik_State_Penalty>
6.14513

> <r_epik_Charging_Adjusted_Penalty>
12.2855

> <i_epik_Tot_Q>
-1

> <i_epik_Tot_abs_Q>
1

> <r_epik_Metal_State_Penalty>
2.09011

> <b_epik_Metal_Only>
1

> <s_lp_Force_Field>
OPLS_2005

> <r_lp_Energy>
23.9967

> <b_lp_Chiralities_Consistent>
1

> <s_lp_Variant>
AV-unprocessed.smi:2558-2

> <Gold.Version>
5.8.1

> <Gold.Id.Protein>
6NUR|6NUR_protein|mol2

> <Gold.PLP.Fitness>
48.0211

> <Gold.PLP.PLP>
-40.4015

> <Gold.PLP.part.hbond>
-3.4525

> <Gold.PLP.part.metal>
0.0000

> <Gold.PLP.part.buried>
-5.3569

> <Gold.PLP.part.nonpolar>
-32.8136

> <Gold.PLP.part.repulsive>
0.2378

> <Gold.PLP.ligand.clash>
0.0000

> <Gold.PLP.ligand.torsion>
2.3457

> <Gold.PLP.Chemscore.Hbond>
2.9680

> <Gold.PLP.Chemscore.CHOScore>
0.0000

> <Gold.PLP.Chemscore.Metal>
0.0000

> <Gold.Chemscore.Hbonds>
donor molecule, donor type, donor heavy atom, donor atom, acceptor molecule, acceptor atom, score
      P1  H  6896  6907       L1    10  0.91
      P1  H  7997  8008       L1     4  1.00
      P1  H 10752 10765       L1     3  0.91

> <Gold.PLP.Chemscore.Internal.Correction>
3.4070

> <Gold.Rescore>
     Score         DG    S(hbond)    S(metal)    S(lipo)     H(rot)  DE(clash)    DE(int)     intcor
     16.60     -22.92       2.75        0.00      92.45       1.00       0.16       6.17       ----

> <Gold.Chemscore.Fitness>
16.5992

> <Gold.Chemscore.DG>
-22.9206

> <Gold.Chemscore.ZeroCoef>
-5.4800

> <Gold.Chemscore.Hbond>
2.7497

> <Gold.Chemscore.Metal>
0.0000

> <Gold.Chemscore.Lipo>
92.4483

> <Gold.Chemscore.Internal_Hbond>
0.0000

> <Gold.Chemscore.DEClash>
0.1553

> <Gold.Chemscore.DEInternal>
6.1661

> <Gold.Chemscore.Rot>
1.0000

> <Gold.Chemscore.Internal.Correction>
   9.000000E+99

> <Gold.Chemscore.Hbonds>
donor molecule, donor type, donor heavy atom, donor atom, acceptor molecule, acceptor atom, score
      P1  H  6896  6907       L1    10  0.75
      P1  H  7997  8008       L1     4  0.94
      P1  H 10752 10765       L1     3  0.87

> <Gold.Chemscore.Hbond.Weighted>
-9.1841

> <Gold.Chemscore.Metal.Weighted>
-0.0000

> <Gold.Chemscore.Lipo.Weighted>
-10.8164

> <Gold.Chemscore.Internal_Hbond.Weighted>
0.0000

> <Gold.Chemscore.DEClash.Weighted>
0.1553

> <Gold.Chemscore.DEInternal.Weighted>
6.1661

> <Gold.Chemscore.Rot.Weighted>
2.5600

> <Gold.Chemscore.Internal.Correction.Weighted>
   9.000000E+99

> <Gold.Protein.RotatedTorsions>
[ 6907 6896 6895 6894 ] final -101.08 input  -60.11 | X-H torsion
[ 7974 7965 7964 7962 ] final   63.76 input  175.53 | X-H torsion
[ 8008 7997 7996 7995 ] final  -13.46 input   59.86 | X-H torsion
[ 10167 10162 10161 10158 ] final  132.59 input  -65.29 | X-H torsion
[ 10718 10713 10712 10709 ] final  -78.39 input   66.30 | X-H torsion
[ 10763 10752 10751 10750 ] final -169.28 input  -60.55 | X-H torsion
[ 11005 11000 10999 10996 ] final  -61.56 input  -57.11 | X-H torsion

> <Gold.Protein.ActiveResidues>
 VAL166  LYS551  ARG553  GLY616  TRP617  ASP618  TYR619  PRO620  LYS621  CYS622 
 ASP623  PHE694  ASN695  SER759  ASP760  ASP761  ALA762  ILE779  LEU786  VAL792 
 PHE793  MET794  SER795  GLU796  ALA797  LYS798  CYS799  TRP800  GLU811  SER814 

> <Gold.Protein.RotatedAtoms>
  150.7141  134.0788  159.3890 H   0  0  0  0  0  0  0  0  0  0  0  0  # atno 6907 bound_to 6896
  151.8772  135.0465  160.0494 H   0  0  0  0  0  0  0  0  0  0  0  0  # atno 6908 bound_to 6896
  152.2597  133.5250  159.5410 H   0  0  0  0  0  0  0  0  0  0  0  0  # atno 6909 bound_to 6896
  145.8581  139.3297  143.0835 H   0  0  0  0  0  0  0  0  0  0  0  0  # atno 7974 bound_to 7965
  154.5291  140.2249  155.8837 H   0  0  0  0  0  0  0  0  0  0  0  0  # atno 8008 bound_to 7997
  156.1744  140.3114  155.8997 H   0  0  0  0  0  0  0  0  0  0  0  0  # atno 8009 bound_to 7997
  155.3489  140.0454  157.3036 H   0  0  0  0  0  0  0  0  0  0  0  0  # atno 8010 bound_to 7997
  139.5333  144.6655  151.4874 H   0  0  0  0  0  0  0  0  0  0  0  0  # atno 10167 bound_to 10162
  156.0119  130.4516  150.3489 H   0  0  0  0  0  0  0  0  0  0  0  0  # atno 10718 bound_to 10713
  154.6539  135.2915  154.9952 H   0  0  0  0  0  0  0  0  0  0  0  0  # atno 10763 bound_to 10752
  154.1035  135.6573  153.4876 H   0  0  0  0  0  0  0  0  0  0  0  0  # atno 10764 bound_to 10752
  153.0392  135.5248  154.7460 H   0  0  0  0  0  0  0  0  0  0  0  0  # atno 10765 bound_to 10752
  141.1329  133.6631  156.5394 H   0  0  0  0  0  0  0  0  0  0  0  0  # atno 11005 bound_to 11000
  145.9279  140.9069  143.0371 LP  0  0  0  0  0  0  0  0  0  0  0  0  # atno 17320 bound_to 7965
  144.6727  140.1379  143.7439 LP  0  0  0  0  0  0  0  0  0  0  0  0  # atno 17321 bound_to 7965
  140.6524  143.8668  150.6800 LP  0  0  0  0  0  0  0  0  0  0  0  0  # atno 17342 bound_to 10162
  140.2037  143.3938  152.1771 LP  0  0  0  0  0  0  0  0  0  0  0  0  # atno 17343 bound_to 10162
  157.1582  131.0338  151.2853 LP  0  0  0  0  0  0  0  0  0  0  0  0  # atno 17370 bound_to 10713
  157.4334  130.7503  149.7009 LP  0  0  0  0  0  0  0  0  0  0  0  0  # atno 17371 bound_to 10713
  140.4152  134.7237  157.4858 LP  0  0  0  0  0  0  0  0  0  0  0  0  # atno 17394 bound_to 11000
  140.0399  134.6283  155.8994 LP  0  0  0  0  0  0  0  0  0  0  0  0  # atno 17395 bound_to 11000

$$$$
