AV-unprocessed.smi:1750|AV-procd|sdf|7055|dock6
  -GOLD-   22720 8273D 1   1.00000     0.00000
 Structure written by MMmdl.
 35 36  0  0  0  0  0  0  0  0  2 V2000
  143.9005  145.4197  153.8801 C   0  0  0  0  0  0  0  0  0  0  0  0
  143.9551  144.9437  155.3357 C   0  0  0  0  0  0  0  0  0  0  0  0
  143.9457  143.4133  155.4562 C   0  0  0  0  0  0  0  0  0  0  0  0
  145.3039  142.8179  155.2906 C   0  0  0  0  0  0  0  0  0  0  0  0
  145.9440  142.1844  156.2768 N   0  0  0  0  0  0  0  0  0  0  0  0
  147.2010  141.7457  155.8870 N   0  0  0  0  0  0  0  0  0  0  0  0
  147.5042  142.0749  154.6232 C   0  0  0  0  0  0  0  0  0  0  0  0
  148.6740  141.7436  154.0520 N   0  5  0  0  0  0  0  0  0  0  0  0
  149.6843  141.2617  154.8111 C   0  0  0  0  0  0  0  0  0  0  0  0
  150.3532  140.2512  154.5815 O   0  0  0  0  0  0  0  0  0  0  0  0
  149.9342  141.9921  155.9057 N   0  0  0  0  0  0  0  0  0  0  0  0
  150.9597  141.6975  156.8979 C   0  0  0  0  0  0  0  0  0  0  0  0
  150.9821  142.7774  157.9882 C   0  0  1  0  0  0  0  0  0  0  0  0
  151.9247  142.4645  159.1497 C   0  0  0  0  0  0  0  0  0  0  0  0
  152.3099  143.8362  159.6847 C   0  0  0  0  0  0  0  0  0  0  0  0
  151.8119  144.8105  158.6140 C   0  0  0  0  0  0  0  0  0  0  0  0
  151.5114  143.9962  157.4904 O   0  0  0  0  0  0  0  0  0  0  0  0
  146.2176  142.9535  153.7978 S   0  0  0  0  0  0  0  0  0  0  0  0
  143.8990  146.5086  153.8275 H   0  0  0  0  0  0  0  0  0  0  0  0
  142.9993  145.0610  153.3819 H   0  0  0  0  0  0  0  0  0  0  0  0
  144.7619  145.0603  153.3165 H   0  0  0  0  0  0  0  0  0  0  0  0
  144.8533  145.3419  155.8093 H   0  0  0  0  0  0  0  0  0  0  0  0
  143.1075  145.3583  155.8828 H   0  0  0  0  0  0  0  0  0  0  0  0
  143.5480  143.1155  156.4273 H   0  0  0  0  0  0  0  0  0  0  0  0
  143.2854  142.9820  154.7033 H   0  0  0  0  0  0  0  0  0  0  0  0
  149.3713  142.8160  156.0587 H   0  0  0  0  0  0  0  0  0  0  0  0
  150.7555  140.7272  157.3532 H   0  0  0  0  0  0  0  0  0  0  0  0
  151.9313  141.6267  156.4068 H   0  0  0  0  0  0  0  0  0  0  0  0
  149.9744  142.9550  158.3698 H   0  0  0  0  0  0  0  0  0  0  0  0
  151.4598  141.8293  159.9043 H   0  0  0  0  0  0  0  0  0  0  0  0
  152.8168  141.9534  158.7851 H   0  0  0  0  0  0  0  0  0  0  0  0
  151.8404  144.0434  160.6468 H   0  0  0  0  0  0  0  0  0  0  0  0
  153.3902  143.9065  159.8161 H   0  0  0  0  0  0  0  0  0  0  0  0
  150.9017  145.3122  158.9456 H   0  0  0  0  0  0  0  0  0  0  0  0
  152.5495  145.5735  158.3643 H   0  0  0  0  0  0  0  0  0  0  0  0
  1  2  1  0  0  0  0
  1 19  1  0  0  0  0
  1 20  1  0  0  0  0
  1 21  1  0  0  0  0
  2  3  1  0  0  0  0
  2 22  1  0  0  0  0
  2 23  1  0  0  0  0
  3  4  1  0  0  0  0
  3 24  1  0  0  0  0
  3 25  1  0  0  0  0
  4 18  1  0  0  0  0
  4  5  2  0  0  0  0
  5  6  1  0  0  0  0
  6  7  2  0  0  0  0
  7  8  1  0  0  0  0
  7 18  1  0  0  0  0
  8  9  1  0  0  0  0
  9 10  2  0  0  0  0
  9 11  1  0  0  0  0
 11 12  1  0  0  0  0
 11 26  1  0  0  0  0
 12 13  1  0  0  0  0
 12 27  1  0  0  0  0
 12 28  1  0  0  0  0
 13 17  1  0  0  0  0
 13 14  1  0  0  0  0
 13 29  1  0  0  0  0
 14 15  1  0  0  0  0
 14 30  1  0  0  0  0
 14 31  1  0  0  0  0
 15 16  1  0  0  0  0
 15 32  1  0  0  0  0
 15 33  1  0  0  0  0
 16 17  1  0  0  0  0
 16 34  1  0  0  0  0
 16 35  1  0  0  0  0
M  CHG  1   8  -1
M  END
> <s_m_source_file>
AV-unprocessed.smi

> <i_m_source_file_index>
1750

> <i_lp_mmshare_version>
43012

> <i_f3d_flags>
0

> <s_epik_input>
W0NIM11bQ0gyXVtDSDJdYzFubmMoczEpW05IXUMoPU8pW05IXVtDSDJdW0NAQEhdMltDSDJdW0NIMl1bQ0gyXU8y

> <s_epik_cmdline>
J2VwaWtfcHl0aG9uJywgJy1waCcsICc3LjAnLCAnLXRuJywgJzgnLCAnLW1hJywgJzIwMCcsICctbWV0YWxfYmluZGluZycsICctaW1hZScsICc8aW5maWxlLm1hZT4nLCAnLW9tYWUnLCAnPG91dGZpbGUubWFlPic=

> <r_lp_tautomer_probability>
1

> <r_epik_Ionization_Penalty>
4.22484

> <r_epik_Ionization_Penalty_Charging>
4.21437

> <r_epik_Ionization_Penalty_Neutral>
0.0104685

> <r_epik_State_Penalty>
4.21389

> <r_epik_Charging_Adjusted_Penalty>
8.42826

> <i_epik_Tot_Q>
-1

> <i_epik_Tot_abs_Q>
1

> <r_epik_Metal_State_Penalty>
0.69377

> <b_epik_Metal_Only>
1

> <s_lp_Force_Field>
OPLS_2005

> <r_lp_Energy>
10.9062

> <b_lp_Chiralities_Consistent>
1

> <s_lp_Variant>
AV-unprocessed.smi:1750-4

> <Gold.Version>
5.8.1

> <Gold.Id.Protein>
6NUR|6NUR_protein|mol2

> <Gold.PLP.Fitness>
44.4468

> <Gold.PLP.PLP>
-38.4407

> <Gold.PLP.part.hbond>
-3.0000

> <Gold.PLP.part.metal>
0.0000

> <Gold.PLP.part.buried>
-5.5670

> <Gold.PLP.part.nonpolar>
-30.2060

> <Gold.PLP.part.repulsive>
0.7661

> <Gold.PLP.ligand.clash>
0.0400

> <Gold.PLP.ligand.torsion>
0.6436

> <Gold.PLP.Chemscore.Hbond>
2.4186

> <Gold.PLP.Chemscore.CHOScore>
0.0000

> <Gold.PLP.Chemscore.Metal>
0.0000

> <Gold.Chemscore.Hbonds>
donor molecule, donor type, donor heavy atom, donor atom, acceptor molecule, acceptor atom, score
      L1  H    11    26       P1  8028  1.00
      P1  H  7989  7998       L1    10  1.00
      P1  H  8011  8017       L1     8  0.38

> <Gold.PLP.Chemscore.Internal.Correction>
0.0776

> <Gold.Rescore>
     Score         DG    S(hbond)    S(metal)    S(lipo)     H(rot)  DE(clash)    DE(int)     intcor
     15.23     -15.99       1.69        0.00      76.29       1.59       0.05       0.71       ----

> <Gold.Chemscore.Fitness>
15.2280

> <Gold.Chemscore.DG>
-15.9877

> <Gold.Chemscore.ZeroCoef>
-5.4800

> <Gold.Chemscore.Hbond>
1.6939

> <Gold.Chemscore.Metal>
0.0000

> <Gold.Chemscore.Lipo>
76.2923

> <Gold.Chemscore.Internal_Hbond>
0.0000

> <Gold.Chemscore.DEClash>
0.0522

> <Gold.Chemscore.DEInternal>
0.7075

> <Gold.Chemscore.Rot>
1.5922

> <Gold.Chemscore.Internal.Correction>
   9.000000E+99

> <Gold.Chemscore.Hbonds>
donor molecule, donor type, donor heavy atom, donor atom, acceptor molecule, acceptor atom, score
      L1  H    11    26       P1  8028  0.92
      P1  H  7989  7998       L1    10  0.34
      P1  H  8011  8017       L1     8  0.10

> <Gold.Chemscore.Hbond.Weighted>
-5.6576

> <Gold.Chemscore.Metal.Weighted>
-0.0000

> <Gold.Chemscore.Lipo.Weighted>
-8.9262

> <Gold.Chemscore.Internal_Hbond.Weighted>
0.0000

> <Gold.Chemscore.DEClash.Weighted>
0.0522

> <Gold.Chemscore.DEInternal.Weighted>
0.7075

> <Gold.Chemscore.Rot.Weighted>
4.0761

> <Gold.Chemscore.Internal.Correction.Weighted>
   9.000000E+99

> <Gold.Protein.RotatedTorsions>
[ 6907 6896 6895 6894 ] final   -7.13 input  -60.11 | X-H torsion
[ 7974 7965 7964 7962 ] final  -79.93 input  175.53 | X-H torsion
[ 8008 7997 7996 7995 ] final  -96.63 input   59.86 | X-H torsion
[ 10167 10162 10161 10158 ] final   42.54 input  -65.29 | X-H torsion
[ 10718 10713 10712 10709 ] final   30.17 input   66.30 | X-H torsion
[ 10763 10752 10751 10750 ] final -160.01 input  -60.55 | X-H torsion
[ 11005 11000 10999 10996 ] final  106.45 input  -57.11 | X-H torsion

> <Gold.Protein.ActiveResidues>
 VAL166  LYS551  ARG553  GLY616  TRP617  ASP618  TYR619  PRO620  LYS621  CYS622 
 ASP623  PHE694  ASN695  SER759  ASP760  ASP761  ALA762  ILE779  LEU786  VAL792 
 PHE793  MET794  SER795  GLU796  ALA797  LYS798  CYS799  TRP800  GLU811  SER814 

> <Gold.Protein.RotatedAtoms>
  151.4546  135.1033  159.9707 H   0  0  0  0  0  0  0  0  0  0  0  0  # atno 6907 bound_to 6896
  152.4876  133.8409  159.7162 H   0  0  0  0  0  0  0  0  0  0  0  0  # atno 6908 bound_to 6896
  150.8999  133.7073  159.2909 H   0  0  0  0  0  0  0  0  0  0  0  0  # atno 6909 bound_to 6896
  145.5667  140.9473  143.1418 H   0  0  0  0  0  0  0  0  0  0  0  0  # atno 7974 bound_to 7965
  154.7770  140.0470  157.1097 H   0  0  0  0  0  0  0  0  0  0  0  0  # atno 8008 bound_to 7997
  154.9750  140.3094  155.4951 H   0  0  0  0  0  0  0  0  0  0  0  0  # atno 8009 bound_to 7997
  156.2930  140.2246  156.4846 H   0  0  0  0  0  0  0  0  0  0  0  0  # atno 8010 bound_to 7997
  140.3534  144.2321  150.6144 H   0  0  0  0  0  0  0  0  0  0  0  0  # atno 10167 bound_to 10162
  157.2561  130.7138  149.6430 H   0  0  0  0  0  0  0  0  0  0  0  0  # atno 10718 bound_to 10713
  154.7427  135.3072  154.8700 H   0  0  0  0  0  0  0  0  0  0  0  0  # atno 10763 bound_to 10752
  153.9510  135.6764  153.4748 H   0  0  0  0  0  0  0  0  0  0  0  0  # atno 10764 bound_to 10752
  153.1025  135.4905  154.8817 H   0  0  0  0  0  0  0  0  0  0  0  0  # atno 10765 bound_to 10752
  139.8814  134.9369  156.5668 H   0  0  0  0  0  0  0  0  0  0  0  0  # atno 11005 bound_to 11000
  144.7457  139.7327  143.7293 LP  0  0  0  0  0  0  0  0  0  0  0  0  # atno 17320 bound_to 7965
  146.1813  139.5007  142.9865 LP  0  0  0  0  0  0  0  0  0  0  0  0  # atno 17321 bound_to 7965
  140.5197  143.2269  151.8408 LP  0  0  0  0  0  0  0  0  0  0  0  0  # atno 17342 bound_to 10162
  139.4823  144.4851  151.9257 LP  0  0  0  0  0  0  0  0  0  0  0  0  # atno 17343 bound_to 10162
  155.9665  130.4412  150.5331 LP  0  0  0  0  0  0  0  0  0  0  0  0  # atno 17370 bound_to 10713
  157.3226  131.0684  151.1921 LP  0  0  0  0  0  0  0  0  0  0  0  0  # atno 17371 bound_to 10713
  140.8128  133.8415  155.8825 LP  0  0  0  0  0  0  0  0  0  0  0  0  # atno 17394 bound_to 11000
  140.9490  134.1803  157.4742 LP  0  0  0  0  0  0  0  0  0  0  0  0  # atno 17395 bound_to 11000

$$$$
