AV-unprocessed.smi:544|AV-procd|sdf|2877|dock6
  -GOLD-   2262023373D 1   1.00000     0.00000
 Structure written by MMmdl.
 49 51  0  0  0  0  0  0  0  0  1 V2000
  146.3022  142.2285  154.2470 C   0  0  0  0  0  0  0  0  0  0  0  0
  147.4224  141.5864  153.4260 C   0  0  0  0  0  0  0  0  0  0  0  0
  148.6634  142.0998  153.8752 O   0  0  0  0  0  0  0  0  0  0  0  0
  149.1668  141.4215  155.0124 C   0  0  0  0  0  0  0  0  0  0  0  0
  150.4866  142.0683  155.4593 C   0  0  0  0  0  0  0  0  0  0  0  0
  151.1491  141.3139  156.5199 N   0  0  0  0  0  0  0  0  0  0  0  0
  151.5191  141.7414  157.7549 C   0  0  0  0  0  0  0  0  0  0  0  0
  151.2833  143.0491  158.1643 N   0  0  0  0  0  0  0  0  0  0  0  0
  152.2069  144.1594  157.9526 C   0  0  0  0  0  0  0  0  0  0  0  0
  152.4194  144.9663  159.2439 C   0  0  0  0  0  0  0  0  0  0  0  0
  151.0778  145.4884  159.7771 C   0  0  0  0  0  0  0  0  0  0  0  0
  150.0707  144.3324  159.9157 C   0  0  1  0  0  0  0  0  0  0  0  0
  148.6918  144.8354  160.3632 C   0  0  0  0  0  0  0  0  0  0  0  0
  149.9791  143.5470  158.5913 C   0  0  0  0  0  0  0  0  0  0  0  0
  152.1289  140.8252  158.5106 N   0  0  0  0  0  0  0  0  0  0  0  0
  152.1446  139.7097  157.6853 C   0  0  0  0  0  0  0  0  0  0  0  0
  151.5694  139.9851  156.4867 C   0  0  0  0  0  0  0  0  0  0  0  0
  151.4689  138.9907  155.4118 C   0  0  0  0  0  0  0  0  0  0  0  0
  150.9555  139.2236  154.3196 O   0  0  0  0  0  0  0  0  0  0  0  0
  152.0070  137.7925  155.7458 N   0  0  0  0  0  0  0  0  0  0  0  0
  152.6023  137.4490  156.9290 C   0  0  0  0  0  0  0  0  0  0  0  0
  153.0615  136.3170  157.0794 O   0  0  0  0  0  0  0  0  0  0  0  0
  152.6638  138.4033  157.9128 N   0  0  0  0  0  0  0  0  0  0  0  0
  153.2866  138.0953  159.2015 C   0  0  0  0  0  0  0  0  0  0  0  0
  151.9690  137.0726  155.0392 H   0  0  0  0  0  0  0  0  0  0  0  0
  145.3266  141.8583  153.9319 H   0  0  0  0  0  0  0  0  0  0  0  0
  146.3040  143.3125  154.1301 H   0  0  0  0  0  0  0  0  0  0  0  0
  146.4187  142.0056  155.3078 H   0  0  0  0  0  0  0  0  0  0  0  0
  147.3973  140.5024  153.5438 H   0  0  0  0  0  0  0  0  0  0  0  0
  147.2837  141.8094  152.3673 H   0  0  0  0  0  0  0  0  0  0  0  0
  148.4324  141.4600  155.8176 H   0  0  0  0  0  0  0  0  0  0  0  0
  149.3353  140.3698  154.7767 H   0  0  0  0  0  0  0  0  0  0  0  0
  151.1691  142.1598  154.6146 H   0  0  0  0  0  0  0  0  0  0  0  0
  150.3007  143.0864  155.7989 H   0  0  0  0  0  0  0  0  0  0  0  0
  153.1594  143.7783  157.5850 H   0  0  0  0  0  0  0  0  0  0  0  0
  151.8121  144.8053  157.1673 H   0  0  0  0  0  0  0  0  0  0  0  0
  152.8966  144.3386  159.9973 H   0  0  0  0  0  0  0  0  0  0  0  0
  153.0991  145.7982  159.0578 H   0  0  0  0  0  0  0  0  0  0  0  0
  151.2239  145.9848  160.7369 H   0  0  0  0  0  0  0  0  0  0  0  0
  150.6845  146.2409  159.0920 H   0  0  0  0  0  0  0  0  0  0  0  0
  150.4391  143.6537  160.6862 H   0  0  0  0  0  0  0  0  0  0  0  0
  148.2630  145.5197  159.6306 H   0  0  0  0  0  0  0  0  0  0  0  0
  148.7559  145.3625  161.3155 H   0  0  0  0  0  0  0  0  0  0  0  0
  147.9954  144.0064  160.4912 H   0  0  0  0  0  0  0  0  0  0  0  0
  149.5620  144.1753  157.8033 H   0  0  0  0  0  0  0  0  0  0  0  0
  149.2983  142.7029  158.7086 H   0  0  0  0  0  0  0  0  0  0  0  0
  152.9463  137.1328  159.5861 H   0  0  0  0  0  0  0  0  0  0  0  0
  153.0521  138.8397  159.9620 H   0  0  0  0  0  0  0  0  0  0  0  0
  154.3712  138.0566  159.0961 H   0  0  0  0  0  0  0  0  0  0  0  0
  1  2  1  0  0  0  0
  1 26  1  0  0  0  0
  1 27  1  0  0  0  0
  1 28  1  0  0  0  0
  2  3  1  0  0  0  0
  2 29  1  0  0  0  0
  2 30  1  0  0  0  0
  3  4  1  0  0  0  0
  4  5  1  0  0  0  0
  4 31  1  0  0  0  0
  4 32  1  0  0  0  0
  5  6  1  0  0  0  0
  5 33  1  0  0  0  0
  5 34  1  0  0  0  0
  6 17  1  0  0  0  0
  6  7  1  0  0  0  0
  7  8  1  0  0  0  0
  7 15  2  0  0  0  0
  8 14  1  0  0  0  0
  8  9  1  0  0  0  0
  9 10  1  0  0  0  0
  9 35  1  0  0  0  0
  9 36  1  0  0  0  0
 10 11  1  0  0  0  0
 10 37  1  0  0  0  0
 10 38  1  0  0  0  0
 11 12  1  0  0  0  0
 11 39  1  0  0  0  0
 11 40  1  0  0  0  0
 12 13  1  0  0  0  0
 12 14  1  0  0  0  0
 12 41  1  0  0  0  0
 13 42  1  0  0  0  0
 13 43  1  0  0  0  0
 13 44  1  0  0  0  0
 14 45  1  0  0  0  0
 14 46  1  0  0  0  0
 15 16  1  0  0  0  0
 16 23  1  0  0  0  0
 16 17  2  0  0  0  0
 17 18  1  0  0  0  0
 18 19  2  0  0  0  0
 18 20  1  0  0  0  0
 20 25  1  0  0  0  0
 20 21  1  0  0  0  0
 21 22  2  0  0  0  0
 21 23  1  0  0  0  0
 23 24  1  0  0  0  0
 24 47  1  0  0  0  0
 24 48  1  0  0  0  0
 24 49  1  0  0  0  0
M  END
> <s_m_source_file>
AV-unprocessed.smi

> <i_m_source_file_index>
544

> <i_lp_mmshare_version>
43012

> <i_f3d_flags>
0

> <s_epik_input>
W0NIM11uMWMoPU8pW25IXWMoPU8pYyhjMTIpbihbQ0gyXVtDSDJdT1tDSDJdW0NIM10pYyhuMilOM1tDSDJdW0NIMl1bQ0gyXVtDQEBIXShbQ0gzXSlbQ0gyXTM=

> <s_epik_cmdline>
J2VwaWtfcHl0aG9uJywgJy1waCcsICc3LjAnLCAnLXRuJywgJzgnLCAnLW1hJywgJzIwMCcsICctbWV0YWxfYmluZGluZycsICctaW1hZScsICc8aW5maWxlLm1hZT4nLCAnLW9tYWUnLCAnPG91dGZpbGUubWFlPic=

> <r_lp_tautomer_probability>
1

> <r_epik_Ionization_Penalty>
0.000382477

> <r_epik_Ionization_Penalty_Charging>
0.000119472

> <r_epik_Ionization_Penalty_Neutral>
0.000263005

> <r_epik_State_Penalty>
-0

> <r_epik_Charging_Adjusted_Penalty>
0.000119472

> <i_epik_Tot_Q>
0

> <i_epik_Tot_abs_Q>
0

> <r_epik_Metal_State_Penalty>
0.0919313

> <b_epik_Metal_Only>
0

> <s_lp_Force_Field>
OPLS_2005

> <r_lp_Energy>
37.8306

> <b_lp_Chiralities_Consistent>
1

> <s_lp_Variant>
AV-unprocessed.smi:544-1

> <Gold.Version>
5.8.1

> <Gold.Id.Protein>
6NUR|6NUR_protein|mol2

> <Gold.PLP.Fitness>
49.7510

> <Gold.PLP.PLP>
-44.6663

> <Gold.PLP.part.hbond>
-3.0000

> <Gold.PLP.part.metal>
0.0000

> <Gold.PLP.part.buried>
-6.3254

> <Gold.PLP.part.nonpolar>
-35.3957

> <Gold.PLP.part.repulsive>
0.4831

> <Gold.PLP.ligand.clash>
0.0000

> <Gold.PLP.ligand.torsion>
1.6072

> <Gold.PLP.Chemscore.Hbond>
2.4441

> <Gold.PLP.Chemscore.CHOScore>
0.0000

> <Gold.PLP.Chemscore.Metal>
0.0000

> <Gold.Chemscore.Hbonds>
donor molecule, donor type, donor heavy atom, donor atom, acceptor molecule, acceptor atom, score
      P1  H  7989  7998       L1    19  1.00
      P1  H  8011  8017       L1     3  0.37
      P1  H 10752 10764       L1    22  0.98

> <Gold.PLP.Chemscore.Internal.Correction>
0.9668

> <Gold.Rescore>
     Score         DG    S(hbond)    S(metal)    S(lipo)     H(rot)  DE(clash)    DE(int)     intcor
     17.13     -19.14       1.98        0.00      94.84       1.58       0.37       1.64       ----

> <Gold.Chemscore.Fitness>
17.1274

> <Gold.Chemscore.DG>
-19.1370

> <Gold.Chemscore.ZeroCoef>
-5.4800

> <Gold.Chemscore.Hbond>
1.9781

> <Gold.Chemscore.Metal>
0.0000

> <Gold.Chemscore.Lipo>
94.8408

> <Gold.Chemscore.Internal_Hbond>
0.0000

> <Gold.Chemscore.DEClash>
0.3678

> <Gold.Chemscore.DEInternal>
1.6419

> <Gold.Chemscore.Rot>
1.5806

> <Gold.Chemscore.Internal.Correction>
   9.000000E+99

> <Gold.Chemscore.Hbonds>
donor molecule, donor type, donor heavy atom, donor atom, acceptor molecule, acceptor atom, score
      P1  H  7989  7998       L1    19  0.84
      P1  H  8011  8017       L1     3  0.26
      P1  H 10752 10764       L1    22  0.85

> <Gold.Chemscore.Hbond.Weighted>
-6.6069

> <Gold.Chemscore.Metal.Weighted>
-0.0000

> <Gold.Chemscore.Lipo.Weighted>
-11.0964

> <Gold.Chemscore.Internal_Hbond.Weighted>
0.0000

> <Gold.Chemscore.DEClash.Weighted>
0.3678

> <Gold.Chemscore.DEInternal.Weighted>
1.6419

> <Gold.Chemscore.Rot.Weighted>
4.0463

> <Gold.Chemscore.Internal.Correction.Weighted>
   9.000000E+99

> <Gold.Protein.RotatedTorsions>
[ 6907 6896 6895 6894 ] final -118.22 input  -60.11 | X-H torsion
[ 7974 7965 7964 7962 ] final -105.90 input  175.53 | X-H torsion
[ 8008 7997 7996 7995 ] final   70.67 input   59.86 | X-H torsion
[ 10167 10162 10161 10158 ] final   43.69 input  -65.29 | X-H torsion
[ 10718 10713 10712 10709 ] final -140.78 input   66.30 | X-H torsion
[ 10763 10752 10751 10750 ] final    5.04 input  -60.55 | X-H torsion
[ 11005 11000 10999 10996 ] final   81.86 input  -57.11 | X-H torsion

> <Gold.Protein.ActiveResidues>
 VAL166  LYS551  ARG553  GLY616  TRP617  ASP618  TYR619  PRO620  LYS621  CYS622 
 ASP623  PHE694  ASN695  SER759  ASP760  ASP761  ALA762  ILE779  LEU786  VAL792 
 PHE793  MET794  SER795  GLU796  ALA797  LYS798  CYS799  TRP800  GLU811  SER814 

> <Gold.Protein.RotatedAtoms>
  150.8202  133.8267  159.3142 H   0  0  0  0  0  0  0  0  0  0  0  0  # atno 6907 bound_to 6896
  151.6027  135.1044  160.0073 H   0  0  0  0  0  0  0  0  0  0  0  0  # atno 6908 bound_to 6896
  152.4291  133.7205  159.6587 H   0  0  0  0  0  0  0  0  0  0  0  0  # atno 6909 bound_to 6896
  145.2247  140.9148  143.3239 H   0  0  0  0  0  0  0  0  0  0  0  0  # atno 7974 bound_to 7965
  155.7423  140.3490  155.5110 H   0  0  0  0  0  0  0  0  0  0  0  0  # atno 8008 bound_to 7997
  155.9082  140.1046  157.1320 H   0  0  0  0  0  0  0  0  0  0  0  0  # atno 8009 bound_to 7997
  154.4052  140.1273  156.4510 H   0  0  0  0  0  0  0  0  0  0  0  0  # atno 8010 bound_to 7997
  140.3419  144.2460  150.6155 H   0  0  0  0  0  0  0  0  0  0  0  0  # atno 10167 bound_to 10162
  156.3263  130.7562  151.1670 H   0  0  0  0  0  0  0  0  0  0  0  0  # atno 10718 bound_to 10713
  153.2641  135.6926  153.7548 H   0  0  0  0  0  0  0  0  0  0  0  0  # atno 10763 bound_to 10752
  153.6596  135.3362  155.3124 H   0  0  0  0  0  0  0  0  0  0  0  0  # atno 10764 bound_to 10752
  154.8441  135.4474  154.1641 H   0  0  0  0  0  0  0  0  0  0  0  0  # atno 10765 bound_to 10752
  139.9083  134.8028  156.2097 H   0  0  0  0  0  0  0  0  0  0  0  0  # atno 11005 bound_to 11000
  144.9733  139.3858  143.6298 LP  0  0  0  0  0  0  0  0  0  0  0  0  # atno 17320 bound_to 7965
  146.3367  139.8840  142.8819 LP  0  0  0  0  0  0  0  0  0  0  0  0  # atno 17321 bound_to 7965
  140.5301  143.2245  151.8252 LP  0  0  0  0  0  0  0  0  0  0  0  0  # atno 17342 bound_to 10162
  139.4839  144.4731  151.9401 LP  0  0  0  0  0  0  0  0  0  0  0  0  # atno 17343 bound_to 10162
  157.7422  131.0493  150.5043 LP  0  0  0  0  0  0  0  0  0  0  0  0  # atno 17370 bound_to 10713
  156.5203  130.4160  149.6254 LP  0  0  0  0  0  0  0  0  0  0  0  0  # atno 17371 bound_to 10713
  141.0473  133.6907  156.1706 LP  0  0  0  0  0  0  0  0  0  0  0  0  # atno 17394 bound_to 11000
  140.6864  134.4712  157.5589 LP  0  0  0  0  0  0  0  0  0  0  0  0  # atno 17395 bound_to 11000

$$$$
