AV-unprocessed.smi:1755|AV-procd|sdf|7070|dock2
  -GOLD-   22720 8293D 1   1.00000     0.00000
 Structure written by MMmdl.
 46 47  0  0  0  0  0  0  0  0  2 V2000
  143.5048  132.4149  149.2132 C   0  0  0  0  0  0  0  0  0  0  0  0
  144.5159  132.9408  150.1888 C   0  0  0  0  0  0  0  0  0  0  0  0
  144.8606  134.2991  150.4485 C   0  0  0  0  0  0  0  0  0  0  0  0
  145.8211  134.1861  151.4164 C   0  0  0  0  0  0  0  0  0  0  0  0
  146.5104  135.1681  152.0561 N   0  0  0  0  0  0  0  0  0  0  0  0
  146.2234  135.7705  153.2232 C   0  0  0  0  0  0  0  0  0  0  0  0
  145.2229  135.5599  153.9084 O   0  0  0  0  0  0  0  0  0  0  0  0
  147.1783  136.6486  153.5625 N   0  0  0  0  0  0  0  0  0  0  0  0
  147.1791  137.4777  154.7679 C   0  0  0  0  0  0  0  0  0  0  0  0
  148.4649  138.3512  154.9217 C   0  0  0  0  0  0  0  0  0  0  0  0
  149.6719  137.5328  154.5400 N   0  3  0  0  0  0  0  0  0  0  0  0
  149.9170  136.2985  155.3279 C   0  0  0  0  0  0  0  0  0  0  0  0
  150.9232  138.3203  154.3988 C   0  0  0  0  0  0  0  0  0  0  0  0
  148.3231  139.6428  154.0879 C   0  0  0  0  0  0  0  0  0  0  0  0
  147.4417  140.5923  154.9136 C   0  0  0  0  0  0  0  0  0  0  0  0
  147.5207  140.1002  156.3654 C   0  0  0  0  0  0  0  0  0  0  0  0
  148.5304  138.9480  156.3522 C   0  0  0  0  0  0  0  0  0  0  0  0
  146.0151  132.8520  151.6970 N   0  0  0  0  0  0  0  0  0  0  0  0
  146.9209  132.2320  152.6443 C   0  0  0  0  0  0  0  0  0  0  0  0
  145.2067  132.0854  150.9342 N   0  0  0  0  0  0  0  0  0  0  0  0
  143.0099  133.2282  148.6818 H   0  0  0  0  0  0  0  0  0  0  0  0
  142.7344  131.8343  149.7212 H   0  0  0  0  0  0  0  0  0  0  0  0
  143.9742  131.7705  148.4696 H   0  0  0  0  0  0  0  0  0  0  0  0
  144.4564  135.1895  149.9911 H   0  0  0  0  0  0  0  0  0  0  0  0
  147.3559  135.4679  151.5939 H   0  0  0  0  0  0  0  0  0  0  0  0
  147.9540  136.7692  152.9278 H   0  0  0  0  0  0  0  0  0  0  0  0
  146.2966  138.1137  154.7094 H   0  0  0  0  0  0  0  0  0  0  0  0
  147.0044  136.8609  155.6501 H   0  0  0  0  0  0  0  0  0  0  0  0
  149.9966  136.5107  156.3943 H   0  0  0  0  0  0  0  0  0  0  0  0
  150.8445  135.8180  155.0152 H   0  0  0  0  0  0  0  0  0  0  0  0
  149.1285  135.5632  155.1688 H   0  0  0  0  0  0  0  0  0  0  0  0
  151.2814  138.6749  155.3657 H   0  0  0  0  0  0  0  0  0  0  0  0
  150.7973  139.1810  153.7440 H   0  0  0  0  0  0  0  0  0  0  0  0
  151.7101  137.7059  153.9604 H   0  0  0  0  0  0  0  0  0  0  0  0
  149.2979  140.1116  153.9491 H   0  0  0  0  0  0  0  0  0  0  0  0
  147.9109  139.4671  153.0935 H   0  0  0  0  0  0  0  0  0  0  0  0
  147.7803  141.6245  154.8177 H   0  0  0  0  0  0  0  0  0  0  0  0
  146.4089  140.5560  154.5648 H   0  0  0  0  0  0  0  0  0  0  0  0
  147.8231  140.8927  157.0508 H   0  0  0  0  0  0  0  0  0  0  0  0
  146.5436  139.7447  156.6950 H   0  0  0  0  0  0  0  0  0  0  0  0
  148.3512  138.2212  157.1432 H   0  0  0  0  0  0  0  0  0  0  0  0
  149.4960  139.4054  156.5610 H   0  0  0  0  0  0  0  0  0  0  0  0
  146.7481  132.6425  153.6397 H   0  0  0  0  0  0  0  0  0  0  0  0
  147.9512  132.4326  152.3491 H   0  0  0  0  0  0  0  0  0  0  0  0
  146.7648  131.1526  152.6757 H   0  0  0  0  0  0  0  0  0  0  0  0
  149.4642  137.1961  153.6108 H   0  0  0  0  0  0  0  0  0  0  0  0
  1  2  1  0  0  0  0
  1 21  1  0  0  0  0
  1 22  1  0  0  0  0
  1 23  1  0  0  0  0
  2 20  2  0  0  0  0
  2  3  1  0  0  0  0
  3  4  2  0  0  0  0
  3 24  1  0  0  0  0
  4  5  1  0  0  0  0
  4 18  1  0  0  0  0
  5  6  1  0  0  0  0
  5 25  1  0  0  0  0
  6  7  2  0  0  0  0
  6  8  1  0  0  0  0
  8  9  1  0  0  0  0
  8 26  1  0  0  0  0
  9 10  1  0  0  0  0
  9 27  1  0  0  0  0
  9 28  1  0  0  0  0
 10 17  1  0  0  0  0
 10 11  1  0  0  0  0
 10 14  1  0  0  0  0
 11 12  1  0  0  0  0
 11 13  1  0  0  0  0
 11 46  1  0  0  0  0
 12 29  1  0  0  0  0
 12 30  1  0  0  0  0
 12 31  1  0  0  0  0
 13 32  1  0  0  0  0
 13 33  1  0  0  0  0
 13 34  1  0  0  0  0
 14 15  1  0  0  0  0
 14 35  1  0  0  0  0
 14 36  1  0  0  0  0
 15 16  1  0  0  0  0
 15 37  1  0  0  0  0
 15 38  1  0  0  0  0
 16 17  1  0  0  0  0
 16 39  1  0  0  0  0
 16 40  1  0  0  0  0
 17 41  1  0  0  0  0
 17 42  1  0  0  0  0
 18 19  1  0  0  0  0
 18 20  1  0  0  0  0
 19 43  1  0  0  0  0
 19 44  1  0  0  0  0
 19 45  1  0  0  0  0
M  CHG  1  11   1
M  END
> <s_m_source_file>
AV-unprocessed.smi

> <i_m_source_file_index>
1755

> <i_lp_mmshare_version>
43012

> <i_f3d_flags>
0

> <s_epik_input>
W0NIM11jMVtjSF1jKG4objEpW0NIM10pW05IXUMoPU8pW05IXVtDSDJdQzIoTihbQ0gzXSlbQ0gzXSlbQ0gyXVtDSDJdW0NIMl1bQ0gyXTI=

> <s_epik_cmdline>
J2VwaWtfcHl0aG9uJywgJy1waCcsICc3LjAnLCAnLXRuJywgJzgnLCAnLW1hJywgJzIwMCcsICctbWV0YWxfYmluZGluZycsICctaW1hZScsICc8aW5maWxlLm1hZT4nLCAnLW9tYWUnLCAnPG91dGZpbGUubWFlPic=

> <r_lp_tautomer_probability>
1

> <r_epik_Ionization_Penalty>
0.00248705

> <r_epik_Ionization_Penalty_Charging>
0.00240703

> <r_epik_Ionization_Penalty_Neutral>
8.00151e-05

> <r_epik_State_Penalty>
0.00166499

> <r_epik_Charging_Adjusted_Penalty>
0.00407202

> <i_epik_Tot_Q>
1

> <i_epik_Tot_abs_Q>
1

> <r_epik_Metal_State_Penalty>
-0

> <b_epik_Metal_Only>
0

> <s_lp_Force_Field>
OPLS_2005

> <r_lp_Energy>
45.253

> <b_lp_Chiralities_Consistent>
1

> <s_lp_Variant>
AV-unprocessed.smi:1755-1

> <Gold.Version>
5.8.1

> <Gold.Id.Protein>
6NUR|6NUR_protein|mol2

> <Gold.PLP.Fitness>
35.3970

> <Gold.PLP.PLP>
-25.6525

> <Gold.PLP.part.hbond>
-2.8567

> <Gold.PLP.part.metal>
0.0000

> <Gold.PLP.part.buried>
-2.2382

> <Gold.PLP.part.nonpolar>
-21.4056

> <Gold.PLP.part.repulsive>
0.1995

> <Gold.PLP.ligand.clash>
0.0000

> <Gold.PLP.ligand.torsion>
1.0830

> <Gold.PLP.Chemscore.Hbond>
3.9120

> <Gold.PLP.Chemscore.CHOScore>
0.0000

> <Gold.PLP.Chemscore.Metal>
0.0000

> <Gold.Chemscore.Hbonds>
donor molecule, donor type, donor heavy atom, donor atom, acceptor molecule, acceptor atom, score
      L1  H     5    25       P1  7948  0.91
      L1  H     8    26       P1  7948  1.00
      L1  H    11    46       P1  7948  1.98

> <Gold.PLP.Chemscore.Internal.Correction>
0.1745

> <Gold.Rescore>
     Score         DG    S(hbond)    S(metal)    S(lipo)     H(rot)  DE(clash)    DE(int)     intcor
     17.05     -18.24       2.80        0.00      61.52       1.49       0.04       1.15       ----

> <Gold.Chemscore.Fitness>
17.0456

> <Gold.Chemscore.DG>
-18.2366

> <Gold.Chemscore.ZeroCoef>
-5.4800

> <Gold.Chemscore.Hbond>
2.8025

> <Gold.Chemscore.Metal>
0.0000

> <Gold.Chemscore.Lipo>
61.5199

> <Gold.Chemscore.Internal_Hbond>
0.0000

> <Gold.Chemscore.DEClash>
0.0435

> <Gold.Chemscore.DEInternal>
1.1474

> <Gold.Chemscore.Rot>
1.4851

> <Gold.Chemscore.Internal.Correction>
   9.000000E+99

> <Gold.Chemscore.Hbonds>
donor molecule, donor type, donor heavy atom, donor atom, acceptor molecule, acceptor atom, score
      L1  H     5    25       P1  7948  0.87
      L1  H     8    26       P1  7948  0.92
      L1  H    11    46       P1  7948  0.86

> <Gold.Chemscore.Hbond.Weighted>
-9.3605

> <Gold.Chemscore.Metal.Weighted>
-0.0000

> <Gold.Chemscore.Lipo.Weighted>
-7.1978

> <Gold.Chemscore.Internal_Hbond.Weighted>
0.0000

> <Gold.Chemscore.DEClash.Weighted>
0.0435

> <Gold.Chemscore.DEInternal.Weighted>
1.1474

> <Gold.Chemscore.Rot.Weighted>
3.8018

> <Gold.Chemscore.Internal.Correction.Weighted>
   9.000000E+99

> <Gold.Protein.RotatedTorsions>
[ 6907 6896 6895 6894 ] final -139.07 input  -60.11 | X-H torsion
[ 7974 7965 7964 7962 ] final -178.06 input  175.53 | X-H torsion
[ 8008 7997 7996 7995 ] final   71.72 input   59.86 | X-H torsion
[ 10167 10162 10161 10158 ] final  -82.43 input  -65.29 | X-H torsion
[ 10718 10713 10712 10709 ] final -125.08 input   66.30 | X-H torsion
[ 10763 10752 10751 10750 ] final  -98.99 input  -60.55 | X-H torsion
[ 11005 11000 10999 10996 ] final -152.60 input  -57.11 | X-H torsion

> <Gold.Protein.ActiveResidues>
 VAL166  LYS551  ARG553  GLY616  TRP617  ASP618  TYR619  PRO620  LYS621  CYS622 
 ASP623  PHE694  ASN695  SER759  ASP760  ASP761  ALA762  ILE779  LEU786  VAL792 
 PHE793  MET794  SER795  GLU796  ALA797  LYS798  CYS799  TRP800  GLU811  SER814 

> <Gold.Protein.RotatedAtoms>
  151.0431  133.5689  159.2649 H   0  0  0  0  0  0  0  0  0  0  0  0  # atno 6907 bound_to 6896
  151.2728  135.0689  159.9150 H   0  0  0  0  0  0  0  0  0  0  0  0  # atno 6908 bound_to 6896
  152.5368  134.0158  159.8013 H   0  0  0  0  0  0  0  0  0  0  0  0  # atno 6909 bound_to 6896
  144.7129  140.0925  143.6420 H   0  0  0  0  0  0  0  0  0  0  0  0  # atno 7974 bound_to 7965
  155.7581  140.3487  155.5184 H   0  0  0  0  0  0  0  0  0  0  0  0  # atno 8008 bound_to 7997
  155.8940  140.1023  157.1419 H   0  0  0  0  0  0  0  0  0  0  0  0  # atno 8009 bound_to 7997
  154.4036  140.1299  156.4339 H   0  0  0  0  0  0  0  0  0  0  0  0  # atno 8010 bound_to 7997
  140.4320  143.2545  151.8746 H   0  0  0  0  0  0  0  0  0  0  0  0  # atno 10167 bound_to 10162
  156.1644  130.6624  151.0094 H   0  0  0  0  0  0  0  0  0  0  0  0  # atno 10718 bound_to 10713
  154.7460  135.4989  153.9205 H   0  0  0  0  0  0  0  0  0  0  0  0  # atno 10763 bound_to 10752
  153.1093  135.6705  153.9538 H   0  0  0  0  0  0  0  0  0  0  0  0  # atno 10764 bound_to 10752
  153.9302  135.3079  155.3425 H   0  0  0  0  0  0  0  0  0  0  0  0  # atno 10765 bound_to 10752
  140.7171  134.3768  157.5189 H   0  0  0  0  0  0  0  0  0  0  0  0  # atno 11005 bound_to 11000
  145.9608  139.2799  143.1157 LP  0  0  0  0  0  0  0  0  0  0  0  0  # atno 17320 bound_to 7965
  145.9223  140.9107  143.0399 LP  0  0  0  0  0  0  0  0  0  0  0  0  # atno 17321 bound_to 7965
  139.4785  144.5324  151.8647 LP  0  0  0  0  0  0  0  0  0  0  0  0  # atno 17342 bound_to 10162
  140.4416  144.1978  150.5892 LP  0  0  0  0  0  0  0  0  0  0  0  0  # atno 17343 bound_to 10162
  157.6757  131.0851  150.7501 LP  0  0  0  0  0  0  0  0  0  0  0  0  # atno 17370 bound_to 10713
  156.7563  130.4784  149.5446 LP  0  0  0  0  0  0  0  0  0  0  0  0  # atno 17371 bound_to 10713
  139.8857  134.8930  156.2628 LP  0  0  0  0  0  0  0  0  0  0  0  0  # atno 17394 bound_to 11000
  141.0035  133.7137  156.0997 LP  0  0  0  0  0  0  0  0  0  0  0  0  # atno 17395 bound_to 11000

$$$$
