AV-unprocessed.smi:3037|AV-procd|sdf|11586|dock9
  -GOLD-   2272016563D 1   1.00000     0.00000
 Structure written by MMmdl.
 47 48  0  0  0  0  0  0  0  0  2 V2000
  143.8044  132.6172  148.7854 C   0  0  0  0  0  0  0  0  0  0  0  0
  144.6638  132.4355  150.0033 C   0  0  0  0  0  0  0  0  0  0  0  0
  144.3684  131.6855  151.1771 C   0  0  0  0  0  0  0  0  0  0  0  0
  145.3412  131.7286  152.0729 N   0  0  0  0  0  0  0  0  0  0  0  0
  146.2892  132.5032  151.5044 N   0  0  0  0  0  0  0  0  0  0  0  0
  147.5244  132.7754  152.2176 C   0  0  0  0  0  0  0  0  0  0  0  0
  147.3237  133.6829  153.4489 C   0  0  2  0  0  0  0  0  0  0  0  0
  146.2237  134.7413  153.2319 C   0  0  0  0  0  0  0  0  0  0  0  0
  148.6156  134.3168  153.7966 N   0  3  0  0  0  0  0  0  0  0  0  0
  148.6976  134.8942  155.1550 C   0  0  0  0  0  0  0  0  0  0  0  0
  148.8957  136.4198  155.0909 C   0  0  0  0  0  0  0  0  0  0  0  0
  150.3725  136.8532  155.0817 C   0  0  0  0  0  0  0  0  0  0  0  0
  151.2347  136.0268  155.3838 O   0  0  0  0  0  0  0  0  0  0  0  0
  150.6824  138.1290  154.7433 N   0  0  0  0  0  0  0  0  0  0  0  0
  149.6590  139.1348  154.4255 C   0  0  0  0  0  0  0  0  0  0  0  0
  149.6240  140.1872  155.5491 C   0  0  0  0  0  0  0  0  0  0  0  0
  151.0127  140.8197  155.7549 C   0  0  0  0  0  0  0  0  0  0  0  0
  152.1069  139.7468  155.9076 C   0  0  0  0  0  0  0  0  0  0  0  0
  152.0299  138.7165  154.7660 C   0  0  0  0  0  0  0  0  0  0  0  0
  145.9051  132.9466  150.2565 C   0  0  0  0  0  0  0  0  0  0  0  0
  143.0161  131.8661  148.7299 H   0  0  0  0  0  0  0  0  0  0  0  0
  144.3854  132.5403  147.8661 H   0  0  0  0  0  0  0  0  0  0  0  0
  143.3188  133.5932  148.7793 H   0  0  0  0  0  0  0  0  0  0  0  0
  143.4795  131.1150  151.4031 H   0  0  0  0  0  0  0  0  0  0  0  0
  147.9520  131.8189  152.5213 H   0  0  0  0  0  0  0  0  0  0  0  0
  148.2381  133.2277  151.5264 H   0  0  0  0  0  0  0  0  0  0  0  0
  147.0292  133.0444  154.2835 H   0  0  0  0  0  0  0  0  0  0  0  0
  145.2629  134.2783  153.0074 H   0  0  0  0  0  0  0  0  0  0  0  0
  146.4720  135.4048  152.4030 H   0  0  0  0  0  0  0  0  0  0  0  0
  146.0701  135.3572  154.1174 H   0  0  0  0  0  0  0  0  0  0  0  0
  149.3287  133.6044  153.7328 H   0  0  0  0  0  0  0  0  0  0  0  0
  147.7847  134.6623  155.7038 H   0  0  0  0  0  0  0  0  0  0  0  0
  149.5276  134.4311  155.6911 H   0  0  0  0  0  0  0  0  0  0  0  0
  148.4107  136.8086  154.1944 H   0  0  0  0  0  0  0  0  0  0  0  0
  148.4057  136.8762  155.9519 H   0  0  0  0  0  0  0  0  0  0  0  0
  149.9032  139.6095  153.4741 H   0  0  0  0  0  0  0  0  0  0  0  0
  148.6657  138.7041  154.2933 H   0  0  0  0  0  0  0  0  0  0  0  0
  148.8921  140.9610  155.3165 H   0  0  0  0  0  0  0  0  0  0  0  0
  149.2949  139.7178  156.4770 H   0  0  0  0  0  0  0  0  0  0  0  0
  151.2482  141.4490  154.8957 H   0  0  0  0  0  0  0  0  0  0  0  0
  151.0033  141.4768  156.6249 H   0  0  0  0  0  0  0  0  0  0  0  0
  153.0902  140.2174  155.9240 H   0  0  0  0  0  0  0  0  0  0  0  0
  151.9901  139.2389  156.8659 H   0  0  0  0  0  0  0  0  0  0  0  0
  152.8288  137.9860  154.8787 H   0  0  0  0  0  0  0  0  0  0  0  0
  152.2202  139.2072  153.8102 H   0  0  0  0  0  0  0  0  0  0  0  0
  146.5406  133.5818  149.6570 H   0  0  0  0  0  0  0  0  0  0  0  0
  148.8198  135.0347  153.1161 H   0  0  0  0  0  0  0  0  0  0  0  0
  1  2  1  0  0  0  0
  1 21  1  0  0  0  0
  1 22  1  0  0  0  0
  1 23  1  0  0  0  0
  2 20  2  0  0  0  0
  2  3  1  0  0  0  0
  3  4  2  0  0  0  0
  3 24  1  0  0  0  0
  4  5  1  0  0  0  0
  5  6  1  0  0  0  0
  5 20  1  0  0  0  0
  6  7  1  0  0  0  0
  6 25  1  0  0  0  0
  6 26  1  0  0  0  0
  7  8  1  0  0  0  0
  7  9  1  0  0  0  0
  7 27  1  0  0  0  0
  8 28  1  0  0  0  0
  8 29  1  0  0  0  0
  8 30  1  0  0  0  0
  9 10  1  0  0  0  0
  9 31  1  0  0  0  0
  9 47  1  0  0  0  0
 10 11  1  0  0  0  0
 10 32  1  0  0  0  0
 10 33  1  0  0  0  0
 11 12  1  0  0  0  0
 11 34  1  0  0  0  0
 11 35  1  0  0  0  0
 12 13  2  0  0  0  0
 12 14  1  0  0  0  0
 14 19  1  0  0  0  0
 14 15  1  0  0  0  0
 15 16  1  0  0  0  0
 15 36  1  0  0  0  0
 15 37  1  0  0  0  0
 16 17  1  0  0  0  0
 16 38  1  0  0  0  0
 16 39  1  0  0  0  0
 17 18  1  0  0  0  0
 17 40  1  0  0  0  0
 17 41  1  0  0  0  0
 18 19  1  0  0  0  0
 18 42  1  0  0  0  0
 18 43  1  0  0  0  0
 19 44  1  0  0  0  0
 19 45  1  0  0  0  0
 20 46  1  0  0  0  0
M  CHG  1   9   1
M  END
> <s_m_source_file>
AV-unprocessed.smi

> <i_m_source_file_index>
3037

> <i_lp_mmshare_version>
43012

> <i_f3d_flags>
0

> <s_epik_input>
W0NIM11jMVtjSF1ubihbY0hdMSlbQ0gyXVtDQEhdKFtDSDNdKVtOSF1bQ0gyXVtDSDJdQyg9TylOMltDSDJdW0NIMl1bQ0gyXVtDSDJdW0NIMl0y

> <s_epik_cmdline>
J2VwaWtfcHl0aG9uJywgJy1waCcsICc3LjAnLCAnLXRuJywgJzgnLCAnLW1hJywgJzIwMCcsICctbWV0YWxfYmluZGluZycsICctaW1hZScsICc8aW5maWxlLm1hZT4nLCAnLW9tYWUnLCAnPG91dGZpbGUubWFlPic=

> <r_lp_tautomer_probability>
1

> <r_epik_Ionization_Penalty>
0.00574983

> <r_epik_Ionization_Penalty_Charging>
0.00574185

> <r_epik_Ionization_Penalty_Neutral>
7.97936e-06

> <r_epik_State_Penalty>
0.00421386

> <r_epik_Charging_Adjusted_Penalty>
0.00995571

> <i_epik_Tot_Q>
1

> <i_epik_Tot_abs_Q>
1

> <r_epik_Metal_State_Penalty>
-0

> <b_epik_Metal_Only>
0

> <s_lp_Force_Field>
OPLS_2005

> <r_lp_Energy>
27.2307

> <b_lp_Chiralities_Consistent>
1

> <s_lp_Variant>
AV-unprocessed.smi:3037-1

> <Gold.Version>
5.8.1

> <Gold.Id.Protein>
6NUR|6NUR_protein|mol2

> <Gold.PLP.Fitness>
47.3245

> <Gold.PLP.PLP>
-40.1631

> <Gold.PLP.part.hbond>
-2.0000

> <Gold.PLP.part.metal>
0.0000

> <Gold.PLP.part.buried>
-0.7690

> <Gold.PLP.part.nonpolar>
-35.9410

> <Gold.PLP.part.repulsive>
0.2592

> <Gold.PLP.ligand.clash>
0.0000

> <Gold.PLP.ligand.torsion>
1.1784

> <Gold.PLP.Chemscore.Hbond>
3.0000

> <Gold.PLP.Chemscore.CHOScore>
0.1417

> <Gold.PLP.Chemscore.Metal>
0.0000

> <Gold.Chemscore.Hbonds>
donor molecule, donor type, donor heavy atom, donor atom, acceptor molecule, acceptor atom, score
      L1  H     9    47       P1  7948  2.00
      P1  H 10752 10763       L1    13  1.00
      L1  C    20    46       P1  7921  0.15

> <Gold.PLP.Chemscore.Internal.Correction>
0.0931

> <Gold.Rescore>
     Score         DG    S(hbond)    S(metal)    S(lipo)     H(rot)  DE(clash)    DE(int)     intcor
     15.81     -17.11       1.55        0.00      95.39       1.84       0.15       1.14       ----

> <Gold.Chemscore.Fitness>
15.8133

> <Gold.Chemscore.DG>
-17.1113

> <Gold.Chemscore.ZeroCoef>
-5.4800

> <Gold.Chemscore.Hbond>
1.5501

> <Gold.Chemscore.Metal>
0.0000

> <Gold.Chemscore.Lipo>
95.3857

> <Gold.Chemscore.Internal_Hbond>
0.0000

> <Gold.Chemscore.DEClash>
0.1542

> <Gold.Chemscore.DEInternal>
1.1438

> <Gold.Chemscore.Rot>
1.8383

> <Gold.Chemscore.Internal.Correction>
   9.000000E+99

> <Gold.Chemscore.Hbonds>
donor molecule, donor type, donor heavy atom, donor atom, acceptor molecule, acceptor atom, score
      L1  H     9    47       P1  7948  0.40
      P1  H 10752 10763       L1    13  1.00

> <Gold.Chemscore.Hbond.Weighted>
-5.1773

> <Gold.Chemscore.Metal.Weighted>
-0.0000

> <Gold.Chemscore.Lipo.Weighted>
-11.1601

> <Gold.Chemscore.Internal_Hbond.Weighted>
0.0000

> <Gold.Chemscore.DEClash.Weighted>
0.1542

> <Gold.Chemscore.DEInternal.Weighted>
1.1438

> <Gold.Chemscore.Rot.Weighted>
4.7062

> <Gold.Chemscore.Internal.Correction.Weighted>
   9.000000E+99

> <Gold.Protein.RotatedTorsions>
[ 6907 6896 6895 6894 ] final    2.65 input  -60.11 | X-H torsion
[ 7974 7965 7964 7962 ] final  -28.30 input  175.53 | X-H torsion
[ 8008 7997 7996 7995 ] final -137.79 input   59.86 | X-H torsion
[ 10167 10162 10161 10158 ] final -110.97 input  -65.29 | X-H torsion
[ 10718 10713 10712 10709 ] final   82.22 input   66.30 | X-H torsion
[ 10763 10752 10751 10750 ] final   75.39 input  -60.55 | X-H torsion
[ 11005 11000 10999 10996 ] final -140.67 input  -57.11 | X-H torsion

> <Gold.Protein.ActiveResidues>
 VAL166  LYS551  ARG553  GLY616  TRP617  ASP618  TYR619  PRO620  LYS621  CYS622 
 ASP623  PHE694  ASN695  SER759  ASP760  ASP761  ALA762  ILE779  LEU786  VAL792 
 PHE793  MET794  SER795  GLU796  ALA797  LYS798  CYS799  TRP800  GLU811  SER814 

> <Gold.Protein.RotatedAtoms>
  151.6122  135.1039  160.0083 H   0  0  0  0  0  0  0  0  0  0  0  0  # atno 6907 bound_to 6896
  152.4202  133.7100  159.6484 H   0  0  0  0  0  0  0  0  0  0  0  0  # atno 6908 bound_to 6896
  150.8090  133.8384  159.3213 H   0  0  0  0  0  0  0  0  0  0  0  0  # atno 6909 bound_to 6896
  146.1298  140.5264  142.8698 H   0  0  0  0  0  0  0  0  0  0  0  0  # atno 7974 bound_to 7965
  155.4177  140.0516  157.3028 H   0  0  0  0  0  0  0  0  0  0  0  0  # atno 8008 bound_to 7997
  154.4917  140.2122  155.9493 H   0  0  0  0  0  0  0  0  0  0  0  0  # atno 8009 bound_to 7997
  156.1351  140.3164  155.8413 H   0  0  0  0  0  0  0  0  0  0  0  0  # atno 8010 bound_to 7997
  140.1386  143.4298  152.1577 H   0  0  0  0  0  0  0  0  0  0  0  0  # atno 10167 bound_to 10162
  157.6852  131.0038  150.2343 H   0  0  0  0  0  0  0  0  0  0  0  0  # atno 10718 bound_to 10713
  153.0652  135.4990  154.8183 H   0  0  0  0  0  0  0  0  0  0  0  0  # atno 10763 bound_to 10752
  154.6942  135.2990  154.9437 H   0  0  0  0  0  0  0  0  0  0  0  0  # atno 10764 bound_to 10752
  154.0182  135.6745  153.4823 H   0  0  0  0  0  0  0  0  0  0  0  0  # atno 10765 bound_to 10752
  140.8400  134.2414  157.4815 H   0  0  0  0  0  0  0  0  0  0  0  0  # atno 11005 bound_to 11000
  144.7679  140.5571  143.6690 LP  0  0  0  0  0  0  0  0  0  0  0  0  # atno 17320 bound_to 7965
  145.5286  139.1475  143.3512 LP  0  0  0  0  0  0  0  0  0  0  0  0  # atno 17321 bound_to 7965
  139.5483  144.7317  151.4514 LP  0  0  0  0  0  0  0  0  0  0  0  0  # atno 17342 bound_to 10162
  140.6774  143.8159  150.7076 LP  0  0  0  0  0  0  0  0  0  0  0  0  # atno 17343 bound_to 10162
  156.2970  130.3753  149.7787 LP  0  0  0  0  0  0  0  0  0  0  0  0  # atno 17370 bound_to 10713
  156.5429  130.8308  151.3275 LP  0  0  0  0  0  0  0  0  0  0  0  0  # atno 17371 bound_to 10713
  139.8703  134.9630  156.4448 LP  0  0  0  0  0  0  0  0  0  0  0  0  # atno 17394 bound_to 11000
  140.8906  133.7851  155.9567 LP  0  0  0  0  0  0  0  0  0  0  0  0  # atno 17395 bound_to 11000

$$$$
