AV-unprocessed.smi:3137|AV-procd|sdf|11952|dock7
  -GOLD-   2272017353D 1   1.00000     0.00000
 Structure written by MMmdl.
 40 40  0  0  0  0  0  0  0  0  2 V2000
  144.9538  132.6162  149.7453 C   0  0  0  0  0  0  0  0  0  0  0  0
  144.1495  133.7919  150.3160 C   0  0  0  0  0  0  0  0  0  0  0  0
  144.8586  135.0566  150.1584 N   0  0  0  0  0  0  0  0  0  0  0  0
  145.1424  135.9117  151.1528 C   0  0  0  0  0  0  0  0  0  0  0  0
  144.8174  135.7169  152.3241 O   0  0  0  0  0  0  0  0  0  0  0  0
  145.9066  137.1802  150.7600 C   0  0  0  0  0  0  0  0  0  0  0  0
  146.0601  138.1701  151.9275 C   0  0  0  0  0  0  0  0  0  0  0  0
  147.4860  138.3856  152.2526 N   0  3  0  0  0  0  0  0  0  0  0  0
  147.7475  139.1427  153.4977 C   0  0  2  0  0  0  0  0  0  0  0  0
  147.4839  140.6373  153.2458 C   0  0  0  0  0  0  0  0  0  0  0  0
  149.1772  138.8738  154.0248 C   0  0  0  0  0  0  0  0  0  0  0  0
  149.6028  139.8245  155.0362 N   0  0  0  0  0  0  0  0  0  0  0  0
  148.9385  140.2186  156.1783 C   0  0  0  0  0  0  0  0  0  0  0  0
  149.7218  141.1415  156.8114 C   0  0  0  0  0  0  0  0  0  0  0  0
  149.4575  141.8737  158.0954 C   0  0  0  0  0  0  0  0  0  0  0  0
  150.8588  141.2499  155.9611 C   0  0  0  0  0  0  0  0  0  0  0  0
  150.7826  140.4655  154.8981 N   0  0  0  0  0  0  0  0  0  0  0  0
  144.4269  131.6752  149.9036 H   0  0  0  0  0  0  0  0  0  0  0  0
  145.9294  132.5350  150.2254 H   0  0  0  0  0  0  0  0  0  0  0  0
  145.1158  132.7272  148.6729 H   0  0  0  0  0  0  0  0  0  0  0  0
  143.1677  133.8462  149.8430 H   0  0  0  0  0  0  0  0  0  0  0  0
  143.9725  133.6324  151.3798 H   0  0  0  0  0  0  0  0  0  0  0  0
  145.1608  135.2940  149.2245 H   0  0  0  0  0  0  0  0  0  0  0  0
  146.8936  136.8989  150.3888 H   0  0  0  0  0  0  0  0  0  0  0  0
  145.3825  137.6566  149.9308 H   0  0  0  0  0  0  0  0  0  0  0  0
  145.6060  139.1286  151.6711 H   0  0  0  0  0  0  0  0  0  0  0  0
  145.5366  137.7874  152.8037 H   0  0  0  0  0  0  0  0  0  0  0  0
  147.9536  137.4922  152.3099 H   0  0  0  0  0  0  0  0  0  0  0  0
  147.0264  138.8100  154.2460 H   0  0  0  0  0  0  0  0  0  0  0  0
  147.5628  141.2204  154.1635 H   0  0  0  0  0  0  0  0  0  0  0  0
  146.4800  140.7973  152.8513 H   0  0  0  0  0  0  0  0  0  0  0  0
  148.1934  141.0498  152.5275 H   0  0  0  0  0  0  0  0  0  0  0  0
  149.2534  137.8768  154.4585 H   0  0  0  0  0  0  0  0  0  0  0  0
  149.8918  138.9099  153.2014 H   0  0  0  0  0  0  0  0  0  0  0  0
  147.9734  139.8136  156.4452 H   0  0  0  0  0  0  0  0  0  0  0  0
  149.9745  142.8330  158.1279 H   0  0  0  0  0  0  0  0  0  0  0  0
  149.7898  141.2994  158.9602 H   0  0  0  0  0  0  0  0  0  0  0  0
  148.3955  142.0777  158.2330 H   0  0  0  0  0  0  0  0  0  0  0  0
  151.7317  141.8745  156.0833 H   0  0  0  0  0  0  0  0  0  0  0  0
  147.8899  138.9087  151.4889 H   0  0  0  0  0  0  0  0  0  0  0  0
  1  2  1  0  0  0  0
  1 18  1  0  0  0  0
  1 19  1  0  0  0  0
  1 20  1  0  0  0  0
  2  3  1  0  0  0  0
  2 21  1  0  0  0  0
  2 22  1  0  0  0  0
  3  4  1  0  0  0  0
  3 23  1  0  0  0  0
  4  5  2  0  0  0  0
  4  6  1  0  0  0  0
  6  7  1  0  0  0  0
  6 24  1  0  0  0  0
  6 25  1  0  0  0  0
  7  8  1  0  0  0  0
  7 26  1  0  0  0  0
  7 27  1  0  0  0  0
  8  9  1  0  0  0  0
  8 28  1  0  0  0  0
  8 40  1  0  0  0  0
  9 10  1  0  0  0  0
  9 11  1  0  0  0  0
  9 29  1  0  0  0  0
 10 30  1  0  0  0  0
 10 31  1  0  0  0  0
 10 32  1  0  0  0  0
 11 12  1  0  0  0  0
 11 33  1  0  0  0  0
 11 34  1  0  0  0  0
 12 17  1  0  0  0  0
 12 13  1  0  0  0  0
 13 14  2  0  0  0  0
 13 35  1  0  0  0  0
 14 15  1  0  0  0  0
 14 16  1  0  0  0  0
 15 36  1  0  0  0  0
 15 37  1  0  0  0  0
 15 38  1  0  0  0  0
 16 17  2  0  0  0  0
 16 39  1  0  0  0  0
M  CHG  1   8   1
M  END
> <s_m_source_file>
AV-unprocessed.smi

> <i_m_source_file_index>
3137

> <i_lp_mmshare_version>
43012

> <i_f3d_flags>
0

> <s_epik_input>
W0NIM11bQ0gyXVtOSF1DKD1PKVtDSDJdW0NIMl1bTkhdW0NASF0oW0NIM10pW0NIMl1uMVtjSF1jKFtDSDNdKVtjSF1uMQ==

> <s_epik_cmdline>
J2VwaWtfcHl0aG9uJywgJy1waCcsICc3LjAnLCAnLXRuJywgJzgnLCAnLW1hJywgJzIwMCcsICctbWV0YWxfYmluZGluZycsICctaW1hZScsICc8aW5maWxlLm1hZT4nLCAnLW9tYWUnLCAnPG91dGZpbGUubWFlPic=

> <r_lp_tautomer_probability>
1

> <r_epik_Ionization_Penalty>
0.00598586

> <r_epik_Ionization_Penalty_Charging>
0.00597743

> <r_epik_Ionization_Penalty_Neutral>
8.43172e-06

> <r_epik_State_Penalty>
0.00439883

> <r_epik_Charging_Adjusted_Penalty>
0.0103763

> <i_epik_Tot_Q>
1

> <i_epik_Tot_abs_Q>
1

> <r_epik_Metal_State_Penalty>
-0

> <b_epik_Metal_Only>
0

> <s_lp_Force_Field>
OPLS_2005

> <r_lp_Energy>
5.54244

> <b_lp_Chiralities_Consistent>
1

> <s_lp_Variant>
AV-unprocessed.smi:3137-1

> <Gold.Version>
5.8.1

> <Gold.Id.Protein>
6NUR|6NUR_protein|mol2

> <Gold.PLP.Fitness>
43.9359

> <Gold.PLP.PLP>
-31.0996

> <Gold.PLP.part.hbond>
-4.0000

> <Gold.PLP.part.metal>
0.0000

> <Gold.PLP.part.buried>
2.0598

> <Gold.PLP.part.nonpolar>
-28.9604

> <Gold.PLP.part.repulsive>
0.3163

> <Gold.PLP.ligand.clash>
0.0000

> <Gold.PLP.ligand.torsion>
0.8165

> <Gold.PLP.Chemscore.Hbond>
4.7600

> <Gold.PLP.Chemscore.CHOScore>
0.0000

> <Gold.PLP.Chemscore.Metal>
0.0000

> <Gold.Chemscore.Hbonds>
donor molecule, donor type, donor heavy atom, donor atom, acceptor molecule, acceptor atom, score
      L1  H     3    23       P1  7921  0.99
      L1  H     8    28       P1  7948  2.00
      L1  H     8    40       P1  7957  0.75
      P1  H  7989  7998       L1    17  1.00

> <Gold.PLP.Chemscore.Internal.Correction>
0.1893

> <Gold.Rescore>
     Score         DG    S(hbond)    S(metal)    S(lipo)     H(rot)  DE(clash)    DE(int)     intcor
     17.43     -19.66       3.37        0.00      75.12       2.30       1.29       0.94       ----

> <Gold.Chemscore.Fitness>
17.4268

> <Gold.Chemscore.DG>
-19.6578

> <Gold.Chemscore.ZeroCoef>
-5.4800

> <Gold.Chemscore.Hbond>
3.3735

> <Gold.Chemscore.Metal>
0.0000

> <Gold.Chemscore.Lipo>
75.1183

> <Gold.Chemscore.Internal_Hbond>
0.0000

> <Gold.Chemscore.DEClash>
1.2875

> <Gold.Chemscore.DEInternal>
0.9434

> <Gold.Chemscore.Rot>
2.2963

> <Gold.Chemscore.Internal.Correction>
   9.000000E+99

> <Gold.Chemscore.Hbonds>
donor molecule, donor type, donor heavy atom, donor atom, acceptor molecule, acceptor atom, score
      L1  H     3    23       P1  7921  0.94
      L1  H     8    28       P1  7948  0.99
      L1  H     8    40       P1  7957  0.53
      P1  H  7989  7998       L1    17  0.94

> <Gold.Chemscore.Hbond.Weighted>
-11.2675

> <Gold.Chemscore.Metal.Weighted>
-0.0000

> <Gold.Chemscore.Lipo.Weighted>
-8.7888

> <Gold.Chemscore.Internal_Hbond.Weighted>
0.0000

> <Gold.Chemscore.DEClash.Weighted>
1.2875

> <Gold.Chemscore.DEInternal.Weighted>
0.9434

> <Gold.Chemscore.Rot.Weighted>
5.8786

> <Gold.Chemscore.Internal.Correction.Weighted>
   9.000000E+99

> <Gold.Protein.RotatedTorsions>
[ 6907 6896 6895 6894 ] final   -2.13 input  -60.11 | X-H torsion
[ 7974 7965 7964 7962 ] final   78.93 input  175.53 | X-H torsion
[ 8008 7997 7996 7995 ] final  116.24 input   59.86 | X-H torsion
[ 10167 10162 10161 10158 ] final  -95.11 input  -65.29 | X-H torsion
[ 10718 10713 10712 10709 ] final  -70.58 input   66.30 | X-H torsion
[ 10763 10752 10751 10750 ] final   94.18 input  -60.55 | X-H torsion
[ 11005 11000 10999 10996 ] final  115.28 input  -57.11 | X-H torsion

> <Gold.Protein.ActiveResidues>
 VAL166  LYS551  ARG553  GLY616  TRP617  ASP618  TYR619  PRO620  LYS621  CYS622 
 ASP623  PHE694  ASN695  SER759  ASP760  ASP761  ALA762  ILE779  LEU786  VAL792 
 PHE793  MET794  SER795  GLU796  ALA797  LYS798  CYS799  TRP800  GLU811  SER814 

> <Gold.Protein.RotatedAtoms>
  151.5349  135.1068  159.9911 H   0  0  0  0  0  0  0  0  0  0  0  0  # atno 6907 bound_to 6896
  152.4562  133.7723  159.6816 H   0  0  0  0  0  0  0  0  0  0  0  0  # atno 6908 bound_to 6896
  150.8506  133.7727  159.3051 H   0  0  0  0  0  0  0  0  0  0  0  0  # atno 6909 bound_to 6896
  145.6708  139.2496  143.1870 H   0  0  0  0  0  0  0  0  0  0  0  0  # atno 7974 bound_to 7965
  156.2428  140.2921  156.0493 H   0  0  0  0  0  0  0  0  0  0  0  0  # atno 8008 bound_to 7997
  155.1899  140.0406  157.2915 H   0  0  0  0  0  0  0  0  0  0  0  0  # atno 8009 bound_to 7997
  154.6201  140.2474  155.7567 H   0  0  0  0  0  0  0  0  0  0  0  0  # atno 8010 bound_to 7997
  140.3075  143.3125  152.0184 H   0  0  0  0  0  0  0  0  0  0  0  0  # atno 10167 bound_to 10162
  156.0401  130.4334  150.2317 H   0  0  0  0  0  0  0  0  0  0  0  0  # atno 10718 bound_to 10713
  153.2387  135.4299  155.0675 H   0  0  0  0  0  0  0  0  0  0  0  0  # atno 10763 bound_to 10752
  154.8331  135.3397  154.6680 H   0  0  0  0  0  0  0  0  0  0  0  0  # atno 10764 bound_to 10752
  153.7105  135.7023  153.5095 H   0  0  0  0  0  0  0  0  0  0  0  0  # atno 10765 bound_to 10752
  139.9005  134.9581  156.7021 H   0  0  0  0  0  0  0  0  0  0  0  0  # atno 11005 bound_to 11000
  146.1047  140.7501  142.9532 LP  0  0  0  0  0  0  0  0  0  0  0  0  # atno 17320 bound_to 7965
  144.7058  140.3843  143.7120 LP  0  0  0  0  0  0  0  0  0  0  0  0  # atno 17321 bound_to 7965
  139.4901  144.6410  151.6877 LP  0  0  0  0  0  0  0  0  0  0  0  0  # atno 17342 bound_to 10162
  140.5597  144.0288  150.6164 LP  0  0  0  0  0  0  0  0  0  0  0  0  # atno 17343 bound_to 10162
  157.0413  131.0036  151.3282 LP  0  0  0  0  0  0  0  0  0  0  0  0  # atno 17370 bound_to 10713
  157.5207  130.7996  149.7806 LP  0  0  0  0  0  0  0  0  0  0  0  0  # atno 17371 bound_to 10713
  140.7142  133.9196  155.8104 LP  0  0  0  0  0  0  0  0  0  0  0  0  # atno 17394 bound_to 11000
  141.0277  134.0800  157.4050 LP  0  0  0  0  0  0  0  0  0  0  0  0  # atno 17395 bound_to 11000

$$$$
