AV-unprocessed.smi:3217|AV-procd|sdf|12289|dock1
  -GOLD-   2272018133D 1   1.00000     0.00000
 Structure written by MMmdl.
 34 35  0  0  0  0  0  0  0  0  1 V2000
  151.4815  145.4215  158.9461 C   0  0  0  0  0  0  0  0  0  0  0  0
  151.9396  144.0577  158.4064 C   0  0  2  0  0  0  0  0  0  0  0  0
  151.0011  143.6219  157.3745 N   0  0  0  0  0  0  0  0  0  0  0  0
  150.8734  142.3734  156.9026 C   0  0  0  0  0  0  0  0  0  0  0  0
  151.5606  141.4258  157.2819 O   0  0  0  0  0  0  0  0  0  0  0  0
  149.9177  142.3126  155.9593 N   0  0  0  0  0  0  0  0  0  0  0  0
  149.4744  141.1862  155.2141 C   0  0  0  0  0  0  0  0  0  0  0  0
  148.2679  141.3065  154.4941 C   0  0  0  0  0  0  0  0  0  0  0  0
  147.7937  140.2038  153.7585 C   0  0  0  0  0  0  0  0  0  0  0  0
  148.5448  139.0128  153.7792 C   0  0  0  0  0  0  0  0  0  0  0  0
  149.6931  138.8748  154.4747 N   0  0  0  0  0  0  0  0  0  0  0  0
  150.1433  139.9373  155.1765 C   0  0  0  0  0  0  0  0  0  0  0  0
  152.0184  142.9848  159.5097 C   0  0  2  0  0  0  0  0  0  0  0  0
  152.4421  143.5080  160.8841 C   0  0  0  0  0  0  0  0  0  0  0  0
  153.1043  142.3083  161.5461 C   0  0  0  0  0  0  0  0  0  0  0  0
  153.2741  141.2991  160.4085 C   0  0  0  0  0  0  0  0  0  0  0  0
  153.0444  142.0462  159.2237 O   0  0  0  0  0  0  0  0  0  0  0  0
  152.1750  145.8070  159.6935 H   0  0  0  0  0  0  0  0  0  0  0  0
  150.4961  145.3552  159.4084 H   0  0  0  0  0  0  0  0  0  0  0  0
  151.4248  146.1599  158.1455 H   0  0  0  0  0  0  0  0  0  0  0  0
  152.9370  144.1852  157.9820 H   0  0  0  0  0  0  0  0  0  0  0  0
  150.3906  144.3312  156.9963 H   0  0  0  0  0  0  0  0  0  0  0  0
  149.4917  143.1919  155.7062 H   0  0  0  0  0  0  0  0  0  0  0  0
  147.7119  142.2328  154.5002 H   0  0  0  0  0  0  0  0  0  0  0  0
  146.8760  140.2686  153.1931 H   0  0  0  0  0  0  0  0  0  0  0  0
  148.2111  138.1466  153.2272 H   0  0  0  0  0  0  0  0  0  0  0  0
  151.0511  139.7556  155.7300 H   0  0  0  0  0  0  0  0  0  0  0  0
  151.0687  142.4521  159.5936 H   0  0  0  0  0  0  0  0  0  0  0  0
  153.1736  144.3099  160.7751 H   0  0  0  0  0  0  0  0  0  0  0  0
  151.6020  143.8968  161.4602 H   0  0  0  0  0  0  0  0  0  0  0  0
  154.0663  142.5901  161.9754 H   0  0  0  0  0  0  0  0  0  0  0  0
  152.4885  141.8932  162.3447 H   0  0  0  0  0  0  0  0  0  0  0  0
  154.2609  140.8360  160.4004 H   0  0  0  0  0  0  0  0  0  0  0  0
  152.5265  140.5079  160.4825 H   0  0  0  0  0  0  0  0  0  0  0  0
  1  2  1  0  0  0  0
  1 18  1  0  0  0  0
  1 19  1  0  0  0  0
  1 20  1  0  0  0  0
  2  3  1  0  0  0  0
  2 13  1  0  0  0  0
  2 21  1  0  0  0  0
  3  4  1  0  0  0  0
  3 22  1  0  0  0  0
  4  5  2  0  0  0  0
  4  6  1  0  0  0  0
  6  7  1  0  0  0  0
  6 23  1  0  0  0  0
  7 12  1  0  0  0  0
  7  8  2  0  0  0  0
  8  9  1  0  0  0  0
  8 24  1  0  0  0  0
  9 10  2  0  0  0  0
  9 25  1  0  0  0  0
 10 11  1  0  0  0  0
 10 26  1  0  0  0  0
 11 12  2  0  0  0  0
 12 27  1  0  0  0  0
 13 17  1  0  0  0  0
 13 14  1  0  0  0  0
 13 28  1  0  0  0  0
 14 15  1  0  0  0  0
 14 29  1  0  0  0  0
 14 30  1  0  0  0  0
 15 16  1  0  0  0  0
 15 31  1  0  0  0  0
 15 32  1  0  0  0  0
 16 17  1  0  0  0  0
 16 33  1  0  0  0  0
 16 34  1  0  0  0  0
M  END
> <s_m_source_file>
AV-unprocessed.smi

> <i_m_source_file_index>
3217

> <i_lp_mmshare_version>
43012

> <i_f3d_flags>
0

> <s_epik_input>
TzFbQ0gyXVtDSDJdW0NIMl1bQ0BIXTFbQ0BIXShbQ0gzXSlbTkhdQyg9TylbTkhdYzJbY0hdW2NIXVtjSF1uW2NIXTI=

> <s_epik_cmdline>
J2VwaWtfcHl0aG9uJywgJy1waCcsICc3LjAnLCAnLXRuJywgJzgnLCAnLW1hJywgJzIwMCcsICctbWV0YWxfYmluZGluZycsICctaW1hZScsICc8aW5maWxlLm1hZT4nLCAnLW9tYWUnLCAnPG91dGZpbGUubWFlPic=

> <r_epik_Ionization_Penalty>
0.00475451

> <r_epik_Ionization_Penalty_Charging>
0

> <r_epik_Ionization_Penalty_Neutral>
0.00475451

> <r_epik_State_Penalty>
0.00341814

> <r_epik_Charging_Adjusted_Penalty>
0.00341814

> <i_epik_Tot_Q>
0

> <i_epik_Tot_abs_Q>
0

> <r_epik_Metal_State_Penalty>
-0

> <b_epik_Metal_Only>
0

> <s_lp_Force_Field>
OPLS_2005

> <r_lp_Energy>
20.3997

> <b_lp_Chiralities_Consistent>
1

> <s_lp_Variant>
AV-unprocessed.smi:3217-1

> <Gold.Version>
5.8.1

> <Gold.Id.Protein>
6NUR|6NUR_protein|mol2

> <Gold.PLP.Fitness>
46.7098

> <Gold.PLP.PLP>
-39.8136

> <Gold.PLP.part.hbond>
-2.0000

> <Gold.PLP.part.metal>
0.0000

> <Gold.PLP.part.buried>
-3.3539

> <Gold.PLP.part.nonpolar>
-34.9387

> <Gold.PLP.part.repulsive>
0.3242

> <Gold.PLP.ligand.clash>
0.0000

> <Gold.PLP.ligand.torsion>
0.9704

> <Gold.PLP.Chemscore.Hbond>
1.9357

> <Gold.PLP.Chemscore.CHOScore>
1.0000

> <Gold.PLP.Chemscore.Metal>
0.0000

> <Gold.Chemscore.Hbonds>
donor molecule, donor type, donor heavy atom, donor atom, acceptor molecule, acceptor atom, score
      L1  H     3    22       P1  8028  0.93
      L1  H     6    23       P1  8028  1.00
      L1  C    10    26       P1  7948  1.00

> <Gold.PLP.Chemscore.Internal.Correction>
0.0298

> <Gold.Rescore>
     Score         DG    S(hbond)    S(metal)    S(lipo)     H(rot)  DE(clash)    DE(int)     intcor
     15.39     -20.89       1.92        0.00     103.56       1.22       0.09       5.41       ----

> <Gold.Chemscore.Fitness>
15.3871

> <Gold.Chemscore.DG>
-20.8869

> <Gold.Chemscore.ZeroCoef>
-5.4800

> <Gold.Chemscore.Hbond>
1.9229

> <Gold.Chemscore.Metal>
0.0000

> <Gold.Chemscore.Lipo>
103.5630

> <Gold.Chemscore.Internal_Hbond>
0.0000

> <Gold.Chemscore.DEClash>
0.0906

> <Gold.Chemscore.DEInternal>
5.4091

> <Gold.Chemscore.Rot>
1.2236

> <Gold.Chemscore.Internal.Correction>
   9.000000E+99

> <Gold.Chemscore.Hbonds>
donor molecule, donor type, donor heavy atom, donor atom, acceptor molecule, acceptor atom, score
      L1  H     3    22       P1  8028  0.78
      L1  H     6    23       P1  8028  1.00

> <Gold.Chemscore.Hbond.Weighted>
-6.4225

> <Gold.Chemscore.Metal.Weighted>
-0.0000

> <Gold.Chemscore.Lipo.Weighted>
-12.1169

> <Gold.Chemscore.Internal_Hbond.Weighted>
0.0000

> <Gold.Chemscore.DEClash.Weighted>
0.0906

> <Gold.Chemscore.DEInternal.Weighted>
5.4091

> <Gold.Chemscore.Rot.Weighted>
3.1325

> <Gold.Chemscore.Internal.Correction.Weighted>
   9.000000E+99

> <Gold.Protein.RotatedTorsions>
[ 6907 6896 6895 6894 ] final -126.34 input  -60.11 | X-H torsion
[ 7974 7965 7964 7962 ] final -133.03 input  175.53 | X-H torsion
[ 8008 7997 7996 7995 ] final  -44.92 input   59.86 | X-H torsion
[ 10167 10162 10161 10158 ] final  -97.78 input  -65.29 | X-H torsion
[ 10718 10713 10712 10709 ] final   19.71 input   66.30 | X-H torsion
[ 10763 10752 10751 10750 ] final   13.85 input  -60.55 | X-H torsion
[ 11005 11000 10999 10996 ] final  112.44 input  -57.11 | X-H torsion

> <Gold.Protein.ActiveResidues>
 VAL166  LYS551  ARG553  GLY616  TRP617  ASP618  TYR619  PRO620  LYS621  CYS622 
 ASP623  PHE694  ASN695  SER759  ASP760  ASP761  ALA762  ILE779  LEU786  VAL792 
 PHE793  MET794  SER795  GLU796  ALA797  LYS798  CYS799  TRP800  GLU811  SER814 

> <Gold.Protein.RotatedAtoms>
  150.8959  133.7181  159.2891 H   0  0  0  0  0  0  0  0  0  0  0  0  # atno 6907 bound_to 6896
  151.4716  135.1045  159.9762 H   0  0  0  0  0  0  0  0  0  0  0  0  # atno 6908 bound_to 6896
  152.4848  133.8298  159.7153 H   0  0  0  0  0  0  0  0  0  0  0  0  # atno 6909 bound_to 6896
  144.9230  140.7037  143.4953 H   0  0  0  0  0  0  0  0  0  0  0  0  # atno 7974 bound_to 7965
  154.3999  140.1410  156.3762 H   0  0  0  0  0  0  0  0  0  0  0  0  # atno 8008 bound_to 7997
  155.8046  140.3475  155.5402 H   0  0  0  0  0  0  0  0  0  0  0  0  # atno 8009 bound_to 7997
  155.8448  140.0932  157.1702 H   0  0  0  0  0  0  0  0  0  0  0  0  # atno 8010 bound_to 7997
  140.2798  143.3289  152.0452 H   0  0  0  0  0  0  0  0  0  0  0  0  # atno 10167 bound_to 10162
  157.1143  130.6522  149.5906 H   0  0  0  0  0  0  0  0  0  0  0  0  # atno 10718 bound_to 10713
  153.1680  135.6807  153.8648 H   0  0  0  0  0  0  0  0  0  0  0  0  # atno 10763 bound_to 10752
  153.8022  135.3154  155.3392 H   0  0  0  0  0  0  0  0  0  0  0  0  # atno 10764 bound_to 10752
  154.7978  135.4796  154.0294 H   0  0  0  0  0  0  0  0  0  0  0  0  # atno 10765 bound_to 10752
  139.8927  134.9530  156.6586 H   0  0  0  0  0  0  0  0  0  0  0  0  # atno 11005 bound_to 11000
  145.3265  139.1772  143.4560 LP  0  0  0  0  0  0  0  0  0  0  0  0  # atno 17320 bound_to 7965
  146.3213  140.3289  142.8639 LP  0  0  0  0  0  0  0  0  0  0  0  0  # atno 17321 bound_to 7965
  139.4965  144.6599  151.6488 LP  0  0  0  0  0  0  0  0  0  0  0  0  # atno 17342 bound_to 10162
  140.5821  143.9928  150.6274 LP  0  0  0  0  0  0  0  0  0  0  0  0  # atno 17343 bound_to 10162
  155.9843  130.4867  150.6977 LP  0  0  0  0  0  0  0  0  0  0  0  0  # atno 17370 bound_to 10713
  157.4532  131.0875  151.0824 LP  0  0  0  0  0  0  0  0  0  0  0  0  # atno 17371 bound_to 10713
  140.7464  133.8934  155.8315 LP  0  0  0  0  0  0  0  0  0  0  0  0  # atno 17394 bound_to 11000
  141.0036  134.1117  157.4293 LP  0  0  0  0  0  0  0  0  0  0  0  0  # atno 17395 bound_to 11000

$$$$
