AV-unprocessed.smi:2204|AV-procd|sdf|8940|dock2
  -GOLD-   2272012153D 1   1.00000     0.00000
 Structure written by MMmdl.
 39 40  0  0  0  0  0  0  0  0  1 V2000
  153.8328  141.6687  161.9465 C   0  0  0  0  0  0  0  0  0  0  0  0
  153.1174  142.6592  161.0762 C   0  0  0  0  0  0  0  0  0  0  0  0
  152.6221  143.9454  161.4290 C   0  0  0  0  0  0  0  0  0  0  0  0
  152.0570  144.4173  160.2779 C   0  0  0  0  0  0  0  0  0  0  0  0
  151.3599  145.7097  160.0059 C   0  0  0  0  0  0  0  0  0  0  0  0
  152.2301  143.4382  159.3155 N   0  0  0  0  0  0  0  0  0  0  0  0
  151.7870  143.4259  157.9287 C   0  0  0  0  0  0  0  0  0  0  0  0
  150.9944  142.1543  157.6204 C   0  0  0  0  0  0  0  0  0  0  0  0
  151.4621  141.0514  157.9012 O   0  0  0  0  0  0  0  0  0  0  0  0
  149.8055  142.3285  157.0234 N   0  0  0  0  0  0  0  0  0  0  0  0
  148.9470  141.2708  156.5004 C   0  0  1  0  0  0  0  0  0  0  0  0
  147.8510  140.9290  157.5215 C   0  0  0  0  0  0  0  0  0  0  0  0
  148.3613  141.7167  155.1471 C   0  0  1  0  0  0  0  0  0  0  0  0
  147.9817  140.5702  154.2042 C   0  0  0  0  0  0  0  0  0  0  0  0
  146.8638  141.1517  153.3516 C   0  0  0  0  0  0  0  0  0  0  0  0
  146.5035  142.4654  154.0497 C   0  0  0  0  0  0  0  0  0  0  0  0
  147.1213  142.3828  155.3254 O   0  0  0  0  0  0  0  0  0  0  0  0
  152.8835  142.3631  159.8085 N   0  0  0  0  0  0  0  0  0  0  0  0
  153.7290  141.9249  163.0010 H   0  0  0  0  0  0  0  0  0  0  0  0
  154.8976  141.6426  161.7141 H   0  0  0  0  0  0  0  0  0  0  0  0
  153.4355  140.6624  161.8100 H   0  0  0  0  0  0  0  0  0  0  0  0
  152.6700  144.4447  162.3853 H   0  0  0  0  0  0  0  0  0  0  0  0
  151.3442  146.3383  160.8962 H   0  0  0  0  0  0  0  0  0  0  0  0
  150.3278  145.5382  159.6994 H   0  0  0  0  0  0  0  0  0  0  0  0
  151.8629  146.2639  159.2134 H   0  0  0  0  0  0  0  0  0  0  0  0
  151.1749  144.3088  157.7417 H   0  0  0  0  0  0  0  0  0  0  0  0
  152.6524  143.4911  157.2670 H   0  0  0  0  0  0  0  0  0  0  0  0
  149.5097  143.2778  156.8447 H   0  0  0  0  0  0  0  0  0  0  0  0
  149.5498  140.3772  156.3266 H   0  0  0  0  0  0  0  0  0  0  0  0
  147.2084  140.1288  157.1535 H   0  0  0  0  0  0  0  0  0  0  0  0
  147.2194  141.7929  157.7313 H   0  0  0  0  0  0  0  0  0  0  0  0
  148.2824  140.5935  158.4652 H   0  0  0  0  0  0  0  0  0  0  0  0
  149.0528  142.3923  154.6391 H   0  0  0  0  0  0  0  0  0  0  0  0
  148.8272  140.2199  153.6110 H   0  0  0  0  0  0  0  0  0  0  0  0
  147.6001  139.7210  154.7731 H   0  0  0  0  0  0  0  0  0  0  0  0
  147.1863  141.3313  152.3255 H   0  0  0  0  0  0  0  0  0  0  0  0
  146.0127  140.4703  153.3218 H   0  0  0  0  0  0  0  0  0  0  0  0
  146.9192  143.3151  153.5061 H   0  0  0  0  0  0  0  0  0  0  0  0
  145.4270  142.6125  154.1392 H   0  0  0  0  0  0  0  0  0  0  0  0
  1  2  1  0  0  0  0
  1 19  1  0  0  0  0
  1 20  1  0  0  0  0
  1 21  1  0  0  0  0
  2 18  2  0  0  0  0
  2  3  1  0  0  0  0
  3  4  2  0  0  0  0
  3 22  1  0  0  0  0
  4  5  1  0  0  0  0
  4  6  1  0  0  0  0
  5 23  1  0  0  0  0
  5 24  1  0  0  0  0
  5 25  1  0  0  0  0
  6  7  1  0  0  0  0
  6 18  1  0  0  0  0
  7  8  1  0  0  0  0
  7 26  1  0  0  0  0
  7 27  1  0  0  0  0
  8  9  2  0  0  0  0
  8 10  1  0  0  0  0
 10 11  1  0  0  0  0
 10 28  1  0  0  0  0
 11 12  1  0  0  0  0
 11 13  1  0  0  0  0
 11 29  1  0  0  0  0
 12 30  1  0  0  0  0
 12 31  1  0  0  0  0
 12 32  1  0  0  0  0
 13 17  1  0  0  0  0
 13 14  1  0  0  0  0
 13 33  1  0  0  0  0
 14 15  1  0  0  0  0
 14 34  1  0  0  0  0
 14 35  1  0  0  0  0
 15 16  1  0  0  0  0
 15 36  1  0  0  0  0
 15 37  1  0  0  0  0
 16 17  1  0  0  0  0
 16 38  1  0  0  0  0
 16 39  1  0  0  0  0
M  END
> <s_m_source_file>
AV-unprocessed.smi

> <i_m_source_file_index>
2204

> <i_lp_mmshare_version>
43012

> <i_f3d_flags>
0

> <s_epik_input>
W0NIM11jMVtjSF1jKFtDSDNdKW4objEpW0NIMl1DKD1PKVtOSF1bQ0BIXShbQ0gzXSlbQ0BASF0yW0NIMl1bQ0gyXVtDSDJdTzI=

> <s_epik_cmdline>
J2VwaWtfcHl0aG9uJywgJy1waCcsICc3LjAnLCAnLXRuJywgJzgnLCAnLW1hJywgJzIwMCcsICctbWV0YWxfYmluZGluZycsICctaW1hZScsICc8aW5maWxlLm1hZT4nLCAnLW9tYWUnLCAnPG91dGZpbGUubWFlPic=

> <r_lp_tautomer_probability>
1

> <r_epik_Ionization_Penalty>
0.000433354

> <r_epik_Ionization_Penalty_Charging>
0

> <r_epik_Ionization_Penalty_Neutral>
0.000433354

> <r_epik_State_Penalty>
-0

> <r_epik_Charging_Adjusted_Penalty>
0

> <i_epik_Tot_Q>
0

> <i_epik_Tot_abs_Q>
0

> <r_epik_Metal_State_Penalty>
-0

> <b_epik_Metal_Only>
0

> <s_lp_Force_Field>
OPLS_2005

> <r_lp_Energy>
15.4652

> <b_lp_Chiralities_Consistent>
1

> <s_lp_Variant>
AV-unprocessed.smi:2204-4

> <Gold.Version>
5.8.1

> <Gold.Id.Protein>
6NUR|6NUR_protein|mol2

> <Gold.PLP.Fitness>
43.0116

> <Gold.PLP.PLP>
-42.1170

> <Gold.PLP.part.hbond>
-1.0000

> <Gold.PLP.part.metal>
0.0000

> <Gold.PLP.part.buried>
-5.9727

> <Gold.PLP.part.nonpolar>
-34.9854

> <Gold.PLP.part.repulsive>
1.1696

> <Gold.PLP.ligand.clash>
0.0000

> <Gold.PLP.ligand.torsion>
1.0707

> <Gold.PLP.Chemscore.Hbond>
1.0000

> <Gold.PLP.Chemscore.CHOScore>
0.0000

> <Gold.PLP.Chemscore.Metal>
0.0000

> <Gold.Chemscore.Hbonds>
donor molecule, donor type, donor heavy atom, donor atom, acceptor molecule, acceptor atom, score
      L1  H    10    28       P1  8028  1.00

> <Gold.PLP.Chemscore.Internal.Correction>
0.0360

> <Gold.Rescore>
     Score         DG    S(hbond)    S(metal)    S(lipo)     H(rot)  DE(clash)    DE(int)     intcor
     14.42     -16.94       0.99        0.00     102.48       1.50       0.15       2.37       ----

> <Gold.Chemscore.Fitness>
14.4175

> <Gold.Chemscore.DG>
-16.9358

> <Gold.Chemscore.ZeroCoef>
-5.4800

> <Gold.Chemscore.Hbond>
0.9900

> <Gold.Chemscore.Metal>
0.0000

> <Gold.Chemscore.Lipo>
102.4823

> <Gold.Chemscore.Internal_Hbond>
0.0000

> <Gold.Chemscore.DEClash>
0.1498

> <Gold.Chemscore.DEInternal>
2.3685

> <Gold.Chemscore.Rot>
1.5005

> <Gold.Chemscore.Internal.Correction>
   9.000000E+99

> <Gold.Chemscore.Hbonds>
donor molecule, donor type, donor heavy atom, donor atom, acceptor molecule, acceptor atom, score
      L1  H    10    28       P1  8028  0.95

> <Gold.Chemscore.Hbond.Weighted>
-3.3066

> <Gold.Chemscore.Metal.Weighted>
-0.0000

> <Gold.Chemscore.Lipo.Weighted>
-11.9904

> <Gold.Chemscore.Internal_Hbond.Weighted>
0.0000

> <Gold.Chemscore.DEClash.Weighted>
0.1498

> <Gold.Chemscore.DEInternal.Weighted>
2.3685

> <Gold.Chemscore.Rot.Weighted>
3.8412

> <Gold.Chemscore.Internal.Correction.Weighted>
   9.000000E+99

> <Gold.Protein.RotatedTorsions>
[ 6907 6896 6895 6894 ] final  152.78 input  -60.11 | X-H torsion
[ 7974 7965 7964 7962 ] final -116.81 input  175.53 | X-H torsion
[ 8008 7997 7996 7995 ] final  165.98 input   59.86 | X-H torsion
[ 10167 10162 10161 10158 ] final   77.16 input  -65.29 | X-H torsion
[ 10718 10713 10712 10709 ] final -108.92 input   66.30 | X-H torsion
[ 10763 10752 10751 10750 ] final -130.59 input  -60.55 | X-H torsion
[ 11005 11000 10999 10996 ] final    0.18 input  -57.11 | X-H torsion

> <Gold.Protein.ActiveResidues>
 VAL166  LYS551  ARG553  GLY616  TRP617  ASP618  TYR619  PRO620  LYS621  CYS622 
 ASP623  PHE694  ASN695  SER759  ASP760  ASP761  ALA762  ILE779  LEU786  VAL792 
 PHE793  MET794  SER795  GLU796  ALA797  LYS798  CYS799  TRP800  GLU811  SER814 

> <Gold.Protein.RotatedAtoms>
  152.0819  133.4157  159.4504 H   0  0  0  0  0  0  0  0  0  0  0  0  # atno 6907 bound_to 6896
  150.6862  134.2972  159.4700 H   0  0  0  0  0  0  0  0  0  0  0  0  # atno 6908 bound_to 6896
  152.0815  134.9467  160.0624 H   0  0  0  0  0  0  0  0  0  0  0  0  # atno 6909 bound_to 6896
  145.0925  140.8499  143.3974 H   0  0  0  0  0  0  0  0  0  0  0  0  # atno 7974 bound_to 7965
  156.1756  140.1655  156.8368 H   0  0  0  0  0  0  0  0  0  0  0  0  # atno 8008 bound_to 7997
  154.5303  140.0758  156.8367 H   0  0  0  0  0  0  0  0  0  0  0  0  # atno 8009 bound_to 7997
  155.3420  140.3385  155.4241 H   0  0  0  0  0  0  0  0  0  0  0  0  # atno 8010 bound_to 7997
  139.9846  144.5802  150.7871 H   0  0  0  0  0  0  0  0  0  0  0  0  # atno 10167 bound_to 10162
  156.0510  130.5737  150.8028 H   0  0  0  0  0  0  0  0  0  0  0  0  # atno 10718 bound_to 10713
  154.8755  135.3857  154.4108 H   0  0  0  0  0  0  0  0  0  0  0  0  # atno 10763 bound_to 10752
  153.4822  135.7030  153.5936 H   0  0  0  0  0  0  0  0  0  0  0  0  # atno 10764 bound_to 10752
  153.4347  135.3870  155.2159 H   0  0  0  0  0  0  0  0  0  0  0  0  # atno 10765 bound_to 10752
  140.6295  133.9588  155.8266 H   0  0  0  0  0  0  0  0  0  0  0  0  # atno 11005 bound_to 11000
  145.1049  139.2796  143.5667 LP  0  0  0  0  0  0  0  0  0  0  0  0  # atno 17320 bound_to 7965
  146.3531  140.0628  142.8628 LP  0  0  0  0  0  0  0  0  0  0  0  0  # atno 17321 bound_to 7965
  140.7477  143.2910  151.3330 LP  0  0  0  0  0  0  0  0  0  0  0  0  # atno 17342 bound_to 10162
  139.6385  144.0585  152.2535 LP  0  0  0  0  0  0  0  0  0  0  0  0  # atno 17343 bound_to 10162
  157.5436  131.0941  150.9793 LP  0  0  0  0  0  0  0  0  0  0  0  0  # atno 17370 bound_to 10713
  157.0070  130.5622  149.5317 LP  0  0  0  0  0  0  0  0  0  0  0  0  # atno 17371 bound_to 10713
  141.0686  134.0240  157.3559 LP  0  0  0  0  0  0  0  0  0  0  0  0  # atno 17394 bound_to 11000
  139.9122  135.0192  156.7737 LP  0  0  0  0  0  0  0  0  0  0  0  0  # atno 17395 bound_to 11000

$$$$
