AV-unprocessed.smi:1878|AV-procd|sdf|7627|dock5
  -GOLD-   22720 9353D 1   1.00000     0.00000
 Structure written by MMmdl.
 36 37  0  0  0  0  0  0  0  0  2 V2000
  146.9914  140.2451  153.7247 O   0  0  0  0  0  0  0  0  0  0  0  0
  147.8121  139.3668  153.4606 C   0  0  0  0  0  0  0  0  0  0  0  0
  147.5767  138.3698  152.5969 N   0  0  0  0  0  0  0  0  0  0  0  0
  146.3262  138.1646  151.8726 C   0  0  0  0  0  0  0  0  0  0  0  0
  145.6015  136.8864  152.3276 C   0  0  0  0  0  0  0  0  0  0  0  0
  146.2382  136.3735  153.3795 F   0  0  0  0  0  0  0  0  0  0  0  0
  144.3486  137.1706  152.6840 F   0  0  0  0  0  0  0  0  0  0  0  0
  145.5843  135.9754  151.3546 F   0  0  0  0  0  0  0  0  0  0  0  0
  149.0375  139.2613  154.0028 N   0  0  0  0  0  0  0  0  0  0  0  0
  149.6605  140.1154  154.9524 C   0  0  0  0  0  0  0  0  0  0  0  0
  150.7465  139.7267  155.7763 C   0  0  0  0  0  0  0  0  0  0  0  0
  151.2812  140.6479  156.7001 C   0  0  0  0  0  0  0  0  0  0  0  0
  150.7210  141.9431  156.7965 C   0  0  0  0  0  0  0  0  0  0  0  0
  151.1836  142.9303  157.6778 N   0  0  0  0  0  0  0  0  0  0  0  0
  151.7256  144.1121  157.0279 C   0  0  0  0  0  0  0  0  0  0  0  0
  152.5409  144.8373  158.1018 C   0  0  0  0  0  0  0  0  0  0  0  0
  152.8431  143.7678  159.1583 C   0  0  0  0  0  0  0  0  0  0  0  0
  152.1996  142.4882  158.6184 C   0  0  0  0  0  0  0  0  0  0  0  0
  149.6788  142.2683  156.0011 N   0  3  0  0  0  0  0  0  0  0  0  0
  149.1362  141.4162  155.1046 C   0  0  0  0  0  0  0  0  0  0  0  0
  148.3054  137.6887  152.4422 H   0  0  0  0  0  0  0  0  0  0  0  0
  145.6725  139.0321  151.9794 H   0  0  0  0  0  0  0  0  0  0  0  0
  146.5649  138.0918  150.8112 H   0  0  0  0  0  0  0  0  0  0  0  0
  149.5632  138.4371  153.7504 H   0  0  0  0  0  0  0  0  0  0  0  0
  151.1731  138.7369  155.7289 H   0  0  0  0  0  0  0  0  0  0  0  0
  152.1111  140.3551  157.3264 H   0  0  0  0  0  0  0  0  0  0  0  0
  152.3700  143.8303  156.1940 H   0  0  0  0  0  0  0  0  0  0  0  0
  150.9277  144.7442  156.6368 H   0  0  0  0  0  0  0  0  0  0  0  0
  153.4477  145.2773  157.6857 H   0  0  0  0  0  0  0  0  0  0  0  0
  151.9545  145.6428  158.5454 H   0  0  0  0  0  0  0  0  0  0  0  0
  153.9129  143.6396  159.3268 H   0  0  0  0  0  0  0  0  0  0  0  0
  152.3886  144.0480  160.1096 H   0  0  0  0  0  0  0  0  0  0  0  0
  151.7593  141.8936  159.4194 H   0  0  0  0  0  0  0  0  0  0  0  0
  152.9497  141.8746  158.1183 H   0  0  0  0  0  0  0  0  0  0  0  0
  148.3052  141.8042  154.5332 H   0  0  0  0  0  0  0  0  0  0  0  0
  149.2812  143.2046  156.0825 H   0  0  0  0  0  0  0  0  0  0  0  0
  1  2  2  0  0  0  0
  2  3  1  0  0  0  0
  2  9  1  0  0  0  0
  3  4  1  0  0  0  0
  3 21  1  0  0  0  0
  4  5  1  0  0  0  0
  4 22  1  0  0  0  0
  4 23  1  0  0  0  0
  5  6  1  0  0  0  0
  5  7  1  0  0  0  0
  5  8  1  0  0  0  0
  9 10  1  0  0  0  0
  9 24  1  0  0  0  0
 10 20  1  0  0  0  0
 10 11  2  0  0  0  0
 11 12  1  0  0  0  0
 11 25  1  0  0  0  0
 12 13  2  0  0  0  0
 12 26  1  0  0  0  0
 13 14  1  0  0  0  0
 13 19  1  0  0  0  0
 14 18  1  0  0  0  0
 14 15  1  0  0  0  0
 15 16  1  0  0  0  0
 15 27  1  0  0  0  0
 15 28  1  0  0  0  0
 16 17  1  0  0  0  0
 16 29  1  0  0  0  0
 16 30  1  0  0  0  0
 17 18  1  0  0  0  0
 17 31  1  0  0  0  0
 17 32  1  0  0  0  0
 18 33  1  0  0  0  0
 18 34  1  0  0  0  0
 19 20  2  0  0  0  0
 19 36  1  0  0  0  0
 20 35  1  0  0  0  0
M  CHG  1  19   1
M  END
> <s_m_source_file>
AV-unprocessed.smi

> <i_m_source_file_index>
1878

> <i_lp_mmshare_version>
43012

> <i_f3d_flags>
0

> <s_epik_input>
RkMoRikoRilbQ0gyXVtOSF1DKD1PKVtOSF1jMVtjSF1bY0hdYyhuW2NIXTEpTjJbQ0gyXVtDSDJdW0NIMl1bQ0gyXTI=

> <s_epik_cmdline>
J2VwaWtfcHl0aG9uJywgJy1waCcsICc3LjAnLCAnLXRuJywgJzgnLCAnLW1hJywgJzIwMCcsICctbWV0YWxfYmluZGluZycsICctaW1hZScsICc8aW5maWxlLm1hZT4nLCAnLW9tYWUnLCAnPG91dGZpbGUubWFlPic=

> <r_lp_tautomer_probability>
0.999994

> <r_epik_Ionization_Penalty>
1.23546

> <r_epik_Ionization_Penalty_Charging>
1.23541

> <r_epik_Ionization_Penalty_Neutral>
4.98032e-05

> <r_epik_State_Penalty>
1.30389

> <r_epik_Charging_Adjusted_Penalty>
2.5393

> <i_epik_Tot_Q>
1

> <i_epik_Tot_abs_Q>
1

> <r_epik_Metal_State_Penalty>
1.39467

> <b_epik_Metal_Only>
0

> <s_lp_Force_Field>
OPLS_2005

> <r_lp_Energy>
38.4411

> <b_lp_Chiralities_Consistent>
1

> <s_lp_Variant>
AV-unprocessed.smi:1878-2

> <Gold.Version>
5.8.1

> <Gold.Id.Protein>
6NUR|6NUR_protein|mol2

> <Gold.PLP.Fitness>
47.2206

> <Gold.PLP.PLP>
-40.7218

> <Gold.PLP.part.hbond>
-4.0000

> <Gold.PLP.part.metal>
0.0000

> <Gold.PLP.part.buried>
-1.1576

> <Gold.PLP.part.nonpolar>
-37.4853

> <Gold.PLP.part.repulsive>
0.5124

> <Gold.PLP.ligand.clash>
0.0000

> <Gold.PLP.ligand.torsion>
1.2618

> <Gold.PLP.Chemscore.Hbond>
3.0000

> <Gold.PLP.Chemscore.CHOScore>
0.0000

> <Gold.PLP.Chemscore.Metal>
0.0000

> <Gold.Chemscore.Hbonds>
donor molecule, donor type, donor heavy atom, donor atom, acceptor molecule, acceptor atom, score
      L1  H     3    21       P1  7948  1.00
      L1  H    19    36       P1  8028  2.00

> <Gold.PLP.Chemscore.Internal.Correction>
0.0225

> <Gold.Rescore>
     Score         DG    S(hbond)    S(metal)    S(lipo)     H(rot)  DE(clash)    DE(int)     intcor
     16.24     -18.92       1.95        0.00      88.69       1.34       0.15       2.54       ----

> <Gold.Chemscore.Fitness>
16.2376

> <Gold.Chemscore.DG>
-18.9235

> <Gold.Chemscore.ZeroCoef>
-5.4800

> <Gold.Chemscore.Hbond>
1.9474

> <Gold.Chemscore.Metal>
0.0000

> <Gold.Chemscore.Lipo>
88.6936

> <Gold.Chemscore.Internal_Hbond>
0.0000

> <Gold.Chemscore.DEClash>
0.1499

> <Gold.Chemscore.DEInternal>
2.5360

> <Gold.Chemscore.Rot>
1.3430

> <Gold.Chemscore.Internal.Correction>
   9.000000E+99

> <Gold.Chemscore.Hbonds>
donor molecule, donor type, donor heavy atom, donor atom, acceptor molecule, acceptor atom, score
      L1  H     3    21       P1  7948  0.98
      L1  H    19    36       P1  8028  0.99

> <Gold.Chemscore.Hbond.Weighted>
-6.5044

> <Gold.Chemscore.Metal.Weighted>
-0.0000

> <Gold.Chemscore.Lipo.Weighted>
-10.3771

> <Gold.Chemscore.Internal_Hbond.Weighted>
0.0000

> <Gold.Chemscore.DEClash.Weighted>
0.1499

> <Gold.Chemscore.DEInternal.Weighted>
2.5360

> <Gold.Chemscore.Rot.Weighted>
3.4381

> <Gold.Chemscore.Internal.Correction.Weighted>
   9.000000E+99

> <Gold.Protein.RotatedTorsions>
[ 6907 6896 6895 6894 ] final  -46.49 input  -60.11 | X-H torsion
[ 7974 7965 7964 7962 ] final  -67.03 input  175.53 | X-H torsion
[ 8008 7997 7996 7995 ] final  -21.50 input   59.86 | X-H torsion
[ 10167 10162 10161 10158 ] final   -4.03 input  -65.29 | X-H torsion
[ 10718 10713 10712 10709 ] final -173.70 input   66.30 | X-H torsion
[ 10763 10752 10751 10750 ] final  -47.22 input  -60.55 | X-H torsion
[ 11005 11000 10999 10996 ] final -118.00 input  -57.11 | X-H torsion

> <Gold.Protein.ActiveResidues>
 VAL166  LYS551  ARG553  GLY616  TRP617  ASP618  TYR619  PRO620  LYS621  CYS622 
 ASP623  PHE694  ASN695  SER759  ASP760  ASP761  ALA762  ILE779  LEU786  VAL792 
 PHE793  MET794  SER795  GLU796  ALA797  LYS798  CYS799  TRP800  GLU811  SER814 

> <Gold.Protein.RotatedAtoms>
  150.9107  134.8523  159.7422 H   0  0  0  0  0  0  0  0  0  0  0  0  # atno 6907 bound_to 6896
  152.4942  134.4364  159.9539 H   0  0  0  0  0  0  0  0  0  0  0  0  # atno 6908 bound_to 6896
  151.4407  133.3605  159.2816 H   0  0  0  0  0  0  0  0  0  0  0  0  # atno 6909 bound_to 6896
  145.7343  140.8983  143.0563 H   0  0  0  0  0  0  0  0  0  0  0  0  # atno 7974 bound_to 7965
  154.4701  140.2033  156.0015 H   0  0  0  0  0  0  0  0  0  0  0  0  # atno 8008 bound_to 7997
  156.0997  140.3246  155.7895 H   0  0  0  0  0  0  0  0  0  0  0  0  # atno 8009 bound_to 7997
  155.4819  140.0539  157.2956 H   0  0  0  0  0  0  0  0  0  0  0  0  # atno 8010 bound_to 7997
  140.6912  143.6471  150.8383 H   0  0  0  0  0  0  0  0  0  0  0  0  # atno 10167 bound_to 10162
  156.7742  130.9459  151.3120 H   0  0  0  0  0  0  0  0  0  0  0  0  # atno 10718 bound_to 10713
  154.0579  135.6622  153.4808 H   0  0  0  0  0  0  0  0  0  0  0  0  # atno 10763 bound_to 10752
  153.0438  135.5127  154.7688 H   0  0  0  0  0  0  0  0  0  0  0  0  # atno 10764 bound_to 10752
  154.6715  135.3030  154.9703 H   0  0  0  0  0  0  0  0  0  0  0  0  # atno 10765 bound_to 10752
  141.0316  133.9972  157.3134 H   0  0  0  0  0  0  0  0  0  0  0  0  # atno 11005 bound_to 11000
  144.6885  139.9373  143.7474 LP  0  0  0  0  0  0  0  0  0  0  0  0  # atno 17320 bound_to 7965
  146.0508  139.3509  143.0640 LP  0  0  0  0  0  0  0  0  0  0  0  0  # atno 17321 bound_to 7965
  140.0184  143.5568  152.2810 LP  0  0  0  0  0  0  0  0  0  0  0  0  # atno 17342 bound_to 10162
  139.6317  144.7645  151.2522 LP  0  0  0  0  0  0  0  0  0  0  0  0  # atno 17343 bound_to 10162
  157.6677  130.9022  149.9969 LP  0  0  0  0  0  0  0  0  0  0  0  0  # atno 17370 bound_to 10713
  156.1259  130.3644  149.9811 LP  0  0  0  0  0  0  0  0  0  0  0  0  # atno 17371 bound_to 10713
  139.9212  135.0200  156.8069 LP  0  0  0  0  0  0  0  0  0  0  0  0  # atno 17394 bound_to 11000
  140.6396  133.9830  155.7701 LP  0  0  0  0  0  0  0  0  0  0  0  0  # atno 17395 bound_to 11000

$$$$
