AV-unprocessed.smi:3022|AV-procd|sdf|11500|dock2
  -GOLD-   2272016433D 1   1.00000     0.00000
 Structure written by MMmdl.
 47 49  0  0  0  0  0  0  0  0  2 V2000
  150.9760  143.2806  156.5168 O   0  0  0  0  0  0  0  0  0  0  0  0
  150.6118  141.9857  156.9429 C   0  0  0  0  0  0  0  0  0  0  0  0
  151.4515  140.9378  156.2002 C   0  0  0  0  0  0  0  0  0  0  0  0
  150.6288  140.1174  155.3303 N   0  0  0  0  0  0  0  0  0  0  0  0
  151.1361  138.9432  154.8617 N   0  0  0  0  0  0  0  0  0  0  0  0
  150.1934  138.4077  154.1219 C   0  0  0  0  0  0  0  0  0  0  0  0
  149.0207  139.2276  154.0887 C   0  0  0  0  0  0  0  0  0  0  0  0
  147.7268  139.2208  153.5152 C   0  0  0  0  0  0  0  0  0  0  0  0
  147.2901  138.1657  152.7029 N   0  0  0  0  0  0  0  0  0  0  0  0
  145.8988  137.7392  152.7232 C   0  0  0  0  0  0  0  0  0  0  0  0
  145.7701  136.2696  153.1554 C   0  0  0  0  0  0  0  0  0  0  0  0
  146.2478  135.3196  152.1153 N   0  3  0  0  0  0  0  0  0  0  0  0
  145.5431  135.5020  150.8154 C   0  0  0  0  0  0  0  0  0  0  0  0
  144.2131  134.7341  150.6939 C   0  0  0  0  0  0  0  0  0  0  0  0
  144.3932  133.3316  150.0928 C   0  0  0  0  0  0  0  0  0  0  0  0
  145.1115  132.3400  151.0174 C   0  0  0  0  0  0  0  0  0  0  0  0
  146.4746  132.8297  151.5353 C   0  0  0  0  0  0  0  0  0  0  0  0
  146.3493  133.9190  152.6185 C   0  0  0  0  0  0  0  0  0  0  0  0
  146.9003  140.2668  153.7712 N   0  0  0  0  0  0  0  0  0  0  0  0
  147.3279  141.2657  154.5532 C   0  0  0  0  0  0  0  0  0  0  0  0
  148.5105  141.4073  155.1605 N   0  0  0  0  0  0  0  0  0  0  0  0
  149.3333  140.3521  154.8944 C   0  0  0  0  0  0  0  0  0  0  0  0
  150.2015  143.7236  156.2052 H   0  0  0  0  0  0  0  0  0  0  0  0
  150.7646  141.9104  158.0200 H   0  0  0  0  0  0  0  0  0  0  0  0
  149.5489  141.8340  156.7511 H   0  0  0  0  0  0  0  0  0  0  0  0
  152.2191  141.4231  155.5959 H   0  0  0  0  0  0  0  0  0  0  0  0
  151.9712  140.2908  156.9088 H   0  0  0  0  0  0  0  0  0  0  0  0
  150.3692  137.4585  153.6379 H   0  0  0  0  0  0  0  0  0  0  0  0
  145.3386  138.3777  153.4078 H   0  0  0  0  0  0  0  0  0  0  0  0
  145.4820  137.8845  151.7263 H   0  0  0  0  0  0  0  0  0  0  0  0
  146.3104  136.0967  154.0874 H   0  0  0  0  0  0  0  0  0  0  0  0
  144.7177  136.0743  153.3662 H   0  0  0  0  0  0  0  0  0  0  0  0
  145.3616  136.5644  150.6500 H   0  0  0  0  0  0  0  0  0  0  0  0
  146.2156  135.2139  150.0068 H   0  0  0  0  0  0  0  0  0  0  0  0
  143.6857  134.6911  151.6475 H   0  0  0  0  0  0  0  0  0  0  0  0
  143.5620  135.2949  150.0221 H   0  0  0  0  0  0  0  0  0  0  0  0
  143.4129  132.9239  149.8437 H   0  0  0  0  0  0  0  0  0  0  0  0
  144.9309  133.4051  149.1467 H   0  0  0  0  0  0  0  0  0  0  0  0
  144.4660  132.0910  151.8605 H   0  0  0  0  0  0  0  0  0  0  0  0
  145.2563  131.4071  150.4715 H   0  0  0  0  0  0  0  0  0  0  0  0
  146.9711  131.9713  151.9897 H   0  0  0  0  0  0  0  0  0  0  0  0
  147.1267  133.1429  150.7194 H   0  0  0  0  0  0  0  0  0  0  0  0
  147.2351  133.8681  153.2520 H   0  0  0  0  0  0  0  0  0  0  0  0
  145.5028  133.6912  153.2684 H   0  0  0  0  0  0  0  0  0  0  0  0
  146.6209  142.0657  154.7163 H   0  0  0  0  0  0  0  0  0  0  0  0
  147.9477  137.6864  152.1046 H   0  0  0  0  0  0  0  0  0  0  0  0
  147.1971  135.6041  151.9193 H   0  0  0  0  0  0  0  0  0  0  0  0
  1  2  1  0  0  0  0
  1 23  1  0  0  0  0
  2  3  1  0  0  0  0
  2 24  1  0  0  0  0
  2 25  1  0  0  0  0
  3  4  1  0  0  0  0
  3 26  1  0  0  0  0
  3 27  1  0  0  0  0
  4 22  1  0  0  0  0
  4  5  1  0  0  0  0
  5  6  2  0  0  0  0
  6  7  1  0  0  0  0
  6 28  1  0  0  0  0
  7 22  1  0  0  0  0
  7  8  2  0  0  0  0
  8  9  1  0  0  0  0
  8 19  1  0  0  0  0
  9 10  1  0  0  0  0
  9 46  1  0  0  0  0
 10 11  1  0  0  0  0
 10 29  1  0  0  0  0
 10 30  1  0  0  0  0
 11 12  1  0  0  0  0
 11 31  1  0  0  0  0
 11 32  1  0  0  0  0
 12 18  1  0  0  0  0
 12 13  1  0  0  0  0
 12 47  1  0  0  0  0
 13 14  1  0  0  0  0
 13 33  1  0  0  0  0
 13 34  1  0  0  0  0
 14 15  1  0  0  0  0
 14 35  1  0  0  0  0
 14 36  1  0  0  0  0
 15 16  1  0  0  0  0
 15 37  1  0  0  0  0
 15 38  1  0  0  0  0
 16 17  1  0  0  0  0
 16 39  1  0  0  0  0
 16 40  1  0  0  0  0
 17 18  1  0  0  0  0
 17 41  1  0  0  0  0
 17 42  1  0  0  0  0
 18 43  1  0  0  0  0
 18 44  1  0  0  0  0
 19 20  2  0  0  0  0
 20 21  1  0  0  0  0
 20 45  1  0  0  0  0
 21 22  2  0  0  0  0
M  CHG  1  12   1
M  END
> <s_m_source_file>
AV-unprocessed.smi

> <i_m_source_file_index>
3022

> <i_lp_mmshare_version>
43012

> <i_f3d_flags>
0

> <s_epik_input>
W09IXVtDSDJdW0NIMl1uKFtuSF1bY0hdMSljKGMxMiluW2NIXW5jXDI9TlxbQ0gyXVtDSDJdTjNbQ0gyXVtDSDJdW0NIMl1bQ0gyXVtDSDJdW0NIMl0z

> <s_epik_cmdline>
J2VwaWtfcHl0aG9uJywgJy1waCcsICc3LjAnLCAnLXRuJywgJzgnLCAnLW1hJywgJzIwMCcsICctbWV0YWxfYmluZGluZycsICctaW1hZScsICc8aW5maWxlLm1hZT4nLCAnLW9tYWUnLCAnPG91dGZpbGUubWFlPic=

> <r_lp_tautomer_probability>
1

> <r_epik_Ionization_Penalty>
0.000898909

> <r_epik_Ionization_Penalty_Charging>
0.000843316

> <r_epik_Ionization_Penalty_Neutral>
5.55928e-05

> <r_epik_State_Penalty>
-0

> <r_epik_Charging_Adjusted_Penalty>
0.000843316

> <i_epik_Tot_Q>
1

> <i_epik_Tot_abs_Q>
1

> <r_epik_Metal_State_Penalty>
-0

> <b_epik_Metal_Only>
0

> <s_lp_Force_Field>
OPLS_2005

> <r_lp_Energy>
21.5198

> <b_lp_Chiralities_Consistent>
1

> <s_lp_Variant>
AV-unprocessed.smi:3022-1

> <Gold.Version>
5.8.1

> <Gold.Id.Protein>
6NUR|6NUR_protein|mol2

> <Gold.PLP.Fitness>
53.4568

> <Gold.PLP.PLP>
-39.8045

> <Gold.PLP.part.hbond>
-3.0646

> <Gold.PLP.part.metal>
0.0000

> <Gold.PLP.part.buried>
-5.4624

> <Gold.PLP.part.nonpolar>
-31.8966

> <Gold.PLP.part.repulsive>
0.4435

> <Gold.PLP.ligand.clash>
0.0000

> <Gold.PLP.ligand.torsion>
0.8759

> <Gold.PLP.Chemscore.Hbond>
3.9600

> <Gold.PLP.Chemscore.CHOScore>
1.1057

> <Gold.PLP.Chemscore.Metal>
0.0000

> <Gold.Chemscore.Hbonds>
donor molecule, donor type, donor heavy atom, donor atom, acceptor molecule, acceptor atom, score
      L1  H     1    23       P1  8028  1.00
      L1  H     9    46       P1  7948  0.96
      L1  H    12    47       P1  7948  2.00
      L1  C     6    28       P1  7948  0.87
      L1  C     6    28       P1  7949  0.23

> <Gold.PLP.Chemscore.Internal.Correction>
0.2070

> <Gold.Rescore>
     Score         DG    S(hbond)    S(metal)    S(lipo)     H(rot)  DE(clash)    DE(int)     intcor
     15.10     -17.28       2.94        0.00      77.81       2.79       0.06       2.12       ----

> <Gold.Chemscore.Fitness>
15.0977

> <Gold.Chemscore.DG>
-17.2821

> <Gold.Chemscore.ZeroCoef>
-5.4800

> <Gold.Chemscore.Hbond>
2.9443

> <Gold.Chemscore.Metal>
0.0000

> <Gold.Chemscore.Lipo>
77.8113

> <Gold.Chemscore.Internal_Hbond>
0.0000

> <Gold.Chemscore.DEClash>
0.0621

> <Gold.Chemscore.DEInternal>
2.1223

> <Gold.Chemscore.Rot>
2.7874

> <Gold.Chemscore.Internal.Correction>
   9.000000E+99

> <Gold.Chemscore.Hbonds>
donor molecule, donor type, donor heavy atom, donor atom, acceptor molecule, acceptor atom, score
      L1  H     1    23       P1  8028  1.00
      L1  H     9    46       P1  7948  0.92
      L1  H    12    47       P1  7948  1.00

> <Gold.Chemscore.Hbond.Weighted>
-9.8340

> <Gold.Chemscore.Metal.Weighted>
-0.0000

> <Gold.Chemscore.Lipo.Weighted>
-9.1039

> <Gold.Chemscore.Internal_Hbond.Weighted>
0.0000

> <Gold.Chemscore.DEClash.Weighted>
0.0621

> <Gold.Chemscore.DEInternal.Weighted>
2.1223

> <Gold.Chemscore.Rot.Weighted>
7.1358

> <Gold.Chemscore.Internal.Correction.Weighted>
   9.000000E+99

> <Gold.Protein.RotatedTorsions>
[ 6907 6896 6895 6894 ] final   40.21 input  -60.11 | X-H torsion
[ 7974 7965 7964 7962 ] final -103.95 input  175.53 | X-H torsion
[ 8008 7997 7996 7995 ] final   82.60 input   59.86 | X-H torsion
[ 10167 10162 10161 10158 ] final  155.45 input  -65.29 | X-H torsion
[ 10718 10713 10712 10709 ] final  -39.55 input   66.30 | X-H torsion
[ 10763 10752 10751 10750 ] final -135.53 input  -60.55 | X-H torsion
[ 11005 11000 10999 10996 ] final   67.78 input  -57.11 | X-H torsion

> <Gold.Protein.ActiveResidues>
 VAL166  LYS551  ARG553  GLY616  TRP617  ASP618  TYR619  PRO620  LYS621  CYS622 
 ASP623  PHE694  ASN695  SER759  ASP760  ASP761  ALA762  ILE779  LEU786  VAL792 
 PHE793  MET794  SER795  GLU796  ALA797  LYS798  CYS799  TRP800  GLU811  SER814 

> <Gold.Protein.RotatedAtoms>
  152.1795  134.8766  160.0527 H   0  0  0  0  0  0  0  0  0  0  0  0  # atno 6907 bound_to 6896
  151.9695  133.3716  159.4074 H   0  0  0  0  0  0  0  0  0  0  0  0  # atno 6908 bound_to 6896
  150.6915  134.4078  159.5192 H   0  0  0  0  0  0  0  0  0  0  0  0  # atno 6909 bound_to 6896
  145.2493  140.9232  143.3104 H   0  0  0  0  0  0  0  0  0  0  0  0  # atno 7974 bound_to 7965
  155.9128  140.3426  155.6112 H   0  0  0  0  0  0  0  0  0  0  0  0  # atno 8008 bound_to 7997
  155.7367  140.0802  157.2283 H   0  0  0  0  0  0  0  0  0  0  0  0  # atno 8009 bound_to 7997
  154.4058  140.1578  156.2557 H   0  0  0  0  0  0  0  0  0  0  0  0  # atno 8010 bound_to 7997
  139.4821  144.5097  151.8043 H   0  0  0  0  0  0  0  0  0  0  0  0  # atno 10167 bound_to 10162
  156.2912  130.4228  149.8237 H   0  0  0  0  0  0  0  0  0  0  0  0  # atno 10718 bound_to 10713
  154.8701  135.3700  154.4913 H   0  0  0  0  0  0  0  0  0  0  0  0  # atno 10763 bound_to 10752
  153.5560  135.7024  153.5574 H   0  0  0  0  0  0  0  0  0  0  0  0  # atno 10764 bound_to 10752
  153.3671  135.4031  155.1725 H   0  0  0  0  0  0  0  0  0  0  0  0  # atno 10765 bound_to 10752
  139.9750  134.6837  156.0371 H   0  0  0  0  0  0  0  0  0  0  0  0  # atno 11005 bound_to 11000
  144.9517  139.4075  143.6399 LP  0  0  0  0  0  0  0  0  0  0  0  0  # atno 17320 bound_to 7965
  146.3307  139.8528  142.8870 LP  0  0  0  0  0  0  0  0  0  0  0  0  # atno 17321 bound_to 7965
  140.4599  144.1736  150.5905 LP  0  0  0  0  0  0  0  0  0  0  0  0  # atno 17342 bound_to 10162
  140.4495  143.2492  151.9366 LP  0  0  0  0  0  0  0  0  0  0  0  0  # atno 17343 bound_to 10162
  156.5649  130.8399  151.3340 LP  0  0  0  0  0  0  0  0  0  0  0  0  # atno 17370 bound_to 10713
  157.7343  130.9743  150.2021 LP  0  0  0  0  0  0  0  0  0  0  0  0  # atno 17371 bound_to 10713
  141.1428  133.6561  156.3779 LP  0  0  0  0  0  0  0  0  0  0  0  0  # atno 17394 bound_to 11000
  140.5213  134.6301  157.5319 LP  0  0  0  0  0  0  0  0  0  0  0  0  # atno 17395 bound_to 11000

$$$$
