AV-unprocessed.smi:2329|AV-procd|sdf|9305|dock6
  -GOLD-   2272012523D 1   1.00000     0.00000
 Structure written by MMmdl.
 45 48  0  0  0  0  0  0  0  0  1 V2000
  144.4262  136.1880  162.3984 C   0  0  0  0  0  0  0  0  0  0  0  0
  145.7582  135.8519  161.7621 C   0  0  0  0  0  0  0  0  0  0  0  0
  146.4532  134.6771  162.1109 C   0  0  0  0  0  0  0  0  0  0  0  0
  147.6844  134.4235  161.4805 C   0  0  0  0  0  0  0  0  0  0  0  0
  148.1667  135.3481  160.5345 C   0  0  0  0  0  0  0  0  0  0  0  0
  147.4076  136.5037  160.2431 C   0  0  0  0  0  0  0  0  0  0  0  0
  147.9824  137.3711  159.2786 N   0  0  0  0  0  0  0  0  0  0  0  0
  149.2719  137.4692  158.9003 C   0  0  0  0  0  0  0  0  0  0  0  0
  150.1910  136.7888  159.3526 O   0  0  0  0  0  0  0  0  0  0  0  0
  149.4907  138.3886  157.9436 N   0  0  0  0  0  0  0  0  0  0  0  0
  150.7683  138.7379  157.3195 C   0  0  1  0  0  0  0  0  0  0  0  0
  150.6347  138.9199  155.7989 C   0  0  2  0  0  0  0  0  0  0  0  0
  151.3319  137.9669  154.8670 C   0  0  0  0  0  0  0  0  0  0  0  0
  152.6340  138.7026  154.5392 C   0  0  0  0  0  0  0  0  0  0  0  0
  152.8093  139.6193  155.6169 O   0  0  0  0  0  0  0  0  0  0  0  0
  151.5255  140.1434  155.9477 C   0  0  2  0  0  0  0  0  0  0  0  0
  151.1738  140.2273  157.4483 C   0  0  0  0  0  0  0  0  0  0  0  0
  150.1155  141.2710  157.8132 C   0  0  0  0  0  0  0  0  0  0  0  0
  150.8735  142.5671  158.0959 C   0  0  0  0  0  0  0  0  0  0  0  0
  152.2442  142.1244  158.6157 C   0  0  0  0  0  0  0  0  0  0  0  0
  152.3050  140.6066  158.4041 C   0  0  0  0  0  0  0  0  0  0  0  0
  146.2206  136.7392  160.8553 N   0  0  0  0  0  0  0  0  0  0  0  0
  144.1705  135.4742  163.1819 H   0  0  0  0  0  0  0  0  0  0  0  0
  143.6340  136.1704  161.6493 H   0  0  0  0  0  0  0  0  0  0  0  0
  144.4577  137.1834  162.8425 H   0  0  0  0  0  0  0  0  0  0  0  0
  146.0562  133.9873  162.8410 H   0  0  0  0  0  0  0  0  0  0  0  0
  148.2502  133.5348  161.7183 H   0  0  0  0  0  0  0  0  0  0  0  0
  149.1113  135.1689  160.0417 H   0  0  0  0  0  0  0  0  0  0  0  0
  147.3350  137.9865  158.8086 H   0  0  0  0  0  0  0  0  0  0  0  0
  148.6795  138.8767  157.5921 H   0  0  0  0  0  0  0  0  0  0  0  0
  151.5902  138.0636  157.5713 H   0  0  0  0  0  0  0  0  0  0  0  0
  149.6237  139.1980  155.4949 H   0  0  0  0  0  0  0  0  0  0  0  0
  151.5361  137.0173  155.3628 H   0  0  0  0  0  0  0  0  0  0  0  0
  150.7512  137.7575  153.9684 H   0  0  0  0  0  0  0  0  0  0  0  0
  153.4857  138.0291  154.4413 H   0  0  0  0  0  0  0  0  0  0  0  0
  152.5329  139.2645  153.6094 H   0  0  0  0  0  0  0  0  0  0  0  0
  151.2257  140.9923  155.3312 H   0  0  0  0  0  0  0  0  0  0  0  0
  149.3692  141.4062  157.0296 H   0  0  0  0  0  0  0  0  0  0  0  0
  149.5795  140.9760  158.7158 H   0  0  0  0  0  0  0  0  0  0  0  0
  150.9982  143.1290  157.1695 H   0  0  0  0  0  0  0  0  0  0  0  0
  150.3448  143.2077  158.8022 H   0  0  0  0  0  0  0  0  0  0  0  0
  153.0387  142.6277  158.0635 H   0  0  0  0  0  0  0  0  0  0  0  0
  152.3704  142.3719  159.6703 H   0  0  0  0  0  0  0  0  0  0  0  0
  152.1672  140.1072  159.3631 H   0  0  0  0  0  0  0  0  0  0  0  0
  153.2850  140.3009  158.0376 H   0  0  0  0  0  0  0  0  0  0  0  0
  1  2  1  0  0  0  0
  1 23  1  0  0  0  0
  1 24  1  0  0  0  0
  1 25  1  0  0  0  0
  2 22  1  0  0  0  0
  2  3  2  0  0  0  0
  3  4  1  0  0  0  0
  3 26  1  0  0  0  0
  4  5  2  0  0  0  0
  4 27  1  0  0  0  0
  5  6  1  0  0  0  0
  5 28  1  0  0  0  0
  6  7  1  0  0  0  0
  6 22  2  0  0  0  0
  7  8  1  0  0  0  0
  7 29  1  0  0  0  0
  8  9  2  0  0  0  0
  8 10  1  0  0  0  0
 10 11  1  0  0  0  0
 10 30  1  0  0  0  0
 11 17  1  0  0  0  0
 11 12  1  0  0  0  0
 11 31  1  0  0  0  0
 12 16  1  0  0  0  0
 12 13  1  0  0  0  0
 12 32  1  0  0  0  0
 13 14  1  0  0  0  0
 13 33  1  0  0  0  0
 13 34  1  0  0  0  0
 14 15  1  0  0  0  0
 14 35  1  0  0  0  0
 14 36  1  0  0  0  0
 15 16  1  0  0  0  0
 16 17  1  0  0  0  0
 16 37  1  0  0  0  0
 17 21  1  0  0  0  0
 17 18  1  0  0  0  0
 18 19  1  0  0  0  0
 18 38  1  0  0  0  0
 18 39  1  0  0  0  0
 19 20  1  0  0  0  0
 19 40  1  0  0  0  0
 19 41  1  0  0  0  0
 20 21  1  0  0  0  0
 20 42  1  0  0  0  0
 20 43  1  0  0  0  0
 21 44  1  0  0  0  0
 21 45  1  0  0  0  0
M  END
> <s_m_source_file>
AV-unprocessed.smi

> <i_m_source_file_index>
2329

> <i_lp_mmshare_version>
43012

> <i_f3d_flags>
0

> <s_epik_input>
W0NIM11jMVtjSF1bY0hdW2NIXWMobjEpW05IXUMoPU8pW05IXVtDQEBIXTJbQ0BASF0oW0NIMl1bQ0gyXU8zKVtDQEhdM0MyNFtDSDJdW0NIMl1bQ0gyXVtDSDJdNA==

> <s_epik_cmdline>
J2VwaWtfcHl0aG9uJywgJy1waCcsICc3LjAnLCAnLXRuJywgJzgnLCAnLW1hJywgJzIwMCcsICctbWV0YWxfYmluZGluZycsICctaW1hZScsICc8aW5maWxlLm1hZT4nLCAnLW9tYWUnLCAnPG91dGZpbGUubWFlPic=

> <r_lp_tautomer_probability>
1

> <r_epik_Ionization_Penalty>
8.97002e-05

> <r_epik_Ionization_Penalty_Charging>
0

> <r_epik_Ionization_Penalty_Neutral>
8.97002e-05

> <r_epik_State_Penalty>
-0

> <r_epik_Charging_Adjusted_Penalty>
0

> <i_epik_Tot_Q>
0

> <i_epik_Tot_abs_Q>
0

> <r_epik_Metal_State_Penalty>
-0

> <b_epik_Metal_Only>
0

> <s_lp_Force_Field>
OPLS_2005

> <r_lp_Energy>
64.4638

> <b_lp_Chiralities_Consistent>
1

> <s_lp_Variant>
AV-unprocessed.smi:2329-4

> <Gold.Version>
5.8.1

> <Gold.Id.Protein>
6NUR|6NUR_protein|mol2

> <Gold.PLP.Fitness>
41.9575

> <Gold.PLP.PLP>
-36.2150

> <Gold.PLP.part.hbond>
-2.0000

> <Gold.PLP.part.metal>
0.0000

> <Gold.PLP.part.buried>
-6.7833

> <Gold.PLP.part.nonpolar>
-29.1310

> <Gold.PLP.part.repulsive>
0.6048

> <Gold.PLP.ligand.clash>
0.0000

> <Gold.PLP.ligand.torsion>
0.2206

> <Gold.PLP.Chemscore.Hbond>
2.0000

> <Gold.PLP.Chemscore.CHOScore>
0.0000

> <Gold.PLP.Chemscore.Metal>
0.0000

> <Gold.Chemscore.Hbonds>
donor molecule, donor type, donor heavy atom, donor atom, acceptor molecule, acceptor atom, score
      P1  H  6896  6909       L1     9  1.00
      P1  H  7997  8010       L1    15  1.00

> <Gold.PLP.Chemscore.Internal.Correction>
0.1838

> <Gold.Rescore>
     Score         DG    S(hbond)    S(metal)    S(lipo)     H(rot)  DE(clash)    DE(int)     intcor
     19.39     -21.03       1.99        0.00      98.06       1.00       0.00       1.64       ----

> <Gold.Chemscore.Fitness>
19.3895

> <Gold.Chemscore.DG>
-21.0336

> <Gold.Chemscore.ZeroCoef>
-5.4800

> <Gold.Chemscore.Hbond>
1.9882

> <Gold.Chemscore.Metal>
0.0000

> <Gold.Chemscore.Lipo>
98.0609

> <Gold.Chemscore.Internal_Hbond>
0.0000

> <Gold.Chemscore.DEClash>
0.0029

> <Gold.Chemscore.DEInternal>
1.6413

> <Gold.Chemscore.Rot>
1.0000

> <Gold.Chemscore.Internal.Correction>
   9.000000E+99

> <Gold.Chemscore.Hbonds>
donor molecule, donor type, donor heavy atom, donor atom, acceptor molecule, acceptor atom, score
      P1  H  6896  6909       L1     9  0.96
      P1  H  7997  8010       L1    15  0.99

> <Gold.Chemscore.Hbond.Weighted>
-6.6405

> <Gold.Chemscore.Metal.Weighted>
-0.0000

> <Gold.Chemscore.Lipo.Weighted>
-11.4731

> <Gold.Chemscore.Internal_Hbond.Weighted>
0.0000

> <Gold.Chemscore.DEClash.Weighted>
0.0029

> <Gold.Chemscore.DEInternal.Weighted>
1.6413

> <Gold.Chemscore.Rot.Weighted>
2.5600

> <Gold.Chemscore.Internal.Correction.Weighted>
   9.000000E+99

> <Gold.Protein.RotatedTorsions>
[ 6907 6896 6895 6894 ] final   83.41 input  -60.11 | X-H torsion
[ 7974 7965 7964 7962 ] final  -81.33 input  175.53 | X-H torsion
[ 8008 7997 7996 7995 ] final   83.23 input   59.86 | X-H torsion
[ 10167 10162 10161 10158 ] final  174.04 input  -65.29 | X-H torsion
[ 10718 10713 10712 10709 ] final   14.46 input   66.30 | X-H torsion
[ 10763 10752 10751 10750 ] final  103.15 input  -60.55 | X-H torsion
[ 11005 11000 10999 10996 ] final -138.98 input  -57.11 | X-H torsion

> <Gold.Protein.ActiveResidues>
 VAL166  LYS551  ARG553  GLY616  TRP617  ASP618  TYR619  PRO620  LYS621  CYS622 
 ASP623  PHE694  ASN695  SER759  ASP760  ASP761  ALA762  ILE779  LEU786  VAL792 
 PHE793  MET794  SER795  GLU796  ALA797  LYS798  CYS799  TRP800  GLU811  SER814 

> <Gold.Protein.RotatedAtoms>
  152.5326  134.2899  159.9038 H   0  0  0  0  0  0  0  0  0  0  0  0  # atno 6907 bound_to 6896
  151.2851  133.4185  159.2637 H   0  0  0  0  0  0  0  0  0  0  0  0  # atno 6908 bound_to 6896
  151.0249  134.9512  159.8136 H   0  0  0  0  0  0  0  0  0  0  0  0  # atno 6909 bound_to 6896
  145.5480  140.9500  143.1514 H   0  0  0  0  0  0  0  0  0  0  0  0  # atno 7974 bound_to 7965
  155.9211  140.3421  155.6174 H   0  0  0  0  0  0  0  0  0  0  0  0  # atno 8008 bound_to 7997
  155.7272  140.0791  157.2323 H   0  0  0  0  0  0  0  0  0  0  0  0  # atno 8009 bound_to 7997
  154.4070  140.1594  156.2455 H   0  0  0  0  0  0  0  0  0  0  0  0  # atno 8010 bound_to 7997
  139.5128  144.3192  152.0218 H   0  0  0  0  0  0  0  0  0  0  0  0  # atno 10167 bound_to 10162
  157.0394  130.6225  149.5748 H   0  0  0  0  0  0  0  0  0  0  0  0  # atno 10718 bound_to 10713
  153.3489  135.3986  155.1631 H   0  0  0  0  0  0  0  0  0  0  0  0  # atno 10763 bound_to 10752
  154.8658  135.3652  154.5247 H   0  0  0  0  0  0  0  0  0  0  0  0  # atno 10764 bound_to 10752
  153.5698  135.7079  153.5570 H   0  0  0  0  0  0  0  0  0  0  0  0  # atno 10765 bound_to 10752
  140.8564  134.2223  157.4732 H   0  0  0  0  0  0  0  0  0  0  0  0  # atno 11005 bound_to 11000
  144.7543  139.7113  143.7260 LP  0  0  0  0  0  0  0  0  0  0  0  0  # atno 17320 bound_to 7965
  146.1936  139.5189  142.9789 LP  0  0  0  0  0  0  0  0  0  0  0  0  # atno 17321 bound_to 7965
  140.2635  144.4042  150.6177 LP  0  0  0  0  0  0  0  0  0  0  0  0  # atno 17342 bound_to 10162
  140.6140  143.2171  151.6828 LP  0  0  0  0  0  0  0  0  0  0  0  0  # atno 17343 bound_to 10162
  156.0043  130.5127  150.7775 LP  0  0  0  0  0  0  0  0  0  0  0  0  # atno 17370 bound_to 10713
  157.5116  131.0926  151.0190 LP  0  0  0  0  0  0  0  0  0  0  0  0  # atno 17371 bound_to 10713
  139.8705  134.9708  156.4715 LP  0  0  0  0  0  0  0  0  0  0  0  0  # atno 17394 bound_to 11000
  140.8733  133.7972  155.9387 LP  0  0  0  0  0  0  0  0  0  0  0  0  # atno 17395 bound_to 11000

$$$$
