AV-unprocessed.smi:2024|AV-procd|sdf|8195|dock4
  -GOLD-   2272010453D 1   1.00000     0.00000
 Structure written by MMmdl.
 43 44  0  0  0  0  0  0  0  0  3 V2000
  151.8158  139.5627  155.8045 C   0  0  0  0  0  0  0  0  0  0  0  0
  151.1629  139.3002  154.5265 N   0  0  0  0  0  0  0  0  0  0  0  0
  151.6593  138.0951  153.8628 C   0  0  0  0  0  0  0  0  0  0  0  0
  151.2013  136.8035  154.5723 C   0  0  0  0  0  0  0  0  0  0  0  0
  149.7136  136.7459  154.6549 N   0  3  0  0  0  0  0  0  0  0  0  0
  149.1316  135.4378  155.1262 C   0  0  0  0  0  0  0  0  0  0  0  0
  147.5872  135.4736  155.0044 C   0  0  0  0  0  0  0  0  0  0  0  0
  149.6060  134.2984  154.1890 C   0  0  0  0  0  0  0  0  0  0  0  0
  149.5343  135.1402  156.6021 C   0  0  0  0  0  0  0  0  0  0  0  0
  148.6252  135.7338  157.5815 N   0  0  0  0  0  0  0  0  0  0  0  0
  148.9511  136.1830  158.8020 C   0  0  0  0  0  0  0  0  0  0  0  0
  150.1201  136.1227  159.1902 O   0  0  0  0  0  0  0  0  0  0  0  0
  147.8982  136.6636  159.4997 N   0  5  0  0  0  0  0  0  0  0  0  0
  147.6813  136.2486  160.7582 C   0  0  0  0  0  0  0  0  0  0  0  0
  147.6259  137.0827  161.8027 N   0  0  0  0  0  0  0  0  0  0  0  0
  147.3878  136.4361  163.0169 C   0  0  0  0  0  0  0  0  0  0  0  0
  147.2494  135.0792  162.8925 C   0  0  0  0  0  0  0  0  0  0  0  0
  147.4130  134.5698  161.2363 S   0  0  0  0  0  0  0  0  0  0  0  0
  149.2167  137.9684  155.3483 C   0  0  0  0  0  0  0  0  0  0  0  0
  149.7051  139.2414  154.6256 C   0  0  0  0  0  0  0  0  0  0  0  0
  152.8927  139.6609  155.6642 H   0  0  0  0  0  0  0  0  0  0  0  0
  151.6423  138.7734  156.5350 H   0  0  0  0  0  0  0  0  0  0  0  0
  151.4522  140.4994  156.2279 H   0  0  0  0  0  0  0  0  0  0  0  0
  151.2982  138.0920  152.8334 H   0  0  0  0  0  0  0  0  0  0  0  0
  152.7480  138.1319  153.8064 H   0  0  0  0  0  0  0  0  0  0  0  0
  151.5961  135.9675  153.9991 H   0  0  0  0  0  0  0  0  0  0  0  0
  151.6478  136.7367  155.5640 H   0  0  0  0  0  0  0  0  0  0  0  0
  147.1488  134.4843  155.1416 H   0  0  0  0  0  0  0  0  0  0  0  0
  147.2733  135.8280  154.0219 H   0  0  0  0  0  0  0  0  0  0  0  0
  147.1259  136.1119  155.7575 H   0  0  0  0  0  0  0  0  0  0  0  0
  149.0462  133.3776  154.3555 H   0  0  0  0  0  0  0  0  0  0  0  0
  150.6547  134.0444  154.3418 H   0  0  0  0  0  0  0  0  0  0  0  0
  149.4726  134.5642  153.1397 H   0  0  0  0  0  0  0  0  0  0  0  0
  149.6162  134.0681  156.7809 H   0  0  0  0  0  0  0  0  0  0  0  0
  150.5199  135.5513  156.8176 H   0  0  0  0  0  0  0  0  0  0  0  0
  147.6552  135.8102  157.3122 H   0  0  0  0  0  0  0  0  0  0  0  0
  147.3320  137.0210  163.9229 H   0  0  0  0  0  0  0  0  0  0  0  0
  147.0607  134.3526  163.6680 H   0  0  0  0  0  0  0  0  0  0  0  0
  148.1296  138.0040  155.3521 H   0  0  0  0  0  0  0  0  0  0  0  0
  149.5316  137.9759  156.3914 H   0  0  0  0  0  0  0  0  0  0  0  0
  149.3377  140.1324  155.1360 H   0  0  0  0  0  0  0  0  0  0  0  0
  149.2881  139.2702  153.6180 H   0  0  0  0  0  0  0  0  0  0  0  0
  149.3939  136.8362  153.7014 H   0  0  0  0  0  0  0  0  0  0  0  0
  1  2  1  0  0  0  0
  1 21  1  0  0  0  0
  1 22  1  0  0  0  0
  1 23  1  0  0  0  0
  2 20  1  0  0  0  0
  2  3  1  0  0  0  0
  3  4  1  0  0  0  0
  3 24  1  0  0  0  0
  3 25  1  0  0  0  0
  4  5  1  0  0  0  0
  4 26  1  0  0  0  0
  4 27  1  0  0  0  0
  5  6  1  0  0  0  0
  5 19  1  0  0  0  0
  5 43  1  0  0  0  0
  6  7  1  0  0  0  0
  6  8  1  0  0  0  0
  6  9  1  0  0  0  0
  7 28  1  0  0  0  0
  7 29  1  0  0  0  0
  7 30  1  0  0  0  0
  8 31  1  0  0  0  0
  8 32  1  0  0  0  0
  8 33  1  0  0  0  0
  9 10  1  0  0  0  0
  9 34  1  0  0  0  0
  9 35  1  0  0  0  0
 10 11  1  0  0  0  0
 10 36  1  0  0  0  0
 11 12  2  0  0  0  0
 11 13  1  0  0  0  0
 13 14  1  0  0  0  0
 14 18  1  0  0  0  0
 14 15  2  0  0  0  0
 15 16  1  0  0  0  0
 16 17  2  0  0  0  0
 16 37  1  0  0  0  0
 17 18  1  0  0  0  0
 17 38  1  0  0  0  0
 19 20  1  0  0  0  0
 19 39  1  0  0  0  0
 19 40  1  0  0  0  0
 20 41  1  0  0  0  0
 20 42  1  0  0  0  0
M  CHG  1   5   1
M  CHG  1  13  -1
M  END
> <s_m_source_file>
AV-unprocessed.smi

> <i_m_source_file_index>
2024

> <i_lp_mmshare_version>
43012

> <i_f3d_flags>
0

> <s_epik_input>
W0NIM11OMVtDSDJdW0NIMl1OKFtDSDJdW0NIMl0xKUMoW0NIM10pKFtDSDNdKVtDSDJdW05IXUMoPU8pW05IXWMybltjSF1bY0hdczI=

> <s_epik_cmdline>
J2VwaWtfcHl0aG9uJywgJy1waCcsICc3LjAnLCAnLXRuJywgJzgnLCAnLW1hJywgJzIwMCcsICctbWV0YWxfYmluZGluZycsICctaW1hZScsICc8aW5maWxlLm1hZT4nLCAnLW9tYWUnLCAnPG91dGZpbGUubWFlPic=

> <r_epik_Ionization_Penalty>
6.29536

> <r_epik_Ionization_Penalty_Charging>
5.46232

> <r_epik_Ionization_Penalty_Neutral>
0.833035

> <r_epik_State_Penalty>
6.42136

> <r_epik_Charging_Adjusted_Penalty>
11.8837

> <i_epik_Tot_Q>
0

> <i_epik_Tot_abs_Q>
2

> <r_epik_Metal_State_Penalty>
2.42657

> <b_epik_Metal_Only>
1

> <s_lp_Force_Field>
OPLS_2005

> <r_lp_Energy>
16.4996

> <b_lp_Chiralities_Consistent>
1

> <s_lp_Variant>
AV-unprocessed.smi:2024-5

> <Gold.Version>
5.8.1

> <Gold.Id.Protein>
6NUR|6NUR_protein|mol2

> <Gold.PLP.Fitness>
47.2890

> <Gold.PLP.PLP>
-33.3978

> <Gold.PLP.part.hbond>
-5.0000

> <Gold.PLP.part.metal>
0.0000

> <Gold.PLP.part.buried>
-4.0045

> <Gold.PLP.part.nonpolar>
-24.4508

> <Gold.PLP.part.repulsive>
0.1975

> <Gold.PLP.ligand.clash>
0.0000

> <Gold.PLP.ligand.torsion>
1.6801

> <Gold.PLP.Chemscore.Hbond>
5.7120

> <Gold.PLP.Chemscore.CHOScore>
0.0000

> <Gold.PLP.Chemscore.Metal>
0.0000

> <Gold.Chemscore.Hbonds>
donor molecule, donor type, donor heavy atom, donor atom, acceptor molecule, acceptor atom, score
      L1  H     5    43       P1  7948  2.00
      P1  H  6896  6908       L1    12  0.99
      P1  H  6931  6943       L1    15  1.00
      P1  H  6934  6947       L1    15  0.49
      P1  H  7989  7998       L1     2  1.00

> <Gold.PLP.Chemscore.Internal.Correction>
0.1154

> <Gold.Rescore>
     Score         DG    S(hbond)    S(metal)    S(lipo)     H(rot)  DE(clash)    DE(int)     intcor
     17.35     -20.47       3.00        0.00      76.83       1.57       1.32       1.79       ----

> <Gold.Chemscore.Fitness>
17.3488

> <Gold.Chemscore.DG>
-20.4663

> <Gold.Chemscore.ZeroCoef>
-5.4800

> <Gold.Chemscore.Hbond>
2.9972

> <Gold.Chemscore.Metal>
0.0000

> <Gold.Chemscore.Lipo>
76.8331

> <Gold.Chemscore.Internal_Hbond>
0.0000

> <Gold.Chemscore.DEClash>
1.3228

> <Gold.Chemscore.DEInternal>
1.7946

> <Gold.Chemscore.Rot>
1.5678

> <Gold.Chemscore.Internal.Correction>
   9.000000E+99

> <Gold.Chemscore.Hbonds>
donor molecule, donor type, donor heavy atom, donor atom, acceptor molecule, acceptor atom, score
      L1  H     5    43       P1  7948  0.90
      P1  H  6896  6908       L1    12  0.92
      P1  H  6931  6943       L1    15  0.72
      P1  H  6934  6947       L1    15  0.25
      P1  H  7989  7998       L1     2  0.19

> <Gold.Chemscore.Hbond.Weighted>
-10.0105

> <Gold.Chemscore.Metal.Weighted>
-0.0000

> <Gold.Chemscore.Lipo.Weighted>
-8.9895

> <Gold.Chemscore.Internal_Hbond.Weighted>
0.0000

> <Gold.Chemscore.DEClash.Weighted>
1.3228

> <Gold.Chemscore.DEInternal.Weighted>
1.7946

> <Gold.Chemscore.Rot.Weighted>
4.0136

> <Gold.Chemscore.Internal.Correction.Weighted>
   9.000000E+99

> <Gold.Protein.RotatedTorsions>
[ 6907 6896 6895 6894 ] final -165.63 input  -60.11 | X-H torsion
[ 7974 7965 7964 7962 ] final  166.01 input  175.53 | X-H torsion
[ 8008 7997 7996 7995 ] final  154.08 input   59.86 | X-H torsion
[ 10167 10162 10161 10158 ] final  -23.37 input  -65.29 | X-H torsion
[ 10718 10713 10712 10709 ] final  104.08 input   66.30 | X-H torsion
[ 10763 10752 10751 10750 ] final   75.66 input  -60.55 | X-H torsion
[ 11005 11000 10999 10996 ] final   31.41 input  -57.11 | X-H torsion

> <Gold.Protein.ActiveResidues>
 VAL166  LYS551  ARG553  GLY616  TRP617  ASP618  TYR619  PRO620  LYS621  CYS622 
 ASP623  PHE694  ASN695  SER759  ASP760  ASP761  ALA762  ILE779  LEU786  VAL792 
 PHE793  MET794  SER795  GLU796  ALA797  LYS798  CYS799  TRP800  GLU811  SER814 

> <Gold.Protein.RotatedAtoms>
  151.4308  133.3671  159.2768 H   0  0  0  0  0  0  0  0  0  0  0  0  # atno 6907 bound_to 6896
  150.9227  134.8645  159.7510 H   0  0  0  0  0  0  0  0  0  0  0  0  # atno 6908 bound_to 6896
  152.4989  134.4247  159.9544 H   0  0  0  0  0  0  0  0  0  0  0  0  # atno 6909 bound_to 6896
  144.7479  139.8553  143.6376 H   0  0  0  0  0  0  0  0  0  0  0  0  # atno 7974 bound_to 7965
  156.2549  140.1976  156.6591 H   0  0  0  0  0  0  0  0  0  0  0  0  # atno 8008 bound_to 7997
  154.6478  140.0575  156.9946 H   0  0  0  0  0  0  0  0  0  0  0  0  # atno 8009 bound_to 7997
  155.1464  140.3247  155.4443 H   0  0  0  0  0  0  0  0  0  0  0  0  # atno 8010 bound_to 7997
  140.7288  143.4449  151.0601 H   0  0  0  0  0  0  0  0  0  0  0  0  # atno 10167 bound_to 10162
  157.6752  131.0795  150.5652 H   0  0  0  0  0  0  0  0  0  0  0  0  # atno 10718 bound_to 10713
  153.0670  135.4980  154.8222 H   0  0  0  0  0  0  0  0  0  0  0  0  # atno 10763 bound_to 10752
  154.6968  135.2994  154.9402 H   0  0  0  0  0  0  0  0  0  0  0  0  # atno 10764 bound_to 10752
  154.0139  135.6751  153.4820 H   0  0  0  0  0  0  0  0  0  0  0  0  # atno 10765 bound_to 10752
  140.2841  134.2939  155.7792 H   0  0  0  0  0  0  0  0  0  0  0  0  # atno 11005 bound_to 11000
  146.1387  139.4439  143.0122 LP  0  0  0  0  0  0  0  0  0  0  0  0  # atno 17320 bound_to 7965
  145.7052  141.0124  143.1483 LP  0  0  0  0  0  0  0  0  0  0  0  0  # atno 17321 bound_to 7965
  139.8120  143.7938  152.3172 LP  0  0  0  0  0  0  0  0  0  0  0  0  # atno 17342 bound_to 10162
  139.7991  144.7381  150.9850 LP  0  0  0  0  0  0  0  0  0  0  0  0  # atno 17343 bound_to 10162
  156.5954  130.4340  149.5919 LP  0  0  0  0  0  0  0  0  0  0  0  0  # atno 17370 bound_to 10713
  156.2549  130.6929  151.1679 LP  0  0  0  0  0  0  0  0  0  0  0  0  # atno 17371 bound_to 10713
  141.2157  133.7544  156.9526 LP  0  0  0  0  0  0  0  0  0  0  0  0  # atno 17394 bound_to 11000
  140.1256  134.9389  157.2265 LP  0  0  0  0  0  0  0  0  0  0  0  0  # atno 17395 bound_to 11000

$$$$
