AV-unprocessed.smi:2224|AV-procd|sdf|8994|dock1
  -GOLD-   2272012203D 1   1.00000     0.00000
 Structure written by MMmdl.
 44 46  0  0  0  0  0  0  0  0  1 V2000
  144.8189  132.1161  150.2177 C   0  0  0  0  0  0  0  0  0  0  0  0
  144.5363  133.2558  151.1738 C   0  0  0  0  0  0  0  0  0  0  0  0
  143.2427  133.4654  151.6889 C   0  0  0  0  0  0  0  0  0  0  0  0
  143.0474  134.5407  152.5778 C   0  0  0  0  0  0  0  0  0  0  0  0
  141.6822  134.8256  153.1673 C   0  0  0  0  0  0  0  0  0  0  0  0
  144.0401  135.3743  152.9556 N   0  0  0  0  0  0  0  0  0  0  0  0
  145.2898  135.1819  152.4657 C   0  0  0  0  0  0  0  0  0  0  0  0
  146.3997  136.0041  152.7944 N   0  0  0  0  0  0  0  0  0  0  0  0
  146.4221  137.0943  153.5809 C   0  0  0  0  0  0  0  0  0  0  0  0
  145.4596  137.5474  154.2012 O   0  0  0  0  0  0  0  0  0  0  0  0
  147.6452  137.6407  153.6160 N   0  0  0  0  0  0  0  0  0  0  0  0
  148.0043  138.8198  154.3984 C   0  0  1  0  0  0  0  0  0  0  0  0
  149.4078  139.3428  154.0539 C   0  0  2  0  0  0  0  0  0  0  0  0
  150.5001  139.3002  155.0881 C   0  0  0  0  0  0  0  0  0  0  0  0
  150.4539  140.7068  155.6914 C   0  0  0  0  0  0  0  0  0  0  0  0
  149.1397  141.1780  155.4031 O   0  0  0  0  0  0  0  0  0  0  0  0
  148.8044  140.7383  154.0892 C   0  0  2  0  0  0  0  0  0  0  0  0
  147.3902  140.1518  153.8943 C   0  0  0  0  0  0  0  0  0  0  0  0
  146.8843  140.1982  152.4452 C   0  0  0  0  0  0  0  0  0  0  0  0
  146.2890  140.7601  154.7648 C   0  0  0  0  0  0  0  0  0  0  0  0
  145.5707  134.1288  151.5666 C   0  0  0  0  0  0  0  0  0  0  0  0
  143.9315  131.5027  150.0579 H   0  0  0  0  0  0  0  0  0  0  0  0
  145.6074  131.4766  150.6153 H   0  0  0  0  0  0  0  0  0  0  0  0
  145.1449  132.5048  149.2528 H   0  0  0  0  0  0  0  0  0  0  0  0
  142.4223  132.8201  151.4104 H   0  0  0  0  0  0  0  0  0  0  0  0
  140.9620  134.0563  152.8871 H   0  0  0  0  0  0  0  0  0  0  0  0
  141.3100  135.7868  152.8122 H   0  0  0  0  0  0  0  0  0  0  0  0
  141.7369  134.8589  154.2558 H   0  0  0  0  0  0  0  0  0  0  0  0
  147.2783  135.7327  152.3790 H   0  0  0  0  0  0  0  0  0  0  0  0
  148.3804  137.2080  153.0766 H   0  0  0  0  0  0  0  0  0  0  0  0
  147.8744  138.6871  155.4750 H   0  0  0  0  0  0  0  0  0  0  0  0
  149.7237  139.0704  153.0452 H   0  0  0  0  0  0  0  0  0  0  0  0
  150.2893  138.5455  155.8463 H   0  0  0  0  0  0  0  0  0  0  0  0
  151.4775  139.0800  154.6581 H   0  0  0  0  0  0  0  0  0  0  0  0
  150.6570  140.7138  156.7624 H   0  0  0  0  0  0  0  0  0  0  0  0
  151.1796  141.3578  155.2014 H   0  0  0  0  0  0  0  0  0  0  0  0
  149.1657  141.4003  153.3007 H   0  0  0  0  0  0  0  0  0  0  0  0
  146.7025  141.2232  152.1207 H   0  0  0  0  0  0  0  0  0  0  0  0
  145.9498  139.6488  152.3260 H   0  0  0  0  0  0  0  0  0  0  0  0
  147.6049  139.7669  151.7498 H   0  0  0  0  0  0  0  0  0  0  0  0
  146.0952  141.7992  154.4970 H   0  0  0  0  0  0  0  0  0  0  0  0
  146.5567  140.7443  155.8216 H   0  0  0  0  0  0  0  0  0  0  0  0
  145.3515  140.2123  154.6657 H   0  0  0  0  0  0  0  0  0  0  0  0
  146.5706  133.9867  151.1823 H   0  0  0  0  0  0  0  0  0  0  0  0
  1  2  1  0  0  0  0
  1 22  1  0  0  0  0
  1 23  1  0  0  0  0
  1 24  1  0  0  0  0
  2 21  1  0  0  0  0
  2  3  2  0  0  0  0
  3  4  1  0  0  0  0
  3 25  1  0  0  0  0
  4  5  1  0  0  0  0
  4  6  2  0  0  0  0
  5 26  1  0  0  0  0
  5 27  1  0  0  0  0
  5 28  1  0  0  0  0
  6  7  1  0  0  0  0
  7  8  1  0  0  0  0
  7 21  2  0  0  0  0
  8  9  1  0  0  0  0
  8 29  1  0  0  0  0
  9 10  2  0  0  0  0
  9 11  1  0  0  0  0
 11 12  1  0  0  0  0
 11 30  1  0  0  0  0
 12 18  1  0  0  0  0
 12 13  1  0  0  0  0
 12 31  1  0  0  0  0
 13 17  1  0  0  0  0
 13 14  1  0  0  0  0
 13 32  1  0  0  0  0
 14 15  1  0  0  0  0
 14 33  1  0  0  0  0
 14 34  1  0  0  0  0
 15 16  1  0  0  0  0
 15 35  1  0  0  0  0
 15 36  1  0  0  0  0
 16 17  1  0  0  0  0
 17 18  1  0  0  0  0
 17 37  1  0  0  0  0
 18 19  1  0  0  0  0
 18 20  1  0  0  0  0
 19 38  1  0  0  0  0
 19 39  1  0  0  0  0
 19 40  1  0  0  0  0
 20 41  1  0  0  0  0
 20 42  1  0  0  0  0
 20 43  1  0  0  0  0
 21 44  1  0  0  0  0
M  END
> <s_m_source_file>
AV-unprocessed.smi

> <i_m_source_file_index>
2224

> <i_lp_mmshare_version>
43012

> <i_f3d_flags>
0

> <s_epik_input>
W0NIM11jMVtjSF1jKFtDSDNdKW5jKFtjSF0xKVtOSF1DKD1PKVtOSF1bQ0BIXTJDKFtDSDNdKShbQ0gzXSlbQ0BIXShbQ0BASF0yMylPW0NIMl1bQ0gyXTM=

> <s_epik_cmdline>
J2VwaWtfcHl0aG9uJywgJy1waCcsICc3LjAnLCAnLXRuJywgJzgnLCAnLW1hJywgJzIwMCcsICctbWV0YWxfYmluZGluZycsICctaW1hZScsICc8aW5maWxlLm1hZT4nLCAnLW9tYWUnLCAnPG91dGZpbGUubWFlPic=

> <r_lp_tautomer_probability>
1

> <r_epik_Ionization_Penalty>
0.000276544

> <r_epik_Ionization_Penalty_Charging>
0

> <r_epik_Ionization_Penalty_Neutral>
0.000276544

> <r_epik_State_Penalty>
-0

> <r_epik_Charging_Adjusted_Penalty>
0

> <i_epik_Tot_Q>
0

> <i_epik_Tot_abs_Q>
0

> <r_epik_Metal_State_Penalty>
-0

> <b_epik_Metal_Only>
0

> <s_lp_Force_Field>
OPLS_2005

> <r_lp_Energy>
38.5894

> <b_lp_Chiralities_Consistent>
1

> <s_lp_Variant>
AV-unprocessed.smi:2224-4

> <Gold.Version>
5.8.1

> <Gold.Id.Protein>
6NUR|6NUR_protein|mol2

> <Gold.PLP.Fitness>
39.1504

> <Gold.PLP.PLP>
-33.1763

> <Gold.PLP.part.hbond>
-2.0000

> <Gold.PLP.part.metal>
0.0000

> <Gold.PLP.part.buried>
-0.4138

> <Gold.PLP.part.nonpolar>
-31.0241

> <Gold.PLP.part.repulsive>
0.3000

> <Gold.PLP.ligand.clash>
0.0000

> <Gold.PLP.ligand.torsion>
0.0884

> <Gold.PLP.Chemscore.Hbond>
1.9920

> <Gold.PLP.Chemscore.CHOScore>
0.0000

> <Gold.PLP.Chemscore.Metal>
0.0000

> <Gold.Chemscore.Hbonds>
donor molecule, donor type, donor heavy atom, donor atom, acceptor molecule, acceptor atom, score
      L1  H     8    29       P1  7948  0.98
      L1  H    11    30       P1  7948  1.00

> <Gold.PLP.Chemscore.Internal.Correction>
0.1749

> <Gold.Rescore>
     Score         DG    S(hbond)    S(metal)    S(lipo)     H(rot)  DE(clash)    DE(int)     intcor
     18.31     -19.99       1.94        0.00      90.63       1.00       0.31       1.37       ----

> <Gold.Chemscore.Fitness>
18.3080

> <Gold.Chemscore.DG>
-19.9944

> <Gold.Chemscore.ZeroCoef>
-5.4800

> <Gold.Chemscore.Hbond>
1.9374

> <Gold.Chemscore.Metal>
0.0000

> <Gold.Chemscore.Lipo>
90.6286

> <Gold.Chemscore.Internal_Hbond>
0.0000

> <Gold.Chemscore.DEClash>
0.3142

> <Gold.Chemscore.DEInternal>
1.3723

> <Gold.Chemscore.Rot>
1.0000

> <Gold.Chemscore.Internal.Correction>
   9.000000E+99

> <Gold.Chemscore.Hbonds>
donor molecule, donor type, donor heavy atom, donor atom, acceptor molecule, acceptor atom, score
      L1  H     8    29       P1  7948  0.93
      L1  H    11    30       P1  7948  0.97

> <Gold.Chemscore.Hbond.Weighted>
-6.4709

> <Gold.Chemscore.Metal.Weighted>
-0.0000

> <Gold.Chemscore.Lipo.Weighted>
-10.6035

> <Gold.Chemscore.Internal_Hbond.Weighted>
0.0000

> <Gold.Chemscore.DEClash.Weighted>
0.3142

> <Gold.Chemscore.DEInternal.Weighted>
1.3723

> <Gold.Chemscore.Rot.Weighted>
2.5600

> <Gold.Chemscore.Internal.Correction.Weighted>
   9.000000E+99

> <Gold.Protein.RotatedTorsions>
[ 6907 6896 6895 6894 ] final -149.02 input  -60.11 | X-H torsion
[ 7974 7965 7964 7962 ] final   11.73 input  175.53 | X-H torsion
[ 8008 7997 7996 7995 ] final -124.59 input   59.86 | X-H torsion
[ 10167 10162 10161 10158 ] final  -20.70 input  -65.29 | X-H torsion
[ 10718 10713 10712 10709 ] final  -73.77 input   66.30 | X-H torsion
[ 10763 10752 10751 10750 ] final   38.49 input  -60.55 | X-H torsion
[ 11005 11000 10999 10996 ] final -134.33 input  -57.11 | X-H torsion

> <Gold.Protein.ActiveResidues>
 VAL166  LYS551  ARG553  GLY616  TRP617  ASP618  TYR619  PRO620  LYS621  CYS622 
 ASP623  PHE694  ASN695  SER759  ASP760  ASP761  ALA762  ILE779  LEU786  VAL792 
 PHE793  MET794  SER795  GLU796  ALA797  LYS798  CYS799  TRP800  GLU811  SER814 

> <Gold.Protein.RotatedAtoms>
  151.1781  133.4742  159.2593 H   0  0  0  0  0  0  0  0  0  0  0  0  # atno 6907 bound_to 6896
  151.1287  135.0118  159.8582 H   0  0  0  0  0  0  0  0  0  0  0  0  # atno 6908 bound_to 6896
  152.5459  134.1685  159.8640 H   0  0  0  0  0  0  0  0  0  0  0  0  # atno 6909 bound_to 6896
  146.2365  139.9441  142.8479 H   0  0  0  0  0  0  0  0  0  0  0  0  # atno 7974 bound_to 7965
  155.1994  140.0415  157.2914 H   0  0  0  0  0  0  0  0  0  0  0  0  # atno 8008 bound_to 7997
  154.6085  140.2470  155.7671 H   0  0  0  0  0  0  0  0  0  0  0  0  # atno 8009 bound_to 7997
  156.2365  140.2920  156.0335 H   0  0  0  0  0  0  0  0  0  0  0  0  # atno 8010 bound_to 7997
  140.7278  143.4698  151.0263 H   0  0  0  0  0  0  0  0  0  0  0  0  # atno 10167 bound_to 10162
  156.0268  130.4401  150.2792 H   0  0  0  0  0  0  0  0  0  0  0  0  # atno 10718 bound_to 10713
  152.9999  135.6248  154.2312 H   0  0  0  0  0  0  0  0  0  0  0  0  # atno 10763 bound_to 10752
  154.2054  135.2802  155.2978 H   0  0  0  0  0  0  0  0  0  0  0  0  # atno 10764 bound_to 10752
  154.5649  135.5694  153.7100 H   0  0  0  0  0  0  0  0  0  0  0  0  # atno 10765 bound_to 10752
  140.9000  134.1702  157.4467 H   0  0  0  0  0  0  0  0  0  0  0  0  # atno 11005 bound_to 11000
  145.1924  140.9818  143.4203 LP  0  0  0  0  0  0  0  0  0  0  0  0  # atno 17320 bound_to 7965
  144.9845  139.3750  143.6245 LP  0  0  0  0  0  0  0  0  0  0  0  0  # atno 17321 bound_to 7965
  139.8389  143.7590  152.3180 LP  0  0  0  0  0  0  0  0  0  0  0  0  # atno 17342 bound_to 10162
  139.7732  144.7469  151.0194 LP  0  0  0  0  0  0  0  0  0  0  0  0  # atno 17343 bound_to 10162
  157.0895  131.0166  151.3127 LP  0  0  0  0  0  0  0  0  0  0  0  0  # atno 17370 bound_to 10713
  157.4865  130.7796  149.7465 LP  0  0  0  0  0  0  0  0  0  0  0  0  # atno 17371 bound_to 10713
  139.8741  134.9894  156.5455 LP  0  0  0  0  0  0  0  0  0  0  0  0  # atno 17394 bound_to 11000
  140.8242  133.8330  155.8923 LP  0  0  0  0  0  0  0  0  0  0  0  0  # atno 17395 bound_to 11000

$$$$
