AV-unprocessed.smi:1726|AV-procd|sdf|6957|dock1
  -GOLD-   22720 8173D 1   1.00000     0.00000
 Structure written by MMmdl.
 43 44  0  0  0  0  0  0  0  0  2 V2000
  145.4114  136.0216  151.9853 C   0  0  0  0  0  0  0  0  0  0  0  0
  145.9408  136.3877  153.3796 C   0  0  0  0  0  0  0  0  0  0  0  0
  146.9500  137.4762  153.3395 N   0  3  1  0  0  0  0  0  0  0  0  0
  146.4305  138.6968  152.6695 C   0  0  0  0  0  0  0  0  0  0  0  0
  147.5315  139.7591  152.5151 C   0  0  0  0  0  0  0  0  0  0  0  0
  148.1574  140.1065  153.8717 C   0  0  0  0  0  0  0  0  0  0  0  0
  148.6638  138.8293  154.5593 C   0  0  1  0  0  0  0  0  0  0  0  0
  149.2068  139.1564  155.8745 N   0  0  0  0  0  0  0  0  0  0  0  0
  150.1292  140.0990  156.1163 C   0  0  0  0  0  0  0  0  0  0  0  0
  150.6325  140.7885  155.2297 O   0  0  0  0  0  0  0  0  0  0  0  0
  150.4239  140.1583  157.4279 N   0  0  0  0  0  0  0  0  0  0  0  0
  151.3137  141.0099  158.1048 C   0  0  0  0  0  0  0  0  0  0  0  0
  151.0207  142.2690  158.5238 C   0  0  0  0  0  0  0  0  0  0  0  0
  151.9899  143.0933  159.2269 C   0  0  0  0  0  0  0  0  0  0  0  0
  151.6335  144.4801  159.7400 C   0  0  0  0  0  0  0  0  0  0  0  0
  150.3285  144.7234  159.6116 F   0  0  0  0  0  0  0  0  0  0  0  0
  151.9492  144.5796  161.0307 F   0  0  0  0  0  0  0  0  0  0  0  0
  152.3025  145.4227  159.0757 F   0  0  0  0  0  0  0  0  0  0  0  0
  153.1893  142.5335  159.4706 C   0  0  0  0  0  0  0  0  0  0  0  0
  153.4988  141.2406  159.0429 N   0  0  0  0  0  0  0  0  0  0  0  0
  152.6415  140.4350  158.3766 C   0  0  0  0  0  0  0  0  0  0  0  0
  152.9880  139.3039  158.0376 O   0  0  0  0  0  0  0  0  0  0  0  0
  147.5265  137.7916  154.6737 C   0  0  0  0  0  0  0  0  0  0  0  0
  154.4238  140.8961  159.2555 H   0  0  0  0  0  0  0  0  0  0  0  0
  144.6044  135.2927  152.0626 H   0  0  0  0  0  0  0  0  0  0  0  0
  146.1823  135.5801  151.3545 H   0  0  0  0  0  0  0  0  0  0  0  0
  145.0153  136.8978  151.4714 H   0  0  0  0  0  0  0  0  0  0  0  0
  145.0898  136.7107  153.9807 H   0  0  0  0  0  0  0  0  0  0  0  0
  146.3551  135.5102  153.8781 H   0  0  0  0  0  0  0  0  0  0  0  0
  146.0430  138.4405  151.6827 H   0  0  0  0  0  0  0  0  0  0  0  0
  145.5947  139.1003  153.2437 H   0  0  0  0  0  0  0  0  0  0  0  0
  148.3041  139.3908  151.8388 H   0  0  0  0  0  0  0  0  0  0  0  0
  147.1202  140.6579  152.0544 H   0  0  0  0  0  0  0  0  0  0  0  0
  148.9754  140.8148  153.7339 H   0  0  0  0  0  0  0  0  0  0  0  0
  147.4159  140.6022  154.4999 H   0  0  0  0  0  0  0  0  0  0  0  0
  149.4650  138.4091  153.9474 H   0  0  0  0  0  0  0  0  0  0  0  0
  148.8475  138.6320  156.6592 H   0  0  0  0  0  0  0  0  0  0  0  0
  149.9690  139.4784  158.0199 H   0  0  0  0  0  0  0  0  0  0  0  0
  150.0465  142.6982  158.3581 H   0  0  0  0  0  0  0  0  0  0  0  0
  153.9907  143.0205  160.0065 H   0  0  0  0  0  0  0  0  0  0  0  0
  146.7386  138.1630  155.3314 H   0  0  0  0  0  0  0  0  0  0  0  0
  147.9148  136.8828  155.1317 H   0  0  0  0  0  0  0  0  0  0  0  0
  147.7090  137.1406  152.7635 H   0  0  0  0  0  0  0  0  0  0  0  0
  1  2  1  0  0  0  0
  1 25  1  0  0  0  0
  1 26  1  0  0  0  0
  1 27  1  0  0  0  0
  2  3  1  0  0  0  0
  2 28  1  0  0  0  0
  2 29  1  0  0  0  0
  3 23  1  0  0  0  0
  3  4  1  0  0  0  0
  3 43  1  0  0  0  0
  4  5  1  0  0  0  0
  4 30  1  0  0  0  0
  4 31  1  0  0  0  0
  5  6  1  0  0  0  0
  5 32  1  0  0  0  0
  5 33  1  0  0  0  0
  6  7  1  0  0  0  0
  6 34  1  0  0  0  0
  6 35  1  0  0  0  0
  7  8  1  0  0  0  0
  7 23  1  0  0  0  0
  7 36  1  0  0  0  0
  8  9  1  0  0  0  0
  8 37  1  0  0  0  0
  9 10  2  0  0  0  0
  9 11  1  0  0  0  0
 11 12  1  0  0  0  0
 11 38  1  0  0  0  0
 12 21  1  0  0  0  0
 12 13  2  0  0  0  0
 13 14  1  0  0  0  0
 13 39  1  0  0  0  0
 14 15  1  0  0  0  0
 14 19  2  0  0  0  0
 15 16  1  0  0  0  0
 15 17  1  0  0  0  0
 15 18  1  0  0  0  0
 19 20  1  0  0  0  0
 19 40  1  0  0  0  0
 20 24  1  0  0  0  0
 20 21  1  0  0  0  0
 21 22  2  0  0  0  0
 23 41  1  0  0  0  0
 23 42  1  0  0  0  0
M  CHG  1   3   1
M  END
> <s_m_source_file>
AV-unprocessed.smi

> <i_m_source_file_index>
1726

> <i_lp_mmshare_version>
43012

> <i_f3d_flags>
0

> <s_epik_input>
W0NIM11bQ0gyXU4xW0NIMl1bQ0gyXVtDSDJdW0NASF0oW0NIMl0xKVtOSF1DKD1PKVtOSF1jMltjSF1jKEMoRikoRilGKVtjSF1bbkhdYzI9Tw==

> <s_epik_cmdline>
J2VwaWtfcHl0aG9uJywgJy1waCcsICc3LjAnLCAnLXRuJywgJzgnLCAnLW1hJywgJzIwMCcsICctbWV0YWxfYmluZGluZycsICctaW1hZScsICc8aW5maWxlLm1hZT4nLCAnLW9tYWUnLCAnPG91dGZpbGUubWFlPic=

> <r_lp_tautomer_probability>
1

> <r_epik_Ionization_Penalty>
0.00745721

> <r_epik_Ionization_Penalty_Charging>
0.00743804

> <r_epik_Ionization_Penalty_Neutral>
1.91703e-05

> <r_epik_State_Penalty>
-0

> <r_epik_Charging_Adjusted_Penalty>
0.00743804

> <i_epik_Tot_Q>
1

> <i_epik_Tot_abs_Q>
1

> <r_epik_Metal_State_Penalty>
0.37929

> <b_epik_Metal_Only>
0

> <s_lp_Force_Field>
OPLS_2005

> <r_lp_Energy>
26.7636

> <b_lp_Chiralities_Consistent>
1

> <s_lp_Variant>
AV-unprocessed.smi:1726-1

> <Gold.Version>
5.8.1

> <Gold.Id.Protein>
6NUR|6NUR_protein|mol2

> <Gold.PLP.Fitness>
46.4720

> <Gold.PLP.PLP>
-37.6483

> <Gold.PLP.part.hbond>
-3.0000

> <Gold.PLP.part.metal>
0.0000

> <Gold.PLP.part.buried>
2.1777

> <Gold.PLP.part.nonpolar>
-36.4190

> <Gold.PLP.part.repulsive>
0.2370

> <Gold.PLP.ligand.clash>
0.0000

> <Gold.PLP.ligand.torsion>
1.0682

> <Gold.PLP.Chemscore.Hbond>
3.5820

> <Gold.PLP.Chemscore.CHOScore>
0.0000

> <Gold.PLP.Chemscore.Metal>
0.0000

> <Gold.Chemscore.Hbonds>
donor molecule, donor type, donor heavy atom, donor atom, acceptor molecule, acceptor atom, score
      L1  H     3    43       P1  7948  2.00
      P1  H  7989  7998       L1    10  0.83
      P1  H  7997  8009       L1    22  0.51

> <Gold.PLP.Chemscore.Internal.Correction>
0.2140

> <Gold.Rescore>
     Score         DG    S(hbond)    S(metal)    S(lipo)     H(rot)  DE(clash)    DE(int)     intcor
     14.17     -18.55       1.91        0.00      85.50       1.29       2.07       2.31       ----

> <Gold.Chemscore.Fitness>
14.1672

> <Gold.Chemscore.DG>
-18.5499

> <Gold.Chemscore.ZeroCoef>
-5.4800

> <Gold.Chemscore.Hbond>
1.9055

> <Gold.Chemscore.Metal>
0.0000

> <Gold.Chemscore.Lipo>
85.5021

> <Gold.Chemscore.Internal_Hbond>
0.0000

> <Gold.Chemscore.DEClash>
2.0729

> <Gold.Chemscore.DEInternal>
2.3099

> <Gold.Chemscore.Rot>
1.2884

> <Gold.Chemscore.Internal.Correction>
   9.000000E+99

> <Gold.Chemscore.Hbonds>
donor molecule, donor type, donor heavy atom, donor atom, acceptor molecule, acceptor atom, score
      L1  H     3    43       P1  7948  1.00
      P1  H  7989  7998       L1    10  0.80
      P1  H  7997  8009       L1    22  0.03

> <Gold.Chemscore.Hbond.Weighted>
-6.3645

> <Gold.Chemscore.Metal.Weighted>
-0.0000

> <Gold.Chemscore.Lipo.Weighted>
-10.0037

> <Gold.Chemscore.Internal_Hbond.Weighted>
0.0000

> <Gold.Chemscore.DEClash.Weighted>
2.0729

> <Gold.Chemscore.DEInternal.Weighted>
2.3099

> <Gold.Chemscore.Rot.Weighted>
3.2983

> <Gold.Chemscore.Internal.Correction.Weighted>
   9.000000E+99

> <Gold.Protein.RotatedTorsions>
[ 6907 6896 6895 6894 ] final   62.69 input  -60.11 | X-H torsion
[ 7974 7965 7964 7962 ] final  107.78 input  175.53 | X-H torsion
[ 8008 7997 7996 7995 ] final  141.75 input   59.86 | X-H torsion
[ 10167 10162 10161 10158 ] final  -61.95 input  -65.29 | X-H torsion
[ 10718 10713 10712 10709 ] final -116.03 input   66.30 | X-H torsion
[ 10763 10752 10751 10750 ] final -166.33 input  -60.55 | X-H torsion
[ 11005 11000 10999 10996 ] final  131.44 input  -57.11 | X-H torsion

> <Gold.Protein.ActiveResidues>
 VAL166  LYS551  ARG553  GLY616  TRP617  ASP618  TYR619  PRO620  LYS621  CYS622 
 ASP623  PHE694  ASN695  SER759  ASP760  ASP761  ALA762  ILE779  LEU786  VAL792 
 PHE793  MET794  SER795  GLU796  ALA797  LYS798  CYS799  TRP800  GLU811  SER814 

> <Gold.Protein.RotatedAtoms>
  152.4192  134.5985  159.9993 H   0  0  0  0  0  0  0  0  0  0  0  0  # atno 6907 bound_to 6896
  151.6140  133.3339  159.3081 H   0  0  0  0  0  0  0  0  0  0  0  0  # atno 6908 bound_to 6896
  150.8081  134.7256  159.6728 H   0  0  0  0  0  0  0  0  0  0  0  0  # atno 6909 bound_to 6896
  145.2892  139.2606  143.3874 H   0  0  0  0  0  0  0  0  0  0  0  0  # atno 7974 bound_to 7965
  156.2961  140.2307  156.4616 H   0  0  0  0  0  0  0  0  0  0  0  0  # atno 8008 bound_to 7997
  154.8014  140.0448  157.1296 H   0  0  0  0  0  0  0  0  0  0  0  0  # atno 8009 bound_to 7997
  154.9530  140.3044  155.5070 H   0  0  0  0  0  0  0  0  0  0  0  0  # atno 8010 bound_to 7997
  140.5972  143.2353  151.6010 H   0  0  0  0  0  0  0  0  0  0  0  0  # atno 10167 bound_to 10162
  156.0936  130.6113  150.8983 H   0  0  0  0  0  0  0  0  0  0  0  0  # atno 10718 bound_to 10713
  154.6844  135.2960  154.9568 H   0  0  0  0  0  0  0  0  0  0  0  0  # atno 10763 bound_to 10752
  154.0552  135.6639  153.4809 H   0  0  0  0  0  0  0  0  0  0  0  0  # atno 10764 bound_to 10752
  153.0569  135.5139  154.7904 H   0  0  0  0  0  0  0  0  0  0  0  0  # atno 10765 bound_to 10752
  139.9730  134.9572  156.9438 H   0  0  0  0  0  0  0  0  0  0  0  0  # atno 11005 bound_to 11000
  146.3190  140.3379  142.8645 LP  0  0  0  0  0  0  0  0  0  0  0  0  # atno 17320 bound_to 7965
  144.9187  140.7843  143.5762 LP  0  0  0  0  0  0  0  0  0  0  0  0  # atno 17321 bound_to 7965
  139.5266  144.3041  152.1049 LP  0  0  0  0  0  0  0  0  0  0  0  0  # atno 17342 bound_to 10162
  140.2215  144.4461  150.6340 LP  0  0  0  0  0  0  0  0  0  0  0  0  # atno 17343 bound_to 10162
  157.6091  131.0937  150.8827 LP  0  0  0  0  0  0  0  0  0  0  0  0  # atno 17370 bound_to 10713
  156.8970  130.5233  149.5284 LP  0  0  0  0  0  0  0  0  0  0  0  0  # atno 17371 bound_to 10713
  140.5253  134.0867  155.7302 LP  0  0  0  0  0  0  0  0  0  0  0  0  # atno 17394 bound_to 11000
  141.1409  133.9140  157.2328 LP  0  0  0  0  0  0  0  0  0  0  0  0  # atno 17395 bound_to 11000

$$$$
