AV-unprocessed.smi:3350|AV-procd|sdf|12942|dock5
  -GOLD-   2272019373D 1   1.00000     0.00000
 Structure written by MMmdl.
 41 42  0  0  0  0  0  0  0  0  1 V2000
  144.8638  137.5338  153.6180 C   0  0  0  0  0  0  0  0  0  0  0  0
  145.3827  136.1763  153.1254 C   0  0  1  0  0  0  0  0  0  0  0  0
  145.0553  135.9577  151.6336 C   0  0  0  0  0  0  0  0  0  0  0  0
  145.2941  134.5915  151.2018 N   0  0  0  0  0  0  0  0  0  0  0  0
  144.4124  133.7150  150.6050 C   0  0  0  0  0  0  0  0  0  0  0  0
  145.0847  132.5465  150.3892 C   0  0  0  0  0  0  0  0  0  0  0  0
  146.3894  132.8093  150.8930 C   0  0  0  0  0  0  0  0  0  0  0  0
  146.5127  134.0349  151.3759 N   0  0  0  0  0  0  0  0  0  0  0  0
  146.8246  136.1068  153.3585 N   0  0  0  0  0  0  0  0  0  0  0  0
  147.4239  136.1276  154.5579 C   0  0  0  0  0  0  0  0  0  0  0  0
  146.8245  136.2166  155.6297 O   0  0  0  0  0  0  0  0  0  0  0  0
  148.7561  136.0324  154.4450 N   0  0  0  0  0  0  0  0  0  0  0  0
  149.7041  136.0173  155.5564 C   0  0  1  0  0  0  0  0  0  0  0  0
  150.4598  134.6798  155.5307 C   0  0  0  0  0  0  0  0  0  0  0  0
  150.6541  137.2288  155.4538 C   0  0  2  0  0  0  0  0  0  0  0  0
  149.9562  138.5712  155.2241 C   0  0  0  0  0  0  0  0  0  0  0  0
  151.0099  139.4162  154.5233 C   0  0  0  0  0  0  0  0  0  0  0  0
  152.0820  138.4060  154.1079 C   0  0  0  0  0  0  0  0  0  0  0  0
  151.4817  137.1343  154.3041 O   0  0  0  0  0  0  0  0  0  0  0  0
  143.7830  137.6084  153.4952 H   0  0  0  0  0  0  0  0  0  0  0  0
  145.3184  138.3575  153.0666 H   0  0  0  0  0  0  0  0  0  0  0  0
  145.0849  137.6785  154.6762 H   0  0  0  0  0  0  0  0  0  0  0  0
  144.8738  135.4071  153.7094 H   0  0  0  0  0  0  0  0  0  0  0  0
  144.0053  136.1849  151.4456 H   0  0  0  0  0  0  0  0  0  0  0  0
  145.6356  136.6395  151.0093 H   0  0  0  0  0  0  0  0  0  0  0  0
  143.3905  133.9915  150.3910 H   0  0  0  0  0  0  0  0  0  0  0  0
  144.7025  131.6413  149.9415 H   0  0  0  0  0  0  0  0  0  0  0  0
  147.2452  132.1513  150.9203 H   0  0  0  0  0  0  0  0  0  0  0  0
  147.4105  136.0244  152.5407 H   0  0  0  0  0  0  0  0  0  0  0  0
  149.1475  135.9640  153.5171 H   0  0  0  0  0  0  0  0  0  0  0  0
  149.1623  136.0722  156.5024 H   0  0  0  0  0  0  0  0  0  0  0  0
  151.1365  134.5887  156.3805 H   0  0  0  0  0  0  0  0  0  0  0  0
  151.0520  134.5750  154.6211 H   0  0  0  0  0  0  0  0  0  0  0  0
  149.7675  133.8383  155.5766 H   0  0  0  0  0  0  0  0  0  0  0  0
  151.2904  137.2897  156.3392 H   0  0  0  0  0  0  0  0  0  0  0  0
  149.0978  138.4414  154.5632 H   0  0  0  0  0  0  0  0  0  0  0  0
  149.6009  139.0232  156.1505 H   0  0  0  0  0  0  0  0  0  0  0  0
  150.5833  139.9268  153.6594 H   0  0  0  0  0  0  0  0  0  0  0  0
  151.4282  140.1730  155.1876 H   0  0  0  0  0  0  0  0  0  0  0  0
  152.4039  138.5362  153.0744 H   0  0  0  0  0  0  0  0  0  0  0  0
  152.9590  138.4908  154.7513 H   0  0  0  0  0  0  0  0  0  0  0  0
  1  2  1  0  0  0  0
  1 20  1  0  0  0  0
  1 21  1  0  0  0  0
  1 22  1  0  0  0  0
  2  3  1  0  0  0  0
  2  9  1  0  0  0  0
  2 23  1  0  0  0  0
  3  4  1  0  0  0  0
  3 24  1  0  0  0  0
  3 25  1  0  0  0  0
  4  8  1  0  0  0  0
  4  5  1  0  0  0  0
  5  6  2  0  0  0  0
  5 26  1  0  0  0  0
  6  7  1  0  0  0  0
  6 27  1  0  0  0  0
  7  8  2  0  0  0  0
  7 28  1  0  0  0  0
  9 10  1  0  0  0  0
  9 29  1  0  0  0  0
 10 11  2  0  0  0  0
 10 12  1  0  0  0  0
 12 13  1  0  0  0  0
 12 30  1  0  0  0  0
 13 14  1  0  0  0  0
 13 15  1  0  0  0  0
 13 31  1  0  0  0  0
 14 32  1  0  0  0  0
 14 33  1  0  0  0  0
 14 34  1  0  0  0  0
 15 19  1  0  0  0  0
 15 16  1  0  0  0  0
 15 35  1  0  0  0  0
 16 17  1  0  0  0  0
 16 36  1  0  0  0  0
 16 37  1  0  0  0  0
 17 18  1  0  0  0  0
 17 38  1  0  0  0  0
 17 39  1  0  0  0  0
 18 19  1  0  0  0  0
 18 40  1  0  0  0  0
 18 41  1  0  0  0  0
M  END
> <s_m_source_file>
AV-unprocessed.smi

> <i_m_source_file_index>
3350

> <i_lp_mmshare_version>
43012

> <i_f3d_flags>
0

> <s_epik_input>
bjFbY0hdW2NIXVtjSF1uMVtDSDJdW0NAQEhdKFtDSDNdKVtOSF1DKD1PKVtOSF1bQ0BIXShbQ0gzXSlbQ0BASF0yW0NIMl1bQ0gyXVtDSDJdTzI=

> <s_epik_cmdline>
J2VwaWtfcHl0aG9uJywgJy1waCcsICc3LjAnLCAnLXRuJywgJzgnLCAnLW1hJywgJzIwMCcsICctbWV0YWxfYmluZGluZycsICctaW1hZScsICc8aW5maWxlLm1hZT4nLCAnLW9tYWUnLCAnPG91dGZpbGUubWFlPic=

> <r_lp_tautomer_probability>
1

> <r_epik_Ionization_Penalty>
6.42349e-05

> <r_epik_Ionization_Penalty_Charging>
0

> <r_epik_Ionization_Penalty_Neutral>
6.42349e-05

> <r_epik_State_Penalty>
-0

> <r_epik_Charging_Adjusted_Penalty>
0

> <i_epik_Tot_Q>
0

> <i_epik_Tot_abs_Q>
0

> <r_epik_Metal_State_Penalty>
-0

> <b_epik_Metal_Only>
0

> <s_lp_Force_Field>
OPLS_2005

> <r_lp_Energy>
15.8996

> <b_lp_Chiralities_Consistent>
1

> <s_lp_Variant>
AV-unprocessed.smi:3350-4

> <Gold.Version>
5.8.1

> <Gold.Id.Protein>
6NUR|6NUR_protein|mol2

> <Gold.PLP.Fitness>
44.3551

> <Gold.PLP.PLP>
-29.6639

> <Gold.PLP.part.hbond>
-3.0000

> <Gold.PLP.part.metal>
0.0000

> <Gold.PLP.part.buried>
-5.1954

> <Gold.PLP.part.nonpolar>
-22.6244

> <Gold.PLP.part.repulsive>
0.5485

> <Gold.PLP.ligand.clash>
0.0000

> <Gold.PLP.ligand.torsion>
0.1784

> <Gold.PLP.Chemscore.Hbond>
2.9920

> <Gold.PLP.Chemscore.CHOScore>
2.0000

> <Gold.PLP.Chemscore.Metal>
0.0000

> <Gold.Chemscore.Hbonds>
donor molecule, donor type, donor heavy atom, donor atom, acceptor molecule, acceptor atom, score
      L1  H     9    29       P1  7948  0.98
      L1  H    12    30       P1  7948  0.99
      P1  H 10752 10764       L1    19  0.89
      L1  C     5    26       P1 10186  0.92
      L1  C     7    28       P1 10747  1.00

> <Gold.PLP.Chemscore.Internal.Correction>
0.0718

> <Gold.Rescore>
     Score         DG    S(hbond)    S(metal)    S(lipo)     H(rot)  DE(clash)    DE(int)     intcor
     16.03     -16.39       2.40        0.00      64.66       1.82       0.01       0.36       ----

> <Gold.Chemscore.Fitness>
16.0276

> <Gold.Chemscore.DG>
-16.3901

> <Gold.Chemscore.ZeroCoef>
-5.4800

> <Gold.Chemscore.Hbond>
2.3962

> <Gold.Chemscore.Metal>
0.0000

> <Gold.Chemscore.Lipo>
64.6604

> <Gold.Chemscore.Internal_Hbond>
0.0000

> <Gold.Chemscore.DEClash>
0.0069

> <Gold.Chemscore.DEInternal>
0.3556

> <Gold.Chemscore.Rot>
1.8197

> <Gold.Chemscore.Internal.Correction>
   9.000000E+99

> <Gold.Chemscore.Hbonds>
donor molecule, donor type, donor heavy atom, donor atom, acceptor molecule, acceptor atom, score
      L1  H     9    29       P1  7948  0.92
      L1  H    12    30       P1  7948  0.80
      P1  H 10752 10764       L1    19  0.59

> <Gold.Chemscore.Hbond.Weighted>
-8.0031

> <Gold.Chemscore.Metal.Weighted>
-0.0000

> <Gold.Chemscore.Lipo.Weighted>
-7.5653

> <Gold.Chemscore.Internal_Hbond.Weighted>
0.0000

> <Gold.Chemscore.DEClash.Weighted>
0.0069

> <Gold.Chemscore.DEInternal.Weighted>
0.3556

> <Gold.Chemscore.Rot.Weighted>
4.6583

> <Gold.Chemscore.Internal.Correction.Weighted>
   9.000000E+99

> <Gold.Protein.RotatedTorsions>
[ 6907 6896 6895 6894 ] final  119.03 input  -60.11 | X-H torsion
[ 7974 7965 7964 7962 ] final  -86.62 input  175.53 | X-H torsion
[ 8008 7997 7996 7995 ] final  171.60 input   59.86 | X-H torsion
[ 10167 10162 10161 10158 ] final    7.77 input  -65.29 | X-H torsion
[ 10718 10713 10712 10709 ] final  168.72 input   66.30 | X-H torsion
[ 10763 10752 10751 10750 ] final  -79.83 input  -60.55 | X-H torsion
[ 11005 11000 10999 10996 ] final   89.99 input  -57.11 | X-H torsion

> <Gold.Protein.ActiveResidues>
 VAL166  LYS551  ARG553  GLY616  TRP617  ASP618  TYR619  PRO620  LYS621  CYS622 
 ASP623  PHE694  ASN695  SER759  ASP760  ASP761  ALA762  ILE779  LEU786  VAL792 
 PHE793  MET794  SER795  GLU796  ALA797  LYS798  CYS799  TRP800  GLU811  SER814 

> <Gold.Protein.RotatedAtoms>
  152.4501  133.7612  159.6747 H   0  0  0  0  0  0  0  0  0  0  0  0  # atno 6907 bound_to 6896
  150.8410  133.7925  159.3067 H   0  0  0  0  0  0  0  0  0  0  0  0  # atno 6908 bound_to 6896
  151.5550  135.1069  160.0010 H   0  0  0  0  0  0  0  0  0  0  0  0  # atno 6909 bound_to 6896
  145.4775  140.9558  143.1883 H   0  0  0  0  0  0  0  0  0  0  0  0  # atno 7974 bound_to 7965
  156.1255  140.1507  156.9142 H   0  0  0  0  0  0  0  0  0  0  0  0  # atno 8008 bound_to 7997
  154.4868  140.0863  156.7546 H   0  0  0  0  0  0  0  0  0  0  0  0  # atno 8009 bound_to 7997
  155.4351  140.3428  155.4286 H   0  0  0  0  0  0  0  0  0  0  0  0  # atno 8010 bound_to 7997
  140.6352  143.7902  150.7350 H   0  0  0  0  0  0  0  0  0  0  0  0  # atno 10167 bound_to 10162
  157.0330  131.0265  151.2738 H   0  0  0  0  0  0  0  0  0  0  0  0  # atno 10718 bound_to 10713
  154.5435  135.5682  153.6860 H   0  0  0  0  0  0  0  0  0  0  0  0  # atno 10763 bound_to 10752
  152.9970  135.6233  154.2469 H   0  0  0  0  0  0  0  0  0  0  0  0  # atno 10764 bound_to 10752
  154.2401  135.2862  155.2837 H   0  0  0  0  0  0  0  0  0  0  0  0  # atno 10765 bound_to 10752
  139.8864  134.8586  156.3220 H   0  0  0  0  0  0  0  0  0  0  0  0  # atno 11005 bound_to 11000
  144.7909  139.6331  143.7114 LP  0  0  0  0  0  0  0  0  0  0  0  0  # atno 17320 bound_to 7965
  146.2361  139.5907  142.9523 LP  0  0  0  0  0  0  0  0  0  0  0  0  # atno 17321 bound_to 7965
  140.1521  143.4348  152.2124 LP  0  0  0  0  0  0  0  0  0  0  0  0  # atno 17342 bound_to 10162
  139.5563  144.7375  151.4284 LP  0  0  0  0  0  0  0  0  0  0  0  0  # atno 17343 bound_to 10162
  157.5163  130.7970  149.7760 LP  0  0  0  0  0  0  0  0  0  0  0  0  # atno 17370 bound_to 10713
  156.0063  130.3854  150.2419 LP  0  0  0  0  0  0  0  0  0  0  0  0  # atno 17371 bound_to 10713
  140.9780  133.7285  156.0630 LP  0  0  0  0  0  0  0  0  0  0  0  0  # atno 17394 bound_to 11000
  140.7786  134.3751  157.5492 LP  0  0  0  0  0  0  0  0  0  0  0  0  # atno 17395 bound_to 11000

$$$$
