AV-unprocessed.smi:1914|AV-procd|sdf|7756|dock3
  -GOLD-   22720 9493D 1   1.00000     0.00000
 Structure written by MMmdl.
 44 45  0  0  0  0  0  0  0  0  2 V2000
  152.6661  142.3132  159.0817 C   0  0  0  0  0  0  0  0  0  0  0  0
  152.8554  141.1600  160.0772 C   0  0  2  0  0  0  0  0  0  0  0  0
  154.0065  141.4466  161.0558 C   0  0  0  0  0  0  0  0  0  0  0  0
  154.1899  140.2678  162.0197 C   0  0  0  0  0  0  0  0  0  0  0  0
  154.3931  138.9538  161.2488 C   0  0  0  0  0  0  0  0  0  0  0  0
  153.2648  138.7001  160.3158 N   0  3  2  0  0  0  0  0  0  0  0  0
  153.3697  137.3717  159.6608 C   0  0  0  0  0  0  0  0  0  0  0  0
  152.2414  137.1259  158.6398 C   0  0  0  0  0  0  0  0  0  0  0  0
  150.9269  137.3012  159.2460 N   0  0  0  0  0  0  0  0  0  0  0  0
  149.8655  136.5126  159.0188 C   0  0  0  0  0  0  0  0  0  0  0  0
  149.9047  135.5307  158.2762 O   0  0  0  0  0  0  0  0  0  0  0  0
  148.5724  136.8891  159.7556 C   0  0  0  0  0  0  0  0  0  0  0  0
  147.9735  135.7603  160.4874 N   0  0  0  0  0  0  0  0  0  0  0  0
  147.7825  134.5599  159.7745 C   0  0  0  0  0  0  0  0  0  0  0  0
  147.2454  133.4714  160.3482 C   0  0  0  0  0  0  0  0  0  0  0  0
  146.8588  133.5519  161.7368 C   0  0  0  0  0  0  0  0  0  0  0  0
  147.0333  134.6964  162.4269 C   0  0  0  0  0  0  0  0  0  0  0  0
  147.6169  135.8896  161.8031 C   0  0  0  0  0  0  0  0  0  0  0  0
  147.7749  136.9416  162.4239 O   0  0  0  0  0  0  0  0  0  0  0  0
  153.0922  139.8200  159.3512 C   0  0  0  0  0  0  0  0  0  0  0  0
  153.5544  142.4548  158.4650 H   0  0  0  0  0  0  0  0  0  0  0  0
  152.4685  143.2514  159.6010 H   0  0  0  0  0  0  0  0  0  0  0  0
  151.8245  142.1234  158.4148 H   0  0  0  0  0  0  0  0  0  0  0  0
  151.9342  141.0719  160.6553 H   0  0  0  0  0  0  0  0  0  0  0  0
  154.9324  141.6167  160.5043 H   0  0  0  0  0  0  0  0  0  0  0  0
  153.8070  142.3590  161.6192 H   0  0  0  0  0  0  0  0  0  0  0  0
  155.0425  140.4513  162.6743 H   0  0  0  0  0  0  0  0  0  0  0  0
  153.3159  140.1827  162.6668 H   0  0  0  0  0  0  0  0  0  0  0  0
  155.3299  138.9850  160.6893 H   0  0  0  0  0  0  0  0  0  0  0  0
  154.4765  138.1329  161.9623 H   0  0  0  0  0  0  0  0  0  0  0  0
  154.3488  137.2652  159.1916 H   0  0  0  0  0  0  0  0  0  0  0  0
  153.3120  136.5969  160.4266 H   0  0  0  0  0  0  0  0  0  0  0  0
  152.3483  137.7927  157.7825 H   0  0  0  0  0  0  0  0  0  0  0  0
  152.2824  136.1099  158.2501 H   0  0  0  0  0  0  0  0  0  0  0  0
  150.8124  138.0813  159.8773 H   0  0  0  0  0  0  0  0  0  0  0  0
  148.7970  137.7132  160.4338 H   0  0  0  0  0  0  0  0  0  0  0  0
  147.8493  137.2933  159.0443 H   0  0  0  0  0  0  0  0  0  0  0  0
  148.0916  134.5832  158.7396 H   0  0  0  0  0  0  0  0  0  0  0  0
  147.1035  132.5606  159.7850 H   0  0  0  0  0  0  0  0  0  0  0  0
  146.4266  132.6906  162.2243 H   0  0  0  0  0  0  0  0  0  0  0  0
  146.7371  134.7381  163.4648 H   0  0  0  0  0  0  0  0  0  0  0  0
  152.2455  139.6219  158.6951 H   0  0  0  0  0  0  0  0  0  0  0  0
  153.9746  139.8880  158.7126 H   0  0  0  0  0  0  0  0  0  0  0  0
  152.4320  138.6701  160.8868 H   0  0  0  0  0  0  0  0  0  0  0  0
  1  2  1  0  0  0  0
  1 21  1  0  0  0  0
  1 22  1  0  0  0  0
  1 23  1  0  0  0  0
  2 20  1  0  0  0  0
  2  3  1  0  0  0  0
  2 24  1  0  0  0  0
  3  4  1  0  0  0  0
  3 25  1  0  0  0  0
  3 26  1  0  0  0  0
  4  5  1  0  0  0  0
  4 27  1  0  0  0  0
  4 28  1  0  0  0  0
  5  6  1  0  0  0  0
  5 29  1  0  0  0  0
  5 30  1  0  0  0  0
  6  7  1  0  0  0  0
  6 20  1  0  0  0  0
  6 44  1  0  0  0  0
  7  8  1  0  0  0  0
  7 31  1  0  0  0  0
  7 32  1  0  0  0  0
  8  9  1  0  0  0  0
  8 33  1  0  0  0  0
  8 34  1  0  0  0  0
  9 10  1  0  0  0  0
  9 35  1  0  0  0  0
 10 11  2  0  0  0  0
 10 12  1  0  0  0  0
 12 13  1  0  0  0  0
 12 36  1  0  0  0  0
 12 37  1  0  0  0  0
 13 18  1  0  0  0  0
 13 14  1  0  0  0  0
 14 15  2  0  0  0  0
 14 38  1  0  0  0  0
 15 16  1  0  0  0  0
 15 39  1  0  0  0  0
 16 17  2  0  0  0  0
 16 40  1  0  0  0  0
 17 18  1  0  0  0  0
 17 41  1  0  0  0  0
 18 19  2  0  0  0  0
 20 42  1  0  0  0  0
 20 43  1  0  0  0  0
M  CHG  1   6   1
M  END
> <s_m_source_file>
AV-unprocessed.smi

> <i_m_source_file_index>
1914

> <i_lp_mmshare_version>
43012

> <i_f3d_flags>
0

> <s_epik_input>
W0NIM11bQ0BASF0xW0NIMl1bQ0gyXVtDSDJdTihbQ0gyXTEpW0NIMl1bQ0gyXVtOSF1DKD1PKVtDSDJdbjJbY0hdW2NIXVtjSF1bY0hdYzI9Tw==

> <s_epik_cmdline>
J2VwaWtfcHl0aG9uJywgJy1waCcsICc3LjAnLCAnLXRuJywgJzgnLCAnLW1hJywgJzIwMCcsICctbWV0YWxfYmluZGluZycsICctaW1hZScsICc8aW5maWxlLm1hZT4nLCAnLW9tYWUnLCAnPG91dGZpbGUubWFlPic=

> <r_lp_tautomer_probability>
1

> <r_epik_Ionization_Penalty>
0.00192477

> <r_epik_Ionization_Penalty_Charging>
0.00192469

> <r_epik_Ionization_Penalty_Neutral>
8.16761e-08

> <r_epik_State_Penalty>
0.00131115

> <r_epik_Charging_Adjusted_Penalty>
0.00323584

> <i_epik_Tot_Q>
1

> <i_epik_Tot_abs_Q>
1

> <r_epik_Metal_State_Penalty>
-0

> <b_epik_Metal_Only>
0

> <s_lp_Force_Field>
OPLS_2005

> <r_lp_Energy>
24.8324

> <b_lp_Chiralities_Consistent>
1

> <s_lp_Variant>
AV-unprocessed.smi:1914-1

> <Gold.Version>
5.8.1

> <Gold.Id.Protein>
6NUR|6NUR_protein|mol2

> <Gold.PLP.Fitness>
49.6502

> <Gold.PLP.PLP>
-43.6433

> <Gold.PLP.part.hbond>
-3.0000

> <Gold.PLP.part.metal>
0.0000

> <Gold.PLP.part.buried>
-4.5256

> <Gold.PLP.part.nonpolar>
-36.4402

> <Gold.PLP.part.repulsive>
0.2954

> <Gold.PLP.ligand.clash>
0.0000

> <Gold.PLP.ligand.torsion>
0.3270

> <Gold.PLP.Chemscore.Hbond>
2.2034

> <Gold.PLP.Chemscore.CHOScore>
0.0000

> <Gold.PLP.Chemscore.Metal>
0.0000

> <Gold.Chemscore.Hbonds>
donor molecule, donor type, donor heavy atom, donor atom, acceptor molecule, acceptor atom, score
      P1  H  6896  6908       L1    11  0.24
      P1  H  6931  6943       L1    19  1.00

> <Gold.PLP.Chemscore.Internal.Correction>
0.0507

> <Gold.Rescore>
     Score         DG    S(hbond)    S(metal)    S(lipo)     H(rot)  DE(clash)    DE(int)     intcor
     17.66     -19.54       2.44        0.00      91.33       1.86       0.02       1.86       ----

> <Gold.Chemscore.Fitness>
17.6587

> <Gold.Chemscore.DG>
-19.5428

> <Gold.Chemscore.ZeroCoef>
-5.4800

> <Gold.Chemscore.Hbond>
2.4357

> <Gold.Chemscore.Metal>
0.0000

> <Gold.Chemscore.Lipo>
91.3304

> <Gold.Chemscore.Internal_Hbond>
0.0000

> <Gold.Chemscore.DEClash>
0.0195

> <Gold.Chemscore.DEInternal>
1.8646

> <Gold.Chemscore.Rot>
1.8586

> <Gold.Chemscore.Internal.Correction>
   9.000000E+99

> <Gold.Chemscore.Hbonds>
donor molecule, donor type, donor heavy atom, donor atom, acceptor molecule, acceptor atom, score
      P1  H  6931  6943       L1    19  0.95

> <Gold.Chemscore.Hbond.Weighted>
-8.1352

> <Gold.Chemscore.Metal.Weighted>
-0.0000

> <Gold.Chemscore.Lipo.Weighted>
-10.6857

> <Gold.Chemscore.Internal_Hbond.Weighted>
0.0000

> <Gold.Chemscore.DEClash.Weighted>
0.0195

> <Gold.Chemscore.DEInternal.Weighted>
1.8646

> <Gold.Chemscore.Rot.Weighted>
4.7581

> <Gold.Chemscore.Internal.Correction.Weighted>
   9.000000E+99

> <Gold.Protein.RotatedTorsions>
[ 6907 6896 6895 6894 ] final -178.79 input  -60.11 | X-H torsion
[ 7974 7965 7964 7962 ] final -138.92 input  175.53 | X-H torsion
[ 8008 7997 7996 7995 ] final -111.91 input   59.86 | X-H torsion
[ 10167 10162 10161 10158 ] final   96.29 input  -65.29 | X-H torsion
[ 10718 10713 10712 10709 ] final -146.31 input   66.30 | X-H torsion
[ 10763 10752 10751 10750 ] final -168.26 input  -60.55 | X-H torsion
[ 11005 11000 10999 10996 ] final   18.95 input  -57.11 | X-H torsion

> <Gold.Protein.ActiveResidues>
 VAL166  LYS551  ARG553  GLY616  TRP617  ASP618  TYR619  PRO620  LYS621  CYS622 
 ASP623  PHE694  ASN695  SER759  ASP760  ASP761  ALA762  ILE779  LEU786  VAL792 
 PHE793  MET794  SER795  GLU796  ALA797  LYS798  CYS799  TRP800  GLU811  SER814 

> <Gold.Protein.RotatedAtoms>
  151.6429  133.3325  159.3133 H   0  0  0  0  0  0  0  0  0  0  0  0  # atno 6907 bound_to 6896
  150.7999  134.7089  159.6602 H   0  0  0  0  0  0  0  0  0  0  0  0  # atno 6908 bound_to 6896
  152.4090  134.6161  160.0090 H   0  0  0  0  0  0  0  0  0  0  0  0  # atno 6909 bound_to 6896
  144.8719  140.6379  143.5262 H   0  0  0  0  0  0  0  0  0  0  0  0  # atno 7974 bound_to 7965
  154.9970  140.0394  157.2344 H   0  0  0  0  0  0  0  0  0  0  0  0  # atno 8008 bound_to 7997
  154.7577  140.2779  155.6217 H   0  0  0  0  0  0  0  0  0  0  0  0  # atno 8009 bound_to 7997
  156.2898  140.2634  156.2348 H   0  0  0  0  0  0  0  0  0  0  0  0  # atno 8010 bound_to 7997
  139.7908  144.6852  150.9895 H   0  0  0  0  0  0  0  0  0  0  0  0  # atno 10167 bound_to 10162
  156.3933  130.7896  151.2101 H   0  0  0  0  0  0  0  0  0  0  0  0  # atno 10718 bound_to 10713
  154.6647  135.2930  154.9820 H   0  0  0  0  0  0  0  0  0  0  0  0  # atno 10763 bound_to 10752
  154.0868  135.6596  153.4850 H   0  0  0  0  0  0  0  0  0  0  0  0  # atno 10764 bound_to 10752
  153.0451  135.5210  154.7615 H   0  0  0  0  0  0  0  0  0  0  0  0  # atno 10765 bound_to 10752
  140.4192  134.1537  155.7672 H   0  0  0  0  0  0  0  0  0  0  0  0  # atno 11005 bound_to 11000
  145.4115  139.1579  143.4123 LP  0  0  0  0  0  0  0  0  0  0  0  0  # atno 17320 bound_to 7965
  146.2936  140.4219  142.8730 LP  0  0  0  0  0  0  0  0  0  0  0  0  # atno 17321 bound_to 7965
  140.7820  143.4383  151.0590 LP  0  0  0  0  0  0  0  0  0  0  0  0  # atno 17342 bound_to 10162
  139.8059  143.8018  152.3167 LP  0  0  0  0  0  0  0  0  0  0  0  0  # atno 17343 bound_to 10162
  157.7500  131.0309  150.4158 LP  0  0  0  0  0  0  0  0  0  0  0  0  # atno 17370 bound_to 10713
  156.4423  130.3994  149.6689 LP  0  0  0  0  0  0  0  0  0  0  0  0  # atno 17371 bound_to 10713
  141.1791  133.8452  157.1321 LP  0  0  0  0  0  0  0  0  0  0  0  0  # atno 17394 bound_to 11000
  140.0212  134.9945  157.0596 LP  0  0  0  0  0  0  0  0  0  0  0  0  # atno 17395 bound_to 11000

$$$$
