AV-unprocessed.smi:1627|AV-procd|sdf|6519|dock3
  -GOLD-   22720 7193D 1   1.00000     0.00000
 Structure written by MMmdl.
 44 45  0  0  0  0  0  0  0  0  2 V2000
  155.8905  135.9346  163.8845 C   0  0  0  0  0  0  0  0  0  0  0  0
  155.4238  135.4272  162.5122 C   0  0  1  0  0  0  0  0  0  0  0  0
  154.5997  134.2867  162.7369 O   0  0  0  0  0  0  0  0  0  0  0  0
  155.2187  133.2122  163.4365 C   0  0  0  0  0  0  0  0  0  0  0  0
  154.2177  132.6098  164.4298 C   0  0  0  0  0  0  0  0  0  0  0  0
  153.6957  133.5852  165.1725 F   0  0  0  0  0  0  0  0  0  0  0  0
  153.2319  131.9949  163.7769 F   0  0  0  0  0  0  0  0  0  0  0  0
  154.8331  131.7428  165.2333 F   0  0  0  0  0  0  0  0  0  0  0  0
  154.6372  136.5109  161.7569 C   0  0  0  0  0  0  0  0  0  0  0  0
  153.7419  136.1818  160.9793 O   0  0  0  0  0  0  0  0  0  0  0  0
  155.0234  137.7808  161.9810 N   0  0  0  0  0  0  0  0  0  0  0  0
  154.4886  138.9776  161.4320 C   0  0  0  0  0  0  0  0  0  0  0  0
  153.8106  139.0467  160.1905 C   0  0  0  0  0  0  0  0  0  0  0  0
  153.3023  140.2837  159.7435 C   0  0  0  0  0  0  0  0  0  0  0  0
  153.4618  141.4440  160.5382 C   0  0  0  0  0  0  0  0  0  0  0  0
  152.9734  142.7071  160.1382 N   0  0  0  0  0  0  0  0  0  0  0  0
  152.5157  142.8020  158.7499 C   0  0  0  0  0  0  0  0  0  0  0  0
  152.4076  144.2686  158.2980 C   0  0  0  0  0  0  0  0  0  0  0  0
  151.5355  145.0828  159.2647 C   0  0  0  0  0  0  0  0  0  0  0  0
  152.0766  144.9511  160.6953 C   0  0  0  0  0  0  0  0  0  0  0  0
  152.1905  143.4743  161.1110 C   0  0  0  0  0  0  0  0  0  0  0  0
  154.1098  141.3228  161.7233 N   0  3  0  0  0  0  0  0  0  0  0  0
  154.6108  140.1590  162.1906 C   0  0  0  0  0  0  0  0  0  0  0  0
  156.5200  136.8200  163.7877 H   0  0  0  0  0  0  0  0  0  0  0  0
  156.4741  135.1714  164.3996 H   0  0  0  0  0  0  0  0  0  0  0  0
  155.0470  136.1910  164.5267 H   0  0  0  0  0  0  0  0  0  0  0  0
  156.3045  135.1335  161.9377 H   0  0  0  0  0  0  0  0  0  0  0  0
  155.5560  132.4374  162.7472 H   0  0  0  0  0  0  0  0  0  0  0  0
  156.0965  133.5767  163.9722 H   0  0  0  0  0  0  0  0  0  0  0  0
  155.8339  137.8970  162.5721 H   0  0  0  0  0  0  0  0  0  0  0  0
  153.6601  138.1740  159.5742 H   0  0  0  0  0  0  0  0  0  0  0  0
  152.8045  140.3275  158.7863 H   0  0  0  0  0  0  0  0  0  0  0  0
  153.1788  142.2740  158.0665 H   0  0  0  0  0  0  0  0  0  0  0  0
  151.5408  142.3186  158.6731 H   0  0  0  0  0  0  0  0  0  0  0  0
  153.4044  144.7089  158.2474 H   0  0  0  0  0  0  0  0  0  0  0  0
  151.9958  144.3187  157.2897 H   0  0  0  0  0  0  0  0  0  0  0  0
  151.5160  146.1306  158.9635 H   0  0  0  0  0  0  0  0  0  0  0  0
  150.5057  144.7253  159.2248 H   0  0  0  0  0  0  0  0  0  0  0  0
  153.0576  145.4242  160.7583 H   0  0  0  0  0  0  0  0  0  0  0  0
  151.4300  145.4862  161.3914 H   0  0  0  0  0  0  0  0  0  0  0  0
  151.1966  143.0330  161.1967 H   0  0  0  0  0  0  0  0  0  0  0  0
  152.6545  143.4219  162.0967 H   0  0  0  0  0  0  0  0  0  0  0  0
  155.0989  140.2125  163.1530 H   0  0  0  0  0  0  0  0  0  0  0  0
  154.2226  142.1583  162.2977 H   0  0  0  0  0  0  0  0  0  0  0  0
  1  2  1  0  0  0  0
  1 24  1  0  0  0  0
  1 25  1  0  0  0  0
  1 26  1  0  0  0  0
  2  3  1  0  0  0  0
  2  9  1  0  0  0  0
  2 27  1  0  0  0  0
  3  4  1  0  0  0  0
  4  5  1  0  0  0  0
  4 28  1  0  0  0  0
  4 29  1  0  0  0  0
  5  6  1  0  0  0  0
  5  7  1  0  0  0  0
  5  8  1  0  0  0  0
  9 10  2  0  0  0  0
  9 11  1  0  0  0  0
 11 12  1  0  0  0  0
 11 30  1  0  0  0  0
 12 23  1  0  0  0  0
 12 13  2  0  0  0  0
 13 14  1  0  0  0  0
 13 31  1  0  0  0  0
 14 15  2  0  0  0  0
 14 32  1  0  0  0  0
 15 16  1  0  0  0  0
 15 22  1  0  0  0  0
 16 21  1  0  0  0  0
 16 17  1  0  0  0  0
 17 18  1  0  0  0  0
 17 33  1  0  0  0  0
 17 34  1  0  0  0  0
 18 19  1  0  0  0  0
 18 35  1  0  0  0  0
 18 36  1  0  0  0  0
 19 20  1  0  0  0  0
 19 37  1  0  0  0  0
 19 38  1  0  0  0  0
 20 21  1  0  0  0  0
 20 39  1  0  0  0  0
 20 40  1  0  0  0  0
 21 41  1  0  0  0  0
 21 42  1  0  0  0  0
 22 23  2  0  0  0  0
 22 44  1  0  0  0  0
 23 43  1  0  0  0  0
M  CHG  1  22   1
M  END
> <s_m_source_file>
AV-unprocessed.smi

> <i_m_source_file_index>
1627

> <i_lp_mmshare_version>
43012

> <i_f3d_flags>
0

> <s_epik_input>
RkMoRikoRilbQ0gyXU9bQ0BASF0oW0NIM10pQyg9TylbTkhdYzFbY0hdW2NIXWMobltjSF0xKU4yW0NIMl1bQ0gyXVtDSDJdW0NIMl1bQ0gyXTI=

> <s_epik_cmdline>
J2VwaWtfcHl0aG9uJywgJy1waCcsICc3LjAnLCAnLXRuJywgJzgnLCAnLW1hJywgJzIwMCcsICctbWV0YWxfYmluZGluZycsICctaW1hZScsICc8aW5maWxlLm1hZT4nLCAnLW9tYWUnLCAnPG91dGZpbGUubWFlPic=

> <r_lp_tautomer_probability>
0.999994

> <r_epik_Ionization_Penalty>
1.93197

> <r_epik_Ionization_Penalty_Charging>
1.93197

> <r_epik_Ionization_Penalty_Neutral>
3.16684e-06

> <r_epik_State_Penalty>
2.05557

> <r_epik_Charging_Adjusted_Penalty>
3.98754

> <i_epik_Tot_Q>
1

> <i_epik_Tot_abs_Q>
1

> <r_epik_Metal_State_Penalty>
2.08108

> <b_epik_Metal_Only>
0

> <s_lp_Force_Field>
OPLS_2005

> <r_lp_Energy>
31.3841

> <b_lp_Chiralities_Consistent>
1

> <s_lp_Variant>
AV-unprocessed.smi:1627-4

> <Gold.Version>
5.8.1

> <Gold.Id.Protein>
6NUR|6NUR_protein|mol2

> <Gold.PLP.Fitness>
46.1954

> <Gold.PLP.PLP>
-46.4911

> <Gold.PLP.part.hbond>
-1.0887

> <Gold.PLP.part.metal>
0.0000

> <Gold.PLP.part.buried>
-6.7681

> <Gold.PLP.part.nonpolar>
-39.6668

> <Gold.PLP.part.repulsive>
0.0000

> <Gold.PLP.ligand.clash>
0.0000

> <Gold.PLP.ligand.torsion>
1.4595

> <Gold.PLP.Chemscore.Hbond>
0.6988

> <Gold.PLP.Chemscore.CHOScore>
0.0000

> <Gold.PLP.Chemscore.Metal>
0.0000

> <Gold.Chemscore.Hbonds>
donor molecule, donor type, donor heavy atom, donor atom, acceptor molecule, acceptor atom, score
      P1  H  6896  6909       L1    10  0.68

> <Gold.PLP.Chemscore.Internal.Correction>
0.5271

> <Gold.Rescore>
     Score         DG    S(hbond)    S(metal)    S(lipo)     H(rot)  DE(clash)    DE(int)     intcor
     13.95     -16.36       0.98        0.00     106.53       1.90       0.02       2.39       ----

> <Gold.Chemscore.Fitness>
13.9475

> <Gold.Chemscore.DG>
-16.3564

> <Gold.Chemscore.ZeroCoef>
-5.4800

> <Gold.Chemscore.Hbond>
0.9813

> <Gold.Chemscore.Metal>
0.0000

> <Gold.Chemscore.Lipo>
106.5340

> <Gold.Chemscore.Internal_Hbond>
0.0000

> <Gold.Chemscore.DEClash>
0.0193

> <Gold.Chemscore.DEInternal>
2.3896

> <Gold.Chemscore.Rot>
1.9007

> <Gold.Chemscore.Internal.Correction>
   9.000000E+99

> <Gold.Chemscore.Hbonds>
donor molecule, donor type, donor heavy atom, donor atom, acceptor molecule, acceptor atom, score
      P1  H  6896  6909       L1    10  0.68

> <Gold.Chemscore.Hbond.Weighted>
-3.2776

> <Gold.Chemscore.Metal.Weighted>
-0.0000

> <Gold.Chemscore.Lipo.Weighted>
-12.4645

> <Gold.Chemscore.Internal_Hbond.Weighted>
0.0000

> <Gold.Chemscore.DEClash.Weighted>
0.0193

> <Gold.Chemscore.DEInternal.Weighted>
2.3896

> <Gold.Chemscore.Rot.Weighted>
4.8657

> <Gold.Chemscore.Internal.Correction.Weighted>
   9.000000E+99

> <Gold.Protein.RotatedTorsions>
[ 6907 6896 6895 6894 ] final  166.19 input  -60.11 | X-H torsion
[ 7974 7965 7964 7962 ] final  138.96 input  175.53 | X-H torsion
[ 8008 7997 7996 7995 ] final   18.54 input   59.86 | X-H torsion
[ 10167 10162 10161 10158 ] final  -90.12 input  -65.29 | X-H torsion
[ 10718 10713 10712 10709 ] final   16.94 input   66.30 | X-H torsion
[ 10763 10752 10751 10750 ] final    8.65 input  -60.55 | X-H torsion
[ 11005 11000 10999 10996 ] final  -28.16 input  -57.11 | X-H torsion

> <Gold.Protein.ActiveResidues>
 VAL166  LYS551  ARG553  GLY616  TRP617  ASP618  TYR619  PRO620  LYS621  CYS622 
 ASP623  PHE694  ASN695  SER759  ASP760  ASP761  ALA762  ILE779  LEU786  VAL792 
 PHE793  MET794  SER795  GLU796  ALA797  LYS798  CYS799  TRP800  GLU811  SER814 

> <Gold.Protein.RotatedAtoms>
  151.8827  133.3499  159.3771 H   0  0  0  0  0  0  0  0  0  0  0  0  # atno 6907 bound_to 6896
  150.7123  134.5002  159.5567 H   0  0  0  0  0  0  0  0  0  0  0  0  # atno 6908 bound_to 6896
  152.2557  134.8087  160.0490 H   0  0  0  0  0  0  0  0  0  0  0  0  # atno 6909 bound_to 6896
  144.9324  139.5031  143.5611 H   0  0  0  0  0  0  0  0  0  0  0  0  # atno 7974 bound_to 7965
  154.9076  140.3009  155.5284 H   0  0  0  0  0  0  0  0  0  0  0  0  # atno 8008 bound_to 7997
  156.3016  140.2395  156.4046 H   0  0  0  0  0  0  0  0  0  0  0  0  # atno 8009 bound_to 7997
  154.8458  140.0411  157.1560 H   0  0  0  0  0  0  0  0  0  0  0  0  # atno 8010 bound_to 7997
  140.3581  143.2856  151.9647 H   0  0  0  0  0  0  0  0  0  0  0  0  # atno 10167 bound_to 10162
  157.0751  130.6364  149.5814 H   0  0  0  0  0  0  0  0  0  0  0  0  # atno 10718 bound_to 10713
  153.2227  135.6883  153.7981 H   0  0  0  0  0  0  0  0  0  0  0  0  # atno 10763 bound_to 10752
  153.7174  135.3272  155.3260 H   0  0  0  0  0  0  0  0  0  0  0  0  # atno 10764 bound_to 10752
  154.8277  135.4605  154.1081 H   0  0  0  0  0  0  0  0  0  0  0  0  # atno 10765 bound_to 10752
  140.9184  133.7415  156.0767 H   0  0  0  0  0  0  0  0  0  0  0  0  # atno 11005 bound_to 11000
  146.3252  139.8283  142.8913 LP  0  0  0  0  0  0  0  0  0  0  0  0  # atno 17320 bound_to 7965
  145.3121  141.0222  143.3548 LP  0  0  0  0  0  0  0  0  0  0  0  0  # atno 17321 bound_to 7965
  139.4817  144.6017  151.7593 LP  0  0  0  0  0  0  0  0  0  0  0  0  # atno 17342 bound_to 10162
  140.5154  144.0961  150.6007 LP  0  0  0  0  0  0  0  0  0  0  0  0  # atno 17343 bound_to 10162
  155.9939  130.5002  150.7400 LP  0  0  0  0  0  0  0  0  0  0  0  0  # atno 17370 bound_to 10713
  157.4846  131.0905  151.0497 LP  0  0  0  0  0  0  0  0  0  0  0  0  # atno 17371 bound_to 10713
  140.8020  134.3498  157.5437 LP  0  0  0  0  0  0  0  0  0  0  0  0  # atno 17394 bound_to 11000
  139.8770  134.9203  156.3248 LP  0  0  0  0  0  0  0  0  0  0  0  0  # atno 17395 bound_to 11000

$$$$
