AV-unprocessed.smi:1644|AV-procd|sdf|6588|dock6
  -GOLD-   22720 7283D 1   1.00000     0.00000
 Structure written by MMmdl.
 50 52  0  0  0  0  0  0  0  0  2 V2000
  147.8388  136.5753  155.2593 C   0  0  0  0  0  0  0  0  0  0  0  0
  146.8617  137.7301  155.5048 C   0  0  0  0  0  0  0  0  0  0  0  0
  146.3663  138.3696  154.1978 C   0  0  0  0  0  0  0  0  0  0  0  0
  147.3610  139.3867  153.6049 C   0  0  2  0  0  0  0  0  0  0  0  0
  148.7158  138.8748  153.5431 N   0  0  0  0  0  0  0  0  0  0  0  0
  149.5788  139.6137  154.2518 C   0  0  0  0  0  0  0  0  0  0  0  0
  150.7820  139.3849  154.3650 O   0  0  0  0  0  0  0  0  0  0  0  0
  148.9021  140.6303  154.8166 N   0  0  0  0  0  0  0  0  0  0  0  0
  149.5054  141.6430  155.6889 C   0  0  0  0  0  0  0  0  0  0  0  0
  150.3942  141.0075  156.7777 C   0  0  2  0  0  0  0  0  0  0  0  0
  149.6508  140.9309  157.9788 O   0  0  0  0  0  0  0  0  0  0  0  0
  151.6632  141.8442  157.0348 C   0  0  0  0  0  0  0  0  0  0  0  0
  151.4821  142.8413  158.0996 N   0  0  0  0  0  0  0  0  0  0  0  0
  150.8134  144.0258  158.0720 C   0  0  0  0  0  0  0  0  0  0  0  0
  150.9328  144.5941  159.3036 N   0  3  0  0  0  0  0  0  0  0  0  0
  151.6913  143.7615  160.1291 C   0  0  0  0  0  0  0  0  0  0  0  0
  152.0842  143.9081  161.4541 C   0  0  0  0  0  0  0  0  0  0  0  0
  152.8664  142.8725  162.0136 C   0  0  0  0  0  0  0  0  0  0  0  0
  153.3167  143.0036  163.4587 C   0  0  0  0  0  0  0  0  0  0  0  0
  153.2274  141.7347  161.2463 C   0  0  0  0  0  0  0  0  0  0  0  0
  154.0705  140.6277  161.8566 C   0  0  0  0  0  0  0  0  0  0  0  0
  152.8163  141.6038  159.9006 C   0  0  0  0  0  0  0  0  0  0  0  0
  152.0468  142.6338  159.3638 C   0  0  0  0  0  0  0  0  0  0  0  0
  147.5984  140.5773  154.5149 C   0  0  0  0  0  0  0  0  0  0  0  0
  146.7121  141.3399  154.8995 O   0  0  0  0  0  0  0  0  0  0  0  0
  148.1786  136.1470  156.2025 H   0  0  0  0  0  0  0  0  0  0  0  0
  148.7187  136.9137  154.7116 H   0  0  0  0  0  0  0  0  0  0  0  0
  147.3695  135.7784  154.6819 H   0  0  0  0  0  0  0  0  0  0  0  0
  146.0144  137.3611  156.0836 H   0  0  0  0  0  0  0  0  0  0  0  0
  147.3491  138.4876  156.1193 H   0  0  0  0  0  0  0  0  0  0  0  0
  146.1852  137.5803  153.4666 H   0  0  0  0  0  0  0  0  0  0  0  0
  145.4015  138.8493  154.3717 H   0  0  0  0  0  0  0  0  0  0  0  0
  147.0425  139.7288  152.6194 H   0  0  0  0  0  0  0  0  0  0  0  0
  148.9665  138.0477  153.0211 H   0  0  0  0  0  0  0  0  0  0  0  0
  150.1092  142.3053  155.0656 H   0  0  0  0  0  0  0  0  0  0  0  0
  148.7449  142.2882  156.1333 H   0  0  0  0  0  0  0  0  0  0  0  0
  150.6918  139.9999  156.4836 H   0  0  0  0  0  0  0  0  0  0  0  0
  149.3568  141.7998  158.2068 H   0  0  0  0  0  0  0  0  0  0  0  0
  152.4780  141.1911  157.3502 H   0  0  0  0  0  0  0  0  0  0  0  0
  152.0054  142.3403  156.1262 H   0  0  0  0  0  0  0  0  0  0  0  0
  150.2846  144.4405  157.2258 H   0  0  0  0  0  0  0  0  0  0  0  0
  151.8063  144.7780  162.0312 H   0  0  0  0  0  0  0  0  0  0  0  0
  152.9157  142.1874  164.0600 H   0  0  0  0  0  0  0  0  0  0  0  0
  152.9758  143.9410  163.8998 H   0  0  0  0  0  0  0  0  0  0  0  0
  154.4049  142.9816  163.5249 H   0  0  0  0  0  0  0  0  0  0  0  0
  154.2343  139.8146  161.1488 H   0  0  0  0  0  0  0  0  0  0  0  0
  153.5772  140.2088  162.7340 H   0  0  0  0  0  0  0  0  0  0  0  0
  155.0461  141.0107  162.1562 H   0  0  0  0  0  0  0  0  0  0  0  0
  153.0987  140.7415  159.3151 H   0  0  0  0  0  0  0  0  0  0  0  0
  150.5277  145.4859  159.5580 H   0  0  0  0  0  0  0  0  0  0  0  0
  1  2  1  0  0  0  0
  1 26  1  0  0  0  0
  1 27  1  0  0  0  0
  1 28  1  0  0  0  0
  2  3  1  0  0  0  0
  2 29  1  0  0  0  0
  2 30  1  0  0  0  0
  3  4  1  0  0  0  0
  3 31  1  0  0  0  0
  3 32  1  0  0  0  0
  4 24  1  0  0  0  0
  4  5  1  0  0  0  0
  4 33  1  0  0  0  0
  5  6  1  0  0  0  0
  5 34  1  0  0  0  0
  6  7  2  0  0  0  0
  6  8  1  0  0  0  0
  8  9  1  0  0  0  0
  8 24  1  0  0  0  0
  9 10  1  0  0  0  0
  9 35  1  0  0  0  0
  9 36  1  0  0  0  0
 10 11  1  0  0  0  0
 10 12  1  0  0  0  0
 10 37  1  0  0  0  0
 11 38  1  0  0  0  0
 12 13  1  0  0  0  0
 12 39  1  0  0  0  0
 12 40  1  0  0  0  0
 13 23  1  0  0  0  0
 13 14  1  0  0  0  0
 14 15  2  0  0  0  0
 14 41  1  0  0  0  0
 15 16  1  0  0  0  0
 15 50  1  0  0  0  0
 16 23  2  0  0  0  0
 16 17  1  0  0  0  0
 17 18  2  0  0  0  0
 17 42  1  0  0  0  0
 18 19  1  0  0  0  0
 18 20  1  0  0  0  0
 19 43  1  0  0  0  0
 19 44  1  0  0  0  0
 19 45  1  0  0  0  0
 20 21  1  0  0  0  0
 20 22  2  0  0  0  0
 21 46  1  0  0  0  0
 21 47  1  0  0  0  0
 21 48  1  0  0  0  0
 22 23  1  0  0  0  0
 22 49  1  0  0  0  0
 24 25  2  0  0  0  0
M  CHG  1  15   1
M  END
> <s_m_source_file>
AV-unprocessed.smi

> <i_m_source_file_index>
1644

> <i_lp_mmshare_version>
43012

> <i_f3d_flags>
0

> <s_epik_input>
W0NIM11bQ0gyXVtDSDJdW0NAQEhdMVtOSF1DKD1PKU4oQzE9TylbQ0gyXVtDQEhdKFtPSF0pW0NIMl1uKFtjSF1uMiljKGMyMylbY0hdYyhbQ0gzXSljKFtjSF0zKVtDSDNd

> <s_epik_cmdline>
J2VwaWtfcHl0aG9uJywgJy1waCcsICc3LjAnLCAnLXRuJywgJzgnLCAnLW1hJywgJzIwMCcsICctbWV0YWxfYmluZGluZycsICctaW1hZScsICc8aW5maWxlLm1hZT4nLCAnLW9tYWUnLCAnPG91dGZpbGUubWFlPic=

> <r_lp_tautomer_probability>
1

> <r_epik_Ionization_Penalty>
1.06742

> <r_epik_Ionization_Penalty_Charging>
1.06736

> <r_epik_Ionization_Penalty_Neutral>
5.56132e-05

> <r_epik_State_Penalty>
1.12163

> <r_epik_Charging_Adjusted_Penalty>
2.18899

> <i_epik_Tot_Q>
1

> <i_epik_Tot_abs_Q>
1

> <r_epik_Metal_State_Penalty>
1.26636

> <b_epik_Metal_Only>
0

> <s_lp_Force_Field>
OPLS_2005

> <r_lp_Energy>
29.1926

> <b_lp_Chiralities_Consistent>
1

> <s_lp_Variant>
AV-unprocessed.smi:1644-5

> <Gold.Version>
5.8.1

> <Gold.Id.Protein>
6NUR|6NUR_protein|mol2

> <Gold.PLP.Fitness>
54.6350

> <Gold.PLP.PLP>
-48.7429

> <Gold.PLP.part.hbond>
-3.0000

> <Gold.PLP.part.metal>
0.0000

> <Gold.PLP.part.buried>
-5.9131

> <Gold.PLP.part.nonpolar>
-39.7422

> <Gold.PLP.part.repulsive>
0.4263

> <Gold.PLP.ligand.clash>
0.0000

> <Gold.PLP.ligand.torsion>
1.3833

> <Gold.PLP.Chemscore.Hbond>
1.8500

> <Gold.PLP.Chemscore.CHOScore>
1.0000

> <Gold.PLP.Chemscore.Metal>
0.0000

> <Gold.Chemscore.Hbonds>
donor molecule, donor type, donor heavy atom, donor atom, acceptor molecule, acceptor atom, score
      L1  H     5    34       P1  7948  0.76
      P1  H  7989  7998       L1     7  1.00
      L1  C    14    41       P1  8028  1.00

> <Gold.PLP.Chemscore.Internal.Correction>
0.1087

> <Gold.Rescore>
     Score         DG    S(hbond)    S(metal)    S(lipo)     H(rot)  DE(clash)    DE(int)     intcor
     15.56     -17.95       1.91        0.00     113.16       2.80       1.20       1.19       ----

> <Gold.Chemscore.Fitness>
15.5582

> <Gold.Chemscore.DG>
-17.9480

> <Gold.Chemscore.ZeroCoef>
-5.4800

> <Gold.Chemscore.Hbond>
1.9121

> <Gold.Chemscore.Metal>
0.0000

> <Gold.Chemscore.Lipo>
113.1590

> <Gold.Chemscore.Internal_Hbond>
0.0000

> <Gold.Chemscore.DEClash>
1.2043

> <Gold.Chemscore.DEInternal>
1.1855

> <Gold.Chemscore.Rot>
2.7961

> <Gold.Chemscore.Internal.Correction>
   9.000000E+99

> <Gold.Chemscore.Hbonds>
donor molecule, donor type, donor heavy atom, donor atom, acceptor molecule, acceptor atom, score
      L1  H     5    34       P1  7948  0.75
      P1  H  7989  7998       L1     7  0.45

> <Gold.Chemscore.Hbond.Weighted>
-6.3865

> <Gold.Chemscore.Metal.Weighted>
-0.0000

> <Gold.Chemscore.Lipo.Weighted>
-13.2396

> <Gold.Chemscore.Internal_Hbond.Weighted>
0.0000

> <Gold.Chemscore.DEClash.Weighted>
1.2043

> <Gold.Chemscore.DEInternal.Weighted>
1.1855

> <Gold.Chemscore.Rot.Weighted>
7.1580

> <Gold.Chemscore.Internal.Correction.Weighted>
   9.000000E+99

> <Gold.Protein.RotatedTorsions>
[ 6907 6896 6895 6894 ] final  172.84 input  -60.11 | X-H torsion
[ 7974 7965 7964 7962 ] final   56.07 input  175.53 | X-H torsion
[ 8008 7997 7996 7995 ] final -156.93 input   59.86 | X-H torsion
[ 10167 10162 10161 10158 ] final   86.02 input  -65.29 | X-H torsion
[ 10718 10713 10712 10709 ] final    7.04 input   66.30 | X-H torsion
[ 10763 10752 10751 10750 ] final  -66.63 input  -60.55 | X-H torsion
[ 11005 11000 10999 10996 ] final  -42.95 input  -57.11 | X-H torsion

> <Gold.Protein.ActiveResidues>
 VAL166  LYS551  ARG553  GLY616  TRP617  ASP618  TYR619  PRO620  LYS621  CYS622 
 ASP623  PHE694  ASN695  SER759  ASP760  ASP761  ALA762  ILE779  LEU786  VAL792 
 PHE793  MET794  SER795  GLU796  ALA797  LYS798  CYS799  TRP800  GLU811  SER814 

> <Gold.Protein.RotatedAtoms>
  151.7779  133.3347  159.3462 H   0  0  0  0  0  0  0  0  0  0  0  0  # atno 6907 bound_to 6896
  150.7437  134.5958  159.6020 H   0  0  0  0  0  0  0  0  0  0  0  0  # atno 6908 bound_to 6896
  152.3296  134.7278  160.0344 H   0  0  0  0  0  0  0  0  0  0  0  0  # atno 6909 bound_to 6896
  145.9437  139.3911  143.0348 H   0  0  0  0  0  0  0  0  0  0  0  0  # atno 7974 bound_to 7965
  155.7247  140.0794  157.2315 H   0  0  0  0  0  0  0  0  0  0  0  0  # atno 8008 bound_to 7997
  154.4040  140.1606  156.2495 H   0  0  0  0  0  0  0  0  0  0  0  0  # atno 8009 bound_to 7997
  155.9164  140.3400  155.6141 H   0  0  0  0  0  0  0  0  0  0  0  0  # atno 8010 bound_to 7997
  139.8918  144.6381  150.8730 H   0  0  0  0  0  0  0  0  0  0  0  0  # atno 10167 bound_to 10162
  156.9311  130.5826  149.5649 H   0  0  0  0  0  0  0  0  0  0  0  0  # atno 10718 bound_to 10713
  154.3627  135.6112  153.5699 H   0  0  0  0  0  0  0  0  0  0  0  0  # atno 10763 bound_to 10752
  152.9793  135.5819  154.4614 H   0  0  0  0  0  0  0  0  0  0  0  0  # atno 10764 bound_to 10752
  154.4355  135.2849  155.1861 H   0  0  0  0  0  0  0  0  0  0  0  0  # atno 10765 bound_to 10752
  141.0351  133.6803  156.2665 H   0  0  0  0  0  0  0  0  0  0  0  0  # atno 11005 bound_to 11000
  145.8265  140.9653  143.0871 LP  0  0  0  0  0  0  0  0  0  0  0  0  # atno 17320 bound_to 7965
  144.6783  140.0107  143.7484 LP  0  0  0  0  0  0  0  0  0  0  0  0  # atno 17321 bound_to 7965
  140.7725  143.3504  151.2026 LP  0  0  0  0  0  0  0  0  0  0  0  0  # atno 17342 bound_to 10162
  139.7103  143.9388  152.2944 LP  0  0  0  0  0  0  0  0  0  0  0  0  # atno 17343 bound_to 10162
  156.0447  130.5525  150.8852 LP  0  0  0  0  0  0  0  0  0  0  0  0  # atno 17370 bound_to 10713
  157.5846  131.0946  150.9216 LP  0  0  0  0  0  0  0  0  0  0  0  0  # atno 17371 bound_to 10713
  140.6337  134.5237  157.5562 LP  0  0  0  0  0  0  0  0  0  0  0  0  # atno 17394 bound_to 11000
  139.9235  134.8102  156.1140 LP  0  0  0  0  0  0  0  0  0  0  0  0  # atno 17395 bound_to 11000

$$$$
