AV-unprocessed.smi:2713|AV-procd|sdf|10478|dock2
  -GOLD-   2272014523D 1   1.00000     0.00000
 Structure written by MMmdl.
 53 54  0  0  0  0  0  0  0  0  2 V2000
  144.1638  132.6588  148.9173 C   0  0  0  0  0  0  0  0  0  0  0  0
  144.8884  133.0494  150.2244 C   0  0  0  0  0  0  0  0  0  0  0  0
  144.1576  132.3239  151.3743 C   0  0  0  0  0  0  0  0  0  0  0  0
  146.3360  132.5208  150.1886 C   0  0  0  0  0  0  0  0  0  0  0  0
  144.7904  134.5845  150.5129 C   0  0  0  0  0  0  0  0  0  0  0  0
  145.2097  135.2038  151.8875 C   0  0  0  0  0  0  0  0  0  0  0  0
  145.3811  136.7325  151.8153 C   0  0  0  0  0  0  0  0  0  0  0  0
  144.0763  134.9308  152.9019 C   0  0  0  0  0  0  0  0  0  0  0  0
  146.4857  134.6359  152.4034 N   0  3  0  0  0  0  0  0  0  0  0  0
  146.7825  134.7704  153.8488 C   0  0  0  0  0  0  0  0  0  0  0  0
  147.9765  133.9156  154.2193 C   0  0  0  0  0  0  0  0  0  0  0  0
  148.0662  132.5598  153.8456 C   0  0  0  0  0  0  0  0  0  0  0  0
  149.1301  131.8017  154.1834 N   0  0  0  0  0  0  0  0  0  0  0  0
  150.1132  132.3770  154.8905 C   0  0  0  0  0  0  0  0  0  0  0  0
  151.2133  131.5835  155.2397 N   0  0  0  0  0  0  0  0  0  0  0  0
  152.0501  131.8897  156.4029 C   0  0  0  0  0  0  0  0  0  0  0  0
  153.5010  131.4363  156.1697 C   0  0  0  0  0  0  0  0  0  0  0  0
  153.5259  130.0557  155.8302 O   0  0  0  0  0  0  0  0  0  0  0  0
  152.8158  129.8024  154.6246 C   0  0  0  0  0  0  0  0  0  0  0  0
  151.3380  130.1914  154.7993 C   0  0  0  0  0  0  0  0  0  0  0  0
  150.1191  133.6571  155.2886 N   0  0  0  0  0  0  0  0  0  0  0  0
  149.0629  134.4282  154.9562 C   0  0  0  0  0  0  0  0  0  0  0  0
  144.0862  131.5750  148.8228 H   0  0  0  0  0  0  0  0  0  0  0  0
  144.6787  133.0031  148.0243 H   0  0  0  0  0  0  0  0  0  0  0  0
  143.1489  133.0564  148.8880 H   0  0  0  0  0  0  0  0  0  0  0  0
  143.1179  132.6450  151.4506 H   0  0  0  0  0  0  0  0  0  0  0  0
  144.6313  132.5181  152.3375 H   0  0  0  0  0  0  0  0  0  0  0  0
  144.1537  131.2425  151.2307 H   0  0  0  0  0  0  0  0  0  0  0  0
  146.3539  131.4361  150.0763 H   0  0  0  0  0  0  0  0  0  0  0  0
  146.8700  132.7557  151.1090 H   0  0  0  0  0  0  0  0  0  0  0  0
  146.9022  132.9302  149.3529 H   0  0  0  0  0  0  0  0  0  0  0  0
  145.3722  135.0863  149.7381 H   0  0  0  0  0  0  0  0  0  0  0  0
  143.7701  134.9061  150.3051 H   0  0  0  0  0  0  0  0  0  0  0  0
  144.5239  137.2106  151.3401 H   0  0  0  0  0  0  0  0  0  0  0  0
  146.2788  137.0173  151.2689 H   0  0  0  0  0  0  0  0  0  0  0  0
  145.4813  137.1646  152.8120 H   0  0  0  0  0  0  0  0  0  0  0  0
  143.1659  135.4658  152.6281 H   0  0  0  0  0  0  0  0  0  0  0  0
  144.3508  135.2525  153.9076 H   0  0  0  0  0  0  0  0  0  0  0  0
  143.8135  133.8741  152.9529 H   0  0  0  0  0  0  0  0  0  0  0  0
  146.4924  133.6511  152.1785 H   0  0  0  0  0  0  0  0  0  0  0  0
  147.0042  135.8054  154.1072 H   0  0  0  0  0  0  0  0  0  0  0  0
  145.9316  134.4588  154.4533 H   0  0  0  0  0  0  0  0  0  0  0  0
  147.2819  132.0794  153.2795 H   0  0  0  0  0  0  0  0  0  0  0  0
  152.0592  132.9537  156.6370 H   0  0  0  0  0  0  0  0  0  0  0  0
  151.6348  131.3795  157.2726 H   0  0  0  0  0  0  0  0  0  0  0  0
  153.9712  132.0259  155.3810 H   0  0  0  0  0  0  0  0  0  0  0  0
  154.0904  131.5891  157.0739 H   0  0  0  0  0  0  0  0  0  0  0  0
  153.2688  130.3538  153.7990 H   0  0  0  0  0  0  0  0  0  0  0  0
  152.8979  128.7430  154.3815 H   0  0  0  0  0  0  0  0  0  0  0  0
  150.8657  129.5461  155.5407 H   0  0  0  0  0  0  0  0  0  0  0  0
  150.8265  130.0146  153.8534 H   0  0  0  0  0  0  0  0  0  0  0  0
  149.0845  135.4562  155.2863 H   0  0  0  0  0  0  0  0  0  0  0  0
  147.2394  135.0766  151.8957 H   0  0  0  0  0  0  0  0  0  0  0  0
  1  2  1  0  0  0  0
  1 23  1  0  0  0  0
  1 24  1  0  0  0  0
  1 25  1  0  0  0  0
  2  3  1  0  0  0  0
  2  4  1  0  0  0  0
  2  5  1  0  0  0  0
  3 26  1  0  0  0  0
  3 27  1  0  0  0  0
  3 28  1  0  0  0  0
  4 29  1  0  0  0  0
  4 30  1  0  0  0  0
  4 31  1  0  0  0  0
  5  6  1  0  0  0  0
  5 32  1  0  0  0  0
  5 33  1  0  0  0  0
  6  7  1  0  0  0  0
  6  8  1  0  0  0  0
  6  9  1  0  0  0  0
  7 34  1  0  0  0  0
  7 35  1  0  0  0  0
  7 36  1  0  0  0  0
  8 37  1  0  0  0  0
  8 38  1  0  0  0  0
  8 39  1  0  0  0  0
  9 10  1  0  0  0  0
  9 40  1  0  0  0  0
  9 53  1  0  0  0  0
 10 11  1  0  0  0  0
 10 41  1  0  0  0  0
 10 42  1  0  0  0  0
 11 22  1  0  0  0  0
 11 12  2  0  0  0  0
 12 13  1  0  0  0  0
 12 43  1  0  0  0  0
 13 14  2  0  0  0  0
 14 15  1  0  0  0  0
 14 21  1  0  0  0  0
 15 20  1  0  0  0  0
 15 16  1  0  0  0  0
 16 17  1  0  0  0  0
 16 44  1  0  0  0  0
 16 45  1  0  0  0  0
 17 18  1  0  0  0  0
 17 46  1  0  0  0  0
 17 47  1  0  0  0  0
 18 19  1  0  0  0  0
 19 20  1  0  0  0  0
 19 48  1  0  0  0  0
 19 49  1  0  0  0  0
 20 50  1  0  0  0  0
 20 51  1  0  0  0  0
 21 22  2  0  0  0  0
 22 52  1  0  0  0  0
M  CHG  1   9   1
M  END
> <s_m_source_file>
AV-unprocessed.smi

> <i_m_source_file_index>
2713

> <i_lp_mmshare_version>
43012

> <i_f3d_flags>
0

> <s_epik_input>
W0NIM11DKFtDSDNdKShbQ0gzXSlbQ0gyXUMoW0NIM10pKFtDSDNdKVtOSF1bQ0gyXWMxW2NIXW5jKG5bY0hdMSlOMltDSDJdW0NIMl1PW0NIMl1bQ0gyXTI=

> <s_epik_cmdline>
J2VwaWtfcHl0aG9uJywgJy1waCcsICc3LjAnLCAnLXRuJywgJzgnLCAnLW1hJywgJzIwMCcsICctbWV0YWxfYmluZGluZycsICctaW1hZScsICc8aW5maWxlLm1hZT4nLCAnLW9tYWUnLCAnPG91dGZpbGUubWFlPic=

> <r_lp_tautomer_probability>
1

> <r_epik_Ionization_Penalty>
0.036663

> <r_epik_Ionization_Penalty_Charging>
0.0366608

> <r_epik_Ionization_Penalty_Neutral>
2.19352e-06

> <r_epik_State_Penalty>
0.0306388

> <r_epik_Charging_Adjusted_Penalty>
0.0672996

> <i_epik_Tot_Q>
1

> <i_epik_Tot_abs_Q>
1

> <r_epik_Metal_State_Penalty>
0.0306391

> <b_epik_Metal_Only>
0

> <s_lp_Force_Field>
OPLS_2005

> <r_lp_Energy>
26.4039

> <b_lp_Chiralities_Consistent>
1

> <s_lp_Variant>
AV-unprocessed.smi:2713-1

> <Gold.Version>
5.8.1

> <Gold.Id.Protein>
6NUR|6NUR_protein|mol2

> <Gold.PLP.Fitness>
44.0360

> <Gold.PLP.PLP>
-39.2141

> <Gold.PLP.part.hbond>
-1.0000

> <Gold.PLP.part.metal>
0.0000

> <Gold.PLP.part.buried>
-3.0172

> <Gold.PLP.part.nonpolar>
-34.0482

> <Gold.PLP.part.repulsive>
0.1085

> <Gold.PLP.ligand.clash>
0.0000

> <Gold.PLP.ligand.torsion>
0.7622

> <Gold.PLP.Chemscore.Hbond>
2.0000

> <Gold.PLP.Chemscore.CHOScore>
0.0000

> <Gold.PLP.Chemscore.Metal>
0.0000

> <Gold.Chemscore.Hbonds>
donor molecule, donor type, donor heavy atom, donor atom, acceptor molecule, acceptor atom, score
      L1  H     9    53       P1  7948  2.00

> <Gold.PLP.Chemscore.Internal.Correction>
0.3462

> <Gold.Rescore>
     Score         DG    S(hbond)    S(metal)    S(lipo)     H(rot)  DE(clash)    DE(int)     intcor
     14.57     -15.53       0.97        0.00      91.64       1.53       0.00       0.95       ----

> <Gold.Chemscore.Fitness>
14.5739

> <Gold.Chemscore.DG>
-15.5317

> <Gold.Chemscore.ZeroCoef>
-5.4800

> <Gold.Chemscore.Hbond>
0.9746

> <Gold.Chemscore.Metal>
0.0000

> <Gold.Chemscore.Lipo>
91.6381

> <Gold.Chemscore.Internal_Hbond>
0.0000

> <Gold.Chemscore.DEClash>
0.0036

> <Gold.Chemscore.DEInternal>
0.9542

> <Gold.Chemscore.Rot>
1.5332

> <Gold.Chemscore.Internal.Correction>
   9.000000E+99

> <Gold.Chemscore.Hbonds>
donor molecule, donor type, donor heavy atom, donor atom, acceptor molecule, acceptor atom, score
      L1  H     9    53       P1  7948  0.86

> <Gold.Chemscore.Hbond.Weighted>
-3.2551

> <Gold.Chemscore.Metal.Weighted>
-0.0000

> <Gold.Chemscore.Lipo.Weighted>
-10.7217

> <Gold.Chemscore.Internal_Hbond.Weighted>
0.0000

> <Gold.Chemscore.DEClash.Weighted>
0.0036

> <Gold.Chemscore.DEInternal.Weighted>
0.9542

> <Gold.Chemscore.Rot.Weighted>
3.9251

> <Gold.Chemscore.Internal.Correction.Weighted>
   9.000000E+99

> <Gold.Protein.RotatedTorsions>
[ 6907 6896 6895 6894 ] final  161.83 input  -60.11 | X-H torsion
[ 7974 7965 7964 7962 ] final -134.25 input  175.53 | X-H torsion
[ 8008 7997 7996 7995 ] final  -66.22 input   59.86 | X-H torsion
[ 10167 10162 10161 10158 ] final   29.58 input  -65.29 | X-H torsion
[ 10718 10713 10712 10709 ] final   69.57 input   66.30 | X-H torsion
[ 10763 10752 10751 10750 ] final   -6.60 input  -60.55 | X-H torsion
[ 11005 11000 10999 10996 ] final -151.52 input  -57.11 | X-H torsion

> <Gold.Protein.ActiveResidues>
 VAL166  LYS551  ARG553  GLY616  TRP617  ASP618  TYR619  PRO620  LYS621  CYS622 
 ASP623  PHE694  ASN695  SER759  ASP760  ASP761  ALA762  ILE779  LEU786  VAL792 
 PHE793  MET794  SER795  GLU796  ALA797  LYS798  CYS799  TRP800  GLU811  SER814 

> <Gold.Protein.RotatedAtoms>
  151.9497  133.3662  159.3995 H   0  0  0  0  0  0  0  0  0  0  0  0  # atno 6907 bound_to 6896
  150.6983  134.4353  159.5276 H   0  0  0  0  0  0  0  0  0  0  0  0  # atno 6908 bound_to 6896
  152.2024  134.8576  160.0557 H   0  0  0  0  0  0  0  0  0  0  0  0  # atno 6909 bound_to 6896
  144.9119  140.6906  143.5019 H   0  0  0  0  0  0  0  0  0  0  0  0  # atno 7974 bound_to 7965
  154.4720  140.0917  156.7169 H   0  0  0  0  0  0  0  0  0  0  0  0  # atno 8008 bound_to 7997
  155.4697  140.3464  155.4306 H   0  0  0  0  0  0  0  0  0  0  0  0  # atno 8009 bound_to 7997
  156.1055  140.1433  156.9398 H   0  0  0  0  0  0  0  0  0  0  0  0  # atno 8010 bound_to 7997
  140.4753  144.0699  150.6249 H   0  0  0  0  0  0  0  0  0  0  0  0  # atno 10167 bound_to 10162
  157.6353  130.9432  150.0531 H   0  0  0  0  0  0  0  0  0  0  0  0  # atno 10718 bound_to 10713
  153.4146  135.7008  153.6335 H   0  0  0  0  0  0  0  0  0  0  0  0  # atno 10763 bound_to 10752
  153.4815  135.3692  155.2445 H   0  0  0  0  0  0  0  0  0  0  0  0  # atno 10764 bound_to 10752
  154.8719  135.4067  154.3504 H   0  0  0  0  0  0  0  0  0  0  0  0  # atno 10765 bound_to 10752
  140.7287  134.3645  157.5170 H   0  0  0  0  0  0  0  0  0  0  0  0  # atno 11005 bound_to 11000
  145.3439  139.1724  143.4471 LP  0  0  0  0  0  0  0  0  0  0  0  0  # atno 17320 bound_to 7965
  146.3163  140.3483  142.8654 LP  0  0  0  0  0  0  0  0  0  0  0  0  # atno 17321 bound_to 7965
  140.3926  143.2745  152.0043 LP  0  0  0  0  0  0  0  0  0  0  0  0  # atno 17342 bound_to 10162
  139.4824  144.6065  151.7512 LP  0  0  0  0  0  0  0  0  0  0  0  0  # atno 17343 bound_to 10162
  156.1587  130.3643  149.9331 LP  0  0  0  0  0  0  0  0  0  0  0  0  # atno 17370 bound_to 10713
  156.7334  130.9052  151.3627 LP  0  0  0  0  0  0  0  0  0  0  0  0  # atno 17371 bound_to 10713
  139.8831  134.9004  156.2787 LP  0  0  0  0  0  0  0  0  0  0  0  0  # atno 17394 bound_to 11000
  140.9940  133.7191  156.0857 LP  0  0  0  0  0  0  0  0  0  0  0  0  # atno 17395 bound_to 11000

$$$$
