AV-unprocessed.smi:128|AV-procd|sdf|1155|dock10
  -GOLD-   2262018293D 1   1.00000     0.00000
 Structure written by MMmdl.
 41 44  0  0  0  0  0  0  0  0  1 V2000
  151.4335  135.6868  155.8446 O   0  0  0  0  0  0  0  0  0  0  0  0
  150.9308  136.7504  155.4778 C   0  0  0  0  0  0  0  0  0  0  0  0
  149.5074  136.9110  155.2012 C   0  0  0  0  0  0  0  0  0  0  0  0
  148.6824  135.8577  155.3273 F   0  0  0  0  0  0  0  0  0  0  0  0
  149.0020  138.1038  154.8201 C   0  0  0  0  0  0  0  0  0  0  0  0
  149.7774  139.2397  154.6679 N   0  0  0  0  0  0  0  0  0  0  0  0
  149.1439  140.5457  154.2525 C   0  0  2  0  0  0  0  0  0  0  0  0
  149.3927  141.6268  155.3129 C   0  0  0  0  0  0  0  0  0  0  0  0
  148.0450  141.7280  155.9981 C   0  0  0  0  0  0  0  0  0  0  0  0
  147.0913  141.3795  154.8624 C   0  0  0  0  0  0  0  0  0  0  0  0
  147.7639  140.3535  154.1437 O   0  0  0  0  0  0  0  0  0  0  0  0
  151.1646  139.1825  154.9258 C   0  0  0  0  0  0  0  0  0  0  0  0
  151.8715  140.1894  154.8399 O   0  0  0  0  0  0  0  0  0  0  0  0
  151.6996  137.9283  155.3049 N   0  0  0  0  0  0  0  0  0  0  0  0
  153.1271  137.8573  155.5764 C   0  0  0  0  0  0  0  0  0  0  0  0
  153.4336  137.9953  157.0392 C   0  0  0  0  0  0  0  0  0  0  0  0
  153.8690  137.0643  157.8933 N   0  0  0  0  0  0  0  0  0  0  0  0
  153.9987  137.6988  159.1068 N   0  0  0  0  0  0  0  0  0  0  0  0
  153.6369  138.9701  158.9036 C   0  0  0  0  0  0  0  0  0  0  0  0
  153.6003  140.0700  159.8669 C   0  0  0  0  0  0  0  0  0  0  0  0
  154.3366  140.0033  161.0724 C   0  0  0  0  0  0  0  0  0  0  0  0
  154.2917  141.0668  161.9949 C   0  0  0  0  0  0  0  0  0  0  0  0
  153.5114  142.2060  161.7209 C   0  0  0  0  0  0  0  0  0  0  0  0
  153.4485  143.6414  162.9687 Br  0  0  0  0  0  0  0  0  0  0  0  0
  152.7769  142.2814  160.5223 C   0  0  0  0  0  0  0  0  0  0  0  0
  152.8212  141.2182  159.5996 C   0  0  0  0  0  0  0  0  0  0  0  0
  153.2698  139.2130  157.6161 O   0  0  0  0  0  0  0  0  0  0  0  0
  147.9408  138.1661  154.6303 H   0  0  0  0  0  0  0  0  0  0  0  0
  149.5419  140.8052  153.2709 H   0  0  0  0  0  0  0  0  0  0  0  0
  150.2114  141.3679  155.9855 H   0  0  0  0  0  0  0  0  0  0  0  0
  149.6357  142.5609  154.8051 H   0  0  0  0  0  0  0  0  0  0  0  0
  147.9693  140.9888  156.7961 H   0  0  0  0  0  0  0  0  0  0  0  0
  147.8559  142.7125  156.4266 H   0  0  0  0  0  0  0  0  0  0  0  0
  146.1150  141.0476  155.2158 H   0  0  0  0  0  0  0  0  0  0  0  0
  146.9451  142.2398  154.2074 H   0  0  0  0  0  0  0  0  0  0  0  0
  153.5148  136.9137  155.1909 H   0  0  0  0  0  0  0  0  0  0  0  0
  153.6224  138.6415  155.0014 H   0  0  0  0  0  0  0  0  0  0  0  0
  154.9411  139.1386  161.3038 H   0  0  0  0  0  0  0  0  0  0  0  0
  154.8561  141.0065  162.9137 H   0  0  0  0  0  0  0  0  0  0  0  0
  152.1776  143.1545  160.3101 H   0  0  0  0  0  0  0  0  0  0  0  0
  152.2509  141.2924  158.6852 H   0  0  0  0  0  0  0  0  0  0  0  0
  1  2  2  0  0  0  0
  2 14  1  0  0  0  0
  2  3  1  0  0  0  0
  3  4  1  0  0  0  0
  3  5  2  0  0  0  0
  5  6  1  0  0  0  0
  5 28  1  0  0  0  0
  6  7  1  0  0  0  0
  6 12  1  0  0  0  0
  7 11  1  0  0  0  0
  7  8  1  0  0  0  0
  7 29  1  0  0  0  0
  8  9  1  0  0  0  0
  8 30  1  0  0  0  0
  8 31  1  0  0  0  0
  9 10  1  0  0  0  0
  9 32  1  0  0  0  0
  9 33  1  0  0  0  0
 10 11  1  0  0  0  0
 10 34  1  0  0  0  0
 10 35  1  0  0  0  0
 12 13  2  0  0  0  0
 12 14  1  0  0  0  0
 14 15  1  0  0  0  0
 15 16  1  0  0  0  0
 15 36  1  0  0  0  0
 15 37  1  0  0  0  0
 16 27  1  0  0  0  0
 16 17  2  0  0  0  0
 17 18  1  0  0  0  0
 18 19  2  0  0  0  0
 19 20  1  0  0  0  0
 19 27  1  0  0  0  0
 20 26  1  0  0  0  0
 20 21  2  0  0  0  0
 21 22  1  0  0  0  0
 21 38  1  0  0  0  0
 22 23  2  0  0  0  0
 22 39  1  0  0  0  0
 23 24  1  0  0  0  0
 23 25  1  0  0  0  0
 25 26  2  0  0  0  0
 25 40  1  0  0  0  0
 26 41  1  0  0  0  0
M  END
> <s_m_source_file>
AV-unprocessed.smi

> <i_m_source_file_index>
128

> <i_lp_mmshare_version>
43012

> <i_f3d_flags>
0

> <s_epik_input>
TzFbQ0gyXVtDSDJdW0NIMl1bQ0BIXTFuKFtjSF1jKEYpYzI9TyljKD1PKW4yW0NIMl1jM25uYyhvMyktYzRbY0hdW2NIXWMoQnIpW2NIXVtjSF00

> <s_epik_cmdline>
J2VwaWtfcHl0aG9uJywgJy1waCcsICc3LjAnLCAnLXRuJywgJzgnLCAnLW1hJywgJzIwMCcsICctbWV0YWxfYmluZGluZycsICctaW1hZScsICc8aW5maWxlLm1hZT4nLCAnLW9tYWUnLCAnPG91dGZpbGUubWFlPic=

> <r_lp_tautomer_probability>
1

> <r_epik_Ionization_Penalty>
2.55537e-09

> <r_epik_Ionization_Penalty_Charging>
2.54231e-09

> <r_epik_Ionization_Penalty_Neutral>
1.30653e-11

> <r_epik_State_Penalty>
-0

> <r_epik_Charging_Adjusted_Penalty>
2.54231e-09

> <i_epik_Tot_Q>
0

> <i_epik_Tot_abs_Q>
0

> <r_epik_Metal_State_Penalty>
-0

> <b_epik_Metal_Only>
0

> <s_epik_Chemistry_Notes>
This compound contains an acetal/aminal-like group ( X-CH(R)-Y where X, Y are N, S, or O) that may be acid/base labile, releasing an aldehyde.

> <s_lp_Force_Field>
OPLS_2005

> <r_lp_Energy>
32.4944

> <b_lp_Chiralities_Consistent>
1

> <s_lp_Variant>
AV-unprocessed.smi:128-1

> <Gold.Version>
5.8.1

> <Gold.Id.Protein>
6NUR|6NUR_protein|mol2

> <Gold.PLP.Fitness>
50.9606

> <Gold.PLP.PLP>
-43.8552

> <Gold.PLP.part.hbond>
-2.7219

> <Gold.PLP.part.metal>
0.0000

> <Gold.PLP.part.buried>
-0.4516

> <Gold.PLP.part.nonpolar>
-39.8843

> <Gold.PLP.part.repulsive>
0.2134

> <Gold.PLP.ligand.clash>
0.0000

> <Gold.PLP.ligand.torsion>
0.6248

> <Gold.PLP.Chemscore.Hbond>
2.7820

> <Gold.PLP.Chemscore.CHOScore>
0.0000

> <Gold.PLP.Chemscore.Metal>
0.0000

> <Gold.Chemscore.Hbonds>
donor molecule, donor type, donor heavy atom, donor atom, acceptor molecule, acceptor atom, score
      P1  H  7989  7998       L1    13  0.81
      P1  H  7997  8008       L1    27  0.90
      P1  H 10752 10765       L1     1  0.96

> <Gold.PLP.Chemscore.Internal.Correction>
0.0089

> <Gold.Rescore>
     Score         DG    S(hbond)    S(metal)    S(lipo)     H(rot)  DE(clash)    DE(int)     intcor
     15.75     -17.54       1.58        0.00      95.19       1.70       0.17       1.62       ----

> <Gold.Chemscore.Fitness>
15.7473

> <Gold.Chemscore.DG>
-17.5442

> <Gold.Chemscore.ZeroCoef>
-5.4800

> <Gold.Chemscore.Hbond>
1.5792

> <Gold.Chemscore.Metal>
0.0000

> <Gold.Chemscore.Lipo>
95.1852

> <Gold.Chemscore.Internal_Hbond>
0.0000

> <Gold.Chemscore.DEClash>
0.1722

> <Gold.Chemscore.DEInternal>
1.6247

> <Gold.Chemscore.Rot>
1.6980

> <Gold.Chemscore.Internal.Correction>
   9.000000E+99

> <Gold.Chemscore.Hbonds>
donor molecule, donor type, donor heavy atom, donor atom, acceptor molecule, acceptor atom, score
      P1  H  7989  7998       L1    13  0.60
      P1  H  7997  8008       L1    27  0.05
      P1  H 10752 10765       L1     1  0.78

> <Gold.Chemscore.Hbond.Weighted>
-5.2744

> <Gold.Chemscore.Metal.Weighted>
-0.0000

> <Gold.Chemscore.Lipo.Weighted>
-11.1367

> <Gold.Chemscore.Internal_Hbond.Weighted>
0.0000

> <Gold.Chemscore.DEClash.Weighted>
0.1722

> <Gold.Chemscore.DEInternal.Weighted>
1.6247

> <Gold.Chemscore.Rot.Weighted>
4.3469

> <Gold.Chemscore.Internal.Correction.Weighted>
   9.000000E+99

> <Gold.Protein.RotatedTorsions>
[ 6907 6896 6895 6894 ] final   65.25 input  -60.11 | X-H torsion
[ 7974 7965 7964 7962 ] final  110.39 input  175.53 | X-H torsion
[ 8008 7997 7996 7995 ] final  -94.76 input   59.86 | X-H torsion
[ 10167 10162 10161 10158 ] final -129.87 input  -65.29 | X-H torsion
[ 10718 10713 10712 10709 ] final   90.97 input   66.30 | X-H torsion
[ 10763 10752 10751 10750 ] final -140.51 input  -60.55 | X-H torsion
[ 11005 11000 10999 10996 ] final  124.13 input  -57.11 | X-H torsion

> <Gold.Protein.ActiveResidues>
 VAL166  LYS551  ARG553  GLY616  TRP617  ASP618  TYR619  PRO620  LYS621  CYS622 
 ASP623  PHE694  ASN695  SER759  ASP760  ASP761  ALA762  ILE779  LEU786  VAL792 
 PHE793  MET794  SER795  GLU796  ALA797  LYS798  CYS799  TRP800  GLU811  SER814 

> <Gold.Protein.RotatedAtoms>
  152.4393  134.5623  159.9897 H   0  0  0  0  0  0  0  0  0  0  0  0  # atno 6907 bound_to 6896
  151.5725  133.3382  159.3000 H   0  0  0  0  0  0  0  0  0  0  0  0  # atno 6908 bound_to 6896
  150.8296  134.7578  159.6907 H   0  0  0  0  0  0  0  0  0  0  0  0  # atno 6909 bound_to 6896
  145.2556  139.2722  143.4044 H   0  0  0  0  0  0  0  0  0  0  0  0  # atno 7974 bound_to 7965
  154.7525  140.0486  157.0905 H   0  0  0  0  0  0  0  0  0  0  0  0  # atno 8008 bound_to 7997
  155.0039  140.3128  155.4837 H   0  0  0  0  0  0  0  0  0  0  0  0  # atno 8009 bound_to 7997
  156.2888  140.2196  156.5150 H   0  0  0  0  0  0  0  0  0  0  0  0  # atno 8010 bound_to 7997
  139.9352  143.6226  152.2519 H   0  0  0  0  0  0  0  0  0  0  0  0  # atno 10167 bound_to 10162
  157.6960  131.0390  150.3659 H   0  0  0  0  0  0  0  0  0  0  0  0  # atno 10718 bound_to 10713
  154.8576  135.3551  154.5718 H   0  0  0  0  0  0  0  0  0  0  0  0  # atno 10763 bound_to 10752
  153.6331  135.7001  153.5273 H   0  0  0  0  0  0  0  0  0  0  0  0  # atno 10764 bound_to 10752
  153.3033  135.4200  155.1231 H   0  0  0  0  0  0  0  0  0  0  0  0  # atno 10765 bound_to 10752
  139.9344  134.9640  156.8362 H   0  0  0  0  0  0  0  0  0  0  0  0  # atno 11005 bound_to 11000
  146.3290  140.2959  142.8618 LP  0  0  0  0  0  0  0  0  0  0  0  0  # atno 17320 bound_to 7965
  144.9463  140.8132  143.5599 LP  0  0  0  0  0  0  0  0  0  0  0  0  # atno 17321 bound_to 7965
  139.6749  144.7659  151.1714 LP  0  0  0  0  0  0  0  0  0  0  0  0  # atno 17342 bound_to 10162
  140.7626  143.5810  150.8895 LP  0  0  0  0  0  0  0  0  0  0  0  0  # atno 17343 bound_to 10162
  156.4090  130.3930  149.6905 LP  0  0  0  0  0  0  0  0  0  0  0  0  # atno 17370 bound_to 10713
  156.4196  130.7762  151.2779 LP  0  0  0  0  0  0  0  0  0  0  0  0  # atno 17371 bound_to 10713
  140.6115  134.0078  155.7579 LP  0  0  0  0  0  0  0  0  0  0  0  0  # atno 17394 bound_to 11000
  141.0950  133.9857  157.3175 LP  0  0  0  0  0  0  0  0  0  0  0  0  # atno 17395 bound_to 11000

$$$$
