AV-unprocessed.smi:2391|AV-procd|sdf|9484|dock6
  -GOLD-   2272013113D 1   1.00000     0.00000
 Structure written by MMmdl.
 35 36  0  0  0  0  0  0  0  0  1 V2000
  149.1627  141.6861  158.6543 O   0  0  0  0  0  0  0  0  0  0  0  0
  150.0292  141.7219  157.7758 C   0  0  0  0  0  0  0  0  0  0  0  0
  149.9760  141.2184  156.4815 N   0  0  0  0  0  0  0  0  0  0  0  0
  148.8688  141.1506  155.8013 C   0  0  0  0  0  0  0  0  0  0  0  0
  148.8564  140.6080  154.4535 C   0  0  0  0  0  0  0  0  0  0  0  0
  147.7126  140.5330  153.7346 C   0  0  0  0  0  0  0  0  0  0  0  0
  146.4838  141.0105  154.3376 C   0  0  0  0  0  0  0  0  0  0  0  0
  146.4480  141.4996  155.5318 N   0  0  0  0  0  0  0  0  0  0  0  0
  147.5935  141.5687  156.2402 N   0  0  0  0  0  0  0  0  0  0  0  0
  151.2228  142.2971  157.9873 N   0  0  0  0  0  0  0  0  0  0  0  0
  151.6742  142.9469  159.2205 C   0  0  1  0  0  0  0  0  0  0  0  0
  152.9467  142.2334  159.7454 C   0  0  0  0  0  0  0  0  0  0  0  0
  152.9323  140.7079  159.5832 C   0  0  0  0  0  0  0  0  0  0  0  0
  154.0395  140.2171  160.5144 C   0  0  0  0  0  0  0  0  0  0  0  0
  154.0552  141.2052  161.6866 C   0  0  0  0  0  0  0  0  0  0  0  0
  153.2197  142.4161  161.2459 C   0  0  0  0  0  0  0  0  0  0  0  0
  151.8735  144.4546  158.9427 C   0  0  0  0  0  0  0  0  0  0  0  0
  150.7360  144.9847  158.4909 F   0  0  0  0  0  0  0  0  0  0  0  0
  152.2102  145.1058  160.0554 F   0  0  0  0  0  0  0  0  0  0  0  0
  152.8250  144.6422  158.0273 F   0  0  0  0  0  0  0  0  0  0  0  0
  149.7629  140.2480  153.9888 H   0  0  0  0  0  0  0  0  0  0  0  0
  147.7026  140.1281  152.7333 H   0  0  0  0  0  0  0  0  0  0  0  0
  145.5919  140.9295  153.7164 H   0  0  0  0  0  0  0  0  0  0  0  0
  151.8813  142.2909  157.2217 H   0  0  0  0  0  0  0  0  0  0  0  0
  150.9014  142.8590  159.9859 H   0  0  0  0  0  0  0  0  0  0  0  0
  153.8126  142.6112  159.1993 H   0  0  0  0  0  0  0  0  0  0  0  0
  151.9723  140.3051  159.9102 H   0  0  0  0  0  0  0  0  0  0  0  0
  153.0923  140.3900  158.5523 H   0  0  0  0  0  0  0  0  0  0  0  0
  153.8837  139.1874  160.8376 H   0  0  0  0  0  0  0  0  0  0  0  0
  154.9965  140.2562  159.9921 H   0  0  0  0  0  0  0  0  0  0  0  0
  153.6237  140.7550  162.5814 H   0  0  0  0  0  0  0  0  0  0  0  0
  155.0781  141.4956  161.9291 H   0  0  0  0  0  0  0  0  0  0  0  0
  153.7296  143.3566  161.4569 H   0  0  0  0  0  0  0  0  0  0  0  0
  152.2799  142.4223  161.7999 H   0  0  0  0  0  0  0  0  0  0  0  0
  147.5193  141.9566  157.1700 H   0  0  0  0  0  0  0  0  0  0  0  0
  1  2  2  0  0  0  0
  2  3  1  0  0  0  0
  2 10  1  0  0  0  0
  3  4  2  0  0  0  0
  4  9  1  0  0  0  0
  4  5  1  0  0  0  0
  5  6  2  0  0  0  0
  5 21  1  0  0  0  0
  6  7  1  0  0  0  0
  6 22  1  0  0  0  0
  7  8  2  0  0  0  0
  7 23  1  0  0  0  0
  8  9  1  0  0  0  0
  9 35  1  0  0  0  0
 10 11  1  0  0  0  0
 10 24  1  0  0  0  0
 11 12  1  0  0  0  0
 11 17  1  0  0  0  0
 11 25  1  0  0  0  0
 12 16  1  0  0  0  0
 12 13  1  0  0  0  0
 12 26  1  0  0  0  0
 13 14  1  0  0  0  0
 13 27  1  0  0  0  0
 13 28  1  0  0  0  0
 14 15  1  0  0  0  0
 14 29  1  0  0  0  0
 14 30  1  0  0  0  0
 15 16  1  0  0  0  0
 15 31  1  0  0  0  0
 15 32  1  0  0  0  0
 16 33  1  0  0  0  0
 16 34  1  0  0  0  0
 17 18  1  0  0  0  0
 17 19  1  0  0  0  0
 17 20  1  0  0  0  0
M  END
> <s_m_source_file>
AV-unprocessed.smi

> <i_m_source_file_index>
2391

> <i_lp_mmshare_version>
43012

> <i_f3d_flags>
0

> <s_epik_input>
W0NIMl0xW0NIMl1bQ0gyXVtDSDJdW0NIXTFbQ0BIXShDKEYpKEYpRilbTkhdQyg9TylbTkhdYzJbY0hdW2NIXVtjSF1ubjI=

> <s_epik_cmdline>
J2VwaWtfcHl0aG9uJywgJy1waCcsICc3LjAnLCAnLXRuJywgJzgnLCAnLW1hJywgJzIwMCcsICctbWV0YWxfYmluZGluZycsICctaW1hZScsICc8aW5maWxlLm1hZT4nLCAnLW9tYWUnLCAnPG91dGZpbGUubWFlPic=

> <r_epik_Ionization_Penalty>
0.0611197

> <r_epik_Ionization_Penalty_Charging>
0.0611196

> <r_epik_Ionization_Penalty_Neutral>
6.50554e-08

> <r_epik_State_Penalty>
2.29873

> <r_epik_Charging_Adjusted_Penalty>
2.35985

> <i_epik_Tot_Q>
0

> <i_epik_Tot_abs_Q>
0

> <r_epik_Metal_State_Penalty>
2.32932

> <b_epik_Metal_Only>
0

> <s_lp_Force_Field>
OPLS_2005

> <r_lp_Energy>
50.064

> <b_lp_Chiralities_Consistent>
1

> <s_lp_Variant>
AV-unprocessed.smi:2391-4

> <Gold.Version>
5.8.1

> <Gold.Id.Protein>
6NUR|6NUR_protein|mol2

> <Gold.PLP.Fitness>
48.3826

> <Gold.PLP.PLP>
-46.3262

> <Gold.PLP.part.hbond>
-1.2852

> <Gold.PLP.part.metal>
0.0000

> <Gold.PLP.part.buried>
-5.3980

> <Gold.PLP.part.nonpolar>
-40.9225

> <Gold.PLP.part.repulsive>
0.3101

> <Gold.PLP.ligand.clash>
0.0000

> <Gold.PLP.ligand.torsion>
0.6347

> <Gold.PLP.Chemscore.Hbond>
0.0000

> <Gold.PLP.Chemscore.CHOScore>
1.0000

> <Gold.PLP.Chemscore.Metal>
0.0000

> <Gold.Chemscore.Hbonds>
donor molecule, donor type, donor heavy atom, donor atom, acceptor molecule, acceptor atom, score
      L1  C     7    23       P1 10175  1.00

> <Gold.PLP.Chemscore.Internal.Correction>
0.3258

> <Gold.Rescore>
     Score         DG    S(hbond)    S(metal)    S(lipo)     H(rot)  DE(clash)    DE(int)     intcor
     11.89     -13.27       0.00        0.00      95.73       1.33       0.70       0.68       ----

> <Gold.Chemscore.Fitness>
11.8926

> <Gold.Chemscore.DG>
-13.2747

> <Gold.Chemscore.ZeroCoef>
-5.4800

> <Gold.Chemscore.Hbond>
0.0000

> <Gold.Chemscore.Metal>
0.0000

> <Gold.Chemscore.Lipo>
95.7304

> <Gold.Chemscore.Internal_Hbond>
0.0000

> <Gold.Chemscore.DEClash>
0.7036

> <Gold.Chemscore.DEInternal>
0.6786

> <Gold.Chemscore.Rot>
1.3304

> <Gold.Chemscore.Internal.Correction>
   9.000000E+99

> <Gold.Chemscore.Hbond.Weighted>
-0.0000

> <Gold.Chemscore.Metal.Weighted>
-0.0000

> <Gold.Chemscore.Lipo.Weighted>
-11.2005

> <Gold.Chemscore.Internal_Hbond.Weighted>
0.0000

> <Gold.Chemscore.DEClash.Weighted>
0.7036

> <Gold.Chemscore.DEInternal.Weighted>
0.6786

> <Gold.Chemscore.Rot.Weighted>
3.4057

> <Gold.Chemscore.Internal.Correction.Weighted>
   9.000000E+99

> <Gold.Protein.RotatedTorsions>
[ 6907 6896 6895 6894 ] final  158.71 input  -60.11 | X-H torsion
[ 7974 7965 7964 7962 ] final   73.44 input  175.53 | X-H torsion
[ 8008 7997 7996 7995 ] final -128.99 input   59.86 | X-H torsion
[ 10167 10162 10161 10158 ] final   67.42 input  -65.29 | X-H torsion
[ 10718 10713 10712 10709 ] final    9.83 input   66.30 | X-H torsion
[ 10763 10752 10751 10750 ] final -179.22 input  -60.55 | X-H torsion
[ 11005 11000 10999 10996 ] final -172.26 input  -57.11 | X-H torsion

> <Gold.Protein.ActiveResidues>
 VAL166  LYS551  ARG553  GLY616  TRP617  ASP618  TYR619  PRO620  LYS621  CYS622 
 ASP623  PHE694  ASN695  SER759  ASP760  ASP761  ALA762  ILE779  LEU786  VAL792 
 PHE793  MET794  SER795  GLU796  ALA797  LYS798  CYS799  TRP800  GLU811  SER814 

> <Gold.Protein.RotatedAtoms>
  151.9963  133.3809  159.4163 H   0  0  0  0  0  0  0  0  0  0  0  0  # atno 6907 bound_to 6896
  150.6915  134.3882  159.5073 H   0  0  0  0  0  0  0  0  0  0  0  0  # atno 6908 bound_to 6896
  152.1623  134.8902  160.0591 H   0  0  0  0  0  0  0  0  0  0  0  0  # atno 6909 bound_to 6896
  145.7409  139.2720  143.1487 H   0  0  0  0  0  0  0  0  0  0  0  0  # atno 7974 bound_to 7965
  155.2719  140.0440  157.3007 H   0  0  0  0  0  0  0  0  0  0  0  0  # atno 8008 bound_to 7997
  154.5648  140.2357  155.8248 H   0  0  0  0  0  0  0  0  0  0  0  0  # atno 8009 bound_to 7997
  156.2076  140.3008  155.9669 H   0  0  0  0  0  0  0  0  0  0  0  0  # atno 8010 bound_to 7997
  140.0898  144.4998  150.7106 H   0  0  0  0  0  0  0  0  0  0  0  0  # atno 10167 bound_to 10162
  156.9721  130.5973  149.5669 H   0  0  0  0  0  0  0  0  0  0  0  0  # atno 10718 bound_to 10713
  154.5379  135.2804  155.1122 H   0  0  0  0  0  0  0  0  0  0  0  0  # atno 10763 bound_to 10752
  154.2616  135.6320  153.5280 H   0  0  0  0  0  0  0  0  0  0  0  0  # atno 10764 bound_to 10752
  152.9972  135.5607  154.5910 H   0  0  0  0  0  0  0  0  0  0  0  0  # atno 10765 bound_to 10752
  140.4989  134.5912  157.4981 H   0  0  0  0  0  0  0  0  0  0  0  0  # atno 11005 bound_to 11000
  146.0449  140.8128  142.9810 LP  0  0  0  0  0  0  0  0  0  0  0  0  # atno 17320 bound_to 7965
  144.6871  140.2965  143.7270 LP  0  0  0  0  0  0  0  0  0  0  0  0  # atno 17321 bound_to 7965
  140.7035  143.2451  151.4796 LP  0  0  0  0  0  0  0  0  0  0  0  0  # atno 17342 bound_to 10162
  139.5731  144.1881  152.1865 LP  0  0  0  0  0  0  0  0  0  0  0  0  # atno 17343 bound_to 10162
  156.0278  130.5371  150.8455 LP  0  0  0  0  0  0  0  0  0  0  0  0  # atno 17370 bound_to 10713
  157.5585  131.0945  150.9593 LP  0  0  0  0  0  0  0  0  0  0  0  0  # atno 17371 bound_to 10713
  139.9725  134.7270  156.0014 LP  0  0  0  0  0  0  0  0  0  0  0  0  # atno 17394 bound_to 11000
  141.1445  133.6558  156.3828 LP  0  0  0  0  0  0  0  0  0  0  0  0  # atno 17395 bound_to 11000

$$$$
