AV-unprocessed.smi:1884|AV-procd|sdf|7647|dock4
  -GOLD-   22720 9373D 1   1.00000     0.00000
 Structure written by MMmdl.
 40 42  0  0  0  0  0  0  0  0  1 V2000
  151.6693  138.2508  155.6142 C   0  0  0  0  0  0  0  0  0  0  0  0
  151.6389  139.4445  156.5149 C   0  0  0  0  0  0  0  0  0  0  0  0
  152.6955  139.8186  157.2366 N   0  0  0  0  0  0  0  0  0  0  0  0
  152.2298  140.9395  157.8969 C   0  0  0  0  0  0  0  0  0  0  0  0
  152.8737  141.7978  158.8166 C   0  0  0  0  0  0  0  0  0  0  0  0
  152.1846  142.8967  159.3705 C   0  0  0  0  0  0  0  0  0  0  0  0
  150.8446  143.1522  159.0142 C   0  0  0  0  0  0  0  0  0  0  0  0
  150.1844  142.3097  158.0993 C   0  0  0  0  0  0  0  0  0  0  0  0
  150.8769  141.2150  157.5484 C   0  0  0  0  0  0  0  0  0  0  0  0
  150.5310  140.2150  156.6446 N   0  0  0  0  0  0  0  0  0  0  0  0
  149.2431  140.0516  155.9848 C   0  0  0  0  0  0  0  0  0  0  0  0
  148.9721  141.1456  154.9316 C   0  0  1  0  0  0  0  0  0  0  0  0
  149.8146  141.0044  153.8051 O   0  0  0  0  0  0  0  0  0  0  0  0
  147.5086  141.2006  154.4630 C   0  0  0  0  0  0  0  0  0  0  0  0
  147.2550  142.4367  153.8061 O   0  0  0  0  0  0  0  0  0  0  0  0
  146.2265  143.2271  154.2712 C   0  0  0  0  0  0  0  0  0  0  0  0
  145.5906  144.0655  153.3326 C   0  0  0  0  0  0  0  0  0  0  0  0
  144.5298  144.9075  153.7185 C   0  0  0  0  0  0  0  0  0  0  0  0
  144.0907  144.9196  155.0570 C   0  0  0  0  0  0  0  0  0  0  0  0
  142.9962  145.7873  155.4589 C   0  0  0  0  0  0  0  0  0  0  0  0
  142.1249  146.4780  155.7790 N   0  0  0  0  0  0  0  0  0  0  0  0
  144.7177  144.0863  156.0044 C   0  0  0  0  0  0  0  0  0  0  0  0
  145.7785  143.2445  155.6163 C   0  0  0  0  0  0  0  0  0  0  0  0
  152.6281  137.7370  155.6931 H   0  0  0  0  0  0  0  0  0  0  0  0
  151.5291  138.5570  154.5774 H   0  0  0  0  0  0  0  0  0  0  0  0
  150.8819  137.5484  155.8866 H   0  0  0  0  0  0  0  0  0  0  0  0
  153.8998  141.6101  159.0964 H   0  0  0  0  0  0  0  0  0  0  0  0
  152.6864  143.5465  160.0723 H   0  0  0  0  0  0  0  0  0  0  0  0
  150.3235  143.9951  159.4439 H   0  0  0  0  0  0  0  0  0  0  0  0
  149.1569  142.5010  157.8265 H   0  0  0  0  0  0  0  0  0  0  0  0
  149.2183  139.0631  155.5247 H   0  0  0  0  0  0  0  0  0  0  0  0
  148.4565  140.0513  156.7395 H   0  0  0  0  0  0  0  0  0  0  0  0
  149.2146  142.1159  155.3656 H   0  0  0  0  0  0  0  0  0  0  0  0
  149.3035  140.6565  153.0902 H   0  0  0  0  0  0  0  0  0  0  0  0
  147.3353  140.3840  153.7602 H   0  0  0  0  0  0  0  0  0  0  0  0
  146.8344  141.0588  155.3096 H   0  0  0  0  0  0  0  0  0  0  0  0
  145.9207  144.0637  152.3041 H   0  0  0  0  0  0  0  0  0  0  0  0
  144.0576  145.5416  152.9816 H   0  0  0  0  0  0  0  0  0  0  0  0
  144.3894  144.0871  157.0339 H   0  0  0  0  0  0  0  0  0  0  0  0
  146.2322  142.6209  156.3712 H   0  0  0  0  0  0  0  0  0  0  0  0
  1  2  1  0  0  0  0
  1 24  1  0  0  0  0
  1 25  1  0  0  0  0
  1 26  1  0  0  0  0
  2 10  1  0  0  0  0
  2  3  2  0  0  0  0
  3  4  1  0  0  0  0
  4  9  2  0  0  0  0
  4  5  1  0  0  0  0
  5  6  2  0  0  0  0
  5 27  1  0  0  0  0
  6  7  1  0  0  0  0
  6 28  1  0  0  0  0
  7  8  2  0  0  0  0
  7 29  1  0  0  0  0
  8  9  1  0  0  0  0
  8 30  1  0  0  0  0
  9 10  1  0  0  0  0
 10 11  1  0  0  0  0
 11 12  1  0  0  0  0
 11 31  1  0  0  0  0
 11 32  1  0  0  0  0
 12 13  1  0  0  0  0
 12 14  1  0  0  0  0
 12 33  1  0  0  0  0
 13 34  1  0  0  0  0
 14 15  1  0  0  0  0
 14 35  1  0  0  0  0
 14 36  1  0  0  0  0
 15 16  1  0  0  0  0
 16 23  1  0  0  0  0
 16 17  2  0  0  0  0
 17 18  1  0  0  0  0
 17 37  1  0  0  0  0
 18 19  2  0  0  0  0
 18 38  1  0  0  0  0
 19 20  1  0  0  0  0
 19 22  1  0  0  0  0
 20 21  3  0  0  0  0
 22 23  2  0  0  0  0
 22 39  1  0  0  0  0
 23 40  1  0  0  0  0
M  END
> <s_m_source_file>
AV-unprocessed.smi

> <i_m_source_file_index>
1884

> <i_lp_mmshare_version>
43012

> <i_f3d_flags>
0

> <s_epik_input>
W2NIXTFbY0hdW2NIXVtjSF1jKGMxMiluKGMobjIpW0NIM10pW0NIMl1bQ0BIXShbT0hdKVtDSDJdT2MzW2NIXVtjSF1jKEMjTilbY0hdW2NIXTM=

> <s_epik_cmdline>
J2VwaWtfcHl0aG9uJywgJy1waCcsICc3LjAnLCAnLXRuJywgJzgnLCAnLW1hJywgJzIwMCcsICctbWV0YWxfYmluZGluZycsICctaW1hZScsICc8aW5maWxlLm1hZT4nLCAnLW9tYWUnLCAnPG91dGZpbGUubWFlPic=

> <r_epik_Ionization_Penalty>
0.110799

> <r_epik_Ionization_Penalty_Charging>
0

> <r_epik_Ionization_Penalty_Neutral>
0.110799

> <r_epik_State_Penalty>
0.100537

> <r_epik_Charging_Adjusted_Penalty>
0.100537

> <i_epik_Tot_Q>
0

> <i_epik_Tot_abs_Q>
0

> <r_epik_Metal_State_Penalty>
0.000109561

> <b_epik_Metal_Only>
0

> <s_lp_Force_Field>
OPLS_2005

> <r_lp_Energy>
15.8786

> <b_lp_Chiralities_Consistent>
1

> <s_lp_Variant>
AV-unprocessed.smi:1884-2

> <Gold.Version>
5.8.1

> <Gold.Id.Protein>
6NUR|6NUR_protein|mol2

> <Gold.PLP.Fitness>
45.7543

> <Gold.PLP.PLP>
-41.1748

> <Gold.PLP.part.hbond>
-3.7679

> <Gold.PLP.part.metal>
0.0000

> <Gold.PLP.part.buried>
-4.5722

> <Gold.PLP.part.nonpolar>
-32.3363

> <Gold.PLP.part.repulsive>
0.1716

> <Gold.PLP.ligand.clash>
0.0000

> <Gold.PLP.ligand.torsion>
1.0095

> <Gold.PLP.Chemscore.Hbond>
2.1840

> <Gold.PLP.Chemscore.CHOScore>
0.0000

> <Gold.PLP.Chemscore.Metal>
0.0000

> <Gold.Chemscore.Hbonds>
donor molecule, donor type, donor heavy atom, donor atom, acceptor molecule, acceptor atom, score
      L1  H    13    34       P1  7957  0.72
      P1  H  7989  7998       L1    13  0.38
      P1  H  7997  8008       L1     3  1.00

> <Gold.PLP.Chemscore.Internal.Correction>
0.0466

> <Gold.Rescore>
     Score         DG    S(hbond)    S(metal)    S(lipo)     H(rot)  DE(clash)    DE(int)     intcor
     17.13     -18.60       2.00        0.00     105.68       2.31       0.46       1.02       ----

> <Gold.Chemscore.Fitness>
17.1271

> <Gold.Chemscore.DG>
-18.6016

> <Gold.Chemscore.ZeroCoef>
-5.4800

> <Gold.Chemscore.Hbond>
1.9975

> <Gold.Chemscore.Metal>
0.0000

> <Gold.Chemscore.Lipo>
105.6757

> <Gold.Chemscore.Internal_Hbond>
0.0000

> <Gold.Chemscore.DEClash>
0.4571

> <Gold.Chemscore.DEInternal>
1.0175

> <Gold.Chemscore.Rot>
2.3102

> <Gold.Chemscore.Internal.Correction>
   9.000000E+99

> <Gold.Chemscore.Hbonds>
donor molecule, donor type, donor heavy atom, donor atom, acceptor molecule, acceptor atom, score
      L1  H    13    34       P1  7957  0.69
      P1  H  7989  7998       L1    13  0.31
      P1  H  7997  8008       L1     3  0.69

> <Gold.Chemscore.Hbond.Weighted>
-6.6717

> <Gold.Chemscore.Metal.Weighted>
-0.0000

> <Gold.Chemscore.Lipo.Weighted>
-12.3641

> <Gold.Chemscore.Internal_Hbond.Weighted>
0.0000

> <Gold.Chemscore.DEClash.Weighted>
0.4571

> <Gold.Chemscore.DEInternal.Weighted>
1.0175

> <Gold.Chemscore.Rot.Weighted>
5.9141

> <Gold.Chemscore.Internal.Correction.Weighted>
   9.000000E+99

> <Gold.Protein.RotatedTorsions>
[ 6907 6896 6895 6894 ] final   70.68 input  -60.11 | X-H torsion
[ 7974 7965 7964 7962 ] final   81.57 input  175.53 | X-H torsion
[ 8008 7997 7996 7995 ] final  -73.12 input   59.86 | X-H torsion
[ 10167 10162 10161 10158 ] final  -25.34 input  -65.29 | X-H torsion
[ 10718 10713 10712 10709 ] final  -66.55 input   66.30 | X-H torsion
[ 10763 10752 10751 10750 ] final  -13.83 input  -60.55 | X-H torsion
[ 11005 11000 10999 10996 ] final   53.03 input  -57.11 | X-H torsion

> <Gold.Protein.ActiveResidues>
 VAL166  LYS551  ARG553  GLY616  TRP617  ASP618  TYR619  PRO620  LYS621  CYS622 
 ASP623  PHE694  ASN695  SER759  ASP760  ASP761  ALA762  ILE779  LEU786  VAL792 
 PHE793  MET794  SER795  GLU796  ALA797  LYS798  CYS799  TRP800  GLU811  SER814 

> <Gold.Protein.RotatedAtoms>
  152.4764  134.4832  159.9671 H   0  0  0  0  0  0  0  0  0  0  0  0  # atno 6907 bound_to 6896
  151.4847  133.3532  159.2851 H   0  0  0  0  0  0  0  0  0  0  0  0  # atno 6908 bound_to 6896
  150.8806  134.8223  159.7283 H   0  0  0  0  0  0  0  0  0  0  0  0  # atno 6909 bound_to 6896
  145.6364  139.2416  143.2055 H   0  0  0  0  0  0  0  0  0  0  0  0  # atno 7974 bound_to 7965
  154.5222  140.0785  156.8192 H   0  0  0  0  0  0  0  0  0  0  0  0  # atno 8008 bound_to 7997
  155.3553  140.3415  155.4221 H   0  0  0  0  0  0  0  0  0  0  0  0  # atno 8009 bound_to 7997
  156.1693  140.1614  156.8463 H   0  0  0  0  0  0  0  0  0  0  0  0  # atno 8010 bound_to 7997
  140.7286  143.4273  151.0856 H   0  0  0  0  0  0  0  0  0  0  0  0  # atno 10167 bound_to 10162
  156.0606  130.4264  150.1726 H   0  0  0  0  0  0  0  0  0  0  0  0  # atno 10718 bound_to 10713
  153.5192  135.7016  153.5740 H   0  0  0  0  0  0  0  0  0  0  0  0  # atno 10763 bound_to 10752
  153.3797  135.3923  155.1848 H   0  0  0  0  0  0  0  0  0  0  0  0  # atno 10764 bound_to 10752
  154.8696  135.3832  154.4679 H   0  0  0  0  0  0  0  0  0  0  0  0  # atno 10765 bound_to 10752
  140.0800  134.5351  155.8956 H   0  0  0  0  0  0  0  0  0  0  0  0  # atno 11005 bound_to 11000
  146.1315  140.7178  142.9410 LP  0  0  0  0  0  0  0  0  0  0  0  0  # atno 17320 bound_to 7965
  144.7174  140.4256  143.7034 LP  0  0  0  0  0  0  0  0  0  0  0  0  # atno 17321 bound_to 7965
  139.7926  143.8197  152.3153 LP  0  0  0  0  0  0  0  0  0  0  0  0  # atno 17342 bound_to 10162
  139.8186  144.7305  150.9603 LP  0  0  0  0  0  0  0  0  0  0  0  0  # atno 17343 bound_to 10162
  156.9795  130.9859  151.3440 LP  0  0  0  0  0  0  0  0  0  0  0  0  # atno 17370 bound_to 10713
  157.5611  130.8246  149.8267 LP  0  0  0  0  0  0  0  0  0  0  0  0  # atno 17371 bound_to 10713
  141.2043  133.6638  156.6115 LP  0  0  0  0  0  0  0  0  0  0  0  0  # atno 17394 bound_to 11000
  140.3501  134.7776  157.4460 LP  0  0  0  0  0  0  0  0  0  0  0  0  # atno 17395 bound_to 11000

$$$$
