AV-unprocessed.smi:697|AV-procd|sdf|3393|dock10
  -GOLD-   22720 0373D 1   1.00000     0.00000
 Structure written by MMmdl.
 43 44  0  0  0  0  0  0  0  0  2 V2000
  151.3408  142.2831  156.7181 C   0  0  0  0  0  0  0  0  0  0  0  0
  151.6203  141.0267  157.3222 O   0  0  0  0  0  0  0  0  0  0  0  0
  151.1213  139.8731  156.6435 C   0  0  1  0  0  0  0  0  0  0  0  0
  151.8824  139.6713  155.3238 C   0  0  0  0  0  0  0  0  0  0  0  0
  150.9724  138.6616  157.5825 C   0  0  0  0  0  0  0  0  0  0  0  0
  149.6230  138.4196  156.9106 C   0  0  1  0  0  0  0  0  0  0  0  0
  148.6108  137.9320  157.8408 N   0  0  0  0  0  0  0  0  0  0  0  0
  148.7969  136.9227  158.7015 C   0  0  0  0  0  0  0  0  0  0  0  0
  149.8589  136.3078  158.7963 O   0  0  0  0  0  0  0  0  0  0  0  0
  147.6857  136.7046  159.4276 N   0  0  0  0  0  0  0  0  0  0  0  0
  147.4389  135.7398  160.4194 C   0  0  0  0  0  0  0  0  0  0  0  0
  147.3656  134.3974  160.2006 C   0  0  0  0  0  0  0  0  0  0  0  0
  147.0960  133.4458  161.2712 C   0  0  0  0  0  0  0  0  0  0  0  0
  147.1051  131.9391  161.0830 C   0  0  0  0  0  0  0  0  0  0  0  0
  148.0562  131.3695  161.8235 F   0  0  0  0  0  0  0  0  0  0  0  0
  145.9310  131.4289  161.4515 F   0  0  0  0  0  0  0  0  0  0  0  0
  147.3163  131.6173  159.8068 F   0  0  0  0  0  0  0  0  0  0  0  0
  146.9403  134.0649  162.4960 C   0  0  0  0  0  0  0  0  0  0  0  0
  146.9698  135.3826  162.7931 N   0  5  0  0  0  0  0  0  0  0  0  0
  147.2196  136.2639  161.7838 C   0  0  0  0  0  0  0  0  0  0  0  0
  147.2642  137.4782  161.9856 O   0  0  0  0  0  0  0  0  0  0  0  0
  149.5594  139.9399  156.6132 C   0  0  0  0  0  0  0  0  0  0  0  0
  148.8963  140.8308  157.6836 C   0  0  0  0  0  0  0  0  0  0  0  0
  148.9090  140.3319  155.2829 C   0  0  0  0  0  0  0  0  0  0  0  0
  151.8458  143.0685  157.2801 H   0  0  0  0  0  0  0  0  0  0  0  0
  150.2759  142.5124  156.7291 H   0  0  0  0  0  0  0  0  0  0  0  0
  151.7005  142.3313  155.6902 H   0  0  0  0  0  0  0  0  0  0  0  0
  151.4396  138.8831  154.7154 H   0  0  0  0  0  0  0  0  0  0  0  0
  152.9188  139.3805  155.4920 H   0  0  0  0  0  0  0  0  0  0  0  0
  151.8857  140.5823  154.7250 H   0  0  0  0  0  0  0  0  0  0  0  0
  151.7024  137.8671  157.4253 H   0  0  0  0  0  0  0  0  0  0  0  0
  150.8955  138.9300  158.6379 H   0  0  0  0  0  0  0  0  0  0  0  0
  149.7235  137.8107  156.0092 H   0  0  0  0  0  0  0  0  0  0  0  0
  147.7115  138.3904  157.8259 H   0  0  0  0  0  0  0  0  0  0  0  0
  146.9165  137.3392  159.2698 H   0  0  0  0  0  0  0  0  0  0  0  0
  147.4882  133.9892  159.2113 H   0  0  0  0  0  0  0  0  0  0  0  0
  146.7696  133.4005  163.3698 H   0  0  0  0  0  0  0  0  0  0  0  0
  147.8174  140.6770  157.7240 H   0  0  0  0  0  0  0  0  0  0  0  0
  149.0617  141.8891  157.4789 H   0  0  0  0  0  0  0  0  0  0  0  0
  149.2834  140.6361  158.6837 H   0  0  0  0  0  0  0  0  0  0  0  0
  147.8218  140.2643  155.3338 H   0  0  0  0  0  0  0  0  0  0  0  0
  149.2227  139.6812  154.4671 H   0  0  0  0  0  0  0  0  0  0  0  0
  149.1626  141.3543  155.0009 H   0  0  0  0  0  0  0  0  0  0  0  0
  1  2  1  0  0  0  0
  1 25  1  0  0  0  0
  1 26  1  0  0  0  0
  1 27  1  0  0  0  0
  2  3  1  0  0  0  0
  3 22  1  0  0  0  0
  3  4  1  0  0  0  0
  3  5  1  0  0  0  0
  4 28  1  0  0  0  0
  4 29  1  0  0  0  0
  4 30  1  0  0  0  0
  5  6  1  0  0  0  0
  5 31  1  0  0  0  0
  5 32  1  0  0  0  0
  6  7  1  0  0  0  0
  6 22  1  0  0  0  0
  6 33  1  0  0  0  0
  7  8  1  0  0  0  0
  7 34  1  0  0  0  0
  8  9  2  0  0  0  0
  8 10  1  0  0  0  0
 10 11  1  0  0  0  0
 10 35  1  0  0  0  0
 11 20  1  0  0  0  0
 11 12  2  0  0  0  0
 12 13  1  0  0  0  0
 12 36  1  0  0  0  0
 13 14  1  0  0  0  0
 13 18  2  0  0  0  0
 14 15  1  0  0  0  0
 14 16  1  0  0  0  0
 14 17  1  0  0  0  0
 18 19  1  0  0  0  0
 18 37  1  0  0  0  0
 19 20  1  0  0  0  0
 20 21  2  0  0  0  0
 22 23  1  0  0  0  0
 22 24  1  0  0  0  0
 23 38  1  0  0  0  0
 23 39  1  0  0  0  0
 23 40  1  0  0  0  0
 24 41  1  0  0  0  0
 24 42  1  0  0  0  0
 24 43  1  0  0  0  0
M  CHG  1  19  -1
M  END
> <s_m_source_file>
AV-unprocessed.smi

> <i_m_source_file_index>
697

> <i_lp_mmshare_version>
43012

> <i_f3d_flags>
0

> <s_epik_input>
W0NIM11PW0NAQF0xKFtDSDNdKVtDSDJdW0NASF0oQzEoW0NIM10pW0NIM10pW05IXUMoPU8pW05IXWMyW2NIXWMoQyhGKShGKUYpW2NIXVtuSF1jMj1P

> <s_epik_cmdline>
J2VwaWtfcHl0aG9uJywgJy1waCcsICc3LjAnLCAnLXRuJywgJzgnLCAnLW1hJywgJzIwMCcsICctbWV0YWxfYmluZGluZycsICctaW1hZScsICc8aW5maWxlLm1hZT4nLCAnLW9tYWUnLCAnPG91dGZpbGUubWFlPic=

> <r_lp_tautomer_probability>
1

> <r_epik_Ionization_Penalty>
3.20094

> <r_epik_Ionization_Penalty_Charging>
0.180017

> <r_epik_Ionization_Penalty_Neutral>
3.02092

> <r_epik_State_Penalty>
3.01726

> <r_epik_Charging_Adjusted_Penalty>
3.19727

> <i_epik_Tot_Q>
-1

> <i_epik_Tot_abs_Q>
1

> <r_epik_Metal_State_Penalty>
0.455096

> <b_epik_Metal_Only>
1

> <s_lp_Force_Field>
OPLS_2005

> <r_lp_Energy>
36.1164

> <b_lp_Chiralities_Consistent>
1

> <s_lp_Variant>
AV-unprocessed.smi:697-5

> <Gold.Version>
5.8.1

> <Gold.Id.Protein>
6NUR|6NUR_protein|mol2

> <Gold.PLP.Fitness>
41.0729

> <Gold.PLP.PLP>
-35.1044

> <Gold.PLP.part.hbond>
-3.0000

> <Gold.PLP.part.metal>
0.0000

> <Gold.PLP.part.buried>
-5.1743

> <Gold.PLP.part.nonpolar>
-27.3211

> <Gold.PLP.part.repulsive>
0.2474

> <Gold.PLP.ligand.clash>
0.0000

> <Gold.PLP.ligand.torsion>
1.0344

> <Gold.PLP.Chemscore.Hbond>
2.5360

> <Gold.PLP.Chemscore.CHOScore>
0.0000

> <Gold.PLP.Chemscore.Metal>
0.0000

> <Gold.Chemscore.Hbonds>
donor molecule, donor type, donor heavy atom, donor atom, acceptor molecule, acceptor atom, score
      P1  H  6896  6908       L1     9  1.00
      P1  H  6931  6943       L1    21  0.72
      P1  H  6934  6947       L1    21  0.69

> <Gold.PLP.Chemscore.Internal.Correction>
0.4292

> <Gold.Rescore>
     Score         DG    S(hbond)    S(metal)    S(lipo)     H(rot)  DE(clash)    DE(int)     intcor
     14.18     -16.51       1.92        0.00      67.96       1.30       0.09       2.24       ----

> <Gold.Chemscore.Fitness>
14.1802

> <Gold.Chemscore.DG>
-16.5104

> <Gold.Chemscore.ZeroCoef>
-5.4800

> <Gold.Chemscore.Hbond>
1.9162

> <Gold.Chemscore.Metal>
0.0000

> <Gold.Chemscore.Lipo>
67.9604

> <Gold.Chemscore.Internal_Hbond>
0.0000

> <Gold.Chemscore.DEClash>
0.0899

> <Gold.Chemscore.DEInternal>
2.2404

> <Gold.Chemscore.Rot>
1.2973

> <Gold.Chemscore.Internal.Correction>
   9.000000E+99

> <Gold.Chemscore.Hbonds>
donor molecule, donor type, donor heavy atom, donor atom, acceptor molecule, acceptor atom, score
      P1  H  6896  6908       L1     9  0.96
      P1  H  6931  6943       L1    21  0.66
      P1  H  6934  6947       L1    21  0.68

> <Gold.Chemscore.Hbond.Weighted>
-6.4000

> <Gold.Chemscore.Metal.Weighted>
-0.0000

> <Gold.Chemscore.Lipo.Weighted>
-7.9514

> <Gold.Chemscore.Internal_Hbond.Weighted>
0.0000

> <Gold.Chemscore.DEClash.Weighted>
0.0899

> <Gold.Chemscore.DEInternal.Weighted>
2.2404

> <Gold.Chemscore.Rot.Weighted>
3.3210

> <Gold.Chemscore.Internal.Correction.Weighted>
   9.000000E+99

> <Gold.Protein.RotatedTorsions>
[ 6907 6896 6895 6894 ] final  177.92 input  -60.11 | X-H torsion
[ 7974 7965 7964 7962 ] final   -1.77 input  175.53 | X-H torsion
[ 8008 7997 7996 7995 ] final  -96.33 input   59.86 | X-H torsion
[ 10167 10162 10161 10158 ] final  155.24 input  -65.29 | X-H torsion
[ 10718 10713 10712 10709 ] final  -73.82 input   66.30 | X-H torsion
[ 10763 10752 10751 10750 ] final  137.43 input  -60.55 | X-H torsion
[ 11005 11000 10999 10996 ] final -174.28 input  -57.11 | X-H torsion

> <Gold.Protein.ActiveResidues>
 VAL166  LYS551  ARG553  GLY616  TRP617  ASP618  TYR619  PRO620  LYS621  CYS622 
 ASP623  PHE694  ASN695  SER759  ASP760  ASP761  ALA762  ILE779  LEU786  VAL792 
 PHE793  MET794  SER795  GLU796  ALA797  LYS798  CYS799  TRP800  GLU811  SER814 

> <Gold.Protein.RotatedAtoms>
  151.6962  133.3311  159.3254 H   0  0  0  0  0  0  0  0  0  0  0  0  # atno 6907 bound_to 6896
  150.7756  134.6656  159.6372 H   0  0  0  0  0  0  0  0  0  0  0  0  # atno 6908 bound_to 6896
  152.3797  134.6612  160.0199 H   0  0  0  0  0  0  0  0  0  0  0  0  # atno 6909 bound_to 6896
  146.2413  140.1471  142.8334 H   0  0  0  0  0  0  0  0  0  0  0  0  # atno 7974 bound_to 7965
  154.7730  140.0472  157.1066 H   0  0  0  0  0  0  0  0  0  0  0  0  # atno 8008 bound_to 7997
  154.9797  140.3100  155.4932 H   0  0  0  0  0  0  0  0  0  0  0  0  # atno 8009 bound_to 7997
  156.2924  140.2238  156.4895 H   0  0  0  0  0  0  0  0  0  0  0  0  # atno 8010 bound_to 7997
  139.4821  144.5115  151.8016 H   0  0  0  0  0  0  0  0  0  0  0  0  # atno 10167 bound_to 10162
  156.0266  130.4402  150.2799 H   0  0  0  0  0  0  0  0  0  0  0  0  # atno 10718 bound_to 10713
  153.8729  135.3053  155.3442 H   0  0  0  0  0  0  0  0  0  0  0  0  # atno 10763 bound_to 10752
  154.7797  135.4842  153.9821 H   0  0  0  0  0  0  0  0  0  0  0  0  # atno 10764 bound_to 10752
  153.1395  135.6821  153.9145 H   0  0  0  0  0  0  0  0  0  0  0  0  # atno 10765 bound_to 10752
  140.4762  134.6118  157.4902 H   0  0  0  0  0  0  0  0  0  0  0  0  # atno 11005 bound_to 11000
  145.0198  140.8784  143.5173 LP  0  0  0  0  0  0  0  0  0  0  0  0  # atno 17320 bound_to 7965
  145.1518  139.2510  143.5437 LP  0  0  0  0  0  0  0  0  0  0  0  0  # atno 17321 bound_to 7965
  140.4619  144.1710  150.5907 LP  0  0  0  0  0  0  0  0  0  0  0  0  # atno 17342 bound_to 10162
  140.4475  143.2500  151.9392 LP  0  0  0  0  0  0  0  0  0  0  0  0  # atno 17343 bound_to 10162
  157.0902  131.0167  151.3124 LP  0  0  0  0  0  0  0  0  0  0  0  0  # atno 17370 bound_to 10713
  157.4860  130.7793  149.7460 LP  0  0  0  0  0  0  0  0  0  0  0  0  # atno 17371 bound_to 10713
  139.9854  134.7070  155.9783 LP  0  0  0  0  0  0  0  0  0  0  0  0  # atno 17394 bound_to 11000
  141.1553  133.6543  156.4142 LP  0  0  0  0  0  0  0  0  0  0  0  0  # atno 17395 bound_to 11000

$$$$
