AV-unprocessed.smi:197|AV-procd|sdf|1549|dock7
  -GOLD-   2262019413D 1   1.00000     0.00000
 Structure written by MMmdl.
 54 57  0  0  0  0  0  0  0  0  1 V2000
  153.0695  141.9425  159.9580 C   0  0  0  0  0  0  0  0  0  0  0  0
  152.2606  140.8998  159.4341 O   0  0  0  0  0  0  0  0  0  0  0  0
  151.5106  141.2679  158.2847 C   0  0  0  0  0  0  0  0  0  0  0  0
  150.5536  140.1443  157.8459 C   0  0  0  0  0  0  0  0  0  0  0  0
  149.5700  140.5711  156.7279 C   0  0  1  0  0  0  0  0  0  0  0  0
  150.2716  141.2511  155.5315 C   0  0  0  0  0  0  0  0  0  0  0  0
  151.0413  140.2989  154.8046 O   0  0  0  0  0  0  0  0  0  0  0  0
  150.2263  139.2727  154.2496 C   0  0  0  0  0  0  0  0  0  0  0  0
  149.5145  138.5110  155.3784 C   0  0  0  0  0  0  0  0  0  0  0  0
  148.7743  139.4428  156.2295 N   0  0  0  0  0  0  0  0  0  0  0  0
  147.8636  138.9239  157.0974 C   0  0  0  0  0  0  0  0  0  0  0  0
  146.6713  139.5545  157.2764 N   0  0  0  0  0  0  0  0  0  0  0  0
  145.7405  139.0325  158.0793 C   0  0  0  0  0  0  0  0  0  0  0  0
  145.7885  137.9031  158.7866 N   0  0  0  0  0  0  0  0  0  0  0  0
  146.9858  137.2713  158.6262 C   0  0  0  0  0  0  0  0  0  0  0  0
  148.0726  137.7128  157.8189 C   0  0  0  0  0  0  0  0  0  0  0  0
  149.1305  136.8171  157.9277 N   0  0  0  0  0  0  0  0  0  0  0  0
  148.6851  135.8877  158.7273 C   0  0  0  0  0  0  0  0  0  0  0  0
  147.3978  136.0710  159.1775 N   0  0  0  0  0  0  0  0  0  0  0  0
  146.6428  135.1801  160.0433 C   0  0  0  0  0  0  0  0  0  0  0  0
  146.4679  135.7313  161.4795 C   0  0  1  0  0  0  0  0  0  0  0  0
  145.8144  134.7446  162.2621 O   0  0  0  0  0  0  0  0  0  0  0  0
  147.7969  136.0576  162.1430 C   0  0  0  0  0  0  0  0  0  0  0  0
  147.3982  137.0824  163.1961 C   0  0  0  0  0  0  0  0  0  0  0  0
  146.3928  137.8609  162.5638 O   0  0  0  0  0  0  0  0  0  0  0  0
  145.7231  137.0879  161.5686 C   0  0  2  0  0  0  0  0  0  0  0  0
  144.2126  137.0385  161.8622 C   0  0  0  0  0  0  0  0  0  0  0  0
  153.6416  141.5641  160.8049 H   0  0  0  0  0  0  0  0  0  0  0  0
  152.4755  142.7845  160.3122 H   0  0  0  0  0  0  0  0  0  0  0  0
  153.7787  142.3051  159.2133 H   0  0  0  0  0  0  0  0  0  0  0  0
  150.9717  142.2010  158.4582 H   0  0  0  0  0  0  0  0  0  0  0  0
  152.2279  141.4682  157.4897 H   0  0  0  0  0  0  0  0  0  0  0  0
  151.1306  139.2736  157.5330 H   0  0  0  0  0  0  0  0  0  0  0  0
  149.9806  139.8244  158.7148 H   0  0  0  0  0  0  0  0  0  0  0  0
  148.9001  141.3149  157.1540 H   0  0  0  0  0  0  0  0  0  0  0  0
  149.5336  141.7058  154.8684 H   0  0  0  0  0  0  0  0  0  0  0  0
  150.9223  142.0603  155.8601 H   0  0  0  0  0  0  0  0  0  0  0  0
  149.5024  139.7034  153.5558 H   0  0  0  0  0  0  0  0  0  0  0  0
  150.8531  138.5923  153.6734 H   0  0  0  0  0  0  0  0  0  0  0  0
  148.8357  137.7754  154.9446 H   0  0  0  0  0  0  0  0  0  0  0  0
  150.2433  137.9646  155.9780 H   0  0  0  0  0  0  0  0  0  0  0  0
  144.8222  139.5955  158.1588 H   0  0  0  0  0  0  0  0  0  0  0  0
  149.2808  135.0285  158.9996 H   0  0  0  0  0  0  0  0  0  0  0  0
  145.6705  134.9959  159.5846 H   0  0  0  0  0  0  0  0  0  0  0  0
  147.1542  134.2171  160.0693 H   0  0  0  0  0  0  0  0  0  0  0  0
  146.4336  134.0558  162.4502 H   0  0  0  0  0  0  0  0  0  0  0  0
  148.3058  135.1879  162.5607 H   0  0  0  0  0  0  0  0  0  0  0  0
  148.4732  136.5265  161.4270 H   0  0  0  0  0  0  0  0  0  0  0  0
  146.9712  136.5908  164.0713 H   0  0  0  0  0  0  0  0  0  0  0  0
  148.2354  137.6981  163.5250 H   0  0  0  0  0  0  0  0  0  0  0  0
  145.8730  137.6331  160.6368 H   0  0  0  0  0  0  0  0  0  0  0  0
  143.6789  136.4473  161.1184 H   0  0  0  0  0  0  0  0  0  0  0  0
  143.7860  138.0413  161.8497 H   0  0  0  0  0  0  0  0  0  0  0  0
  144.0068  136.6100  162.8432 H   0  0  0  0  0  0  0  0  0  0  0  0
  1  2  1  0  0  0  0
  1 28  1  0  0  0  0
  1 29  1  0  0  0  0
  1 30  1  0  0  0  0
  2  3  1  0  0  0  0
  3  4  1  0  0  0  0
  3 31  1  0  0  0  0
  3 32  1  0  0  0  0
  4  5  1  0  0  0  0
  4 33  1  0  0  0  0
  4 34  1  0  0  0  0
  5 10  1  0  0  0  0
  5  6  1  0  0  0  0
  5 35  1  0  0  0  0
  6  7  1  0  0  0  0
  6 36  1  0  0  0  0
  6 37  1  0  0  0  0
  7  8  1  0  0  0  0
  8  9  1  0  0  0  0
  8 38  1  0  0  0  0
  8 39  1  0  0  0  0
  9 10  1  0  0  0  0
  9 40  1  0  0  0  0
  9 41  1  0  0  0  0
 10 11  1  0  0  0  0
 11 16  1  0  0  0  0
 11 12  2  0  0  0  0
 12 13  1  0  0  0  0
 13 14  2  0  0  0  0
 13 42  1  0  0  0  0
 14 15  1  0  0  0  0
 15 19  1  0  0  0  0
 15 16  2  0  0  0  0
 16 17  1  0  0  0  0
 17 18  2  0  0  0  0
 18 19  1  0  0  0  0
 18 43  1  0  0  0  0
 19 20  1  0  0  0  0
 20 21  1  0  0  0  0
 20 44  1  0  0  0  0
 20 45  1  0  0  0  0
 21 26  1  0  0  0  0
 21 22  1  0  0  0  0
 21 23  1  0  0  0  0
 22 46  1  0  0  0  0
 23 24  1  0  0  0  0
 23 47  1  0  0  0  0
 23 48  1  0  0  0  0
 24 25  1  0  0  0  0
 24 49  1  0  0  0  0
 24 50  1  0  0  0  0
 25 26  1  0  0  0  0
 26 27  1  0  0  0  0
 26 51  1  0  0  0  0
 27 52  1  0  0  0  0
 27 53  1  0  0  0  0
 27 54  1  0  0  0  0
M  END
> <s_m_source_file>
AV-unprocessed.smi

> <i_m_source_file_index>
197

> <i_lp_mmshare_version>
43012

> <i_f3d_flags>
0

> <s_epik_input>
W0NIM11PW0NIMl1bQ0gyXVtDQEBIXTFbQ0gyXU9bQ0gyXVtDSDJdTjFjKG5bY0hdbjIpYyhjMjMpbltjSF1uM1tDSDJdW0NAQF00KFtPSF0pW0NIMl1bQ0gyXU9bQ0BIXTRbQ0gzXQ==

> <s_epik_cmdline>
J2VwaWtfcHl0aG9uJywgJy1waCcsICc3LjAnLCAnLXRuJywgJzgnLCAnLW1hJywgJzIwMCcsICctbWV0YWxfYmluZGluZycsICctaW1hZScsICc8aW5maWxlLm1hZT4nLCAnLW9tYWUnLCAnPG91dGZpbGUubWFlPic=

> <r_lp_tautomer_probability>
1

> <r_epik_Ionization_Penalty>
0.000106218

> <r_epik_Ionization_Penalty_Charging>
0

> <r_epik_Ionization_Penalty_Neutral>
0.000106218

> <r_epik_State_Penalty>
-0

> <r_epik_Charging_Adjusted_Penalty>
0

> <i_epik_Tot_Q>
0

> <i_epik_Tot_abs_Q>
0

> <r_epik_Metal_State_Penalty>
-0

> <b_epik_Metal_Only>
0

> <s_lp_Force_Field>
OPLS_2005

> <r_lp_Energy>
41.5492

> <b_lp_Chiralities_Consistent>
1

> <s_lp_Variant>
AV-unprocessed.smi:197-6

> <Gold.Version>
5.8.1

> <Gold.Id.Protein>
6NUR|6NUR_protein|mol2

> <Gold.PLP.Fitness>
39.9265

> <Gold.PLP.PLP>
-37.7995

> <Gold.PLP.part.hbond>
-2.5368

> <Gold.PLP.part.metal>
0.0000

> <Gold.PLP.part.buried>
-4.7712

> <Gold.PLP.part.nonpolar>
-29.4187

> <Gold.PLP.part.repulsive>
0.0589

> <Gold.PLP.ligand.clash>
0.0000

> <Gold.PLP.ligand.torsion>
0.7538

> <Gold.PLP.Chemscore.Hbond>
1.0187

> <Gold.PLP.Chemscore.CHOScore>
0.0000

> <Gold.PLP.Chemscore.Metal>
0.0000

> <Gold.Chemscore.Hbonds>
donor molecule, donor type, donor heavy atom, donor atom, acceptor molecule, acceptor atom, score
      P1  H  6934  6947       L1    25  0.13
      P1  H  7989  7998       L1     7  0.95

> <Gold.PLP.Chemscore.Internal.Correction>
0.5784

> <Gold.Rescore>
     Score         DG    S(hbond)    S(metal)    S(lipo)     H(rot)  DE(clash)    DE(int)     intcor
      8.30     -11.29       0.79        0.00      89.20       2.84       0.73       2.26       ----

> <Gold.Chemscore.Fitness>
8.3043

> <Gold.Chemscore.DG>
-11.2942

> <Gold.Chemscore.ZeroCoef>
-5.4800

> <Gold.Chemscore.Hbond>
0.7897

> <Gold.Chemscore.Metal>
0.0000

> <Gold.Chemscore.Lipo>
89.1977

> <Gold.Chemscore.Internal_Hbond>
0.0000

> <Gold.Chemscore.DEClash>
0.7284

> <Gold.Chemscore.DEInternal>
2.2615

> <Gold.Chemscore.Rot>
2.8358

> <Gold.Chemscore.Internal.Correction>
   9.000000E+99

> <Gold.Chemscore.Hbonds>
donor molecule, donor type, donor heavy atom, donor atom, acceptor molecule, acceptor atom, score
      P1  H  7989  7998       L1     7  0.17

> <Gold.Chemscore.Hbond.Weighted>
-2.6376

> <Gold.Chemscore.Metal.Weighted>
-0.0000

> <Gold.Chemscore.Lipo.Weighted>
-10.4361

> <Gold.Chemscore.Internal_Hbond.Weighted>
0.0000

> <Gold.Chemscore.DEClash.Weighted>
0.7284

> <Gold.Chemscore.DEInternal.Weighted>
2.2615

> <Gold.Chemscore.Rot.Weighted>
7.2596

> <Gold.Chemscore.Internal.Correction.Weighted>
   9.000000E+99

> <Gold.Protein.RotatedTorsions>
[ 6907 6896 6895 6894 ] final  127.44 input  -60.11 | X-H torsion
[ 7974 7965 7964 7962 ] final -149.01 input  175.53 | X-H torsion
[ 8008 7997 7996 7995 ] final    0.56 input   59.86 | X-H torsion
[ 10167 10162 10161 10158 ] final  126.66 input  -65.29 | X-H torsion
[ 10718 10713 10712 10709 ] final -144.23 input   66.30 | X-H torsion
[ 10763 10752 10751 10750 ] final   22.47 input  -60.55 | X-H torsion
[ 11005 11000 10999 10996 ] final -108.05 input  -57.11 | X-H torsion

> <Gold.Protein.ActiveResidues>
 VAL166  LYS551  ARG553  GLY616  TRP617  ASP618  TYR619  PRO620  LYS621  CYS622 
 ASP623  PHE694  ASN695  SER759  ASP760  ASP761  ALA762  ILE779  LEU786  VAL792 
 PHE793  MET794  SER795  GLU796  ALA797  LYS798  CYS799  TRP800  GLU811  SER814 

> <Gold.Protein.RotatedAtoms>
  152.3812  133.6548  159.6162 H   0  0  0  0  0  0  0  0  0  0  0  0  # atno 6907 bound_to 6896
  150.7742  133.9111  159.3378 H   0  0  0  0  0  0  0  0  0  0  0  0  # atno 6908 bound_to 6896
  151.6916  135.0947  160.0286 H   0  0  0  0  0  0  0  0  0  0  0  0  # atno 6909 bound_to 6896
  144.7993  140.5120  143.5718 H   0  0  0  0  0  0  0  0  0  0  0  0  # atno 7974 bound_to 7965
  154.6695  140.2608  155.7022 H   0  0  0  0  0  0  0  0  0  0  0  0  # atno 8008 bound_to 7997
  156.2653  140.2832  156.1120 H   0  0  0  0  0  0  0  0  0  0  0  0  # atno 8009 bound_to 7997
  155.1190  140.0377  157.2735 H   0  0  0  0  0  0  0  0  0  0  0  0  # atno 8010 bound_to 7997
  139.5619  144.6887  151.4018 H   0  0  0  0  0  0  0  0  0  0  0  0  # atno 10167 bound_to 10162
  156.3676  130.7771  151.1947 H   0  0  0  0  0  0  0  0  0  0  0  0  # atno 10718 bound_to 10713
  153.0913  135.6647  153.9849 H   0  0  0  0  0  0  0  0  0  0  0  0  # atno 10763 bound_to 10752
  153.9444  135.2990  155.3443 H   0  0  0  0  0  0  0  0  0  0  0  0  # atno 10764 bound_to 10752
  154.7328  135.5115  153.9064 H   0  0  0  0  0  0  0  0  0  0  0  0  # atno 10765 bound_to 10752
  141.0922  133.9035  157.2049 H   0  0  0  0  0  0  0  0  0  0  0  0  # atno 11005 bound_to 11000
  145.5592  139.1479  143.3350 LP  0  0  0  0  0  0  0  0  0  0  0  0  # atno 17320 bound_to 7965
  146.2271  140.5729  142.8992 LP  0  0  0  0  0  0  0  0  0  0  0  0  # atno 17321 bound_to 7965
  140.6900  143.7884  150.7241 LP  0  0  0  0  0  0  0  0  0  0  0  0  # atno 17342 bound_to 10162
  140.1363  143.4480  152.2222 LP  0  0  0  0  0  0  0  0  0  0  0  0  # atno 17343 bound_to 10162
  157.7480  131.0382  150.4490 LP  0  0  0  0  0  0  0  0  0  0  0  0  # atno 17370 bound_to 10713
  156.4711  130.4053  149.6517 LP  0  0  0  0  0  0  0  0  0  0  0  0  # atno 17371 bound_to 10713
  139.9750  135.0116  156.9608 LP  0  0  0  0  0  0  0  0  0  0  0  0  # atno 17394 bound_to 11000
  140.5225  134.0893  155.7295 LP  0  0  0  0  0  0  0  0  0  0  0  0  # atno 17395 bound_to 11000

$$$$
