AV-unprocessed.smi:1257|AV-procd|sdf|5286|dock2
  -GOLD-   22720 4403D 1   1.00000     0.00000
 Structure written by MMmdl.
 47 48  0  0  0  0  0  0  0  0  1 V2000
  145.3089  134.9420  150.6673 C   0  0  0  0  0  0  0  0  0  0  0  0
  144.8583  135.9801  151.7039 C   0  0  0  0  0  0  0  0  0  0  0  0
  145.5390  137.2569  151.5194 N   0  0  0  0  0  0  0  0  0  0  0  0
  146.4273  137.7873  152.3734 C   0  0  0  0  0  0  0  0  0  0  0  0
  146.7579  137.2402  153.4270 O   0  0  0  0  0  0  0  0  0  0  0  0
  147.0086  139.1502  151.9756 C   0  0  0  0  0  0  0  0  0  0  0  0
  147.7905  139.7669  153.0443 N   0  0  0  0  0  0  0  0  0  0  0  0
  147.2836  140.2971  154.1697 C   0  0  0  0  0  0  0  0  0  0  0  0
  146.0898  140.2511  154.4675 O   0  0  0  0  0  0  0  0  0  0  0  0
  148.2850  140.9199  155.0978 C   0  0  0  0  0  0  0  0  0  0  0  0
  149.6521  140.9717  154.7549 C   0  0  0  0  0  0  0  0  0  0  0  0
  150.5665  141.5370  155.6646 C   0  0  0  0  0  0  0  0  0  0  0  0
  150.0932  142.0301  156.9033 C   0  0  0  0  0  0  0  0  0  0  0  0
  150.9927  142.5969  157.8310 N   0  0  0  0  0  0  0  0  0  0  0  0
  151.8733  141.6539  158.5124 C   0  0  0  0  0  0  0  0  0  0  0  0
  152.5316  142.3220  159.7330 C   0  0  1  0  0  0  0  0  0  0  0  0
  153.5684  141.4077  160.3940 C   0  0  0  0  0  0  0  0  0  0  0  0
  153.1950  143.5185  159.3265 O   0  0  0  0  0  0  0  0  0  0  0  0
  152.3557  144.4797  158.6828 C   0  0  2  0  0  0  0  0  0  0  0  0
  151.3791  145.1511  159.6647 C   0  0  0  0  0  0  0  0  0  0  0  0
  151.6596  143.8442  157.4640 C   0  0  0  0  0  0  0  0  0  0  0  0
  148.7813  141.9648  157.2378 N   0  0  0  0  0  0  0  0  0  0  0  0
  147.9084  141.4240  156.3624 C   0  0  0  0  0  0  0  0  0  0  0  0
  144.8116  133.9868  150.8357 H   0  0  0  0  0  0  0  0  0  0  0  0
  146.3844  134.7713  150.7216 H   0  0  0  0  0  0  0  0  0  0  0  0
  145.0705  135.2628  149.6525 H   0  0  0  0  0  0  0  0  0  0  0  0
  143.7769  136.1184  151.6581 H   0  0  0  0  0  0  0  0  0  0  0  0
  145.0822  135.6172  152.7073 H   0  0  0  0  0  0  0  0  0  0  0  0
  145.3210  137.7734  150.6795 H   0  0  0  0  0  0  0  0  0  0  0  0
  147.6125  139.0466  151.0722 H   0  0  0  0  0  0  0  0  0  0  0  0
  146.1852  139.8196  151.7254 H   0  0  0  0  0  0  0  0  0  0  0  0
  148.7871  139.8329  152.8967 H   0  0  0  0  0  0  0  0  0  0  0  0
  150.0036  140.5856  153.8090 H   0  0  0  0  0  0  0  0  0  0  0  0
  151.6158  141.5698  155.4115 H   0  0  0  0  0  0  0  0  0  0  0  0
  151.3357  140.7644  158.8383 H   0  0  0  0  0  0  0  0  0  0  0  0
  152.6376  141.3210  157.8088 H   0  0  0  0  0  0  0  0  0  0  0  0
  151.7696  142.5582  160.4760 H   0  0  0  0  0  0  0  0  0  0  0  0
  153.1116  140.4784  160.7355 H   0  0  0  0  0  0  0  0  0  0  0  0
  154.0200  141.8929  161.2595 H   0  0  0  0  0  0  0  0  0  0  0  0
  154.3696  141.1523  159.6997 H   0  0  0  0  0  0  0  0  0  0  0  0
  153.0184  145.2630  158.3139 H   0  0  0  0  0  0  0  0  0  0  0  0
  150.8471  145.9696  159.1794 H   0  0  0  0  0  0  0  0  0  0  0  0
  151.9119  145.5663  160.5203 H   0  0  0  0  0  0  0  0  0  0  0  0
  150.6277  144.4575  160.0413 H   0  0  0  0  0  0  0  0  0  0  0  0
  152.3990  143.6310  156.6908 H   0  0  0  0  0  0  0  0  0  0  0  0
  150.9453  144.5513  157.0402 H   0  0  0  0  0  0  0  0  0  0  0  0
  146.8807  141.3908  156.6936 H   0  0  0  0  0  0  0  0  0  0  0  0
  1  2  1  0  0  0  0
  1 24  1  0  0  0  0
  1 25  1  0  0  0  0
  1 26  1  0  0  0  0
  2  3  1  0  0  0  0
  2 27  1  0  0  0  0
  2 28  1  0  0  0  0
  3  4  1  0  0  0  0
  3 29  1  0  0  0  0
  4  5  2  0  0  0  0
  4  6  1  0  0  0  0
  6  7  1  0  0  0  0
  6 30  1  0  0  0  0
  6 31  1  0  0  0  0
  7  8  1  0  0  0  0
  7 32  1  0  0  0  0
  8  9  2  0  0  0  0
  8 10  1  0  0  0  0
 10 23  1  0  0  0  0
 10 11  2  0  0  0  0
 11 12  1  0  0  0  0
 11 33  1  0  0  0  0
 12 13  2  0  0  0  0
 12 34  1  0  0  0  0
 13 14  1  0  0  0  0
 13 22  1  0  0  0  0
 14 21  1  0  0  0  0
 14 15  1  0  0  0  0
 15 16  1  0  0  0  0
 15 35  1  0  0  0  0
 15 36  1  0  0  0  0
 16 17  1  0  0  0  0
 16 18  1  0  0  0  0
 16 37  1  0  0  0  0
 17 38  1  0  0  0  0
 17 39  1  0  0  0  0
 17 40  1  0  0  0  0
 18 19  1  0  0  0  0
 19 20  1  0  0  0  0
 19 21  1  0  0  0  0
 19 41  1  0  0  0  0
 20 42  1  0  0  0  0
 20 43  1  0  0  0  0
 20 44  1  0  0  0  0
 21 45  1  0  0  0  0
 21 46  1  0  0  0  0
 22 23  2  0  0  0  0
 23 47  1  0  0  0  0
M  END
> <s_m_source_file>
AV-unprocessed.smi

> <i_m_source_file_index>
1257

> <i_lp_mmshare_version>
43012

> <i_f3d_flags>
0

> <s_epik_input>
W0NIM11bQ0gyXVtOSF1DKD1PKVtDSDJdW05IXUMoPU8pYzFbY0hdW2NIXWMobltjSF0xKU4yW0NIMl1bQ0BASF0oW0NIM10pT1tDQEBIXShbQ0gzXSlbQ0gyXTI=

> <s_epik_cmdline>
J2VwaWtfcHl0aG9uJywgJy1waCcsICc3LjAnLCAnLXRuJywgJzgnLCAnLW1hJywgJzIwMCcsICctbWV0YWxfYmluZGluZycsICctaW1hZScsICc8aW5maWxlLm1hZT4nLCAnLW9tYWUnLCAnPG91dGZpbGUubWFlPic=

> <r_lp_tautomer_probability>
1

> <r_epik_Ionization_Penalty>
1.15681e-05

> <r_epik_Ionization_Penalty_Charging>
0

> <r_epik_Ionization_Penalty_Neutral>
1.15681e-05

> <r_epik_State_Penalty>
-0

> <r_epik_Charging_Adjusted_Penalty>
0

> <i_epik_Tot_Q>
0

> <i_epik_Tot_abs_Q>
0

> <r_epik_Metal_State_Penalty>
-0

> <b_epik_Metal_Only>
0

> <s_lp_Force_Field>
OPLS_2005

> <r_lp_Energy>
16.6587

> <b_lp_Chiralities_Consistent>
1

> <s_lp_Variant>
AV-unprocessed.smi:1257-3

> <Gold.Version>
5.8.1

> <Gold.Id.Protein>
6NUR|6NUR_protein|mol2

> <Gold.PLP.Fitness>
50.8039

> <Gold.PLP.PLP>
-46.5900

> <Gold.PLP.part.hbond>
-2.0000

> <Gold.PLP.part.metal>
0.0000

> <Gold.PLP.part.buried>
-4.9796

> <Gold.PLP.part.nonpolar>
-41.0247

> <Gold.PLP.part.repulsive>
0.7766

> <Gold.PLP.ligand.clash>
0.0000

> <Gold.PLP.ligand.torsion>
0.3507

> <Gold.PLP.Chemscore.Hbond>
1.5242

> <Gold.PLP.Chemscore.CHOScore>
0.0000

> <Gold.PLP.Chemscore.Metal>
0.0000

> <Gold.Chemscore.Hbonds>
donor molecule, donor type, donor heavy atom, donor atom, acceptor molecule, acceptor atom, score
      L1  H     3    29       P1 10171  0.83
      L1  H     7    32       P1  7957  0.46

> <Gold.PLP.Chemscore.Internal.Correction>
0.3428

> <Gold.Rescore>
     Score         DG    S(hbond)    S(metal)    S(lipo)     H(rot)  DE(clash)    DE(int)     intcor
     19.06     -19.61       1.60        0.00     112.37       1.71       0.27       0.28       ----

> <Gold.Chemscore.Fitness>
19.0587

> <Gold.Chemscore.DG>
-19.6072

> <Gold.Chemscore.ZeroCoef>
-5.4800

> <Gold.Chemscore.Hbond>
1.6014

> <Gold.Chemscore.Metal>
0.0000

> <Gold.Chemscore.Lipo>
112.3719

> <Gold.Chemscore.Internal_Hbond>
0.0000

> <Gold.Chemscore.DEClash>
0.2670

> <Gold.Chemscore.DEInternal>
0.2816

> <Gold.Chemscore.Rot>
1.7066

> <Gold.Chemscore.Internal.Correction>
   9.000000E+99

> <Gold.Chemscore.Hbonds>
donor molecule, donor type, donor heavy atom, donor atom, acceptor molecule, acceptor atom, score
      L1  H     3    29       P1 10171  0.83
      L1  H     7    32       P1  7957  0.46

> <Gold.Chemscore.Hbond.Weighted>
-5.3487

> <Gold.Chemscore.Metal.Weighted>
-0.0000

> <Gold.Chemscore.Lipo.Weighted>
-13.1475

> <Gold.Chemscore.Internal_Hbond.Weighted>
0.0000

> <Gold.Chemscore.DEClash.Weighted>
0.2670

> <Gold.Chemscore.DEInternal.Weighted>
0.2816

> <Gold.Chemscore.Rot.Weighted>
4.3690

> <Gold.Chemscore.Internal.Correction.Weighted>
   9.000000E+99

> <Gold.Protein.RotatedTorsions>
[ 6907 6896 6895 6894 ] final  -19.30 input  -60.11 | X-H torsion
[ 7974 7965 7964 7962 ] final    7.12 input  175.53 | X-H torsion
[ 8008 7997 7996 7995 ] final   25.60 input   59.86 | X-H torsion
[ 10167 10162 10161 10158 ] final  -74.08 input  -65.29 | X-H torsion
[ 10718 10713 10712 10709 ] final   -1.74 input   66.30 | X-H torsion
[ 10763 10752 10751 10750 ] final  -75.66 input  -60.55 | X-H torsion
[ 11005 11000 10999 10996 ] final -132.97 input  -57.11 | X-H torsion

> <Gold.Protein.ActiveResidues>
 VAL166  LYS551  ARG553  GLY616  TRP617  ASP618  TYR619  PRO620  LYS621  CYS622 
 ASP623  PHE694  ASN695  SER759  ASP760  ASP761  ALA762  ILE779  LEU786  VAL792 
 PHE793  MET794  SER795  GLU796  ALA797  LYS798  CYS799  TRP800  GLU811  SER814 

> <Gold.Protein.RotatedAtoms>
  151.2653  135.0667  159.9113 H   0  0  0  0  0  0  0  0  0  0  0  0  # atno 6907 bound_to 6896
  152.5359  134.0188  159.7982 H   0  0  0  0  0  0  0  0  0  0  0  0  # atno 6908 bound_to 6896
  151.0417  133.5650  159.2681 H   0  0  0  0  0  0  0  0  0  0  0  0  # atno 6909 bound_to 6896
  146.2429  140.0131  142.8405 H   0  0  0  0  0  0  0  0  0  0  0  0  # atno 7974 bound_to 7965
  155.0142  140.3140  155.4818 H   0  0  0  0  0  0  0  0  0  0  0  0  # atno 8008 bound_to 7997
  156.2904  140.2209  156.5199 H   0  0  0  0  0  0  0  0  0  0  0  0  # atno 8009 bound_to 7997
  154.7508  140.0466  157.0879 H   0  0  0  0  0  0  0  0  0  0  0  0  # atno 8010 bound_to 7997
  140.5057  143.2353  151.7677 H   0  0  0  0  0  0  0  0  0  0  0  0  # atno 10167 bound_to 10162
  156.8011  130.5393  149.5721 H   0  0  0  0  0  0  0  0  0  0  0  0  # atno 10718 bound_to 10713
  154.4895  135.5823  153.6449 H   0  0  0  0  0  0  0  0  0  0  0  0  # atno 10763 bound_to 10752
  152.9860  135.6109  154.3143 H   0  0  0  0  0  0  0  0  0  0  0  0  # atno 10764 bound_to 10752
  154.3041  135.2846  155.2576 H   0  0  0  0  0  0  0  0  0  0  0  0  # atno 10765 bound_to 10752
  140.9122  134.1553  157.4380 H   0  0  0  0  0  0  0  0  0  0  0  0  # atno 11005 bound_to 11000
  145.1309  140.9517  143.4545 LP  0  0  0  0  0  0  0  0  0  0  0  0  # atno 17320 bound_to 7965
  145.0389  139.3277  143.5987 LP  0  0  0  0  0  0  0  0  0  0  0  0  # atno 17321 bound_to 7965
  139.4883  144.4460  151.9709 LP  0  0  0  0  0  0  0  0  0  0  0  0  # atno 17342 bound_to 10162
  140.3551  144.3042  150.5942 LP  0  0  0  0  0  0  0  0  0  0  0  0  # atno 17343 bound_to 10162
  156.1100  130.6033  151.0033 LP  0  0  0  0  0  0  0  0  0  0  0  0  # atno 17370 bound_to 10713
  157.6553  131.0890  150.7961 LP  0  0  0  0  0  0  0  0  0  0  0  0  # atno 17371 bound_to 10713
  139.8759  134.9940  156.5672 LP  0  0  0  0  0  0  0  0  0  0  0  0  # atno 17394 bound_to 11000
  140.8095  133.8440  155.8797 LP  0  0  0  0  0  0  0  0  0  0  0  0  # atno 17395 bound_to 11000

$$$$
