AV-unprocessed.smi:645|AV-procd|sdf|3164|dock3
  -GOLD-   22720 0 83D 1   1.00000     0.00000
 Structure written by MMmdl.
 22 23  0  0  0  0  0  0  0  0  2 V2000
  150.5087  141.5068  156.3078 C   0  0  0  0  0  0  0  0  0  0  0  0
  151.2782  140.5634  157.2583 C   0  0  2  0  0  0  0  0  0  0  0  0
  151.9850  141.3410  158.3862 C   0  0  0  0  0  0  0  0  0  0  0  0
  152.7940  140.7016  159.3589 C   0  0  0  0  0  0  0  0  0  0  0  0
  153.4092  141.4804  160.3587 C   0  0  0  0  0  0  0  0  0  0  0  0
  153.2730  142.8196  160.4482 N   0  0  0  0  0  0  0  0  0  0  0  0
  152.5035  143.4317  159.5249 C   0  0  0  0  0  0  0  0  0  0  0  0
  151.8455  142.7460  158.4855 C   0  0  0  0  0  0  0  0  0  0  0  0
  152.1697  139.7264  156.4629 N   0  5  0  0  0  0  0  0  0  0  0  0
  151.8253  138.4285  156.6326 C   0  0  0  0  0  0  0  0  0  0  0  0
  152.3583  137.4378  156.1382 O   0  0  0  0  0  0  0  0  0  0  0  0
  150.7706  138.3241  157.4455 N   0  0  0  0  0  0  0  0  0  0  0  0
  150.3474  139.5148  157.8583 C   0  0  0  0  0  0  0  0  0  0  0  0
  149.3793  139.7447  158.5832 O   0  0  0  0  0  0  0  0  0  0  0  0
  149.7313  142.0689  156.8250 H   0  0  0  0  0  0  0  0  0  0  0  0
  150.0190  140.9554  155.5033 H   0  0  0  0  0  0  0  0  0  0  0  0
  151.1820  142.2289  155.8447 H   0  0  0  0  0  0  0  0  0  0  0  0
  152.9513  139.6335  159.3555 H   0  0  0  0  0  0  0  0  0  0  0  0
  154.0291  141.0127  161.1093 H   0  0  0  0  0  0  0  0  0  0  0  0
  152.4068  144.5033  159.6176 H   0  0  0  0  0  0  0  0  0  0  0  0
  151.2379  143.2968  157.7833 H   0  0  0  0  0  0  0  0  0  0  0  0
  150.3380  137.4491  157.7006 H   0  0  0  0  0  0  0  0  0  0  0  0
  1  2  1  0  0  0  0
  1 15  1  0  0  0  0
  1 16  1  0  0  0  0
  1 17  1  0  0  0  0
  2 13  1  0  0  0  0
  2  3  1  0  0  0  0
  2  9  1  0  0  0  0
  3  8  1  0  0  0  0
  3  4  2  0  0  0  0
  4  5  1  0  0  0  0
  4 18  1  0  0  0  0
  5  6  2  0  0  0  0
  5 19  1  0  0  0  0
  6  7  1  0  0  0  0
  7  8  2  0  0  0  0
  7 20  1  0  0  0  0
  8 21  1  0  0  0  0
  9 10  1  0  0  0  0
 10 11  2  0  0  0  0
 10 12  1  0  0  0  0
 12 13  1  0  0  0  0
 12 22  1  0  0  0  0
 13 14  2  0  0  0  0
M  CHG  1   9  -1
M  END
> <s_m_source_file>
AV-unprocessed.smi

> <i_m_source_file_index>
645

> <i_lp_mmshare_version>
43012

> <i_f3d_flags>
0

> <s_epik_input>
Tz1DMVtOSF1DKD1PKVtOSF1bQ0BAXTEoW0NIM10pYzJbY0hdW2NIXW5bY0hdW2NIXTI=

> <s_epik_cmdline>
J2VwaWtfcHl0aG9uJywgJy1waCcsICc3LjAnLCAnLXRuJywgJzgnLCAnLW1hJywgJzIwMCcsICctbWV0YWxfYmluZGluZycsICctaW1hZScsICc8aW5maWxlLm1hZT4nLCAnLW9tYWUnLCAnPG91dGZpbGUubWFlPic=

> <r_lp_tautomer_probability>
1

> <r_epik_Ionization_Penalty>
4.86801

> <r_epik_Ionization_Penalty_Charging>
4.8337

> <r_epik_Ionization_Penalty_Neutral>
0.0343087

> <r_epik_State_Penalty>
4.85653

> <r_epik_Charging_Adjusted_Penalty>
9.69023

> <i_epik_Tot_Q>
-1

> <i_epik_Tot_abs_Q>
1

> <r_epik_Metal_State_Penalty>
1.32058

> <b_epik_Metal_Only>
1

> <s_lp_Force_Field>
OPLS_2005

> <r_lp_Energy>
14.3198

> <b_lp_Chiralities_Consistent>
1

> <s_lp_Variant>
AV-unprocessed.smi:645-6

> <Gold.Version>
5.8.1

> <Gold.Id.Protein>
6NUR|6NUR_protein|mol2

> <Gold.PLP.Fitness>
31.0200

> <Gold.PLP.PLP>
-23.8965

> <Gold.PLP.part.hbond>
-2.0000

> <Gold.PLP.part.metal>
0.0000

> <Gold.PLP.part.buried>
-4.1642

> <Gold.PLP.part.nonpolar>
-17.9953

> <Gold.PLP.part.repulsive>
0.0186

> <Gold.PLP.ligand.clash>
0.0000

> <Gold.PLP.ligand.torsion>
0.0411

> <Gold.PLP.Chemscore.Hbond>
2.3838

> <Gold.PLP.Chemscore.CHOScore>
0.0000

> <Gold.PLP.Chemscore.Metal>
0.0000

> <Gold.Chemscore.Hbonds>
donor molecule, donor type, donor heavy atom, donor atom, acceptor molecule, acceptor atom, score
      P1  H  7997  8009       L1     9  1.14

> <Gold.PLP.Chemscore.Internal.Correction>
0.0544

> <Gold.Rescore>
     Score         DG    S(hbond)    S(metal)    S(lipo)     H(rot)  DE(clash)    DE(int)     intcor
     15.17     -15.32       1.67        0.00      58.42       1.00       0.00       0.15       ----

> <Gold.Chemscore.Fitness>
15.1750

> <Gold.Chemscore.DG>
-15.3248

> <Gold.Chemscore.ZeroCoef>
-5.4800

> <Gold.Chemscore.Hbond>
1.6676

> <Gold.Chemscore.Metal>
0.0000

> <Gold.Chemscore.Lipo>
58.4197

> <Gold.Chemscore.Internal_Hbond>
0.0000

> <Gold.Chemscore.DEClash>
0.0004

> <Gold.Chemscore.DEInternal>
0.1494

> <Gold.Chemscore.Rot>
1.0000

> <Gold.Chemscore.Internal.Correction>
   9.000000E+99

> <Gold.Chemscore.Hbonds>
donor molecule, donor type, donor heavy atom, donor atom, acceptor molecule, acceptor atom, score
      P1  H  7997  8009       L1     9  0.53
      P1  H 10752 10765       L1    11  0.03

> <Gold.Chemscore.Hbond.Weighted>
-5.5697

> <Gold.Chemscore.Metal.Weighted>
-0.0000

> <Gold.Chemscore.Lipo.Weighted>
-6.8351

> <Gold.Chemscore.Internal_Hbond.Weighted>
0.0000

> <Gold.Chemscore.DEClash.Weighted>
0.0004

> <Gold.Chemscore.DEInternal.Weighted>
0.1494

> <Gold.Chemscore.Rot.Weighted>
2.5600

> <Gold.Chemscore.Internal.Correction.Weighted>
   9.000000E+99

> <Gold.Protein.RotatedTorsions>
[ 6907 6896 6895 6894 ] final  -30.51 input  -60.11 | X-H torsion
[ 7974 7965 7964 7962 ] final  -47.67 input  175.53 | X-H torsion
[ 8008 7997 7996 7995 ] final -163.32 input   59.86 | X-H torsion
[ 10167 10162 10161 10158 ] final -176.59 input  -65.29 | X-H torsion
[ 10718 10713 10712 10709 ] final  -72.95 input   66.30 | X-H torsion
[ 10763 10752 10751 10750 ] final -126.31 input  -60.55 | X-H torsion
[ 11005 11000 10999 10996 ] final  -13.66 input  -57.11 | X-H torsion

> <Gold.Protein.ActiveResidues>
 VAL166  LYS551  ARG553  GLY616  TRP617  ASP618  TYR619  PRO620  LYS621  CYS622 
 ASP623  PHE694  ASN695  SER759  ASP760  ASP761  ALA762  ILE779  LEU786  VAL792 
 PHE793  MET794  SER795  GLU796  ALA797  LYS798  CYS799  TRP800  GLU811  SER814 

> <Gold.Protein.RotatedAtoms>
  151.1046  134.9992  159.8464 H   0  0  0  0  0  0  0  0  0  0  0  0  # atno 6907 bound_to 6896
  152.5439  134.1909  159.8683 H   0  0  0  0  0  0  0  0  0  0  0  0  # atno 6908 bound_to 6896
  151.1955  133.4597  159.2628 H   0  0  0  0  0  0  0  0  0  0  0  0  # atno 6909 bound_to 6896
  145.9592  140.7496  142.9466 H   0  0  0  0  0  0  0  0  0  0  0  0  # atno 7974 bound_to 7965
  155.8196  140.0917  157.1857 H   0  0  0  0  0  0  0  0  0  0  0  0  # atno 8008 bound_to 7997
  154.3979  140.1439  156.3543 H   0  0  0  0  0  0  0  0  0  0  0  0  # atno 8009 bound_to 7997
  155.8280  140.3444  155.5557 H   0  0  0  0  0  0  0  0  0  0  0  0  # atno 8010 bound_to 7997
  139.5522  144.2080  152.1097 H   0  0  0  0  0  0  0  0  0  0  0  0  # atno 10167 bound_to 10162
  156.0299  130.4383  150.2670 H   0  0  0  0  0  0  0  0  0  0  0  0  # atno 10718 bound_to 10713
  154.8744  135.4000  154.3410 H   0  0  0  0  0  0  0  0  0  0  0  0  # atno 10763 bound_to 10752
  153.4209  135.7023  153.6300 H   0  0  0  0  0  0  0  0  0  0  0  0  # atno 10764 bound_to 10752
  153.4962  135.3737  155.2487 H   0  0  0  0  0  0  0  0  0  0  0  0  # atno 10765 bound_to 10752
  140.7784  133.8383  155.9269 H   0  0  0  0  0  0  0  0  0  0  0  0  # atno 11005 bound_to 11000
  144.6811  140.2563  143.7325 LP  0  0  0  0  0  0  0  0  0  0  0  0  # atno 17320 bound_to 7965
  145.8063  139.1985  143.2019 LP  0  0  0  0  0  0  0  0  0  0  0  0  # atno 17321 bound_to 7965
  140.1578  144.5054  150.6650 LP  0  0  0  0  0  0  0  0  0  0  0  0  # atno 17342 bound_to 10162
  140.6787  143.2317  151.5440 LP  0  0  0  0  0  0  0  0  0  0  0  0  # atno 17343 bound_to 10162
  157.0772  131.0133  151.3169 LP  0  0  0  0  0  0  0  0  0  0  0  0  # atno 17370 bound_to 10713
  157.4954  130.7847  149.7550 LP  0  0  0  0  0  0  0  0  0  0  0  0  # atno 17371 bound_to 10713
  140.9507  134.1783  157.4730 LP  0  0  0  0  0  0  0  0  0  0  0  0  # atno 17394 bound_to 11000
  139.8746  134.9908  156.5518 LP  0  0  0  0  0  0  0  0  0  0  0  0  # atno 17395 bound_to 11000

$$$$
