AV-unprocessed.smi:1762|AV-procd|sdf|7108|dock3
  -GOLD-   22720 8333D 1   1.00000     0.00000
 Structure written by MMmdl.
 53 54  0  0  0  0  0  0  0  0  2 V2000
  151.7377  141.9822  157.7303 C   0  0  0  0  0  0  0  0  0  0  0  0
  151.2661  140.7242  156.9921 C   0  0  1  0  0  0  0  0  0  0  0  0
  150.1164  141.0172  156.0085 C   0  0  0  0  0  0  0  0  0  0  0  0
  149.7062  139.8326  155.2444 N   0  0  0  0  0  0  0  0  0  0  0  0
  148.5714  140.1013  154.3168 C   0  0  1  0  0  0  0  0  0  0  0  0
  147.5380  138.9508  154.2714 C   0  0  0  0  0  0  0  0  0  0  0  0
  147.3114  138.2767  155.2770 O   0  0  0  0  0  0  0  0  0  0  0  0
  146.9413  138.7199  153.0911 N   0  0  0  0  0  0  0  0  0  0  0  0
  145.9638  137.6665  152.8463 C   0  0  0  0  0  0  0  0  0  0  0  0
  145.9407  137.2518  151.3654 C   0  0  0  0  0  0  0  0  0  0  0  0
  145.6727  135.7701  151.1887 C   0  0  0  0  0  0  0  0  0  0  0  0
  144.4864  135.2894  150.5928 C   0  0  0  0  0  0  0  0  0  0  0  0
  144.3007  133.8982  150.4518 C   0  0  0  0  0  0  0  0  0  0  0  0
  145.3044  133.0185  150.9074 C   0  0  0  0  0  0  0  0  0  0  0  0
  146.4704  133.5528  151.4928 C   0  0  0  0  0  0  0  0  0  0  0  0
  146.6111  134.8917  151.6107 N   0  3  0  0  0  0  0  0  0  0  0  0
  147.8567  141.4785  154.5269 C   0  0  0  0  0  0  0  0  0  0  0  0
  147.1768  141.6261  155.9024 C   0  0  0  0  0  0  0  0  0  0  0  0
  146.8672  141.8354  153.3993 C   0  0  0  0  0  0  0  0  0  0  0  0
  150.8994  139.2621  154.5949 C   0  0  0  0  0  0  0  0  0  0  0  0
  152.0448  138.9860  155.5878 C   0  0  1  0  0  0  0  0  0  0  0  0
  153.3102  138.4755  154.8897 C   0  0  0  0  0  0  0  0  0  0  0  0
  152.3697  140.1884  156.2735 O   0  0  0  0  0  0  0  0  0  0  0  0
  150.9277  142.4226  158.3121 H   0  0  0  0  0  0  0  0  0  0  0  0
  152.0988  142.7382  157.0325 H   0  0  0  0  0  0  0  0  0  0  0  0
  152.5507  141.7481  158.4180 H   0  0  0  0  0  0  0  0  0  0  0  0
  150.9355  139.9919  157.7307 H   0  0  0  0  0  0  0  0  0  0  0  0
  149.2878  141.4011  156.5998 H   0  0  0  0  0  0  0  0  0  0  0  0
  150.4129  141.8149  155.3251 H   0  0  0  0  0  0  0  0  0  0  0  0
  148.9991  140.1463  153.3128 H   0  0  0  0  0  0  0  0  0  0  0  0
  147.1833  139.3150  152.3118 H   0  0  0  0  0  0  0  0  0  0  0  0
  146.1807  136.8055  153.4811 H   0  0  0  0  0  0  0  0  0  0  0  0
  144.9833  138.0353  153.1480 H   0  0  0  0  0  0  0  0  0  0  0  0
  145.1781  137.8184  150.8294 H   0  0  0  0  0  0  0  0  0  0  0  0
  146.8919  137.4939  150.8895 H   0  0  0  0  0  0  0  0  0  0  0  0
  143.7278  135.9763  150.2463 H   0  0  0  0  0  0  0  0  0  0  0  0
  143.3998  133.5104  149.9989 H   0  0  0  0  0  0  0  0  0  0  0  0
  145.1818  131.9498  150.8084 H   0  0  0  0  0  0  0  0  0  0  0  0
  147.2885  132.9545  151.8671 H   0  0  0  0  0  0  0  0  0  0  0  0
  148.6138  142.2581  154.4631 H   0  0  0  0  0  0  0  0  0  0  0  0
  146.3300  140.9494  156.0137 H   0  0  0  0  0  0  0  0  0  0  0  0
  146.8007  142.6400  156.0410 H   0  0  0  0  0  0  0  0  0  0  0  0
  147.8721  141.4266  156.7178 H   0  0  0  0  0  0  0  0  0  0  0  0
  145.9829  141.1974  153.4111 H   0  0  0  0  0  0  0  0  0  0  0  0
  147.3363  141.7412  152.4195 H   0  0  0  0  0  0  0  0  0  0  0  0
  146.5227  142.8651  153.4975 H   0  0  0  0  0  0  0  0  0  0  0  0
  150.6726  138.3140  154.1089 H   0  0  0  0  0  0  0  0  0  0  0  0
  151.2492  139.9380  153.8124 H   0  0  0  0  0  0  0  0  0  0  0  0
  151.7235  138.2385  156.3152 H   0  0  0  0  0  0  0  0  0  0  0  0
  153.1171  137.5429  154.3593 H   0  0  0  0  0  0  0  0  0  0  0  0
  154.1045  138.2877  155.6125 H   0  0  0  0  0  0  0  0  0  0  0  0
  153.6828  139.2017  154.1668 H   0  0  0  0  0  0  0  0  0  0  0  0
  147.4633  135.2561  152.0371 H   0  0  0  0  0  0  0  0  0  0  0  0
  1  2  1  0  0  0  0
  1 24  1  0  0  0  0
  1 25  1  0  0  0  0
  1 26  1  0  0  0  0
  2 23  1  0  0  0  0
  2  3  1  0  0  0  0
  2 27  1  0  0  0  0
  3  4  1  0  0  0  0
  3 28  1  0  0  0  0
  3 29  1  0  0  0  0
  4  5  1  0  0  0  0
  4 20  1  0  0  0  0
  5  6  1  0  0  0  0
  5 17  1  0  0  0  0
  5 30  1  0  0  0  0
  6  7  2  0  0  0  0
  6  8  1  0  0  0  0
  8  9  1  0  0  0  0
  8 31  1  0  0  0  0
  9 10  1  0  0  0  0
  9 32  1  0  0  0  0
  9 33  1  0  0  0  0
 10 11  1  0  0  0  0
 10 34  1  0  0  0  0
 10 35  1  0  0  0  0
 11 16  1  0  0  0  0
 11 12  2  0  0  0  0
 12 13  1  0  0  0  0
 12 36  1  0  0  0  0
 13 14  2  0  0  0  0
 13 37  1  0  0  0  0
 14 15  1  0  0  0  0
 14 38  1  0  0  0  0
 15 16  2  0  0  0  0
 15 39  1  0  0  0  0
 16 53  1  0  0  0  0
 17 18  1  0  0  0  0
 17 19  1  0  0  0  0
 17 40  1  0  0  0  0
 18 41  1  0  0  0  0
 18 42  1  0  0  0  0
 18 43  1  0  0  0  0
 19 44  1  0  0  0  0
 19 45  1  0  0  0  0
 19 46  1  0  0  0  0
 20 21  1  0  0  0  0
 20 47  1  0  0  0  0
 20 48  1  0  0  0  0
 21 22  1  0  0  0  0
 21 23  1  0  0  0  0
 21 49  1  0  0  0  0
 22 50  1  0  0  0  0
 22 51  1  0  0  0  0
 22 52  1  0  0  0  0
M  CHG  1  16   1
M  END
> <s_m_source_file>
AV-unprocessed.smi

> <i_m_source_file_index>
1762

> <i_lp_mmshare_version>
43012

> <i_f3d_flags>
0

> <s_epik_input>
W0NIM11bQ0BASF0xW0NIMl1OKFtDSDJdW0NASF0oTzEpW0NIM10pW0NAQEhdKFtDSF0oW0NIM10pW0NIM10pQyg9TylbTkhdW0NIMl1bQ0gyXWMyW2NIXVtjSF1bY0hdW2NIXW4y

> <s_epik_cmdline>
J2VwaWtfcHl0aG9uJywgJy1waCcsICc3LjAnLCAnLXRuJywgJzgnLCAnLW1hJywgJzIwMCcsICctbWV0YWxfYmluZGluZycsICctaW1hZScsICc8aW5maWxlLm1hZT4nLCAnLW9tYWUnLCAnPG91dGZpbGUubWFlPic=

> <r_epik_Ionization_Penalty>
1.86475

> <r_epik_Ionization_Penalty_Charging>
1.85347

> <r_epik_Ionization_Penalty_Neutral>
0.0112771

> <r_epik_State_Penalty>
1.99714

> <r_epik_Charging_Adjusted_Penalty>
3.85061

> <i_epik_Tot_Q>
1

> <i_epik_Tot_abs_Q>
1

> <r_epik_Metal_State_Penalty>
2.02271

> <b_epik_Metal_Only>
0

> <s_lp_Force_Field>
OPLS_2005

> <r_lp_Energy>
32.1869

> <b_lp_Chiralities_Consistent>
1

> <s_lp_Variant>
AV-unprocessed.smi:1762-10

> <Gold.Version>
5.8.1

> <Gold.Id.Protein>
6NUR|6NUR_protein|mol2

> <Gold.PLP.Fitness>
43.7141

> <Gold.PLP.PLP>
-39.3381

> <Gold.PLP.part.hbond>
-2.0000

> <Gold.PLP.part.metal>
0.0000

> <Gold.PLP.part.buried>
-1.5705

> <Gold.PLP.part.nonpolar>
-36.8138

> <Gold.PLP.part.repulsive>
0.1897

> <Gold.PLP.ligand.clash>
0.3184

> <Gold.PLP.ligand.torsion>
2.3659

> <Gold.PLP.Chemscore.Hbond>
3.0000

> <Gold.PLP.Chemscore.CHOScore>
0.0000

> <Gold.PLP.Chemscore.Metal>
0.0000

> <Gold.Chemscore.Hbonds>
donor molecule, donor type, donor heavy atom, donor atom, acceptor molecule, acceptor atom, score
      L1  H    16    53       P1  7948  1.89
      P1  H  7997  8010       L1    23  1.00

> <Gold.PLP.Chemscore.Internal.Correction>
0.4263

> <Gold.Rescore>
     Score         DG    S(hbond)    S(metal)    S(lipo)     H(rot)  DE(clash)    DE(int)     intcor
     16.49     -19.85       1.84        0.00     107.81       1.72       0.83       2.54       ----

> <Gold.Chemscore.Fitness>
16.4863

> <Gold.Chemscore.DG>
-19.8545

> <Gold.Chemscore.ZeroCoef>
-5.4800

> <Gold.Chemscore.Hbond>
1.8435

> <Gold.Chemscore.Metal>
0.0000

> <Gold.Chemscore.Lipo>
107.8087

> <Gold.Chemscore.Internal_Hbond>
0.0000

> <Gold.Chemscore.DEClash>
0.8261

> <Gold.Chemscore.DEInternal>
2.5420

> <Gold.Chemscore.Rot>
1.7174

> <Gold.Chemscore.Internal.Correction>
   9.000000E+99

> <Gold.Chemscore.Hbonds>
donor molecule, donor type, donor heavy atom, donor atom, acceptor molecule, acceptor atom, score
      L1  H    16    53       P1  7948  0.90
      P1  H  7997  8010       L1    23  0.47

> <Gold.Chemscore.Hbond.Weighted>
-6.1574

> <Gold.Chemscore.Metal.Weighted>
-0.0000

> <Gold.Chemscore.Lipo.Weighted>
-12.6136

> <Gold.Chemscore.Internal_Hbond.Weighted>
0.0000

> <Gold.Chemscore.DEClash.Weighted>
0.8261

> <Gold.Chemscore.DEInternal.Weighted>
2.5420

> <Gold.Chemscore.Rot.Weighted>
4.3966

> <Gold.Chemscore.Internal.Correction.Weighted>
   9.000000E+99

> <Gold.Protein.RotatedTorsions>
[ 6907 6896 6895 6894 ] final -145.35 input  -60.11 | X-H torsion
[ 7974 7965 7964 7962 ] final  104.24 input  175.53 | X-H torsion
[ 8008 7997 7996 7995 ] final   67.16 input   59.86 | X-H torsion
[ 10167 10162 10161 10158 ] final  118.71 input  -65.29 | X-H torsion
[ 10718 10713 10712 10709 ] final  178.91 input   66.30 | X-H torsion
[ 10763 10752 10751 10750 ] final  133.92 input  -60.55 | X-H torsion
[ 11005 11000 10999 10996 ] final -163.29 input  -57.11 | X-H torsion

> <Gold.Protein.ActiveResidues>
 VAL166  LYS551  ARG553  GLY616  TRP617  ASP618  TYR619  PRO620  LYS621  CYS622 
 ASP623  PHE694  ASN695  SER759  ASP760  ASP761  ALA762  ILE779  LEU786  VAL792 
 PHE793  MET794  SER795  GLU796  ALA797  LYS798  CYS799  TRP800  GLU811  SER814 

> <Gold.Protein.RotatedAtoms>
  151.1266  133.5066  159.2600 H   0  0  0  0  0  0  0  0  0  0  0  0  # atno 6907 bound_to 6896
  151.1803  135.0357  159.8799 H   0  0  0  0  0  0  0  0  0  0  0  0  # atno 6908 bound_to 6896
  152.5458  134.1119  159.8415 H   0  0  0  0  0  0  0  0  0  0  0  0  # atno 6909 bound_to 6896
  145.3354  139.2476  143.3638 H   0  0  0  0  0  0  0  0  0  0  0  0  # atno 7974 bound_to 7965
  155.6886  140.3496  155.4884 H   0  0  0  0  0  0  0  0  0  0  0  0  # atno 8008 bound_to 7997
  155.9544  140.1125  157.0972 H   0  0  0  0  0  0  0  0  0  0  0  0  # atno 8009 bound_to 7997
  154.4129  140.1188  156.5081 H   0  0  0  0  0  0  0  0  0  0  0  0  # atno 8010 bound_to 7997
  139.6093  144.7078  151.2880 H   0  0  0  0  0  0  0  0  0  0  0  0  # atno 10167 bound_to 10162
  156.8836  130.9824  151.3059 H   0  0  0  0  0  0  0  0  0  0  0  0  # atno 10718 bound_to 10713
  153.8151  135.3123  155.3405 H   0  0  0  0  0  0  0  0  0  0  0  0  # atno 10763 bound_to 10752
  154.8035  135.4712  154.0338 H   0  0  0  0  0  0  0  0  0  0  0  0  # atno 10764 bound_to 10752
  153.1729  135.6881  153.8672 H   0  0  0  0  0  0  0  0  0  0  0  0  # atno 10765 bound_to 10752
  140.5997  134.4959  157.5203 H   0  0  0  0  0  0  0  0  0  0  0  0  # atno 11005 bound_to 11000
  146.3029  140.3940  142.8697 LP  0  0  0  0  0  0  0  0  0  0  0  0  # atno 17320 bound_to 7965
  144.8832  140.7427  143.5973 LP  0  0  0  0  0  0  0  0  0  0  0  0  # atno 17321 bound_to 7965
  140.7308  143.6870  150.7953 LP  0  0  0  0  0  0  0  0  0  0  0  0  # atno 17342 bound_to 10162
  140.0462  143.5296  152.2695 LP  0  0  0  0  0  0  0  0  0  0  0  0  # atno 17343 bound_to 10162
  157.6126  130.8594  149.8976 LP  0  0  0  0  0  0  0  0  0  0  0  0  # atno 17370 bound_to 10713
  156.0665  130.3691  150.0868 LP  0  0  0  0  0  0  0  0  0  0  0  0  # atno 17371 bound_to 10713
  139.9238  134.8097  156.1131 LP  0  0  0  0  0  0  0  0  0  0  0  0  # atno 17394 bound_to 11000
  141.0880  133.6726  156.2478 LP  0  0  0  0  0  0  0  0  0  0  0  0  # atno 17395 bound_to 11000

$$$$
