AV-unprocessed.smi:51|AV-procd|sdf|501|dock1
  -GOLD-   2262016373D 1   1.00000     0.00000
 Structure written by MMmdl.
 25 26  0  0  0  0  0  0  0  0  2 V2000
  152.1592  137.0868  155.1326 O   0  0  0  0  0  0  0  0  0  0  0  0
  152.2731  138.2785  155.4930 C   0  0  0  0  0  0  0  0  0  0  0  0
  153.3550  138.8850  155.6616 O   0  5  0  0  0  0  0  0  0  0  0  0
  150.9708  139.0552  155.7386 C   0  0  2  0  0  0  0  0  0  0  0  0
  150.1569  139.2358  154.4458 C   0  0  0  0  0  0  0  0  0  0  0  0
  149.4444  140.5692  154.6662 C   0  0  2  0  0  0  0  0  0  0  0  0
  149.0709  141.1927  153.4557 O   0  0  0  0  0  0  0  0  0  0  0  0
  150.4609  141.3931  155.4587 C   0  0  0  0  0  0  0  0  0  0  0  0
  151.2150  140.4131  156.2276 N   0  0  0  0  0  0  0  0  0  0  0  0
  151.6311  140.6909  157.5455 C   0  0  0  0  0  0  0  0  0  0  0  0
  151.4781  141.9831  158.1024 C   0  0  0  0  0  0  0  0  0  0  0  0
  151.9271  142.1632  159.4260 C   0  0  0  0  0  0  0  0  0  0  0  0
  152.4760  141.1557  160.1364 N   0  0  0  0  0  0  0  0  0  0  0  0
  152.5765  139.9768  159.5187 C   0  0  0  0  0  0  0  0  0  0  0  0
  152.1854  139.6925  158.2751 N   0  0  0  0  0  0  0  0  0  0  0  0
  150.3605  138.5258  156.4719 H   0  0  0  0  0  0  0  0  0  0  0  0
  150.8131  139.3071  153.5758 H   0  0  0  0  0  0  0  0  0  0  0  0
  149.4616  138.4143  154.2712 H   0  0  0  0  0  0  0  0  0  0  0  0
  148.5548  140.4053  155.2762 H   0  0  0  0  0  0  0  0  0  0  0  0
  148.9254  140.5196  152.8083 H   0  0  0  0  0  0  0  0  0  0  0  0
  151.1544  141.9147  154.7977 H   0  0  0  0  0  0  0  0  0  0  0  0
  149.9566  142.1337  156.0805 H   0  0  0  0  0  0  0  0  0  0  0  0
  151.0517  142.8050  157.5469 H   0  0  0  0  0  0  0  0  0  0  0  0
  151.8464  143.1221  159.9159 H   0  0  0  0  0  0  0  0  0  0  0  0
  153.0155  139.1691  160.0852 H   0  0  0  0  0  0  0  0  0  0  0  0
  1  2  2  0  0  0  0
  2  3  1  0  0  0  0
  2  4  1  0  0  0  0
  4  9  1  0  0  0  0
  4  5  1  0  0  0  0
  4 16  1  0  0  0  0
  5  6  1  0  0  0  0
  5 17  1  0  0  0  0
  5 18  1  0  0  0  0
  6  7  1  0  0  0  0
  6  8  1  0  0  0  0
  6 19  1  0  0  0  0
  7 20  1  0  0  0  0
  8  9  1  0  0  0  0
  8 21  1  0  0  0  0
  8 22  1  0  0  0  0
  9 10  1  0  0  0  0
 10 15  1  0  0  0  0
 10 11  2  0  0  0  0
 11 12  1  0  0  0  0
 11 23  1  0  0  0  0
 12 13  2  0  0  0  0
 12 24  1  0  0  0  0
 13 14  1  0  0  0  0
 14 15  2  0  0  0  0
 14 25  1  0  0  0  0
M  CHG  1   3  -1
M  END
> <s_m_source_file>
AV-unprocessed.smi

> <i_m_source_file_index>
51

> <i_lp_mmshare_version>
43012

> <i_f3d_flags>
0

> <s_epik_input>
Tz1DKFtPSF0pW0NAQEhdMVtDSDJdW0NAQEhdKFtPSF0pW0NIMl1OMWMyW2NIXVtjSF1uW2NIXW4y

> <s_epik_cmdline>
J2VwaWtfcHl0aG9uJywgJy1waCcsICc3LjAnLCAnLXRuJywgJzgnLCAnLW1hJywgJzIwMCcsICctbWV0YWxfYmluZGluZycsICctaW1hZScsICc8aW5maWxlLm1hZT4nLCAnLW9tYWUnLCAnPG91dGZpbGUubWFlPic=

> <r_lp_tautomer_probability>
1

> <r_epik_Ionization_Penalty>
0.225251

> <r_epik_Ionization_Penalty_Charging>
0.000248217

> <r_epik_Ionization_Penalty_Neutral>
0.225002

> <r_epik_State_Penalty>
0.21284

> <r_epik_Charging_Adjusted_Penalty>
0.213088

> <i_epik_Tot_Q>
-1

> <i_epik_Tot_abs_Q>
1

> <r_epik_Metal_State_Penalty>
0.154111

> <b_epik_Metal_Only>
0

> <s_lp_Force_Field>
OPLS_2005

> <r_lp_Energy>
15.7166

> <b_lp_Chiralities_Consistent>
1

> <s_lp_Variant>
AV-unprocessed.smi:51-3

> <Gold.Version>
5.8.1

> <Gold.Id.Protein>
6NUR|6NUR_protein|mol2

> <Gold.PLP.Fitness>
44.8188

> <Gold.PLP.PLP>
-28.3403

> <Gold.PLP.part.hbond>
-5.0000

> <Gold.PLP.part.metal>
0.0000

> <Gold.PLP.part.buried>
-4.1240

> <Gold.PLP.part.nonpolar>
-19.9611

> <Gold.PLP.part.repulsive>
0.0759

> <Gold.PLP.ligand.clash>
0.0000

> <Gold.PLP.ligand.torsion>
0.1336

> <Gold.PLP.Chemscore.Hbond>
5.5260

> <Gold.PLP.Chemscore.CHOScore>
0.0000

> <Gold.PLP.Chemscore.Metal>
0.0000

> <Gold.Chemscore.Hbonds>
donor molecule, donor type, donor heavy atom, donor atom, acceptor molecule, acceptor atom, score
      L1  H     7    20       P1  7957  0.75
      P1  H  7997  8009       L1     3  2.00
      P1  H  8011  8017       L1     7  0.85
      P1  H 10752 10765       L1     1  1.76

> <Gold.PLP.Chemscore.Internal.Correction>
0.1677

> <Gold.Rescore>
     Score         DG    S(hbond)    S(metal)    S(lipo)     H(rot)  DE(clash)    DE(int)     intcor
     15.54     -16.62       3.03        0.00      45.66       1.69       0.45       0.62       ----

> <Gold.Chemscore.Fitness>
15.5445

> <Gold.Chemscore.DG>
-16.6193

> <Gold.Chemscore.ZeroCoef>
-5.4800

> <Gold.Chemscore.Hbond>
3.0299

> <Gold.Chemscore.Metal>
0.0000

> <Gold.Chemscore.Lipo>
45.6639

> <Gold.Chemscore.Internal_Hbond>
0.0000

> <Gold.Chemscore.DEClash>
0.4509

> <Gold.Chemscore.DEInternal>
0.6239

> <Gold.Chemscore.Rot>
1.6887

> <Gold.Chemscore.Internal.Correction>
   9.000000E+99

> <Gold.Chemscore.Hbonds>
donor molecule, donor type, donor heavy atom, donor atom, acceptor molecule, acceptor atom, score
      L1  H     7    20       P1  7957  0.74
      P1  H  7997  8009       L1     3  0.96
      P1  H  8011  8017       L1     7  0.14
      P1  H 10752 10765       L1     1  0.87

> <Gold.Chemscore.Hbond.Weighted>
-10.1198

> <Gold.Chemscore.Metal.Weighted>
-0.0000

> <Gold.Chemscore.Lipo.Weighted>
-5.3427

> <Gold.Chemscore.Internal_Hbond.Weighted>
0.0000

> <Gold.Chemscore.DEClash.Weighted>
0.4509

> <Gold.Chemscore.DEInternal.Weighted>
0.6239

> <Gold.Chemscore.Rot.Weighted>
4.3232

> <Gold.Chemscore.Internal.Correction.Weighted>
   9.000000E+99

> <Gold.Protein.RotatedTorsions>
[ 6907 6896 6895 6894 ] final  -19.60 input  -60.11 | X-H torsion
[ 7974 7965 7964 7962 ] final  -68.78 input  175.53 | X-H torsion
[ 8008 7997 7996 7995 ] final -149.91 input   59.86 | X-H torsion
[ 10167 10162 10161 10158 ] final -160.47 input  -65.29 | X-H torsion
[ 10718 10713 10712 10709 ] final -164.80 input   66.30 | X-H torsion
[ 10763 10752 10751 10750 ] final -176.31 input  -60.55 | X-H torsion
[ 11005 11000 10999 10996 ] final  -75.15 input  -57.11 | X-H torsion

> <Gold.Protein.ActiveResidues>
 VAL166  LYS551  ARG553  GLY616  TRP617  ASP618  TYR619  PRO620  LYS621  CYS622 
 ASP623  PHE694  ASN695  SER759  ASP760  ASP761  ALA762  ILE779  LEU786  VAL792 
 PHE793  MET794  SER795  GLU796  ALA797  LYS798  CYS799  TRP800  GLU811  SER814 

> <Gold.Protein.RotatedAtoms>
  151.2607  135.0653  159.9096 H   0  0  0  0  0  0  0  0  0  0  0  0  # atno 6907 bound_to 6896
  152.5366  134.0234  159.8002 H   0  0  0  0  0  0  0  0  0  0  0  0  # atno 6908 bound_to 6896
  151.0456  133.5618  159.2678 H   0  0  0  0  0  0  0  0  0  0  0  0  # atno 6909 bound_to 6896
  145.7121  140.9074  143.0675 H   0  0  0  0  0  0  0  0  0  0  0  0  # atno 7974 bound_to 7965
  155.6151  140.0675  157.2694 H   0  0  0  0  0  0  0  0  0  0  0  0  # atno 8008 bound_to 7997
  154.4243  140.1794  156.1361 H   0  0  0  0  0  0  0  0  0  0  0  0  # atno 8009 bound_to 7997
  156.0054  140.3332  155.6890 H   0  0  0  0  0  0  0  0  0  0  0  0  # atno 8010 bound_to 7997
  139.6537  144.0037  152.2179 H   0  0  0  0  0  0  0  0  0  0  0  0  # atno 10167 bound_to 10162
  156.6443  130.8981  151.3002 H   0  0  0  0  0  0  0  0  0  0  0  0  # atno 10718 bound_to 10713
  154.5739  135.2830  155.0800 H   0  0  0  0  0  0  0  0  0  0  0  0  # atno 10763 bound_to 10752
  154.2163  135.6399  153.5134 H   0  0  0  0  0  0  0  0  0  0  0  0  # atno 10764 bound_to 10752
  153.0066  135.5503  154.6371 H   0  0  0  0  0  0  0  0  0  0  0  0  # atno 10765 bound_to 10752
  141.1642  133.6936  156.7473 H   0  0  0  0  0  0  0  0  0  0  0  0  # atno 11005 bound_to 11000
  144.6939  139.9089  143.7462 LP  0  0  0  0  0  0  0  0  0  0  0  0  # atno 17320 bound_to 7965
  146.0703  139.3692  143.0527 LP  0  0  0  0  0  0  0  0  0  0  0  0  # atno 17321 bound_to 7965
  139.9758  144.6462  150.7946 LP  0  0  0  0  0  0  0  0  0  0  0  0  # atno 17342 bound_to 10162
  140.7549  143.3036  151.3017 LP  0  0  0  0  0  0  0  0  0  0  0  0  # atno 17343 bound_to 10162
  157.7161  130.9499  150.1261 LP  0  0  0  0  0  0  0  0  0  0  0  0  # atno 17370 bound_to 10713
  156.2134  130.3668  149.8642 LP  0  0  0  0  0  0  0  0  0  0  0  0  # atno 17371 bound_to 10713
  140.2630  134.8452  157.3776 LP  0  0  0  0  0  0  0  0  0  0  0  0  # atno 17394 bound_to 11000
  140.1593  134.4749  155.7905 LP  0  0  0  0  0  0  0  0  0  0  0  0  # atno 17395 bound_to 11000

$$$$
