AV-unprocessed.smi:3290|AV-procd|sdf|12618|dock2
  -GOLD-   2272018553D 1   1.00000     0.00000
 Structure written by MMmdl.
 43 44  0  0  0  0  0  0  0  0  2 V2000
  153.0947  141.1931  159.1828 C   0  0  0  0  0  0  0  0  0  0  0  0
  152.2697  142.4226  159.6044 C   0  0  1  0  0  0  0  0  0  0  0  0
  152.8131  142.9728  160.9403 C   0  0  0  0  0  0  0  0  0  0  0  0
  151.9974  144.1699  161.4457 C   0  0  0  0  0  0  0  0  0  0  0  0
  151.9502  145.2801  160.3902 C   0  0  0  0  0  0  0  0  0  0  0  0
  151.4002  144.7460  159.0603 C   0  0  0  0  0  0  0  0  0  0  0  0
  152.2169  143.5473  158.5273 C   0  0  2  0  0  0  0  0  0  0  0  0
  151.6255  143.0853  157.1758 C   0  0  0  0  0  0  0  0  0  0  0  0
  150.1634  142.8910  157.2450 N   0  3  0  0  0  0  0  0  0  0  0  0
  149.7164  141.5289  156.8918 C   0  0  0  0  0  0  0  0  0  0  0  0
  150.0040  141.2076  155.4147 C   0  0  1  0  0  0  0  0  0  0  0  0
  151.1618  140.3976  155.3424 O   0  0  0  0  0  0  0  0  0  0  0  0
  148.8079  140.5404  154.7542 C   0  0  0  0  0  0  0  0  0  0  0  0
  147.5797  141.2243  154.6388 C   0  0  0  0  0  0  0  0  0  0  0  0
  146.4963  140.5654  154.0234 C   0  0  0  0  0  0  0  0  0  0  0  0
  146.5720  139.3076  153.5390 N   0  0  0  0  0  0  0  0  0  0  0  0
  147.7488  138.6562  153.6538 C   0  0  0  0  0  0  0  0  0  0  0  0
  148.8918  139.2238  154.2512 C   0  0  0  0  0  0  0  0  0  0  0  0
  154.1058  141.4744  158.8872 H   0  0  0  0  0  0  0  0  0  0  0  0
  152.6315  140.6599  158.3533 H   0  0  0  0  0  0  0  0  0  0  0  0
  153.1778  140.4786  160.0025 H   0  0  0  0  0  0  0  0  0  0  0  0
  151.2497  142.0792  159.7841 H   0  0  0  0  0  0  0  0  0  0  0  0
  152.8041  142.1895  161.6992 H   0  0  0  0  0  0  0  0  0  0  0  0
  153.8559  143.2702  160.8194 H   0  0  0  0  0  0  0  0  0  0  0  0
  150.9836  143.8486  161.6878 H   0  0  0  0  0  0  0  0  0  0  0  0
  152.4308  144.5528  162.3701 H   0  0  0  0  0  0  0  0  0  0  0  0
  151.3313  146.1046  160.7454 H   0  0  0  0  0  0  0  0  0  0  0  0
  152.9510  145.6867  160.2383 H   0  0  0  0  0  0  0  0  0  0  0  0
  150.3574  144.4528  159.1915 H   0  0  0  0  0  0  0  0  0  0  0  0
  151.4009  145.5545  158.3282 H   0  0  0  0  0  0  0  0  0  0  0  0
  153.2324  143.9065  158.3512 H   0  0  0  0  0  0  0  0  0  0  0  0
  151.8755  143.7990  156.3894 H   0  0  0  0  0  0  0  0  0  0  0  0
  152.0614  142.1298  156.8809 H   0  0  0  0  0  0  0  0  0  0  0  0
  149.8493  143.1064  158.1805 H   0  0  0  0  0  0  0  0  0  0  0  0
  150.2099  140.8031  157.5404 H   0  0  0  0  0  0  0  0  0  0  0  0
  148.6453  141.4543  157.0851 H   0  0  0  0  0  0  0  0  0  0  0  0
  150.2214  142.1335  154.8801 H   0  0  0  0  0  0  0  0  0  0  0  0
  151.0030  139.6040  155.8316 H   0  0  0  0  0  0  0  0  0  0  0  0
  147.4637  142.2316  155.0111 H   0  0  0  0  0  0  0  0  0  0  0  0
  145.5433  141.0623  153.9187 H   0  0  0  0  0  0  0  0  0  0  0  0
  147.7808  137.6515  153.2589 H   0  0  0  0  0  0  0  0  0  0  0  0
  149.8088  138.6570  154.3194 H   0  0  0  0  0  0  0  0  0  0  0  0
  149.7272  143.5372  156.6022 H   0  0  0  0  0  0  0  0  0  0  0  0
  1  2  1  0  0  0  0
  1 19  1  0  0  0  0
  1 20  1  0  0  0  0
  1 21  1  0  0  0  0
  2  7  1  0  0  0  0
  2  3  1  0  0  0  0
  2 22  1  0  0  0  0
  3  4  1  0  0  0  0
  3 23  1  0  0  0  0
  3 24  1  0  0  0  0
  4  5  1  0  0  0  0
  4 25  1  0  0  0  0
  4 26  1  0  0  0  0
  5  6  1  0  0  0  0
  5 27  1  0  0  0  0
  5 28  1  0  0  0  0
  6  7  1  0  0  0  0
  6 29  1  0  0  0  0
  6 30  1  0  0  0  0
  7  8  1  0  0  0  0
  7 31  1  0  0  0  0
  8  9  1  0  0  0  0
  8 32  1  0  0  0  0
  8 33  1  0  0  0  0
  9 10  1  0  0  0  0
  9 34  1  0  0  0  0
  9 43  1  0  0  0  0
 10 11  1  0  0  0  0
 10 35  1  0  0  0  0
 10 36  1  0  0  0  0
 11 12  1  0  0  0  0
 11 13  1  0  0  0  0
 11 37  1  0  0  0  0
 12 38  1  0  0  0  0
 13 18  1  0  0  0  0
 13 14  2  0  0  0  0
 14 15  1  0  0  0  0
 14 39  1  0  0  0  0
 15 16  2  0  0  0  0
 15 40  1  0  0  0  0
 16 17  1  0  0  0  0
 17 18  2  0  0  0  0
 17 41  1  0  0  0  0
 18 42  1  0  0  0  0
M  CHG  1   9   1
M  END
> <s_m_source_file>
AV-unprocessed.smi

> <i_m_source_file_index>
3290

> <i_lp_mmshare_version>
43012

> <i_f3d_flags>
0

> <s_epik_input>
W0NIM11bQ0BASF0xW0NIMl1bQ0gyXVtDSDJdW0NIMl1bQ0BIXTFbQ0gyXVtOSF1bQ0gyXVtDQEhdKFtPSF0pYzJbY0hdW2NIXW5bY0hdW2NIXTI=

> <s_epik_cmdline>
J2VwaWtfcHl0aG9uJywgJy1waCcsICc3LjAnLCAnLXRuJywgJzgnLCAnLW1hJywgJzIwMCcsICctbWV0YWxfYmluZGluZycsICctaW1hZScsICc8aW5maWxlLm1hZT4nLCAnLW9tYWUnLCAnPG91dGZpbGUubWFlPic=

> <r_lp_tautomer_probability>
1

> <r_epik_Ionization_Penalty>
0.00420552

> <r_epik_Ionization_Penalty_Charging>
0.00207255

> <r_epik_Ionization_Penalty_Neutral>
0.00213297

> <r_epik_State_Penalty>
-0

> <r_epik_Charging_Adjusted_Penalty>
0.00207255

> <i_epik_Tot_Q>
1

> <i_epik_Tot_abs_Q>
1

> <r_epik_Metal_State_Penalty>
-0

> <b_epik_Metal_Only>
0

> <s_lp_Force_Field>
OPLS_2005

> <r_lp_Energy>
17.3555

> <b_lp_Chiralities_Consistent>
1

> <s_lp_Variant>
AV-unprocessed.smi:3290-8

> <Gold.Version>
5.8.1

> <Gold.Id.Protein>
6NUR|6NUR_protein|mol2

> <Gold.PLP.Fitness>
53.8925

> <Gold.PLP.PLP>
-41.6016

> <Gold.PLP.part.hbond>
-2.0000

> <Gold.PLP.part.metal>
0.0000

> <Gold.PLP.part.buried>
-2.8068

> <Gold.PLP.part.nonpolar>
-37.4256

> <Gold.PLP.part.repulsive>
0.2194

> <Gold.PLP.ligand.clash>
0.0000

> <Gold.PLP.ligand.torsion>
1.0918

> <Gold.PLP.Chemscore.Hbond>
2.8816

> <Gold.PLP.Chemscore.CHOScore>
1.9177

> <Gold.PLP.Chemscore.Metal>
0.0000

> <Gold.Chemscore.Hbonds>
donor molecule, donor type, donor heavy atom, donor atom, acceptor molecule, acceptor atom, score
      L1  H     9    43       P1  8028  2.00
      P1  H  7989  7998       L1    12  0.78
      L1  C    15    40       P1 10175  0.99
      L1  C    17    41       P1  7948  1.00

> <Gold.PLP.Chemscore.Internal.Correction>
0.0766

> <Gold.Rescore>
     Score         DG    S(hbond)    S(metal)    S(lipo)     H(rot)  DE(clash)    DE(int)     intcor
     19.81     -20.96       1.79        0.00     126.13       2.05       0.10       1.05       ----

> <Gold.Chemscore.Fitness>
19.8129

> <Gold.Chemscore.DG>
-20.9610

> <Gold.Chemscore.ZeroCoef>
-5.4800

> <Gold.Chemscore.Hbond>
1.7878

> <Gold.Chemscore.Metal>
0.0000

> <Gold.Chemscore.Lipo>
126.1292

> <Gold.Chemscore.Internal_Hbond>
0.0000

> <Gold.Chemscore.DEClash>
0.0951

> <Gold.Chemscore.DEInternal>
1.0530

> <Gold.Chemscore.Rot>
2.0498

> <Gold.Chemscore.Internal.Correction>
   9.000000E+99

> <Gold.Chemscore.Hbonds>
donor molecule, donor type, donor heavy atom, donor atom, acceptor molecule, acceptor atom, score
      L1  H     9    43       P1  8028  1.00
      P1  H  7989  7998       L1    12  0.11

> <Gold.Chemscore.Hbond.Weighted>
-5.9714

> <Gold.Chemscore.Metal.Weighted>
-0.0000

> <Gold.Chemscore.Lipo.Weighted>
-14.7571

> <Gold.Chemscore.Internal_Hbond.Weighted>
0.0000

> <Gold.Chemscore.DEClash.Weighted>
0.0951

> <Gold.Chemscore.DEInternal.Weighted>
1.0530

> <Gold.Chemscore.Rot.Weighted>
5.2475

> <Gold.Chemscore.Internal.Correction.Weighted>
   9.000000E+99

> <Gold.Protein.RotatedTorsions>
[ 6907 6896 6895 6894 ] final -125.90 input  -60.11 | X-H torsion
[ 7974 7965 7964 7962 ] final   -5.48 input  175.53 | X-H torsion
[ 8008 7997 7996 7995 ] final -155.53 input   59.86 | X-H torsion
[ 10167 10162 10161 10158 ] final   15.81 input  -65.29 | X-H torsion
[ 10718 10713 10712 10709 ] final   17.19 input   66.30 | X-H torsion
[ 10763 10752 10751 10750 ] final  135.84 input  -60.55 | X-H torsion
[ 11005 11000 10999 10996 ] final   26.99 input  -57.11 | X-H torsion

> <Gold.Protein.ActiveResidues>
 VAL166  LYS551  ARG553  GLY616  TRP617  ASP618  TYR619  PRO620  LYS621  CYS622 
 ASP623  PHE694  ASN695  SER759  ASP760  ASP761  ALA762  ILE779  LEU786  VAL792 
 PHE793  MET794  SER795  GLU796  ALA797  LYS798  CYS799  TRP800  GLU811  SER814 

> <Gold.Protein.RotatedAtoms>
  150.8915  133.7237  159.2903 H   0  0  0  0  0  0  0  0  0  0  0  0  # atno 6907 bound_to 6896
  151.4786  135.1049  159.9781 H   0  0  0  0  0  0  0  0  0  0  0  0  # atno 6908 bound_to 6896
  152.4823  133.8237  159.7122 H   0  0  0  0  0  0  0  0  0  0  0  0  # atno 6909 bound_to 6896
  146.2352  140.2027  142.8334 H   0  0  0  0  0  0  0  0  0  0  0  0  # atno 7974 bound_to 7965
  155.7033  140.0769  157.2401 H   0  0  0  0  0  0  0  0  0  0  0  0  # atno 8008 bound_to 7997
  154.4069  140.1643  156.2268 H   0  0  0  0  0  0  0  0  0  0  0  0  # atno 8009 bound_to 7997
  155.9348  140.3388  155.6281 H   0  0  0  0  0  0  0  0  0  0  0  0  # atno 8010 bound_to 7997
  140.5841  143.8923  150.6815 H   0  0  0  0  0  0  0  0  0  0  0  0  # atno 10167 bound_to 10162
  157.0786  130.6378  149.5821 H   0  0  0  0  0  0  0  0  0  0  0  0  # atno 10718 bound_to 10713
  153.8467  135.3084  155.3430 H   0  0  0  0  0  0  0  0  0  0  0  0  # atno 10763 bound_to 10752
  154.7909  135.4783  154.0054 H   0  0  0  0  0  0  0  0  0  0  0  0  # atno 10764 bound_to 10752
  153.1543  135.6849  153.8928 H   0  0  0  0  0  0  0  0  0  0  0  0  # atno 10765 bound_to 10752
  140.3310  134.2437  155.7702 H   0  0  0  0  0  0  0  0  0  0  0  0  # atno 11005 bound_to 11000
  144.9769  140.8422  143.5421 LP  0  0  0  0  0  0  0  0  0  0  0  0  # atno 17320 bound_to 7965
  145.2015  139.2249  143.5190 LP  0  0  0  0  0  0  0  0  0  0  0  0  # atno 17321 bound_to 7965
  140.2430  143.3650  152.1471 LP  0  0  0  0  0  0  0  0  0  0  0  0  # atno 17342 bound_to 10162
  139.5187  144.7010  151.5494 LP  0  0  0  0  0  0  0  0  0  0  0  0  # atno 17343 bound_to 10162
  155.9930  130.4989  150.7362 LP  0  0  0  0  0  0  0  0  0  0  0  0  # atno 17370 bound_to 10713
  157.4818  131.0903  151.0527 LP  0  0  0  0  0  0  0  0  0  0  0  0  # atno 17371 bound_to 10713
  141.2063  133.7836  157.0183 LP  0  0  0  0  0  0  0  0  0  0  0  0  # atno 17394 bound_to 11000
  140.0860  134.9620  157.1701 LP  0  0  0  0  0  0  0  0  0  0  0  0  # atno 17395 bound_to 11000

$$$$
