AV-unprocessed.smi:726|AV-procd|sdf|3511|dock3
  -GOLD-   22720 0513D 1   1.00000     0.00000
 Structure written by MMmdl.
 24 24  0  0  0  0  0  0  0  0  2 V2000
  152.9326  139.5982  158.7716 C   0  0  0  0  0  0  0  0  0  0  0  0
  152.0562  140.4595  157.8690 C   0  0  0  0  0  0  0  0  0  0  0  0
  151.7994  141.7365  158.2071 C   0  0  0  0  0  0  0  0  0  0  0  0
  151.0087  142.5669  157.3372 C   0  0  0  0  0  0  0  0  0  0  0  0
  150.7298  143.8301  157.6822 O   0  0  0  0  0  0  0  0  0  0  0  0
  150.5637  142.0673  156.1723 C   0  0  0  0  0  0  0  0  0  0  0  0
  150.8462  140.6918  155.7574 C   0  0  0  0  0  0  0  0  0  0  0  0
  150.4640  140.2851  154.6604 O   0  0  0  0  0  0  0  0  0  0  0  0
  151.5504  139.9085  156.6463 N   0  0  0  0  0  0  0  0  0  0  0  0
  151.7440  138.4550  156.3525 C   0  0  1  0  0  0  0  0  0  0  0  0
  150.4760  137.5992  156.5995 C   0  0  0  0  0  0  0  0  0  0  0  0
  152.4280  138.2174  154.9937 C   0  0  0  0  0  0  0  0  0  0  0  0
  153.4685  138.8634  154.7397 O   0  0  0  0  0  0  0  0  0  0  0  0
  151.8940  137.3853  154.2276 O   0  5  0  0  0  0  0  0  0  0  0  0
  153.4045  140.2032  159.5466 H   0  0  0  0  0  0  0  0  0  0  0  0
  153.7390  139.1226  158.2137 H   0  0  0  0  0  0  0  0  0  0  0  0
  152.3386  138.8340  159.2738 H   0  0  0  0  0  0  0  0  0  0  0  0
  152.1975  142.1486  159.1231 H   0  0  0  0  0  0  0  0  0  0  0  0
  150.1030  144.1624  157.0581 H   0  0  0  0  0  0  0  0  0  0  0  0
  149.9757  142.6940  155.5170 H   0  0  0  0  0  0  0  0  0  0  0  0
  152.4339  138.0068  157.0602 H   0  0  0  0  0  0  0  0  0  0  0  0
  150.7184  136.5370  156.5540 H   0  0  0  0  0  0  0  0  0  0  0  0
  149.6848  137.7665  155.8701 H   0  0  0  0  0  0  0  0  0  0  0  0
  150.0639  137.7927  157.5901 H   0  0  0  0  0  0  0  0  0  0  0  0
  1  2  1  0  0  0  0
  1 15  1  0  0  0  0
  1 16  1  0  0  0  0
  1 17  1  0  0  0  0
  2  9  1  0  0  0  0
  2  3  2  0  0  0  0
  3  4  1  0  0  0  0
  3 18  1  0  0  0  0
  4  5  1  0  0  0  0
  4  6  2  0  0  0  0
  5 19  1  0  0  0  0
  6  7  1  0  0  0  0
  6 20  1  0  0  0  0
  7  8  2  0  0  0  0
  7  9  1  0  0  0  0
  9 10  1  0  0  0  0
 10 11  1  0  0  0  0
 10 12  1  0  0  0  0
 10 21  1  0  0  0  0
 11 22  1  0  0  0  0
 11 23  1  0  0  0  0
 11 24  1  0  0  0  0
 12 13  2  0  0  0  0
 12 14  1  0  0  0  0
M  CHG  1  14  -1
M  END
> <s_m_source_file>
AV-unprocessed.smi

> <i_m_source_file_index>
726

> <i_lp_mmshare_version>
43012

> <i_f3d_flags>
0

> <s_epik_input>
W0NIM11jMVtjSF1jKFtPSF0pW2NIXWMoPU8pbjFbQ0BIXShbQ0gzXSlDKD1PKVtPSF0=

> <s_epik_cmdline>
J2VwaWtfcHl0aG9uJywgJy1waCcsICc3LjAnLCAnLXRuJywgJzgnLCAnLW1hJywgJzIwMCcsICctbWV0YWxfYmluZGluZycsICctaW1hZScsICc8aW5maWxlLm1hZT4nLCAnLW9tYWUnLCAnPG91dGZpbGUubWFlPic=

> <r_lp_tautomer_probability>
0.999984

> <r_epik_Ionization_Penalty>
0.316948

> <r_epik_Ionization_Penalty_Charging>
0.000813874

> <r_epik_Ionization_Penalty_Neutral>
0.316134

> <r_epik_State_Penalty>
0.363429

> <r_epik_Charging_Adjusted_Penalty>
0.364242

> <i_epik_Tot_Q>
-1

> <i_epik_Tot_abs_Q>
1

> <r_epik_Metal_State_Penalty>
0.363429

> <b_epik_Metal_Only>
0

> <s_lp_Force_Field>
OPLS_2005

> <r_lp_Energy>
20.5014

> <b_lp_Chiralities_Consistent>
1

> <s_lp_Variant>
AV-unprocessed.smi:726-2

> <Gold.Version>
5.8.1

> <Gold.Id.Protein>
6NUR|6NUR_protein|mol2

> <Gold.PLP.Fitness>
42.2835

> <Gold.PLP.PLP>
-24.8383

> <Gold.PLP.part.hbond>
-4.0000

> <Gold.PLP.part.metal>
0.0000

> <Gold.PLP.part.buried>
-4.5847

> <Gold.PLP.part.nonpolar>
-17.8413

> <Gold.PLP.part.repulsive>
0.2653

> <Gold.PLP.ligand.clash>
0.0000

> <Gold.PLP.ligand.torsion>
0.3522

> <Gold.PLP.Chemscore.Hbond>
5.9520

> <Gold.PLP.Chemscore.CHOScore>
0.0000

> <Gold.PLP.Chemscore.Metal>
0.0000

> <Gold.Chemscore.Hbonds>
donor molecule, donor type, donor heavy atom, donor atom, acceptor molecule, acceptor atom, score
      L1  H     5    19       P1  8028  1.00
      P1  H  7989  7998       L1     8  1.00
      P1  H  7997  8008       L1    13  2.00
      P1  H 10752 10763       L1    14  1.95

> <Gold.PLP.Chemscore.Internal.Correction>
0.2936

> <Gold.Rescore>
     Score         DG    S(hbond)    S(metal)    S(lipo)     H(rot)  DE(clash)    DE(int)     intcor
     15.53     -17.14       3.59        0.00      42.11       2.06       0.00       1.61       ----

> <Gold.Chemscore.Fitness>
15.5283

> <Gold.Chemscore.DG>
-17.1383

> <Gold.Chemscore.ZeroCoef>
-5.4800

> <Gold.Chemscore.Hbond>
3.5937

> <Gold.Chemscore.Metal>
0.0000

> <Gold.Chemscore.Lipo>
42.1080

> <Gold.Chemscore.Internal_Hbond>
0.0000

> <Gold.Chemscore.DEClash>
0.0000

> <Gold.Chemscore.DEInternal>
1.6100

> <Gold.Chemscore.Rot>
2.0592

> <Gold.Chemscore.Internal.Correction>
   9.000000E+99

> <Gold.Chemscore.Hbonds>
donor molecule, donor type, donor heavy atom, donor atom, acceptor molecule, acceptor atom, score
      L1  H     5    19       P1  8028  0.88
      P1  H  7989  7998       L1     8  0.54
      P1  H  7997  8008       L1    13  0.94
      P1  H 10752 10763       L1    14  0.66

> <Gold.Chemscore.Hbond.Weighted>
-12.0031

> <Gold.Chemscore.Metal.Weighted>
-0.0000

> <Gold.Chemscore.Lipo.Weighted>
-4.9266

> <Gold.Chemscore.Internal_Hbond.Weighted>
0.0000

> <Gold.Chemscore.DEClash.Weighted>
0.0000

> <Gold.Chemscore.DEInternal.Weighted>
1.6100

> <Gold.Chemscore.Rot.Weighted>
5.2715

> <Gold.Chemscore.Internal.Correction.Weighted>
   9.000000E+99

> <Gold.Protein.RotatedTorsions>
[ 6907 6896 6895 6894 ] final   15.58 input  -60.11 | X-H torsion
[ 7974 7965 7964 7962 ] final -137.03 input  175.53 | X-H torsion
[ 8008 7997 7996 7995 ] final   -5.99 input   59.86 | X-H torsion
[ 10167 10162 10161 10158 ] final   34.81 input  -65.29 | X-H torsion
[ 10718 10713 10712 10709 ] final  -39.20 input   66.30 | X-H torsion
[ 10763 10752 10751 10750 ] final   38.10 input  -60.55 | X-H torsion
[ 11005 11000 10999 10996 ] final    8.78 input  -57.11 | X-H torsion

> <Gold.Protein.ActiveResidues>
 VAL166  LYS551  ARG553  GLY616  TRP617  ASP618  TYR619  PRO620  LYS621  CYS622 
 ASP623  PHE694  ASN695  SER759  ASP760  ASP761  ALA762  ILE779  LEU786  VAL792 
 PHE793  MET794  SER795  GLU796  ALA797  LYS798  CYS799  TRP800  GLU811  SER814 

> <Gold.Protein.RotatedAtoms>
  151.8203  135.0654  160.0423 H   0  0  0  0  0  0  0  0  0  0  0  0  # atno 6907 bound_to 6896
  152.2956  133.5599  159.5593 H   0  0  0  0  0  0  0  0  0  0  0  0  # atno 6908 bound_to 6896
  150.7249  134.0282  159.3766 H   0  0  0  0  0  0  0  0  0  0  0  0  # atno 6909 bound_to 6896
  144.8876  140.6597  143.5166 H   0  0  0  0  0  0  0  0  0  0  0  0  # atno 7974 bound_to 7965
  154.5982  140.2444  155.7828 H   0  0  0  0  0  0  0  0  0  0  0  0  # atno 8008 bound_to 7997
  156.2293  140.2972  156.0101 H   0  0  0  0  0  0  0  0  0  0  0  0  # atno 8009 bound_to 7997
  155.2256  140.0402  157.2945 H   0  0  0  0  0  0  0  0  0  0  0  0  # atno 8010 bound_to 7997
  140.4280  144.1365  150.6156 H   0  0  0  0  0  0  0  0  0  0  0  0  # atno 10167 bound_to 10162
  156.2951  130.4233  149.8199 H   0  0  0  0  0  0  0  0  0  0  0  0  # atno 10718 bound_to 10713
  153.0013  135.6259  154.2251 H   0  0  0  0  0  0  0  0  0  0  0  0  # atno 10763 bound_to 10752
  154.1993  135.2805  155.2998 H   0  0  0  0  0  0  0  0  0  0  0  0  # atno 10764 bound_to 10752
  154.5696  135.5680  153.7142 H   0  0  0  0  0  0  0  0  0  0  0  0  # atno 10765 bound_to 10752
  140.5331  134.0446  155.7880 H   0  0  0  0  0  0  0  0  0  0  0  0  # atno 11005 bound_to 11000
  145.3840  139.1630  143.4265 LP  0  0  0  0  0  0  0  0  0  0  0  0  # atno 17320 bound_to 7965
  146.3034  140.3923  142.8696 LP  0  0  0  0  0  0  0  0  0  0  0  0  # atno 17321 bound_to 7965
  140.4459  143.2507  151.9412 LP  0  0  0  0  0  0  0  0  0  0  0  0  # atno 17342 bound_to 10162
  139.4784  144.5609  151.8240 LP  0  0  0  0  0  0  0  0  0  0  0  0  # atno 17343 bound_to 10162
  156.5598  130.8378  151.3325 LP  0  0  0  0  0  0  0  0  0  0  0  0  # atno 17370 bound_to 10713
  157.7353  130.9760  150.2075 LP  0  0  0  0  0  0  0  0  0  0  0  0  # atno 17371 bound_to 10713
  141.1270  133.9367  157.2615 LP  0  0  0  0  0  0  0  0  0  0  0  0  # atno 17394 bound_to 11000
  139.9543  135.0169  156.9084 LP  0  0  0  0  0  0  0  0  0  0  0  0  # atno 17395 bound_to 11000

$$$$
