AV-unprocessed.smi:3189|AV-procd|sdf|12191|dock3
  -GOLD-   2272018 33D 1   1.00000     0.00000
 Structure written by MMmdl.
 31 32  0  0  0  0  0  0  0  0  2 V2000
  146.9690  139.3650  152.7268 C   0  0  0  0  0  0  0  0  0  0  0  0
  148.2474  139.5417  153.5234 C   0  0  0  0  0  0  0  0  0  0  0  0
  149.1506  138.5370  153.4927 N   0  3  0  0  0  0  0  0  0  0  0  0
  150.3250  138.5832  154.1553 C   0  0  0  0  0  0  0  0  0  0  0  0
  150.6518  139.7144  154.9280 C   0  0  0  0  0  0  0  0  0  0  0  0
  149.7326  140.7907  155.0097 C   0  0  0  0  0  0  0  0  0  0  0  0
  149.9869  141.9759  155.7534 N   0  0  0  0  0  0  0  0  0  0  0  0
  150.6604  142.1197  156.9116 C   0  0  0  0  0  0  0  0  0  0  0  0
  151.1891  141.1991  157.5311 O   0  0  0  0  0  0  0  0  0  0  0  0
  150.6605  143.3750  157.3933 N   0  0  0  0  0  0  0  0  0  0  0  0
  151.2827  143.8465  158.5932 C   0  0  2  0  0  0  0  0  0  0  0  0
  152.4947  144.7352  158.4238 C   0  0  0  0  0  0  0  0  0  0  0  0
  152.6628  143.3308  158.9423 C   0  0  1  0  0  0  0  0  0  0  0  0
  153.0585  143.0959  160.3840 C   0  0  0  0  0  0  0  0  0  0  0  0
  148.5192  140.7041  154.2828 C   0  0  0  0  0  0  0  0  0  0  0  0
  147.3732  142.0023  154.3265 Cl  0  0  0  0  0  0  0  0  0  0  0  0
  146.1031  139.3963  153.3888 H   0  0  0  0  0  0  0  0  0  0  0  0
  146.9569  138.4110  152.1983 H   0  0  0  0  0  0  0  0  0  0  0  0
  146.8680  140.1610  151.9882 H   0  0  0  0  0  0  0  0  0  0  0  0
  150.9672  137.7217  154.0436 H   0  0  0  0  0  0  0  0  0  0  0  0
  151.6053  139.7393  155.4333 H   0  0  0  0  0  0  0  0  0  0  0  0
  149.5246  142.8063  155.4118 H   0  0  0  0  0  0  0  0  0  0  0  0
  150.0944  144.0493  156.8981 H   0  0  0  0  0  0  0  0  0  0  0  0
  150.6297  144.1202  159.4210 H   0  0  0  0  0  0  0  0  0  0  0  0
  152.8428  144.9386  157.4126 H   0  0  0  0  0  0  0  0  0  0  0  0
  152.6166  145.5550  159.1291 H   0  0  0  0  0  0  0  0  0  0  0  0
  153.0986  142.6139  158.2485 H   0  0  0  0  0  0  0  0  0  0  0  0
  152.6119  143.8469  161.0364 H   0  0  0  0  0  0  0  0  0  0  0  0
  154.1426  143.1448  160.4876 H   0  0  0  0  0  0  0  0  0  0  0  0
  152.7217  142.1110  160.7077 H   0  0  0  0  0  0  0  0  0  0  0  0
  148.9368  137.7070  152.9389 H   0  0  0  0  0  0  0  0  0  0  0  0
  1  2  1  0  0  0  0
  1 17  1  0  0  0  0
  1 18  1  0  0  0  0
  1 19  1  0  0  0  0
  2 15  1  0  0  0  0
  2  3  2  0  0  0  0
  3  4  1  0  0  0  0
  3 31  1  0  0  0  0
  4  5  2  0  0  0  0
  4 20  1  0  0  0  0
  5  6  1  0  0  0  0
  5 21  1  0  0  0  0
  6  7  1  0  0  0  0
  6 15  2  0  0  0  0
  7  8  1  0  0  0  0
  7 22  1  0  0  0  0
  8  9  2  0  0  0  0
  8 10  1  0  0  0  0
 10 11  1  0  0  0  0
 10 23  1  0  0  0  0
 11 13  1  0  0  0  0
 11 12  1  0  0  0  0
 11 24  1  0  0  0  0
 12 13  1  0  0  0  0
 12 25  1  0  0  0  0
 12 26  1  0  0  0  0
 13 14  1  0  0  0  0
 13 27  1  0  0  0  0
 14 28  1  0  0  0  0
 14 29  1  0  0  0  0
 14 30  1  0  0  0  0
 15 16  1  0  0  0  0
M  CHG  1   3   1
M  END
> <s_m_source_file>
AV-unprocessed.smi

> <i_m_source_file_index>
3189

> <i_lp_mmshare_version>
43012

> <i_f3d_flags>
0

> <s_epik_input>
W0NIM11jMW5bY0hdW2NIXWMoYzFDbClbTkhdQyg9TylbTkhdW0NAQEhdMltDSDJdW0NASF0yW0NIM10=

> <s_epik_cmdline>
J2VwaWtfcHl0aG9uJywgJy1waCcsICc3LjAnLCAnLXRuJywgJzgnLCAnLW1hJywgJzIwMCcsICctbWV0YWxfYmluZGluZycsICctaW1hZScsICc8aW5maWxlLm1hZT4nLCAnLW9tYWUnLCAnPG91dGZpbGUubWFlPic=

> <r_epik_Ionization_Penalty>
2.42914

> <r_epik_Ionization_Penalty_Charging>
2.42912

> <r_epik_Ionization_Penalty_Neutral>
2.15137e-05

> <r_epik_State_Penalty>
2.58904

> <r_epik_Charging_Adjusted_Penalty>
5.01816

> <i_epik_Tot_Q>
1

> <i_epik_Tot_abs_Q>
1

> <r_epik_Metal_State_Penalty>
2.59882

> <b_epik_Metal_Only>
0

> <s_lp_Force_Field>
OPLS_2005

> <r_lp_Energy>
37.5636

> <b_lp_Chiralities_Consistent>
1

> <s_lp_Variant>
AV-unprocessed.smi:3189-5

> <Gold.Version>
5.8.1

> <Gold.Id.Protein>
6NUR|6NUR_protein|mol2

> <Gold.PLP.Fitness>
52.4010

> <Gold.PLP.PLP>
-41.1859

> <Gold.PLP.part.hbond>
-4.0000

> <Gold.PLP.part.metal>
0.0000

> <Gold.PLP.part.buried>
-0.3668

> <Gold.PLP.part.nonpolar>
-37.0531

> <Gold.PLP.part.repulsive>
0.2309

> <Gold.PLP.ligand.clash>
0.0000

> <Gold.PLP.ligand.torsion>
0.4101

> <Gold.PLP.Chemscore.Hbond>
4.0000

> <Gold.PLP.Chemscore.CHOScore>
0.0000

> <Gold.PLP.Chemscore.Metal>
0.0000

> <Gold.Chemscore.Hbonds>
donor molecule, donor type, donor heavy atom, donor atom, acceptor molecule, acceptor atom, score
      L1  H     3    31       P1  7948  2.00
      L1  H     7    22       P1  8028  1.00
      L1  H    10    23       P1  8028  1.00

> <Gold.PLP.Chemscore.Internal.Correction>
0.0354

> <Gold.Rescore>
     Score         DG    S(hbond)    S(metal)    S(lipo)     H(rot)  DE(clash)    DE(int)     intcor
     21.37     -24.30       2.84        0.00     101.62       1.00       0.45       2.48       ----

> <Gold.Chemscore.Fitness>
21.3683

> <Gold.Chemscore.DG>
-24.3019

> <Gold.Chemscore.ZeroCoef>
-5.4800

> <Gold.Chemscore.Hbond>
2.8422

> <Gold.Chemscore.Metal>
0.0000

> <Gold.Chemscore.Lipo>
101.6156

> <Gold.Chemscore.Internal_Hbond>
0.0000

> <Gold.Chemscore.DEClash>
0.4521

> <Gold.Chemscore.DEInternal>
2.4815

> <Gold.Chemscore.Rot>
1.0000

> <Gold.Chemscore.Internal.Correction>
   9.000000E+99

> <Gold.Chemscore.Hbonds>
donor molecule, donor type, donor heavy atom, donor atom, acceptor molecule, acceptor atom, score
      L1  H     3    31       P1  7948  1.00
      L1  H     7    22       P1  8028  0.90
      L1  H    10    23       P1  8028  0.96

> <Gold.Chemscore.Hbond.Weighted>
-9.4928

> <Gold.Chemscore.Metal.Weighted>
-0.0000

> <Gold.Chemscore.Lipo.Weighted>
-11.8890

> <Gold.Chemscore.Internal_Hbond.Weighted>
0.0000

> <Gold.Chemscore.DEClash.Weighted>
0.4521

> <Gold.Chemscore.DEInternal.Weighted>
2.4815

> <Gold.Chemscore.Rot.Weighted>
2.5600

> <Gold.Chemscore.Internal.Correction.Weighted>
   9.000000E+99

> <Gold.Protein.RotatedTorsions>
[ 6907 6896 6895 6894 ] final -177.31 input  -60.11 | X-H torsion
[ 7974 7965 7964 7962 ] final  -85.15 input  175.53 | X-H torsion
[ 8008 7997 7996 7995 ] final  -77.41 input   59.86 | X-H torsion
[ 10167 10162 10161 10158 ] final  -70.78 input  -65.29 | X-H torsion
[ 10718 10713 10712 10709 ] final  158.16 input   66.30 | X-H torsion
[ 10763 10752 10751 10750 ] final  -21.83 input  -60.55 | X-H torsion
[ 11005 11000 10999 10996 ] final   14.52 input  -57.11 | X-H torsion

> <Gold.Protein.ActiveResidues>
 VAL166  LYS551  ARG553  GLY616  TRP617  ASP618  TYR619  PRO620  LYS621  CYS622 
 ASP623  PHE694  ASN695  SER759  ASP760  ASP761  ALA762  ILE779  LEU786  VAL792 
 PHE793  MET794  SER795  GLU796  ALA797  LYS798  CYS799  TRP800  GLU811  SER814 

> <Gold.Protein.RotatedAtoms>
  151.6189  133.3341  159.3083 H   0  0  0  0  0  0  0  0  0  0  0  0  # atno 6907 bound_to 6896
  150.8116  134.7278  159.6705 H   0  0  0  0  0  0  0  0  0  0  0  0  # atno 6908 bound_to 6896
  152.4213  134.5955  160.0037 H   0  0  0  0  0  0  0  0  0  0  0  0  # atno 6909 bound_to 6896
  145.4971  140.9549  143.1780 H   0  0  0  0  0  0  0  0  0  0  0  0  # atno 7974 bound_to 7965
  154.5594  140.0711  156.8794 H   0  0  0  0  0  0  0  0  0  0  0  0  # atno 8008 bound_to 7997
  155.2841  140.3373  155.4238 H   0  0  0  0  0  0  0  0  0  0  0  0  # atno 8009 bound_to 7997
  156.2029  140.1729  156.7847 H   0  0  0  0  0  0  0  0  0  0  0  0  # atno 8010 bound_to 7997
  140.5325  143.2320  151.7236 H   0  0  0  0  0  0  0  0  0  0  0  0  # atno 10167 bound_to 10162
  157.1816  131.0634  151.2128 H   0  0  0  0  0  0  0  0  0  0  0  0  # atno 10718 bound_to 10713
  153.6423  135.6984  153.5237 H   0  0  0  0  0  0  0  0  0  0  0  0  # atno 10763 bound_to 10752
  153.2772  135.4196  155.1044 H   0  0  0  0  0  0  0  0  0  0  0  0  # atno 10764 bound_to 10752
  154.8496  135.3593  154.5967 H   0  0  0  0  0  0  0  0  0  0  0  0  # atno 10765 bound_to 10752
  140.4686  134.1054  155.7728 H   0  0  0  0  0  0  0  0  0  0  0  0  # atno 11005 bound_to 11000
  144.7801  139.6544  143.7158 LP  0  0  0  0  0  0  0  0  0  0  0  0  # atno 17320 bound_to 7965
  146.2249  139.5704  142.9594 LP  0  0  0  0  0  0  0  0  0  0  0  0  # atno 17321 bound_to 7965
  139.4959  144.4092  152.0099 LP  0  0  0  0  0  0  0  0  0  0  0  0  # atno 17342 bound_to 10162
  140.3195  144.3444  150.6013 LP  0  0  0  0  0  0  0  0  0  0  0  0  # atno 17343 bound_to 10162
  157.3946  130.7301  149.6723 LP  0  0  0  0  0  0  0  0  0  0  0  0  # atno 17370 bound_to 10713
  155.9723  130.4137  150.4095 LP  0  0  0  0  0  0  0  0  0  0  0  0  # atno 17371 bound_to 10713
  141.1588  133.8833  157.1906 LP  0  0  0  0  0  0  0  0  0  0  0  0  # atno 17394 bound_to 11000
  139.9900  135.0068  156.9952 LP  0  0  0  0  0  0  0  0  0  0  0  0  # atno 17395 bound_to 11000

$$$$
