AV-unprocessed.smi:2772|AV-procd|sdf|10665|dock1
  -GOLD-   2272015113D 1   1.00000     0.00000
 Structure written by MMmdl.
 55 57  0  0  0  0  0  0  0  0  3 V2000
  152.5099  143.8465  162.0004 C   0  0  0  0  0  0  0  0  0  0  0  0
  152.2464  143.0840  160.7188 C   0  0  0  0  0  0  0  0  0  0  0  0
  153.1357  142.0837  160.2744 C   0  0  0  0  0  0  0  0  0  0  0  0
  152.8420  141.4064  159.0752 C   0  0  0  0  0  0  0  0  0  0  0  0
  151.6730  141.7592  158.3586 C   0  0  0  0  0  0  0  0  0  0  0  0
  151.2578  141.1363  157.1509 N   0  0  0  0  0  0  0  0  0  0  0  0
  150.0187  141.0528  156.6372 C   0  0  0  0  0  0  0  0  0  0  0  0
  148.9974  141.4871  157.1688 O   0  0  0  0  0  0  0  0  0  0  0  0
  150.0275  140.4081  155.4614 N   0  0  0  0  0  0  0  0  0  0  0  0
  148.8586  140.1321  154.6299 C   0  0  2  0  0  0  0  0  0  0  0  0
  148.4388  141.4061  153.8730 C   0  0  0  0  0  0  0  0  0  0  0  0
  147.1037  141.1997  153.1309 C   0  0  0  0  0  0  0  0  0  0  0  0
  146.0149  140.7687  154.0550 N   0  3  2  0  0  0  0  0  0  0  0  0
  145.5130  141.8287  154.9971 C   0  0  2  0  0  0  0  0  0  0  0  0
  144.1760  141.4303  155.6730 C   0  0  0  0  0  0  0  0  0  0  0  0
  143.6152  142.5430  156.5752 C   0  0  0  0  0  0  0  0  0  0  0  0
  143.4357  143.8042  155.8206 N   0  3  1  0  0  0  0  0  0  0  0  0
  142.7827  144.8574  156.6279 C   0  0  0  0  0  0  0  0  0  0  0  0
  144.7116  144.2593  155.2228 C   0  0  0  0  0  0  0  0  0  0  0  0
  145.2995  143.1897  154.2864 C   0  0  0  0  0  0  0  0  0  0  0  0
  146.4041  139.4777  154.6923 C   0  0  0  0  0  0  0  0  0  0  0  0
  147.7051  139.6115  155.5071 C   0  0  0  0  0  0  0  0  0  0  0  0
  150.8469  142.7650  158.9030 C   0  0  0  0  0  0  0  0  0  0  0  0
  151.1215  143.4197  160.0514 N   0  0  0  0  0  0  0  0  0  0  0  0
  153.4354  143.5181  162.4741 H   0  0  0  0  0  0  0  0  0  0  0  0
  151.6937  143.6941  162.7070 H   0  0  0  0  0  0  0  0  0  0  0  0
  152.5929  144.9143  161.7962 H   0  0  0  0  0  0  0  0  0  0  0  0
  154.0216  141.8344  160.8397 H   0  0  0  0  0  0  0  0  0  0  0  0
  153.5068  140.6254  158.7404 H   0  0  0  0  0  0  0  0  0  0  0  0
  151.9849  140.6544  156.6427 H   0  0  0  0  0  0  0  0  0  0  0  0
  150.9180  140.0843  155.1133 H   0  0  0  0  0  0  0  0  0  0  0  0
  149.0875  139.3621  153.8906 H   0  0  0  0  0  0  0  0  0  0  0  0
  148.3554  142.2467  154.5626 H   0  0  0  0  0  0  0  0  0  0  0  0
  149.2153  141.6795  153.1576 H   0  0  0  0  0  0  0  0  0  0  0  0
  146.8341  142.0850  152.5591 H   0  0  0  0  0  0  0  0  0  0  0  0
  147.2364  140.4206  152.3787 H   0  0  0  0  0  0  0  0  0  0  0  0
  146.2517  141.9764  155.7850 H   0  0  0  0  0  0  0  0  0  0  0  0
  143.4381  141.1716  154.9123 H   0  0  0  0  0  0  0  0  0  0  0  0
  144.3017  140.5503  156.3018 H   0  0  0  0  0  0  0  0  0  0  0  0
  142.6567  142.2266  156.9887 H   0  0  0  0  0  0  0  0  0  0  0  0
  144.2835  142.7141  157.4209 H   0  0  0  0  0  0  0  0  0  0  0  0
  143.4000  145.1365  157.4830 H   0  0  0  0  0  0  0  0  0  0  0  0
  141.8170  144.5138  157.0003 H   0  0  0  0  0  0  0  0  0  0  0  0
  142.6067  145.7500  156.0266 H   0  0  0  0  0  0  0  0  0  0  0  0
  144.5432  145.1798  154.6621 H   0  0  0  0  0  0  0  0  0  0  0  0
  145.4232  144.4976  156.0153 H   0  0  0  0  0  0  0  0  0  0  0  0
  146.2399  143.5863  153.9069 H   0  0  0  0  0  0  0  0  0  0  0  0
  144.6427  143.0591  153.4250 H   0  0  0  0  0  0  0  0  0  0  0  0
  145.6040  139.0578  155.2981 H   0  0  0  0  0  0  0  0  0  0  0  0
  146.5588  138.7427  153.9010 H   0  0  0  0  0  0  0  0  0  0  0  0
  147.9739  138.6419  155.9279 H   0  0  0  0  0  0  0  0  0  0  0  0
  147.5456  140.2752  156.3576 H   0  0  0  0  0  0  0  0  0  0  0  0
  149.9375  143.0589  158.3994 H   0  0  0  0  0  0  0  0  0  0  0  0
  145.2274  140.5492  153.4614 H   0  0  0  0  0  0  0  0  0  0  0  0
  142.8079  143.6023  155.0553 H   0  0  0  0  0  0  0  0  0  0  0  0
  1  2  1  0  0  0  0
  1 25  1  0  0  0  0
  1 26  1  0  0  0  0
  1 27  1  0  0  0  0
  2 24  1  0  0  0  0
  2  3  2  0  0  0  0
  3  4  1  0  0  0  0
  3 28  1  0  0  0  0
  4  5  2  0  0  0  0
  4 29  1  0  0  0  0
  5  6  1  0  0  0  0
  5 23  1  0  0  0  0
  6  7  1  0  0  0  0
  6 30  1  0  0  0  0
  7  8  2  0  0  0  0
  7  9  1  0  0  0  0
  9 10  1  0  0  0  0
  9 31  1  0  0  0  0
 10 22  1  0  0  0  0
 10 11  1  0  0  0  0
 10 32  1  0  0  0  0
 11 12  1  0  0  0  0
 11 33  1  0  0  0  0
 11 34  1  0  0  0  0
 12 13  1  0  0  0  0
 12 35  1  0  0  0  0
 12 36  1  0  0  0  0
 13 14  1  0  0  0  0
 13 21  1  0  0  0  0
 13 54  1  0  0  0  0
 14 20  1  0  0  0  0
 14 15  1  0  0  0  0
 14 37  1  0  0  0  0
 15 16  1  0  0  0  0
 15 38  1  0  0  0  0
 15 39  1  0  0  0  0
 16 17  1  0  0  0  0
 16 40  1  0  0  0  0
 16 41  1  0  0  0  0
 17 18  1  0  0  0  0
 17 19  1  0  0  0  0
 17 55  1  0  0  0  0
 18 42  1  0  0  0  0
 18 43  1  0  0  0  0
 18 44  1  0  0  0  0
 19 20  1  0  0  0  0
 19 45  1  0  0  0  0
 19 46  1  0  0  0  0
 20 47  1  0  0  0  0
 20 48  1  0  0  0  0
 21 22  1  0  0  0  0
 21 49  1  0  0  0  0
 21 50  1  0  0  0  0
 22 51  1  0  0  0  0
 22 52  1  0  0  0  0
 23 24  2  0  0  0  0
 23 53  1  0  0  0  0
M  CHG  1  13   1
M  CHG  1  17   1
M  END
> <s_m_source_file>
AV-unprocessed.smi

> <i_m_source_file_index>
2772

> <i_lp_mmshare_version>
43012

> <i_f3d_flags>
0

> <s_epik_input>
W0NIM11jMVtjSF1bY0hdYyhbY0hdbjEpW05IXUMoPU8pW05IXVtDSF0yW0NIMl1bQ0gyXU4oW0NIMl1bQ0gyXTIpW0NIXTNbQ0gyXVtDSDJdTihbQ0gzXSlbQ0gyXVtDSDJdMw==

> <s_epik_cmdline>
J2VwaWtfcHl0aG9uJywgJy1waCcsICc3LjAnLCAnLXRuJywgJzgnLCAnLW1hJywgJzIwMCcsICctbWV0YWxfYmluZGluZycsICctaW1hZScsICc8aW5maWxlLm1hZT4nLCAnLW9tYWUnLCAnPG91dGZpbGUubWFlPic=

> <r_epik_Ionization_Penalty>
0.196786

> <r_epik_Ionization_Penalty_Charging>
0.180787

> <r_epik_Ionization_Penalty_Neutral>
0.0159988

> <r_epik_State_Penalty>
0.163322

> <r_epik_Charging_Adjusted_Penalty>
0.344109

> <i_epik_Tot_Q>
2

> <i_epik_Tot_abs_Q>
2

> <r_epik_Metal_State_Penalty>
0.163596

> <b_epik_Metal_Only>
0

> <s_lp_Force_Field>
OPLS_2005

> <r_lp_Energy>
45.3322

> <b_lp_Chiralities_Consistent>
1

> <s_lp_Variant>
AV-unprocessed.smi:2772-2

> <Gold.Version>
5.8.1

> <Gold.Id.Protein>
6NUR|6NUR_protein|mol2

> <Gold.PLP.Fitness>
42.1385

> <Gold.PLP.PLP>
-36.9968

> <Gold.PLP.part.hbond>
-1.4745

> <Gold.PLP.part.metal>
0.0000

> <Gold.PLP.part.buried>
-5.9151

> <Gold.PLP.part.nonpolar>
-29.4158

> <Gold.PLP.part.repulsive>
0.3299

> <Gold.PLP.ligand.clash>
0.0000

> <Gold.PLP.ligand.torsion>
0.4559

> <Gold.PLP.Chemscore.Hbond>
2.0000

> <Gold.PLP.Chemscore.CHOScore>
0.0000

> <Gold.PLP.Chemscore.Metal>
0.0000

> <Gold.Chemscore.Hbonds>
donor molecule, donor type, donor heavy atom, donor atom, acceptor molecule, acceptor atom, score
      L1  H    13    54       P1 10175  2.00

> <Gold.PLP.Chemscore.Internal.Correction>
0.0536

> <Gold.Rescore>
     Score         DG    S(hbond)    S(metal)    S(lipo)     H(rot)  DE(clash)    DE(int)     intcor
     14.97     -18.12       0.99        0.00     106.30       1.21       0.11       3.05       ----

> <Gold.Chemscore.Fitness>
14.9655

> <Gold.Chemscore.DG>
-18.1219

> <Gold.Chemscore.ZeroCoef>
-5.4800

> <Gold.Chemscore.Hbond>
0.9881

> <Gold.Chemscore.Metal>
0.0000

> <Gold.Chemscore.Lipo>
106.3007

> <Gold.Chemscore.Internal_Hbond>
0.0000

> <Gold.Chemscore.DEClash>
0.1067

> <Gold.Chemscore.DEInternal>
3.0498

> <Gold.Chemscore.Rot>
1.2092

> <Gold.Chemscore.Internal.Correction>
   9.000000E+99

> <Gold.Chemscore.Hbonds>
donor molecule, donor type, donor heavy atom, donor atom, acceptor molecule, acceptor atom, score
      L1  H    13    54       P1 10175  0.98

> <Gold.Chemscore.Hbond.Weighted>
-3.3002

> <Gold.Chemscore.Metal.Weighted>
-0.0000

> <Gold.Chemscore.Lipo.Weighted>
-12.4372

> <Gold.Chemscore.Internal_Hbond.Weighted>
0.0000

> <Gold.Chemscore.DEClash.Weighted>
0.1067

> <Gold.Chemscore.DEInternal.Weighted>
3.0498

> <Gold.Chemscore.Rot.Weighted>
3.0955

> <Gold.Chemscore.Internal.Correction.Weighted>
   9.000000E+99

> <Gold.Protein.RotatedTorsions>
[ 6907 6896 6895 6894 ] final  140.59 input  -60.11 | X-H torsion
[ 7974 7965 7964 7962 ] final  157.58 input  175.53 | X-H torsion
[ 8008 7997 7996 7995 ] final  -87.70 input   59.86 | X-H torsion
[ 10167 10162 10161 10158 ] final  161.36 input  -65.29 | X-H torsion
[ 10718 10713 10712 10709 ] final  -66.15 input   66.30 | X-H torsion
[ 10763 10752 10751 10750 ] final -108.40 input  -60.55 | X-H torsion
[ 11005 11000 10999 10996 ] final -172.82 input  -57.11 | X-H torsion

> <Gold.Protein.ActiveResidues>
 VAL166  LYS551  ARG553  GLY616  TRP617  ASP618  TYR619  PRO620  LYS621  CYS622 
 ASP623  PHE694  ASN695  SER759  ASP760  ASP761  ALA762  ILE779  LEU786  VAL792 
 PHE793  MET794  SER795  GLU796  ALA797  LYS798  CYS799  TRP800  GLU811  SER814 

> <Gold.Protein.RotatedAtoms>
  152.2412  133.5137  159.5270 H   0  0  0  0  0  0  0  0  0  0  0  0  # atno 6907 bound_to 6896
  150.7065  134.1086  159.4001 H   0  0  0  0  0  0  0  0  0  0  0  0  # atno 6908 bound_to 6896
  151.9007  135.0379  160.0557 H   0  0  0  0  0  0  0  0  0  0  0  0  # atno 6909 bound_to 6896
  144.7895  139.7360  143.6227 H   0  0  0  0  0  0  0  0  0  0  0  0  # atno 7974 bound_to 7965
  154.6663  140.0562  157.0117 H   0  0  0  0  0  0  0  0  0  0  0  0  # atno 8008 bound_to 7997
  155.1154  140.3242  155.4492 H   0  0  0  0  0  0  0  0  0  0  0  0  # atno 8009 bound_to 7997
  156.2639  140.2007  156.6278 H   0  0  0  0  0  0  0  0  0  0  0  0  # atno 8010 bound_to 7997
  139.4848  144.4544  151.8788 H   0  0  0  0  0  0  0  0  0  0  0  0  # atno 10167 bound_to 10162
  156.0628  130.4258  150.1668 H   0  0  0  0  0  0  0  0  0  0  0  0  # atno 10718 bound_to 10713
  154.8133  135.4639  154.0576 H   0  0  0  0  0  0  0  0  0  0  0  0  # atno 10763 bound_to 10752
  153.1989  135.6866  153.8264 H   0  0  0  0  0  0  0  0  0  0  0  0  # atno 10764 bound_to 10752
  153.7755  135.3264  155.3335 H   0  0  0  0  0  0  0  0  0  0  0  0  # atno 10765 bound_to 10752
  140.4927  134.5969  157.4960 H   0  0  0  0  0  0  0  0  0  0  0  0  # atno 11005 bound_to 11000
  146.2141  139.5518  142.9661 LP  0  0  0  0  0  0  0  0  0  0  0  0  # atno 17320 bound_to 7965
  145.5832  141.0380  143.2110 LP  0  0  0  0  0  0  0  0  0  0  0  0  # atno 17321 bound_to 7965
  140.4002  144.2502  150.5893 LP  0  0  0  0  0  0  0  0  0  0  0  0  # atno 17342 bound_to 10162
  140.5064  143.2303  151.8602 LP  0  0  0  0  0  0  0  0  0  0  0  0  # atno 17343 bound_to 10162
  156.9733  130.9841  151.3454 LP  0  0  0  0  0  0  0  0  0  0  0  0  # atno 17370 bound_to 10713
  157.5649  130.8271  149.8315 LP  0  0  0  0  0  0  0  0  0  0  0  0  # atno 17371 bound_to 10713
  139.9760  134.7215  155.9950 LP  0  0  0  0  0  0  0  0  0  0  0  0  # atno 17394 bound_to 11000
  141.1476  133.6553  156.3914 LP  0  0  0  0  0  0  0  0  0  0  0  0  # atno 17395 bound_to 11000

$$$$
