AV-unprocessed.smi:2706|AV-procd|sdf|10452|dock7
  -GOLD-   2272014493D 1   1.00000     0.00000
 Structure written by MMmdl.
 43 46  0  0  0  0  0  0  0  0  1 V2000
  150.5505  136.8723  154.5821 C   0  0  0  0  0  0  0  0  0  0  0  0
  150.4687  138.3294  154.5803 N   0  0  0  0  0  0  0  0  0  0  0  0
  151.6249  139.0017  155.1618 C   0  0  0  0  0  0  0  0  0  0  0  0
  149.3666  139.0448  154.1087 C   0  0  0  0  0  0  0  0  0  0  0  0
  149.3518  140.3966  154.1316 C   0  0  0  0  0  0  0  0  0  0  0  0
  148.2014  141.1201  153.6306 C   0  0  0  0  0  0  0  0  0  0  0  0
  147.1259  140.4707  153.1437 C   0  0  0  0  0  0  0  0  0  0  0  0
  147.0845  139.0208  153.1136 C   0  0  0  0  0  0  0  0  0  0  0  0
  146.0424  138.4047  152.6302 N   0  0  0  0  0  0  0  0  0  0  0  0
  145.8846  137.0195  152.6707 C   0  0  0  0  0  0  0  0  0  0  0  0
  146.4934  136.3071  153.4683 O   0  0  0  0  0  0  0  0  0  0  0  0
  145.1076  136.4826  151.7070 N   0  0  0  0  0  0  0  0  0  0  0  0
  144.8254  135.0946  151.5341 C   0  0  2  0  0  0  0  0  0  0  0  0
  145.9582  134.2116  151.0541 C   0  0  1  0  0  0  0  0  0  0  0  0
  145.9763  132.6855  151.0070 C   0  0  1  0  0  0  0  0  0  0  0  0
  144.7465  132.0882  151.7227 C   0  0  0  0  0  0  0  0  0  0  0  0
  143.5921  132.4537  150.7629 C   0  0  0  0  0  0  0  0  0  0  0  0
  144.3240  133.2096  149.6349 C   0  0  2  0  0  0  0  0  0  0  0  0
  145.6212  132.4112  149.5491 C   0  0  0  0  0  0  0  0  0  0  0  0
  144.8219  134.5719  150.1122 C   0  0  1  0  0  0  0  0  0  0  0  0
  148.2453  138.3860  153.5961 N   0  0  0  0  0  0  0  0  0  0  0  0
  150.6358  136.4976  153.5618 H   0  0  0  0  0  0  0  0  0  0  0  0
  149.6576  136.4404  155.0348 H   0  0  0  0  0  0  0  0  0  0  0  0
  151.4090  136.5086  155.1472 H   0  0  0  0  0  0  0  0  0  0  0  0
  151.4181  139.2792  156.1956 H   0  0  0  0  0  0  0  0  0  0  0  0
  151.8679  139.9072  154.6064 H   0  0  0  0  0  0  0  0  0  0  0  0
  152.5126  138.3687  155.1484 H   0  0  0  0  0  0  0  0  0  0  0  0
  150.1834  140.9659  154.5187 H   0  0  0  0  0  0  0  0  0  0  0  0
  148.2085  142.2000  153.6441 H   0  0  0  0  0  0  0  0  0  0  0  0
  146.2992  141.0653  152.7823 H   0  0  0  0  0  0  0  0  0  0  0  0
  144.6807  137.1150  151.0455 H   0  0  0  0  0  0  0  0  0  0  0  0
  144.1047  134.6645  152.2251 H   0  0  0  0  0  0  0  0  0  0  0  0
  146.9147  134.6860  150.8405 H   0  0  0  0  0  0  0  0  0  0  0  0
  146.9310  132.2727  151.3338 H   0  0  0  0  0  0  0  0  0  0  0  0
  144.8397  131.0049  151.8103 H   0  0  0  0  0  0  0  0  0  0  0  0
  144.6106  132.4874  152.7281 H   0  0  0  0  0  0  0  0  0  0  0  0
  143.1182  131.5503  150.3771 H   0  0  0  0  0  0  0  0  0  0  0  0
  142.8149  133.0549  151.2356 H   0  0  0  0  0  0  0  0  0  0  0  0
  143.7625  133.2783  148.7028 H   0  0  0  0  0  0  0  0  0  0  0  0
  146.3396  132.8323  148.8434 H   0  0  0  0  0  0  0  0  0  0  0  0
  145.4736  131.3534  149.3231 H   0  0  0  0  0  0  0  0  0  0  0  0
  145.0810  135.2657  149.3144 H   0  0  0  0  0  0  0  0  0  0  0  0
  148.3082  137.3783  153.5848 H   0  0  0  0  0  0  0  0  0  0  0  0
  1  2  1  0  0  0  0
  1 22  1  0  0  0  0
  1 23  1  0  0  0  0
  1 24  1  0  0  0  0
  2  3  1  0  0  0  0
  2  4  1  0  0  0  0
  3 25  1  0  0  0  0
  3 26  1  0  0  0  0
  3 27  1  0  0  0  0
  4 21  1  0  0  0  0
  4  5  2  0  0  0  0
  5  6  1  0  0  0  0
  5 28  1  0  0  0  0
  6  7  2  0  0  0  0
  6 29  1  0  0  0  0
  7  8  1  0  0  0  0
  7 30  1  0  0  0  0
  8  9  2  0  0  0  0
  8 21  1  0  0  0  0
  9 10  1  0  0  0  0
 10 11  2  0  0  0  0
 10 12  1  0  0  0  0
 12 13  1  0  0  0  0
 12 31  1  0  0  0  0
 13 20  1  0  0  0  0
 13 14  1  0  0  0  0
 13 32  1  0  0  0  0
 14 20  1  0  0  0  0
 14 15  1  0  0  0  0
 14 33  1  0  0  0  0
 15 19  1  0  0  0  0
 15 16  1  0  0  0  0
 15 34  1  0  0  0  0
 16 17  1  0  0  0  0
 16 35  1  0  0  0  0
 16 36  1  0  0  0  0
 17 18  1  0  0  0  0
 17 37  1  0  0  0  0
 17 38  1  0  0  0  0
 18 19  1  0  0  0  0
 18 20  1  0  0  0  0
 18 39  1  0  0  0  0
 19 40  1  0  0  0  0
 19 41  1  0  0  0  0
 20 42  1  0  0  0  0
 21 43  1  0  0  0  0
M  END
> <s_m_source_file>
AV-unprocessed.smi

> <i_m_source_file_index>
2706

> <i_lp_mmshare_version>
43012

> <i_f3d_flags>
0

> <s_epik_input>
W0NIM11OKFtDSDNdKWMxW2NIXVtjSF1bY0hdYyhuMSlbTkhdQyg9TylbTkhdW0NASF0yW0NAQEhdM1tDQEBIXShbQ0gyXTQpW0NIMl1bQ0gyXVtDQEBIXTRbQ0BIXTIz

> <s_epik_cmdline>
J2VwaWtfcHl0aG9uJywgJy1waCcsICc3LjAnLCAnLXRuJywgJzgnLCAnLW1hJywgJzIwMCcsICctbWV0YWxfYmluZGluZycsICctaW1hZScsICc8aW5maWxlLm1hZT4nLCAnLW9tYWUnLCAnPG91dGZpbGUubWFlPic=

> <r_lp_tautomer_probability>
0.999994

> <r_epik_Ionization_Penalty>
2.07242

> <r_epik_Ionization_Penalty_Charging>
2.07242

> <r_epik_Ionization_Penalty_Neutral>
9.73808e-07

> <r_epik_State_Penalty>
3.96009

> <r_epik_Charging_Adjusted_Penalty>
6.03251

> <i_epik_Tot_Q>
0

> <i_epik_Tot_abs_Q>
0

> <r_epik_Metal_State_Penalty>
3.98849

> <b_epik_Metal_Only>
1

> <s_lp_Force_Field>
OPLS_2005

> <r_lp_Energy>
91.2091

> <b_lp_Chiralities_Consistent>
1

> <s_lp_Variant>
AV-unprocessed.smi:2706-9

> <Gold.Version>
5.8.1

> <Gold.Id.Protein>
6NUR|6NUR_protein|mol2

> <Gold.PLP.Fitness>
43.6284

> <Gold.PLP.PLP>
-40.9605

> <Gold.PLP.part.hbond>
-1.8357

> <Gold.PLP.part.metal>
0.0000

> <Gold.PLP.part.buried>
1.1631

> <Gold.PLP.part.nonpolar>
-39.7709

> <Gold.PLP.part.repulsive>
1.3342

> <Gold.PLP.ligand.clash>
0.0000

> <Gold.PLP.ligand.torsion>
0.3067

> <Gold.PLP.Chemscore.Hbond>
1.0797

> <Gold.PLP.Chemscore.CHOScore>
0.0000

> <Gold.PLP.Chemscore.Metal>
0.0000

> <Gold.Chemscore.Hbonds>
donor molecule, donor type, donor heavy atom, donor atom, acceptor molecule, acceptor atom, score
      L1  H    12    31       P1 10171  0.86
      L1  H    21    43       P1  7948  0.31

> <Gold.PLP.Chemscore.Internal.Correction>
0.0423

> <Gold.Rescore>
     Score         DG    S(hbond)    S(metal)    S(lipo)     H(rot)  DE(clash)    DE(int)     intcor
     16.11     -18.05       1.04        0.00      99.49       1.00       1.62       0.33       ----

> <Gold.Chemscore.Fitness>
16.1076

> <Gold.Chemscore.DG>
-18.0493

> <Gold.Chemscore.ZeroCoef>
-5.4800

> <Gold.Chemscore.Hbond>
1.0446

> <Gold.Chemscore.Metal>
0.0000

> <Gold.Chemscore.Lipo>
99.4897

> <Gold.Chemscore.Internal_Hbond>
0.0000

> <Gold.Chemscore.DEClash>
1.6163

> <Gold.Chemscore.DEInternal>
0.3253

> <Gold.Chemscore.Rot>
1.0000

> <Gold.Chemscore.Internal.Correction>
   9.000000E+99

> <Gold.Chemscore.Hbonds>
donor molecule, donor type, donor heavy atom, donor atom, acceptor molecule, acceptor atom, score
      L1  H    12    31       P1 10171  0.84
      L1  H    21    43       P1  7948  0.31

> <Gold.Chemscore.Hbond.Weighted>
-3.4890

> <Gold.Chemscore.Metal.Weighted>
-0.0000

> <Gold.Chemscore.Lipo.Weighted>
-11.6403

> <Gold.Chemscore.Internal_Hbond.Weighted>
0.0000

> <Gold.Chemscore.DEClash.Weighted>
1.6163

> <Gold.Chemscore.DEInternal.Weighted>
0.3253

> <Gold.Chemscore.Rot.Weighted>
2.5600

> <Gold.Chemscore.Internal.Correction.Weighted>
   9.000000E+99

> <Gold.Protein.RotatedTorsions>
[ 6907 6896 6895 6894 ] final -163.05 input  -60.11 | X-H torsion
[ 7974 7965 7964 7962 ] final  117.51 input  175.53 | X-H torsion
[ 8008 7997 7996 7995 ] final  161.99 input   59.86 | X-H torsion
[ 10167 10162 10161 10158 ] final -102.88 input  -65.29 | X-H torsion
[ 10718 10713 10712 10709 ] final -131.69 input   66.30 | X-H torsion
[ 10763 10752 10751 10750 ] final   69.24 input  -60.55 | X-H torsion
[ 11005 11000 10999 10996 ] final   11.08 input  -57.11 | X-H torsion

> <Gold.Protein.ActiveResidues>
 VAL166  LYS551  ARG553  GLY616  TRP617  ASP618  TYR619  PRO620  LYS621  CYS622 
 ASP623  PHE694  ASN695  SER759  ASP760  ASP761  ALA762  ILE779  LEU786  VAL792 
 PHE793  MET794  SER795  GLU796  ALA797  LYS798  CYS799  TRP800  GLU811  SER814 

> <Gold.Protein.RotatedAtoms>
  151.3899  133.3792  159.2719 H   0  0  0  0  0  0  0  0  0  0  0  0  # atno 6907 bound_to 6896
  150.9513  134.8913  159.7684 H   0  0  0  0  0  0  0  0  0  0  0  0  # atno 6908 bound_to 6896
  152.5113  134.3855  159.9418 H   0  0  0  0  0  0  0  0  0  0  0  0  # atno 6909 bound_to 6896
  145.1665  139.3125  143.4490 H   0  0  0  0  0  0  0  0  0  0  0  0  # atno 7974 bound_to 7965
  156.2064  140.1762  156.7791 H   0  0  0  0  0  0  0  0  0  0  0  0  # atno 8008 bound_to 7997
  154.5660  140.0691  156.8923 H   0  0  0  0  0  0  0  0  0  0  0  0  # atno 8009 bound_to 7997
  155.2759  140.3345  155.4264 H   0  0  0  0  0  0  0  0  0  0  0  0  # atno 8010 bound_to 7997
  140.2259  143.3642  152.0929 H   0  0  0  0  0  0  0  0  0  0  0  0  # atno 10167 bound_to 10162
  156.2269  130.7013  151.0817 H   0  0  0  0  0  0  0  0  0  0  0  0  # atno 10718 bound_to 10713
  153.0277  135.5218  154.7258 H   0  0  0  0  0  0  0  0  0  0  0  0  # atno 10763 bound_to 10752
  154.6300  135.2899  155.0229 H   0  0  0  0  0  0  0  0  0  0  0  0  # atno 10764 bound_to 10752
  154.1185  135.6611  153.4951 H   0  0  0  0  0  0  0  0  0  0  0  0  # atno 10765 bound_to 10752
  140.5073  134.0687  155.7809 H   0  0  0  0  0  0  0  0  0  0  0  0  # atno 11005 bound_to 11000
  146.3475  140.1795  142.8589 LP  0  0  0  0  0  0  0  0  0  0  0  0  # atno 17320 bound_to 7965
  145.0277  140.8845  143.5129 LP  0  0  0  0  0  0  0  0  0  0  0  0  # atno 17321 bound_to 7965
  139.5127  144.6921  151.5731 LP  0  0  0  0  0  0  0  0  0  0  0  0  # atno 17342 bound_to 10162
  140.6221  143.9239  150.6534 LP  0  0  0  0  0  0  0  0  0  0  0  0  # atno 17343 bound_to 10162
  157.7115  131.0732  150.6484 LP  0  0  0  0  0  0  0  0  0  0  0  0  # atno 17370 bound_to 10713
  156.6550  130.4496  149.5707 LP  0  0  0  0  0  0  0  0  0  0  0  0  # atno 17371 bound_to 10713
  141.1404  133.9148  157.2338 LP  0  0  0  0  0  0  0  0  0  0  0  0  # atno 17394 bound_to 11000
  139.9679  135.0137  156.9435 LP  0  0  0  0  0  0  0  0  0  0  0  0  # atno 17395 bound_to 11000

$$$$
