AV-unprocessed.smi:1198|AV-procd|sdf|5010|dock4
  -GOLD-   22720 4 23D 1   1.00000     0.00000
 Structure written by MMmdl.
 40 41  0  0  0  0  0  0  0  0  2 V2000
  150.8623  142.0513  158.0473 C   0  0  0  0  0  0  0  0  0  0  0  0
  150.8967  141.8582  156.6376 O   0  0  0  0  0  0  0  0  0  0  0  0
  150.5395  140.6232  156.1362 C   0  0  0  0  0  0  0  0  0  0  0  0
  150.4811  139.5282  157.0209 C   0  0  0  0  0  0  0  0  0  0  0  0
  150.1164  138.2644  156.5186 C   0  0  0  0  0  0  0  0  0  0  0  0
  149.8275  138.1340  155.1390 C   0  0  0  0  0  0  0  0  0  0  0  0
  149.4268  136.9217  154.5148 N   0  0  0  0  0  0  0  0  0  0  0  0
  149.1075  135.7489  155.0881 C   0  0  0  0  0  0  0  0  0  0  0  0
  149.1652  135.5044  156.2929 O   0  0  0  0  0  0  0  0  0  0  0  0
  148.7244  134.8496  154.1707 N   0  0  0  0  0  0  0  0  0  0  0  0
  148.3323  133.4728  154.4551 C   0  0  0  0  0  0  0  0  0  0  0  0
  147.9615  132.6892  153.1802 C   0  0  2  0  0  0  0  0  0  0  0  0
  146.8029  133.2981  152.3930 C   0  0  0  0  0  0  0  0  0  0  0  0
  146.2659  132.1350  151.5496 C   0  0  0  0  0  0  0  0  0  0  0  0
  146.7534  130.8879  152.1843 N   0  3  2  0  0  0  0  0  0  0  0  0
  145.7192  129.8492  152.3713 C   0  0  0  0  0  0  0  0  0  0  0  0
  147.4696  131.2610  153.4213 C   0  0  0  0  0  0  0  0  0  0  0  0
  149.9036  139.2943  154.3410 C   0  0  0  0  0  0  0  0  0  0  0  0
  150.2529  140.5084  154.8159 N   0  0  0  0  0  0  0  0  0  0  0  0
  151.1696  143.0709  158.2794 H   0  0  0  0  0  0  0  0  0  0  0  0
  151.5477  141.3749  158.5599 H   0  0  0  0  0  0  0  0  0  0  0  0
  149.8561  141.9107  158.4444 H   0  0  0  0  0  0  0  0  0  0  0  0
  150.7076  139.6564  158.0692 H   0  0  0  0  0  0  0  0  0  0  0  0
  150.0525  137.4318  157.2016 H   0  0  0  0  0  0  0  0  0  0  0  0
  149.4195  136.9391  153.5053 H   0  0  0  0  0  0  0  0  0  0  0  0
  148.7182  135.1337  153.2017 H   0  0  0  0  0  0  0  0  0  0  0  0
  149.1652  132.9867  154.9639 H   0  0  0  0  0  0  0  0  0  0  0  0
  147.4974  133.4681  155.1575 H   0  0  0  0  0  0  0  0  0  0  0  0
  148.8278  132.6452  152.5178 H   0  0  0  0  0  0  0  0  0  0  0  0
  146.0249  133.6395  153.0776 H   0  0  0  0  0  0  0  0  0  0  0  0
  147.1081  134.1512  151.7862 H   0  0  0  0  0  0  0  0  0  0  0  0
  145.1774  132.1722  151.4843 H   0  0  0  0  0  0  0  0  0  0  0  0
  146.6589  132.1790  150.5335 H   0  0  0  0  0  0  0  0  0  0  0  0
  144.9233  130.2014  153.0287 H   0  0  0  0  0  0  0  0  0  0  0  0
  146.1563  128.9519  152.8103 H   0  0  0  0  0  0  0  0  0  0  0  0
  145.2772  129.5754  151.4127 H   0  0  0  0  0  0  0  0  0  0  0  0
  148.2829  130.5666  153.6344 H   0  0  0  0  0  0  0  0  0  0  0  0
  146.7804  131.2440  154.2675 H   0  0  0  0  0  0  0  0  0  0  0  0
  149.6795  139.2487  153.2852 H   0  0  0  0  0  0  0  0  0  0  0  0
  147.4486  130.5097  151.5563 H   0  0  0  0  0  0  0  0  0  0  0  0
  1  2  1  0  0  0  0
  1 20  1  0  0  0  0
  1 21  1  0  0  0  0
  1 22  1  0  0  0  0
  2  3  1  0  0  0  0
  3 19  1  0  0  0  0
  3  4  2  0  0  0  0
  4  5  1  0  0  0  0
  4 23  1  0  0  0  0
  5  6  2  0  0  0  0
  5 24  1  0  0  0  0
  6  7  1  0  0  0  0
  6 18  1  0  0  0  0
  7  8  1  0  0  0  0
  7 25  1  0  0  0  0
  8  9  2  0  0  0  0
  8 10  1  0  0  0  0
 10 11  1  0  0  0  0
 10 26  1  0  0  0  0
 11 12  1  0  0  0  0
 11 27  1  0  0  0  0
 11 28  1  0  0  0  0
 12 17  1  0  0  0  0
 12 13  1  0  0  0  0
 12 29  1  0  0  0  0
 13 14  1  0  0  0  0
 13 30  1  0  0  0  0
 13 31  1  0  0  0  0
 14 15  1  0  0  0  0
 14 32  1  0  0  0  0
 14 33  1  0  0  0  0
 15 16  1  0  0  0  0
 15 17  1  0  0  0  0
 15 40  1  0  0  0  0
 16 34  1  0  0  0  0
 16 35  1  0  0  0  0
 16 36  1  0  0  0  0
 17 37  1  0  0  0  0
 17 38  1  0  0  0  0
 18 19  2  0  0  0  0
 18 39  1  0  0  0  0
M  CHG  1  15   1
M  END
> <s_m_source_file>
AV-unprocessed.smi

> <i_m_source_file_index>
1198

> <i_lp_mmshare_version>
43012

> <i_f3d_flags>
0

> <s_epik_input>
W0NIM11PYzFbY0hdW2NIXWMoW2NIXW4xKVtOSF1DKD1PKVtOSF1bQ0gyXVtDQEBIXTJbQ0gyXVtDSDJdTihbQ0gzXSlbQ0gyXTI=

> <s_epik_cmdline>
J2VwaWtfcHl0aG9uJywgJy1waCcsICc3LjAnLCAnLXRuJywgJzgnLCAnLW1hJywgJzIwMCcsICctbWV0YWxfYmluZGluZycsICctaW1hZScsICc8aW5maWxlLm1hZT4nLCAnLW9tYWUnLCAnPG91dGZpbGUubWFlPic=

> <r_lp_tautomer_probability>
1

> <r_epik_Ionization_Penalty>
0.00131396

> <r_epik_Ionization_Penalty_Charging>
0.0012301

> <r_epik_Ionization_Penalty_Neutral>
8.38549e-05

> <r_epik_State_Penalty>
0.00081314

> <r_epik_Charging_Adjusted_Penalty>
0.00204324

> <i_epik_Tot_Q>
1

> <i_epik_Tot_abs_Q>
1

> <r_epik_Metal_State_Penalty>
-0

> <b_epik_Metal_Only>
0

> <s_lp_Force_Field>
OPLS_2005

> <r_lp_Energy>
30.1161

> <b_lp_Chiralities_Consistent>
1

> <s_lp_Variant>
AV-unprocessed.smi:1198-1

> <Gold.Version>
5.8.1

> <Gold.Id.Protein>
6NUR|6NUR_protein|mol2

> <Gold.PLP.Fitness>
43.2894

> <Gold.PLP.PLP>
-28.9406

> <Gold.PLP.part.hbond>
-4.0000

> <Gold.PLP.part.metal>
0.0000

> <Gold.PLP.part.buried>
-1.6243

> <Gold.PLP.part.nonpolar>
-23.0421

> <Gold.PLP.part.repulsive>
0.2045

> <Gold.PLP.ligand.clash>
0.0000

> <Gold.PLP.ligand.torsion>
0.2210

> <Gold.PLP.Chemscore.Hbond>
3.9260

> <Gold.PLP.Chemscore.CHOScore>
1.0000

> <Gold.PLP.Chemscore.Metal>
0.0000

> <Gold.Chemscore.Hbonds>
donor molecule, donor type, donor heavy atom, donor atom, acceptor molecule, acceptor atom, score
      L1  H     7    25       P1  7948  1.00
      L1  H    10    26       P1  7948  1.00
      L1  H    15    40       P1 10747  0.98
      P1  H  7989  7998       L1    19  0.82
      L1  C    18    39       P1  7957  1.00

> <Gold.PLP.Chemscore.Internal.Correction>
0.0128

> <Gold.Rescore>
     Score         DG    S(hbond)    S(metal)    S(lipo)     H(rot)  DE(clash)    DE(int)     intcor
     16.90     -18.26       2.76        0.00      63.50       1.51       0.04       1.33       ----

> <Gold.Chemscore.Fitness>
16.8969

> <Gold.Chemscore.DG>
-18.2602

> <Gold.Chemscore.ZeroCoef>
-5.4800

> <Gold.Chemscore.Hbond>
2.7630

> <Gold.Chemscore.Metal>
0.0000

> <Gold.Chemscore.Lipo>
63.5044

> <Gold.Chemscore.Internal_Hbond>
0.0000

> <Gold.Chemscore.DEClash>
0.0354

> <Gold.Chemscore.DEInternal>
1.3280

> <Gold.Chemscore.Rot>
1.5149

> <Gold.Chemscore.Internal.Correction>
   9.000000E+99

> <Gold.Chemscore.Hbonds>
donor molecule, donor type, donor heavy atom, donor atom, acceptor molecule, acceptor atom, score
      L1  H     7    25       P1  7948  0.90
      L1  H    10    26       P1  7948  0.65
      L1  H    15    40       P1 10747  0.88
      P1  H  7989  7998       L1    19  0.13

> <Gold.Chemscore.Hbond.Weighted>
-9.2283

> <Gold.Chemscore.Metal.Weighted>
-0.0000

> <Gold.Chemscore.Lipo.Weighted>
-7.4300

> <Gold.Chemscore.Internal_Hbond.Weighted>
0.0000

> <Gold.Chemscore.DEClash.Weighted>
0.0354

> <Gold.Chemscore.DEInternal.Weighted>
1.3280

> <Gold.Chemscore.Rot.Weighted>
3.8781

> <Gold.Chemscore.Internal.Correction.Weighted>
   9.000000E+99

> <Gold.Protein.RotatedTorsions>
[ 6907 6896 6895 6894 ] final -176.05 input  -60.11 | X-H torsion
[ 7974 7965 7964 7962 ] final  -45.23 input  175.53 | X-H torsion
[ 8008 7997 7996 7995 ] final  158.12 input   59.86 | X-H torsion
[ 10167 10162 10161 10158 ] final  126.15 input  -65.29 | X-H torsion
[ 10718 10713 10712 10709 ] final  -10.04 input   66.30 | X-H torsion
[ 10763 10752 10751 10750 ] final  123.30 input  -60.55 | X-H torsion
[ 11005 11000 10999 10996 ] final -176.93 input  -57.11 | X-H torsion

> <Gold.Protein.ActiveResidues>
 VAL166  LYS551  ARG553  GLY616  TRP617  ASP618  TYR619  PRO620  LYS621  CYS622 
 ASP623  PHE694  ASN695  SER759  ASP760  ASP761  ALA762  ILE779  LEU786  VAL792 
 PHE793  MET794  SER795  GLU796  ALA797  LYS798  CYS799  TRP800  GLU811  SER814 

> <Gold.Protein.RotatedAtoms>
  151.5986  133.3359  159.3042 H   0  0  0  0  0  0  0  0  0  0  0  0  # atno 6907 bound_to 6896
  150.8220  134.7436  159.6792 H   0  0  0  0  0  0  0  0  0  0  0  0  # atno 6908 bound_to 6896
  152.4313  134.5778  159.9991 H   0  0  0  0  0  0  0  0  0  0  0  0  # atno 6909 bound_to 6896
  145.9841  140.7252  142.9349 H   0  0  0  0  0  0  0  0  0  0  0  0  # atno 7974 bound_to 7965
  156.2322  140.1867  156.7212 H   0  0  0  0  0  0  0  0  0  0  0  0  # atno 8008 bound_to 7997
  154.6043  140.0631  156.9438 H   0  0  0  0  0  0  0  0  0  0  0  0  # atno 8009 bound_to 7997
  155.2122  140.3301  155.4330 H   0  0  0  0  0  0  0  0  0  0  0  0  # atno 8010 bound_to 7997
  139.5646  144.6903  151.3945 H   0  0  0  0  0  0  0  0  0  0  0  0  # atno 10167 bound_to 10162
  156.6792  130.5032  149.5976 H   0  0  0  0  0  0  0  0  0  0  0  0  # atno 10718 bound_to 10713
  153.6434  135.3375  155.3078 H   0  0  0  0  0  0  0  0  0  0  0  0  # atno 10763 bound_to 10752
  154.8554  135.4323  154.1981 H   0  0  0  0  0  0  0  0  0  0  0  0  # atno 10764 bound_to 10752
  153.2905  135.7016  153.7372 H   0  0  0  0  0  0  0  0  0  0  0  0  # atno 10765 bound_to 10752
  140.4466  134.6382  157.4782 H   0  0  0  0  0  0  0  0  0  0  0  0  # atno 11005 bound_to 11000
  144.6870  140.2959  143.7271 LP  0  0  0  0  0  0  0  0  0  0  0  0  # atno 17320 bound_to 7965
  145.7726  139.1862  143.2203 LP  0  0  0  0  0  0  0  0  0  0  0  0  # atno 17321 bound_to 7965
  140.6929  143.7819  150.7282 LP  0  0  0  0  0  0  0  0  0  0  0  0  # atno 17342 bound_to 10162
  140.1306  143.4529  152.2256 LP  0  0  0  0  0  0  0  0  0  0  0  0  # atno 17343 bound_to 10162
  156.1880  130.6542  151.1029 LP  0  0  0  0  0  0  0  0  0  0  0  0  # atno 17370 bound_to 10713
  157.7050  131.0760  150.6698 LP  0  0  0  0  0  0  0  0  0  0  0  0  # atno 17371 bound_to 10713
  140.0034  134.6801  155.9493 LP  0  0  0  0  0  0  0  0  0  0  0  0  # atno 17394 bound_to 11000
  141.1682  133.6537  156.4556 LP  0  0  0  0  0  0  0  0  0  0  0  0  # atno 17395 bound_to 11000

$$$$
