AV-unprocessed.smi:2515|AV-procd|sdf|9897|dock4
  -GOLD-   2272013533D 1   1.00000     0.00000
 Structure written by MMmdl.
 36 37  0  0  0  0  0  0  0  0  1 V2000
  148.1786  136.3275  160.2823 N   0  0  0  0  0  0  0  0  0  0  0  0
  148.4130  136.2252  159.1540 C   0  0  0  0  0  0  0  0  0  0  0  0
  148.6983  136.0959  157.7649 C   0  0  0  0  0  0  0  0  0  0  0  0
  148.5451  137.1601  156.8777 N   0  0  0  0  0  0  0  0  0  0  0  0
  148.9027  136.6756  155.6913 C   0  0  0  0  0  0  0  0  0  0  0  0
  148.9123  137.4062  154.5123 N   0  0  0  0  0  0  0  0  0  0  0  0
  149.2751  135.3804  155.7086 N   0  0  0  0  0  0  0  0  0  0  0  0
  149.7239  134.5524  154.5958 C   0  0  0  0  0  0  0  0  0  0  0  0
  148.6942  133.4617  154.2569 C   0  0  0  0  0  0  0  0  0  0  0  0
  148.0870  133.6895  152.9517 N   0  0  0  0  0  0  0  0  0  0  0  0
  147.4585  132.7514  152.2262 C   0  0  0  0  0  0  0  0  0  0  0  0
  147.3367  131.5846  152.6016 O   0  0  0  0  0  0  0  0  0  0  0  0
  146.8756  133.2076  150.8771 C   0  0  0  0  0  0  0  0  0  0  0  0
  145.7966  134.2887  151.0445 C   0  0  0  0  0  0  0  0  0  0  0  0
  144.4559  133.5521  151.1793 C   0  0  0  0  0  0  0  0  0  0  0  0
  144.6829  132.1277  150.6530 C   0  0  0  0  0  0  0  0  0  0  0  0
  146.1309  132.0781  150.1505 C   0  0  0  0  0  0  0  0  0  0  0  0
  149.1491  135.0104  157.0448 C   0  0  0  0  0  0  0  0  0  0  0  0
  149.4474  133.7289  157.5554 C   0  0  0  0  0  0  0  0  0  0  0  0
  149.6923  132.6794  157.9752 N   0  0  0  0  0  0  0  0  0  0  0  0
  148.6382  138.3781  154.4954 H   0  0  0  0  0  0  0  0  0  0  0  0
  149.1819  136.9899  153.6328 H   0  0  0  0  0  0  0  0  0  0  0  0
  149.9032  135.1961  153.7340 H   0  0  0  0  0  0  0  0  0  0  0  0
  150.6877  134.1056  154.8417 H   0  0  0  0  0  0  0  0  0  0  0  0
  149.1766  132.4840  154.2462 H   0  0  0  0  0  0  0  0  0  0  0  0
  147.9175  133.4147  155.0227 H   0  0  0  0  0  0  0  0  0  0  0  0
  148.1462  134.6240  152.5738 H   0  0  0  0  0  0  0  0  0  0  0  0
  147.6896  133.5826  150.2543 H   0  0  0  0  0  0  0  0  0  0  0  0
  145.9825  134.9501  151.8923 H   0  0  0  0  0  0  0  0  0  0  0  0
  145.7780  134.9160  150.1523 H   0  0  0  0  0  0  0  0  0  0  0  0
  144.1454  133.5157  152.2245 H   0  0  0  0  0  0  0  0  0  0  0  0
  143.6695  134.0658  150.6253 H   0  0  0  0  0  0  0  0  0  0  0  0
  144.5439  131.4109  151.4633 H   0  0  0  0  0  0  0  0  0  0  0  0
  143.9767  131.8654  149.8644 H   0  0  0  0  0  0  0  0  0  0  0  0
  146.1494  132.2704  149.0769 H   0  0  0  0  0  0  0  0  0  0  0  0
  146.5827  131.0972  150.3063 H   0  0  0  0  0  0  0  0  0  0  0  0
  1  2  3  0  0  0  0
  2  3  1  0  0  0  0
  3 18  2  0  0  0  0
  3  4  1  0  0  0  0
  4  5  2  0  0  0  0
  5  6  1  0  0  0  0
  5  7  1  0  0  0  0
  6 21  1  0  0  0  0
  6 22  1  0  0  0  0
  7  8  1  0  0  0  0
  7 18  1  0  0  0  0
  8  9  1  0  0  0  0
  8 23  1  0  0  0  0
  8 24  1  0  0  0  0
  9 10  1  0  0  0  0
  9 25  1  0  0  0  0
  9 26  1  0  0  0  0
 10 11  1  0  0  0  0
 10 27  1  0  0  0  0
 11 12  2  0  0  0  0
 11 13  1  0  0  0  0
 13 17  1  0  0  0  0
 13 14  1  0  0  0  0
 13 28  1  0  0  0  0
 14 15  1  0  0  0  0
 14 29  1  0  0  0  0
 14 30  1  0  0  0  0
 15 16  1  0  0  0  0
 15 31  1  0  0  0  0
 15 32  1  0  0  0  0
 16 17  1  0  0  0  0
 16 33  1  0  0  0  0
 16 34  1  0  0  0  0
 17 35  1  0  0  0  0
 17 36  1  0  0  0  0
 18 19  1  0  0  0  0
 19 20  3  0  0  0  0
M  END
> <s_m_source_file>
AV-unprocessed.smi

> <i_m_source_file_index>
2515

> <i_lp_mmshare_version>
43012

> <i_f3d_flags>
0

> <s_epik_input>
TiNDYzFuYyhbTkgyXSluKGMxQyNOKVtDSDJdW0NIMl1bTkhdQyg9TylbQ0hdMltDSDJdW0NIMl1bQ0gyXVtDSDJdMg==

> <s_epik_cmdline>
J2VwaWtfcHl0aG9uJywgJy1waCcsICc3LjAnLCAnLXRuJywgJzgnLCAnLW1hJywgJzIwMCcsICctbWV0YWxfYmluZGluZycsICctaW1hZScsICc8aW5maWxlLm1hZT4nLCAnLW9tYWUnLCAnPG91dGZpbGUubWFlPic=

> <r_lp_tautomer_probability>
1

> <r_epik_Ionization_Penalty>
0.000275801

> <r_epik_Ionization_Penalty_Charging>
2.18328e-09

> <r_epik_Ionization_Penalty_Neutral>
0.000275798

> <r_epik_State_Penalty>
-0

> <r_epik_Charging_Adjusted_Penalty>
2.18328e-09

> <i_epik_Tot_Q>
0

> <i_epik_Tot_abs_Q>
0

> <r_epik_Metal_State_Penalty>
-0

> <b_epik_Metal_Only>
0

> <s_lp_Force_Field>
OPLS_2005

> <r_lp_Energy>
23.1048

> <b_lp_Chiralities_Consistent>
1

> <s_lp_Variant>
AV-unprocessed.smi:2515-1

> <Gold.Version>
5.8.1

> <Gold.Id.Protein>
6NUR|6NUR_protein|mol2

> <Gold.PLP.Fitness>
38.7597

> <Gold.PLP.PLP>
-28.0216

> <Gold.PLP.part.hbond>
-5.0000

> <Gold.PLP.part.metal>
0.0000

> <Gold.PLP.part.buried>
-4.2223

> <Gold.PLP.part.nonpolar>
-19.3186

> <Gold.PLP.part.repulsive>
0.1125

> <Gold.PLP.ligand.clash>
0.0000

> <Gold.PLP.ligand.torsion>
0.5870

> <Gold.PLP.Chemscore.Hbond>
3.9628

> <Gold.PLP.Chemscore.CHOScore>
0.0000

> <Gold.PLP.Chemscore.Metal>
0.0000

> <Gold.Chemscore.Hbonds>
donor molecule, donor type, donor heavy atom, donor atom, acceptor molecule, acceptor atom, score
      L1  H     6    22       P1  7948  1.00
      L1  H    10    27       P1  7948  1.00
      P1  H  6896  6909       L1    20  0.30

> <Gold.PLP.Chemscore.Internal.Correction>
0.0238

> <Gold.Rescore>
     Score         DG    S(hbond)    S(metal)    S(lipo)     H(rot)  DE(clash)    DE(int)     intcor
     16.97     -18.21       3.73        0.00      51.16       2.23       0.50       0.75       ----

> <Gold.Chemscore.Fitness>
16.9715

> <Gold.Chemscore.DG>
-18.2132

> <Gold.Chemscore.ZeroCoef>
-5.4800

> <Gold.Chemscore.Hbond>
3.7270

> <Gold.Chemscore.Metal>
0.0000

> <Gold.Chemscore.Lipo>
51.1573

> <Gold.Chemscore.Internal_Hbond>
0.0000

> <Gold.Chemscore.DEClash>
0.4952

> <Gold.Chemscore.DEInternal>
0.7465

> <Gold.Chemscore.Rot>
2.2267

> <Gold.Chemscore.Internal.Correction>
   9.000000E+99

> <Gold.Chemscore.Hbonds>
donor molecule, donor type, donor heavy atom, donor atom, acceptor molecule, acceptor atom, score
      L1  H     6    22       P1  7948  0.98
      L1  H    10    27       P1  7948  0.44

> <Gold.Chemscore.Hbond.Weighted>
-12.4482

> <Gold.Chemscore.Metal.Weighted>
-0.0000

> <Gold.Chemscore.Lipo.Weighted>
-5.9854

> <Gold.Chemscore.Internal_Hbond.Weighted>
0.0000

> <Gold.Chemscore.DEClash.Weighted>
0.4952

> <Gold.Chemscore.DEInternal.Weighted>
0.7465

> <Gold.Chemscore.Rot.Weighted>
5.7004

> <Gold.Chemscore.Internal.Correction.Weighted>
   9.000000E+99

> <Gold.Protein.RotatedTorsions>
[ 6907 6896 6895 6894 ] final  -12.21 input  -60.11 | X-H torsion
[ 7974 7965 7964 7962 ] final -175.78 input  175.53 | X-H torsion
[ 8008 7997 7996 7995 ] final  165.65 input   59.86 | X-H torsion
[ 10167 10162 10161 10158 ] final  -42.02 input  -65.29 | X-H torsion
[ 10718 10713 10712 10709 ] final   23.79 input   66.30 | X-H torsion
[ 10763 10752 10751 10750 ] final   19.18 input  -60.55 | X-H torsion
[ 11005 11000 10999 10996 ] final   51.73 input  -57.11 | X-H torsion

> <Gold.Protein.ActiveResidues>
 VAL166  LYS551  ARG553  GLY616  TRP617  ASP618  TYR619  PRO620  LYS621  CYS622 
 ASP623  PHE694  ASN695  SER759  ASP760  ASP761  ALA762  ILE779  LEU786  VAL792 
 PHE793  MET794  SER795  GLU796  ALA797  LYS798  CYS799  TRP800  GLU811  SER814 

> <Gold.Protein.RotatedAtoms>
  151.3741  135.0928  159.9474 H   0  0  0  0  0  0  0  0  0  0  0  0  # atno 6907 bound_to 6896
  152.5127  133.9136  159.7510 H   0  0  0  0  0  0  0  0  0  0  0  0  # atno 6908 bound_to 6896
  150.9555  133.6447  159.2793 H   0  0  0  0  0  0  0  0  0  0  0  0  # atno 6909 bound_to 6896
  144.7127  140.1269  143.6401 H   0  0  0  0  0  0  0  0  0  0  0  0  # atno 7974 bound_to 7965
  156.1783  140.1664  156.8322 H   0  0  0  0  0  0  0  0  0  0  0  0  # atno 8008 bound_to 7997
  154.5331  140.0752  156.8414 H   0  0  0  0  0  0  0  0  0  0  0  0  # atno 8009 bound_to 7997
  155.3366  140.3382  155.4241 H   0  0  0  0  0  0  0  0  0  0  0  0  # atno 8010 bound_to 7997
  140.6983  143.3061  151.3150 H   0  0  0  0  0  0  0  0  0  0  0  0  # atno 10167 bound_to 10162
  157.1710  130.6759  149.6078 H   0  0  0  0  0  0  0  0  0  0  0  0  # atno 10718 bound_to 10713
  153.1185  135.6713  153.9377 H   0  0  0  0  0  0  0  0  0  0  0  0  # atno 10763 bound_to 10752
  153.8899  135.3048  155.3448 H   0  0  0  0  0  0  0  0  0  0  0  0  # atno 10764 bound_to 10752
  154.7599  135.4993  153.9522 H   0  0  0  0  0  0  0  0  0  0  0  0  # atno 10765 bound_to 10752
  140.0908  134.5211  155.8854 H   0  0  0  0  0  0  0  0  0  0  0  0  # atno 11005 bound_to 11000
  145.9321  139.2613  143.1319 LP  0  0  0  0  0  0  0  0  0  0  0  0  # atno 17320 bound_to 7965
  145.9512  140.8907  143.0258 LP  0  0  0  0  0  0  0  0  0  0  0  0  # atno 17321 bound_to 7965
  139.6467  144.0438  152.2596 LP  0  0  0  0  0  0  0  0  0  0  0  0  # atno 17342 bound_to 10162
  139.9961  144.6327  150.7771 LP  0  0  0  0  0  0  0  0  0  0  0  0  # atno 17343 bound_to 10162
  155.9738  130.4679  150.6341 LP  0  0  0  0  0  0  0  0  0  0  0  0  # atno 17370 bound_to 10713
  157.4043  131.0814  151.1279 LP  0  0  0  0  0  0  0  0  0  0  0  0  # atno 17371 bound_to 10713
  141.2077  133.6667  156.6324 LP  0  0  0  0  0  0  0  0  0  0  0  0  # atno 17394 bound_to 11000
  140.3355  134.7893  157.4358 LP  0  0  0  0  0  0  0  0  0  0  0  0  # atno 17395 bound_to 11000

$$$$
