AV-unprocessed.smi:290|AV-procd|sdf|2234|dock1
  -GOLD-   2262022103D 1   1.00000     0.00000
 Structure written by MMmdl.
 59 62  0  0  0  0  0  0  0  0  2 V2000
  152.2225  139.8498  158.0539 C   0  0  0  0  0  0  0  0  0  0  0  0
  151.9242  140.8216  159.2061 C   0  0  1  0  0  0  0  0  0  0  0  0
  153.0861  140.8987  160.0272 O   0  0  0  0  0  0  0  0  0  0  0  0
  153.1128  142.1688  160.6528 C   0  0  0  0  0  0  0  0  0  0  0  0
  152.6770  143.0925  159.5259 C   0  0  0  0  0  0  0  0  0  0  0  0
  151.5850  142.2902  158.8207 C   0  0  2  0  0  0  0  0  0  0  0  0
  150.3465  142.6179  159.4278 O   0  0  0  0  0  0  0  0  0  0  0  0
  151.4743  142.5971  157.3038 C   0  0  0  0  0  0  0  0  0  0  0  0
  150.3941  141.8779  156.6445 N   0  0  0  0  0  0  0  0  0  0  0  0
  149.0469  142.1273  156.7624 C   0  0  0  0  0  0  0  0  0  0  0  0
  148.2747  141.3360  156.0709 N   0  0  0  0  0  0  0  0  0  0  0  0
  149.1509  140.4810  155.4093 C   0  0  0  0  0  0  0  0  0  0  0  0
  149.0005  139.3866  154.5034 C   0  0  0  0  0  0  0  0  0  0  0  0
  147.8199  138.9031  154.0313 N   0  0  0  0  0  0  0  0  0  0  0  0
  147.1306  139.5949  152.9544 C   0  0  0  0  0  0  0  0  0  0  0  0
  146.4833  138.4909  152.1292 C   0  0  0  0  0  0  0  0  0  0  0  0
  146.2050  137.3709  153.1449 C   0  0  1  0  0  0  0  0  0  0  0  0
  146.0817  136.0382  152.4781 N   0  3  1  0  0  0  0  0  0  0  0  0
  146.0147  134.8833  153.4063 C   0  0  0  0  0  0  0  0  0  0  0  0
  144.9847  135.9872  151.4734 C   0  0  0  0  0  0  0  0  0  0  0  0
  144.9990  134.6708  150.6792 C   0  0  0  0  0  0  0  0  0  0  0  0
  144.0803  134.7474  149.6097 O   0  0  0  0  0  0  0  0  0  0  0  0
  147.3951  137.5092  154.1307 C   0  0  2  0  0  0  0  0  0  0  0  0
  147.0249  137.1711  155.5915 C   0  0  0  0  0  0  0  0  0  0  0  0
  150.1370  138.7766  154.0755 N   0  0  0  0  0  0  0  0  0  0  0  0
  151.3348  139.1981  154.4885 C   0  0  0  0  0  0  0  0  0  0  0  0
  151.6231  140.1980  155.3214 N   0  0  0  0  0  0  0  0  0  0  0  0
  150.4911  140.8147  155.7637 C   0  0  0  0  0  0  0  0  0  0  0  0
  145.2761  137.5977  153.6718 H   0  0  0  0  0  0  0  0  0  0  0  0
  148.2115  136.8791  153.7805 H   0  0  0  0  0  0  0  0  0  0  0  0
  151.3630  139.7417  157.3921 H   0  0  0  0  0  0  0  0  0  0  0  0
  152.4615  138.8590  158.4407 H   0  0  0  0  0  0  0  0  0  0  0  0
  153.0742  140.1805  157.4595 H   0  0  0  0  0  0  0  0  0  0  0  0
  151.1238  140.3954  159.8143 H   0  0  0  0  0  0  0  0  0  0  0  0
  152.4019  142.1911  161.4802 H   0  0  0  0  0  0  0  0  0  0  0  0
  154.1039  142.4089  161.0373 H   0  0  0  0  0  0  0  0  0  0  0  0
  152.3514  144.0731  159.8759 H   0  0  0  0  0  0  0  0  0  0  0  0
  153.5236  143.2441  158.8552 H   0  0  0  0  0  0  0  0  0  0  0  0
  149.9876  143.3746  158.9900 H   0  0  0  0  0  0  0  0  0  0  0  0
  151.3030  143.6616  157.1427 H   0  0  0  0  0  0  0  0  0  0  0  0
  152.4079  142.3539  156.7951 H   0  0  0  0  0  0  0  0  0  0  0  0
  148.6510  142.9157  157.3863 H   0  0  0  0  0  0  0  0  0  0  0  0
  146.3748  140.2524  153.3853 H   0  0  0  0  0  0  0  0  0  0  0  0
  147.8013  140.1985  152.3412 H   0  0  0  0  0  0  0  0  0  0  0  0
  145.5930  138.8473  151.6114 H   0  0  0  0  0  0  0  0  0  0  0  0
  147.1923  138.1439  151.3756 H   0  0  0  0  0  0  0  0  0  0  0  0
  145.1713  134.9815  154.0908 H   0  0  0  0  0  0  0  0  0  0  0  0
  146.9313  134.7836  153.9865 H   0  0  0  0  0  0  0  0  0  0  0  0
  145.8923  133.9469  152.8627 H   0  0  0  0  0  0  0  0  0  0  0  0
  144.0247  136.1143  151.9764 H   0  0  0  0  0  0  0  0  0  0  0  0
  145.0478  136.8112  150.7640 H   0  0  0  0  0  0  0  0  0  0  0  0
  145.9909  134.4351  150.2944 H   0  0  0  0  0  0  0  0  0  0  0  0
  144.7037  133.8441  151.3257 H   0  0  0  0  0  0  0  0  0  0  0  0
  144.5483  134.9941  148.8260 H   0  0  0  0  0  0  0  0  0  0  0  0
  146.7206  136.1344  155.7172 H   0  0  0  0  0  0  0  0  0  0  0  0
  146.2031  137.7967  155.9410 H   0  0  0  0  0  0  0  0  0  0  0  0
  147.8622  137.3360  156.2687 H   0  0  0  0  0  0  0  0  0  0  0  0
  152.1831  138.6571  154.0954 H   0  0  0  0  0  0  0  0  0  0  0  0
  146.9373  135.9257  151.9525 H   0  0  0  0  0  0  0  0  0  0  0  0
  1  2  1  0  0  0  0
  1 31  1  0  0  0  0
  1 32  1  0  0  0  0
  1 33  1  0  0  0  0
  2  6  1  0  0  0  0
  2  3  1  0  0  0  0
  2 34  1  0  0  0  0
  3  4  1  0  0  0  0
  4  5  1  0  0  0  0
  4 35  1  0  0  0  0
  4 36  1  0  0  0  0
  5  6  1  0  0  0  0
  5 37  1  0  0  0  0
  5 38  1  0  0  0  0
  6  7  1  0  0  0  0
  6  8  1  0  0  0  0
  7 39  1  0  0  0  0
  8  9  1  0  0  0  0
  8 40  1  0  0  0  0
  8 41  1  0  0  0  0
  9 28  1  0  0  0  0
  9 10  1  0  0  0  0
 10 11  2  0  0  0  0
 10 42  1  0  0  0  0
 11 12  1  0  0  0  0
 12 28  2  0  0  0  0
 12 13  1  0  0  0  0
 13 14  1  0  0  0  0
 13 25  2  0  0  0  0
 14 23  1  0  0  0  0
 14 15  1  0  0  0  0
 15 16  1  0  0  0  0
 15 43  1  0  0  0  0
 15 44  1  0  0  0  0
 16 17  1  0  0  0  0
 16 45  1  0  0  0  0
 16 46  1  0  0  0  0
 17 29  1  0  0  0  0
 17 18  1  0  0  0  0
 17 23  1  0  0  0  0
 18 19  1  0  0  0  0
 18 20  1  0  0  0  0
 18 59  1  0  0  0  0
 19 47  1  0  0  0  0
 19 48  1  0  0  0  0
 19 49  1  0  0  0  0
 20 21  1  0  0  0  0
 20 50  1  0  0  0  0
 20 51  1  0  0  0  0
 21 22  1  0  0  0  0
 21 52  1  0  0  0  0
 21 53  1  0  0  0  0
 22 54  1  0  0  0  0
 23 30  1  0  0  0  0
 23 24  1  0  0  0  0
 24 55  1  0  0  0  0
 24 56  1  0  0  0  0
 24 57  1  0  0  0  0
 25 26  1  0  0  0  0
 26 27  2  0  0  0  0
 26 58  1  0  0  0  0
 27 28  1  0  0  0  0
M  CHG  1  18   1
M  END
> <s_m_source_file>
AV-unprocessed.smi

> <i_m_source_file_index>
290

> <i_lp_mmshare_version>
43012

> <i_f3d_flags>
0

> <s_epik_input>
W0NIMl0xW0NIMl1PW0NAQEhdKFtDSDNdKVtDQEBdMShbT0hdKVtDSDJdbihbY0hdbjIpYyhjMjMpbltjSF1uYzNONFtDSDJdW0NIMl1bQ0BIXShbQ0BIXTRbQ0gzXSlOKFtDSDNdKVtDSDJdW0NIMl1bT0hd

> <s_epik_cmdline>
J2VwaWtfcHl0aG9uJywgJy1waCcsICc3LjAnLCAnLXRuJywgJzgnLCAnLW1hJywgJzIwMCcsICctbWV0YWxfYmluZGluZycsICctaW1hZScsICc8aW5maWxlLm1hZT4nLCAnLW9tYWUnLCAnPG91dGZpbGUubWFlPic=

> <r_lp_tautomer_probability>
1

> <r_epik_Ionization_Penalty>
0.0036983

> <r_epik_Ionization_Penalty_Charging>
0.0032725

> <r_epik_Ionization_Penalty_Neutral>
0.000425798

> <r_epik_State_Penalty>
-0

> <r_epik_Charging_Adjusted_Penalty>
0.0032725

> <i_epik_Tot_Q>
1

> <i_epik_Tot_abs_Q>
1

> <r_epik_Metal_State_Penalty>
-0

> <b_epik_Metal_Only>
0

> <s_lp_Force_Field>
OPLS_2005

> <r_lp_Energy>
60.3603

> <b_lp_Chiralities_Consistent>
1

> <s_lp_Variant>
AV-unprocessed.smi:290-20

> <Gold.Version>
5.8.1

> <Gold.Id.Protein>
6NUR|6NUR_protein|mol2

> <Gold.PLP.Fitness>
52.2813

> <Gold.PLP.PLP>
-44.6650

> <Gold.PLP.part.hbond>
-4.7559

> <Gold.PLP.part.metal>
0.0000

> <Gold.PLP.part.buried>
-0.4551

> <Gold.PLP.part.nonpolar>
-38.9505

> <Gold.PLP.part.repulsive>
0.3495

> <Gold.PLP.ligand.clash>
0.0000

> <Gold.PLP.ligand.torsion>
1.4337

> <Gold.PLP.Chemscore.Hbond>
2.9840

> <Gold.PLP.Chemscore.CHOScore>
0.3294

> <Gold.PLP.Chemscore.Metal>
0.0000

> <Gold.Chemscore.Hbonds>
donor molecule, donor type, donor heavy atom, donor atom, acceptor molecule, acceptor atom, score
      L1  H    18    59       P1  7948  1.95
      L1  H    22    54       P1  7921  1.00
      L1  C    10    42       P1  8028  0.32

> <Gold.PLP.Chemscore.Internal.Correction>
0.5434

> <Gold.Rescore>
     Score         DG    S(hbond)    S(metal)    S(lipo)     H(rot)  DE(clash)    DE(int)     intcor
      9.93     -14.57       1.94        0.00      95.78       3.35       1.97       2.68       ----

> <Gold.Chemscore.Fitness>
9.9291

> <Gold.Chemscore.DG>
-14.5749

> <Gold.Chemscore.ZeroCoef>
-5.4800

> <Gold.Chemscore.Hbond>
1.9370

> <Gold.Chemscore.Metal>
0.0000

> <Gold.Chemscore.Lipo>
95.7758

> <Gold.Chemscore.Internal_Hbond>
0.0000

> <Gold.Chemscore.DEClash>
1.9676

> <Gold.Chemscore.DEInternal>
2.6781

> <Gold.Chemscore.Rot>
3.3518

> <Gold.Chemscore.Internal.Correction>
   9.000000E+99

> <Gold.Chemscore.Hbonds>
donor molecule, donor type, donor heavy atom, donor atom, acceptor molecule, acceptor atom, score
      L1  H    18    59       P1  7948  0.88
      L1  H    22    54       P1  7921  0.93

> <Gold.Chemscore.Hbond.Weighted>
-6.4696

> <Gold.Chemscore.Metal.Weighted>
-0.0000

> <Gold.Chemscore.Lipo.Weighted>
-11.2058

> <Gold.Chemscore.Internal_Hbond.Weighted>
0.0000

> <Gold.Chemscore.DEClash.Weighted>
1.9676

> <Gold.Chemscore.DEInternal.Weighted>
2.6781

> <Gold.Chemscore.Rot.Weighted>
8.5806

> <Gold.Chemscore.Internal.Correction.Weighted>
   9.000000E+99

> <Gold.Protein.RotatedTorsions>
[ 6907 6896 6895 6894 ] final -166.50 input  -60.11 | X-H torsion
[ 7974 7965 7964 7962 ] final  -99.76 input  175.53 | X-H torsion
[ 8008 7997 7996 7995 ] final   66.14 input   59.86 | X-H torsion
[ 10167 10162 10161 10158 ] final  110.21 input  -65.29 | X-H torsion
[ 10718 10713 10712 10709 ] final -175.69 input   66.30 | X-H torsion
[ 10763 10752 10751 10750 ] final   29.36 input  -60.55 | X-H torsion
[ 11005 11000 10999 10996 ] final  165.39 input  -57.11 | X-H torsion

> <Gold.Protein.ActiveResidues>
 VAL166  LYS551  ARG553  GLY616  TRP617  ASP618  TYR619  PRO620  LYS621  CYS622 
 ASP623  PHE694  ASN695  SER759  ASP760  ASP761  ALA762  ILE779  LEU786  VAL792 
 PHE793  MET794  SER795  GLU796  ALA797  LYS798  CYS799  TRP800  GLU811  SER814 

> <Gold.Protein.RotatedAtoms>
  151.4446  133.3634  159.2786 H   0  0  0  0  0  0  0  0  0  0  0  0  # atno 6907 bound_to 6896
  150.9134  134.8552  159.7451 H   0  0  0  0  0  0  0  0  0  0  0  0  # atno 6908 bound_to 6896
  152.4944  134.4377  159.9585 H   0  0  0  0  0  0  0  0  0  0  0  0  # atno 6909 bound_to 6896
  145.3034  140.9383  143.2810 H   0  0  0  0  0  0  0  0  0  0  0  0  # atno 7974 bound_to 7965
  155.6727  140.3497  155.4825 H   0  0  0  0  0  0  0  0  0  0  0  0  # atno 8008 bound_to 7997
  155.9674  140.1149  157.0865 H   0  0  0  0  0  0  0  0  0  0  0  0  # atno 8009 bound_to 7997
  154.4158  140.1163  156.5246 H   0  0  0  0  0  0  0  0  0  0  0  0  # atno 8010 bound_to 7997
  139.6706  144.7125  151.1694 H   0  0  0  0  0  0  0  0  0  0  0  0  # atno 10167 bound_to 10162
  156.8037  130.9561  151.3118 H   0  0  0  0  0  0  0  0  0  0  0  0  # atno 10718 bound_to 10713
  153.0435  135.6491  154.0879 H   0  0  0  0  0  0  0  0  0  0  0  0  # atno 10763 bound_to 10752
  154.0581  135.2890  155.3331 H   0  0  0  0  0  0  0  0  0  0  0  0  # atno 10764 bound_to 10752
  154.6676  135.5368  153.8162 H   0  0  0  0  0  0  0  0  0  0  0  0  # atno 10765 bound_to 10752
  140.2557  134.7942  157.3543 H   0  0  0  0  0  0  0  0  0  0  0  0  # atno 11005 bound_to 11000
  144.9075  139.4571  143.6603 LP  0  0  0  0  0  0  0  0  0  0  0  0  # atno 17320 bound_to 7965
  146.3144  139.7863  142.8995 LP  0  0  0  0  0  0  0  0  0  0  0  0  # atno 17321 bound_to 7965
  140.7616  143.5850  150.8855 LP  0  0  0  0  0  0  0  0  0  0  0  0  # atno 17342 bound_to 10162
  139.9515  143.6267  152.3028 LP  0  0  0  0  0  0  0  0  0  0  0  0  # atno 17343 bound_to 10162
  157.6541  130.8909  149.9693 LP  0  0  0  0  0  0  0  0  0  0  0  0  # atno 17370 bound_to 10713
  156.1086  130.3651  150.0089 LP  0  0  0  0  0  0  0  0  0  0  0  0  # atno 17371 bound_to 10713
  140.1514  134.4845  155.7958 LP  0  0  0  0  0  0  0  0  0  0  0  0  # atno 17394 bound_to 11000
  141.2196  133.6864  156.7385 LP  0  0  0  0  0  0  0  0  0  0  0  0  # atno 17395 bound_to 11000

$$$$
