AV-unprocessed.smi:3335|AV-procd|sdf|12848|dock7
  -GOLD-   2272019233D 1   1.00000     0.00000
 Structure written by MMmdl.
 46 47  0  0  0  0  0  0  0  0  1 V2000
  151.8000  141.8837  158.0527 C   0  0  0  0  0  0  0  0  0  0  0  0
  151.1971  141.1250  156.9058 C   0  0  0  0  0  0  0  0  0  0  0  0
  150.4730  141.6481  155.7974 C   0  0  0  0  0  0  0  0  0  0  0  0
  150.0736  140.7097  154.9551 N   0  0  0  0  0  0  0  0  0  0  0  0
  150.5249  139.5545  155.4937 N   0  0  0  0  0  0  0  0  0  0  0  0
  150.2766  138.2833  154.8246 C   0  0  1  0  0  0  0  0  0  0  0  0
  151.2050  137.1953  155.3983 C   0  0  0  0  0  0  0  0  0  0  0  0
  148.7758  137.8857  154.8743 C   0  0  1  0  0  0  0  0  0  0  0  0
  147.8823  138.7512  153.9656 C   0  0  0  0  0  0  0  0  0  0  0  0
  148.6291  136.5004  154.4257 N   0  0  0  0  0  0  0  0  0  0  0  0
  147.2417  136.0001  154.4134 C   0  0  2  0  0  0  0  0  0  0  0  0
  146.6471  136.0927  155.8265 C   0  0  0  0  0  0  0  0  0  0  0  0
  147.1282  134.5500  153.8907 C   0  0  0  0  0  0  0  0  0  0  0  0
  147.6831  133.6496  154.5230 O   0  0  0  0  0  0  0  0  0  0  0  0
  146.4324  134.2999  152.7600 N   0  0  0  0  0  0  0  0  0  0  0  0
  146.2648  132.9998  152.1107 C   0  0  0  0  0  0  0  0  0  0  0  0
  145.6223  133.2902  150.7542 C   0  0  0  0  0  0  0  0  0  0  0  0
  144.8920  134.6086  150.9630 C   0  0  0  0  0  0  0  0  0  0  0  0
  145.7396  135.3415  152.0028 C   0  0  0  0  0  0  0  0  0  0  0  0
  151.2072  139.7792  156.6713 C   0  0  0  0  0  0  0  0  0  0  0  0
  151.0546  142.1219  158.8114 H   0  0  0  0  0  0  0  0  0  0  0  0
  152.2399  142.8261  157.7260 H   0  0  0  0  0  0  0  0  0  0  0  0
  152.5897  141.3152  158.5444 H   0  0  0  0  0  0  0  0  0  0  0  0
  150.2277  142.6774  155.5811 H   0  0  0  0  0  0  0  0  0  0  0  0
  150.5526  138.4288  153.7788 H   0  0  0  0  0  0  0  0  0  0  0  0
  151.1587  136.2806  154.8077 H   0  0  0  0  0  0  0  0  0  0  0  0
  150.9387  136.9417  156.4247 H   0  0  0  0  0  0  0  0  0  0  0  0
  152.2440  137.5264  155.3956 H   0  0  0  0  0  0  0  0  0  0  0  0
  148.4212  138.0097  155.8986 H   0  0  0  0  0  0  0  0  0  0  0  0
  147.8663  139.7916  154.2904 H   0  0  0  0  0  0  0  0  0  0  0  0
  146.8494  138.4021  153.9766 H   0  0  0  0  0  0  0  0  0  0  0  0
  148.2289  138.7316  152.9318 H   0  0  0  0  0  0  0  0  0  0  0  0
  149.0697  136.3837  153.5242 H   0  0  0  0  0  0  0  0  0  0  0  0
  146.6707  136.6743  153.7779 H   0  0  0  0  0  0  0  0  0  0  0  0
  145.6041  135.7736  155.8389 H   0  0  0  0  0  0  0  0  0  0  0  0
  146.6781  137.1178  156.1966 H   0  0  0  0  0  0  0  0  0  0  0  0
  147.1945  135.4685  156.5342 H   0  0  0  0  0  0  0  0  0  0  0  0
  147.2128  132.4747  151.9870 H   0  0  0  0  0  0  0  0  0  0  0  0
  145.6043  132.3801  152.7192 H   0  0  0  0  0  0  0  0  0  0  0  0
  146.4010  133.4209  150.0016 H   0  0  0  0  0  0  0  0  0  0  0  0
  144.9635  132.4894  150.4177 H   0  0  0  0  0  0  0  0  0  0  0  0
  144.7690  135.1765  150.0404 H   0  0  0  0  0  0  0  0  0  0  0  0
  143.8992  134.4148  151.3714 H   0  0  0  0  0  0  0  0  0  0  0  0
  145.1210  135.9723  152.6433 H   0  0  0  0  0  0  0  0  0  0  0  0
  146.4800  135.9769  151.5143 H   0  0  0  0  0  0  0  0  0  0  0  0
  151.6425  138.9700  157.2393 H   0  0  0  0  0  0  0  0  0  0  0  0
  1  2  1  0  0  0  0
  1 21  1  0  0  0  0
  1 22  1  0  0  0  0
  1 23  1  0  0  0  0
  2 20  2  0  0  0  0
  2  3  1  0  0  0  0
  3  4  2  0  0  0  0
  3 24  1  0  0  0  0
  4  5  1  0  0  0  0
  5  6  1  0  0  0  0
  5 20  1  0  0  0  0
  6  7  1  0  0  0  0
  6  8  1  0  0  0  0
  6 25  1  0  0  0  0
  7 26  1  0  0  0  0
  7 27  1  0  0  0  0
  7 28  1  0  0  0  0
  8  9  1  0  0  0  0
  8 10  1  0  0  0  0
  8 29  1  0  0  0  0
  9 30  1  0  0  0  0
  9 31  1  0  0  0  0
  9 32  1  0  0  0  0
 10 11  1  0  0  0  0
 10 33  1  0  0  0  0
 11 12  1  0  0  0  0
 11 13  1  0  0  0  0
 11 34  1  0  0  0  0
 12 35  1  0  0  0  0
 12 36  1  0  0  0  0
 12 37  1  0  0  0  0
 13 14  2  0  0  0  0
 13 15  1  0  0  0  0
 15 19  1  0  0  0  0
 15 16  1  0  0  0  0
 16 17  1  0  0  0  0
 16 38  1  0  0  0  0
 16 39  1  0  0  0  0
 17 18  1  0  0  0  0
 17 40  1  0  0  0  0
 17 41  1  0  0  0  0
 18 19  1  0  0  0  0
 18 42  1  0  0  0  0
 18 43  1  0  0  0  0
 19 44  1  0  0  0  0
 19 45  1  0  0  0  0
 20 46  1  0  0  0  0
M  END
> <s_m_source_file>
AV-unprocessed.smi

> <i_m_source_file_index>
3335

> <i_lp_mmshare_version>
43012

> <i_f3d_flags>
0

> <s_epik_input>
W0NIM11jMVtjSF1ubihbY0hdMSlbQ0BIXShbQ0gzXSlbQ0BIXShbQ0gzXSlbTkhdW0NASF0oW0NIM10pQyg9TylOMltDSDJdW0NIMl1bQ0gyXVtDSDJdMg==

> <s_epik_cmdline>
J2VwaWtfcHl0aG9uJywgJy1waCcsICc3LjAnLCAnLXRuJywgJzgnLCAnLW1hJywgJzIwMCcsICctbWV0YWxfYmluZGluZycsICctaW1hZScsICc8aW5maWxlLm1hZT4nLCAnLW9tYWUnLCAnPG91dGZpbGUubWFlPic=

> <r_lp_tautomer_probability>
1

> <r_epik_Ionization_Penalty>
0.918803

> <r_epik_Ionization_Penalty_Charging>
0

> <r_epik_Ionization_Penalty_Neutral>
0.918803

> <r_epik_State_Penalty>
0.958258

> <r_epik_Charging_Adjusted_Penalty>
0.958258

> <i_epik_Tot_Q>
0

> <i_epik_Tot_abs_Q>
0

> <r_epik_Metal_State_Penalty>
0.956786

> <b_epik_Metal_Only>
0

> <s_lp_Force_Field>
OPLS_2005

> <r_lp_Energy>
37.1843

> <b_lp_Chiralities_Consistent>
1

> <s_lp_Variant>
AV-unprocessed.smi:3335-12

> <Gold.Version>
5.8.1

> <Gold.Id.Protein>
6NUR|6NUR_protein|mol2

> <Gold.PLP.Fitness>
34.8770

> <Gold.PLP.PLP>
-27.2288

> <Gold.PLP.part.hbond>
-2.0000

> <Gold.PLP.part.metal>
0.0000

> <Gold.PLP.part.buried>
-1.6439

> <Gold.PLP.part.nonpolar>
-23.1720

> <Gold.PLP.part.repulsive>
0.1566

> <Gold.PLP.ligand.clash>
0.0000

> <Gold.PLP.ligand.torsion>
0.4832

> <Gold.PLP.Chemscore.Hbond>
1.8406

> <Gold.PLP.Chemscore.CHOScore>
0.9987

> <Gold.PLP.Chemscore.Metal>
0.0000

> <Gold.Chemscore.Hbonds>
donor molecule, donor type, donor heavy atom, donor atom, acceptor molecule, acceptor atom, score
      L1  H    10    33       P1  7948  1.00
      P1  H  7989  7998       L1     4  0.47
      L1  C     3    24       P1  8028  1.00

> <Gold.PLP.Chemscore.Internal.Correction>
0.0968

> <Gold.Rescore>
     Score         DG    S(hbond)    S(metal)    S(lipo)     H(rot)  DE(clash)    DE(int)     intcor
     13.95     -14.63       1.58        0.00      68.65       1.62       0.16       0.52       ----

> <Gold.Chemscore.Fitness>
13.9478

> <Gold.Chemscore.DG>
-14.6260

> <Gold.Chemscore.ZeroCoef>
-5.4800

> <Gold.Chemscore.Hbond>
1.5755

> <Gold.Chemscore.Metal>
0.0000

> <Gold.Chemscore.Lipo>
68.6507

> <Gold.Chemscore.Internal_Hbond>
0.0000

> <Gold.Chemscore.DEClash>
0.1571

> <Gold.Chemscore.DEInternal>
0.5211

> <Gold.Chemscore.Rot>
1.6204

> <Gold.Chemscore.Internal.Correction>
   9.000000E+99

> <Gold.Chemscore.Hbonds>
donor molecule, donor type, donor heavy atom, donor atom, acceptor molecule, acceptor atom, score
      L1  H    10    33       P1  7948  0.94
      P1  H  7989  7998       L1     4  0.02

> <Gold.Chemscore.Hbond.Weighted>
-5.2621

> <Gold.Chemscore.Metal.Weighted>
-0.0000

> <Gold.Chemscore.Lipo.Weighted>
-8.0321

> <Gold.Chemscore.Internal_Hbond.Weighted>
0.0000

> <Gold.Chemscore.DEClash.Weighted>
0.1571

> <Gold.Chemscore.DEInternal.Weighted>
0.5211

> <Gold.Chemscore.Rot.Weighted>
4.1482

> <Gold.Chemscore.Internal.Correction.Weighted>
   9.000000E+99

> <Gold.Protein.RotatedTorsions>
[ 6907 6896 6895 6894 ] final  114.96 input  -60.11 | X-H torsion
[ 7974 7965 7964 7962 ] final -101.08 input  175.53 | X-H torsion
[ 8008 7997 7996 7995 ] final   50.68 input   59.86 | X-H torsion
[ 10167 10162 10161 10158 ] final  175.46 input  -65.29 | X-H torsion
[ 10718 10713 10712 10709 ] final  -33.74 input   66.30 | X-H torsion
[ 10763 10752 10751 10750 ] final  132.29 input  -60.55 | X-H torsion
[ 11005 11000 10999 10996 ] final -103.78 input  -57.11 | X-H torsion

> <Gold.Protein.ActiveResidues>
 VAL166  LYS551  ARG553  GLY616  TRP617  ASP618  TYR619  PRO620  LYS621  CYS622 
 ASP623  PHE694  ASN695  SER759  ASP760  ASP761  ALA762  ILE779  LEU786  VAL792 
 PHE793  MET794  SER795  GLU796  ALA797  LYS798  CYS799  TRP800  GLU811  SER814 

> <Gold.Protein.RotatedAtoms>
  152.4771  133.8164  159.7030 H   0  0  0  0  0  0  0  0  0  0  0  0  # atno 6907 bound_to 6896
  150.8795  133.7382  159.2943 H   0  0  0  0  0  0  0  0  0  0  0  0  # atno 6908 bound_to 6896
  151.4891  135.1060  159.9850 H   0  0  0  0  0  0  0  0  0  0  0  0  # atno 6909 bound_to 6896
  145.2862  140.9340  143.2903 H   0  0  0  0  0  0  0  0  0  0  0  0  # atno 7974 bound_to 7965
  155.4228  140.3447  155.4273 H   0  0  0  0  0  0  0  0  0  0  0  0  # atno 8008 bound_to 7997
  156.1383  140.1534  156.8991 H   0  0  0  0  0  0  0  0  0  0  0  0  # atno 8009 bound_to 7997
  154.4950  140.0830  156.7657 H   0  0  0  0  0  0  0  0  0  0  0  0  # atno 8010 bound_to 7997
  139.5178  144.3029  152.0362 H   0  0  0  0  0  0  0  0  0  0  0  0  # atno 10167 bound_to 10162
  156.3590  130.4320  149.7640 H   0  0  0  0  0  0  0  0  0  0  0  0  # atno 10718 bound_to 10713
  153.7882  135.3159  155.3375 H   0  0  0  0  0  0  0  0  0  0  0  0  # atno 10763 bound_to 10752
  154.8136  135.4651  154.0584 H   0  0  0  0  0  0  0  0  0  0  0  0  # atno 10764 bound_to 10752
  153.1894  135.6906  153.8458 H   0  0  0  0  0  0  0  0  0  0  0  0  # atno 10765 bound_to 10752
  141.1130  133.8668  157.1528 H   0  0  0  0  0  0  0  0  0  0  0  0  # atno 11005 bound_to 11000
  144.9211  139.4411  143.6541 LP  0  0  0  0  0  0  0  0  0  0  0  0  # atno 17320 bound_to 7965
  146.3200  139.8072  142.8953 LP  0  0  0  0  0  0  0  0  0  0  0  0  # atno 17321 bound_to 7965
  140.2476  144.4203  150.6235 LP  0  0  0  0  0  0  0  0  0  0  0  0  # atno 17342 bound_to 10162
  140.6247  143.2180  151.6621 LP  0  0  0  0  0  0  0  0  0  0  0  0  # atno 17343 bound_to 10162
  156.4811  130.8041  151.3055 LP  0  0  0  0  0  0  0  0  0  0  0  0  # atno 17370 bound_to 10713
  157.7471  131.0005  150.2930 LP  0  0  0  0  0  0  0  0  0  0  0  0  # atno 17371 bound_to 10713
  140.0035  135.0018  157.0243 LP  0  0  0  0  0  0  0  0  0  0  0  0  # atno 17394 bound_to 11000
  140.4722  134.1375  155.7205 LP  0  0  0  0  0  0  0  0  0  0  0  0  # atno 17395 bound_to 11000

$$$$
