AV-unprocessed.smi:1830|AV-procd|sdf|7433|dock10
  -GOLD-   22720 9123D 1   1.00000     0.00000
 Structure written by MMmdl.
 53 56  0  0  0  0  0  0  0  0  2 V2000
  150.9104  134.5693  155.6206 O   0  0  0  0  0  0  0  0  0  0  0  0
  150.2581  135.0540  154.6962 C   0  0  0  0  0  0  0  0  0  0  0  0
  150.2374  136.3631  154.4123 N   0  0  0  0  0  0  0  0  0  0  0  0
  150.9543  137.3915  155.1574 C   0  0  0  0  0  0  0  0  0  0  0  0
  150.7991  138.7849  154.5070 C   0  0  1  0  0  0  0  0  0  0  0  0
  149.5294  139.5333  154.9808 C   0  0  0  0  0  0  0  0  0  0  0  0
  149.7498  140.0395  156.3485 N   0  3  2  0  0  0  0  0  0  0  0  0
  148.6586  140.7864  156.9977 C   0  0  0  0  0  0  0  0  0  0  0  0
  149.3545  141.6584  158.0617 C   0  0  0  0  0  0  0  0  0  0  0  0
  150.8652  141.4760  157.8285 C   0  0  0  0  0  0  0  0  0  0  0  0
  150.9309  140.9026  156.4163 C   0  0  1  0  0  0  0  0  0  0  0  0
  152.1702  140.0888  156.0270 C   0  0  0  0  0  0  0  0  0  0  0  0
  151.9715  139.5923  154.7008 O   0  0  0  0  0  0  0  0  0  0  0  0
  149.4633  134.3649  153.8618 N   0  0  0  0  0  0  0  0  0  0  0  0
  149.1556  132.9764  153.8955 C   0  0  0  0  0  0  0  0  0  0  0  0
  150.0063  132.0469  154.5418 C   0  0  0  0  0  0  0  0  0  0  0  0
  149.6984  130.6767  154.4861 C   0  0  0  0  0  0  0  0  0  0  0  0
  148.5564  130.2810  153.7702 C   0  0  0  0  0  0  0  0  0  0  0  0
  147.7437  131.1520  153.1395 N   0  0  0  0  0  0  0  0  0  0  0  0
  148.0189  132.4784  153.1964 C   0  0  0  0  0  0  0  0  0  0  0  0
  147.1216  133.3474  152.5340 N   0  0  0  0  0  0  0  0  0  0  0  0
  146.1834  132.8278  151.5444 C   0  0  0  0  0  0  0  0  0  0  0  0
  145.1558  133.9394  151.3533 C   0  0  0  0  0  0  0  0  0  0  0  0
  145.0443  134.5244  152.7579 C   0  0  0  0  0  0  0  0  0  0  0  0
  146.4599  134.3796  153.3269 C   0  0  0  0  0  0  0  0  0  0  0  0
  149.6713  136.6715  153.6351 H   0  0  0  0  0  0  0  0  0  0  0  0
  150.5929  137.4160  156.1867 H   0  0  0  0  0  0  0  0  0  0  0  0
  152.0027  137.1006  155.2166 H   0  0  0  0  0  0  0  0  0  0  0  0
  150.7034  138.6368  153.4307 H   0  0  0  0  0  0  0  0  0  0  0  0
  149.3179  140.3709  154.3143 H   0  0  0  0  0  0  0  0  0  0  0  0
  148.6585  138.8776  154.9581 H   0  0  0  0  0  0  0  0  0  0  0  0
  148.1533  141.4196  156.2668 H   0  0  0  0  0  0  0  0  0  0  0  0
  147.9211  140.1083  157.4278 H   0  0  0  0  0  0  0  0  0  0  0  0
  149.0657  142.7028  157.9388 H   0  0  0  0  0  0  0  0  0  0  0  0
  149.0780  141.3580  159.0730 H   0  0  0  0  0  0  0  0  0  0  0  0
  151.4258  142.4054  157.9329 H   0  0  0  0  0  0  0  0  0  0  0  0
  151.2661  140.7584  158.5459 H   0  0  0  0  0  0  0  0  0  0  0  0
  150.8053  141.7229  155.7058 H   0  0  0  0  0  0  0  0  0  0  0  0
  153.0587  140.7203  156.0393 H   0  0  0  0  0  0  0  0  0  0  0  0
  152.3501  139.2719  156.7264 H   0  0  0  0  0  0  0  0  0  0  0  0
  148.9200  134.9111  153.2093 H   0  0  0  0  0  0  0  0  0  0  0  0
  150.9012  132.3608  155.0578 H   0  0  0  0  0  0  0  0  0  0  0  0
  150.3307  129.9464  154.9690 H   0  0  0  0  0  0  0  0  0  0  0  0
  148.2905  129.2369  153.6965 H   0  0  0  0  0  0  0  0  0  0  0  0
  146.6881  132.5771  150.6108 H   0  0  0  0  0  0  0  0  0  0  0  0
  145.6833  131.9325  151.9160 H   0  0  0  0  0  0  0  0  0  0  0  0
  145.5420  134.6924  150.6649 H   0  0  0  0  0  0  0  0  0  0  0  0
  144.2047  133.5763  150.9635 H   0  0  0  0  0  0  0  0  0  0  0  0
  144.6892  135.5552  152.7637 H   0  0  0  0  0  0  0  0  0  0  0  0
  144.3490  133.9257  153.3482 H   0  0  0  0  0  0  0  0  0  0  0  0
  146.4379  134.1308  154.3890 H   0  0  0  0  0  0  0  0  0  0  0  0
  147.0038  135.3172  153.2098 H   0  0  0  0  0  0  0  0  0  0  0  0
  149.9422  139.2430  156.9391 H   0  0  0  0  0  0  0  0  0  0  0  0
  1  2  2  0  0  0  0
  2  3  1  0  0  0  0
  2 14  1  0  0  0  0
  3  4  1  0  0  0  0
  3 26  1  0  0  0  0
  4  5  1  0  0  0  0
  4 27  1  0  0  0  0
  4 28  1  0  0  0  0
  5 13  1  0  0  0  0
  5  6  1  0  0  0  0
  5 29  1  0  0  0  0
  6  7  1  0  0  0  0
  6 30  1  0  0  0  0
  6 31  1  0  0  0  0
  7 11  1  0  0  0  0
  7  8  1  0  0  0  0
  7 53  1  0  0  0  0
  8  9  1  0  0  0  0
  8 32  1  0  0  0  0
  8 33  1  0  0  0  0
  9 10  1  0  0  0  0
  9 34  1  0  0  0  0
  9 35  1  0  0  0  0
 10 11  1  0  0  0  0
 10 36  1  0  0  0  0
 10 37  1  0  0  0  0
 11 12  1  0  0  0  0
 11 38  1  0  0  0  0
 12 13  1  0  0  0  0
 12 39  1  0  0  0  0
 12 40  1  0  0  0  0
 14 15  1  0  0  0  0
 14 41  1  0  0  0  0
 15 20  1  0  0  0  0
 15 16  2  0  0  0  0
 16 17  1  0  0  0  0
 16 42  1  0  0  0  0
 17 18  2  0  0  0  0
 17 43  1  0  0  0  0
 18 19  1  0  0  0  0
 18 44  1  0  0  0  0
 19 20  2  0  0  0  0
 20 21  1  0  0  0  0
 21 25  1  0  0  0  0
 21 22  1  0  0  0  0
 22 23  1  0  0  0  0
 22 45  1  0  0  0  0
 22 46  1  0  0  0  0
 23 24  1  0  0  0  0
 23 47  1  0  0  0  0
 23 48  1  0  0  0  0
 24 25  1  0  0  0  0
 24 49  1  0  0  0  0
 24 50  1  0  0  0  0
 25 51  1  0  0  0  0
 25 52  1  0  0  0  0
M  CHG  1   7   1
M  END
> <s_m_source_file>
AV-unprocessed.smi

> <i_m_source_file_index>
1830

> <i_lp_mmshare_version>
43012

> <i_f3d_flags>
0

> <s_epik_input>
W0NIMl0xW0NIMl1bQ0gyXVtDQEhdKE4xMilbQ0gyXU9bQ0BASF0oW0NIMl0yKVtDSDJdW05IXUMoPU8pW05IXWMzW2NIXVtjSF1bY0hdbmMzTjRbQ0gyXVtDSDJdW0NIMl1bQ0gyXTQ=

> <s_epik_cmdline>
J2VwaWtfcHl0aG9uJywgJy1waCcsICc3LjAnLCAnLXRuJywgJzgnLCAnLW1hJywgJzIwMCcsICctbWV0YWxfYmluZGluZycsICctaW1hZScsICc8aW5maWxlLm1hZT4nLCAnLW9tYWUnLCAnPG91dGZpbGUubWFlPic=

> <r_lp_tautomer_probability>
1

> <r_epik_Ionization_Penalty>
0.193547

> <r_epik_Ionization_Penalty_Charging>
0.10673

> <r_epik_Ionization_Penalty_Neutral>
0.0868166

> <r_epik_State_Penalty>
0.173595

> <r_epik_Charging_Adjusted_Penalty>
0.280326

> <i_epik_Tot_Q>
1

> <i_epik_Tot_abs_Q>
1

> <r_epik_Metal_State_Penalty>
0.164683

> <b_epik_Metal_Only>
0

> <s_lp_Force_Field>
OPLS_2005

> <r_lp_Energy>
66.0686

> <b_lp_Chiralities_Consistent>
1

> <s_lp_Variant>
AV-unprocessed.smi:1830-2

> <Gold.Version>
5.8.1

> <Gold.Id.Protein>
6NUR|6NUR_protein|mol2

> <Gold.PLP.Fitness>
47.6595

> <Gold.PLP.PLP>
-40.2228

> <Gold.PLP.part.hbond>
-3.8728

> <Gold.PLP.part.metal>
0.0000

> <Gold.PLP.part.buried>
-5.1543

> <Gold.PLP.part.nonpolar>
-32.7733

> <Gold.PLP.part.repulsive>
0.4740

> <Gold.PLP.ligand.clash>
0.0000

> <Gold.PLP.ligand.torsion>
0.6825

> <Gold.PLP.Chemscore.Hbond>
2.8256

> <Gold.PLP.Chemscore.CHOScore>
0.0000

> <Gold.PLP.Chemscore.Metal>
0.0000

> <Gold.Chemscore.Hbonds>
donor molecule, donor type, donor heavy atom, donor atom, acceptor molecule, acceptor atom, score
      L1  H     3    26       P1  7948  0.91
      L1  H    14    41       P1  7948  0.85
      P1  H  7989  7998       L1    13  0.93

> <Gold.PLP.Chemscore.Internal.Correction>
0.3250

> <Gold.Rescore>
     Score         DG    S(hbond)    S(metal)    S(lipo)     H(rot)  DE(clash)    DE(int)     intcor
     14.95     -17.26       1.85        0.00      78.49       1.41       0.25       2.05       ----

> <Gold.Chemscore.Fitness>
14.9544

> <Gold.Chemscore.DG>
-17.2563

> <Gold.Chemscore.ZeroCoef>
-5.4800

> <Gold.Chemscore.Hbond>
1.8547

> <Gold.Chemscore.Metal>
0.0000

> <Gold.Chemscore.Lipo>
78.4854

> <Gold.Chemscore.Internal_Hbond>
0.0000

> <Gold.Chemscore.DEClash>
0.2540

> <Gold.Chemscore.DEInternal>
2.0479

> <Gold.Chemscore.Rot>
1.4067

> <Gold.Chemscore.Internal.Correction>
   9.000000E+99

> <Gold.Chemscore.Hbonds>
donor molecule, donor type, donor heavy atom, donor atom, acceptor molecule, acceptor atom, score
      L1  H     3    26       P1  7948  0.53
      L1  H    14    41       P1  7948  0.19
      P1  H  7989  7998       L1    13  0.20

> <Gold.Chemscore.Hbond.Weighted>
-6.1946

> <Gold.Chemscore.Metal.Weighted>
-0.0000

> <Gold.Chemscore.Lipo.Weighted>
-9.1828

> <Gold.Chemscore.Internal_Hbond.Weighted>
0.0000

> <Gold.Chemscore.DEClash.Weighted>
0.2540

> <Gold.Chemscore.DEInternal.Weighted>
2.0479

> <Gold.Chemscore.Rot.Weighted>
3.6011

> <Gold.Chemscore.Internal.Correction.Weighted>
   9.000000E+99

> <Gold.Protein.RotatedTorsions>
[ 6907 6896 6895 6894 ] final  -24.81 input  -60.11 | X-H torsion
[ 7974 7965 7964 7962 ] final  168.03 input  175.53 | X-H torsion
[ 8008 7997 7996 7995 ] final   76.43 input   59.86 | X-H torsion
[ 10167 10162 10161 10158 ] final -126.96 input  -65.29 | X-H torsion
[ 10718 10713 10712 10709 ] final   61.83 input   66.30 | X-H torsion
[ 10763 10752 10751 10750 ] final   41.75 input  -60.55 | X-H torsion
[ 11005 11000 10999 10996 ] final   50.12 input  -57.11 | X-H torsion

> <Gold.Protein.ActiveResidues>
 VAL166  LYS551  ARG553  GLY616  TRP617  ASP618  TYR619  PRO620  LYS621  CYS622 
 ASP623  PHE694  ASN695  SER759  ASP760  ASP761  ALA762  ILE779  LEU786  VAL792 
 PHE793  MET794  SER795  GLU796  ALA797  LYS798  CYS799  TRP800  GLU811  SER814 

> <Gold.Protein.RotatedAtoms>
  151.1842  135.0374  159.8805 H   0  0  0  0  0  0  0  0  0  0  0  0  # atno 6907 bound_to 6896
  152.5443  134.1028  159.8335 H   0  0  0  0  0  0  0  0  0  0  0  0  # atno 6908 bound_to 6896
  151.1149  133.5099  159.2636 H   0  0  0  0  0  0  0  0  0  0  0  0  # atno 6909 bound_to 6896
  144.7403  139.8848  143.6399 H   0  0  0  0  0  0  0  0  0  0  0  0  # atno 7974 bound_to 7965
  155.8272  140.3467  155.5550 H   0  0  0  0  0  0  0  0  0  0  0  0  # atno 8008 bound_to 7997
  155.8280  140.0923  157.1829 H   0  0  0  0  0  0  0  0  0  0  0  0  # atno 8009 bound_to 7997
  154.4004  140.1417  156.3567 H   0  0  0  0  0  0  0  0  0  0  0  0  # atno 8010 bound_to 7997
  139.9659  143.5898  152.2429 H   0  0  0  0  0  0  0  0  0  0  0  0  # atno 10167 bound_to 10162
  157.5856  130.9016  149.9510 H   0  0  0  0  0  0  0  0  0  0  0  0  # atno 10718 bound_to 10713
  152.9900  135.6152  154.2838 H   0  0  0  0  0  0  0  0  0  0  0  0  # atno 10763 bound_to 10752
  154.2566  135.2783  155.2797 H   0  0  0  0  0  0  0  0  0  0  0  0  # atno 10764 bound_to 10752
  154.5242  135.5806  153.6763 H   0  0  0  0  0  0  0  0  0  0  0  0  # atno 10765 bound_to 10752
  140.1044  134.5038  155.8733 H   0  0  0  0  0  0  0  0  0  0  0  0  # atno 11005 bound_to 11000
  146.1185  139.4199  143.0243 LP  0  0  0  0  0  0  0  0  0  0  0  0  # atno 17320 bound_to 7965
  145.7340  141.0032  143.1337 LP  0  0  0  0  0  0  0  0  0  0  0  0  # atno 17321 bound_to 7965
  139.6518  144.7661  151.2134 LP  0  0  0  0  0  0  0  0  0  0  0  0  # atno 17342 bound_to 10162
  140.7538  143.6149  150.8569 LP  0  0  0  0  0  0  0  0  0  0  0  0  # atno 17343 bound_to 10162
  156.0905  130.3664  150.0404 LP  0  0  0  0  0  0  0  0  0  0  0  0  # atno 17370 bound_to 10713
  156.8535  130.9467  151.3623 LP  0  0  0  0  0  0  0  0  0  0  0  0  # atno 17371 bound_to 10713
  141.2114  133.6706  156.6582 LP  0  0  0  0  0  0  0  0  0  0  0  0  # atno 17394 bound_to 11000
  140.3176  134.8035  157.4226 LP  0  0  0  0  0  0  0  0  0  0  0  0  # atno 17395 bound_to 11000

$$$$
