AV-unprocessed.smi:1429|AV-procd|sdf|5819|dock8
  -GOLD-   22720 5473D 1   1.00000     0.00000
 Structure written by MMmdl.
 30 31  0  0  0  0  0  0  0  0  1 V2000
  155.3375  133.6556  161.4896 C   0  0  0  0  0  0  0  0  0  0  0  0
  154.7144  134.8552  160.8616 C   0  0  0  0  0  0  0  0  0  0  0  0
  154.2763  134.8681  159.5966 N   0  0  0  0  0  0  0  0  0  0  0  0
  153.7377  136.0964  159.2393 N   0  0  0  0  0  0  0  0  0  0  0  0
  153.7865  136.9764  160.2489 C   0  0  0  0  0  0  0  0  0  0  0  0
  153.3018  138.3080  160.1596 N   0  0  0  0  0  0  0  0  0  0  0  0
  153.1132  139.0540  159.0570 C   0  0  0  0  0  0  0  0  0  0  0  0
  153.3551  138.6946  157.9046 O   0  0  0  0  0  0  0  0  0  0  0  0
  152.6130  140.2589  159.3669 N   0  0  0  0  0  0  0  0  0  0  0  0
  152.2620  141.3020  158.4077 C   0  0  0  0  0  0  0  0  0  0  0  0
  152.6554  142.7007  158.9184 C   0  0  1  0  0  0  0  0  0  0  0  0
  151.9257  143.8349  158.2284 C   0  0  0  0  0  0  0  0  0  0  0  0
  152.1452  144.9920  159.1993 C   0  0  0  0  0  0  0  0  0  0  0  0
  152.2533  144.4038  160.4927 O   0  0  0  0  0  0  0  0  0  0  0  0
  152.3052  142.9852  160.3802 C   0  0  0  0  0  0  0  0  0  0  0  0
  154.5024  136.3692  161.7320 S   0  0  0  0  0  0  0  0  0  0  0  0
  155.2842  132.7972  160.8191 H   0  0  0  0  0  0  0  0  0  0  0  0
  154.8179  133.4075  162.4152 H   0  0  0  0  0  0  0  0  0  0  0  0
  156.3842  133.8570  161.7176 H   0  0  0  0  0  0  0  0  0  0  0  0
  153.0576  138.7387  161.0391 H   0  0  0  0  0  0  0  0  0  0  0  0
  152.4485  140.4677  160.3409 H   0  0  0  0  0  0  0  0  0  0  0  0
  152.7963  141.0913  157.4811 H   0  0  0  0  0  0  0  0  0  0  0  0
  151.1995  141.2647  158.1606 H   0  0  0  0  0  0  0  0  0  0  0  0
  153.7281  142.8474  158.7797 H   0  0  0  0  0  0  0  0  0  0  0  0
  152.3050  144.0440  157.2278 H   0  0  0  0  0  0  0  0  0  0  0  0
  150.8606  143.6114  158.1497 H   0  0  0  0  0  0  0  0  0  0  0  0
  153.0807  145.5055  158.9743 H   0  0  0  0  0  0  0  0  0  0  0  0
  151.3389  145.7251  159.1607 H   0  0  0  0  0  0  0  0  0  0  0  0
  151.3204  142.5852  160.6262 H   0  0  0  0  0  0  0  0  0  0  0  0
  153.0273  142.5575  161.0762 H   0  0  0  0  0  0  0  0  0  0  0  0
  1  2  1  0  0  0  0
  1 17  1  0  0  0  0
  1 18  1  0  0  0  0
  1 19  1  0  0  0  0
  2 16  1  0  0  0  0
  2  3  2  0  0  0  0
  3  4  1  0  0  0  0
  4  5  2  0  0  0  0
  5  6  1  0  0  0  0
  5 16  1  0  0  0  0
  6  7  1  0  0  0  0
  6 20  1  0  0  0  0
  7  8  2  0  0  0  0
  7  9  1  0  0  0  0
  9 10  1  0  0  0  0
  9 21  1  0  0  0  0
 10 11  1  0  0  0  0
 10 22  1  0  0  0  0
 10 23  1  0  0  0  0
 11 15  1  0  0  0  0
 11 12  1  0  0  0  0
 11 24  1  0  0  0  0
 12 13  1  0  0  0  0
 12 25  1  0  0  0  0
 12 26  1  0  0  0  0
 13 14  1  0  0  0  0
 13 27  1  0  0  0  0
 13 28  1  0  0  0  0
 14 15  1  0  0  0  0
 15 29  1  0  0  0  0
 15 30  1  0  0  0  0
M  END
> <s_m_source_file>
AV-unprocessed.smi

> <i_m_source_file_index>
1429

> <i_lp_mmshare_version>
43012

> <i_f3d_flags>
0

> <s_epik_input>
W0NIM11jMW5uYyhzMSlbTkhdQyg9TylbTkhdW0NIMl1bQ0BASF0yW0NIMl1bQ0gyXU9bQ0gyXTI=

> <s_epik_cmdline>
J2VwaWtfcHl0aG9uJywgJy1waCcsICc3LjAnLCAnLXRuJywgJzgnLCAnLW1hJywgJzIwMCcsICctbWV0YWxfYmluZGluZycsICctaW1hZScsICc8aW5maWxlLm1hZT4nLCAnLW9tYWUnLCAnPG91dGZpbGUubWFlPic=

> <r_lp_tautomer_probability>
1

> <r_epik_Ionization_Penalty>
0.000468089

> <r_epik_Ionization_Penalty_Charging>
0

> <r_epik_Ionization_Penalty_Neutral>
0.000468089

> <r_epik_State_Penalty>
-0

> <r_epik_Charging_Adjusted_Penalty>
0

> <i_epik_Tot_Q>
0

> <i_epik_Tot_abs_Q>
0

> <r_epik_Metal_State_Penalty>
0.211262

> <b_epik_Metal_Only>
0

> <s_lp_Force_Field>
OPLS_2005

> <r_lp_Energy>
17.5985

> <b_lp_Chiralities_Consistent>
1

> <s_lp_Variant>
AV-unprocessed.smi:1429-2

> <Gold.Version>
5.8.1

> <Gold.Id.Protein>
6NUR|6NUR_protein|mol2

> <Gold.PLP.Fitness>
34.9476

> <Gold.PLP.PLP>
-30.0626

> <Gold.PLP.part.hbond>
-2.5051

> <Gold.PLP.part.metal>
0.0000

> <Gold.PLP.part.buried>
-3.9235

> <Gold.PLP.part.nonpolar>
-23.6987

> <Gold.PLP.part.repulsive>
0.2968

> <Gold.PLP.ligand.clash>
0.0000

> <Gold.PLP.ligand.torsion>
0.3993

> <Gold.PLP.Chemscore.Hbond>
1.8928

> <Gold.PLP.Chemscore.CHOScore>
0.0000

> <Gold.PLP.Chemscore.Metal>
0.0000

> <Gold.Chemscore.Hbonds>
donor molecule, donor type, donor heavy atom, donor atom, acceptor molecule, acceptor atom, score
      P1  H  6896  6907       L1     3  0.55
      P1  H  7997  8008       L1     8  0.76

> <Gold.PLP.Chemscore.Internal.Correction>
0.0052

> <Gold.Rescore>
     Score         DG    S(hbond)    S(metal)    S(lipo)     H(rot)  DE(clash)    DE(int)     intcor
     13.35     -15.01       1.04        0.00      80.55       1.31       0.18       1.48       ----

> <Gold.Chemscore.Fitness>
13.3517

> <Gold.Chemscore.DG>
-15.0104

> <Gold.Chemscore.ZeroCoef>
-5.4800

> <Gold.Chemscore.Hbond>
1.0376

> <Gold.Chemscore.Metal>
0.0000

> <Gold.Chemscore.Lipo>
80.5536

> <Gold.Chemscore.Internal_Hbond>
0.0000

> <Gold.Chemscore.DEClash>
0.1785

> <Gold.Chemscore.DEInternal>
1.4803

> <Gold.Chemscore.Rot>
1.3125

> <Gold.Chemscore.Internal.Correction>
   9.000000E+99

> <Gold.Chemscore.Hbonds>
donor molecule, donor type, donor heavy atom, donor atom, acceptor molecule, acceptor atom, score
      P1  H  6896  6907       L1     3  0.01
      P1  H  7997  8008       L1     8  0.36

> <Gold.Chemscore.Hbond.Weighted>
-3.4657

> <Gold.Chemscore.Metal.Weighted>
-0.0000

> <Gold.Chemscore.Lipo.Weighted>
-9.4248

> <Gold.Chemscore.Internal_Hbond.Weighted>
0.0000

> <Gold.Chemscore.DEClash.Weighted>
0.1785

> <Gold.Chemscore.DEInternal.Weighted>
1.4803

> <Gold.Chemscore.Rot.Weighted>
3.3600

> <Gold.Chemscore.Internal.Correction.Weighted>
   9.000000E+99

> <Gold.Protein.RotatedTorsions>
[ 6907 6896 6895 6894 ] final   93.61 input  -60.11 | X-H torsion
[ 7974 7965 7964 7962 ] final   66.38 input  175.53 | X-H torsion
[ 8008 7997 7996 7995 ] final -106.44 input   59.86 | X-H torsion
[ 10167 10162 10161 10158 ] final   77.51 input  -65.29 | X-H torsion
[ 10718 10713 10712 10709 ] final  -69.65 input   66.30 | X-H torsion
[ 10763 10752 10751 10750 ] final  133.41 input  -60.55 | X-H torsion
[ 11005 11000 10999 10996 ] final  -95.07 input  -57.11 | X-H torsion

> <Gold.Protein.ActiveResidues>
 VAL166  LYS551  ARG553  GLY616  TRP617  ASP618  TYR619  PRO620  LYS621  CYS622 
 ASP623  PHE694  ASN695  SER759  ASP760  ASP761  ALA762  ILE779  LEU786  VAL792 
 PHE793  MET794  SER795  GLU796  ALA797  LYS798  CYS799  TRP800  GLU811  SER814 

> <Gold.Protein.RotatedAtoms>
  152.5452  134.1322  159.8443 H   0  0  0  0  0  0  0  0  0  0  0  0  # atno 6907 bound_to 6896
  151.1366  133.4993  159.2605 H   0  0  0  0  0  0  0  0  0  0  0  0  # atno 6908 bound_to 6896
  151.1617  135.0287  159.8768 H   0  0  0  0  0  0  0  0  0  0  0  0  # atno 6909 bound_to 6896
  145.8272  139.3118  143.1008 H   0  0  0  0  0  0  0  0  0  0  0  0  # atno 7974 bound_to 7965
  154.9145  140.0409  157.1964 H   0  0  0  0  0  0  0  0  0  0  0  0  # atno 8008 bound_to 7997
  154.8315  140.2900  155.5698 H   0  0  0  0  0  0  0  0  0  0  0  0  # atno 8009 bound_to 7997
  156.2987  140.2500  156.3241 H   0  0  0  0  0  0  0  0  0  0  0  0  # atno 8010 bound_to 7997
  139.9808  144.5827  150.7902 H   0  0  0  0  0  0  0  0  0  0  0  0  # atno 10167 bound_to 10162
  156.0445  130.4316  150.2178 H   0  0  0  0  0  0  0  0  0  0  0  0  # atno 10718 bound_to 10713
  153.8067  135.3134  155.3396 H   0  0  0  0  0  0  0  0  0  0  0  0  # atno 10763 bound_to 10752
  154.8068  135.4693  154.0415 H   0  0  0  0  0  0  0  0  0  0  0  0  # atno 10764 bound_to 10752
  153.1780  135.6889  153.8605 H   0  0  0  0  0  0  0  0  0  0  0  0  # atno 10765 bound_to 10752
  141.1452  133.8000  157.0385 H   0  0  0  0  0  0  0  0  0  0  0  0  # atno 11005 bound_to 11000
  145.9610  140.8835  143.0211 LP  0  0  0  0  0  0  0  0  0  0  0  0  # atno 17320 bound_to 7965
  144.6742  140.1812  143.7405 LP  0  0  0  0  0  0  0  0  0  0  0  0  # atno 17321 bound_to 7965
  140.7489  143.2931  151.3278 LP  0  0  0  0  0  0  0  0  0  0  0  0  # atno 17342 bound_to 10162
  139.6411  144.0538  152.2555 LP  0  0  0  0  0  0  0  0  0  0  0  0  # atno 17343 bound_to 10162
  157.0270  130.9996  151.3323 LP  0  0  0  0  0  0  0  0  0  0  0  0  # atno 17370 bound_to 10713
  157.5304  130.8055  149.7911 LP  0  0  0  0  0  0  0  0  0  0  0  0  # atno 17371 bound_to 10713
  140.0708  134.9703  157.1464 LP  0  0  0  0  0  0  0  0  0  0  0  0  # atno 17394 bound_to 11000
  140.3713  134.2387  155.7178 LP  0  0  0  0  0  0  0  0  0  0  0  0  # atno 17395 bound_to 11000

$$$$
