AV-unprocessed.smi:1564|AV-procd|sdf|6294|dock2
  -GOLD-   22720 6493D 1   1.00000     0.00000
 Structure written by MMmdl.
 43 44  0  0  0  0  0  0  0  0  2 V2000
  146.7703  128.1626  152.4625 C   0  0  0  0  0  0  0  0  0  0  0  0
  145.7297  129.0215  152.0095 O   0  0  0  0  0  0  0  0  0  0  0  0
  145.9287  130.3851  152.0787 C   0  0  0  0  0  0  0  0  0  0  0  0
  144.9019  131.2393  151.6309 C   0  0  0  0  0  0  0  0  0  0  0  0
  145.0960  132.6322  151.6976 C   0  0  0  0  0  0  0  0  0  0  0  0
  146.3139  133.1293  152.2204 C   0  0  0  0  0  0  0  0  0  0  0  0
  146.6392  134.5092  152.3248 N   0  0  0  0  0  0  0  0  0  0  0  0
  145.8444  135.5331  152.6808 C   0  0  0  0  0  0  0  0  0  0  0  0
  144.6638  135.4385  153.0149 O   0  0  0  0  0  0  0  0  0  0  0  0
  146.5074  136.6975  152.6497 N   0  0  0  0  0  0  0  0  0  0  0  0
  145.9246  137.9891  152.9976 C   0  0  1  0  0  0  0  0  0  0  0  0
  145.8549  138.2660  154.5001 C   0  0  0  0  0  0  0  0  0  0  0  0
  145.9888  139.7931  154.6182 C   0  0  0  0  0  0  0  0  0  0  0  0
  146.2929  140.3137  153.2605 N   0  3  1  0  0  0  0  0  0  0  0  0
  147.1732  141.5155  153.2263 C   0  0  0  0  0  0  0  0  0  0  0  0
  148.5376  141.2221  153.8779 C   0  0  0  0  0  0  0  0  0  0  0  0
  146.5167  142.7214  153.9246 C   0  0  0  0  0  0  0  0  0  0  0  0
  146.7646  139.1517  152.4797 C   0  0  0  0  0  0  0  0  0  0  0  0
  147.2831  132.1897  152.6294 C   0  0  0  0  0  0  0  0  0  0  0  0
  147.1033  130.8534  152.5685 N   0  0  0  0  0  0  0  0  0  0  0  0
  146.4611  127.1250  152.3374 H   0  0  0  0  0  0  0  0  0  0  0  0
  146.9838  128.3186  153.5209 H   0  0  0  0  0  0  0  0  0  0  0  0
  147.6857  128.3065  151.8868 H   0  0  0  0  0  0  0  0  0  0  0  0
  143.9817  130.8330  151.2376 H   0  0  0  0  0  0  0  0  0  0  0  0
  144.3160  133.2829  151.3349 H   0  0  0  0  0  0  0  0  0  0  0  0
  147.6080  134.7368  152.1552 H   0  0  0  0  0  0  0  0  0  0  0  0
  147.4773  136.6885  152.3696 H   0  0  0  0  0  0  0  0  0  0  0  0
  144.9229  138.0674  152.5696 H   0  0  0  0  0  0  0  0  0  0  0  0
  144.9306  137.8930  154.9430 H   0  0  0  0  0  0  0  0  0  0  0  0
  146.6866  137.7850  155.0173 H   0  0  0  0  0  0  0  0  0  0  0  0
  145.0684  140.2476  154.9858 H   0  0  0  0  0  0  0  0  0  0  0  0
  146.7853  140.0364  155.3231 H   0  0  0  0  0  0  0  0  0  0  0  0
  147.3442  141.7831  152.1824 H   0  0  0  0  0  0  0  0  0  0  0  0
  149.1695  142.1109  153.8802 H   0  0  0  0  0  0  0  0  0  0  0  0
  149.0875  140.4455  153.3462 H   0  0  0  0  0  0  0  0  0  0  0  0
  148.4209  140.8992  154.9130 H   0  0  0  0  0  0  0  0  0  0  0  0
  147.1944  143.5755  153.9474 H   0  0  0  0  0  0  0  0  0  0  0  0
  146.2495  142.4863  154.9553 H   0  0  0  0  0  0  0  0  0  0  0  0
  145.6145  143.0504  153.4090 H   0  0  0  0  0  0  0  0  0  0  0  0
  147.8249  138.9797  152.6759 H   0  0  0  0  0  0  0  0  0  0  0  0
  146.6317  139.2995  151.4075 H   0  0  0  0  0  0  0  0  0  0  0  0
  148.2337  132.5188  153.0229 H   0  0  0  0  0  0  0  0  0  0  0  0
  145.4067  140.5792  152.8547 H   0  0  0  0  0  0  0  0  0  0  0  0
  1  2  1  0  0  0  0
  1 21  1  0  0  0  0
  1 22  1  0  0  0  0
  1 23  1  0  0  0  0
  2  3  1  0  0  0  0
  3 20  1  0  0  0  0
  3  4  2  0  0  0  0
  4  5  1  0  0  0  0
  4 24  1  0  0  0  0
  5  6  2  0  0  0  0
  5 25  1  0  0  0  0
  6  7  1  0  0  0  0
  6 19  1  0  0  0  0
  7  8  1  0  0  0  0
  7 26  1  0  0  0  0
  8  9  2  0  0  0  0
  8 10  1  0  0  0  0
 10 11  1  0  0  0  0
 10 27  1  0  0  0  0
 11 18  1  0  0  0  0
 11 12  1  0  0  0  0
 11 28  1  0  0  0  0
 12 13  1  0  0  0  0
 12 29  1  0  0  0  0
 12 30  1  0  0  0  0
 13 14  1  0  0  0  0
 13 31  1  0  0  0  0
 13 32  1  0  0  0  0
 14 15  1  0  0  0  0
 14 18  1  0  0  0  0
 14 43  1  0  0  0  0
 15 16  1  0  0  0  0
 15 17  1  0  0  0  0
 15 33  1  0  0  0  0
 16 34  1  0  0  0  0
 16 35  1  0  0  0  0
 16 36  1  0  0  0  0
 17 37  1  0  0  0  0
 17 38  1  0  0  0  0
 17 39  1  0  0  0  0
 18 40  1  0  0  0  0
 18 41  1  0  0  0  0
 19 20  2  0  0  0  0
 19 42  1  0  0  0  0
M  CHG  1  14   1
M  END
> <s_m_source_file>
AV-unprocessed.smi

> <i_m_source_file_index>
1564

> <i_lp_mmshare_version>
43012

> <i_f3d_flags>
0

> <s_epik_input>
W0NIM11PYzFbY0hdW2NIXWMoW2NIXW4xKVtOSF1DKD1PKVtOSF1bQ0BASF0yW0NIMl1bQ0gyXU4oW0NIMl0yKVtDSF0oW0NIM10pW0NIM10=

> <s_epik_cmdline>
J2VwaWtfcHl0aG9uJywgJy1waCcsICc3LjAnLCAnLXRuJywgJzgnLCAnLW1hJywgJzIwMCcsICctbWV0YWxfYmluZGluZycsICctaW1hZScsICc8aW5maWxlLm1hZT4nLCAnLW9tYWUnLCAnPG91dGZpbGUubWFlPic=

> <r_lp_tautomer_probability>
1

> <r_epik_Ionization_Penalty>
0.000679474

> <r_epik_Ionization_Penalty_Charging>
0.000606352

> <r_epik_Ionization_Penalty_Neutral>
7.31222e-05

> <r_epik_State_Penalty>
0.000382168

> <r_epik_Charging_Adjusted_Penalty>
0.00098852

> <i_epik_Tot_Q>
1

> <i_epik_Tot_abs_Q>
1

> <r_epik_Metal_State_Penalty>
-0

> <b_epik_Metal_Only>
0

> <s_lp_Force_Field>
OPLS_2005

> <r_lp_Energy>
32.3031

> <b_lp_Chiralities_Consistent>
1

> <s_lp_Variant>
AV-unprocessed.smi:1564-2

> <Gold.Version>
5.8.1

> <Gold.Id.Protein>
6NUR|6NUR_protein|mol2

> <Gold.PLP.Fitness>
43.3620

> <Gold.PLP.PLP>
-32.8915

> <Gold.PLP.part.hbond>
-3.0000

> <Gold.PLP.part.metal>
0.0000

> <Gold.PLP.part.buried>
-5.2402

> <Gold.PLP.part.nonpolar>
-25.3608

> <Gold.PLP.part.repulsive>
1.1217

> <Gold.PLP.ligand.clash>
0.0000

> <Gold.PLP.ligand.torsion>
0.5736

> <Gold.PLP.Chemscore.Hbond>
3.8640

> <Gold.PLP.Chemscore.CHOScore>
0.0000

> <Gold.PLP.Chemscore.Metal>
0.0000

> <Gold.Chemscore.Hbonds>
donor molecule, donor type, donor heavy atom, donor atom, acceptor molecule, acceptor atom, score
      L1  H     7    26       P1  7948  0.94
      L1  H    10    27       P1  7948  1.00
      L1  H    14    43       P1 10175  2.00

> <Gold.PLP.Chemscore.Internal.Correction>
0.0258

> <Gold.Rescore>
     Score         DG    S(hbond)    S(metal)    S(lipo)     H(rot)  DE(clash)    DE(int)     intcor
     17.95     -18.88       2.74        0.00      68.02       1.44       0.28       0.65       ----

> <Gold.Chemscore.Fitness>
17.9545

> <Gold.Chemscore.DG>
-18.8841

> <Gold.Chemscore.ZeroCoef>
-5.4800

> <Gold.Chemscore.Hbond>
2.7375

> <Gold.Chemscore.Metal>
0.0000

> <Gold.Chemscore.Lipo>
68.0217

> <Gold.Chemscore.Internal_Hbond>
0.0000

> <Gold.Chemscore.DEClash>
0.2786

> <Gold.Chemscore.DEInternal>
0.6510

> <Gold.Chemscore.Rot>
1.4445

> <Gold.Chemscore.Internal.Correction>
   9.000000E+99

> <Gold.Chemscore.Hbonds>
donor molecule, donor type, donor heavy atom, donor atom, acceptor molecule, acceptor atom, score
      L1  H     7    26       P1  7948  0.66
      L1  H    10    27       P1  7948  0.99
      L1  H    14    43       P1 10175  0.70

> <Gold.Chemscore.Hbond.Weighted>
-9.1434

> <Gold.Chemscore.Metal.Weighted>
-0.0000

> <Gold.Chemscore.Lipo.Weighted>
-7.9585

> <Gold.Chemscore.Internal_Hbond.Weighted>
0.0000

> <Gold.Chemscore.DEClash.Weighted>
0.2786

> <Gold.Chemscore.DEInternal.Weighted>
0.6510

> <Gold.Chemscore.Rot.Weighted>
3.6979

> <Gold.Chemscore.Internal.Correction.Weighted>
   9.000000E+99

> <Gold.Protein.RotatedTorsions>
[ 6907 6896 6895 6894 ] final  -34.55 input  -60.11 | X-H torsion
[ 7974 7965 7964 7962 ] final  -23.00 input  175.53 | X-H torsion
[ 8008 7997 7996 7995 ] final   49.84 input   59.86 | X-H torsion
[ 10167 10162 10161 10158 ] final   22.76 input  -65.29 | X-H torsion
[ 10718 10713 10712 10709 ] final  -24.77 input   66.30 | X-H torsion
[ 10763 10752 10751 10750 ] final -165.24 input  -60.55 | X-H torsion
[ 11005 11000 10999 10996 ] final  158.87 input  -57.11 | X-H torsion

> <Gold.Protein.ActiveResidues>
 VAL166  LYS551  ARG553  GLY616  TRP617  ASP618  TYR619  PRO620  LYS621  CYS622 
 ASP623  PHE694  ASN695  SER759  ASP760  ASP761  ALA762  ILE779  LEU786  VAL792 
 PHE793  MET794  SER795  GLU796  ALA797  LYS798  CYS799  TRP800  GLU811  SER814 

> <Gold.Protein.RotatedAtoms>
  151.0511  134.9673  159.8211 H   0  0  0  0  0  0  0  0  0  0  0  0  # atno 6907 bound_to 6896
  152.5381  134.2536  159.8918 H   0  0  0  0  0  0  0  0  0  0  0  0  # atno 6908 bound_to 6896
  151.2551  133.4287  159.2647 H   0  0  0  0  0  0  0  0  0  0  0  0  # atno 6909 bound_to 6896
  146.1642  140.4556  142.8559 H   0  0  0  0  0  0  0  0  0  0  0  0  # atno 7974 bound_to 7965
  155.4088  140.3441  155.4262 H   0  0  0  0  0  0  0  0  0  0  0  0  # atno 8008 bound_to 7997
  156.1460  140.1556  156.8877 H   0  0  0  0  0  0  0  0  0  0  0  0  # atno 8009 bound_to 7997
  154.5011  140.0814  156.7781 H   0  0  0  0  0  0  0  0  0  0  0  0  # atno 8010 bound_to 7997
  140.5323  143.9821  150.6472 H   0  0  0  0  0  0  0  0  0  0  0  0  # atno 10167 bound_to 10162
  156.4732  130.4529  149.6856 H   0  0  0  0  0  0  0  0  0  0  0  0  # atno 10718 bound_to 10713
  154.6951  135.2977  154.9424 H   0  0  0  0  0  0  0  0  0  0  0  0  # atno 10763 bound_to 10752
  154.0374  135.6662  153.4790 H   0  0  0  0  0  0  0  0  0  0  0  0  # atno 10764 bound_to 10752
  153.0640  135.5099  154.8064 H   0  0  0  0  0  0  0  0  0  0  0  0  # atno 10765 bound_to 10752
  140.1906  134.8410  157.2908 H   0  0  0  0  0  0  0  0  0  0  0  0  # atno 11005 bound_to 11000
  144.8069  140.6316  143.6441 LP  0  0  0  0  0  0  0  0  0  0  0  0  # atno 17320 bound_to 7965
  145.4510  139.1523  143.3918 LP  0  0  0  0  0  0  0  0  0  0  0  0  # atno 17321 bound_to 7965
  140.3199  143.3144  152.0795 LP  0  0  0  0  0  0  0  0  0  0  0  0  # atno 17342 bound_to 10162
  139.4958  144.6581  151.6528 LP  0  0  0  0  0  0  0  0  0  0  0  0  # atno 17343 bound_to 10162
  156.3597  130.7475  151.2445 LP  0  0  0  0  0  0  0  0  0  0  0  0  # atno 17370 bound_to 10713
  157.7489  131.0354  150.4360 LP  0  0  0  0  0  0  0  0  0  0  0  0  # atno 17371 bound_to 10713
  140.2164  134.4077  155.7587 LP  0  0  0  0  0  0  0  0  0  0  0  0  # atno 17394 bound_to 11000
  141.2226  133.7143  156.8420 LP  0  0  0  0  0  0  0  0  0  0  0  0  # atno 17395 bound_to 11000

$$$$
