AV-unprocessed.smi:2237|AV-procd|sdf|9046|dock2
  -GOLD-   2272012253D 1   1.00000     0.00000
 Structure written by MMmdl.
 55 57  0  0  0  0  0  0  0  0  3 V2000
  153.3427  141.2386  160.2032 C   0  0  0  0  0  0  0  0  0  0  0  0
  152.7488  142.4018  159.4368 C   0  0  0  0  0  0  0  0  0  0  0  0
  153.1082  143.7289  159.7422 C   0  0  0  0  0  0  0  0  0  0  0  0
  152.5189  144.7638  158.9942 C   0  0  0  0  0  0  0  0  0  0  0  0
  151.6001  144.4313  157.9800 C   0  0  0  0  0  0  0  0  0  0  0  0
  151.2927  143.0734  157.7387 C   0  0  0  0  0  0  0  0  0  0  0  0
  150.3576  142.8439  156.6947 N   0  0  0  0  0  0  0  0  0  0  0  0
  150.0715  141.6851  156.0757 C   0  0  0  0  0  0  0  0  0  0  0  0
  150.5779  140.5929  156.3344 O   0  0  0  0  0  0  0  0  0  0  0  0
  149.1449  141.8599  155.1222 N   0  0  0  0  0  0  0  0  0  0  0  0
  148.6206  140.8056  154.2589 C   0  0  2  0  0  0  0  0  0  0  0  0
  147.4746  141.3556  153.4002 C   0  0  0  0  0  0  0  0  0  0  0  0
  146.8356  140.2539  152.5370 C   0  0  0  0  0  0  0  0  0  0  0  0
  146.3512  139.1121  153.3672 N   0  3  1  0  0  0  0  0  0  0  0  0
  145.6067  138.0414  152.6248 C   0  0  2  0  0  0  0  0  0  0  0  0
  145.1184  136.8660  153.5094 C   0  0  0  0  0  0  0  0  0  0  0  0
  144.4142  135.7754  152.6830 C   0  0  0  0  0  0  0  0  0  0  0  0
  145.2988  135.2596  151.6117 N   0  3  1  0  0  0  0  0  0  0  0  0
  144.6918  134.1324  150.8711 C   0  0  0  0  0  0  0  0  0  0  0  0
  145.7551  136.3452  150.7121 C   0  0  0  0  0  0  0  0  0  0  0  0
  146.4854  137.4472  151.4985 C   0  0  0  0  0  0  0  0  0  0  0  0
  147.4649  138.5537  154.1873 C   0  0  0  0  0  0  0  0  0  0  0  0
  148.1011  139.6221  155.0902 C   0  0  0  0  0  0  0  0  0  0  0  0
  151.8666  142.0824  158.4654 N   0  0  0  0  0  0  0  0  0  0  0  0
  154.1985  141.5554  160.8000 H   0  0  0  0  0  0  0  0  0  0  0  0
  153.6779  140.4587  159.5185 H   0  0  0  0  0  0  0  0  0  0  0  0
  152.5973  140.8107  160.8737 H   0  0  0  0  0  0  0  0  0  0  0  0
  153.8162  143.9510  160.5272 H   0  0  0  0  0  0  0  0  0  0  0  0
  152.7667  145.7958  159.1943 H   0  0  0  0  0  0  0  0  0  0  0  0
  151.1388  145.2147  157.3965 H   0  0  0  0  0  0  0  0  0  0  0  0
  149.8526  143.6589  156.3797 H   0  0  0  0  0  0  0  0  0  0  0  0
  148.7831  142.7914  154.9779 H   0  0  0  0  0  0  0  0  0  0  0  0
  149.4137  140.4580  153.5937 H   0  0  0  0  0  0  0  0  0  0  0  0
  146.7107  141.7992  154.0410 H   0  0  0  0  0  0  0  0  0  0  0  0
  147.8418  142.1576  152.7584 H   0  0  0  0  0  0  0  0  0  0  0  0
  146.0127  140.7201  151.9970 H   0  0  0  0  0  0  0  0  0  0  0  0
  147.5488  139.8920  151.7948 H   0  0  0  0  0  0  0  0  0  0  0  0
  144.7212  138.4989  152.1799 H   0  0  0  0  0  0  0  0  0  0  0  0
  145.9606  136.4253  154.0454 H   0  0  0  0  0  0  0  0  0  0  0  0
  144.4099  137.2150  154.2611 H   0  0  0  0  0  0  0  0  0  0  0  0
  144.1204  134.9550  153.3393 H   0  0  0  0  0  0  0  0  0  0  0  0
  143.4978  136.1714  152.2417 H   0  0  0  0  0  0  0  0  0  0  0  0
  143.7933  134.4503  150.3401 H   0  0  0  0  0  0  0  0  0  0  0  0
  144.4193  133.3255  151.5521 H   0  0  0  0  0  0  0  0  0  0  0  0
  145.3948  133.7278  150.1421 H   0  0  0  0  0  0  0  0  0  0  0  0
  146.4254  135.9331  149.9568 H   0  0  0  0  0  0  0  0  0  0  0  0
  144.8994  136.7658  150.1810 H   0  0  0  0  0  0  0  0  0  0  0  0
  146.7970  138.2144  150.7914 H   0  0  0  0  0  0  0  0  0  0  0  0
  147.4022  137.0387  151.9259 H   0  0  0  0  0  0  0  0  0  0  0  0
  147.1148  137.7406  154.8203 H   0  0  0  0  0  0  0  0  0  0  0  0
  148.2233  138.1278  153.5280 H   0  0  0  0  0  0  0  0  0  0  0  0
  148.9164  139.1774  155.6623 H   0  0  0  0  0  0  0  0  0  0  0  0
  147.3662  139.9693  155.8182 H   0  0  0  0  0  0  0  0  0  0  0  0
  145.6887  139.5141  154.0154 H   0  0  0  0  0  0  0  0  0  0  0  0
  146.1225  134.8906  152.0657 H   0  0  0  0  0  0  0  0  0  0  0  0
  1  2  1  0  0  0  0
  1 25  1  0  0  0  0
  1 26  1  0  0  0  0
  1 27  1  0  0  0  0
  2 24  1  0  0  0  0
  2  3  2  0  0  0  0
  3  4  1  0  0  0  0
  3 28  1  0  0  0  0
  4  5  2  0  0  0  0
  4 29  1  0  0  0  0
  5  6  1  0  0  0  0
  5 30  1  0  0  0  0
  6  7  1  0  0  0  0
  6 24  2  0  0  0  0
  7  8  1  0  0  0  0
  7 31  1  0  0  0  0
  8  9  2  0  0  0  0
  8 10  1  0  0  0  0
 10 11  1  0  0  0  0
 10 32  1  0  0  0  0
 11 23  1  0  0  0  0
 11 12  1  0  0  0  0
 11 33  1  0  0  0  0
 12 13  1  0  0  0  0
 12 34  1  0  0  0  0
 12 35  1  0  0  0  0
 13 14  1  0  0  0  0
 13 36  1  0  0  0  0
 13 37  1  0  0  0  0
 14 15  1  0  0  0  0
 14 22  1  0  0  0  0
 14 54  1  0  0  0  0
 15 21  1  0  0  0  0
 15 16  1  0  0  0  0
 15 38  1  0  0  0  0
 16 17  1  0  0  0  0
 16 39  1  0  0  0  0
 16 40  1  0  0  0  0
 17 18  1  0  0  0  0
 17 41  1  0  0  0  0
 17 42  1  0  0  0  0
 18 19  1  0  0  0  0
 18 20  1  0  0  0  0
 18 55  1  0  0  0  0
 19 43  1  0  0  0  0
 19 44  1  0  0  0  0
 19 45  1  0  0  0  0
 20 21  1  0  0  0  0
 20 46  1  0  0  0  0
 20 47  1  0  0  0  0
 21 48  1  0  0  0  0
 21 49  1  0  0  0  0
 22 23  1  0  0  0  0
 22 50  1  0  0  0  0
 22 51  1  0  0  0  0
 23 52  1  0  0  0  0
 23 53  1  0  0  0  0
M  CHG  1  14   1
M  CHG  1  18   1
M  END
> <s_m_source_file>
AV-unprocessed.smi

> <i_m_source_file_index>
2237

> <i_lp_mmshare_version>
43012

> <i_f3d_flags>
0

> <s_epik_input>
W0NIM11jMVtjSF1bY0hdW2NIXWMobjEpW05IXUMoPU8pW05IXVtDSF0yW0NIMl1bQ0gyXU4oW0NIMl1bQ0gyXTIpW0NIXTNbQ0gyXVtDSDJdTihbQ0gzXSlbQ0gyXVtDSDJdMw==

> <s_epik_cmdline>
J2VwaWtfcHl0aG9uJywgJy1waCcsICc3LjAnLCAnLXRuJywgJzgnLCAnLW1hJywgJzIwMCcsICctbWV0YWxfYmluZGluZycsICctaW1hZScsICc8aW5maWxlLm1hZT4nLCAnLW9tYWUnLCAnPG91dGZpbGUubWFlPic=

> <r_epik_Ionization_Penalty>
0.180851

> <r_epik_Ionization_Penalty_Charging>
0.180787

> <r_epik_Ionization_Penalty_Neutral>
6.38624e-05

> <r_epik_State_Penalty>
0.153592

> <r_epik_Charging_Adjusted_Penalty>
0.334379

> <i_epik_Tot_Q>
2

> <i_epik_Tot_abs_Q>
2

> <r_epik_Metal_State_Penalty>
0.153595

> <b_epik_Metal_Only>
0

> <s_lp_Force_Field>
OPLS_2005

> <r_lp_Energy>
40.5749

> <b_lp_Chiralities_Consistent>
1

> <s_lp_Variant>
AV-unprocessed.smi:2237-1

> <Gold.Version>
5.8.1

> <Gold.Id.Protein>
6NUR|6NUR_protein|mol2

> <Gold.PLP.Fitness>
49.0796

> <Gold.PLP.PLP>
-43.6022

> <Gold.PLP.part.hbond>
-2.6745

> <Gold.PLP.part.metal>
0.0000

> <Gold.PLP.part.buried>
0.1801

> <Gold.PLP.part.nonpolar>
-41.4874

> <Gold.PLP.part.repulsive>
0.2660

> <Gold.PLP.ligand.clash>
0.0000

> <Gold.PLP.ligand.torsion>
0.1233

> <Gold.PLP.Chemscore.Hbond>
1.8960

> <Gold.PLP.Chemscore.CHOScore>
0.0000

> <Gold.PLP.Chemscore.Metal>
0.0000

> <Gold.Chemscore.Hbonds>
donor molecule, donor type, donor heavy atom, donor atom, acceptor molecule, acceptor atom, score
      L1  H     7    31       P1  8028  1.00
      L1  H    10    32       P1  8028  0.89

> <Gold.PLP.Chemscore.Internal.Correction>
0.0360

> <Gold.Rescore>
     Score         DG    S(hbond)    S(metal)    S(lipo)     H(rot)  DE(clash)    DE(int)     intcor
     19.38     -23.65       1.88        0.00     128.65       1.23       1.75       2.53       ----

> <Gold.Chemscore.Fitness>
19.3798

> <Gold.Chemscore.DG>
-23.6510

> <Gold.Chemscore.ZeroCoef>
-5.4800

> <Gold.Chemscore.Hbond>
1.8762

> <Gold.Chemscore.Metal>
0.0000

> <Gold.Chemscore.Lipo>
128.6500

> <Gold.Chemscore.Internal_Hbond>
0.0000

> <Gold.Chemscore.DEClash>
1.7460

> <Gold.Chemscore.DEInternal>
2.5252

> <Gold.Chemscore.Rot>
1.2295

> <Gold.Chemscore.Internal.Correction>
   9.000000E+99

> <Gold.Chemscore.Hbonds>
donor molecule, donor type, donor heavy atom, donor atom, acceptor molecule, acceptor atom, score
      L1  H     7    31       P1  8028  0.99
      L1  H    10    32       P1  8028  0.81

> <Gold.Chemscore.Hbond.Weighted>
-6.2664

> <Gold.Chemscore.Metal.Weighted>
-0.0000

> <Gold.Chemscore.Lipo.Weighted>
-15.0521

> <Gold.Chemscore.Internal_Hbond.Weighted>
0.0000

> <Gold.Chemscore.DEClash.Weighted>
1.7460

> <Gold.Chemscore.DEInternal.Weighted>
2.5252

> <Gold.Chemscore.Rot.Weighted>
3.1474

> <Gold.Chemscore.Internal.Correction.Weighted>
   9.000000E+99

> <Gold.Protein.RotatedTorsions>
[ 6907 6896 6895 6894 ] final -146.62 input  -60.11 | X-H torsion
[ 7974 7965 7964 7962 ] final  -92.71 input  175.53 | X-H torsion
[ 8008 7997 7996 7995 ] final  -77.60 input   59.86 | X-H torsion
[ 10167 10162 10161 10158 ] final  114.25 input  -65.29 | X-H torsion
[ 10718 10713 10712 10709 ] final  -69.22 input   66.30 | X-H torsion
[ 10763 10752 10751 10750 ] final   10.29 input  -60.55 | X-H torsion
[ 11005 11000 10999 10996 ] final  105.25 input  -57.11 | X-H torsion

> <Gold.Protein.ActiveResidues>
 VAL166  LYS551  ARG553  GLY616  TRP617  ASP618  TYR619  PRO620  LYS621  CYS622 
 ASP623  PHE694  ASN695  SER759  ASP760  ASP761  ALA762  ILE779  LEU786  VAL792 
 PHE793  MET794  SER795  GLU796  ALA797  LYS798  CYS799  TRP800  GLU811  SER814 

> <Gold.Protein.RotatedAtoms>
  151.1441  133.4951  159.2596 H   0  0  0  0  0  0  0  0  0  0  0  0  # atno 6907 bound_to 6896
  151.1623  135.0279  159.8725 H   0  0  0  0  0  0  0  0  0  0  0  0  # atno 6908 bound_to 6896
  152.5463  134.1314  159.8494 H   0  0  0  0  0  0  0  0  0  0  0  0  # atno 6909 bound_to 6896
  145.3962  140.9533  143.2313 H   0  0  0  0  0  0  0  0  0  0  0  0  # atno 7974 bound_to 7965
  154.5611  140.0708  156.8820 H   0  0  0  0  0  0  0  0  0  0  0  0  # atno 8008 bound_to 7997
  155.2809  140.3371  155.4240 H   0  0  0  0  0  0  0  0  0  0  0  0  # atno 8009 bound_to 7997
  156.2043  140.1734  156.7819 H   0  0  0  0  0  0  0  0  0  0  0  0  # atno 8010 bound_to 7997
  139.6402  144.7123  151.2252 H   0  0  0  0  0  0  0  0  0  0  0  0  # atno 10167 bound_to 10162
  156.0466  130.4309  150.2116 H   0  0  0  0  0  0  0  0  0  0  0  0  # atno 10718 bound_to 10713
  153.2048  135.6861  153.8186 H   0  0  0  0  0  0  0  0  0  0  0  0  # atno 10763 bound_to 10752
  153.7440  135.3234  155.3310 H   0  0  0  0  0  0  0  0  0  0  0  0  # atno 10764 bound_to 10752
  154.8191  135.4665  154.0830 H   0  0  0  0  0  0  0  0  0  0  0  0  # atno 10765 bound_to 10752
  139.8800  134.9329  156.5485 H   0  0  0  0  0  0  0  0  0  0  0  0  # atno 11005 bound_to 11000
  144.8406  139.5479  143.6902 LP  0  0  0  0  0  0  0  0  0  0  0  0  # atno 17320 bound_to 7965
  146.2774  139.6788  142.9253 LP  0  0  0  0  0  0  0  0  0  0  0  0  # atno 17321 bound_to 7965
  140.7487  143.6325  150.8410 LP  0  0  0  0  0  0  0  0  0  0  0  0  # atno 17342 bound_to 10162
  139.9961  143.5794  152.2892 LP  0  0  0  0  0  0  0  0  0  0  0  0  # atno 17343 bound_to 10162
  157.0205  130.9978  151.3341 LP  0  0  0  0  0  0  0  0  0  0  0  0  # atno 17370 bound_to 10713
  157.5347  130.8081  149.7958 LP  0  0  0  0  0  0  0  0  0  0  0  0  # atno 17371 bound_to 10713
  140.8258  133.8318  155.8937 LP  0  0  0  0  0  0  0  0  0  0  0  0  # atno 17394 bound_to 11000
  140.9376  134.1942  157.4820 LP  0  0  0  0  0  0  0  0  0  0  0  0  # atno 17395 bound_to 11000

$$$$
