AV-unprocessed.smi:652|AV-procd|sdf|3200|dock7
  -GOLD-   22720 0133D 1   1.00000     0.00000
 Structure written by MMmdl.
 49 50  0  0  0  0  0  0  0  0  3 V2000
  147.1930  134.6788  162.0553 C   0  0  0  0  0  0  0  0  0  0  0  0
  147.7781  136.0781  161.8227 C   0  0  0  0  0  0  0  0  0  0  0  0
  147.2038  137.1034  162.8137 C   0  0  0  0  0  0  0  0  0  0  0  0
  147.5140  136.4917  160.4473 N   0  0  0  0  0  0  0  0  0  0  0  0
  148.4488  136.7666  159.5241 C   0  0  0  0  0  0  0  0  0  0  0  0
  149.6585  136.6934  159.7413 O   0  0  0  0  0  0  0  0  0  0  0  0
  147.9412  137.1861  158.1419 C   0  0  0  0  0  0  0  0  0  0  0  0
  148.4776  138.5682  157.7194 C   0  0  0  0  0  0  0  0  0  0  0  0
  149.9454  138.5561  157.4810 N   0  3  1  0  0  0  0  0  0  0  0  0
  150.3369  137.8574  156.2329 C   0  0  0  0  0  0  0  0  0  0  0  0
  150.0870  138.7429  154.9995 C   0  0  0  0  0  0  0  0  0  0  0  0
  150.7947  139.9677  155.1498 O   0  0  0  0  0  0  0  0  0  0  0  0
  150.3542  140.7215  156.2755 C   0  0  2  0  0  0  0  0  0  0  0  0
  151.1415  142.0400  156.3004 C   0  0  0  0  0  0  0  0  0  0  0  0
  150.3786  143.1099  156.9262 N   0  0  0  0  0  0  0  0  0  0  0  0
  150.8896  143.7846  158.0429 C   0  0  0  0  0  0  0  0  0  0  0  0
  152.1413  143.5009  158.6373 C   0  0  0  0  0  0  0  0  0  0  0  0
  152.5362  144.2583  159.7531 C   0  0  0  0  0  0  0  0  0  0  0  0
  151.6554  145.2551  160.2087 C   0  0  0  0  0  0  0  0  0  0  0  0
  150.4617  145.5099  159.6277 N   0  0  0  0  0  0  0  0  0  0  0  0
  150.1120  144.7676  158.5621 N   0  3  0  0  0  0  0  0  0  0  0  0
  150.5988  139.8889  157.5549 C   0  0  0  0  0  0  0  0  0  0  0  0
  147.4019  134.3306  163.0674 H   0  0  0  0  0  0  0  0  0  0  0  0
  147.6213  133.9528  161.3633 H   0  0  0  0  0  0  0  0  0  0  0  0
  146.1110  134.6717  161.9186 H   0  0  0  0  0  0  0  0  0  0  0  0
  148.8575  136.0156  161.9734 H   0  0  0  0  0  0  0  0  0  0  0  0
  147.3976  136.8021  163.8435 H   0  0  0  0  0  0  0  0  0  0  0  0
  146.1248  137.2087  162.6962 H   0  0  0  0  0  0  0  0  0  0  0  0
  147.6522  138.0873  162.6723 H   0  0  0  0  0  0  0  0  0  0  0  0
  146.5438  136.5758  160.1799 H   0  0  0  0  0  0  0  0  0  0  0  0
  148.2407  136.4168  157.4305 H   0  0  0  0  0  0  0  0  0  0  0  0
  146.8499  137.2024  158.1470 H   0  0  0  0  0  0  0  0  0  0  0  0
  147.9764  138.8550  156.7934 H   0  0  0  0  0  0  0  0  0  0  0  0
  148.2146  139.3294  158.4541 H   0  0  0  0  0  0  0  0  0  0  0  0
  151.3992  137.6167  156.2931 H   0  0  0  0  0  0  0  0  0  0  0  0
  149.8137  136.9051  156.1408 H   0  0  0  0  0  0  0  0  0  0  0  0
  150.4428  138.2401  154.1001 H   0  0  0  0  0  0  0  0  0  0  0  0
  149.0226  138.9341  154.8555 H   0  0  0  0  0  0  0  0  0  0  0  0
  149.2916  140.9486  156.1742 H   0  0  0  0  0  0  0  0  0  0  0  0
  152.0643  141.9017  156.8652 H   0  0  0  0  0  0  0  0  0  0  0  0
  151.4213  142.3283  155.2863 H   0  0  0  0  0  0  0  0  0  0  0  0
  149.5928  143.5007  156.4259 H   0  0  0  0  0  0  0  0  0  0  0  0
  152.7909  142.7253  158.2600 H   0  0  0  0  0  0  0  0  0  0  0  0
  153.4820  144.0828  160.2443 H   0  0  0  0  0  0  0  0  0  0  0  0
  151.9132  145.8650  161.0622 H   0  0  0  0  0  0  0  0  0  0  0  0
  150.2712  140.4350  158.4387 H   0  0  0  0  0  0  0  0  0  0  0  0
  151.6703  139.7283  157.6807 H   0  0  0  0  0  0  0  0  0  0  0  0
  150.3285  138.0035  158.2350 H   0  0  0  0  0  0  0  0  0  0  0  0
  149.2126  144.9548  158.1185 H   0  0  0  0  0  0  0  0  0  0  0  0
  1  2  1  0  0  0  0
  1 23  1  0  0  0  0
  1 24  1  0  0  0  0
  1 25  1  0  0  0  0
  2  3  1  0  0  0  0
  2  4  1  0  0  0  0
  2 26  1  0  0  0  0
  3 27  1  0  0  0  0
  3 28  1  0  0  0  0
  3 29  1  0  0  0  0
  4  5  1  0  0  0  0
  4 30  1  0  0  0  0
  5  6  2  0  0  0  0
  5  7  1  0  0  0  0
  7  8  1  0  0  0  0
  7 31  1  0  0  0  0
  7 32  1  0  0  0  0
  8  9  1  0  0  0  0
  8 33  1  0  0  0  0
  8 34  1  0  0  0  0
  9 22  1  0  0  0  0
  9 10  1  0  0  0  0
  9 48  1  0  0  0  0
 10 11  1  0  0  0  0
 10 35  1  0  0  0  0
 10 36  1  0  0  0  0
 11 12  1  0  0  0  0
 11 37  1  0  0  0  0
 11 38  1  0  0  0  0
 12 13  1  0  0  0  0
 13 14  1  0  0  0  0
 13 22  1  0  0  0  0
 13 39  1  0  0  0  0
 14 15  1  0  0  0  0
 14 40  1  0  0  0  0
 14 41  1  0  0  0  0
 15 16  1  0  0  0  0
 15 42  1  0  0  0  0
 16 21  1  0  0  0  0
 16 17  2  0  0  0  0
 17 18  1  0  0  0  0
 17 43  1  0  0  0  0
 18 19  2  0  0  0  0
 18 44  1  0  0  0  0
 19 20  1  0  0  0  0
 19 45  1  0  0  0  0
 20 21  2  0  0  0  0
 21 49  1  0  0  0  0
 22 46  1  0  0  0  0
 22 47  1  0  0  0  0
M  CHG  1   9   1
M  CHG  1  21   1
M  END
> <s_m_source_file>
AV-unprocessed.smi

> <i_m_source_file_index>
652

> <i_lp_mmshare_version>
43012

> <i_f3d_flags>
0

> <s_epik_input>
W0NIM11bQ0hdKFtDSDNdKVtOSF1DKD1PKVtDSDJdW0NIMl1OMVtDSDJdW0NIMl1PW0NASF0oW0NIMl0xKVtDSDJdW05IXWMyW2NIXVtjSF1bY0hdbm4y

> <s_epik_cmdline>
J2VwaWtfcHl0aG9uJywgJy1waCcsICc3LjAnLCAnLXRuJywgJzgnLCAnLW1hJywgJzIwMCcsICctbWV0YWxfYmluZGluZycsICctaW1hZScsICc8aW5maWxlLm1hZT4nLCAnLW9tYWUnLCAnPG91dGZpbGUubWFlPic=

> <r_lp_tautomer_probability>
0.966961

> <r_epik_Ionization_Penalty>
2.79885

> <r_epik_Ionization_Penalty_Charging>
2.79884

> <r_epik_Ionization_Penalty_Neutral>
3.2567e-06

> <r_epik_State_Penalty>
2.43203

> <r_epik_Charging_Adjusted_Penalty>
5.23087

> <i_epik_Tot_Q>
2

> <i_epik_Tot_abs_Q>
2

> <r_epik_Metal_State_Penalty>
2.43963

> <b_epik_Metal_Only>
0

> <s_lp_Force_Field>
OPLS_2005

> <r_lp_Energy>
31.8364

> <b_lp_Chiralities_Consistent>
1

> <s_lp_Variant>
AV-unprocessed.smi:652-9

> <Gold.Version>
5.8.1

> <Gold.Id.Protein>
6NUR|6NUR_protein|mol2

> <Gold.PLP.Fitness>
57.5284

> <Gold.PLP.PLP>
-40.4648

> <Gold.PLP.part.hbond>
-5.5520

> <Gold.PLP.part.metal>
0.0000

> <Gold.PLP.part.buried>
-6.2712

> <Gold.PLP.part.nonpolar>
-29.5133

> <Gold.PLP.part.repulsive>
0.6624

> <Gold.PLP.ligand.clash>
0.0000

> <Gold.PLP.ligand.torsion>
0.5229

> <Gold.PLP.Chemscore.Hbond>
6.0000

> <Gold.PLP.Chemscore.CHOScore>
0.0000

> <Gold.PLP.Chemscore.Metal>
0.0000

> <Gold.Chemscore.Hbonds>
donor molecule, donor type, donor heavy atom, donor atom, acceptor molecule, acceptor atom, score
      L1  H    15    42       P1  8028  2.00
      L1  H    21    49       P1  8029  2.00
      P1  H  6896  6908       L1     6  0.71
      P1  H  7989  7998       L1    12  0.93

> <Gold.PLP.Chemscore.Internal.Correction>
0.1095

> <Gold.Rescore>
     Score         DG    S(hbond)    S(metal)    S(lipo)     H(rot)  DE(clash)    DE(int)     intcor
     21.62     -22.16       3.46        0.00      94.96       2.33       0.04       0.51       ----

> <Gold.Chemscore.Fitness>
21.6193

> <Gold.Chemscore.DG>
-22.1635

> <Gold.Chemscore.ZeroCoef>
-5.4800

> <Gold.Chemscore.Hbond>
3.4563

> <Gold.Chemscore.Metal>
0.0000

> <Gold.Chemscore.Lipo>
94.9646

> <Gold.Chemscore.Internal_Hbond>
0.0000

> <Gold.Chemscore.DEClash>
0.0385

> <Gold.Chemscore.DEInternal>
0.5057

> <Gold.Chemscore.Rot>
2.3326

> <Gold.Chemscore.Internal.Correction>
   9.000000E+99

> <Gold.Chemscore.Hbonds>
donor molecule, donor type, donor heavy atom, donor atom, acceptor molecule, acceptor atom, score
      L1  H    15    42       P1  8028  0.93
      L1  H    21    49       P1  8029  0.34
      P1  H  6896  6908       L1     6  0.71
      P1  H  7989  7998       L1    12  0.86

> <Gold.Chemscore.Hbond.Weighted>
-11.5440

> <Gold.Chemscore.Metal.Weighted>
-0.0000

> <Gold.Chemscore.Lipo.Weighted>
-11.1109

> <Gold.Chemscore.Internal_Hbond.Weighted>
0.0000

> <Gold.Chemscore.DEClash.Weighted>
0.0385

> <Gold.Chemscore.DEInternal.Weighted>
0.5057

> <Gold.Chemscore.Rot.Weighted>
5.9714

> <Gold.Chemscore.Internal.Correction.Weighted>
   9.000000E+99

> <Gold.Protein.RotatedTorsions>
[ 6907 6896 6895 6894 ] final -157.22 input  -60.11 | X-H torsion
[ 7974 7965 7964 7962 ] final -175.35 input  175.53 | X-H torsion
[ 8008 7997 7996 7995 ] final  -46.49 input   59.86 | X-H torsion
[ 10167 10162 10161 10158 ] final  -79.47 input  -65.29 | X-H torsion
[ 10718 10713 10712 10709 ] final -166.28 input   66.30 | X-H torsion
[ 10763 10752 10751 10750 ] final  117.90 input  -60.55 | X-H torsion
[ 11005 11000 10999 10996 ] final   55.15 input  -57.11 | X-H torsion

> <Gold.Protein.ActiveResidues>
 VAL166  LYS551  ARG553  GLY616  TRP617  ASP618  TYR619  PRO620  LYS621  CYS622 
 ASP623  PHE694  ASN695  SER759  ASP760  ASP761  ALA762  ILE779  LEU786  VAL792 
 PHE793  MET794  SER795  GLU796  ALA797  LYS798  CYS799  TRP800  GLU811  SER814 

> <Gold.Protein.RotatedAtoms>
  151.2995  133.4129  159.2638 H   0  0  0  0  0  0  0  0  0  0  0  0  # atno 6907 bound_to 6896
  151.0207  134.9467  159.8068 H   0  0  0  0  0  0  0  0  0  0  0  0  # atno 6908 bound_to 6896
  152.5323  134.2958  159.9112 H   0  0  0  0  0  0  0  0  0  0  0  0  # atno 6909 bound_to 6896
  144.7128  140.1335  143.6397 H   0  0  0  0  0  0  0  0  0  0  0  0  # atno 7974 bound_to 7965
  154.4008  140.1370  156.4020 H   0  0  0  0  0  0  0  0  0  0  0  0  # atno 8008 bound_to 7997
  155.7815  140.3481  155.5279 H   0  0  0  0  0  0  0  0  0  0  0  0  # atno 8009 bound_to 7997
  155.8669  140.0965  157.1566 H   0  0  0  0  0  0  0  0  0  0  0  0  # atno 8010 bound_to 7997
  140.4590  143.2459  151.8377 H   0  0  0  0  0  0  0  0  0  0  0  0  # atno 10167 bound_to 10162
  156.6657  130.9063  151.3036 H   0  0  0  0  0  0  0  0  0  0  0  0  # atno 10718 bound_to 10713
  153.5594  135.3524  155.2793 H   0  0  0  0  0  0  0  0  0  0  0  0  # atno 10763 bound_to 10752
  154.8697  135.4133  154.2847 H   0  0  0  0  0  0  0  0  0  0  0  0  # atno 10764 bound_to 10752
  153.3590  135.7059  153.6796 H   0  0  0  0  0  0  0  0  0  0  0  0  # atno 10765 bound_to 10752
  140.0630  134.5576  155.9131 H   0  0  0  0  0  0  0  0  0  0  0  0  # atno 11005 bound_to 11000
  145.9266  139.2579  143.1350 LP  0  0  0  0  0  0  0  0  0  0  0  0  # atno 17320 bound_to 7965
  145.9566  140.8868  143.0232 LP  0  0  0  0  0  0  0  0  0  0  0  0  # atno 17321 bound_to 7965
  139.4804  144.5030  151.9035 LP  0  0  0  0  0  0  0  0  0  0  0  0  # atno 17342 bound_to 10162
  140.4116  144.2361  150.5889 LP  0  0  0  0  0  0  0  0  0  0  0  0  # atno 17343 bound_to 10162
  157.7094  130.9423  150.1040 LP  0  0  0  0  0  0  0  0  0  0  0  0  # atno 17370 bound_to 10713
  156.1977  130.3658  149.8828 LP  0  0  0  0  0  0  0  0  0  0  0  0  # atno 17371 bound_to 10713
  141.1981  133.6599  156.5775 LP  0  0  0  0  0  0  0  0  0  0  0  0  # atno 17394 bound_to 11000
  140.3741  134.7580  157.4618 LP  0  0  0  0  0  0  0  0  0  0  0  0  # atno 17395 bound_to 11000

$$$$
