AV-unprocessed.smi:1767|AV-procd|sdf|7141|dock3
  -GOLD-   22720 8383D 1   1.00000     0.00000
 Structure written by MMmdl.
 33 35  0  0  0  0  0  0  0  0  2 V2000
  152.0325  139.4218  158.0711 O   0  0  0  0  0  0  0  0  0  0  0  0
  151.3572  140.4519  157.3794 C   0  0  2  0  0  0  0  0  0  0  0  0
  151.8379  140.4422  155.9139 C   0  0  0  0  0  0  0  0  0  0  0  0
  150.9361  139.6880  155.0311 N   0  0  0  0  0  0  0  0  0  0  0  0
  151.0952  138.4529  154.4828 C   0  0  0  0  0  0  0  0  0  0  0  0
  149.9780  138.1782  153.7545 N   0  3  0  0  0  0  0  0  0  0  0  0
  149.0917  139.2540  153.8362 C   0  0  0  0  0  0  0  0  0  0  0  0
  147.8323  139.4397  153.2744 C   0  0  0  0  0  0  0  0  0  0  0  0
  147.1857  140.6604  153.5592 C   0  0  0  0  0  0  0  0  0  0  0  0
  147.7918  141.6404  154.3716 C   0  0  0  0  0  0  0  0  0  0  0  0
  149.0699  141.4422  154.9334 C   0  0  0  0  0  0  0  0  0  0  0  0
  149.7025  140.2314  154.6506 C   0  0  0  0  0  0  0  0  0  0  0  0
  151.5376  141.8104  158.0437 C   0  0  0  0  0  0  0  0  0  0  0  0
  150.9913  142.9644  157.4414 C   0  0  0  0  0  0  0  0  0  0  0  0
  151.1800  144.2301  158.0291 C   0  0  0  0  0  0  0  0  0  0  0  0
  151.9143  144.3496  159.2244 C   0  0  0  0  0  0  0  0  0  0  0  0
  152.0996  145.5672  159.7865 F   0  0  0  0  0  0  0  0  0  0  0  0
  152.4581  143.2023  159.8329 C   0  0  0  0  0  0  0  0  0  0  0  0
  152.2711  141.9362  159.2447 C   0  0  0  0  0  0  0  0  0  0  0  0
  152.9245  139.6960  158.2220 H   0  0  0  0  0  0  0  0  0  0  0  0
  150.2977  140.1926  157.4042 H   0  0  0  0  0  0  0  0  0  0  0  0
  151.9740  141.4525  155.5274 H   0  0  0  0  0  0  0  0  0  0  0  0
  152.8133  139.9576  155.8482 H   0  0  0  0  0  0  0  0  0  0  0  0
  151.9506  137.8046  154.6087 H   0  0  0  0  0  0  0  0  0  0  0  0
  147.3653  138.6903  152.6522 H   0  0  0  0  0  0  0  0  0  0  0  0
  146.2050  140.8485  153.1465 H   0  0  0  0  0  0  0  0  0  0  0  0
  147.2654  142.5630  154.5692 H   0  0  0  0  0  0  0  0  0  0  0  0
  149.5203  142.1999  155.5569 H   0  0  0  0  0  0  0  0  0  0  0  0
  150.4346  142.8839  156.5193 H   0  0  0  0  0  0  0  0  0  0  0  0
  150.7635  145.1100  157.5612 H   0  0  0  0  0  0  0  0  0  0  0  0
  153.0221  143.2933  160.7496 H   0  0  0  0  0  0  0  0  0  0  0  0
  152.7019  141.0638  159.7136 H   0  0  0  0  0  0  0  0  0  0  0  0
  149.8331  137.3178  153.2414 H   0  0  0  0  0  0  0  0  0  0  0  0
  1  2  1  0  0  0  0
  1 20  1  0  0  0  0
  2  3  1  0  0  0  0
  2 13  1  0  0  0  0
  2 21  1  0  0  0  0
  3  4  1  0  0  0  0
  3 22  1  0  0  0  0
  3 23  1  0  0  0  0
  4 12  1  0  0  0  0
  4  5  1  0  0  0  0
  5  6  2  0  0  0  0
  5 24  1  0  0  0  0
  6  7  1  0  0  0  0
  6 33  1  0  0  0  0
  7 12  2  0  0  0  0
  7  8  1  0  0  0  0
  8  9  2  0  0  0  0
  8 25  1  0  0  0  0
  9 10  1  0  0  0  0
  9 26  1  0  0  0  0
 10 11  2  0  0  0  0
 10 27  1  0  0  0  0
 11 12  1  0  0  0  0
 11 28  1  0  0  0  0
 13 19  1  0  0  0  0
 13 14  2  0  0  0  0
 14 15  1  0  0  0  0
 14 29  1  0  0  0  0
 15 16  2  0  0  0  0
 15 30  1  0  0  0  0
 16 17  1  0  0  0  0
 16 18  1  0  0  0  0
 18 19  2  0  0  0  0
 18 31  1  0  0  0  0
 19 32  1  0  0  0  0
M  CHG  1   6   1
M  END
> <s_m_source_file>
AV-unprocessed.smi

> <i_m_source_file_index>
1767

> <i_lp_mmshare_version>
43012

> <i_f3d_flags>
0

> <s_epik_input>
W2NIXTFbY0hdYyhGKVtjSF1bY0hdYzFbQ0BIXShbT0hdKVtDSDJdbihbY0hdbjIpYyhjMjMpW2NIXVtjSF1bY0hdW2NIXTM=

> <s_epik_cmdline>
J2VwaWtfcHl0aG9uJywgJy1waCcsICc3LjAnLCAnLXRuJywgJzgnLCAnLW1hJywgJzIwMCcsICctbWV0YWxfYmluZGluZycsICctaW1hZScsICc8aW5maWxlLm1hZT4nLCAnLW9tYWUnLCAnPG91dGZpbGUubWFlPic=

> <r_epik_Ionization_Penalty>
1.3029

> <r_epik_Ionization_Penalty_Charging>
1.3029

> <r_epik_Ionization_Penalty_Neutral>
1.79538e-06

> <r_epik_State_Penalty>
1.377

> <r_epik_Charging_Adjusted_Penalty>
2.6799

> <i_epik_Tot_Q>
1

> <i_epik_Tot_abs_Q>
1

> <r_epik_Metal_State_Penalty>
5.40879

> <b_epik_Metal_Only>
0

> <s_lp_Force_Field>
OPLS_2005

> <r_lp_Energy>
17.7516

> <b_lp_Chiralities_Consistent>
1

> <s_lp_Variant>
AV-unprocessed.smi:1767-3

> <Gold.Version>
5.8.1

> <Gold.Id.Protein>
6NUR|6NUR_protein|mol2

> <Gold.PLP.Fitness>
51.0692

> <Gold.PLP.PLP>
-46.5673

> <Gold.PLP.part.hbond>
-1.2945

> <Gold.PLP.part.metal>
0.0000

> <Gold.PLP.part.buried>
1.9100

> <Gold.PLP.part.nonpolar>
-46.4231

> <Gold.PLP.part.repulsive>
0.0558

> <Gold.PLP.ligand.clash>
0.0000

> <Gold.PLP.ligand.torsion>
0.7599

> <Gold.PLP.Chemscore.Hbond>
2.0000

> <Gold.PLP.Chemscore.CHOScore>
0.0000

> <Gold.PLP.Chemscore.Metal>
0.0000

> <Gold.Chemscore.Hbonds>
donor molecule, donor type, donor heavy atom, donor atom, acceptor molecule, acceptor atom, score
      L1  H     6    33       P1  7948  2.00

> <Gold.PLP.Chemscore.Internal.Correction>
0.0216

> <Gold.Rescore>
     Score         DG    S(hbond)    S(metal)    S(lipo)     H(rot)  DE(clash)    DE(int)     intcor
     16.07     -17.29       0.94        0.00     117.01       1.97       0.46       0.75       ----

> <Gold.Chemscore.Fitness>
16.0746

> <Gold.Chemscore.DG>
-17.2890

> <Gold.Chemscore.ZeroCoef>
-5.4800

> <Gold.Chemscore.Hbond>
0.9449

> <Gold.Chemscore.Metal>
0.0000

> <Gold.Chemscore.Lipo>
117.0099

> <Gold.Chemscore.Internal_Hbond>
0.0000

> <Gold.Chemscore.DEClash>
0.4611

> <Gold.Chemscore.DEInternal>
0.7533

> <Gold.Chemscore.Rot>
1.9677

> <Gold.Chemscore.Internal.Correction>
   9.000000E+99

> <Gold.Chemscore.Hbonds>
donor molecule, donor type, donor heavy atom, donor atom, acceptor molecule, acceptor atom, score
      L1  H     6    33       P1  7948  0.43

> <Gold.Chemscore.Hbond.Weighted>
-3.1560

> <Gold.Chemscore.Metal.Weighted>
-0.0000

> <Gold.Chemscore.Lipo.Weighted>
-13.6902

> <Gold.Chemscore.Internal_Hbond.Weighted>
0.0000

> <Gold.Chemscore.DEClash.Weighted>
0.4611

> <Gold.Chemscore.DEInternal.Weighted>
0.7533

> <Gold.Chemscore.Rot.Weighted>
5.0372

> <Gold.Chemscore.Internal.Correction.Weighted>
   9.000000E+99

> <Gold.Protein.RotatedTorsions>
[ 6907 6896 6895 6894 ] final   91.70 input  -60.11 | X-H torsion
[ 7974 7965 7964 7962 ] final  -68.25 input  175.53 | X-H torsion
[ 8008 7997 7996 7995 ] final -168.34 input   59.86 | X-H torsion
[ 10167 10162 10161 10158 ] final  161.85 input  -65.29 | X-H torsion
[ 10718 10713 10712 10709 ] final   -2.46 input   66.30 | X-H torsion
[ 10763 10752 10751 10750 ] final  171.38 input  -60.55 | X-H torsion
[ 11005 11000 10999 10996 ] final   25.05 input  -57.11 | X-H torsion

> <Gold.Protein.ActiveResidues>
 VAL166  LYS551  ARG553  GLY616  TRP617  ASP618  TYR619  PRO620  LYS621  CYS622 
 ASP623  PHE694  ASN695  SER759  ASP760  ASP761  ALA762  ILE779  LEU786  VAL792 
 PHE793  MET794  SER795  GLU796  ALA797  LYS798  CYS799  TRP800  GLU811  SER814 

> <Gold.Protein.RotatedAtoms>
  152.5451  134.1617  159.8560 H   0  0  0  0  0  0  0  0  0  0  0  0  # atno 6907 bound_to 6896
  151.1634  133.4823  159.2601 H   0  0  0  0  0  0  0  0  0  0  0  0  # atno 6908 bound_to 6896
  151.1349  135.0160  159.8654 H   0  0  0  0  0  0  0  0  0  0  0  0  # atno 6909 bound_to 6896
  145.7188  140.9047  143.0641 H   0  0  0  0  0  0  0  0  0  0  0  0  # atno 7974 bound_to 7965
  155.8901  140.1023  157.1425 H   0  0  0  0  0  0  0  0  0  0  0  0  # atno 8008 bound_to 7997
  154.4014  140.1312  156.4368 H   0  0  0  0  0  0  0  0  0  0  0  0  # atno 8009 bound_to 7997
  155.7544  140.3464  155.5169 H   0  0  0  0  0  0  0  0  0  0  0  0  # atno 8010 bound_to 7997
  139.4854  144.4496  151.8847 H   0  0  0  0  0  0  0  0  0  0  0  0  # atno 10167 bound_to 10162
  156.7904  130.5360  149.5736 H   0  0  0  0  0  0  0  0  0  0  0  0  # atno 10718 bound_to 10713
  154.4111  135.2756  155.2036 H   0  0  0  0  0  0  0  0  0  0  0  0  # atno 10763 bound_to 10752
  154.4022  135.6042  153.5907 H   0  0  0  0  0  0  0  0  0  0  0  0  # atno 10764 bound_to 10752
  152.9831  135.5929  154.4392 H   0  0  0  0  0  0  0  0  0  0  0  0  # atno 10765 bound_to 10752
  140.3520  134.2218  155.7679 H   0  0  0  0  0  0  0  0  0  0  0  0  # atno 11005 bound_to 11000
  144.6922  139.9175  143.7466 LP  0  0  0  0  0  0  0  0  0  0  0  0  # atno 17320 bound_to 7965
  146.0644  139.3636  143.0561 LP  0  0  0  0  0  0  0  0  0  0  0  0  # atno 17321 bound_to 7965
  140.3952  144.2564  150.5896 LP  0  0  0  0  0  0  0  0  0  0  0  0  # atno 17342 bound_to 10162
  140.5109  143.2291  151.8537 LP  0  0  0  0  0  0  0  0  0  0  0  0  # atno 17343 bound_to 10162
  156.1162  130.6077  151.0124 LP  0  0  0  0  0  0  0  0  0  0  0  0  # atno 17370 bound_to 10713
  157.6603  131.0882  150.7853 LP  0  0  0  0  0  0  0  0  0  0  0  0  # atno 17371 bound_to 10713
  141.2009  133.7976  157.0466 LP  0  0  0  0  0  0  0  0  0  0  0  0  # atno 17394 bound_to 11000
  140.0695  134.9710  157.1443 LP  0  0  0  0  0  0  0  0  0  0  0  0  # atno 17395 bound_to 11000

$$$$
