AV-unprocessed.smi:574|AV-procd|sdf|2976|dock2
  -GOLD-   2262023483D 1   1.00000     0.00000
 Structure written by MMmdl.
 39 40  0  0  0  0  0  0  0  0  2 V2000
  143.9415  132.7594  149.1270 C   0  0  0  0  0  0  0  0  0  0  0  0
  144.6434  132.2481  150.3805 C   0  0  0  0  0  0  0  0  0  0  0  0
  144.2643  131.2110  150.9240 O   0  0  0  0  0  0  0  0  0  0  0  0
  145.6718  132.9839  150.8238 N   0  0  0  0  0  0  0  0  0  0  0  0
  146.5147  132.6462  151.9667 C   0  0  0  0  0  0  0  0  0  0  0  0
  146.4663  133.7479  153.0415 C   0  0  0  0  0  0  0  0  0  0  0  0
  147.8248  134.0980  153.4496 N   0  5  0  0  0  0  0  0  0  0  0  0
  148.7143  133.2269  154.0069 C   0  0  0  0  0  0  0  0  0  0  0  0
  148.7482  131.9937  153.9344 O   0  0  0  0  0  0  0  0  0  0  0  0
  149.7657  133.9357  154.8301 C   0  0  0  0  0  0  0  0  0  0  0  0
  149.9103  135.2720  154.6414 N   0  0  0  0  0  0  0  0  0  0  0  0
  150.8145  135.9392  155.3638 C   0  0  0  0  0  0  0  0  0  0  0  0
  150.9353  137.3154  155.1313 N   0  0  0  0  0  0  0  0  0  0  0  0
  150.0383  138.0330  154.2231 C   0  0  0  0  0  0  0  0  0  0  0  0
  149.8285  139.4813  154.6962 C   0  0  0  0  0  0  0  0  0  0  0  0
  151.0870  140.1287  154.8393 O   0  0  0  0  0  0  0  0  0  0  0  0
  151.8957  139.4884  155.8188 C   0  0  0  0  0  0  0  0  0  0  0  0
  152.1829  138.0391  155.3927 C   0  0  0  0  0  0  0  0  0  0  0  0
  151.6080  135.3880  156.2892 N   0  0  0  0  0  0  0  0  0  0  0  0
  151.4894  134.0607  156.5008 C   0  0  0  0  0  0  0  0  0  0  0  0
  150.5704  133.2649  155.7892 C   0  0  0  0  0  0  0  0  0  0  0  0
  150.5018  131.5626  156.0947 Cl  0  0  0  0  0  0  0  0  0  0  0  0
  144.5866  132.6372  148.2565 H   0  0  0  0  0  0  0  0  0  0  0  0
  143.6952  133.8168  149.2293 H   0  0  0  0  0  0  0  0  0  0  0  0
  143.0170  132.2093  148.9483 H   0  0  0  0  0  0  0  0  0  0  0  0
  145.9294  133.8146  150.3098 H   0  0  0  0  0  0  0  0  0  0  0  0
  146.1797  131.7010  152.3962 H   0  0  0  0  0  0  0  0  0  0  0  0
  147.5409  132.4954  151.6272 H   0  0  0  0  0  0  0  0  0  0  0  0
  145.9199  134.6027  152.6398 H   0  0  0  0  0  0  0  0  0  0  0  0
  145.8772  133.3915  153.8868 H   0  0  0  0  0  0  0  0  0  0  0  0
  150.4774  138.0257  153.2249 H   0  0  0  0  0  0  0  0  0  0  0  0
  149.0633  137.5533  154.1418 H   0  0  0  0  0  0  0  0  0  0  0  0
  149.2295  140.0293  153.9689 H   0  0  0  0  0  0  0  0  0  0  0  0
  149.2831  139.5066  155.6410 H   0  0  0  0  0  0  0  0  0  0  0  0
  152.8307  140.0391  155.9222 H   0  0  0  0  0  0  0  0  0  0  0  0
  151.4015  139.5164  156.7913 H   0  0  0  0  0  0  0  0  0  0  0  0
  152.7760  137.5678  156.1763 H   0  0  0  0  0  0  0  0  0  0  0  0
  152.7898  138.0270  154.4867 H   0  0  0  0  0  0  0  0  0  0  0  0
  152.1416  133.6273  157.2445 H   0  0  0  0  0  0  0  0  0  0  0  0
  1  2  1  0  0  0  0
  1 23  1  0  0  0  0
  1 24  1  0  0  0  0
  1 25  1  0  0  0  0
  2  3  2  0  0  0  0
  2  4  1  0  0  0  0
  4  5  1  0  0  0  0
  4 26  1  0  0  0  0
  5  6  1  0  0  0  0
  5 27  1  0  0  0  0
  5 28  1  0  0  0  0
  6  7  1  0  0  0  0
  6 29  1  0  0  0  0
  6 30  1  0  0  0  0
  7  8  1  0  0  0  0
  8  9  2  0  0  0  0
  8 10  1  0  0  0  0
 10 21  1  0  0  0  0
 10 11  2  0  0  0  0
 11 12  1  0  0  0  0
 12 13  1  0  0  0  0
 12 19  2  0  0  0  0
 13 18  1  0  0  0  0
 13 14  1  0  0  0  0
 14 15  1  0  0  0  0
 14 31  1  0  0  0  0
 14 32  1  0  0  0  0
 15 16  1  0  0  0  0
 15 33  1  0  0  0  0
 15 34  1  0  0  0  0
 16 17  1  0  0  0  0
 17 18  1  0  0  0  0
 17 35  1  0  0  0  0
 17 36  1  0  0  0  0
 18 37  1  0  0  0  0
 18 38  1  0  0  0  0
 19 20  1  0  0  0  0
 20 21  2  0  0  0  0
 20 39  1  0  0  0  0
 21 22  1  0  0  0  0
M  CHG  1   7  -1
M  END
> <s_m_source_file>
AV-unprocessed.smi

> <i_m_source_file_index>
574

> <i_lp_mmshare_version>
43012

> <i_f3d_flags>
0

> <s_epik_input>
W0NIM11DKD1PKVtOSF1bQ0gyXVtDSDJdW05IXUMoPU8pYzFuYyhuW2NIXWMxQ2wpTjJbQ0gyXVtDSDJdT1tDSDJdW0NIMl0y

> <s_epik_cmdline>
J2VwaWtfcHl0aG9uJywgJy1waCcsICc3LjAnLCAnLXRuJywgJzgnLCAnLW1hJywgJzIwMCcsICctbWV0YWxfYmluZGluZycsICctaW1hZScsICc8aW5maWxlLm1hZT4nLCAnLW9tYWUnLCAnPG91dGZpbGUubWFlPic=

> <r_lp_tautomer_probability>
1

> <r_epik_Ionization_Penalty>
5.61005

> <r_epik_Ionization_Penalty_Charging>
5.61003

> <r_epik_Ionization_Penalty_Neutral>
1.98059e-05

> <r_epik_State_Penalty>
5.60999

> <r_epik_Charging_Adjusted_Penalty>
11.22

> <i_epik_Tot_Q>
-1

> <i_epik_Tot_abs_Q>
1

> <r_epik_Metal_State_Penalty>
1.60231

> <b_epik_Metal_Only>
1

> <s_lp_Force_Field>
OPLS_2005

> <r_lp_Energy>
13.7471

> <b_lp_Chiralities_Consistent>
1

> <s_lp_Variant>
AV-unprocessed.smi:574-2

> <Gold.Version>
5.8.1

> <Gold.Id.Protein>
6NUR|6NUR_protein|mol2

> <Gold.PLP.Fitness>
39.9515

> <Gold.PLP.PLP>
-35.5073

> <Gold.PLP.part.hbond>
-2.3572

> <Gold.PLP.part.metal>
0.0000

> <Gold.PLP.part.buried>
-5.7952

> <Gold.PLP.part.nonpolar>
-30.8864

> <Gold.PLP.part.repulsive>
3.5273

> <Gold.PLP.ligand.clash>
0.0000

> <Gold.PLP.ligand.torsion>
0.7362

> <Gold.PLP.Chemscore.Hbond>
1.8928

> <Gold.PLP.Chemscore.CHOScore>
0.0000

> <Gold.PLP.Chemscore.Metal>
0.0000

> <Gold.Chemscore.Hbonds>
donor molecule, donor type, donor heavy atom, donor atom, acceptor molecule, acceptor atom, score
      P1  H  7989  7998       L1    16  1.00
      P1  H 10752 10765       L1    19  0.86

> <Gold.PLP.Chemscore.Internal.Correction>
0.2382

> <Gold.Rescore>
     Score         DG    S(hbond)    S(metal)    S(lipo)     H(rot)  DE(clash)    DE(int)     intcor
      9.72     -11.90       0.83        0.00      67.60       1.67       0.10       2.08       ----

> <Gold.Chemscore.Fitness>
9.7203

> <Gold.Chemscore.DG>
-11.8968

> <Gold.Chemscore.ZeroCoef>
-5.4800

> <Gold.Chemscore.Hbond>
0.8339

> <Gold.Chemscore.Metal>
0.0000

> <Gold.Chemscore.Lipo>
67.6032

> <Gold.Chemscore.Internal_Hbond>
0.0000

> <Gold.Chemscore.DEClash>
0.0971

> <Gold.Chemscore.DEInternal>
2.0794

> <Gold.Chemscore.Rot>
1.6710

> <Gold.Chemscore.Internal.Correction>
   9.000000E+99

> <Gold.Chemscore.Hbonds>
donor molecule, donor type, donor heavy atom, donor atom, acceptor molecule, acceptor atom, score
      P1  H  7989  7998       L1    16  0.90
      P1  H 10752 10765       L1    19  0.03

> <Gold.Chemscore.Hbond.Weighted>
-2.7851

> <Gold.Chemscore.Metal.Weighted>
-0.0000

> <Gold.Chemscore.Lipo.Weighted>
-7.9096

> <Gold.Chemscore.Internal_Hbond.Weighted>
0.0000

> <Gold.Chemscore.DEClash.Weighted>
0.0971

> <Gold.Chemscore.DEInternal.Weighted>
2.0794

> <Gold.Chemscore.Rot.Weighted>
4.2779

> <Gold.Chemscore.Internal.Correction.Weighted>
   9.000000E+99

> <Gold.Protein.RotatedTorsions>
[ 6907 6896 6895 6894 ] final  -74.90 input  -60.11 | X-H torsion
[ 7974 7965 7964 7962 ] final  153.86 input  175.53 | X-H torsion
[ 8008 7997 7996 7995 ] final -113.85 input   59.86 | X-H torsion
[ 10167 10162 10161 10158 ] final   -2.49 input  -65.29 | X-H torsion
[ 10718 10713 10712 10709 ] final  106.13 input   66.30 | X-H torsion
[ 10763 10752 10751 10750 ] final -134.48 input  -60.55 | X-H torsion
[ 11005 11000 10999 10996 ] final  -53.20 input  -57.11 | X-H torsion

> <Gold.Protein.ActiveResidues>
 VAL166  LYS551  ARG553  GLY616  TRP617  ASP618  TYR619  PRO620  LYS621  CYS622 
 ASP623  PHE694  ASN695  SER759  ASP760  ASP761  ALA762  ILE779  LEU786  VAL792 
 PHE793  MET794  SER795  GLU796  ALA797  LYS798  CYS799  TRP800  GLU811  SER814 

> <Gold.Protein.RotatedAtoms>
  150.7077  134.4801  159.5465 H   0  0  0  0  0  0  0  0  0  0  0  0  # atno 6907 bound_to 6896
  152.2440  134.8197  160.0465 H   0  0  0  0  0  0  0  0  0  0  0  0  # atno 6908 bound_to 6896
  151.8969  133.3494  159.3854 H   0  0  0  0  0  0  0  0  0  0  0  0  # atno 6909 bound_to 6896
  144.8126  139.6857  143.6135 H   0  0  0  0  0  0  0  0  0  0  0  0  # atno 7974 bound_to 7965
  155.0272  140.0393  157.2460 H   0  0  0  0  0  0  0  0  0  0  0  0  # atno 8008 bound_to 7997
  154.7327  140.2734  155.6418 H   0  0  0  0  0  0  0  0  0  0  0  0  # atno 8009 bound_to 7997
  156.2845  140.2681  156.2032 H   0  0  0  0  0  0  0  0  0  0  0  0  # atno 8010 bound_to 7997
  140.6853  143.6651  150.8233 H   0  0  0  0  0  0  0  0  0  0  0  0  # atno 10167 bound_to 10162
  157.6680  131.0843  150.5960 H   0  0  0  0  0  0  0  0  0  0  0  0  # atno 10718 bound_to 10713
  154.8718  135.3733  154.4742 H   0  0  0  0  0  0  0  0  0  0  0  0  # atno 10763 bound_to 10752
  153.5400  135.7026  153.5646 H   0  0  0  0  0  0  0  0  0  0  0  0  # atno 10764 bound_to 10752
  153.3812  135.3996  155.1823 H   0  0  0  0  0  0  0  0  0  0  0  0  # atno 10765 bound_to 10752
  141.0964  133.6624  156.4137 H   0  0  0  0  0  0  0  0  0  0  0  0  # atno 11005 bound_to 11000
  146.2427  139.6033  142.9481 LP  0  0  0  0  0  0  0  0  0  0  0  0  # atno 17320 bound_to 7965
  145.5288  141.0428  143.2395 LP  0  0  0  0  0  0  0  0  0  0  0  0  # atno 17321 bound_to 7965
  140.0357  143.5398  152.2740 LP  0  0  0  0  0  0  0  0  0  0  0  0  # atno 17342 bound_to 10162
  139.6206  144.7628  151.2748 LP  0  0  0  0  0  0  0  0  0  0  0  0  # atno 17343 bound_to 10162
  156.6261  130.4419  149.5804 LP  0  0  0  0  0  0  0  0  0  0  0  0  # atno 17370 bound_to 10713
  156.2318  130.6799  151.1471 LP  0  0  0  0  0  0  0  0  0  0  0  0  # atno 17371 bound_to 10713
  140.5130  134.6377  157.5291 LP  0  0  0  0  0  0  0  0  0  0  0  0  # atno 17394 bound_to 11000
  139.9802  134.7150  155.9874 LP  0  0  0  0  0  0  0  0  0  0  0  0  # atno 17395 bound_to 11000

$$$$
