AV-unprocessed.smi:1829|AV-procd|sdf|7431|dock5
  -GOLD-   22720 9113D 1   1.00000     0.00000
 Structure written by MMmdl.
 46 48  0  0  0  0  0  0  0  0  2 V2000
  153.3867  142.6905  162.7758 C   0  0  0  0  0  0  0  0  0  0  0  0
  153.1254  143.4606  161.4723 C   0  0  0  0  0  0  0  0  0  0  0  0
  152.1581  144.6352  161.6900 C   0  0  0  0  0  0  0  0  0  0  0  0
  152.6484  142.5310  160.3639 C   0  0  0  0  0  0  0  0  0  0  0  0
  151.4768  142.8376  159.6396 C   0  0  0  0  0  0  0  0  0  0  0  0
  151.0396  141.9924  158.6017 C   0  0  0  0  0  0  0  0  0  0  0  0
  151.7683  140.8275  158.2771 C   0  0  0  0  0  0  0  0  0  0  0  0
  151.3367  139.9300  157.1251 C   0  0  1  0  0  0  0  0  0  0  0  0
  150.1956  139.1582  157.4373 O   0  0  0  0  0  0  0  0  0  0  0  0
  151.0483  140.7233  155.8335 C   0  0  0  0  0  0  0  0  0  0  0  0
  150.2393  139.9595  154.8689 N   0  0  0  0  0  0  0  0  0  0  0  0
  150.5047  138.7738  154.2477 C   0  0  0  0  0  0  0  0  0  0  0  0
  151.7193  137.9213  154.4144 C   0  0  0  0  0  0  0  0  0  0  0  0
  151.5600  136.6459  153.8345 O   0  0  0  0  0  0  0  0  0  0  0  0
  149.4444  138.4952  153.4386 N   0  3  0  0  0  0  0  0  0  0  0  0
  148.4930  139.5104  153.5388 C   0  0  0  0  0  0  0  0  0  0  0  0
  147.2633  139.6702  152.9075 C   0  0  0  0  0  0  0  0  0  0  0  0
  146.5334  140.8334  153.2285 C   0  0  0  0  0  0  0  0  0  0  0  0
  147.0295  141.7807  154.1470 C   0  0  0  0  0  0  0  0  0  0  0  0
  148.2744  141.6041  154.7853 C   0  0  0  0  0  0  0  0  0  0  0  0
  148.9937  140.4538  154.4596 C   0  0  0  0  0  0  0  0  0  0  0  0
  152.9339  140.5154  159.0080 C   0  0  0  0  0  0  0  0  0  0  0  0
  153.3734  141.3631  160.0420 C   0  0  0  0  0  0  0  0  0  0  0  0
  154.1157  141.8944  162.6207 H   0  0  0  0  0  0  0  0  0  0  0  0
  152.4749  142.2363  163.1648 H   0  0  0  0  0  0  0  0  0  0  0  0
  153.7817  143.3514  163.5481 H   0  0  0  0  0  0  0  0  0  0  0  0
  154.0780  143.8886  161.1570 H   0  0  0  0  0  0  0  0  0  0  0  0
  152.0208  145.2041  160.7699 H   0  0  0  0  0  0  0  0  0  0  0  0
  152.5404  145.3219  162.4459 H   0  0  0  0  0  0  0  0  0  0  0  0
  151.1767  144.2958  162.0220 H   0  0  0  0  0  0  0  0  0  0  0  0
  150.9107  143.7279  159.8712 H   0  0  0  0  0  0  0  0  0  0  0  0
  150.1491  142.2517  158.0480 H   0  0  0  0  0  0  0  0  0  0  0  0
  152.1386  139.2161  156.9320 H   0  0  0  0  0  0  0  0  0  0  0  0
  150.4698  138.2702  157.6079 H   0  0  0  0  0  0  0  0  0  0  0  0
  150.4835  141.6260  156.0703 H   0  0  0  0  0  0  0  0  0  0  0  0
  151.9681  141.0616  155.3561 H   0  0  0  0  0  0  0  0  0  0  0  0
  152.5742  138.4174  153.9539 H   0  0  0  0  0  0  0  0  0  0  0  0
  151.9500  137.8052  155.4732 H   0  0  0  0  0  0  0  0  0  0  0  0
  151.2937  136.7557  152.9343 H   0  0  0  0  0  0  0  0  0  0  0  0
  146.8814  138.9457  152.2032 H   0  0  0  0  0  0  0  0  0  0  0  0
  145.5742  141.0023  152.7608 H   0  0  0  0  0  0  0  0  0  0  0  0
  146.4443  142.6618  154.3667 H   0  0  0  0  0  0  0  0  0  0  0  0
  148.6426  142.3406  155.4835 H   0  0  0  0  0  0  0  0  0  0  0  0
  153.5066  139.6323  158.7651 H   0  0  0  0  0  0  0  0  0  0  0  0
  154.2748  141.1150  160.5826 H   0  0  0  0  0  0  0  0  0  0  0  0
  149.3794  137.6664  152.8617 H   0  0  0  0  0  0  0  0  0  0  0  0
  1  2  1  0  0  0  0
  1 24  1  0  0  0  0
  1 25  1  0  0  0  0
  1 26  1  0  0  0  0
  2  3  1  0  0  0  0
  2  4  1  0  0  0  0
  2 27  1  0  0  0  0
  3 28  1  0  0  0  0
  3 29  1  0  0  0  0
  3 30  1  0  0  0  0
  4 23  1  0  0  0  0
  4  5  2  0  0  0  0
  5  6  1  0  0  0  0
  5 31  1  0  0  0  0
  6  7  2  0  0  0  0
  6 32  1  0  0  0  0
  7  8  1  0  0  0  0
  7 22  1  0  0  0  0
  8  9  1  0  0  0  0
  8 10  1  0  0  0  0
  8 33  1  0  0  0  0
  9 34  1  0  0  0  0
 10 11  1  0  0  0  0
 10 35  1  0  0  0  0
 10 36  1  0  0  0  0
 11 21  1  0  0  0  0
 11 12  1  0  0  0  0
 12 13  1  0  0  0  0
 12 15  2  0  0  0  0
 13 14  1  0  0  0  0
 13 37  1  0  0  0  0
 13 38  1  0  0  0  0
 14 39  1  0  0  0  0
 15 16  1  0  0  0  0
 15 46  1  0  0  0  0
 16 21  2  0  0  0  0
 16 17  1  0  0  0  0
 17 18  2  0  0  0  0
 17 40  1  0  0  0  0
 18 19  1  0  0  0  0
 18 41  1  0  0  0  0
 19 20  2  0  0  0  0
 19 42  1  0  0  0  0
 20 21  1  0  0  0  0
 20 43  1  0  0  0  0
 22 23  2  0  0  0  0
 22 44  1  0  0  0  0
 23 45  1  0  0  0  0
M  CHG  1  15   1
M  END
> <s_m_source_file>
AV-unprocessed.smi

> <i_m_source_file_index>
1829

> <i_lp_mmshare_version>
43012

> <i_f3d_flags>
0

> <s_epik_input>
W0NIM11bQ0hdKFtDSDNdKWMxW2NIXVtjSF1jKFtjSF1bY0hdMSlbQ0BIXShbT0hdKVtDSDJdbihjKG4yKVtDSDJdW09IXSljKGMyMylbY0hdW2NIXVtjSF1bY0hdMw==

> <s_epik_cmdline>
J2VwaWtfcHl0aG9uJywgJy1waCcsICc3LjAnLCAnLXRuJywgJzgnLCAnLW1hJywgJzIwMCcsICctbWV0YWxfYmluZGluZycsICctaW1hZScsICc8aW5maWxlLm1hZT4nLCAnLW9tYWUnLCAnPG91dGZpbGUubWFlPic=

> <r_epik_Ionization_Penalty>
1.35642

> <r_epik_Ionization_Penalty_Charging>
1.35557

> <r_epik_Ionization_Penalty_Neutral>
0.000856322

> <r_epik_State_Penalty>
1.43401

> <r_epik_Charging_Adjusted_Penalty>
2.78958

> <i_epik_Tot_Q>
1

> <i_epik_Tot_abs_Q>
1

> <r_epik_Metal_State_Penalty>
5.47166

> <b_epik_Metal_Only>
0

> <s_lp_Force_Field>
OPLS_2005

> <r_lp_Energy>
15.3906

> <b_lp_Chiralities_Consistent>
1

> <s_lp_Variant>
AV-unprocessed.smi:1829-4

> <Gold.Version>
5.8.1

> <Gold.Id.Protein>
6NUR|6NUR_protein|mol2

> <Gold.PLP.Fitness>
61.0496

> <Gold.PLP.PLP>
-50.2727

> <Gold.PLP.part.hbond>
-4.4709

> <Gold.PLP.part.metal>
0.0000

> <Gold.PLP.part.buried>
3.5501

> <Gold.PLP.part.nonpolar>
-48.2292

> <Gold.PLP.part.repulsive>
0.0714

> <Gold.PLP.ligand.clash>
0.0000

> <Gold.PLP.ligand.torsion>
0.6562

> <Gold.PLP.Chemscore.Hbond>
4.0000

> <Gold.PLP.Chemscore.CHOScore>
0.0000

> <Gold.PLP.Chemscore.Metal>
0.0000

> <Gold.Chemscore.Hbonds>
donor molecule, donor type, donor heavy atom, donor atom, acceptor molecule, acceptor atom, score
      L1  H    14    39       P1  7949  0.86
      L1  H    15    46       P1  7948  2.00
      P1  H 10752 10764       L1    14  1.00

> <Gold.PLP.Chemscore.Internal.Correction>
0.0893

> <Gold.Rescore>
     Score         DG    S(hbond)    S(metal)    S(lipo)     H(rot)  DE(clash)    DE(int)     intcor
     18.10     -23.79       2.48        0.00     145.87       2.75       4.14       1.55       ----

> <Gold.Chemscore.Fitness>
18.1001

> <Gold.Chemscore.DG>
-23.7873

> <Gold.Chemscore.ZeroCoef>
-5.4800

> <Gold.Chemscore.Hbond>
2.4829

> <Gold.Chemscore.Metal>
0.0000

> <Gold.Chemscore.Lipo>
145.8741

> <Gold.Chemscore.Internal_Hbond>
0.0000

> <Gold.Chemscore.DEClash>
4.1412

> <Gold.Chemscore.DEInternal>
1.5460

> <Gold.Chemscore.Rot>
2.7550

> <Gold.Chemscore.Internal.Correction>
   9.000000E+99

> <Gold.Chemscore.Hbonds>
donor molecule, donor type, donor heavy atom, donor atom, acceptor molecule, acceptor atom, score
      L1  H    14    39       P1  7949  0.60
      L1  H    15    46       P1  7948  0.91
      P1  H 10752 10764       L1    14  0.67

> <Gold.Chemscore.Hbond.Weighted>
-8.2927

> <Gold.Chemscore.Metal.Weighted>
-0.0000

> <Gold.Chemscore.Lipo.Weighted>
-17.0673

> <Gold.Chemscore.Internal_Hbond.Weighted>
0.0000

> <Gold.Chemscore.DEClash.Weighted>
4.1412

> <Gold.Chemscore.DEInternal.Weighted>
1.5460

> <Gold.Chemscore.Rot.Weighted>
7.0527

> <Gold.Chemscore.Internal.Correction.Weighted>
   9.000000E+99

> <Gold.Protein.RotatedTorsions>
[ 6907 6896 6895 6894 ] final  -54.75 input  -60.11 | X-H torsion
[ 7974 7965 7964 7962 ] final  127.99 input  175.53 | X-H torsion
[ 8008 7997 7996 7995 ] final  171.53 input   59.86 | X-H torsion
[ 10167 10162 10161 10158 ] final -112.27 input  -65.29 | X-H torsion
[ 10718 10713 10712 10709 ] final  124.11 input   66.30 | X-H torsion
[ 10763 10752 10751 10750 ] final  -95.26 input  -60.55 | X-H torsion
[ 11005 11000 10999 10996 ] final  -84.16 input  -57.11 | X-H torsion

> <Gold.Protein.ActiveResidues>
 VAL166  LYS551  ARG553  GLY616  TRP617  ASP618  TYR619  PRO620  LYS621  CYS622 
 ASP623  PHE694  ASN695  SER759  ASP760  ASP761  ALA762  ILE779  LEU786  VAL792 
 PHE793  MET794  SER795  GLU796  ALA797  LYS798  CYS799  TRP800  GLU811  SER814 

> <Gold.Protein.RotatedAtoms>
  150.8311  134.7564  159.6853 H   0  0  0  0  0  0  0  0  0  0  0  0  # atno 6907 bound_to 6896
  152.4415  134.5578  159.9895 H   0  0  0  0  0  0  0  0  0  0  0  0  # atno 6908 bound_to 6896
  151.5738  133.3349  159.3031 H   0  0  0  0  0  0  0  0  0  0  0  0  # atno 6909 bound_to 6896
  145.0445  139.3935  143.5085 H   0  0  0  0  0  0  0  0  0  0  0  0  # atno 7974 bound_to 7965
  156.1262  140.1509  156.9132 H   0  0  0  0  0  0  0  0  0  0  0  0  # atno 8008 bound_to 7997
  154.4873  140.0861  156.7557 H   0  0  0  0  0  0  0  0  0  0  0  0  # atno 8009 bound_to 7997
  155.4339  140.3428  155.4285 H   0  0  0  0  0  0  0  0  0  0  0  0  # atno 8010 bound_to 7997
  140.1245  143.4414  152.1669 H   0  0  0  0  0  0  0  0  0  0  0  0  # atno 10167 bound_to 10162
  157.5611  131.1089  150.8536 H   0  0  0  0  0  0  0  0  0  0  0  0  # atno 10718 bound_to 10713
  154.7132  135.5127  153.8698 H   0  0  0  0  0  0  0  0  0  0  0  0  # atno 10763 bound_to 10752
  153.0798  135.6628  154.0078 H   0  0  0  0  0  0  0  0  0  0  0  0  # atno 10764 bound_to 10752
  153.9916  135.3019  155.3391 H   0  0  0  0  0  0  0  0  0  0  0  0  # atno 10765 bound_to 10752
  141.1652  133.7331  156.8827 H   0  0  0  0  0  0  0  0  0  0  0  0  # atno 11005 bound_to 11000
  146.3512  140.0063  142.8671 LP  0  0  0  0  0  0  0  0  0  0  0  0  # atno 17320 bound_to 7965
  145.1606  140.9670  143.4380 LP  0  0  0  0  0  0  0  0  0  0  0  0  # atno 17321 bound_to 7965
  139.5551  144.7367  151.4318 LP  0  0  0  0  0  0  0  0  0  0  0  0  # atno 17342 bound_to 10162
  140.6853  143.7989  150.7177 LP  0  0  0  0  0  0  0  0  0  0  0  0  # atno 17343 bound_to 10162
  156.9034  130.5255  149.5282 LP  0  0  0  0  0  0  0  0  0  0  0  0  # atno 17370 bound_to 10713
  156.0664  130.5706  150.9296 LP  0  0  0  0  0  0  0  0  0  0  0  0  # atno 17371 bound_to 10713
  140.1704  134.9104  157.2826 LP  0  0  0  0  0  0  0  0  0  0  0  0  # atno 17394 bound_to 11000
  140.2509  134.3684  155.7443 LP  0  0  0  0  0  0  0  0  0  0  0  0  # atno 17395 bound_to 11000

$$$$
