AV-unprocessed.smi:229|AV-procd|sdf|1753|dock5
  -GOLD-   2262020273D 1   1.00000     0.00000
 Structure written by MMmdl.
 58 62  0  0  0  0  0  0  0  0  1 V2000
  148.4471  132.9907  152.6018 C   0  0  0  0  0  0  0  0  0  0  0  0
  147.7333  132.9677  153.9589 C   0  0  0  0  0  0  0  0  0  0  0  0
  148.6613  133.3219  155.1305 C   0  0  2  0  0  0  0  0  0  0  0  0
  149.4611  134.6072  154.8564 C   0  0  0  0  0  0  0  0  0  0  0  0
  150.4077  134.8464  155.9407 N   0  0  0  0  0  0  0  0  0  0  0  0
  150.9835  136.0721  156.0369 C   0  0  0  0  0  0  0  0  0  0  0  0
  151.5567  136.6404  154.9421 N   0  0  0  0  0  0  0  0  0  0  0  0
  152.1227  137.8476  155.0247 C   0  0  0  0  0  0  0  0  0  0  0  0
  152.2251  138.6496  156.0857 N   0  0  0  0  0  0  0  0  0  0  0  0
  151.6524  138.0884  157.1890 C   0  0  0  0  0  0  0  0  0  0  0  0
  151.0119  136.8181  157.2500 C   0  0  0  0  0  0  0  0  0  0  0  0
  150.5239  136.5987  158.5323 N   0  0  0  0  0  0  0  0  0  0  0  0
  150.8642  137.6713  159.1923 C   0  0  0  0  0  0  0  0  0  0  0  0
  151.5614  138.6134  158.4678 N   0  0  0  0  0  0  0  0  0  0  0  0
  152.0496  139.9042  158.9378 C   0  0  0  0  0  0  0  0  0  0  0  0
  151.4141  141.1292  158.2360 C   0  0  1  0  0  0  0  0  0  0  0  0
  150.0770  141.2456  158.6812 O   0  0  0  0  0  0  0  0  0  0  0  0
  152.1206  142.4765  158.5016 C   0  0  1  0  0  0  0  0  0  0  0  0
  151.5508  143.6693  157.7222 C   0  0  0  0  0  0  0  0  0  0  0  0
  151.7159  144.8587  158.6581 C   0  0  0  0  0  0  0  0  0  0  0  0
  152.2452  144.2415  159.9500 C   0  0  0  0  0  0  0  0  0  0  0  0
  151.8855  142.8746  159.8451 O   0  0  0  0  0  0  0  0  0  0  0  0
  151.3019  133.7172  156.1685 C   0  0  0  0  0  0  0  0  0  0  0  0
  150.4961  132.4195  156.4060 C   0  0  1  0  0  0  0  0  0  0  0  0
  151.4160  131.2034  156.4405 C   0  0  0  0  0  0  0  0  0  0  0  0
  151.6778  131.0068  157.9261 C   0  0  0  0  0  0  0  0  0  0  0  0
  150.4068  131.2642  158.4919 O   0  0  0  0  0  0  0  0  0  0  0  0
  149.8282  132.3651  157.8005 C   0  0  0  0  0  0  0  0  0  0  0  0
  149.5673  132.2353  155.3336 O   0  0  0  0  0  0  0  0  0  0  0  0
  147.7617  132.7178  151.7991 H   0  0  0  0  0  0  0  0  0  0  0  0
  149.2792  132.2865  152.5823 H   0  0  0  0  0  0  0  0  0  0  0  0
  148.8414  133.9822  152.3784 H   0  0  0  0  0  0  0  0  0  0  0  0
  146.8875  133.6559  153.9380 H   0  0  0  0  0  0  0  0  0  0  0  0
  147.3157  131.9727  154.1171 H   0  0  0  0  0  0  0  0  0  0  0  0
  148.0501  133.4710  156.0210 H   0  0  0  0  0  0  0  0  0  0  0  0
  150.0044  134.5209  153.9142 H   0  0  0  0  0  0  0  0  0  0  0  0
  148.7752  135.4503  154.7626 H   0  0  0  0  0  0  0  0  0  0  0  0
  152.5546  138.2254  154.1097 H   0  0  0  0  0  0  0  0  0  0  0  0
  150.6093  137.8011  160.2336 H   0  0  0  0  0  0  0  0  0  0  0  0
  151.8665  139.9700  160.0103 H   0  0  0  0  0  0  0  0  0  0  0  0
  153.1340  139.9212  158.8221 H   0  0  0  0  0  0  0  0  0  0  0  0
  151.3923  140.9387  157.1624 H   0  0  0  0  0  0  0  0  0  0  0  0
  150.0705  141.2012  159.6250 H   0  0  0  0  0  0  0  0  0  0  0  0
  153.1960  142.4018  158.3264 H   0  0  0  0  0  0  0  0  0  0  0  0
  152.0674  143.8230  156.7759 H   0  0  0  0  0  0  0  0  0  0  0  0
  150.4921  143.5212  157.5056 H   0  0  0  0  0  0  0  0  0  0  0  0
  152.4040  145.6067  158.2633 H   0  0  0  0  0  0  0  0  0  0  0  0
  150.7527  145.3421  158.8248 H   0  0  0  0  0  0  0  0  0  0  0  0
  153.3317  144.3258  160.0044 H   0  0  0  0  0  0  0  0  0  0  0  0
  151.8194  144.7004  160.8426 H   0  0  0  0  0  0  0  0  0  0  0  0
  151.9308  133.6049  155.2841 H   0  0  0  0  0  0  0  0  0  0  0  0
  151.9769  133.8935  157.0049 H   0  0  0  0  0  0  0  0  0  0  0  0
  150.8947  130.3264  156.0537 H   0  0  0  0  0  0  0  0  0  0  0  0
  152.3307  131.3267  155.8600 H   0  0  0  0  0  0  0  0  0  0  0  0
  152.0309  130.0037  158.1653 H   0  0  0  0  0  0  0  0  0  0  0  0
  152.4036  131.7313  158.2992 H   0  0  0  0  0  0  0  0  0  0  0  0
  150.0097  133.2800  158.3659 H   0  0  0  0  0  0  0  0  0  0  0  0
  148.7502  132.2154  157.7505 H   0  0  0  0  0  0  0  0  0  0  0  0
  1  2  1  0  0  0  0
  1 30  1  0  0  0  0
  1 31  1  0  0  0  0
  1 32  1  0  0  0  0
  2  3  1  0  0  0  0
  2 33  1  0  0  0  0
  2 34  1  0  0  0  0
  3 29  1  0  0  0  0
  3  4  1  0  0  0  0
  3 35  1  0  0  0  0
  4  5  1  0  0  0  0
  4 36  1  0  0  0  0
  4 37  1  0  0  0  0
  5  6  1  0  0  0  0
  5 23  1  0  0  0  0
  6 11  1  0  0  0  0
  6  7  2  0  0  0  0
  7  8  1  0  0  0  0
  8  9  2  0  0  0  0
  8 38  1  0  0  0  0
  9 10  1  0  0  0  0
 10 14  1  0  0  0  0
 10 11  2  0  0  0  0
 11 12  1  0  0  0  0
 12 13  2  0  0  0  0
 13 14  1  0  0  0  0
 13 39  1  0  0  0  0
 14 15  1  0  0  0  0
 15 16  1  0  0  0  0
 15 40  1  0  0  0  0
 15 41  1  0  0  0  0
 16 17  1  0  0  0  0
 16 18  1  0  0  0  0
 16 42  1  0  0  0  0
 17 43  1  0  0  0  0
 18 22  1  0  0  0  0
 18 19  1  0  0  0  0
 18 44  1  0  0  0  0
 19 20  1  0  0  0  0
 19 45  1  0  0  0  0
 19 46  1  0  0  0  0
 20 21  1  0  0  0  0
 20 47  1  0  0  0  0
 20 48  1  0  0  0  0
 21 22  1  0  0  0  0
 21 49  1  0  0  0  0
 21 50  1  0  0  0  0
 23 24  1  0  0  0  0
 23 51  1  0  0  0  0
 23 52  1  0  0  0  0
 24 28  1  0  0  0  0
 24 25  1  0  0  0  0
 24 29  1  0  0  0  0
 25 26  1  0  0  0  0
 25 53  1  0  0  0  0
 25 54  1  0  0  0  0
 26 27  1  0  0  0  0
 26 55  1  0  0  0  0
 26 56  1  0  0  0  0
 27 28  1  0  0  0  0
 28 57  1  0  0  0  0
 28 58  1  0  0  0  0
M  END
> <s_m_source_file>
AV-unprocessed.smi

> <i_m_source_file_index>
229

> <i_lp_mmshare_version>
43012

> <i_f3d_flags>
0

> <s_epik_input>
W0NIMl0xT1tDSDJdW0NIMl1bQ0BdMTJbQ0gyXU4oW0NIMl1bQ0BIXShPMilbQ0gyXVtDSDNdKWMobltjSF1uMyljKGMzNCluW2NIXW40W0NIMl1bQ0BIXShbT0hdKVtDQEBIXTVbQ0gyXVtDSDJdW0NIMl1PNQ==

> <s_epik_cmdline>
J2VwaWtfcHl0aG9uJywgJy1waCcsICc3LjAnLCAnLXRuJywgJzgnLCAnLW1hJywgJzIwMCcsICctbWV0YWxfYmluZGluZycsICctaW1hZScsICc8aW5maWxlLm1hZT4nLCAnLW9tYWUnLCAnPG91dGZpbGUubWFlPic=

> <r_lp_tautomer_probability>
1

> <r_epik_Ionization_Penalty>
0.00318402

> <r_epik_Ionization_Penalty_Charging>
0

> <r_epik_Ionization_Penalty_Neutral>
0.00318402

> <r_epik_State_Penalty>
0.00215642

> <r_epik_Charging_Adjusted_Penalty>
0.00215642

> <i_epik_Tot_Q>
0

> <i_epik_Tot_abs_Q>
0

> <r_epik_Metal_State_Penalty>
-0

> <b_epik_Metal_Only>
0

> <s_lp_Force_Field>
OPLS_2005

> <r_lp_Energy>
56.4777

> <b_lp_Chiralities_Consistent>
1

> <s_lp_Variant>
AV-unprocessed.smi:229-7

> <Gold.Version>
5.8.1

> <Gold.Id.Protein>
6NUR|6NUR_protein|mol2

> <Gold.PLP.Fitness>
45.5451

> <Gold.PLP.PLP>
-40.8336

> <Gold.PLP.part.hbond>
-2.3871

> <Gold.PLP.part.metal>
0.0000

> <Gold.PLP.part.buried>
-6.0161

> <Gold.PLP.part.nonpolar>
-33.5326

> <Gold.PLP.part.repulsive>
0.1708

> <Gold.PLP.ligand.clash>
0.0000

> <Gold.PLP.ligand.torsion>
0.6713

> <Gold.PLP.Chemscore.Hbond>
1.8866

> <Gold.PLP.Chemscore.CHOScore>
0.0000

> <Gold.PLP.Chemscore.Metal>
0.0000

> <Gold.Chemscore.Hbonds>
donor molecule, donor type, donor heavy atom, donor atom, acceptor molecule, acceptor atom, score
      P1  H  6896  6907       L1    12  0.89
      P1  H 10752 10764       L1     7  1.00

> <Gold.PLP.Chemscore.Internal.Correction>
0.3944

> <Gold.Rescore>
     Score         DG    S(hbond)    S(metal)    S(lipo)     H(rot)  DE(clash)    DE(int)     intcor
     14.51     -15.60       1.20        0.00     106.06       2.46       0.39       0.71       ----

> <Gold.Chemscore.Fitness>
14.5086

> <Gold.Chemscore.DG>
-15.6044

> <Gold.Chemscore.ZeroCoef>
-5.4800

> <Gold.Chemscore.Hbond>
1.2008

> <Gold.Chemscore.Metal>
0.0000

> <Gold.Chemscore.Lipo>
106.0610

> <Gold.Chemscore.Internal_Hbond>
0.0000

> <Gold.Chemscore.DEClash>
0.3890

> <Gold.Chemscore.DEInternal>
0.7068

> <Gold.Chemscore.Rot>
2.4591

> <Gold.Chemscore.Internal.Correction>
   9.000000E+99

> <Gold.Chemscore.Hbonds>
donor molecule, donor type, donor heavy atom, donor atom, acceptor molecule, acceptor atom, score
      P1  H  6896  6907       L1    12  0.40
      P1  H 10752 10764       L1     7  0.24

> <Gold.Chemscore.Hbond.Weighted>
-4.0106

> <Gold.Chemscore.Metal.Weighted>
-0.0000

> <Gold.Chemscore.Lipo.Weighted>
-12.4091

> <Gold.Chemscore.Internal_Hbond.Weighted>
0.0000

> <Gold.Chemscore.DEClash.Weighted>
0.3890

> <Gold.Chemscore.DEInternal.Weighted>
0.7068

> <Gold.Chemscore.Rot.Weighted>
6.2953

> <Gold.Chemscore.Internal.Correction.Weighted>
   9.000000E+99

> <Gold.Protein.RotatedTorsions>
[ 6907 6896 6895 6894 ] final  -34.16 input  -60.11 | X-H torsion
[ 7974 7965 7964 7962 ] final   97.30 input  175.53 | X-H torsion
[ 8008 7997 7996 7995 ] final  -63.77 input   59.86 | X-H torsion
[ 10167 10162 10161 10158 ] final  -23.42 input  -65.29 | X-H torsion
[ 10718 10713 10712 10709 ] final  -48.92 input   66.30 | X-H torsion
[ 10763 10752 10751 10750 ] final  -76.29 input  -60.55 | X-H torsion
[ 11005 11000 10999 10996 ] final  103.86 input  -57.11 | X-H torsion

> <Gold.Protein.ActiveResidues>
 VAL166  LYS551  ARG553  GLY616  TRP617  ASP618  TYR619  PRO620  LYS621  CYS622 
 ASP623  PHE694  ASN695  SER759  ASP760  ASP761  ALA762  ILE779  LEU786  VAL792 
 PHE793  MET794  SER795  GLU796  ALA797  LYS798  CYS799  TRP800  GLU811  SER814 

> <Gold.Protein.RotatedAtoms>
  151.0562  134.9706  159.8236 H   0  0  0  0  0  0  0  0  0  0  0  0  # atno 6907 bound_to 6896
  152.5388  134.2474  159.8896 H   0  0  0  0  0  0  0  0  0  0  0  0  # atno 6908 bound_to 6896
  151.2492  133.4316  159.2644 H   0  0  0  0  0  0  0  0  0  0  0  0  # atno 6909 bound_to 6896
  145.4274  139.2314  143.3163 H   0  0  0  0  0  0  0  0  0  0  0  0  # atno 7974 bound_to 7965
  154.4573  140.0968  156.6794 H   0  0  0  0  0  0  0  0  0  0  0  0  # atno 8008 bound_to 7997
  155.5100  140.3476  155.4368 H   0  0  0  0  0  0  0  0  0  0  0  0  # atno 8009 bound_to 7997
  156.0802  140.1371  156.9710 H   0  0  0  0  0  0  0  0  0  0  0  0  # atno 8010 bound_to 7997
  140.7288  143.4445  151.0608 H   0  0  0  0  0  0  0  0  0  0  0  0  # atno 10167 bound_to 10162
  156.1942  130.4154  149.9330 H   0  0  0  0  0  0  0  0  0  0  0  0  # atno 10718 bound_to 10713
  154.4979  135.5802  153.6508 H   0  0  0  0  0  0  0  0  0  0  0  0  # atno 10763 bound_to 10752
  152.9873  135.6128  154.3041 H   0  0  0  0  0  0  0  0  0  0  0  0  # atno 10764 bound_to 10752
  154.2946  135.2848  155.2618 H   0  0  0  0  0  0  0  0  0  0  0  0  # atno 10765 bound_to 10752
  139.8787  134.9279  156.5274 H   0  0  0  0  0  0  0  0  0  0  0  0  # atno 11005 bound_to 11000
  146.2625  140.5006  142.8847 LP  0  0  0  0  0  0  0  0  0  0  0  0  # atno 17320 bound_to 7965
  144.8205  140.6542  143.6356 LP  0  0  0  0  0  0  0  0  0  0  0  0  # atno 17321 bound_to 7965
  139.8115  143.7944  152.3171 LP  0  0  0  0  0  0  0  0  0  0  0  0  # atno 17342 bound_to 10162
  139.7996  144.7379  150.9843 LP  0  0  0  0  0  0  0  0  0  0  0  0  # atno 17343 bound_to 10162
  156.7060  130.8951  151.3604 LP  0  0  0  0  0  0  0  0  0  0  0  0  # atno 17370 bound_to 10713
  157.6947  130.9270  150.0612 LP  0  0  0  0  0  0  0  0  0  0  0  0  # atno 17371 bound_to 10713
  140.8406  133.8208  155.9071 LP  0  0  0  0  0  0  0  0  0  0  0  0  # atno 17394 bound_to 11000
  140.9241  134.2104  157.4907 LP  0  0  0  0  0  0  0  0  0  0  0  0  # atno 17395 bound_to 11000

$$$$
