AV-unprocessed.smi:3336|AV-procd|sdf|12855|dock2
  -GOLD-   2272019253D 1   1.00000     0.00000
 Structure written by MMmdl.
 42 43  0  0  0  0  0  0  0  0  2 V2000
  144.0513  136.3609  152.6361 C   0  0  0  0  0  0  0  0  0  0  0  0
  145.4582  136.6043  152.0640 C   0  0  2  0  0  0  0  0  0  0  0  0
  145.7988  135.6280  150.9136 C   0  0  0  0  0  0  0  0  0  0  0  0
  145.2793  134.2902  151.1312 N   0  0  0  0  0  0  0  0  0  0  0  0
  144.2941  133.6262  150.4305 C   0  0  0  0  0  0  0  0  0  0  0  0
  144.1444  132.3976  151.0071 C   0  0  0  0  0  0  0  0  0  0  0  0
  145.0885  132.4061  152.0719 C   0  0  0  0  0  0  0  0  0  0  0  0
  145.7647  133.5415  152.1447 N   0  0  0  0  0  0  0  0  0  0  0  0
  146.4493  136.5047  153.1620 N   0  3  0  0  0  0  0  0  0  0  0  0
  146.4699  137.6041  154.1582 C   0  0  1  0  0  0  0  0  0  0  0  0
  145.4535  137.3421  155.2914 C   0  0  0  0  0  0  0  0  0  0  0  0
  147.9034  137.7656  154.7066 C   0  0  0  0  0  0  0  0  0  0  0  0
  148.3074  136.9516  155.5386 O   0  0  0  0  0  0  0  0  0  0  0  0
  148.6954  138.7694  154.2512 N   0  0  0  0  0  0  0  0  0  0  0  0
  148.2363  139.7691  153.2808 C   0  0  0  0  0  0  0  0  0  0  0  0
  148.2173  141.1447  153.9716 C   0  0  0  0  0  0  0  0  0  0  0  0
  149.5187  141.4501  154.4671 O   0  0  0  0  0  0  0  0  0  0  0  0
  150.0115  140.4788  155.3862 C   0  0  0  0  0  0  0  0  0  0  0  0
  150.0504  139.0982  154.7074 C   0  0  0  0  0  0  0  0  0  0  0  0
  143.2782  136.5147  151.8828 H   0  0  0  0  0  0  0  0  0  0  0  0
  143.8377  137.0463  153.4570 H   0  0  0  0  0  0  0  0  0  0  0  0
  143.9477  135.3440  153.0164 H   0  0  0  0  0  0  0  0  0  0  0  0
  145.4679  137.6219  151.6750 H   0  0  0  0  0  0  0  0  0  0  0  0
  145.3992  135.9848  149.9645 H   0  0  0  0  0  0  0  0  0  0  0  0
  146.8805  135.5577  150.7899 H   0  0  0  0  0  0  0  0  0  0  0  0
  143.7889  134.0756  149.5882 H   0  0  0  0  0  0  0  0  0  0  0  0
  143.4624  131.6128  150.7149 H   0  0  0  0  0  0  0  0  0  0  0  0
  145.2998  131.6267  152.7894 H   0  0  0  0  0  0  0  0  0  0  0  0
  146.2755  135.6480  153.6686 H   0  0  0  0  0  0  0  0  0  0  0  0
  146.1796  138.5458  153.6960 H   0  0  0  0  0  0  0  0  0  0  0  0
  145.5348  138.0948  156.0771 H   0  0  0  0  0  0  0  0  0  0  0  0
  145.6033  136.3642  155.7509 H   0  0  0  0  0  0  0  0  0  0  0  0
  144.4262  137.3815  154.9306 H   0  0  0  0  0  0  0  0  0  0  0  0
  148.9165  139.7863  152.4280 H   0  0  0  0  0  0  0  0  0  0  0  0
  147.2491  139.5503  152.8717 H   0  0  0  0  0  0  0  0  0  0  0  0
  147.9177  141.9187  153.2649 H   0  0  0  0  0  0  0  0  0  0  0  0
  147.4945  141.1597  154.7888 H   0  0  0  0  0  0  0  0  0  0  0  0
  151.0118  140.7711  155.7060 H   0  0  0  0  0  0  0  0  0  0  0  0
  149.3840  140.4564  156.2785 H   0  0  0  0  0  0  0  0  0  0  0  0
  150.4796  138.3737  155.3935 H   0  0  0  0  0  0  0  0  0  0  0  0
  150.7229  139.1234  153.8486 H   0  0  0  0  0  0  0  0  0  0  0  0
  147.3656  136.4394  152.7424 H   0  0  0  0  0  0  0  0  0  0  0  0
  1  2  1  0  0  0  0
  1 20  1  0  0  0  0
  1 21  1  0  0  0  0
  1 22  1  0  0  0  0
  2  3  1  0  0  0  0
  2  9  1  0  0  0  0
  2 23  1  0  0  0  0
  3  4  1  0  0  0  0
  3 24  1  0  0  0  0
  3 25  1  0  0  0  0
  4  8  1  0  0  0  0
  4  5  1  0  0  0  0
  5  6  2  0  0  0  0
  5 26  1  0  0  0  0
  6  7  1  0  0  0  0
  6 27  1  0  0  0  0
  7  8  2  0  0  0  0
  7 28  1  0  0  0  0
  9 10  1  0  0  0  0
  9 29  1  0  0  0  0
  9 42  1  0  0  0  0
 10 11  1  0  0  0  0
 10 12  1  0  0  0  0
 10 30  1  0  0  0  0
 11 31  1  0  0  0  0
 11 32  1  0  0  0  0
 11 33  1  0  0  0  0
 12 13  2  0  0  0  0
 12 14  1  0  0  0  0
 14 19  1  0  0  0  0
 14 15  1  0  0  0  0
 15 16  1  0  0  0  0
 15 34  1  0  0  0  0
 15 35  1  0  0  0  0
 16 17  1  0  0  0  0
 16 36  1  0  0  0  0
 16 37  1  0  0  0  0
 17 18  1  0  0  0  0
 18 19  1  0  0  0  0
 18 38  1  0  0  0  0
 18 39  1  0  0  0  0
 19 40  1  0  0  0  0
 19 41  1  0  0  0  0
M  CHG  1   9   1
M  END
> <s_m_source_file>
AV-unprocessed.smi

> <i_m_source_file_index>
3336

> <i_lp_mmshare_version>
43012

> <i_f3d_flags>
0

> <s_epik_input>
bjFbY0hdW2NIXVtjSF1uMVtDSDJdW0NAQEhdKFtDSDNdKVtOSF1bQ0BIXShbQ0gzXSlDKD1PKU4yW0NIMl1bQ0gyXU9bQ0gyXVtDSDJdMg==

> <s_epik_cmdline>
J2VwaWtfcHl0aG9uJywgJy1waCcsICc3LjAnLCAnLXRuJywgJzgnLCAnLW1hJywgJzIwMCcsICctbWV0YWxfYmluZGluZycsICctaW1hZScsICc8aW5maWxlLm1hZT4nLCAnLW9tYWUnLCAnPG91dGZpbGUubWFlPic=

> <r_lp_tautomer_probability>
1

> <r_epik_Ionization_Penalty>
0.200288

> <r_epik_Ionization_Penalty_Charging>
0.200285

> <r_epik_Ionization_Penalty_Neutral>
3.37705e-06

> <r_epik_State_Penalty>
0.190126

> <r_epik_Charging_Adjusted_Penalty>
0.39041

> <i_epik_Tot_Q>
1

> <i_epik_Tot_abs_Q>
1

> <r_epik_Metal_State_Penalty>
0.190133

> <b_epik_Metal_Only>
0

> <s_lp_Force_Field>
OPLS_2005

> <r_lp_Energy>
29.2722

> <b_lp_Chiralities_Consistent>
1

> <s_lp_Variant>
AV-unprocessed.smi:3336-3

> <Gold.Version>
5.8.1

> <Gold.Id.Protein>
6NUR|6NUR_protein|mol2

> <Gold.PLP.Fitness>
38.6217

> <Gold.PLP.PLP>
-30.2437

> <Gold.PLP.part.hbond>
-2.3295

> <Gold.PLP.part.metal>
0.0000

> <Gold.PLP.part.buried>
0.4854

> <Gold.PLP.part.nonpolar>
-28.5769

> <Gold.PLP.part.repulsive>
0.4006

> <Gold.PLP.ligand.clash>
0.0000

> <Gold.PLP.ligand.torsion>
1.1535

> <Gold.PLP.Chemscore.Hbond>
2.5216

> <Gold.PLP.Chemscore.CHOScore>
1.0000

> <Gold.PLP.Chemscore.Metal>
0.0000

> <Gold.Chemscore.Hbonds>
donor molecule, donor type, donor heavy atom, donor atom, acceptor molecule, acceptor atom, score
      L1  H     9    42       P1  7948  2.00
      P1  H  8011  8017       L1    17  0.02
      L1  C     5    26       P1 10186  0.28

> <Gold.PLP.Chemscore.Internal.Correction>
0.1204

> <Gold.Rescore>
     Score         DG    S(hbond)    S(metal)    S(lipo)     H(rot)  DE(clash)    DE(int)     intcor
     10.98     -12.40       1.00        0.00      71.27       1.85       0.43       1.00       ----

> <Gold.Chemscore.Fitness>
10.9758

> <Gold.Chemscore.DG>
-12.4034

> <Gold.Chemscore.ZeroCoef>
-5.4800

> <Gold.Chemscore.Hbond>
0.9974

> <Gold.Chemscore.Metal>
0.0000

> <Gold.Chemscore.Lipo>
71.2703

> <Gold.Chemscore.Internal_Hbond>
0.0000

> <Gold.Chemscore.DEClash>
0.4260

> <Gold.Chemscore.DEInternal>
1.0016

> <Gold.Chemscore.Rot>
1.8541

> <Gold.Chemscore.Internal.Correction>
   9.000000E+99

> <Gold.Chemscore.Hbonds>
donor molecule, donor type, donor heavy atom, donor atom, acceptor molecule, acceptor atom, score
      L1  H     9    42       P1  7948  1.00

> <Gold.Chemscore.Hbond.Weighted>
-3.3313

> <Gold.Chemscore.Metal.Weighted>
-0.0000

> <Gold.Chemscore.Lipo.Weighted>
-8.3386

> <Gold.Chemscore.Internal_Hbond.Weighted>
0.0000

> <Gold.Chemscore.DEClash.Weighted>
0.4260

> <Gold.Chemscore.DEInternal.Weighted>
1.0016

> <Gold.Chemscore.Rot.Weighted>
4.7465

> <Gold.Chemscore.Internal.Correction.Weighted>
   9.000000E+99

> <Gold.Protein.RotatedTorsions>
[ 6907 6896 6895 6894 ] final  -22.22 input  -60.11 | X-H torsion
[ 7974 7965 7964 7962 ] final   -8.75 input  175.53 | X-H torsion
[ 8008 7997 7996 7995 ] final -129.71 input   59.86 | X-H torsion
[ 10167 10162 10161 10158 ] final  101.77 input  -65.29 | X-H torsion
[ 10718 10713 10712 10709 ] final   20.08 input   66.30 | X-H torsion
[ 10763 10752 10751 10750 ] final  -49.63 input  -60.55 | X-H torsion
[ 11005 11000 10999 10996 ] final  -36.52 input  -57.11 | X-H torsion

> <Gold.Protein.ActiveResidues>
 VAL166  LYS551  ARG553  GLY616  TRP617  ASP618  TYR619  PRO620  LYS621  CYS622 
 ASP623  PHE694  ASN695  SER759  ASP760  ASP761  ALA762  ILE779  LEU786  VAL792 
 PHE793  MET794  SER795  GLU796  ALA797  LYS798  CYS799  TRP800  GLU811  SER814 

> <Gold.Protein.RotatedAtoms>
  151.2218  135.0521  159.8952 H   0  0  0  0  0  0  0  0  0  0  0  0  # atno 6907 bound_to 6896
  152.5414  134.0632  159.8171 H   0  0  0  0  0  0  0  0  0  0  0  0  # atno 6908 bound_to 6896
  151.0800  133.5350  159.2653 H   0  0  0  0  0  0  0  0  0  0  0  0  # atno 6909 bound_to 6896
  146.2272  140.2514  142.8347 H   0  0  0  0  0  0  0  0  0  0  0  0  # atno 7974 bound_to 7965
  155.2837  140.0445  157.3017 H   0  0  0  0  0  0  0  0  0  0  0  0  # atno 8008 bound_to 7997
  154.5582  140.2338  155.8345 H   0  0  0  0  0  0  0  0  0  0  0  0  # atno 8009 bound_to 7997
  156.2025  140.3021  155.9564 H   0  0  0  0  0  0  0  0  0  0  0  0  # atno 8010 bound_to 7997
  139.7409  144.7011  151.0577 H   0  0  0  0  0  0  0  0  0  0  0  0  # atno 10167 bound_to 10162
  157.1194  130.6543  149.5920 H   0  0  0  0  0  0  0  0  0  0  0  0  # atno 10718 bound_to 10713
  154.0973  135.6568  153.4862 H   0  0  0  0  0  0  0  0  0  0  0  0  # atno 10763 bound_to 10752
  153.0301  135.5216  154.7322 H   0  0  0  0  0  0  0  0  0  0  0  0  # atno 10764 bound_to 10752
  154.6463  135.2995  155.0011 H   0  0  0  0  0  0  0  0  0  0  0  0  # atno 10765 bound_to 10752
  140.9881  133.7020  156.1801 H   0  0  0  0  0  0  0  0  0  0  0  0  # atno 11005 bound_to 11000
  144.9409  140.8077  143.5631 LP  0  0  0  0  0  0  0  0  0  0  0  0  # atno 17320 bound_to 7965
  145.2465  139.2050  143.4965 LP  0  0  0  0  0  0  0  0  0  0  0  0  # atno 17321 bound_to 7965
  140.7785  143.4926  150.9874 LP  0  0  0  0  0  0  0  0  0  0  0  0  # atno 17342 bound_to 10162
  139.8614  143.7309  152.3173 LP  0  0  0  0  0  0  0  0  0  0  0  0  # atno 17343 bound_to 10162
  155.9832  130.4850  150.6920 LP  0  0  0  0  0  0  0  0  0  0  0  0  # atno 17370 bound_to 10713
  157.4489  131.0870  151.0866 LP  0  0  0  0  0  0  0  0  0  0  0  0  # atno 17371 bound_to 10713
  140.7083  134.4489  157.5583 LP  0  0  0  0  0  0  0  0  0  0  0  0  # atno 17394 bound_to 11000
  139.8979  134.8625  156.2022 LP  0  0  0  0  0  0  0  0  0  0  0  0  # atno 17395 bound_to 11000

$$$$
