AV-unprocessed.smi:55|AV-procd|sdf|563|dock5
  -GOLD-   2262016463D 1   1.00000     0.00000
 Structure written by MMmdl.
 31 32  0  0  0  0  0  0  0  0  1 V2000
  151.8522  144.6033  157.8624 C   0  0  0  0  0  0  0  0  0  0  0  0
  151.8093  143.0849  157.9076 C   0  0  0  0  0  0  0  0  0  0  0  0
  150.8271  142.3659  157.3064 C   0  0  0  0  0  0  0  0  0  0  0  0
  150.7561  140.9785  157.3270 N   0  0  0  0  0  0  0  0  0  0  0  0
  149.5777  140.2422  156.7219 C   0  0  2  0  0  0  0  0  0  0  0  0
  149.9129  139.4557  155.4404 C   0  0  0  0  0  0  0  0  0  0  0  0
  149.0116  140.0939  154.3922 C   0  0  2  0  0  0  0  0  0  0  0  0
  149.7340  141.0073  153.5887 O   0  0  0  0  0  0  0  0  0  0  0  0
  147.9260  140.7830  155.2348 C   0  0  2  0  0  0  0  0  0  0  0  0
  147.1875  141.9691  154.5904 C   0  0  0  0  0  0  0  0  0  0  0  0
  148.1114  142.8750  154.0262 O   0  0  0  0  0  0  0  0  0  0  0  0
  148.6055  141.1899  156.4135 O   0  0  0  0  0  0  0  0  0  0  0  0
  151.6924  140.2622  158.1058 C   0  0  0  0  0  0  0  0  0  0  0  0
  151.6479  139.0426  158.2619 O   0  0  0  0  0  0  0  0  0  0  0  0
  152.7107  140.9972  158.7106 N   0  0  0  0  0  0  0  0  0  0  0  0
  152.8568  142.3845  158.6540 C   0  0  0  0  0  0  0  0  0  0  0  0
  153.8088  142.9194  159.2200 O   0  0  0  0  0  0  0  0  0  0  0  0
  149.1945  139.5602  157.4822 H   0  0  0  0  0  0  0  0  0  0  0  0
  148.5777  139.3429  153.7315 H   0  0  0  0  0  0  0  0  0  0  0  0
  147.1952  140.0314  155.5400 H   0  0  0  0  0  0  0  0  0  0  0  0
  153.3946  140.4833  159.2469 H   0  0  0  0  0  0  0  0  0  0  0  0
  151.0246  145.0148  157.2840 H   0  0  0  0  0  0  0  0  0  0  0  0
  152.7817  144.9450  157.4057 H   0  0  0  0  0  0  0  0  0  0  0  0
  151.7931  145.0161  158.8701 H   0  0  0  0  0  0  0  0  0  0  0  0
  150.0515  142.9159  156.7977 H   0  0  0  0  0  0  0  0  0  0  0  0
  150.9738  139.4619  155.1902 H   0  0  0  0  0  0  0  0  0  0  0  0
  149.6226  138.4161  155.5993 H   0  0  0  0  0  0  0  0  0  0  0  0
  149.4611  140.8951  152.6907 H   0  0  0  0  0  0  0  0  0  0  0  0
  146.5323  141.6094  153.7967 H   0  0  0  0  0  0  0  0  0  0  0  0
  146.5551  142.4878  155.3112 H   0  0  0  0  0  0  0  0  0  0  0  0
  148.4092  143.4615  154.7051 H   0  0  0  0  0  0  0  0  0  0  0  0
  1  2  1  0  0  0  0
  1 22  1  0  0  0  0
  1 23  1  0  0  0  0
  1 24  1  0  0  0  0
  2 16  1  0  0  0  0
  2  3  2  0  0  0  0
  3  4  1  0  0  0  0
  3 25  1  0  0  0  0
  4  5  1  0  0  0  0
  4 13  1  0  0  0  0
  5 18  1  0  0  0  0
  5 12  1  0  0  0  0
  5  6  1  0  0  0  0
  6  7  1  0  0  0  0
  6 26  1  0  0  0  0
  6 27  1  0  0  0  0
  7 19  1  0  0  0  0
  7  8  1  0  0  0  0
  7  9  1  0  0  0  0
  8 28  1  0  0  0  0
  9 20  1  0  0  0  0
  9 10  1  0  0  0  0
  9 12  1  0  0  0  0
 10 11  1  0  0  0  0
 10 29  1  0  0  0  0
 10 30  1  0  0  0  0
 11 31  1  0  0  0  0
 13 14  2  0  0  0  0
 13 15  1  0  0  0  0
 15 21  1  0  0  0  0
 15 16  1  0  0  0  0
 16 17  2  0  0  0  0
M  END
> <s_m_source_file>
AV-unprocessed.smi

> <i_m_source_file_index>
55

> <i_lp_mmshare_version>
43012

> <i_f3d_flags>
0

> <s_epik_input>
Tz1jMVtuSF1jKD1PKW4oW2NIXWMxW0NIM10pW0NAQEhdMltDSDJdW0NAQEhdKFtPSF0pW0NAQEhdKE8yKVtDSDJdW09IXQ==

> <s_epik_cmdline>
J2VwaWtfcHl0aG9uJywgJy1waCcsICc3LjAnLCAnLXRuJywgJzgnLCAnLW1hJywgJzIwMCcsICctbWV0YWxfYmluZGluZycsICctaW1hZScsICc8aW5maWxlLm1hZT4nLCAnLW9tYWUnLCAnPG91dGZpbGUubWFlPic=

> <r_lp_tautomer_probability>
0.999537

> <r_epik_Ionization_Penalty>
0.00121888

> <r_epik_Ionization_Penalty_Charging>
0.00121876

> <r_epik_Ionization_Penalty_Neutral>
1.19946e-07

> <r_epik_State_Penalty>
0.000805124

> <r_epik_Charging_Adjusted_Penalty>
0.00202389

> <i_epik_Tot_Q>
0

> <i_epik_Tot_abs_Q>
0

> <r_epik_Metal_State_Penalty>
0.662472

> <b_epik_Metal_Only>
0

> <s_epik_Chemistry_Notes>
This compound contains an acetal/aminal-like group ( X-CH(R)-Y where X, Y are N, S, or O) that may be acid/base labile, releasing an aldehyde.

> <s_lp_Force_Field>
OPLS_2005

> <r_lp_Energy>
26.1821

> <b_lp_Chiralities_Consistent>
1

> <s_lp_Variant>
AV-unprocessed.smi:55-3

> <Gold.Version>
5.8.1

> <Gold.Id.Protein>
6NUR|6NUR_protein|mol2

> <Gold.PLP.Fitness>
39.5482

> <Gold.PLP.PLP>
-30.5086

> <Gold.PLP.part.hbond>
-5.4480

> <Gold.PLP.part.metal>
0.0000

> <Gold.PLP.part.buried>
-2.4848

> <Gold.PLP.part.nonpolar>
-21.3932

> <Gold.PLP.part.repulsive>
0.1817

> <Gold.PLP.ligand.clash>
0.0000

> <Gold.PLP.ligand.torsion>
0.4191

> <Gold.PLP.Chemscore.Hbond>
2.2592

> <Gold.PLP.Chemscore.CHOScore>
1.0000

> <Gold.PLP.Chemscore.Metal>
0.0000

> <Gold.Chemscore.Hbonds>
donor molecule, donor type, donor heavy atom, donor atom, acceptor molecule, acceptor atom, score
      L1  H     8    28       P1  7957  0.99
      L1  H    11    31       P1  8028  1.00
      P1  H  7989  7998       L1     8  0.29
      L1  C     3    25       P1  8028  1.00

> <Gold.PLP.Chemscore.Internal.Correction>
0.1003

> <Gold.Rescore>
     Score         DG    S(hbond)    S(metal)    S(lipo)     H(rot)  DE(clash)    DE(int)     intcor
     11.09     -11.67       2.08        0.00      53.01       2.73       0.09       0.49       ----

> <Gold.Chemscore.Fitness>
11.0937

> <Gold.Chemscore.DG>
-11.6672

> <Gold.Chemscore.ZeroCoef>
-5.4800

> <Gold.Chemscore.Hbond>
2.0844

> <Gold.Chemscore.Metal>
0.0000

> <Gold.Chemscore.Lipo>
53.0098

> <Gold.Chemscore.Internal_Hbond>
0.0000

> <Gold.Chemscore.DEClash>
0.0853

> <Gold.Chemscore.DEInternal>
0.4882

> <Gold.Chemscore.Rot>
2.7253

> <Gold.Chemscore.Internal.Correction>
   9.000000E+99

> <Gold.Chemscore.Hbonds>
donor molecule, donor type, donor heavy atom, donor atom, acceptor molecule, acceptor atom, score
      L1  H     8    28       P1  7957  0.94
      L1  H    11    31       P1  8028  0.98
      P1  H  7989  7998       L1     8  0.10

> <Gold.Chemscore.Hbond.Weighted>
-6.9619

> <Gold.Chemscore.Metal.Weighted>
-0.0000

> <Gold.Chemscore.Lipo.Weighted>
-6.2021

> <Gold.Chemscore.Internal_Hbond.Weighted>
0.0000

> <Gold.Chemscore.DEClash.Weighted>
0.0853

> <Gold.Chemscore.DEInternal.Weighted>
0.4882

> <Gold.Chemscore.Rot.Weighted>
6.9769

> <Gold.Chemscore.Internal.Correction.Weighted>
   9.000000E+99

> <Gold.Protein.RotatedTorsions>
[ 6907 6896 6895 6894 ] final  -33.19 input  -60.11 | X-H torsion
[ 7974 7965 7964 7962 ] final  159.28 input  175.53 | X-H torsion
[ 8008 7997 7996 7995 ] final   90.02 input   59.86 | X-H torsion
[ 10167 10162 10161 10158 ] final  102.43 input  -65.29 | X-H torsion
[ 10718 10713 10712 10709 ] final  -30.25 input   66.30 | X-H torsion
[ 10763 10752 10751 10750 ] final   30.86 input  -60.55 | X-H torsion
[ 11005 11000 10999 10996 ] final -146.11 input  -57.11 | X-H torsion

> <Gold.Protein.ActiveResidues>
 VAL166  LYS551  ARG553  GLY616  TRP617  ASP618  TYR619  PRO620  LYS621  CYS622 
 ASP623  PHE694  ASN695  SER759  ASP760  ASP761  ALA762  ILE779  LEU786  VAL792 
 PHE793  MET794  SER795  GLU796  ALA797  LYS798  CYS799  TRP800  GLU811  SER814 

> <Gold.Protein.RotatedAtoms>
  151.0689  134.9785  159.8297 H   0  0  0  0  0  0  0  0  0  0  0  0  # atno 6907 bound_to 6896
  152.5405  134.2324  159.8840 H   0  0  0  0  0  0  0  0  0  0  0  0  # atno 6908 bound_to 6896
  151.2348  133.4387  159.2638 H   0  0  0  0  0  0  0  0  0  0  0  0  # atno 6909 bound_to 6896
  144.7799  139.7595  143.6264 H   0  0  0  0  0  0  0  0  0  0  0  0  # atno 7974 bound_to 7965
  156.0070  140.3354  155.6902 H   0  0  0  0  0  0  0  0  0  0  0  0  # atno 8008 bound_to 7997
  155.6211  140.0675  157.2695 H   0  0  0  0  0  0  0  0  0  0  0  0  # atno 8009 bound_to 7997
  154.4268  140.1776  156.1360 H   0  0  0  0  0  0  0  0  0  0  0  0  # atno 8010 bound_to 7997
  139.7351  144.7026  151.0662 H   0  0  0  0  0  0  0  0  0  0  0  0  # atno 10167 bound_to 10162
  156.4022  130.4392  149.7314 H   0  0  0  0  0  0  0  0  0  0  0  0  # atno 10718 bound_to 10713
  153.0348  135.6453  154.1110 H   0  0  0  0  0  0  0  0  0  0  0  0  # atno 10763 bound_to 10752
  154.0826  135.2872  155.3289 H   0  0  0  0  0  0  0  0  0  0  0  0  # atno 10764 bound_to 10752
  154.6519  135.5423  153.7976 H   0  0  0  0  0  0  0  0  0  0  0  0  # atno 10765 bound_to 10752
  140.7854  134.3031  157.5032 H   0  0  0  0  0  0  0  0  0  0  0  0  # atno 11005 bound_to 11000
  146.2001  139.5291  142.9749 LP  0  0  0  0  0  0  0  0  0  0  0  0  # atno 17320 bound_to 7965
  145.6080  141.0344  143.1982 LP  0  0  0  0  0  0  0  0  0  0  0  0  # atno 17321 bound_to 7965
  140.7777  143.4994  150.9790 LP  0  0  0  0  0  0  0  0  0  0  0  0  # atno 17342 bound_to 10162
  139.8683  143.7226  152.3168 LP  0  0  0  0  0  0  0  0  0  0  0  0  # atno 17343 bound_to 10162
  156.4325  130.7822  151.2842 LP  0  0  0  0  0  0  0  0  0  0  0  0  # atno 17370 bound_to 10713
  157.7504  131.0149  150.3484 LP  0  0  0  0  0  0  0  0  0  0  0  0  # atno 17371 bound_to 10713
  139.8737  134.9343  156.3603 LP  0  0  0  0  0  0  0  0  0  0  0  0  # atno 17394 bound_to 11000
  140.9442  133.7494  156.0186 LP  0  0  0  0  0  0  0  0  0  0  0  0  # atno 17395 bound_to 11000

$$$$
