AV-unprocessed.smi:3004|AV-procd|sdf|11439|dock6
  -GOLD-   2272016373D 1   1.00000     0.00000
 Structure written by MMmdl.
 47 48  0  0  0  0  0  0  0  0  2 V2000
  147.9618  141.2622  153.8158 C   0  0  0  0  0  0  0  0  0  0  0  0
  149.1880  140.5528  154.3089 C   0  0  0  0  0  0  0  0  0  0  0  0
  150.0514  140.9250  155.3769 C   0  0  0  0  0  0  0  0  0  0  0  0
  150.9973  139.9395  155.4062 C   0  0  0  0  0  0  0  0  0  0  0  0
  152.1743  139.7628  156.3084 C   0  0  0  0  0  0  0  0  0  0  0  0
  150.6812  139.0499  154.3943 N   0  0  0  0  0  0  0  0  0  0  0  0
  151.3575  137.8229  154.0046 C   0  0  0  0  0  0  0  0  0  0  0  0
  150.8173  136.6261  154.7892 C   0  0  0  0  0  0  0  0  0  0  0  0
  151.5187  136.0768  155.6386 O   0  0  0  0  0  0  0  0  0  0  0  0
  149.5658  136.2365  154.5013 N   0  0  0  0  0  0  0  0  0  0  0  0
  148.8505  135.1497  155.1599 C   0  0  0  0  0  0  0  0  0  0  0  0
  147.3721  135.0848  154.7176 C   0  0  0  0  0  0  0  0  0  0  0  0
  147.1892  134.8244  153.2592 N   0  3  2  0  0  0  0  0  0  0  0  0
  145.9040  135.3816  152.7438 C   0  0  0  0  0  0  0  0  0  0  0  0
  145.7756  135.2256  151.2218 C   0  0  0  0  0  0  0  0  0  0  0  0
  145.9011  133.7576  150.8172 C   0  0  0  0  0  0  0  0  0  0  0  0
  147.2221  133.1991  151.3499 C   0  0  0  0  0  0  0  0  0  0  0  0
  147.3516  133.3815  152.8784 C   0  0  1  0  0  0  0  0  0  0  0  0
  148.6940  132.7734  153.3352 C   0  0  0  0  0  0  0  0  0  0  0  0
  149.5720  139.4305  153.7226 N   0  0  0  0  0  0  0  0  0  0  0  0
  147.7217  142.1181  154.4468 H   0  0  0  0  0  0  0  0  0  0  0  0
  147.0970  140.5984  153.8160 H   0  0  0  0  0  0  0  0  0  0  0  0
  148.1026  141.6286  152.7988 H   0  0  0  0  0  0  0  0  0  0  0  0
  149.9844  141.7852  156.0266 H   0  0  0  0  0  0  0  0  0  0  0  0
  152.2166  140.5578  157.0531 H   0  0  0  0  0  0  0  0  0  0  0  0
  153.1049  139.7856  155.7415 H   0  0  0  0  0  0  0  0  0  0  0  0
  152.1204  138.8114  156.8375 H   0  0  0  0  0  0  0  0  0  0  0  0
  151.2331  137.6699  152.9310 H   0  0  0  0  0  0  0  0  0  0  0  0
  152.4276  137.9261  154.1850 H   0  0  0  0  0  0  0  0  0  0  0  0
  149.0622  136.7535  153.7943 H   0  0  0  0  0  0  0  0  0  0  0  0
  149.3828  134.2230  154.9461 H   0  0  0  0  0  0  0  0  0  0  0  0
  148.9121  135.3087  156.2368 H   0  0  0  0  0  0  0  0  0  0  0  0
  146.9183  134.2874  155.3016 H   0  0  0  0  0  0  0  0  0  0  0  0
  146.8469  136.0029  154.9844 H   0  0  0  0  0  0  0  0  0  0  0  0
  145.0674  134.8899  153.2430 H   0  0  0  0  0  0  0  0  0  0  0  0
  145.8223  136.4436  152.9653 H   0  0  0  0  0  0  0  0  0  0  0  0
  144.8175  135.6231  150.8855 H   0  0  0  0  0  0  0  0  0  0  0  0
  146.5474  135.8147  150.7240 H   0  0  0  0  0  0  0  0  0  0  0  0
  145.0638  133.1859  151.2196 H   0  0  0  0  0  0  0  0  0  0  0  0
  145.8582  133.6587  149.7322 H   0  0  0  0  0  0  0  0  0  0  0  0
  147.2927  132.1421  151.0906 H   0  0  0  0  0  0  0  0  0  0  0  0
  148.0546  133.6940  150.8471 H   0  0  0  0  0  0  0  0  0  0  0  0
  146.5486  132.8174  153.3562 H   0  0  0  0  0  0  0  0  0  0  0  0
  148.8423  131.7853  152.8985 H   0  0  0  0  0  0  0  0  0  0  0  0
  148.7401  132.6325  154.4145 H   0  0  0  0  0  0  0  0  0  0  0  0
  149.5373  133.3950  153.0323 H   0  0  0  0  0  0  0  0  0  0  0  0
  147.9295  135.3240  152.7874 H   0  0  0  0  0  0  0  0  0  0  0  0
  1  2  1  0  0  0  0
  1 21  1  0  0  0  0
  1 22  1  0  0  0  0
  1 23  1  0  0  0  0
  2 20  2  0  0  0  0
  2  3  1  0  0  0  0
  3  4  2  0  0  0  0
  3 24  1  0  0  0  0
  4  5  1  0  0  0  0
  4  6  1  0  0  0  0
  5 25  1  0  0  0  0
  5 26  1  0  0  0  0
  5 27  1  0  0  0  0
  6  7  1  0  0  0  0
  6 20  1  0  0  0  0
  7  8  1  0  0  0  0
  7 28  1  0  0  0  0
  7 29  1  0  0  0  0
  8  9  2  0  0  0  0
  8 10  1  0  0  0  0
 10 11  1  0  0  0  0
 10 30  1  0  0  0  0
 11 12  1  0  0  0  0
 11 31  1  0  0  0  0
 11 32  1  0  0  0  0
 12 13  1  0  0  0  0
 12 33  1  0  0  0  0
 12 34  1  0  0  0  0
 13 18  1  0  0  0  0
 13 14  1  0  0  0  0
 13 47  1  0  0  0  0
 14 15  1  0  0  0  0
 14 35  1  0  0  0  0
 14 36  1  0  0  0  0
 15 16  1  0  0  0  0
 15 37  1  0  0  0  0
 15 38  1  0  0  0  0
 16 17  1  0  0  0  0
 16 39  1  0  0  0  0
 16 40  1  0  0  0  0
 17 18  1  0  0  0  0
 17 41  1  0  0  0  0
 17 42  1  0  0  0  0
 18 19  1  0  0  0  0
 18 43  1  0  0  0  0
 19 44  1  0  0  0  0
 19 45  1  0  0  0  0
 19 46  1  0  0  0  0
M  CHG  1  13   1
M  END
> <s_m_source_file>
AV-unprocessed.smi

> <i_m_source_file_index>
3004

> <i_lp_mmshare_version>
43012

> <i_f3d_flags>
0

> <s_epik_input>
W0NIM11jMVtjSF1jKFtDSDNdKW4objEpW0NIMl1DKD1PKVtOSF1bQ0gyXVtDSDJdTjJbQ0gyXVtDSDJdW0NIMl1bQ0gyXVtDQEhdMltDSDNd

> <s_epik_cmdline>
J2VwaWtfcHl0aG9uJywgJy1waCcsICc3LjAnLCAnLXRuJywgJzgnLCAnLW1hJywgJzIwMCcsICctbWV0YWxfYmluZGluZycsICctaW1hZScsICc8aW5maWxlLm1hZT4nLCAnLW9tYWUnLCAnPG91dGZpbGUubWFlPic=

> <r_lp_tautomer_probability>
1

> <r_epik_Ionization_Penalty>
0.00303644

> <r_epik_Ionization_Penalty_Charging>
0.00284254

> <r_epik_Ionization_Penalty_Neutral>
0.000193908

> <r_epik_State_Penalty>
-0

> <r_epik_Charging_Adjusted_Penalty>
0.00284254

> <i_epik_Tot_Q>
1

> <i_epik_Tot_abs_Q>
1

> <r_epik_Metal_State_Penalty>
-0

> <b_epik_Metal_Only>
0

> <s_lp_Force_Field>
OPLS_2005

> <r_lp_Energy>
17.9788

> <b_lp_Chiralities_Consistent>
1

> <s_lp_Variant>
AV-unprocessed.smi:3004-1

> <Gold.Version>
5.8.1

> <Gold.Id.Protein>
6NUR|6NUR_protein|mol2

> <Gold.PLP.Fitness>
46.3720

> <Gold.PLP.PLP>
-37.8807

> <Gold.PLP.part.hbond>
-3.0537

> <Gold.PLP.part.metal>
0.0000

> <Gold.PLP.part.buried>
-3.2578

> <Gold.PLP.part.nonpolar>
-33.0422

> <Gold.PLP.part.repulsive>
2.5483

> <Gold.PLP.ligand.clash>
0.0000

> <Gold.PLP.ligand.torsion>
0.7375

> <Gold.PLP.Chemscore.Hbond>
3.3120

> <Gold.PLP.Chemscore.CHOScore>
0.0000

> <Gold.PLP.Chemscore.Metal>
0.0000

> <Gold.Chemscore.Hbonds>
donor molecule, donor type, donor heavy atom, donor atom, acceptor molecule, acceptor atom, score
      L1  H    10    30       P1  7948  0.48
      L1  H    13    47       P1  7948  2.00
      P1  H 10752 10763       L1     9  1.00

> <Gold.PLP.Chemscore.Internal.Correction>
0.0302

> <Gold.Rescore>
     Score         DG    S(hbond)    S(metal)    S(lipo)     H(rot)  DE(clash)    DE(int)     intcor
     16.33     -17.34       2.11        0.00      77.56       1.67       0.19       0.83       ----

> <Gold.Chemscore.Fitness>
16.3254

> <Gold.Chemscore.DG>
-17.3398

> <Gold.Chemscore.ZeroCoef>
-5.4800

> <Gold.Chemscore.Hbond>
2.1105

> <Gold.Chemscore.Metal>
0.0000

> <Gold.Chemscore.Lipo>
77.5638

> <Gold.Chemscore.Internal_Hbond>
0.0000

> <Gold.Chemscore.DEClash>
0.1880

> <Gold.Chemscore.DEInternal>
0.8264

> <Gold.Chemscore.Rot>
1.6657

> <Gold.Chemscore.Internal.Correction>
   9.000000E+99

> <Gold.Chemscore.Hbonds>
donor molecule, donor type, donor heavy atom, donor atom, acceptor molecule, acceptor atom, score
      L1  H    10    30       P1  7948  0.47
      L1  H    13    47       P1  7948  0.99
      P1  H 10752 10763       L1     9  0.65

> <Gold.Chemscore.Hbond.Weighted>
-7.0489

> <Gold.Chemscore.Metal.Weighted>
-0.0000

> <Gold.Chemscore.Lipo.Weighted>
-9.0750

> <Gold.Chemscore.Internal_Hbond.Weighted>
0.0000

> <Gold.Chemscore.DEClash.Weighted>
0.1880

> <Gold.Chemscore.DEInternal.Weighted>
0.8264

> <Gold.Chemscore.Rot.Weighted>
4.2641

> <Gold.Chemscore.Internal.Correction.Weighted>
   9.000000E+99

> <Gold.Protein.RotatedTorsions>
[ 6907 6896 6895 6894 ] final    7.67 input  -60.11 | X-H torsion
[ 7974 7965 7964 7962 ] final   87.67 input  175.53 | X-H torsion
[ 8008 7997 7996 7995 ] final   76.95 input   59.86 | X-H torsion
[ 10167 10162 10161 10158 ] final  102.10 input  -65.29 | X-H torsion
[ 10718 10713 10712 10709 ] final  166.53 input   66.30 | X-H torsion
[ 10763 10752 10751 10750 ] final   75.74 input  -60.55 | X-H torsion
[ 11005 11000 10999 10996 ] final  -26.04 input  -57.11 | X-H torsion

> <Gold.Protein.ActiveResidues>
 VAL166  LYS551  ARG553  GLY616  TRP617  ASP618  TYR619  PRO620  LYS621  CYS622 
 ASP623  PHE694  ASN695  SER759  ASP760  ASP761  ALA762  ILE779  LEU786  VAL792 
 PHE793  MET794  SER795  GLU796  ALA797  LYS798  CYS799  TRP800  GLU811  SER814 

> <Gold.Protein.RotatedAtoms>
  151.6937  135.0942  160.0238 H   0  0  0  0  0  0  0  0  0  0  0  0  # atno 6907 bound_to 6896
  152.3763  133.6481  159.6134 H   0  0  0  0  0  0  0  0  0  0  0  0  # atno 6908 bound_to 6896
  150.7712  133.9104  159.3409 H   0  0  0  0  0  0  0  0  0  0  0  0  # atno 6909 bound_to 6896
  145.5558  139.2299  143.2487 H   0  0  0  0  0  0  0  0  0  0  0  0  # atno 7974 bound_to 7965
  155.8346  140.3465  155.5594 H   0  0  0  0  0  0  0  0  0  0  0  0  # atno 8008 bound_to 7997
  155.8205  140.0912  157.1871 H   0  0  0  0  0  0  0  0  0  0  0  0  # atno 8009 bound_to 7997
  154.4004  140.1431  156.3482 H   0  0  0  0  0  0  0  0  0  0  0  0  # atno 8010 bound_to 7997
  139.7380  144.7019  151.0619 H   0  0  0  0  0  0  0  0  0  0  0  0  # atno 10167 bound_to 10162
  157.0646  131.0349  151.2634 H   0  0  0  0  0  0  0  0  0  0  0  0  # atno 10718 bound_to 10713
  153.0676  135.4977  154.8234 H   0  0  0  0  0  0  0  0  0  0  0  0  # atno 10763 bound_to 10752
  154.6976  135.2995  154.9391 H   0  0  0  0  0  0  0  0  0  0  0  0  # atno 10764 bound_to 10752
  154.0125  135.6752  153.4819 H   0  0  0  0  0  0  0  0  0  0  0  0  # atno 10765 bound_to 10752
  140.8993  133.7535  156.0522 H   0  0  0  0  0  0  0  0  0  0  0  0  # atno 11005 bound_to 11000
  146.1885  140.6382  142.9156 LP  0  0  0  0  0  0  0  0  0  0  0  0  # atno 17320 bound_to 7965
  144.7507  140.5182  143.6804 LP  0  0  0  0  0  0  0  0  0  0  0  0  # atno 17321 bound_to 7965
  140.7781  143.4960  150.9832 LP  0  0  0  0  0  0  0  0  0  0  0  0  # atno 17342 bound_to 10162
  139.8648  143.7268  152.3171 LP  0  0  0  0  0  0  0  0  0  0  0  0  # atno 17343 bound_to 10162
  157.4927  130.7832  149.7524 LP  0  0  0  0  0  0  0  0  0  0  0  0  # atno 17370 bound_to 10713
  155.9968  130.3903  150.2764 LP  0  0  0  0  0  0  0  0  0  0  0  0  # atno 17371 bound_to 10713
  140.8250  134.3245  157.5368 LP  0  0  0  0  0  0  0  0  0  0  0  0  # atno 17394 bound_to 11000
  139.8740  134.9331  156.3571 LP  0  0  0  0  0  0  0  0  0  0  0  0  # atno 17395 bound_to 11000

$$$$
