AV-unprocessed.smi:290|AV-procd|sdf|2245|dock10
  -GOLD-   2262022133D 1   1.00000     0.00000
 Structure written by MMmdl.
 59 62  0  0  0  0  0  0  0  0  2 V2000
  152.7809  142.1936  160.8062 C   0  0  0  0  0  0  0  0  0  0  0  0
  152.7585  142.6140  159.3283 C   0  0  2  0  0  0  0  0  0  0  0  0
  153.1175  143.9869  159.1768 O   0  0  0  0  0  0  0  0  0  0  0  0
  152.2032  144.6467  158.3091 C   0  0  0  0  0  0  0  0  0  0  0  0
  151.5104  143.5291  157.5373 C   0  0  0  0  0  0  0  0  0  0  0  0
  151.4225  142.4184  158.5752 C   0  0  2  0  0  0  0  0  0  0  0  0
  150.3278  142.6916  159.4341 O   0  0  0  0  0  0  0  0  0  0  0  0
  151.1765  140.9955  158.0091 C   0  0  0  0  0  0  0  0  0  0  0  0
  149.8261  140.7484  157.5271 N   0  0  0  0  0  0  0  0  0  0  0  0
  149.1082  141.5272  156.6502 C   0  0  0  0  0  0  0  0  0  0  0  0
  147.9129  141.0874  156.3693 N   0  0  0  0  0  0  0  0  0  0  0  0
  147.7991  139.9007  157.0866 C   0  0  0  0  0  0  0  0  0  0  0  0
  146.7802  138.9118  157.2402 C   0  0  0  0  0  0  0  0  0  0  0  0
  145.5611  138.9450  156.6359 N   0  0  0  0  0  0  0  0  0  0  0  0
  144.9053  137.7388  156.1431 C   0  0  0  0  0  0  0  0  0  0  0  0
  143.6850  138.2240  155.3498 C   0  0  0  0  0  0  0  0  0  0  0  0
  143.5095  139.6877  155.7920 C   0  0  2  0  0  0  0  0  0  0  0  0
  142.7311  140.5639  154.8655 N   0  3  2  0  0  0  0  0  0  0  0  0
  142.7519  141.9838  155.3040 C   0  0  0  0  0  0  0  0  0  0  0  0
  141.3435  140.0822  154.6101 C   0  0  0  0  0  0  0  0  0  0  0  0
  141.2824  138.9044  153.6205 C   0  0  0  0  0  0  0  0  0  0  0  0
  140.1329  139.0130  152.8075 O   0  0  0  0  0  0  0  0  0  0  0  0
  144.9703  140.1284  156.0274 C   0  0  2  0  0  0  0  0  0  0  0  0
  145.7221  140.5193  154.7332 C   0  0  0  0  0  0  0  0  0  0  0  0
  147.0528  137.8684  158.0681 N   0  0  0  0  0  0  0  0  0  0  0  0
  148.2315  137.7789  158.6896 C   0  0  0  0  0  0  0  0  0  0  0  0
  149.2678  138.6150  158.6327 N   0  0  0  0  0  0  0  0  0  0  0  0
  149.0026  139.6743  157.8168 C   0  0  0  0  0  0  0  0  0  0  0  0
  142.9946  139.6801  156.7553 H   0  0  0  0  0  0  0  0  0  0  0  0
  144.9787  140.9580  156.7324 H   0  0  0  0  0  0  0  0  0  0  0  0
  152.5030  141.1454  160.9194 H   0  0  0  0  0  0  0  0  0  0  0  0
  152.0957  142.7925  161.4063 H   0  0  0  0  0  0  0  0  0  0  0  0
  153.7784  142.3189  161.2273 H   0  0  0  0  0  0  0  0  0  0  0  0
  153.5457  142.0682  158.8106 H   0  0  0  0  0  0  0  0  0  0  0  0
  151.4826  145.2000  158.9126 H   0  0  0  0  0  0  0  0  0  0  0  0
  152.7121  145.3552  157.6555 H   0  0  0  0  0  0  0  0  0  0  0  0
  150.5445  143.8244  157.1258 H   0  0  0  0  0  0  0  0  0  0  0  0
  152.1524  143.2389  156.7063 H   0  0  0  0  0  0  0  0  0  0  0  0
  150.1068  141.8997  159.8998 H   0  0  0  0  0  0  0  0  0  0  0  0
  151.8670  140.7989  157.1877 H   0  0  0  0  0  0  0  0  0  0  0  0
  151.3988  140.2491  158.7733 H   0  0  0  0  0  0  0  0  0  0  0  0
  149.4987  142.4425  156.2290 H   0  0  0  0  0  0  0  0  0  0  0  0
  145.5707  137.1423  155.5173 H   0  0  0  0  0  0  0  0  0  0  0  0
  144.5947  137.1286  156.9921 H   0  0  0  0  0  0  0  0  0  0  0  0
  143.8960  138.1699  154.2809 H   0  0  0  0  0  0  0  0  0  0  0  0
  142.8074  137.6087  155.5502 H   0  0  0  0  0  0  0  0  0  0  0  0
  142.2110  142.1085  156.2427 H   0  0  0  0  0  0  0  0  0  0  0  0
  142.3021  142.6424  154.5629 H   0  0  0  0  0  0  0  0  0  0  0  0
  143.7673  142.3477  155.4545 H   0  0  0  0  0  0  0  0  0  0  0  0
  140.8702  139.7438  155.5300 H   0  0  0  0  0  0  0  0  0  0  0  0
  140.7357  140.9116  154.2458 H   0  0  0  0  0  0  0  0  0  0  0  0
  142.1584  138.9289  152.9718 H   0  0  0  0  0  0  0  0  0  0  0  0
  141.2964  137.9358  154.1180 H   0  0  0  0  0  0  0  0  0  0  0  0
  140.3434  139.5480  152.0566 H   0  0  0  0  0  0  0  0  0  0  0  0
  145.2837  141.3982  154.2617 H   0  0  0  0  0  0  0  0  0  0  0  0
  145.7168  139.7140  153.9985 H   0  0  0  0  0  0  0  0  0  0  0  0
  146.7649  140.7594  154.9387 H   0  0  0  0  0  0  0  0  0  0  0  0
  148.3619  136.9146  159.3241 H   0  0  0  0  0  0  0  0  0  0  0  0
  143.2083  140.5209  153.9759 H   0  0  0  0  0  0  0  0  0  0  0  0
  1  2  1  0  0  0  0
  1 31  1  0  0  0  0
  1 32  1  0  0  0  0
  1 33  1  0  0  0  0
  2  6  1  0  0  0  0
  2  3  1  0  0  0  0
  2 34  1  0  0  0  0
  3  4  1  0  0  0  0
  4  5  1  0  0  0  0
  4 35  1  0  0  0  0
  4 36  1  0  0  0  0
  5  6  1  0  0  0  0
  5 37  1  0  0  0  0
  5 38  1  0  0  0  0
  6  7  1  0  0  0  0
  6  8  1  0  0  0  0
  7 39  1  0  0  0  0
  8  9  1  0  0  0  0
  8 40  1  0  0  0  0
  8 41  1  0  0  0  0
  9 28  1  0  0  0  0
  9 10  1  0  0  0  0
 10 11  2  0  0  0  0
 10 42  1  0  0  0  0
 11 12  1  0  0  0  0
 12 28  2  0  0  0  0
 12 13  1  0  0  0  0
 13 14  1  0  0  0  0
 13 25  2  0  0  0  0
 14 23  1  0  0  0  0
 14 15  1  0  0  0  0
 15 16  1  0  0  0  0
 15 43  1  0  0  0  0
 15 44  1  0  0  0  0
 16 17  1  0  0  0  0
 16 45  1  0  0  0  0
 16 46  1  0  0  0  0
 17 29  1  0  0  0  0
 17 18  1  0  0  0  0
 17 23  1  0  0  0  0
 18 19  1  0  0  0  0
 18 20  1  0  0  0  0
 18 59  1  0  0  0  0
 19 47  1  0  0  0  0
 19 48  1  0  0  0  0
 19 49  1  0  0  0  0
 20 21  1  0  0  0  0
 20 50  1  0  0  0  0
 20 51  1  0  0  0  0
 21 22  1  0  0  0  0
 21 52  1  0  0  0  0
 21 53  1  0  0  0  0
 22 54  1  0  0  0  0
 23 30  1  0  0  0  0
 23 24  1  0  0  0  0
 24 55  1  0  0  0  0
 24 56  1  0  0  0  0
 24 57  1  0  0  0  0
 25 26  1  0  0  0  0
 26 27  2  0  0  0  0
 26 58  1  0  0  0  0
 27 28  1  0  0  0  0
M  CHG  1  18   1
M  END
> <s_m_source_file>
AV-unprocessed.smi

> <i_m_source_file_index>
290

> <i_lp_mmshare_version>
43012

> <i_f3d_flags>
0

> <s_epik_input>
W0NIMl0xW0NIMl1PW0NAQEhdKFtDSDNdKVtDQEBdMShbT0hdKVtDSDJdbihbY0hdbjIpYyhjMjMpbltjSF1uYzNONFtDSDJdW0NIMl1bQ0BIXShbQ0BIXTRbQ0gzXSlOKFtDSDNdKVtDSDJdW0NIMl1bT0hd

> <s_epik_cmdline>
J2VwaWtfcHl0aG9uJywgJy1waCcsICc3LjAnLCAnLXRuJywgJzgnLCAnLW1hJywgJzIwMCcsICctbWV0YWxfYmluZGluZycsICctaW1hZScsICc8aW5maWxlLm1hZT4nLCAnLW9tYWUnLCAnPG91dGZpbGUubWFlPic=

> <r_lp_tautomer_probability>
1

> <r_epik_Ionization_Penalty>
0.0036983

> <r_epik_Ionization_Penalty_Charging>
0.0032725

> <r_epik_Ionization_Penalty_Neutral>
0.000425798

> <r_epik_State_Penalty>
-0

> <r_epik_Charging_Adjusted_Penalty>
0.0032725

> <i_epik_Tot_Q>
1

> <i_epik_Tot_abs_Q>
1

> <r_epik_Metal_State_Penalty>
-0

> <b_epik_Metal_Only>
0

> <s_lp_Force_Field>
OPLS_2005

> <r_lp_Energy>
66.7181

> <b_lp_Chiralities_Consistent>
1

> <s_lp_Variant>
AV-unprocessed.smi:290-31

> <Gold.Version>
5.8.1

> <Gold.Id.Protein>
6NUR|6NUR_protein|mol2

> <Gold.PLP.Fitness>
42.4665

> <Gold.PLP.PLP>
-32.3401

> <Gold.PLP.part.hbond>
-3.0000

> <Gold.PLP.part.metal>
0.0000

> <Gold.PLP.part.buried>
-3.3914

> <Gold.PLP.part.nonpolar>
-26.3288

> <Gold.PLP.part.repulsive>
0.0664

> <Gold.PLP.ligand.clash>
0.0000

> <Gold.PLP.ligand.torsion>
1.0379

> <Gold.PLP.Chemscore.Hbond>
3.0000

> <Gold.PLP.Chemscore.CHOScore>
1.0000

> <Gold.PLP.Chemscore.Metal>
0.0000

> <Gold.Chemscore.Hbonds>
donor molecule, donor type, donor heavy atom, donor atom, acceptor molecule, acceptor atom, score
      L1  H    18    59       P1 10175  1.95
      L1  H    22    54       P1 10160  1.00
      L1  C    10    42       P1  8028  1.00

> <Gold.PLP.Chemscore.Internal.Correction>
0.2021

> <Gold.Rescore>
     Score         DG    S(hbond)    S(metal)    S(lipo)     H(rot)  DE(clash)    DE(int)     intcor
      9.87     -12.38       1.97        0.00      75.98       3.35       0.07       2.45       ----

> <Gold.Chemscore.Fitness>
9.8665

> <Gold.Chemscore.DG>
-12.3839

> <Gold.Chemscore.ZeroCoef>
-5.4800

> <Gold.Chemscore.Hbond>
1.9744

> <Gold.Chemscore.Metal>
0.0000

> <Gold.Chemscore.Lipo>
75.9811

> <Gold.Chemscore.Internal_Hbond>
0.0000

> <Gold.Chemscore.DEClash>
0.0664

> <Gold.Chemscore.DEInternal>
2.4510

> <Gold.Chemscore.Rot>
3.3518

> <Gold.Chemscore.Internal.Correction>
   9.000000E+99

> <Gold.Chemscore.Hbonds>
donor molecule, donor type, donor heavy atom, donor atom, acceptor molecule, acceptor atom, score
      L1  H    18    59       P1 10175  0.88
      L1  H    22    54       P1 10160  0.93

> <Gold.Chemscore.Hbond.Weighted>
-6.5946

> <Gold.Chemscore.Metal.Weighted>
-0.0000

> <Gold.Chemscore.Lipo.Weighted>
-8.8898

> <Gold.Chemscore.Internal_Hbond.Weighted>
0.0000

> <Gold.Chemscore.DEClash.Weighted>
0.0664

> <Gold.Chemscore.DEInternal.Weighted>
2.4510

> <Gold.Chemscore.Rot.Weighted>
8.5806

> <Gold.Chemscore.Internal.Correction.Weighted>
   9.000000E+99

> <Gold.Protein.RotatedTorsions>
[ 6907 6896 6895 6894 ] final  161.88 input  -60.11 | X-H torsion
[ 7974 7965 7964 7962 ] final  179.04 input  175.53 | X-H torsion
[ 8008 7997 7996 7995 ] final  -81.24 input   59.86 | X-H torsion
[ 10167 10162 10161 10158 ] final  -70.41 input  -65.29 | X-H torsion
[ 10718 10713 10712 10709 ] final   36.18 input   66.30 | X-H torsion
[ 10763 10752 10751 10750 ] final  -73.13 input  -60.55 | X-H torsion
[ 11005 11000 10999 10996 ] final -128.01 input  -57.11 | X-H torsion

> <Gold.Protein.ActiveResidues>
 VAL166  LYS551  ARG553  GLY616  TRP617  ASP618  TYR619  PRO620  LYS621  CYS622 
 ASP623  PHE694  ASN695  SER759  ASP760  ASP761  ALA762  ILE779  LEU786  VAL792 
 PHE793  MET794  SER795  GLU796  ALA797  LYS798  CYS799  TRP800  GLU811  SER814 

> <Gold.Protein.RotatedAtoms>
  151.9489  133.3660  159.3992 H   0  0  0  0  0  0  0  0  0  0  0  0  # atno 6907 bound_to 6896
  150.6984  134.4361  159.5280 H   0  0  0  0  0  0  0  0  0  0  0  0  # atno 6908 bound_to 6896
  152.2030  134.8570  160.0556 H   0  0  0  0  0  0  0  0  0  0  0  0  # atno 6909 bound_to 6896
  144.7149  140.0488  143.6436 H   0  0  0  0  0  0  0  0  0  0  0  0  # atno 7974 bound_to 7965
  154.5963  140.0651  156.9308 H   0  0  0  0  0  0  0  0  0  0  0  0  # atno 8008 bound_to 7997
  155.2208  140.3330  155.4297 H   0  0  0  0  0  0  0  0  0  0  0  0  # atno 8009 bound_to 7997
  156.2289  140.1832  156.7277 H   0  0  0  0  0  0  0  0  0  0  0  0  # atno 8010 bound_to 7997
  140.5355  143.2318  151.7185 H   0  0  0  0  0  0  0  0  0  0  0  0  # atno 10167 bound_to 10162
  157.3318  130.7501  149.6852 H   0  0  0  0  0  0  0  0  0  0  0  0  # atno 10718 bound_to 10713
  154.4552  135.5907  153.6218 H   0  0  0  0  0  0  0  0  0  0  0  0  # atno 10763 bound_to 10752
  152.9817  135.6030  154.3554 H   0  0  0  0  0  0  0  0  0  0  0  0  # atno 10764 bound_to 10752
  154.3420  135.2841  155.2396 H   0  0  0  0  0  0  0  0  0  0  0  0  # atno 10765 bound_to 10752
  140.9552  134.1011  157.4023 H   0  0  0  0  0  0  0  0  0  0  0  0  # atno 11005 bound_to 11000
  145.9962  139.3054  143.0955 LP  0  0  0  0  0  0  0  0  0  0  0  0  # atno 17320 bound_to 7965
  145.8846  140.9341  143.0583 LP  0  0  0  0  0  0  0  0  0  0  0  0  # atno 17321 bound_to 7965
  139.4969  144.4049  152.0142 LP  0  0  0  0  0  0  0  0  0  0  0  0  # atno 17342 bound_to 10162
  140.3154  144.3489  150.6023 LP  0  0  0  0  0  0  0  0  0  0  0  0  # atno 17343 bound_to 10162
  155.9696  130.4193  150.4369 LP  0  0  0  0  0  0  0  0  0  0  0  0  # atno 17370 bound_to 10713
  157.2402  131.0523  151.2441 LP  0  0  0  0  0  0  0  0  0  0  0  0  # atno 17371 bound_to 10713
  139.8860  135.0077  156.6470 LP  0  0  0  0  0  0  0  0  0  0  0  0  # atno 17394 bound_to 11000
  140.7546  133.8868  155.8372 LP  0  0  0  0  0  0  0  0  0  0  0  0  # atno 17395 bound_to 11000

$$$$
