AV-unprocessed.smi:1164|AV-procd|sdf|4926|dock1
  -GOLD-   22720 3503D 1   1.00000     0.00000
 Structure written by MMmdl.
 30 30  0  0  0  0  0  0  0  0  2 V2000
  150.9218  144.1449  158.9989 C   0  0  0  0  0  0  0  0  0  0  0  0
  152.2627  143.4642  158.6711 C   0  0  0  0  0  0  0  0  0  0  0  0
  153.3837  144.5246  158.7074 C   0  0  0  0  0  0  0  0  0  0  0  0
  152.5293  142.3548  159.7104 C   0  0  0  0  0  0  0  0  0  0  0  0
  152.1322  142.8917  157.3261 N   0  0  0  0  0  0  0  0  0  0  0  0
  151.5130  141.7570  156.9545 C   0  0  0  0  0  0  0  0  0  0  0  0
  150.9452  140.9995  157.7427 O   0  0  0  0  0  0  0  0  0  0  0  0
  151.5630  141.4462  155.4499 C   0  0  0  0  0  0  0  0  0  0  0  0
  151.5419  140.0114  155.1282 N   0  0  0  0  0  0  0  0  0  0  0  0
  152.5781  139.2391  155.8081 N   0  5  0  0  0  0  0  0  0  0  0  0
  152.6443  137.8965  155.6048 C   0  0  0  0  0  0  0  0  0  0  0  0
  153.4757  137.1791  156.1565 O   0  0  0  0  0  0  0  0  0  0  0  0
  151.6880  137.2947  154.6903 C   0  0  0  0  0  0  0  0  0  0  0  0
  150.7565  138.0359  154.0586 C   0  0  0  0  0  0  0  0  0  0  0  0
  150.6436  139.4764  154.2523 C   0  0  0  0  0  0  0  0  0  0  0  0
  149.8000  140.1608  153.6727 O   0  0  0  0  0  0  0  0  0  0  0  0
  150.9362  144.5931  159.9928 H   0  0  0  0  0  0  0  0  0  0  0  0
  150.0962  143.4324  158.9735 H   0  0  0  0  0  0  0  0  0  0  0  0
  150.6933  144.9381  158.2858 H   0  0  0  0  0  0  0  0  0  0  0  0
  153.2321  145.2883  157.9437 H   0  0  0  0  0  0  0  0  0  0  0  0
  154.3685  144.0868  158.5446 H   0  0  0  0  0  0  0  0  0  0  0  0
  153.4154  145.0291  159.6734 H   0  0  0  0  0  0  0  0  0  0  0  0
  152.5359  142.7588  160.7232 H   0  0  0  0  0  0  0  0  0  0  0  0
  153.4929  141.8696  159.5543 H   0  0  0  0  0  0  0  0  0  0  0  0
  151.7612  141.5814  159.6713 H   0  0  0  0  0  0  0  0  0  0  0  0
  152.5654  143.4243  156.5857 H   0  0  0  0  0  0  0  0  0  0  0  0
  150.7238  141.9421  154.9587 H   0  0  0  0  0  0  0  0  0  0  0  0
  152.4590  141.9132  155.0368 H   0  0  0  0  0  0  0  0  0  0  0  0
  151.7275  136.2303  154.5118 H   0  0  0  0  0  0  0  0  0  0  0  0
  150.0671  137.5473  153.3864 H   0  0  0  0  0  0  0  0  0  0  0  0
  1  2  1  0  0  0  0
  1 17  1  0  0  0  0
  1 18  1  0  0  0  0
  1 19  1  0  0  0  0
  2  3  1  0  0  0  0
  2  4  1  0  0  0  0
  2  5  1  0  0  0  0
  3 20  1  0  0  0  0
  3 21  1  0  0  0  0
  3 22  1  0  0  0  0
  4 23  1  0  0  0  0
  4 24  1  0  0  0  0
  4 25  1  0  0  0  0
  5  6  1  0  0  0  0
  5 26  1  0  0  0  0
  6  7  2  0  0  0  0
  6  8  1  0  0  0  0
  8 27  1  0  0  0  0
  8 28  1  0  0  0  0
  8  9  1  0  0  0  0
  9 10  1  0  0  0  0
  9 15  1  0  0  0  0
 10 11  1  0  0  0  0
 11 12  2  0  0  0  0
 11 13  1  0  0  0  0
 13 29  1  0  0  0  0
 13 14  2  0  0  0  0
 14 30  1  0  0  0  0
 14 15  1  0  0  0  0
 15 16  2  0  0  0  0
M  CHG  1  10  -1
M  END
> <s_m_source_file>
AV-unprocessed.smi

> <i_m_source_file_index>
1164

> <i_lp_mmshare_version>
43012

> <i_f3d_flags>
0

> <s_epik_input>
W0NIM11DKFtDSDNdKShbQ0gzXSlbTkhdQyg9TylbQ0gyXW4xW25IXWMoPU8pW2NIXVtjSF1jMT1P

> <s_epik_cmdline>
J2VwaWtfcHl0aG9uJywgJy1waCcsICc3LjAnLCAnLXRuJywgJzgnLCAnLW1hJywgJzIwMCcsICctbWV0YWxfYmluZGluZycsICctaW1hZScsICc8aW5maWxlLm1hZT4nLCAnLW9tYWUnLCAnPG91dGZpbGUubWFlPic=

> <r_lp_tautomer_probability>
1

> <r_epik_Ionization_Penalty>
0.098909

> <r_epik_Ionization_Penalty_Charging>
0.0989089

> <r_epik_Ionization_Penalty_Neutral>
2.46306e-08

> <r_epik_State_Penalty>
0.0348838

> <r_epik_Charging_Adjusted_Penalty>
0.133793

> <i_epik_Tot_Q>
-1

> <i_epik_Tot_abs_Q>
1

> <r_epik_Metal_State_Penalty>
0.0348839

> <b_epik_Metal_Only>
0

> <s_lp_Force_Field>
OPLS_2005

> <r_lp_Energy>
18.541

> <b_lp_Chiralities_Consistent>
1

> <s_lp_Variant>
AV-unprocessed.smi:1164-1

> <Gold.Version>
5.8.1

> <Gold.Id.Protein>
6NUR|6NUR_protein|mol2

> <Gold.PLP.Fitness>
36.2410

> <Gold.PLP.PLP>
-35.1505

> <Gold.PLP.part.hbond>
-3.2617

> <Gold.PLP.part.metal>
0.0000

> <Gold.PLP.part.buried>
-2.7465

> <Gold.PLP.part.nonpolar>
-29.8997

> <Gold.PLP.part.repulsive>
0.1195

> <Gold.PLP.ligand.clash>
0.0000

> <Gold.PLP.ligand.torsion>
0.7972

> <Gold.PLP.Chemscore.Hbond>
0.8921

> <Gold.PLP.Chemscore.CHOScore>
0.0000

> <Gold.PLP.Chemscore.Metal>
0.0000

> <Gold.Chemscore.Hbonds>
donor molecule, donor type, donor heavy atom, donor atom, acceptor molecule, acceptor atom, score
      P1  H  7997  8008       L1    10  1.98
      P1  H 10752 10764       L1    12  0.04

> <Gold.PLP.Chemscore.Internal.Correction>
0.0085

> <Gold.Rescore>
     Score         DG    S(hbond)    S(metal)    S(lipo)     H(rot)  DE(clash)    DE(int)     intcor
      9.24      -9.68       0.01        0.00      72.80       1.70       0.03       0.41       ----

> <Gold.Chemscore.Fitness>
9.2425

> <Gold.Chemscore.DG>
-9.6816

> <Gold.Chemscore.ZeroCoef>
-5.4800

> <Gold.Chemscore.Hbond>
0.0068

> <Gold.Chemscore.Metal>
0.0000

> <Gold.Chemscore.Lipo>
72.8045

> <Gold.Chemscore.Internal_Hbond>
0.0000

> <Gold.Chemscore.DEClash>
0.0281

> <Gold.Chemscore.DEInternal>
0.4110

> <Gold.Chemscore.Rot>
1.6950

> <Gold.Chemscore.Internal.Correction>
   9.000000E+99

> <Gold.Chemscore.Hbonds>
donor molecule, donor type, donor heavy atom, donor atom, acceptor molecule, acceptor atom, score
      P1  H  7997  8008       L1    10  0.79
      P1  H 10752 10764       L1    12  0.05

> <Gold.Chemscore.Hbond.Weighted>
-0.0227

> <Gold.Chemscore.Metal.Weighted>
-0.0000

> <Gold.Chemscore.Lipo.Weighted>
-8.5181

> <Gold.Chemscore.Internal_Hbond.Weighted>
0.0000

> <Gold.Chemscore.DEClash.Weighted>
0.0281

> <Gold.Chemscore.DEInternal.Weighted>
0.4110

> <Gold.Chemscore.Rot.Weighted>
4.3393

> <Gold.Chemscore.Internal.Correction.Weighted>
   9.000000E+99

> <Gold.Protein.RotatedTorsions>
[ 6907 6896 6895 6894 ] final   27.44 input  -60.11 | X-H torsion
[ 7974 7965 7964 7962 ] final  139.50 input  175.53 | X-H torsion
[ 8008 7997 7996 7995 ] final  -27.77 input   59.86 | X-H torsion
[ 10167 10162 10161 10158 ] final  100.98 input  -65.29 | X-H torsion
[ 10718 10713 10712 10709 ] final  142.67 input   66.30 | X-H torsion
[ 10763 10752 10751 10750 ] final   51.21 input  -60.55 | X-H torsion
[ 11005 11000 10999 10996 ] final    1.69 input  -57.11 | X-H torsion

> <Gold.Protein.ActiveResidues>
 VAL166  LYS551  ARG553  GLY616  TRP617  ASP618  TYR619  PRO620  LYS621  CYS622 
 ASP623  PHE694  ASN695  SER759  ASP760  ASP761  ALA762  ILE779  LEU786  VAL792 
 PHE793  MET794  SER795  GLU796  ALA797  LYS798  CYS799  TRP800  GLU811  SER814 

> <Gold.Protein.RotatedAtoms>
  152.0022  134.9922  160.0565 H   0  0  0  0  0  0  0  0  0  0  0  0  # atno 6907 bound_to 6896
  152.1508  133.4516  159.4821 H   0  0  0  0  0  0  0  0  0  0  0  0  # atno 6908 bound_to 6896
  150.6875  134.2109  159.4402 H   0  0  0  0  0  0  0  0  0  0  0  0  # atno 6909 bound_to 6896
  144.9273  139.5091  143.5634 H   0  0  0  0  0  0  0  0  0  0  0  0  # atno 7974 bound_to 7965
  154.4362  140.1863  156.0984 H   0  0  0  0  0  0  0  0  0  0  0  0  # atno 8008 bound_to 7997
  156.0311  140.3330  155.7115 H   0  0  0  0  0  0  0  0  0  0  0  0  # atno 8009 bound_to 7997
  155.5838  140.0624  157.2767 H   0  0  0  0  0  0  0  0  0  0  0  0  # atno 8010 bound_to 7997
  139.7479  144.6993  151.0477 H   0  0  0  0  0  0  0  0  0  0  0  0  # atno 10167 bound_to 10162
  157.3779  131.0988  151.0766 H   0  0  0  0  0  0  0  0  0  0  0  0  # atno 10718 bound_to 10713
  152.9785  135.5853  154.4379 H   0  0  0  0  0  0  0  0  0  0  0  0  # atno 10763 bound_to 10752
  154.3984  135.2768  155.2114 H   0  0  0  0  0  0  0  0  0  0  0  0  # atno 10764 bound_to 10752
  154.3955  135.6115  153.5922 H   0  0  0  0  0  0  0  0  0  0  0  0  # atno 10765 bound_to 10752
  140.6126  133.9734  155.8185 H   0  0  0  0  0  0  0  0  0  0  0  0  # atno 11005 bound_to 11000
  146.3232  139.8198  142.8929 LP  0  0  0  0  0  0  0  0  0  0  0  0  # atno 17320 bound_to 7965
  145.3198  141.0241  143.3507 LP  0  0  0  0  0  0  0  0  0  0  0  0  # atno 17321 bound_to 7965
  140.7794  143.4845  150.9974 LP  0  0  0  0  0  0  0  0  0  0  0  0  # atno 17342 bound_to 10162
  139.8533  143.7410  152.3177 LP  0  0  0  0  0  0  0  0  0  0  0  0  # atno 17343 bound_to 10162
  157.1846  130.6325  149.5683 LP  0  0  0  0  0  0  0  0  0  0  0  0  # atno 17370 bound_to 10713
  155.9769  130.4742  150.6560 LP  0  0  0  0  0  0  0  0  0  0  0  0  # atno 17371 bound_to 10713
  141.0797  134.0080  157.3404 LP  0  0  0  0  0  0  0  0  0  0  0  0  # atno 17394 bound_to 11000
  139.9186  135.0199  156.7977 LP  0  0  0  0  0  0  0  0  0  0  0  0  # atno 17395 bound_to 11000

$$$$
