AV-unprocessed.smi:40|AV-procd|sdf|371|dock6
  -GOLD-   2262016213D 1   1.00000     0.00000
 Structure written by MMmdl.
 47 48  0  0  0  0  0  0  0  0  1 V2000
  151.9417  145.3620  159.6990 C   0  0  0  0  0  0  0  0  0  0  0  0
  152.2340  144.0540  160.4426 C   0  0  0  0  0  0  0  0  0  0  0  0
  152.7944  142.9629  159.5188 C   0  0  0  0  0  0  0  0  0  0  0  0
  153.0869  141.6537  160.2635 C   0  0  0  0  0  0  0  0  0  0  0  0
  153.2340  140.4606  159.3071 C   0  0  0  0  0  0  0  0  0  0  0  0
  152.7160  140.7806  158.0231 O   0  0  0  0  0  0  0  0  0  0  0  0
  151.6425  140.1310  157.5249 C   0  0  0  0  0  0  0  0  0  0  0  0
  151.2240  139.0588  157.9609 O   0  0  0  0  0  0  0  0  0  0  0  0
  151.0236  140.8653  156.4328 N   0  0  0  0  0  0  0  0  0  0  0  0
  149.9392  140.5498  155.6822 C   0  0  0  0  0  0  0  0  0  0  0  0
  148.8488  141.2984  155.6412 N   0  0  0  0  0  0  0  0  0  0  0  0
  147.7503  141.0123  154.8772 C   0  0  0  0  0  0  0  0  0  0  0  0
  146.7483  141.7234  154.9352 O   0  0  0  0  0  0  0  0  0  0  0  0
  147.8119  139.8725  154.0385 N   0  0  0  0  0  0  0  0  0  0  0  0
  146.5881  139.5145  153.2095 C   0  0  2  0  0  0  0  0  0  0  0  0
  145.5919  138.9884  154.0432 O   0  0  0  0  0  0  0  0  0  0  0  0
  145.4819  137.5762  153.8868 C   0  0  2  0  0  0  0  0  0  0  0  0
  146.3974  136.8424  154.8871 C   0  0  0  0  0  0  0  0  0  0  0  0
  145.8280  137.3751  152.4100 C   0  0  2  0  0  0  0  0  0  0  0  0
  146.2988  136.0703  152.1329 O   0  0  0  0  0  0  0  0  0  0  0  0
  146.8961  138.4293  152.1473 C   0  0  1  0  0  0  0  0  0  0  0  0
  146.7525  138.9241  150.8309 O   0  0  0  0  0  0  0  0  0  0  0  0
  148.9351  139.0561  154.0943 C   0  0  0  0  0  0  0  0  0  0  0  0
  150.0014  139.3565  154.8668 C   0  0  0  0  0  0  0  0  0  0  0  0
  151.0851  138.5611  154.8795 F   0  0  0  0  0  0  0  0  0  0  0  0
  146.2518  140.4662  152.7938 H   0  0  0  0  0  0  0  0  0  0  0  0
  144.4509  137.2772  154.0792 H   0  0  0  0  0  0  0  0  0  0  0  0
  144.9376  137.5759  151.8112 H   0  0  0  0  0  0  0  0  0  0  0  0
  147.8945  138.0176  152.3050 H   0  0  0  0  0  0  0  0  0  0  0  0
  151.5459  146.1161  160.3797 H   0  0  0  0  0  0  0  0  0  0  0  0
  151.2073  145.2093  158.9078 H   0  0  0  0  0  0  0  0  0  0  0  0
  152.8467  145.7662  159.2445 H   0  0  0  0  0  0  0  0  0  0  0  0
  152.9422  144.2506  161.2483 H   0  0  0  0  0  0  0  0  0  0  0  0
  151.3182  143.6983  160.9163 H   0  0  0  0  0  0  0  0  0  0  0  0
  152.0847  142.7692  158.7135 H   0  0  0  0  0  0  0  0  0  0  0  0
  153.7086  143.3229  159.0452 H   0  0  0  0  0  0  0  0  0  0  0  0
  154.0019  141.7620  160.8469 H   0  0  0  0  0  0  0  0  0  0  0  0
  152.2861  141.4567  160.9770 H   0  0  0  0  0  0  0  0  0  0  0  0
  154.2745  140.1393  159.2409 H   0  0  0  0  0  0  0  0  0  0  0  0
  152.6713  139.6109  159.6945 H   0  0  0  0  0  0  0  0  0  0  0  0
  151.4928  141.7299  156.2047 H   0  0  0  0  0  0  0  0  0  0  0  0
  146.2765  135.7615  154.8116 H   0  0  0  0  0  0  0  0  0  0  0  0
  146.1535  137.1216  155.9122 H   0  0  0  0  0  0  0  0  0  0  0  0
  147.4505  137.0675  154.7186 H   0  0  0  0  0  0  0  0  0  0  0  0
  147.2242  136.1215  151.9467 H   0  0  0  0  0  0  0  0  0  0  0  0
  145.8469  138.8275  150.5756 H   0  0  0  0  0  0  0  0  0  0  0  0
  148.9930  138.1489  153.5130 H   0  0  0  0  0  0  0  0  0  0  0  0
  1  2  1  0  0  0  0
  1 30  1  0  0  0  0
  1 31  1  0  0  0  0
  1 32  1  0  0  0  0
  2  3  1  0  0  0  0
  2 33  1  0  0  0  0
  2 34  1  0  0  0  0
  3  4  1  0  0  0  0
  3 35  1  0  0  0  0
  3 36  1  0  0  0  0
  4  5  1  0  0  0  0
  4 37  1  0  0  0  0
  4 38  1  0  0  0  0
  5  6  1  0  0  0  0
  5 39  1  0  0  0  0
  5 40  1  0  0  0  0
  6  7  1  0  0  0  0
  7  8  2  0  0  0  0
  7  9  1  0  0  0  0
  9 10  1  0  0  0  0
  9 41  1  0  0  0  0
 10 24  1  0  0  0  0
 10 11  2  0  0  0  0
 11 12  1  0  0  0  0
 12 13  2  0  0  0  0
 12 14  1  0  0  0  0
 14 15  1  0  0  0  0
 14 23  1  0  0  0  0
 15 26  1  0  0  0  0
 15 21  1  0  0  0  0
 15 16  1  0  0  0  0
 16 17  1  0  0  0  0
 17 27  1  0  0  0  0
 17 18  1  0  0  0  0
 17 19  1  0  0  0  0
 18 42  1  0  0  0  0
 18 43  1  0  0  0  0
 18 44  1  0  0  0  0
 19 28  1  0  0  0  0
 19 20  1  0  0  0  0
 19 21  1  0  0  0  0
 20 45  1  0  0  0  0
 21 29  1  0  0  0  0
 21 22  1  0  0  0  0
 22 46  1  0  0  0  0
 23 24  2  0  0  0  0
 23 47  1  0  0  0  0
 24 25  1  0  0  0  0
M  END
> <s_m_source_file>
AV-unprocessed.smi

> <i_m_source_file_index>
40

> <i_lp_mmshare_version>
43012

> <i_f3d_flags>
0

> <s_epik_input>
W0NIM11bQ0gyXVtDSDJdW0NIMl1bQ0gyXU9DKD1PKVtOSF1jMW5jKD1PKW4oW2NIXWMxRilbQ0BASF0yT1tDQEhdKFtDSDNdKVtDQEBIXShbT0hdKVtDQEhdMltPSF0=

> <s_epik_cmdline>
J2VwaWtfcHl0aG9uJywgJy1waCcsICc3LjAnLCAnLXRuJywgJzgnLCAnLW1hJywgJzIwMCcsICctbWV0YWxfYmluZGluZycsICctaW1hZScsICc8aW5maWxlLm1hZT4nLCAnLW9tYWUnLCAnPG91dGZpbGUubWFlPic=

> <r_lp_tautomer_probability>
1

> <r_epik_Ionization_Penalty>
2.29506e-06

> <r_epik_Ionization_Penalty_Charging>
8.26867e-09

> <r_epik_Ionization_Penalty_Neutral>
2.2868e-06

> <r_epik_State_Penalty>
-0

> <r_epik_Charging_Adjusted_Penalty>
8.26867e-09

> <i_epik_Tot_Q>
0

> <i_epik_Tot_abs_Q>
0

> <r_epik_Metal_State_Penalty>
-0

> <b_epik_Metal_Only>
0

> <s_epik_Chemistry_Notes>
This compound has an ester and may undergo hydrolysis at high or low pH. This compound contains an acetal/aminal-like group ( X-CH(R)-Y where X, Y are N, S, or O) that may be acid/base labile, releasing an aldehyde.

> <s_lp_Force_Field>
OPLS_2005

> <r_lp_Energy>
32.726

> <b_lp_Chiralities_Consistent>
1

> <s_lp_Variant>
AV-unprocessed.smi:40-5

> <Gold.Version>
5.8.1

> <Gold.Id.Protein>
6NUR|6NUR_protein|mol2

> <Gold.PLP.Fitness>
47.4997

> <Gold.PLP.PLP>
-40.4631

> <Gold.PLP.part.hbond>
-4.9533

> <Gold.PLP.part.metal>
0.0000

> <Gold.PLP.part.buried>
-0.6384

> <Gold.PLP.part.nonpolar>
-36.7843

> <Gold.PLP.part.repulsive>
1.9870

> <Gold.PLP.ligand.clash>
0.0000

> <Gold.PLP.ligand.torsion>
1.9616

> <Gold.PLP.Chemscore.Hbond>
2.6128

> <Gold.PLP.Chemscore.CHOScore>
1.0000

> <Gold.PLP.Chemscore.Metal>
0.0000

> <Gold.Chemscore.Hbonds>
donor molecule, donor type, donor heavy atom, donor atom, acceptor molecule, acceptor atom, score
      L1  H    20    45       P1  7948  1.00
      L1  H    22    46       P1 10171  0.81
      P1  H  7954  7966       L1    22  0.78
      L1  C    23    47       P1  7948  1.00

> <Gold.PLP.Chemscore.Internal.Correction>
0.1215

> <Gold.Rescore>
     Score         DG    S(hbond)    S(metal)    S(lipo)     H(rot)  DE(clash)    DE(int)     intcor
     10.05     -13.51       2.39        0.00      81.37       3.70       1.13       2.33       ----

> <Gold.Chemscore.Fitness>
10.0462

> <Gold.Chemscore.DG>
-13.5091

> <Gold.Chemscore.ZeroCoef>
-5.4800

> <Gold.Chemscore.Hbond>
2.3860

> <Gold.Chemscore.Metal>
0.0000

> <Gold.Chemscore.Lipo>
81.3734

> <Gold.Chemscore.Internal_Hbond>
0.0000

> <Gold.Chemscore.DEClash>
1.1346

> <Gold.Chemscore.DEInternal>
2.3283

> <Gold.Chemscore.Rot>
3.6957

> <Gold.Chemscore.Internal.Correction>
   9.000000E+99

> <Gold.Chemscore.Hbonds>
donor molecule, donor type, donor heavy atom, donor atom, acceptor molecule, acceptor atom, score
      L1  H    20    45       P1  7948  1.00
      L1  H    22    46       P1 10171  0.79
      P1  H  7954  7966       L1    22  0.22

> <Gold.Chemscore.Hbond.Weighted>
-7.9693

> <Gold.Chemscore.Metal.Weighted>
-0.0000

> <Gold.Chemscore.Lipo.Weighted>
-9.5207

> <Gold.Chemscore.Internal_Hbond.Weighted>
0.0000

> <Gold.Chemscore.DEClash.Weighted>
1.1346

> <Gold.Chemscore.DEInternal.Weighted>
2.3283

> <Gold.Chemscore.Rot.Weighted>
9.4610

> <Gold.Chemscore.Internal.Correction.Weighted>
   9.000000E+99

> <Gold.Protein.RotatedTorsions>
[ 6907 6896 6895 6894 ] final   20.42 input  -60.11 | X-H torsion
[ 7974 7965 7964 7962 ] final  -99.51 input  175.53 | X-H torsion
[ 8008 7997 7996 7995 ] final   13.82 input   59.86 | X-H torsion
[ 10167 10162 10161 10158 ] final  -40.48 input  -65.29 | X-H torsion
[ 10718 10713 10712 10709 ] final  123.25 input   66.30 | X-H torsion
[ 10763 10752 10751 10750 ] final  105.99 input  -60.55 | X-H torsion
[ 11005 11000 10999 10996 ] final   -8.92 input  -57.11 | X-H torsion

> <Gold.Protein.ActiveResidues>
 VAL166  LYS551  ARG553  GLY616  TRP617  ASP618  TYR619  PRO620  LYS621  CYS622 
 ASP623  PHE694  ASN695  SER759  ASP760  ASP761  ALA762  ILE779  LEU786  VAL792 
 PHE793  MET794  SER795  GLU796  ALA797  LYS798  CYS799  TRP800  GLU811  SER814 

> <Gold.Protein.RotatedAtoms>
  151.8961  135.0397  160.0501 H   0  0  0  0  0  0  0  0  0  0  0  0  # atno 6907 bound_to 6896
  152.2396  133.5120  159.5271 H   0  0  0  0  0  0  0  0  0  0  0  0  # atno 6908 bound_to 6896
  150.7049  134.1023  159.4013 H   0  0  0  0  0  0  0  0  0  0  0  0  # atno 6909 bound_to 6896
  145.3066  140.9390  143.2793 H   0  0  0  0  0  0  0  0  0  0  0  0  # atno 7974 bound_to 7965
  154.8398  140.2913  155.5667 H   0  0  0  0  0  0  0  0  0  0  0  0  # atno 8008 bound_to 7997
  156.3011  140.2516  156.3270 H   0  0  0  0  0  0  0  0  0  0  0  0  # atno 8009 bound_to 7997
  154.9138  140.0388  157.1950 H   0  0  0  0  0  0  0  0  0  0  0  0  # atno 8010 bound_to 7997
  140.7033  143.3151  151.2931 H   0  0  0  0  0  0  0  0  0  0  0  0  # atno 10167 bound_to 10162
  157.5679  131.1085  150.8420 H   0  0  0  0  0  0  0  0  0  0  0  0  # atno 10718 bound_to 10713
  153.3869  135.3891  155.1896 H   0  0  0  0  0  0  0  0  0  0  0  0  # atno 10763 bound_to 10752
  154.8714  135.3739  154.4786 H   0  0  0  0  0  0  0  0  0  0  0  0  # atno 10764 bound_to 10752
  153.5269  135.7086  153.5764 H   0  0  0  0  0  0  0  0  0  0  0  0  # atno 10765 bound_to 10752
  140.7286  133.8768  155.8875 H   0  0  0  0  0  0  0  0  0  0  0  0  # atno 11005 bound_to 11000
  144.9049  139.4601  143.6614 LP  0  0  0  0  0  0  0  0  0  0  0  0  # atno 17320 bound_to 7965
  146.3133  139.7825  142.9003 LP  0  0  0  0  0  0  0  0  0  0  0  0  # atno 17321 bound_to 7965
  139.6586  144.0230  152.2677 LP  0  0  0  0  0  0  0  0  0  0  0  0  # atno 17342 bound_to 10162
  139.9790  144.6442  150.7918 LP  0  0  0  0  0  0  0  0  0  0  0  0  # atno 17343 bound_to 10162
  156.8900  130.5209  149.5286 LP  0  0  0  0  0  0  0  0  0  0  0  0  # atno 17370 bound_to 10713
  156.0726  130.5755  150.9413 LP  0  0  0  0  0  0  0  0  0  0  0  0  # atno 17371 bound_to 10713
  140.9941  134.1239  157.4380 LP  0  0  0  0  0  0  0  0  0  0  0  0  # atno 17394 bound_to 11000
  139.8831  135.0049  156.6279 LP  0  0  0  0  0  0  0  0  0  0  0  0  # atno 17395 bound_to 11000

$$$$
