AV-unprocessed.smi:149|AV-procd|sdf|1239|dock1
  -GOLD-   2262018453D 1   1.00000     0.00000
 Structure written by MMmdl.
 59 63  0  0  0  0  0  0  0  0  1 V2000
  153.8361  129.5322  154.2436 C   0  0  0  0  0  0  0  0  0  0  0  0
  152.9181  129.4112  155.4776 C   0  0  1  0  0  0  0  0  0  0  0  0
  152.1754  130.7342  155.7242 C   0  0  0  0  0  0  0  0  0  0  0  0
  150.8470  130.5638  155.1537 N   0  0  0  0  0  0  0  0  0  0  0  0
  150.1538  131.6202  154.6559 C   0  0  0  0  0  0  0  0  0  0  0  0
  150.6135  132.8769  154.8975 N   0  0  0  0  0  0  0  0  0  0  0  0
  149.9637  133.9418  154.4198 C   0  0  0  0  0  0  0  0  0  0  0  0
  148.8524  133.9787  153.6836 N   0  0  0  0  0  0  0  0  0  0  0  0
  148.3868  132.7227  153.4286 C   0  0  0  0  0  0  0  0  0  0  0  0
  148.9725  131.4994  153.8656 C   0  0  0  0  0  0  0  0  0  0  0  0
  148.2294  130.4282  153.3806 N   0  0  0  0  0  0  0  0  0  0  0  0
  147.2637  130.9846  152.7026 C   0  0  0  0  0  0  0  0  0  0  0  0
  147.2658  132.3606  152.7024 N   0  0  0  0  0  0  0  0  0  0  0  0
  146.3541  133.2221  152.0086 C   0  0  0  0  0  0  0  0  0  0  0  0
  144.8505  132.9364  151.9982 C   0  0  0  0  0  0  0  0  0  0  0  0
  144.7510  133.5509  150.5837 C   0  0  0  0  0  0  0  0  0  0  0  0
  143.8159  132.7924  149.6257 C   0  0  0  0  0  0  0  0  0  0  0  0
  143.8363  133.3398  148.3236 O   0  0  0  0  0  0  0  0  0  0  0  0
  144.3789  135.0490  150.5799 C   0  0  0  0  0  0  0  0  0  0  0  0
  144.6292  135.6606  149.3310 O   0  0  0  0  0  0  0  0  0  0  0  0
  146.2566  133.2137  150.4817 C   0  0  0  0  0  0  0  0  0  0  0  0
  150.7127  129.2295  154.5907 C   0  0  0  0  0  0  0  0  0  0  0  0
  151.7700  128.3888  155.3180 C   0  0  1  0  0  0  0  0  0  0  0  0
  152.1140  127.1095  154.6828 N   0  0  0  0  0  0  0  0  0  0  0  0
  150.9814  126.1845  154.6558 C   0  0  0  0  0  0  0  0  0  0  0  0
  151.3486  124.8395  154.0043 C   0  0  0  0  0  0  0  0  0  0  0  0
  152.4509  124.2587  154.6922 O   0  0  0  0  0  0  0  0  0  0  0  0
  153.5931  125.1076  154.7076 C   0  0  0  0  0  0  0  0  0  0  0  0
  153.2273  126.4491  155.3649 C   0  0  0  0  0  0  0  0  0  0  0  0
  153.2713  129.7850  153.3461 H   0  0  0  0  0  0  0  0  0  0  0  0
  154.3751  128.6066  154.0445 H   0  0  0  0  0  0  0  0  0  0  0  0
  154.5833  130.3122  154.3917 H   0  0  0  0  0  0  0  0  0  0  0  0
  153.5343  129.1649  156.3428 H   0  0  0  0  0  0  0  0  0  0  0  0
  152.0710  130.9190  156.7939 H   0  0  0  0  0  0  0  0  0  0  0  0
  152.7067  131.5802  155.2864 H   0  0  0  0  0  0  0  0  0  0  0  0
  150.3963  134.9014  154.6616 H   0  0  0  0  0  0  0  0  0  0  0  0
  146.5174  130.4004  152.1840 H   0  0  0  0  0  0  0  0  0  0  0  0
  146.5540  134.2300  152.3763 H   0  0  0  0  0  0  0  0  0  0  0  0
  144.6339  131.8665  152.0218 H   0  0  0  0  0  0  0  0  0  0  0  0
  144.2864  133.4622  152.7695 H   0  0  0  0  0  0  0  0  0  0  0  0
  144.1133  131.7468  149.5418 H   0  0  0  0  0  0  0  0  0  0  0  0
  142.7891  132.7892  149.9926 H   0  0  0  0  0  0  0  0  0  0  0  0
  144.7051  133.6675  148.1484 H   0  0  0  0  0  0  0  0  0  0  0  0
  143.3284  135.1931  150.8347 H   0  0  0  0  0  0  0  0  0  0  0  0
  144.9474  135.5978  151.3310 H   0  0  0  0  0  0  0  0  0  0  0  0
  144.3546  136.5633  149.3773 H   0  0  0  0  0  0  0  0  0  0  0  0
  146.8680  133.9689  149.9873 H   0  0  0  0  0  0  0  0  0  0  0  0
  146.4385  132.2254  150.0550 H   0  0  0  0  0  0  0  0  0  0  0  0
  149.7068  128.8405  154.7525 H   0  0  0  0  0  0  0  0  0  0  0  0
  150.9046  129.2561  153.5168 H   0  0  0  0  0  0  0  0  0  0  0  0
  151.3796  128.1837  156.3168 H   0  0  0  0  0  0  0  0  0  0  0  0
  150.6221  126.0087  155.6709 H   0  0  0  0  0  0  0  0  0  0  0  0
  150.1503  126.6201  154.1012 H   0  0  0  0  0  0  0  0  0  0  0  0
  150.5018  124.1543  154.0454 H   0  0  0  0  0  0  0  0  0  0  0  0
  151.5995  124.9769  152.9515 H   0  0  0  0  0  0  0  0  0  0  0  0
  154.3932  124.6185  155.2634 H   0  0  0  0  0  0  0  0  0  0  0  0
  153.9561  125.2617  153.6902 H   0  0  0  0  0  0  0  0  0  0  0  0
  154.1086  127.0893  155.3671 H   0  0  0  0  0  0  0  0  0  0  0  0
  152.9696  126.2766  156.4111 H   0  0  0  0  0  0  0  0  0  0  0  0
  1  2  1  0  0  0  0
  1 30  1  0  0  0  0
  1 31  1  0  0  0  0
  1 32  1  0  0  0  0
  2 23  1  0  0  0  0
  2  3  1  0  0  0  0
  2 33  1  0  0  0  0
  3  4  1  0  0  0  0
  3 34  1  0  0  0  0
  3 35  1  0  0  0  0
  4  5  1  0  0  0  0
  4 22  1  0  0  0  0
  5 10  1  0  0  0  0
  5  6  2  0  0  0  0
  6  7  1  0  0  0  0
  7  8  2  0  0  0  0
  7 36  1  0  0  0  0
  8  9  1  0  0  0  0
  9 13  1  0  0  0  0
  9 10  2  0  0  0  0
 10 11  1  0  0  0  0
 11 12  2  0  0  0  0
 12 13  1  0  0  0  0
 12 37  1  0  0  0  0
 13 14  1  0  0  0  0
 14 21  1  0  0  0  0
 14 15  1  0  0  0  0
 14 38  1  0  0  0  0
 15 16  1  0  0  0  0
 15 39  1  0  0  0  0
 15 40  1  0  0  0  0
 16 17  1  0  0  0  0
 16 19  1  0  0  0  0
 16 21  1  0  0  0  0
 17 18  1  0  0  0  0
 17 41  1  0  0  0  0
 17 42  1  0  0  0  0
 18 43  1  0  0  0  0
 19 20  1  0  0  0  0
 19 44  1  0  0  0  0
 19 45  1  0  0  0  0
 20 46  1  0  0  0  0
 21 47  1  0  0  0  0
 21 48  1  0  0  0  0
 22 23  1  0  0  0  0
 22 49  1  0  0  0  0
 22 50  1  0  0  0  0
 23 24  1  0  0  0  0
 23 51  1  0  0  0  0
 24 29  1  0  0  0  0
 24 25  1  0  0  0  0
 25 26  1  0  0  0  0
 25 52  1  0  0  0  0
 25 53  1  0  0  0  0
 26 27  1  0  0  0  0
 26 54  1  0  0  0  0
 26 55  1  0  0  0  0
 27 28  1  0  0  0  0
 28 29  1  0  0  0  0
 28 56  1  0  0  0  0
 28 57  1  0  0  0  0
 29 58  1  0  0  0  0
 29 59  1  0  0  0  0
M  END
> <s_m_source_file>
AV-unprocessed.smi

> <i_m_source_file_index>
149

> <i_lp_mmshare_version>
43012

> <i_f3d_flags>
0

> <s_epik_input>
W0NIMl0xW0NIMl1PW0NIMl1bQ0gyXU4xW0NAQEhdMltDSDJdTihbQ0gyXVtDQEhdMltDSDNdKWMobltjSF1uMyljKGMzNCluW2NIXW40W0NIXShbQ0gyXTUpW0NIMl1DNShbQ0gyXVtPSF0pW0NIMl1bT0hd

> <s_epik_cmdline>
J2VwaWtfcHl0aG9uJywgJy1waCcsICc3LjAnLCAnLXRuJywgJzgnLCAnLW1hJywgJzIwMCcsICctbWV0YWxfYmluZGluZycsICctaW1hZScsICc8aW5maWxlLm1hZT4nLCAnLW9tYWUnLCAnPG91dGZpbGUubWFlPic=

> <r_lp_tautomer_probability>
1

> <r_epik_Ionization_Penalty>
0.41918

> <r_epik_Ionization_Penalty_Charging>
0

> <r_epik_Ionization_Penalty_Neutral>
0.41918

> <r_epik_State_Penalty>
0.654916

> <r_epik_Charging_Adjusted_Penalty>
0.654916

> <i_epik_Tot_Q>
0

> <i_epik_Tot_abs_Q>
0

> <r_epik_Metal_State_Penalty>
0.653217

> <b_epik_Metal_Only>
0

> <s_lp_Force_Field>
OPLS_2005

> <r_lp_Energy>
77.678

> <b_lp_Chiralities_Consistent>
1

> <s_lp_Variant>
AV-unprocessed.smi:149-6

> <Gold.Version>
5.8.1

> <Gold.Id.Protein>
6NUR|6NUR_protein|mol2

> <Gold.PLP.Fitness>
51.5662

> <Gold.PLP.PLP>
-46.0587

> <Gold.PLP.part.hbond>
-3.3219

> <Gold.PLP.part.metal>
0.0000

> <Gold.PLP.part.buried>
-5.1952

> <Gold.PLP.part.nonpolar>
-38.9971

> <Gold.PLP.part.repulsive>
1.7592

> <Gold.PLP.ligand.clash>
0.0000

> <Gold.PLP.ligand.torsion>
0.6278

> <Gold.PLP.Chemscore.Hbond>
2.0000

> <Gold.PLP.Chemscore.CHOScore>
0.0000

> <Gold.PLP.Chemscore.Metal>
0.0000

> <Gold.Chemscore.Hbonds>
donor molecule, donor type, donor heavy atom, donor atom, acceptor molecule, acceptor atom, score
      L1  H    18    43       P1  7921  1.00
      L1  H    20    46       P1 10171  0.86

> <Gold.PLP.Chemscore.Internal.Correction>
0.7632

> <Gold.Rescore>
     Score         DG    S(hbond)    S(metal)    S(lipo)     H(rot)  DE(clash)    DE(int)     intcor
     11.49     -12.91       1.99        0.00      73.25       3.04       0.07       1.34       ----

> <Gold.Chemscore.Fitness>
11.4900

> <Gold.Chemscore.DG>
-12.9051

> <Gold.Chemscore.ZeroCoef>
-5.4800

> <Gold.Chemscore.Hbond>
1.9865

> <Gold.Chemscore.Metal>
0.0000

> <Gold.Chemscore.Lipo>
73.2476

> <Gold.Chemscore.Internal_Hbond>
0.0000

> <Gold.Chemscore.DEClash>
0.0750

> <Gold.Chemscore.DEInternal>
1.3401

> <Gold.Chemscore.Rot>
3.0390

> <Gold.Chemscore.Internal.Correction>
   9.000000E+99

> <Gold.Chemscore.Hbonds>
donor molecule, donor type, donor heavy atom, donor atom, acceptor molecule, acceptor atom, score
      L1  H    18    43       P1  7921  0.97
      L1  H    20    46       P1 10171  0.84

> <Gold.Chemscore.Hbond.Weighted>
-6.6349

> <Gold.Chemscore.Metal.Weighted>
-0.0000

> <Gold.Chemscore.Lipo.Weighted>
-8.5700

> <Gold.Chemscore.Internal_Hbond.Weighted>
0.0000

> <Gold.Chemscore.DEClash.Weighted>
0.0750

> <Gold.Chemscore.DEInternal.Weighted>
1.3401

> <Gold.Chemscore.Rot.Weighted>
7.7798

> <Gold.Chemscore.Internal.Correction.Weighted>
   9.000000E+99

> <Gold.Protein.RotatedTorsions>
[ 6907 6896 6895 6894 ] final  -26.07 input  -60.11 | X-H torsion
[ 7974 7965 7964 7962 ] final -120.59 input  175.53 | X-H torsion
[ 8008 7997 7996 7995 ] final   54.31 input   59.86 | X-H torsion
[ 10167 10162 10161 10158 ] final   35.97 input  -65.29 | X-H torsion
[ 10718 10713 10712 10709 ] final -130.28 input   66.30 | X-H torsion
[ 10763 10752 10751 10750 ] final  -50.57 input  -60.55 | X-H torsion
[ 11005 11000 10999 10996 ] final  -14.29 input  -57.11 | X-H torsion

> <Gold.Protein.ActiveResidues>
 VAL166  LYS551  ARG553  GLY616  TRP617  ASP618  TYR619  PRO620  LYS621  CYS622 
 ASP623  PHE694  ASN695  SER759  ASP760  ASP761  ALA762  ILE779  LEU786  VAL792 
 PHE793  MET794  SER795  GLU796  ALA797  LYS798  CYS799  TRP800  GLU811  SER814 

> <Gold.Protein.RotatedAtoms>
  151.1661  135.0296  159.8731 H   0  0  0  0  0  0  0  0  0  0  0  0  # atno 6907 bound_to 6896
  152.5450  134.1224  159.8414 H   0  0  0  0  0  0  0  0  0  0  0  0  # atno 6908 bound_to 6896
  151.1324  133.4981  159.2631 H   0  0  0  0  0  0  0  0  0  0  0  0  # atno 6909 bound_to 6896
  145.0497  140.8209  143.4216 H   0  0  0  0  0  0  0  0  0  0  0  0  # atno 7974 bound_to 7965
  155.4827  140.3469  155.4342 H   0  0  0  0  0  0  0  0  0  0  0  0  # atno 8008 bound_to 7997
  156.1029  140.1440  156.9472 H   0  0  0  0  0  0  0  0  0  0  0  0  # atno 8009 bound_to 7997
  154.4705  140.0902  156.7110 H   0  0  0  0  0  0  0  0  0  0  0  0  # atno 8010 bound_to 7997
  140.4172  144.1511  150.6144 H   0  0  0  0  0  0  0  0  0  0  0  0  # atno 10167 bound_to 10162
  156.2129  130.6929  151.0669 H   0  0  0  0  0  0  0  0  0  0  0  0  # atno 10718 bound_to 10713
  154.1125  135.6547  153.4888 H   0  0  0  0  0  0  0  0  0  0  0  0  # atno 10763 bound_to 10752
  153.0252  135.5251  154.7177 H   0  0  0  0  0  0  0  0  0  0  0  0  # atno 10764 bound_to 10752
  154.6361  135.2982  155.0128 H   0  0  0  0  0  0  0  0  0  0  0  0  # atno 10765 bound_to 10752
  140.7849  133.8333  155.9326 H   0  0  0  0  0  0  0  0  0  0  0  0  # atno 11005 bound_to 11000
  145.1543  139.2496  143.5425 LP  0  0  0  0  0  0  0  0  0  0  0  0  # atno 17320 bound_to 7965
  146.3517  140.1253  142.8599 LP  0  0  0  0  0  0  0  0  0  0  0  0  # atno 17321 bound_to 7965
  140.4574  143.2462  151.9267 LP  0  0  0  0  0  0  0  0  0  0  0  0  # atno 17342 bound_to 10162
  139.4782  144.5502  151.8397 LP  0  0  0  0  0  0  0  0  0  0  0  0  # atno 17343 bound_to 10162
  157.7048  131.0761  150.6704 LP  0  0  0  0  0  0  0  0  0  0  0  0  # atno 17370 bound_to 10713
  156.6764  130.4554  149.5641 LP  0  0  0  0  0  0  0  0  0  0  0  0  # atno 17371 bound_to 10713
  140.9446  134.1857  157.4773 LP  0  0  0  0  0  0  0  0  0  0  0  0  # atno 17394 bound_to 11000
  139.8738  134.9885  156.5417 LP  0  0  0  0  0  0  0  0  0  0  0  0  # atno 17395 bound_to 11000

$$$$
