AV-unprocessed.smi:1999|AV-procd|sdf|8096|dock10
  -GOLD-   2272010313D 1   1.00000     0.00000
 Structure written by MMmdl.
 37 38  0  0  0  0  0  0  0  0  2 V2000
  152.5081  143.5618  161.6416 C   0  0  0  0  0  0  0  0  0  0  0  0
  152.3739  142.6069  160.5054 C   0  0  0  0  0  0  0  0  0  0  0  0
  151.3552  142.6476  159.6433 N   0  0  0  0  0  0  0  0  0  0  0  0
  151.4527  141.6613  158.6724 N   0  0  0  0  0  0  0  0  0  0  0  0
  152.5464  140.8976  158.8062 C   0  0  0  0  0  0  0  0  0  0  0  0
  152.8255  139.8865  157.9672 N   0  5  0  0  0  0  0  0  0  0  0  0
  151.9803  139.5990  156.9511 C   0  0  0  0  0  0  0  0  0  0  0  0
  151.3716  140.4151  156.2551 O   0  0  0  0  0  0  0  0  0  0  0  0
  151.8316  138.2851  156.7278 N   0  0  0  0  0  0  0  0  0  0  0  0
  151.0031  137.6732  155.6900 C   0  0  2  0  0  0  0  0  0  0  0  0
  151.3943  138.2241  154.3101 C   0  0  0  0  0  0  0  0  0  0  0  0
  149.5113  137.9284  155.9890 C   0  0  0  0  0  0  0  0  0  0  0  0
  148.9257  137.1108  157.0535 N   0  0  0  0  0  0  0  0  0  0  0  0
  149.3117  137.5578  158.3900 C   0  0  0  0  0  0  0  0  0  0  0  0
  148.7050  136.6688  159.4894 C   0  0  0  0  0  0  0  0  0  0  0  0
  149.0851  135.3133  159.2753 O   0  0  0  0  0  0  0  0  0  0  0  0
  148.6806  134.8267  157.9999 C   0  0  0  0  0  0  0  0  0  0  0  0
  149.2912  135.7076  156.8963 C   0  0  0  0  0  0  0  0  0  0  0  0
  153.5470  141.3396  160.1895 S   0  0  0  0  0  0  0  0  0  0  0  0
  152.9864  144.4799  161.3005 H   0  0  0  0  0  0  0  0  0  0  0  0
  153.1150  143.1231  162.4338 H   0  0  0  0  0  0  0  0  0  0  0  0
  151.5272  143.8065  162.0499 H   0  0  0  0  0  0  0  0  0  0  0  0
  152.3537  137.6555  157.3193 H   0  0  0  0  0  0  0  0  0  0  0  0
  151.1770  136.5967  155.6745 H   0  0  0  0  0  0  0  0  0  0  0  0
  150.7898  137.7730  153.5229 H   0  0  0  0  0  0  0  0  0  0  0  0
  152.4392  138.0126  154.0817 H   0  0  0  0  0  0  0  0  0  0  0  0
  151.2549  139.3046  154.2599 H   0  0  0  0  0  0  0  0  0  0  0  0
  149.4028  138.9801  156.2584 H   0  0  0  0  0  0  0  0  0  0  0  0
  148.9347  137.7971  155.0721 H   0  0  0  0  0  0  0  0  0  0  0  0
  150.3987  137.5565  158.4818 H   0  0  0  0  0  0  0  0  0  0  0  0
  148.9833  138.5832  158.5561 H   0  0  0  0  0  0  0  0  0  0  0  0
  149.0563  136.9869  160.4709 H   0  0  0  0  0  0  0  0  0  0  0  0
  147.6170  136.7518  159.4956 H   0  0  0  0  0  0  0  0  0  0  0  0
  149.0147  133.7950  157.8898 H   0  0  0  0  0  0  0  0  0  0  0  0
  147.5918  134.8211  157.9320 H   0  0  0  0  0  0  0  0  0  0  0  0
  148.9587  135.3455  155.9229 H   0  0  0  0  0  0  0  0  0  0  0  0
  150.3772  135.6043  156.9130 H   0  0  0  0  0  0  0  0  0  0  0  0
  1  2  1  0  0  0  0
  1 20  1  0  0  0  0
  1 21  1  0  0  0  0
  1 22  1  0  0  0  0
  2 19  1  0  0  0  0
  2  3  2  0  0  0  0
  3  4  1  0  0  0  0
  4  5  2  0  0  0  0
  5  6  1  0  0  0  0
  5 19  1  0  0  0  0
  6  7  1  0  0  0  0
  7  8  2  0  0  0  0
  7  9  1  0  0  0  0
  9 10  1  0  0  0  0
  9 23  1  0  0  0  0
 10 11  1  0  0  0  0
 10 12  1  0  0  0  0
 10 24  1  0  0  0  0
 11 25  1  0  0  0  0
 11 26  1  0  0  0  0
 11 27  1  0  0  0  0
 12 13  1  0  0  0  0
 12 28  1  0  0  0  0
 12 29  1  0  0  0  0
 13 18  1  0  0  0  0
 13 14  1  0  0  0  0
 14 15  1  0  0  0  0
 14 30  1  0  0  0  0
 14 31  1  0  0  0  0
 15 16  1  0  0  0  0
 15 32  1  0  0  0  0
 15 33  1  0  0  0  0
 16 17  1  0  0  0  0
 17 18  1  0  0  0  0
 17 34  1  0  0  0  0
 17 35  1  0  0  0  0
 18 36  1  0  0  0  0
 18 37  1  0  0  0  0
M  CHG  1   6  -1
M  END
> <s_m_source_file>
AV-unprocessed.smi

> <i_m_source_file_index>
1999

> <i_lp_mmshare_version>
43012

> <i_f3d_flags>
0

> <s_epik_input>
W0NIM11jMW5uYyhzMSlbTkhdQyg9TylbTkhdW0NASF0oW0NIM10pW0NIMl1OMltDSDJdW0NIMl1PW0NIMl1bQ0gyXTI=

> <s_epik_cmdline>
J2VwaWtfcHl0aG9uJywgJy1waCcsICc3LjAnLCAnLXRuJywgJzgnLCAnLW1hJywgJzIwMCcsICctbWV0YWxfYmluZGluZycsICctaW1hZScsICc8aW5maWxlLm1hZT4nLCAnLW9tYWUnLCAnPG91dGZpbGUubWFlPic=

> <r_lp_tautomer_probability>
1

> <r_epik_Ionization_Penalty>
3.74165

> <r_epik_Ionization_Penalty_Charging>
3.28066

> <r_epik_Ionization_Penalty_Neutral>
0.460988

> <r_epik_State_Penalty>
3.48767

> <r_epik_Charging_Adjusted_Penalty>
6.76834

> <i_epik_Tot_Q>
-1

> <i_epik_Tot_abs_Q>
1

> <r_epik_Metal_State_Penalty>
0.700129

> <b_epik_Metal_Only>
1

> <s_lp_Force_Field>
OPLS_2005

> <r_lp_Energy>
23.1925

> <b_lp_Chiralities_Consistent>
1

> <s_lp_Variant>
AV-unprocessed.smi:1999-5

> <Gold.Version>
5.8.1

> <Gold.Id.Protein>
6NUR|6NUR_protein|mol2

> <Gold.PLP.Fitness>
35.1654

> <Gold.PLP.PLP>
-27.3052

> <Gold.PLP.part.hbond>
-2.2494

> <Gold.PLP.part.metal>
0.0000

> <Gold.PLP.part.buried>
-5.5415

> <Gold.PLP.part.nonpolar>
-19.5022

> <Gold.PLP.part.repulsive>
0.0783

> <Gold.PLP.ligand.clash>
0.0000

> <Gold.PLP.ligand.torsion>
0.5850

> <Gold.PLP.Chemscore.Hbond>
2.9920

> <Gold.PLP.Chemscore.CHOScore>
0.0000

> <Gold.PLP.Chemscore.Metal>
0.0000

> <Gold.Chemscore.Hbonds>
donor molecule, donor type, donor heavy atom, donor atom, acceptor molecule, acceptor atom, score
      P1  H  6896  6908       L1    16  0.86
      P1  H  7997  8010       L1     6  2.00

> <Gold.PLP.Chemscore.Internal.Correction>
0.0543

> <Gold.Rescore>
     Score         DG    S(hbond)    S(metal)    S(lipo)     H(rot)  DE(clash)    DE(int)     intcor
     11.90     -17.20       2.39        0.00      65.84       1.56       1.97       3.34       ----

> <Gold.Chemscore.Fitness>
11.8967

> <Gold.Chemscore.DG>
-17.1976

> <Gold.Chemscore.ZeroCoef>
-5.4800

> <Gold.Chemscore.Hbond>
2.3943

> <Gold.Chemscore.Metal>
0.0000

> <Gold.Chemscore.Lipo>
65.8375

> <Gold.Chemscore.Internal_Hbond>
0.0000

> <Gold.Chemscore.DEClash>
1.9655

> <Gold.Chemscore.DEInternal>
3.3354

> <Gold.Chemscore.Rot>
1.5556

> <Gold.Chemscore.Internal.Correction>
   9.000000E+99

> <Gold.Chemscore.Hbonds>
donor molecule, donor type, donor heavy atom, donor atom, acceptor molecule, acceptor atom, score
      P1  H  6896  6908       L1    16  0.16
      P1  H  7997  8010       L1     6  0.33

> <Gold.Chemscore.Hbond.Weighted>
-7.9969

> <Gold.Chemscore.Metal.Weighted>
-0.0000

> <Gold.Chemscore.Lipo.Weighted>
-7.7030

> <Gold.Chemscore.Internal_Hbond.Weighted>
0.0000

> <Gold.Chemscore.DEClash.Weighted>
1.9655

> <Gold.Chemscore.DEInternal.Weighted>
3.3354

> <Gold.Chemscore.Rot.Weighted>
3.9823

> <Gold.Chemscore.Internal.Correction.Weighted>
   9.000000E+99

> <Gold.Protein.RotatedTorsions>
[ 6907 6896 6895 6894 ] final  151.03 input  -60.11 | X-H torsion
[ 7974 7965 7964 7962 ] final  149.00 input  175.53 | X-H torsion
[ 8008 7997 7996 7995 ] final   33.55 input   59.86 | X-H torsion
[ 10167 10162 10161 10158 ] final -144.89 input  -65.29 | X-H torsion
[ 10718 10713 10712 10709 ] final   18.10 input   66.30 | X-H torsion
[ 10763 10752 10751 10750 ] final  -93.15 input  -60.55 | X-H torsion
[ 11005 11000 10999 10996 ] final   93.75 input  -57.11 | X-H torsion

> <Gold.Protein.ActiveResidues>
 VAL166  LYS551  ARG553  GLY616  TRP617  ASP618  TYR619  PRO620  LYS621  CYS622 
 ASP623  PHE694  ASN695  SER759  ASP760  ASP761  ALA762  ILE779  LEU786  VAL792 
 PHE793  MET794  SER795  GLU796  ALA797  LYS798  CYS799  TRP800  GLU811  SER814 

> <Gold.Protein.RotatedAtoms>
  152.1062  133.4276  159.4609 H   0  0  0  0  0  0  0  0  0  0  0  0  # atno 6907 bound_to 6896
  150.6865  134.2702  159.4594 H   0  0  0  0  0  0  0  0  0  0  0  0  # atno 6908 bound_to 6896
  152.0566  134.9620  160.0625 H   0  0  0  0  0  0  0  0  0  0  0  0  # atno 6909 bound_to 6896
  144.8471  139.6225  143.5990 H   0  0  0  0  0  0  0  0  0  0  0  0  # atno 7974 bound_to 7965
  155.1404  140.3265  155.4453 H   0  0  0  0  0  0  0  0  0  0  0  0  # atno 8008 bound_to 7997
  156.2606  140.1994  156.6470 H   0  0  0  0  0  0  0  0  0  0  0  0  # atno 8009 bound_to 7997
  154.6546  140.0554  156.9981 H   0  0  0  0  0  0  0  0  0  0  0  0  # atno 8010 bound_to 7997
  139.7856  143.8038  152.2644 H   0  0  0  0  0  0  0  0  0  0  0  0  # atno 10167 bound_to 10162
  157.0916  130.6430  149.5850 H   0  0  0  0  0  0  0  0  0  0  0  0  # atno 10718 bound_to 10713
  154.6931  135.5205  153.8420 H   0  0  0  0  0  0  0  0  0  0  0  0  # atno 10763 bound_to 10752
  153.0647  135.6580  154.0391 H   0  0  0  0  0  0  0  0  0  0  0  0  # atno 10764 bound_to 10752
  154.0262  135.2989  155.3354 H   0  0  0  0  0  0  0  0  0  0  0  0  # atno 10765 bound_to 10752
  139.8806  134.8807  156.3764 H   0  0  0  0  0  0  0  0  0  0  0  0  # atno 11005 bound_to 11000
  146.2753  139.6738  142.9267 LP  0  0  0  0  0  0  0  0  0  0  0  0  # atno 17320 bound_to 7965
  145.4575  141.0431  143.2770 LP  0  0  0  0  0  0  0  0  0  0  0  0  # atno 17321 bound_to 7965
  139.8114  144.7334  150.9692 LP  0  0  0  0  0  0  0  0  0  0  0  0  # atno 17342 bound_to 10162
  140.7819  143.4247  151.0787 LP  0  0  0  0  0  0  0  0  0  0  0  0  # atno 17343 bound_to 10162
  155.9896  130.4945  150.7223 LP  0  0  0  0  0  0  0  0  0  0  0  0  # atno 17370 bound_to 10713
  157.4716  131.0893  151.0636 LP  0  0  0  0  0  0  0  0  0  0  0  0  # atno 17371 bound_to 10713
  140.9429  133.7502  156.0170 LP  0  0  0  0  0  0  0  0  0  0  0  0  # atno 17394 bound_to 11000
  140.8198  134.3303  157.5385 LP  0  0  0  0  0  0  0  0  0  0  0  0  # atno 17395 bound_to 11000

$$$$
