AV-unprocessed.smi:21|AV-procd|sdf|130|dock7
  -GOLD-   2262015313D 1   1.00000     0.00000
 Structure written by MMmdl.
 62 65  0  0  0  0  0  0  0  0  2 V2000
  145.3338  132.6183  149.9664 C   0  0  0  0  0  0  0  0  0  0  0  0
  145.8666  132.1497  151.1944 O   0  0  0  0  0  0  0  0  0  0  0  0
  146.8783  132.9894  151.7296 C   0  0  2  0  0  0  0  0  0  0  0  0
  147.3909  132.4289  153.0506 C   0  0  0  0  0  0  0  0  0  0  0  0
  147.9642  133.6481  153.7961 C   0  0  1  0  0  0  0  0  0  0  0  0
  149.4997  133.7705  153.6862 C   0  0  0  0  0  0  0  0  0  0  0  0
  150.1550  134.0651  154.9606 N   0  0  0  0  0  0  0  0  0  0  0  0
  150.7177  132.9570  155.7316 C   0  0  0  0  0  0  0  0  0  0  0  0
  150.0738  135.3008  155.5372 C   0  0  0  0  0  0  0  0  0  0  0  0
  149.2764  135.4452  156.6305 N   0  0  0  0  0  0  0  0  0  0  0  0
  149.1493  136.6251  157.2414 C   0  0  0  0  0  0  0  0  0  0  0  0
  149.7257  137.7861  156.9345 N   0  0  0  0  0  0  0  0  0  0  0  0
  150.5336  137.6606  155.8447 C   0  0  0  0  0  0  0  0  0  0  0  0
  150.7648  136.4717  155.0908 C   0  0  0  0  0  0  0  0  0  0  0  0
  151.6574  136.7534  154.0601 N   0  0  0  0  0  0  0  0  0  0  0  0
  151.9365  138.0200  154.1986 C   0  0  0  0  0  0  0  0  0  0  0  0
  151.3085  138.6415  155.2509 N   0  0  0  0  0  0  0  0  0  0  0  0
  151.4407  140.0365  155.6367 C   0  0  0  0  0  0  0  0  0  0  0  0
  150.0808  140.7445  155.8658 C   0  0  2  0  0  0  0  0  0  0  0  0
  149.4919  141.2736  154.5323 C   0  0  0  0  0  0  0  0  0  0  0  0
  148.4165  142.1627  154.7483 O   0  0  0  0  0  0  0  0  0  0  0  0
  150.2348  141.8685  156.9279 C   0  0  1  0  0  0  0  0  0  0  0  0
  150.8334  141.4461  158.2591 C   0  0  0  0  0  0  0  0  0  0  0  0
  151.2656  142.7782  158.8596 C   0  0  0  0  0  0  0  0  0  0  0  0
  151.6514  143.5855  157.7545 O   0  0  0  0  0  0  0  0  0  0  0  0
  151.2082  142.9890  156.5397 C   0  0  0  0  0  0  0  0  0  0  0  0
  147.3249  134.8360  153.1748 N   0  3  2  0  0  0  0  0  0  0  0  0
  146.7472  135.7995  154.1362 C   0  0  0  0  0  0  0  0  0  0  0  0
  146.3684  134.3667  152.1505 C   0  0  0  0  0  0  0  0  0  0  0  0
  147.7149  133.0880  151.0349 H   0  0  0  0  0  0  0  0  0  0  0  0
  147.6762  133.5805  154.8465 H   0  0  0  0  0  0  0  0  0  0  0  0
  144.5869  131.9134  149.6018 H   0  0  0  0  0  0  0  0  0  0  0  0
  146.1109  132.7057  149.2063 H   0  0  0  0  0  0  0  0  0  0  0  0
  144.8480  133.5872  150.0841 H   0  0  0  0  0  0  0  0  0  0  0  0
  146.5535  132.0254  153.6218 H   0  0  0  0  0  0  0  0  0  0  0  0
  148.1015  131.6162  152.9081 H   0  0  0  0  0  0  0  0  0  0  0  0
  149.9011  132.8385  153.2872 H   0  0  0  0  0  0  0  0  0  0  0  0
  149.7792  134.5223  152.9502 H   0  0  0  0  0  0  0  0  0  0  0  0
  151.7216  133.2028  156.0798 H   0  0  0  0  0  0  0  0  0  0  0  0
  150.7912  132.0491  155.1328 H   0  0  0  0  0  0  0  0  0  0  0  0
  150.0963  132.7334  156.5994 H   0  0  0  0  0  0  0  0  0  0  0  0
  148.4950  136.6405  158.1006 H   0  0  0  0  0  0  0  0  0  0  0  0
  152.6161  138.5378  153.5372 H   0  0  0  0  0  0  0  0  0  0  0  0
  152.0477  140.0601  156.5413 H   0  0  0  0  0  0  0  0  0  0  0  0
  152.0132  140.5611  154.8708 H   0  0  0  0  0  0  0  0  0  0  0  0
  149.3932  139.9944  156.2604 H   0  0  0  0  0  0  0  0  0  0  0  0
  150.2615  141.7649  153.9364 H   0  0  0  0  0  0  0  0  0  0  0  0
  149.0911  140.4669  153.9208 H   0  0  0  0  0  0  0  0  0  0  0  0
  148.7657  143.0333  154.8651 H   0  0  0  0  0  0  0  0  0  0  0  0
  149.2578  142.3151  157.1212 H   0  0  0  0  0  0  0  0  0  0  0  0
  150.1295  140.9171  158.9020 H   0  0  0  0  0  0  0  0  0  0  0  0
  151.7033  140.8065  158.1016 H   0  0  0  0  0  0  0  0  0  0  0  0
  150.4257  143.2579  159.3637 H   0  0  0  0  0  0  0  0  0  0  0  0
  152.0773  142.6699  159.5792 H   0  0  0  0  0  0  0  0  0  0  0  0
  152.0792  142.5834  156.0231 H   0  0  0  0  0  0  0  0  0  0  0  0
  150.7482  143.7345  155.8906 H   0  0  0  0  0  0  0  0  0  0  0  0
  145.9572  135.3378  154.7302 H   0  0  0  0  0  0  0  0  0  0  0  0
  146.3251  136.6559  153.6099 H   0  0  0  0  0  0  0  0  0  0  0  0
  147.5159  136.1690  154.8150 H   0  0  0  0  0  0  0  0  0  0  0  0
  146.3001  135.0668  151.3174 H   0  0  0  0  0  0  0  0  0  0  0  0
  145.3746  134.2691  152.5919 H   0  0  0  0  0  0  0  0  0  0  0  0
  148.0595  135.3171  152.6756 H   0  0  0  0  0  0  0  0  0  0  0  0
  1  2  1  0  0  0  0
  1 32  1  0  0  0  0
  1 33  1  0  0  0  0
  1 34  1  0  0  0  0
  2  3  1  0  0  0  0
  3 30  1  0  0  0  0
  3 29  1  0  0  0  0
  3  4  1  0  0  0  0
  4  5  1  0  0  0  0
  4 35  1  0  0  0  0
  4 36  1  0  0  0  0
  5 31  1  0  0  0  0
  5  6  1  0  0  0  0
  5 27  1  0  0  0  0
  6  7  1  0  0  0  0
  6 37  1  0  0  0  0
  6 38  1  0  0  0  0
  7  8  1  0  0  0  0
  7  9  1  0  0  0  0
  8 39  1  0  0  0  0
  8 40  1  0  0  0  0
  8 41  1  0  0  0  0
  9 14  1  0  0  0  0
  9 10  2  0  0  0  0
 10 11  1  0  0  0  0
 11 12  2  0  0  0  0
 11 42  1  0  0  0  0
 12 13  1  0  0  0  0
 13 17  1  0  0  0  0
 13 14  2  0  0  0  0
 14 15  1  0  0  0  0
 15 16  2  0  0  0  0
 16 17  1  0  0  0  0
 16 43  1  0  0  0  0
 17 18  1  0  0  0  0
 18 19  1  0  0  0  0
 18 44  1  0  0  0  0
 18 45  1  0  0  0  0
 19 20  1  0  0  0  0
 19 22  1  0  0  0  0
 19 46  1  0  0  0  0
 20 21  1  0  0  0  0
 20 47  1  0  0  0  0
 20 48  1  0  0  0  0
 21 49  1  0  0  0  0
 22 26  1  0  0  0  0
 22 23  1  0  0  0  0
 22 50  1  0  0  0  0
 23 24  1  0  0  0  0
 23 51  1  0  0  0  0
 23 52  1  0  0  0  0
 24 25  1  0  0  0  0
 24 53  1  0  0  0  0
 24 54  1  0  0  0  0
 25 26  1  0  0  0  0
 26 55  1  0  0  0  0
 26 56  1  0  0  0  0
 27 28  1  0  0  0  0
 27 29  1  0  0  0  0
 27 62  1  0  0  0  0
 28 57  1  0  0  0  0
 28 58  1  0  0  0  0
 28 59  1  0  0  0  0
 29 60  1  0  0  0  0
 29 61  1  0  0  0  0
M  CHG  1  27   1
M  END
> <s_m_source_file>
AV-unprocessed.smi

> <i_m_source_file_index>
21

> <i_lp_mmshare_version>
43012

> <i_f3d_flags>
0

> <s_epik_input>
W0NIM11PW0NASF0xW0NIMl1bQ0BIXShOKFtDSDNdKVtDSDJdMSlbQ0gyXU4oW0NIM10pYyhuW2NIXW4yKWMoYzIzKW5bY0hdbjNbQ0gyXVtDQEhdKFtDSDJdW09IXSlbQ0BASF00W0NIMl1bQ0gyXU9bQ0gyXTQ=

> <s_epik_cmdline>
J2VwaWtfcHl0aG9uJywgJy1waCcsICc3LjAnLCAnLXRuJywgJzgnLCAnLW1hJywgJzIwMCcsICctbWV0YWxfYmluZGluZycsICctaW1hZScsICc8aW5maWxlLm1hZT4nLCAnLW9tYWUnLCAnPG91dGZpbGUubWFlPic=

> <r_lp_tautomer_probability>
1

> <r_epik_Ionization_Penalty>
0.0157465

> <r_epik_Ionization_Penalty_Charging>
0.015354

> <r_epik_Ionization_Penalty_Neutral>
0.000392529

> <r_epik_State_Penalty>
0.0120612

> <r_epik_Charging_Adjusted_Penalty>
0.0274152

> <i_epik_Tot_Q>
1

> <i_epik_Tot_abs_Q>
1

> <r_epik_Metal_State_Penalty>
0.0121253

> <b_epik_Metal_Only>
0

> <s_lp_Force_Field>
OPLS_2005

> <r_lp_Energy>
59.1571

> <b_lp_Chiralities_Consistent>
1

> <s_lp_Variant>
AV-unprocessed.smi:21-10

> <Gold.Version>
5.8.1

> <Gold.Id.Protein>
6NUR|6NUR_protein|mol2

> <Gold.PLP.Fitness>
50.6440

> <Gold.PLP.PLP>
-43.4555

> <Gold.PLP.part.hbond>
-3.0000

> <Gold.PLP.part.metal>
0.0000

> <Gold.PLP.part.buried>
-7.0193

> <Gold.PLP.part.nonpolar>
-37.0220

> <Gold.PLP.part.repulsive>
2.4627

> <Gold.PLP.ligand.clash>
0.0000

> <Gold.PLP.ligand.torsion>
2.7531

> <Gold.PLP.Chemscore.Hbond>
4.0000

> <Gold.PLP.Chemscore.CHOScore>
0.0000

> <Gold.PLP.Chemscore.Metal>
0.0000

> <Gold.Chemscore.Hbonds>
donor molecule, donor type, donor heavy atom, donor atom, acceptor molecule, acceptor atom, score
      L1  H    21    49       P1  8028  1.00
      L1  H    27    62       P1  7948  1.82
      P1  H 10752 10764       L1    15  1.00

> <Gold.PLP.Chemscore.Internal.Correction>
0.6947

> <Gold.Rescore>
     Score         DG    S(hbond)    S(metal)    S(lipo)     H(rot)  DE(clash)    DE(int)     intcor
     14.09     -17.89       2.80        0.00      93.51       3.08       0.92       2.88       ----

> <Gold.Chemscore.Fitness>
14.0869

> <Gold.Chemscore.DG>
-17.8887

> <Gold.Chemscore.ZeroCoef>
-5.4800

> <Gold.Chemscore.Hbond>
2.7972

> <Gold.Chemscore.Metal>
0.0000

> <Gold.Chemscore.Lipo>
93.5066

> <Gold.Chemscore.Internal_Hbond>
0.0000

> <Gold.Chemscore.DEClash>
0.9197

> <Gold.Chemscore.DEInternal>
2.8822

> <Gold.Chemscore.Rot>
3.0758

> <Gold.Chemscore.Internal.Correction>
   9.000000E+99

> <Gold.Chemscore.Hbonds>
donor molecule, donor type, donor heavy atom, donor atom, acceptor molecule, acceptor atom, score
      L1  H    21    49       P1  8028  0.98
      L1  H    27    62       P1  7948  0.86
      P1  H 10752 10764       L1    15  0.82

> <Gold.Chemscore.Hbond.Weighted>
-9.3426

> <Gold.Chemscore.Metal.Weighted>
-0.0000

> <Gold.Chemscore.Lipo.Weighted>
-10.9403

> <Gold.Chemscore.Internal_Hbond.Weighted>
0.0000

> <Gold.Chemscore.DEClash.Weighted>
0.9197

> <Gold.Chemscore.DEInternal.Weighted>
2.8822

> <Gold.Chemscore.Rot.Weighted>
7.8741

> <Gold.Chemscore.Internal.Correction.Weighted>
   9.000000E+99

> <Gold.Protein.RotatedTorsions>
[ 6907 6896 6895 6894 ] final  -70.24 input  -60.11 | X-H torsion
[ 7974 7965 7964 7962 ] final   53.92 input  175.53 | X-H torsion
[ 8008 7997 7996 7995 ] final   28.76 input   59.86 | X-H torsion
[ 10167 10162 10161 10158 ] final  -38.50 input  -65.29 | X-H torsion
[ 10718 10713 10712 10709 ] final -173.19 input   66.30 | X-H torsion
[ 10763 10752 10751 10750 ] final  -98.37 input  -60.55 | X-H torsion
[ 11005 11000 10999 10996 ] final   63.72 input  -57.11 | X-H torsion

> <Gold.Protein.ActiveResidues>
 VAL166  LYS551  ARG553  GLY616  TRP617  ASP618  TYR619  PRO620  LYS621  CYS622 
 ASP623  PHE694  ASN695  SER759  ASP760  ASP761  ALA762  ILE779  LEU786  VAL792 
 PHE793  MET794  SER795  GLU796  ALA797  LYS798  CYS799  TRP800  GLU811  SER814 

> <Gold.Protein.RotatedAtoms>
  150.7267  134.5481  159.5780 H   0  0  0  0  0  0  0  0  0  0  0  0  # atno 6907 bound_to 6896
  152.2975  134.7646  160.0374 H   0  0  0  0  0  0  0  0  0  0  0  0  # atno 6908 bound_to 6896
  151.8238  133.3363  159.3629 H   0  0  0  0  0  0  0  0  0  0  0  0  # atno 6909 bound_to 6896
  145.9662  139.4105  143.0218 H   0  0  0  0  0  0  0  0  0  0  0  0  # atno 7974 bound_to 7965
  155.0638  140.3193  155.4652 H   0  0  0  0  0  0  0  0  0  0  0  0  # atno 8008 bound_to 7997
  156.2807  140.2124  156.5710 H   0  0  0  0  0  0  0  0  0  0  0  0  # atno 8009 bound_to 7997
  154.7110  140.0498  157.0538 H   0  0  0  0  0  0  0  0  0  0  0  0  # atno 8010 bound_to 7997
  140.7090  143.3273  151.2650 H   0  0  0  0  0  0  0  0  0  0  0  0  # atno 10167 bound_to 10162
  156.7667  130.9433  151.3119 H   0  0  0  0  0  0  0  0  0  0  0  0  # atno 10718 bound_to 10713
  154.7408  135.5012  153.9120 H   0  0  0  0  0  0  0  0  0  0  0  0  # atno 10763 bound_to 10752
  153.1041  135.6693  153.9626 H   0  0  0  0  0  0  0  0  0  0  0  0  # atno 10764 bound_to 10752
  153.9403  135.3068  155.3422 H   0  0  0  0  0  0  0  0  0  0  0  0  # atno 10765 bound_to 10752
  140.0006  134.6449  155.9937 H   0  0  0  0  0  0  0  0  0  0  0  0  # atno 11005 bound_to 11000
  145.7970  140.9788  143.1018 LP  0  0  0  0  0  0  0  0  0  0  0  0  # atno 17320 bound_to 7965
  144.6826  139.9754  143.7483 LP  0  0  0  0  0  0  0  0  0  0  0  0  # atno 17321 bound_to 7965
  139.6745  143.9962  152.2773 LP  0  0  0  0  0  0  0  0  0  0  0  0  # atno 17342 bound_to 10162
  139.9571  144.6582  150.8115 LP  0  0  0  0  0  0  0  0  0  0  0  0  # atno 17343 bound_to 10162
  157.6710  130.9051  150.0040 LP  0  0  0  0  0  0  0  0  0  0  0  0  # atno 17370 bound_to 10713
  156.1304  130.3643  149.9740 LP  0  0  0  0  0  0  0  0  0  0  0  0  # atno 17371 bound_to 10713
  141.1638  133.6537  156.4411 LP  0  0  0  0  0  0  0  0  0  0  0  0  # atno 17394 bound_to 11000
  140.4736  134.6731  157.5140 LP  0  0  0  0  0  0  0  0  0  0  0  0  # atno 17395 bound_to 11000

$$$$
