AV-unprocessed.smi:3052|AV-procd|sdf|11635|dock4
  -GOLD-   2272017 23D 1   1.00000     0.00000
 Structure written by MMmdl.
 41 43  0  0  0  0  0  0  0  0  1 V2000
  149.0287  130.7452  153.5666 C   0  0  0  0  0  0  0  0  0  0  0  0
  149.5816  131.9154  154.3315 C   0  0  0  0  0  0  0  0  0  0  0  0
  150.4602  131.6951  155.2981 N   0  0  0  0  0  0  0  0  0  0  0  0
  150.7498  132.9428  155.8713 O   0  0  0  0  0  0  0  0  0  0  0  0
  150.0250  133.8998  155.2354 C   0  0  0  0  0  0  0  0  0  0  0  0
  150.1962  135.3025  155.7194 C   0  0  0  0  0  0  0  0  0  0  0  0
  149.2937  136.4083  155.2320 C   0  0  0  0  0  0  0  0  0  0  0  0
  150.7534  136.3920  154.8342 C   0  0  0  0  0  0  0  0  0  0  0  0
  149.3032  133.3106  154.2385 C   0  0  0  0  0  0  0  0  0  0  0  0
  148.4190  133.9940  153.3672 N   0  0  0  0  0  0  0  0  0  0  0  0
  147.2180  133.5712  152.9457 C   0  0  0  0  0  0  0  0  0  0  0  0
  146.7056  132.4976  153.2593 O   0  0  0  0  0  0  0  0  0  0  0  0
  146.6585  134.4642  152.1129 N   0  0  0  0  0  0  0  0  0  0  0  0
  145.3706  134.3799  151.4109 C   0  0  1  0  0  0  0  0  0  0  0  0
  144.2973  134.1987  152.5125 C   0  0  0  0  0  0  0  0  0  0  0  0
  145.0927  135.7061  150.6515 C   0  0  0  0  0  0  0  0  0  0  0  0
  145.0836  136.8332  151.5072 O   0  0  0  0  0  0  0  0  0  0  0  0
  145.3465  133.2313  150.3871 C   0  0  0  0  0  0  0  0  0  0  0  0
  144.0812  132.6521  149.7960 C   0  0  0  0  0  0  0  0  0  0  0  0
  144.9498  131.8097  150.7110 C   0  0  0  0  0  0  0  0  0  0  0  0
  147.9970  130.9232  153.2636 H   0  0  0  0  0  0  0  0  0  0  0  0
  149.0373  129.8354  154.1676 H   0  0  0  0  0  0  0  0  0  0  0  0
  149.6149  130.5522  152.6682 H   0  0  0  0  0  0  0  0  0  0  0  0
  150.4847  135.3192  156.7686 H   0  0  0  0  0  0  0  0  0  0  0  0
  148.5621  136.1634  154.4644 H   0  0  0  0  0  0  0  0  0  0  0  0
  148.9771  137.1548  155.9576 H   0  0  0  0  0  0  0  0  0  0  0  0
  151.4089  137.1272  155.2965 H   0  0  0  0  0  0  0  0  0  0  0  0
  150.9802  136.1516  153.7975 H   0  0  0  0  0  0  0  0  0  0  0  0
  148.7797  134.8338  152.9386 H   0  0  0  0  0  0  0  0  0  0  0  0
  147.1913  135.3016  151.9296 H   0  0  0  0  0  0  0  0  0  0  0  0
  143.2859  134.2150  152.1074 H   0  0  0  0  0  0  0  0  0  0  0  0
  144.3473  134.9989  153.2517 H   0  0  0  0  0  0  0  0  0  0  0  0
  144.4248  133.2679  153.0638 H   0  0  0  0  0  0  0  0  0  0  0  0
  145.8285  135.8768  149.8654 H   0  0  0  0  0  0  0  0  0  0  0  0
  144.1242  135.6549  150.1528 H   0  0  0  0  0  0  0  0  0  0  0  0
  144.7818  137.5809  151.0144 H   0  0  0  0  0  0  0  0  0  0  0  0
  146.1567  133.3112  149.6653 H   0  0  0  0  0  0  0  0  0  0  0  0
  143.1169  132.9714  150.1819 H   0  0  0  0  0  0  0  0  0  0  0  0
  144.0927  132.4107  148.7350 H   0  0  0  0  0  0  0  0  0  0  0  0
  145.5343  131.0145  150.2532 H   0  0  0  0  0  0  0  0  0  0  0  0
  144.5615  131.5803  151.6998 H   0  0  0  0  0  0  0  0  0  0  0  0
  1  2  1  0  0  0  0
  1 21  1  0  0  0  0
  1 22  1  0  0  0  0
  1 23  1  0  0  0  0
  2  9  1  0  0  0  0
  2  3  2  0  0  0  0
  3  4  1  0  0  0  0
  4  5  1  0  0  0  0
  5  6  1  0  0  0  0
  5  9  2  0  0  0  0
  6  8  1  0  0  0  0
  6  7  1  0  0  0  0
  6 24  1  0  0  0  0
  7  8  1  0  0  0  0
  7 25  1  0  0  0  0
  7 26  1  0  0  0  0
  8 27  1  0  0  0  0
  8 28  1  0  0  0  0
  9 10  1  0  0  0  0
 10 11  1  0  0  0  0
 10 29  1  0  0  0  0
 11 12  2  0  0  0  0
 11 13  1  0  0  0  0
 13 14  1  0  0  0  0
 13 30  1  0  0  0  0
 14 15  1  0  0  0  0
 14 16  1  0  0  0  0
 14 18  1  0  0  0  0
 15 31  1  0  0  0  0
 15 32  1  0  0  0  0
 15 33  1  0  0  0  0
 16 17  1  0  0  0  0
 16 34  1  0  0  0  0
 16 35  1  0  0  0  0
 17 36  1  0  0  0  0
 18 20  1  0  0  0  0
 18 19  1  0  0  0  0
 18 37  1  0  0  0  0
 19 20  1  0  0  0  0
 19 38  1  0  0  0  0
 19 39  1  0  0  0  0
 20 40  1  0  0  0  0
 20 41  1  0  0  0  0
M  END
> <s_m_source_file>
AV-unprocessed.smi

> <i_m_source_file_index>
3052

> <i_lp_mmshare_version>
43012

> <i_f3d_flags>
0

> <s_epik_input>
W0NIM11jMW5vYyhbQ0hdMltDSDJdW0NIMl0yKWMxW05IXUMoPU8pW05IXVtDQEBdKFtDSDNdKShbQ0gyXVtPSF0pW0NIXTNbQ0gyXVtDSDJdMw==

> <s_epik_cmdline>
J2VwaWtfcHl0aG9uJywgJy1waCcsICc3LjAnLCAnLXRuJywgJzgnLCAnLW1hJywgJzIwMCcsICctbWV0YWxfYmluZGluZycsICctaW1hZScsICc8aW5maWxlLm1hZT4nLCAnLW9tYWUnLCAnPG91dGZpbGUubWFlPic=

> <r_lp_tautomer_probability>
1

> <r_epik_Ionization_Penalty>
3.5887e-05

> <r_epik_Ionization_Penalty_Charging>
0

> <r_epik_Ionization_Penalty_Neutral>
3.5887e-05

> <r_epik_State_Penalty>
-0

> <r_epik_Charging_Adjusted_Penalty>
0

> <i_epik_Tot_Q>
0

> <i_epik_Tot_abs_Q>
0

> <r_epik_Metal_State_Penalty>
-0

> <b_epik_Metal_Only>
0

> <s_lp_Force_Field>
OPLS_2005

> <r_lp_Energy>
30.0106

> <b_lp_Chiralities_Consistent>
1

> <s_lp_Variant>
AV-unprocessed.smi:3052-1

> <Gold.Version>
5.8.1

> <Gold.Id.Protein>
6NUR|6NUR_protein|mol2

> <Gold.PLP.Fitness>
43.8200

> <Gold.PLP.PLP>
-35.1850

> <Gold.PLP.part.hbond>
-3.0000

> <Gold.PLP.part.metal>
0.0000

> <Gold.PLP.part.buried>
-6.0037

> <Gold.PLP.part.nonpolar>
-26.7335

> <Gold.PLP.part.repulsive>
0.1322

> <Gold.PLP.ligand.clash>
0.0000

> <Gold.PLP.ligand.torsion>
1.1497

> <Gold.PLP.Chemscore.Hbond>
2.9920

> <Gold.PLP.Chemscore.CHOScore>
0.0000

> <Gold.PLP.Chemscore.Metal>
0.0000

> <Gold.Chemscore.Hbonds>
donor molecule, donor type, donor heavy atom, donor atom, acceptor molecule, acceptor atom, score
      L1  H    10    29       P1  7948  0.90
      L1  H    13    30       P1  7948  0.98
      L1  H    17    36       P1 10171  1.00

> <Gold.PLP.Chemscore.Internal.Correction>
1.9585

> <Gold.Rescore>
     Score         DG    S(hbond)    S(metal)    S(lipo)     H(rot)  DE(clash)    DE(int)     intcor
     14.33     -16.86       2.48        0.00      73.77       2.16       0.01       2.53       ----

> <Gold.Chemscore.Fitness>
14.3258

> <Gold.Chemscore.DG>
-16.8571

> <Gold.Chemscore.ZeroCoef>
-5.4800

> <Gold.Chemscore.Hbond>
2.4754

> <Gold.Chemscore.Metal>
0.0000

> <Gold.Chemscore.Lipo>
73.7703

> <Gold.Chemscore.Internal_Hbond>
0.0000

> <Gold.Chemscore.DEClash>
0.0060

> <Gold.Chemscore.DEInternal>
2.5254

> <Gold.Chemscore.Rot>
2.1569

> <Gold.Chemscore.Internal.Correction>
   9.000000E+99

> <Gold.Chemscore.Hbonds>
donor molecule, donor type, donor heavy atom, donor atom, acceptor molecule, acceptor atom, score
      L1  H    10    29       P1  7948  0.18
      L1  H    13    30       P1  7948  0.92
      L1  H    17    36       P1 10171  1.00

> <Gold.Chemscore.Hbond.Weighted>
-8.2678

> <Gold.Chemscore.Metal.Weighted>
-0.0000

> <Gold.Chemscore.Lipo.Weighted>
-8.6311

> <Gold.Chemscore.Internal_Hbond.Weighted>
0.0000

> <Gold.Chemscore.DEClash.Weighted>
0.0060

> <Gold.Chemscore.DEInternal.Weighted>
2.5254

> <Gold.Chemscore.Rot.Weighted>
5.5218

> <Gold.Chemscore.Internal.Correction.Weighted>
   9.000000E+99

> <Gold.Protein.RotatedTorsions>
[ 6907 6896 6895 6894 ] final  176.89 input  -60.11 | X-H torsion
[ 7974 7965 7964 7962 ] final -154.61 input  175.53 | X-H torsion
[ 8008 7997 7996 7995 ] final -140.44 input   59.86 | X-H torsion
[ 10167 10162 10161 10158 ] final   83.51 input  -65.29 | X-H torsion
[ 10718 10713 10712 10709 ] final -107.23 input   66.30 | X-H torsion
[ 10763 10752 10751 10750 ] final  -56.01 input  -60.55 | X-H torsion
[ 11005 11000 10999 10996 ] final  -98.46 input  -57.11 | X-H torsion

> <Gold.Protein.ActiveResidues>
 VAL166  LYS551  ARG553  GLY616  TRP617  ASP618  TYR619  PRO620  LYS621  CYS622 
 ASP623  PHE694  ASN695  SER759  ASP760  ASP761  ALA762  ILE779  LEU786  VAL792 
 PHE793  MET794  SER795  GLU796  ALA797  LYS798  CYS799  TRP800  GLU811  SER814 

> <Gold.Protein.RotatedAtoms>
  151.7129  133.3312  159.3295 H   0  0  0  0  0  0  0  0  0  0  0  0  # atno 6907 bound_to 6896
  150.7686  134.6516  159.6301 H   0  0  0  0  0  0  0  0  0  0  0  0  # atno 6908 bound_to 6896
  152.3700  134.6750  160.0231 H   0  0  0  0  0  0  0  0  0  0  0  0  # atno 6909 bound_to 6896
  144.7680  140.4364  143.5927 H   0  0  0  0  0  0  0  0  0  0  0  0  # atno 7974 bound_to 7965
  155.4613  140.0546  157.2990 H   0  0  0  0  0  0  0  0  0  0  0  0  # atno 8008 bound_to 7997
  154.4736  140.2051  155.9888 H   0  0  0  0  0  0  0  0  0  0  0  0  # atno 8009 bound_to 7997
  156.1096  140.3206  155.8059 H   0  0  0  0  0  0  0  0  0  0  0  0  # atno 8010 bound_to 7997
  139.9176  144.6233  150.8473 H   0  0  0  0  0  0  0  0  0  0  0  0  # atno 10167 bound_to 10162
  156.0427  130.5652  150.7792 H   0  0  0  0  0  0  0  0  0  0  0  0  # atno 10718 bound_to 10713
  154.1998  135.6413  153.5084 H   0  0  0  0  0  0  0  0  0  0  0  0  # atno 10763 bound_to 10752
  153.0014  135.5448  154.6327 H   0  0  0  0  0  0  0  0  0  0  0  0  # atno 10764 bound_to 10752
  154.5737  135.2919  155.0775 H   0  0  0  0  0  0  0  0  0  0  0  0  # atno 10765 bound_to 10752
  141.1344  133.8247  157.0842 H   0  0  0  0  0  0  0  0  0  0  0  0  # atno 11005 bound_to 11000
  145.6409  139.1550  143.2916 LP  0  0  0  0  0  0  0  0  0  0  0  0  # atno 17320 bound_to 7965
  146.1805  140.6506  142.9191 LP  0  0  0  0  0  0  0  0  0  0  0  0  # atno 17321 bound_to 7965
  140.7670  143.3320  151.2390 LP  0  0  0  0  0  0  0  0  0  0  0  0  # atno 17342 bound_to 10162
  139.6889  143.9726  152.2849 LP  0  0  0  0  0  0  0  0  0  0  0  0  # atno 17343 bound_to 10162
  157.5264  131.0934  151.0012 LP  0  0  0  0  0  0  0  0  0  0  0  0  # atno 17370 bound_to 10713
  157.0329  130.5718  149.5345 LP  0  0  0  0  0  0  0  0  0  0  0  0  # atno 17371 bound_to 10713
  140.0432  134.9843  157.1001 LP  0  0  0  0  0  0  0  0  0  0  0  0  # atno 17394 bound_to 11000
  140.4103  134.1989  155.7163 LP  0  0  0  0  0  0  0  0  0  0  0  0  # atno 17395 bound_to 11000

$$$$
