AV-unprocessed.smi:2009|AV-procd|sdf|8146|dock7
  -GOLD-   2272010383D 1   1.00000     0.00000
 Structure written by MMmdl.
 38 39  0  0  0  0  0  0  0  0  1 V2000
  152.3756  140.0553  158.0506 C   0  0  0  0  0  0  0  0  0  0  0  0
  150.9285  140.5144  157.8155 C   0  0  1  0  0  0  0  0  0  0  0  0
  150.8243  141.9204  157.1808 C   0  0  0  0  0  0  0  0  0  0  0  0
  151.2980  142.9916  158.0426 N   0  0  0  0  0  0  0  0  0  0  0  0
  151.2629  144.3523  157.8188 C   0  0  0  0  0  0  0  0  0  0  0  0
  151.8267  144.9583  158.9048 C   0  0  0  0  0  0  0  0  0  0  0  0
  152.1854  143.8713  159.7499 C   0  0  0  0  0  0  0  0  0  0  0  0
  151.8713  142.6963  159.2301 N   0  0  0  0  0  0  0  0  0  0  0  0
  150.2386  139.5165  156.9940 N   0  0  0  0  0  0  0  0  0  0  0  0
  150.7588  139.2037  155.3793 S   0  0  0  0  0  0  0  0  0  0  0  0
  151.8972  140.0898  155.0914 O   0  0  0  0  0  0  0  0  0  0  0  0
  150.8648  137.7501  155.1825 O   0  0  0  0  0  0  0  0  0  0  0  0
  149.3668  139.7740  154.5208 N   0  0  0  0  0  0  0  0  0  0  0  0
  148.3182  138.7796  154.2194 C   0  0  0  0  0  0  0  0  0  0  0  0
  147.3421  139.2967  153.1491 C   0  0  0  0  0  0  0  0  0  0  0  0
  146.7407  140.6468  153.5502 C   0  0  0  0  0  0  0  0  0  0  0  0
  147.8712  141.6424  153.8247 C   0  0  0  0  0  0  0  0  0  0  0  0
  148.8385  141.1046  154.8919 C   0  0  0  0  0  0  0  0  0  0  0  0
  152.9202  140.7775  158.6592 H   0  0  0  0  0  0  0  0  0  0  0  0
  152.9184  139.9318  157.1129 H   0  0  0  0  0  0  0  0  0  0  0  0
  152.4020  139.0990  158.5740 H   0  0  0  0  0  0  0  0  0  0  0  0
  150.4327  140.5459  158.7864 H   0  0  0  0  0  0  0  0  0  0  0  0
  151.3679  141.9642  156.2368 H   0  0  0  0  0  0  0  0  0  0  0  0
  149.7829  142.1282  156.9320 H   0  0  0  0  0  0  0  0  0  0  0  0
  150.8421  144.7706  156.9163 H   0  0  0  0  0  0  0  0  0  0  0  0
  151.9639  146.0164  159.0698 H   0  0  0  0  0  0  0  0  0  0  0  0
  152.6637  143.9006  160.7178 H   0  0  0  0  0  0  0  0  0  0  0  0
  149.2233  139.5395  157.0853 H   0  0  0  0  0  0  0  0  0  0  0  0
  148.7777  137.8546  153.8713 H   0  0  0  0  0  0  0  0  0  0  0  0
  147.7834  138.5400  155.1394 H   0  0  0  0  0  0  0  0  0  0  0  0
  147.8656  139.3968  152.1975 H   0  0  0  0  0  0  0  0  0  0  0  0
  146.5470  138.5682  152.9891 H   0  0  0  0  0  0  0  0  0  0  0  0
  146.0907  141.0217  152.7594 H   0  0  0  0  0  0  0  0  0  0  0  0
  146.1220  140.5296  154.4406 H   0  0  0  0  0  0  0  0  0  0  0  0
  148.4191  141.8399  152.9023 H   0  0  0  0  0  0  0  0  0  0  0  0
  147.4560  142.5972  154.1477 H   0  0  0  0  0  0  0  0  0  0  0  0
  148.3343  141.0278  155.8561 H   0  0  0  0  0  0  0  0  0  0  0  0
  149.6570  141.8113  155.0242 H   0  0  0  0  0  0  0  0  0  0  0  0
  1  2  1  0  0  0  0
  1 19  1  0  0  0  0
  1 20  1  0  0  0  0
  1 21  1  0  0  0  0
  2  3  1  0  0  0  0
  2  9  1  0  0  0  0
  2 22  1  0  0  0  0
  3  4  1  0  0  0  0
  3 23  1  0  0  0  0
  3 24  1  0  0  0  0
  4  8  1  0  0  0  0
  4  5  1  0  0  0  0
  5  6  2  0  0  0  0
  5 25  1  0  0  0  0
  6  7  1  0  0  0  0
  6 26  1  0  0  0  0
  7  8  2  0  0  0  0
  7 27  1  0  0  0  0
  9 10  1  0  0  0  0
  9 28  1  0  0  0  0
 10 11  2  0  0  0  0
 10 12  2  0  0  0  0
 10 13  1  0  0  0  0
 13 18  1  0  0  0  0
 13 14  1  0  0  0  0
 14 15  1  0  0  0  0
 14 29  1  0  0  0  0
 14 30  1  0  0  0  0
 15 16  1  0  0  0  0
 15 31  1  0  0  0  0
 15 32  1  0  0  0  0
 16 17  1  0  0  0  0
 16 33  1  0  0  0  0
 16 34  1  0  0  0  0
 17 18  1  0  0  0  0
 17 35  1  0  0  0  0
 17 36  1  0  0  0  0
 18 37  1  0  0  0  0
 18 38  1  0  0  0  0
M  END
> <s_m_source_file>
AV-unprocessed.smi

> <i_m_source_file_index>
2009

> <i_lp_mmshare_version>
43012

> <i_f3d_flags>
0

> <s_epik_input>
bjFbY0hdW2NIXVtjSF1uMVtDSDJdW0NAQEhdKFtDSDNdKVtOSF1TKD1PKSg9TylOMltDSDJdW0NIMl1bQ0gyXVtDSDJdW0NIMl0y

> <s_epik_cmdline>
J2VwaWtfcHl0aG9uJywgJy1waCcsICc3LjAnLCAnLXRuJywgJzgnLCAnLW1hJywgJzIwMCcsICctbWV0YWxfYmluZGluZycsICctaW1hZScsICc8aW5maWxlLm1hZT4nLCAnLW9tYWUnLCAnPG91dGZpbGUubWFlPic=

> <r_lp_tautomer_probability>
1

> <r_epik_Ionization_Penalty>
0.0313937

> <r_epik_Ionization_Penalty_Charging>
0

> <r_epik_Ionization_Penalty_Neutral>
0.0313937

> <r_epik_State_Penalty>
0.0259441

> <r_epik_Charging_Adjusted_Penalty>
0.0259441

> <i_epik_Tot_Q>
0

> <i_epik_Tot_abs_Q>
0

> <r_epik_Metal_State_Penalty>
0.365037

> <b_epik_Metal_Only>
0

> <s_lp_Force_Field>
OPLS_2005

> <r_lp_Energy>
8.11637

> <b_lp_Chiralities_Consistent>
1

> <s_lp_Variant>
AV-unprocessed.smi:2009-2

> <Gold.Version>
5.8.1

> <Gold.Id.Protein>
6NUR|6NUR_protein|mol2

> <Gold.PLP.Fitness>
41.8091

> <Gold.PLP.PLP>
-37.0765

> <Gold.PLP.part.hbond>
-1.0000

> <Gold.PLP.part.metal>
0.0000

> <Gold.PLP.part.buried>
-4.1989

> <Gold.PLP.part.nonpolar>
-32.0252

> <Gold.PLP.part.repulsive>
0.2479

> <Gold.PLP.ligand.clash>
0.0000

> <Gold.PLP.ligand.torsion>
0.8488

> <Gold.PLP.Chemscore.Hbond>
0.8800

> <Gold.PLP.Chemscore.CHOScore>
1.0000

> <Gold.PLP.Chemscore.Metal>
0.0000

> <Gold.Chemscore.Hbonds>
donor molecule, donor type, donor heavy atom, donor atom, acceptor molecule, acceptor atom, score
      P1  H  7989  7998       L1    11  0.86
      L1  C     5    25       P1  8028  1.00

> <Gold.PLP.Chemscore.Internal.Correction>
0.7903

> <Gold.Rescore>
     Score         DG    S(hbond)    S(metal)    S(lipo)     H(rot)  DE(clash)    DE(int)     intcor
     12.30     -14.49       0.95        0.00      89.74       1.82       0.06       2.13       ----

> <Gold.Chemscore.Fitness>
12.3027

> <Gold.Chemscore.DG>
-14.4912

> <Gold.Chemscore.ZeroCoef>
-5.4800

> <Gold.Chemscore.Hbond>
0.9522

> <Gold.Chemscore.Metal>
0.0000

> <Gold.Chemscore.Lipo>
89.7387

> <Gold.Chemscore.Internal_Hbond>
0.0000

> <Gold.Chemscore.DEClash>
0.0601

> <Gold.Chemscore.DEInternal>
2.1285

> <Gold.Chemscore.Rot>
1.8237

> <Gold.Chemscore.Internal.Correction>
   9.000000E+99

> <Gold.Chemscore.Hbonds>
donor molecule, donor type, donor heavy atom, donor atom, acceptor molecule, acceptor atom, score
      P1  H  7989  7998       L1    11  0.63

> <Gold.Chemscore.Hbond.Weighted>
-3.1804

> <Gold.Chemscore.Metal.Weighted>
-0.0000

> <Gold.Chemscore.Lipo.Weighted>
-10.4994

> <Gold.Chemscore.Internal_Hbond.Weighted>
0.0000

> <Gold.Chemscore.DEClash.Weighted>
0.0601

> <Gold.Chemscore.DEInternal.Weighted>
2.1285

> <Gold.Chemscore.Rot.Weighted>
4.6686

> <Gold.Chemscore.Internal.Correction.Weighted>
   9.000000E+99

> <Gold.Protein.RotatedTorsions>
[ 6907 6896 6895 6894 ] final  146.21 input  -60.11 | X-H torsion
[ 7974 7965 7964 7962 ] final   98.98 input  175.53 | X-H torsion
[ 8008 7997 7996 7995 ] final   93.05 input   59.86 | X-H torsion
[ 10167 10162 10161 10158 ] final  132.32 input  -65.29 | X-H torsion
[ 10718 10713 10712 10709 ] final  -46.51 input   66.30 | X-H torsion
[ 10763 10752 10751 10750 ] final  165.93 input  -60.55 | X-H torsion
[ 11005 11000 10999 10996 ] final  151.36 input  -57.11 | X-H torsion

> <Gold.Protein.ActiveResidues>
 VAL166  LYS551  ARG553  GLY616  TRP617  ASP618  TYR619  PRO620  LYS621  CYS622 
 ASP623  PHE694  ASN695  SER759  ASP760  ASP761  ALA762  ILE779  LEU786  VAL792 
 PHE793  MET794  SER795  GLU796  ALA797  LYS798  CYS799  TRP800  GLU811  SER814 

> <Gold.Protein.RotatedAtoms>
  152.1709  133.4643  159.4908 H   0  0  0  0  0  0  0  0  0  0  0  0  # atno 6907 bound_to 6896
  150.6919  134.1954  159.4310 H   0  0  0  0  0  0  0  0  0  0  0  0  # atno 6908 bound_to 6896
  151.9861  135.0003  160.0610 H   0  0  0  0  0  0  0  0  0  0  0  0  # atno 6909 bound_to 6896
  145.4049  139.2342  143.3279 H   0  0  0  0  0  0  0  0  0  0  0  0  # atno 7974 bound_to 7965
  156.0423  140.3318  155.7258 H   0  0  0  0  0  0  0  0  0  0  0  0  # atno 8008 bound_to 7997
  155.5725  140.0629  157.2820 H   0  0  0  0  0  0  0  0  0  0  0  0  # atno 8009 bound_to 7997
  154.4398  140.1858  156.0882 H   0  0  0  0  0  0  0  0  0  0  0  0  # atno 8010 bound_to 7997
  139.5344  144.6667  151.4835 H   0  0  0  0  0  0  0  0  0  0  0  0  # atno 10167 bound_to 10162
  156.2176  130.4164  149.9034 H   0  0  0  0  0  0  0  0  0  0  0  0  # atno 10718 bound_to 10713
  154.3314  135.2754  155.2470 H   0  0  0  0  0  0  0  0  0  0  0  0  # atno 10763 bound_to 10752
  154.4780  135.5866  153.6372 H   0  0  0  0  0  0  0  0  0  0  0  0  # atno 10764 bound_to 10752
  152.9866  135.6104  154.3507 H   0  0  0  0  0  0  0  0  0  0  0  0  # atno 10765 bound_to 10752
  140.1212  134.8862  157.2075 H   0  0  0  0  0  0  0  0  0  0  0  0  # atno 11005 bound_to 11000
  146.2733  140.4752  142.8805 LP  0  0  0  0  0  0  0  0  0  0  0  0  # atno 17320 bound_to 7965
  144.8348  140.6765  143.6267 LP  0  0  0  0  0  0  0  0  0  0  0  0  # atno 17321 bound_to 7965
  140.6543  143.8632  150.6818 LP  0  0  0  0  0  0  0  0  0  0  0  0  # atno 17342 bound_to 10162
  140.2007  143.3962  152.1794 LP  0  0  0  0  0  0  0  0  0  0  0  0  # atno 17343 bound_to 10162
  156.6692  130.8813  151.3559 LP  0  0  0  0  0  0  0  0  0  0  0  0  # atno 17370 bound_to 10713
  157.7071  130.9397  150.0966 LP  0  0  0  0  0  0  0  0  0  0  0  0  # atno 17371 bound_to 10713
  140.2962  134.3183  155.7302 LP  0  0  0  0  0  0  0  0  0  0  0  0  # atno 17394 bound_to 11000
  141.2152  133.7564  156.9575 LP  0  0  0  0  0  0  0  0  0  0  0  0  # atno 17395 bound_to 11000

$$$$
