AV-unprocessed.smi:3|AV-procd|sdf|31|dock3
  -GOLD-   2262015143D 1   1.00000     0.00000
 Structure written by MMmdl.
 33 35  0  0  0  0  0  0  0  0  1 V2000
  153.5931  140.3055  159.9023 C   0  0  0  0  0  0  0  0  0  0  0  0
  152.7218  140.3547  158.7372 N   0  0  0  0  0  0  0  0  0  0  0  0
  152.3074  139.1006  158.1125 C   0  0  0  0  0  0  0  0  0  0  0  0
  152.4990  139.1255  156.5977 C   0  0  1  0  0  0  0  0  0  0  0  0
  153.1056  137.9085  155.8825 C   0  0  0  0  0  0  0  0  0  0  0  0
  152.1661  138.1769  154.7029 C   0  0  1  0  0  0  0  0  0  0  0  0
  151.5974  137.0565  154.0632 O   0  0  0  0  0  0  0  0  0  0  0  0
  151.2780  138.9489  155.6847 C   0  0  0  0  0  0  0  0  0  0  0  0
  151.9802  141.5204  158.4461 C   0  0  0  0  0  0  0  0  0  0  0  0
  151.1801  141.4853  157.3502 N   0  0  0  0  0  0  0  0  0  0  0  0
  150.4594  142.5953  157.0526 C   0  0  0  0  0  0  0  0  0  0  0  0
  150.4247  143.7706  157.7255 N   0  0  0  0  0  0  0  0  0  0  0  0
  151.2126  143.8282  158.8392 C   0  0  0  0  0  0  0  0  0  0  0  0
  151.3481  144.8451  159.6838 N   0  0  0  0  0  0  0  0  0  0  0  0
  152.2031  144.4336  160.6337 C   0  0  0  0  0  0  0  0  0  0  0  0
  152.6727  143.0799  160.4333 C   0  0  0  0  0  0  0  0  0  0  0  0
  152.0030  142.7155  159.2224 C   0  0  0  0  0  0  0  0  0  0  0  0
  153.0327  140.0248  156.2831 H   0  0  0  0  0  0  0  0  0  0  0  0
  152.6204  138.8384  153.9633 H   0  0  0  0  0  0  0  0  0  0  0  0
  154.0246  141.2832  160.1176 H   0  0  0  0  0  0  0  0  0  0  0  0
  154.4185  139.6160  159.7236 H   0  0  0  0  0  0  0  0  0  0  0  0
  153.0480  139.9538  160.7781 H   0  0  0  0  0  0  0  0  0  0  0  0
  152.8334  138.2532  158.5523 H   0  0  0  0  0  0  0  0  0  0  0  0
  151.2552  138.9372  158.3468 H   0  0  0  0  0  0  0  0  0  0  0  0
  154.1672  138.0066  155.6532 H   0  0  0  0  0  0  0  0  0  0  0  0
  152.8933  136.9657  156.3903 H   0  0  0  0  0  0  0  0  0  0  0  0
  151.5502  137.2587  153.1411 H   0  0  0  0  0  0  0  0  0  0  0  0
  150.4983  138.3285  156.1306 H   0  0  0  0  0  0  0  0  0  0  0  0
  150.8700  139.8814  155.2935 H   0  0  0  0  0  0  0  0  0  0  0  0
  149.8360  142.5336  156.1728 H   0  0  0  0  0  0  0  0  0  0  0  0
  152.4819  145.0806  161.4561 H   0  0  0  0  0  0  0  0  0  0  0  0
  153.3510  142.5098  161.0539 H   0  0  0  0  0  0  0  0  0  0  0  0
  149.8343  144.5184  157.3907 H   0  0  0  0  0  0  0  0  0  0  0  0
  1  2  1  0  0  0  0
  1 20  1  0  0  0  0
  1 21  1  0  0  0  0
  1 22  1  0  0  0  0
  2  3  1  0  0  0  0
  2  9  1  0  0  0  0
  3  4  1  0  0  0  0
  3 23  1  0  0  0  0
  3 24  1  0  0  0  0
  4 18  1  0  0  0  0
  4  8  1  0  0  0  0
  4  5  1  0  0  0  0
  5  6  1  0  0  0  0
  5 25  1  0  0  0  0
  5 26  1  0  0  0  0
  6 19  1  0  0  0  0
  6  7  1  0  0  0  0
  6  8  1  0  0  0  0
  7 27  1  0  0  0  0
  8 28  1  0  0  0  0
  8 29  1  0  0  0  0
  9 17  2  0  0  0  0
  9 10  1  0  0  0  0
 10 11  2  0  0  0  0
 11 12  1  0  0  0  0
 11 30  1  0  0  0  0
 12 13  1  0  0  0  0
 12 33  1  0  0  0  0
 13 17  1  0  0  0  0
 13 14  2  0  0  0  0
 14 15  1  0  0  0  0
 15 16  2  0  0  0  0
 15 31  1  0  0  0  0
 16 17  1  0  0  0  0
 16 32  1  0  0  0  0
M  END
> <s_m_source_file>
AV-unprocessed.smi

> <i_m_source_file_index>
3

> <i_lp_mmshare_version>
43012

> <i_f3d_flags>
0

> <s_epik_input>
W25IXTFbY0hdW2NIXWMoYzEyKWMobltjSF1uMilOKFtDSDNdKVtDSDJdW0NASF0zW0NIMl1bQ0BASF0oW09IXSlbQ0gyXTM=

> <s_epik_cmdline>
J2VwaWtfcHl0aG9uJywgJy1waCcsICc3LjAnLCAnLXRuJywgJzgnLCAnLW1hJywgJzIwMCcsICctbWV0YWxfYmluZGluZycsICctaW1hZScsICc8aW5maWxlLm1hZT4nLCAnLW9tYWUnLCAnPG91dGZpbGUubWFlPic=

> <r_lp_tautomer_probability>
1.75997e-05

> <r_epik_Ionization_Penalty>
5.52529

> <r_epik_Ionization_Penalty_Charging>
0

> <r_epik_Ionization_Penalty_Neutral>
5.52529

> <r_epik_State_Penalty>
8.99615

> <r_epik_Charging_Adjusted_Penalty>
8.99615

> <i_epik_Tot_Q>
0

> <i_epik_Tot_abs_Q>
0

> <r_epik_Metal_State_Penalty>
6.01519

> <b_epik_Metal_Only>
1

> <s_lp_Force_Field>
OPLS_2005

> <r_lp_Energy>
25.1021

> <b_lp_Chiralities_Consistent>
1

> <s_lp_Variant>
AV-unprocessed.smi:3-5

> <Gold.Version>
5.8.1

> <Gold.Id.Protein>
6NUR|6NUR_protein|mol2

> <Gold.PLP.Fitness>
39.6928

> <Gold.PLP.PLP>
-33.0648

> <Gold.PLP.part.hbond>
-3.0000

> <Gold.PLP.part.metal>
0.0000

> <Gold.PLP.part.buried>
-2.3703

> <Gold.PLP.part.nonpolar>
-28.0948

> <Gold.PLP.part.repulsive>
0.1503

> <Gold.PLP.ligand.clash>
0.9650

> <Gold.PLP.ligand.torsion>
0.8372

> <Gold.PLP.Chemscore.Hbond>
2.0601

> <Gold.PLP.Chemscore.CHOScore>
0.6033

> <Gold.PLP.Chemscore.Metal>
0.0000

> <Gold.Chemscore.Hbonds>
donor molecule, donor type, donor heavy atom, donor atom, acceptor molecule, acceptor atom, score
      L1  H     7    27       P1  7949  0.48
      L1  H    12    33       P1  8028  0.58
      P1  H 10752 10765       L1     7  1.00
      L1  C    11    30       P1  8028  0.60

> <Gold.PLP.Chemscore.Internal.Correction>
1.2771

> <Gold.Rescore>
     Score         DG    S(hbond)    S(metal)    S(lipo)     H(rot)  DE(clash)    DE(int)     intcor
     10.02     -13.90       1.31        0.00      74.90       1.84       0.65       3.23       ----

> <Gold.Chemscore.Fitness>
10.0205

> <Gold.Chemscore.DG>
-13.9017

> <Gold.Chemscore.ZeroCoef>
-5.4800

> <Gold.Chemscore.Hbond>
1.3079

> <Gold.Chemscore.Metal>
0.0000

> <Gold.Chemscore.Lipo>
74.8951

> <Gold.Chemscore.Internal_Hbond>
0.0000

> <Gold.Chemscore.DEClash>
0.6472

> <Gold.Chemscore.DEInternal>
3.2340

> <Gold.Chemscore.Rot>
1.8396

> <Gold.Chemscore.Internal.Correction>
   9.000000E+99

> <Gold.Chemscore.Hbonds>
donor molecule, donor type, donor heavy atom, donor atom, acceptor molecule, acceptor atom, score
      L1  H     7    27       P1  7949  0.43
      L1  H    12    33       P1  8028  0.11
      P1  H 10752 10765       L1     7  0.17

> <Gold.Chemscore.Hbond.Weighted>
-4.3685

> <Gold.Chemscore.Metal.Weighted>
-0.0000

> <Gold.Chemscore.Lipo.Weighted>
-8.7627

> <Gold.Chemscore.Internal_Hbond.Weighted>
0.0000

> <Gold.Chemscore.DEClash.Weighted>
0.6472

> <Gold.Chemscore.DEInternal.Weighted>
3.2340

> <Gold.Chemscore.Rot.Weighted>
4.7095

> <Gold.Chemscore.Internal.Correction.Weighted>
   9.000000E+99

> <Gold.Protein.RotatedTorsions>
[ 6907 6896 6895 6894 ] final   25.87 input  -60.11 | X-H torsion
[ 7974 7965 7964 7962 ] final   69.81 input  175.53 | X-H torsion
[ 8008 7997 7996 7995 ] final  -16.03 input   59.86 | X-H torsion
[ 10167 10162 10161 10158 ] final  130.03 input  -65.29 | X-H torsion
[ 10718 10713 10712 10709 ] final  131.14 input   66.30 | X-H torsion
[ 10763 10752 10751 10750 ] final  150.64 input  -60.55 | X-H torsion
[ 11005 11000 10999 10996 ] final   50.47 input  -57.11 | X-H torsion

> <Gold.Protein.ActiveResidues>
 VAL166  LYS551  ARG553  GLY616  TRP617  ASP618  TYR619  PRO620  LYS621  CYS622 
 ASP623  PHE694  ASN695  SER759  ASP760  ASP761  ALA762  ILE779  LEU786  VAL792 
 PHE793  MET794  SER795  GLU796  ALA797  LYS798  CYS799  TRP800  GLU811  SER814 

> <Gold.Protein.RotatedAtoms>
  151.9789  135.0038  160.0556 H   0  0  0  0  0  0  0  0  0  0  0  0  # atno 6907 bound_to 6896
  152.1714  133.4641  159.4919 H   0  0  0  0  0  0  0  0  0  0  0  0  # atno 6908 bound_to 6896
  150.6902  134.1866  159.4312 H   0  0  0  0  0  0  0  0  0  0  0  0  # atno 6909 bound_to 6896
  145.7858  139.2910  143.1239 H   0  0  0  0  0  0  0  0  0  0  0  0  # atno 7974 bound_to 7965
  154.5084  140.2180  155.9204 H   0  0  0  0  0  0  0  0  0  0  0  0  # atno 8008 bound_to 7997
  156.1522  140.3159  155.8634 H   0  0  0  0  0  0  0  0  0  0  0  0  # atno 8009 bound_to 7997
  155.3916  140.0478  157.3031 H   0  0  0  0  0  0  0  0  0  0  0  0  # atno 8010 bound_to 7997
  139.5449  144.6764  151.4504 H   0  0  0  0  0  0  0  0  0  0  0  0  # atno 10167 bound_to 10162
  157.4995  131.1093  150.9446 H   0  0  0  0  0  0  0  0  0  0  0  0  # atno 10718 bound_to 10713
  154.0908  135.2852  155.3272 H   0  0  0  0  0  0  0  0  0  0  0  0  # atno 10763 bound_to 10752
  154.6621  135.5331  153.8034 H   0  0  0  0  0  0  0  0  0  0  0  0  # atno 10764 bound_to 10752
  153.0414  135.6536  154.1077 H   0  0  0  0  0  0  0  0  0  0  0  0  # atno 10765 bound_to 10752
  140.1015  134.5075  155.8758 H   0  0  0  0  0  0  0  0  0  0  0  0  # atno 11005 bound_to 11000
  146.0027  140.8506  143.0010 LP  0  0  0  0  0  0  0  0  0  0  0  0  # atno 17320 bound_to 7965
  144.6789  140.2376  143.7347 LP  0  0  0  0  0  0  0  0  0  0  0  0  # atno 17321 bound_to 7965
  140.6694  143.8327  150.6981 LP  0  0  0  0  0  0  0  0  0  0  0  0  # atno 17342 bound_to 10162
  140.1747  143.4165  152.1976 LP  0  0  0  0  0  0  0  0  0  0  0  0  # atno 17343 bound_to 10162
  157.0121  130.5641  149.5322 LP  0  0  0  0  0  0  0  0  0  0  0  0  # atno 17370 bound_to 10713
  156.0221  130.5315  150.8304 LP  0  0  0  0  0  0  0  0  0  0  0  0  # atno 17371 bound_to 10713
  141.2107  133.6697  156.6527 LP  0  0  0  0  0  0  0  0  0  0  0  0  # atno 17394 bound_to 11000
  140.3214  134.8005  157.4255 LP  0  0  0  0  0  0  0  0  0  0  0  0  # atno 17395 bound_to 11000

$$$$
