AV-unprocessed.smi:1255|AV-procd|sdf|5281|dock4
  -GOLD-   22720 4403D 1   1.00000     0.00000
 Structure written by MMmdl.
 40 41  0  0  0  0  0  0  0  0  1 V2000
  146.7769  139.0531  151.2976 C   0  0  0  0  0  0  0  0  0  0  0  0
  146.6874  138.6989  152.7917 C   0  0  2  0  0  0  0  0  0  0  0  0
  145.2734  138.6545  153.1624 N   0  0  0  0  0  0  0  0  0  0  0  0
  144.7422  137.8233  154.0709 C   0  0  0  0  0  0  0  0  0  0  0  0
  143.4336  138.0196  154.2343 N   0  0  0  0  0  0  0  0  0  0  0  0
  145.3760  136.9730  154.6930 O   0  0  0  0  0  0  0  0  0  0  0  0
  147.4214  139.7928  153.5857 C   0  0  0  0  0  0  0  0  0  0  0  0
  147.0262  140.9584  153.5373 O   0  0  0  0  0  0  0  0  0  0  0  0
  148.4816  139.3753  154.3016 N   0  0  0  0  0  0  0  0  0  0  0  0
  149.3532  140.1386  155.1245 C   0  0  0  0  0  0  0  0  0  0  0  0
  150.7426  139.9062  155.2469 C   0  0  0  0  0  0  0  0  0  0  0  0
  151.4972  140.7211  156.1122 C   0  0  0  0  0  0  0  0  0  0  0  0
  150.8480  141.7434  156.8440 C   0  0  0  0  0  0  0  0  0  0  0  0
  151.5871  142.5723  157.7161 N   0  0  0  0  0  0  0  0  0  0  0  0
  151.5100  142.2329  159.1350 C   0  0  0  0  0  0  0  0  0  0  0  0
  152.5888  142.9925  159.9264 C   0  0  0  0  0  0  0  0  0  0  0  0
  152.4731  144.3908  159.6832 O   0  0  0  0  0  0  0  0  0  0  0  0
  152.6638  144.7067  158.3083 C   0  0  0  0  0  0  0  0  0  0  0  0
  151.5830  144.0123  157.4633 C   0  0  0  0  0  0  0  0  0  0  0  0
  149.5143  141.9577  156.7299 N   0  0  0  0  0  0  0  0  0  0  0  0
  148.7944  141.1735  155.9005 C   0  0  0  0  0  0  0  0  0  0  0  0
  147.8140  139.0963  150.9621 H   0  0  0  0  0  0  0  0  0  0  0  0
  146.3158  140.0176  151.0790 H   0  0  0  0  0  0  0  0  0  0  0  0
  146.2717  138.3021  150.6892 H   0  0  0  0  0  0  0  0  0  0  0  0
  147.1499  137.7251  152.9657 H   0  0  0  0  0  0  0  0  0  0  0  0
  144.6651  139.3220  152.7116 H   0  0  0  0  0  0  0  0  0  0  0  0
  142.9115  137.4536  154.8869 H   0  0  0  0  0  0  0  0  0  0  0  0
  142.9676  138.7354  153.6954 H   0  0  0  0  0  0  0  0  0  0  0  0
  148.6413  138.3783  154.3100 H   0  0  0  0  0  0  0  0  0  0  0  0
  151.2429  139.1174  154.7072 H   0  0  0  0  0  0  0  0  0  0  0  0
  152.5614  140.5590  156.1945 H   0  0  0  0  0  0  0  0  0  0  0  0
  150.5193  142.4990  159.5061 H   0  0  0  0  0  0  0  0  0  0  0  0
  151.6342  141.1642  159.3035 H   0  0  0  0  0  0  0  0  0  0  0  0
  152.4700  142.8076  160.9940 H   0  0  0  0  0  0  0  0  0  0  0  0
  153.5869  142.6462  159.6529 H   0  0  0  0  0  0  0  0  0  0  0  0
  152.6035  145.7875  158.1796 H   0  0  0  0  0  0  0  0  0  0  0  0
  153.6621  144.4030  157.9887 H   0  0  0  0  0  0  0  0  0  0  0  0
  151.7681  144.2115  156.4069 H   0  0  0  0  0  0  0  0  0  0  0  0
  150.6004  144.4193  157.7061 H   0  0  0  0  0  0  0  0  0  0  0  0
  147.7360  141.3848  155.8528 H   0  0  0  0  0  0  0  0  0  0  0  0
  1  2  1  0  0  0  0
  1 22  1  0  0  0  0
  1 23  1  0  0  0  0
  1 24  1  0  0  0  0
  2  3  1  0  0  0  0
  2  7  1  0  0  0  0
  2 25  1  0  0  0  0
  3  4  1  0  0  0  0
  3 26  1  0  0  0  0
  4  5  1  0  0  0  0
  4  6  2  0  0  0  0
  5 27  1  0  0  0  0
  5 28  1  0  0  0  0
  7  8  2  0  0  0  0
  7  9  1  0  0  0  0
  9 10  1  0  0  0  0
  9 29  1  0  0  0  0
 10 21  1  0  0  0  0
 10 11  2  0  0  0  0
 11 12  1  0  0  0  0
 11 30  1  0  0  0  0
 12 13  2  0  0  0  0
 12 31  1  0  0  0  0
 13 14  1  0  0  0  0
 13 20  1  0  0  0  0
 14 19  1  0  0  0  0
 14 15  1  0  0  0  0
 15 16  1  0  0  0  0
 15 32  1  0  0  0  0
 15 33  1  0  0  0  0
 16 17  1  0  0  0  0
 16 34  1  0  0  0  0
 16 35  1  0  0  0  0
 17 18  1  0  0  0  0
 18 19  1  0  0  0  0
 18 36  1  0  0  0  0
 18 37  1  0  0  0  0
 19 38  1  0  0  0  0
 19 39  1  0  0  0  0
 20 21  2  0  0  0  0
 21 40  1  0  0  0  0
M  END
> <s_m_source_file>
AV-unprocessed.smi

> <i_m_source_file_index>
1255

> <i_lp_mmshare_version>
43012

> <i_f3d_flags>
0

> <s_epik_input>
W05IMl1DKD1PKVtOSF1bQ0BASF0oW0NIM10pQyg9TylbTkhdYzFbY0hdW2NIXWMobltjSF0xKU4yW0NIMl1bQ0gyXU9bQ0gyXVtDSDJdMg==

> <s_epik_cmdline>
J2VwaWtfcHl0aG9uJywgJy1waCcsICc3LjAnLCAnLXRuJywgJzgnLCAnLW1hJywgJzIwMCcsICctbWV0YWxfYmluZGluZycsICctaW1hZScsICc8aW5maWxlLm1hZT4nLCAnLW9tYWUnLCAnPG91dGZpbGUubWFlPic=

> <r_lp_tautomer_probability>
1

> <r_epik_Ionization_Penalty>
0.00069351

> <r_epik_Ionization_Penalty_Charging>
0

> <r_epik_Ionization_Penalty_Neutral>
0.00069351

> <r_epik_State_Penalty>
0.000408291

> <r_epik_Charging_Adjusted_Penalty>
0.000408291

> <i_epik_Tot_Q>
0

> <i_epik_Tot_abs_Q>
0

> <r_epik_Metal_State_Penalty>
-0

> <b_epik_Metal_Only>
0

> <s_lp_Force_Field>
OPLS_2005

> <r_lp_Energy>
17.9712

> <b_lp_Chiralities_Consistent>
1

> <s_lp_Variant>
AV-unprocessed.smi:1255-1

> <Gold.Version>
5.8.1

> <Gold.Id.Protein>
6NUR|6NUR_protein|mol2

> <Gold.PLP.Fitness>
39.5372

> <Gold.PLP.PLP>
-36.4071

> <Gold.PLP.part.hbond>
-1.8486

> <Gold.PLP.part.metal>
0.0000

> <Gold.PLP.part.buried>
-0.2654

> <Gold.PLP.part.nonpolar>
-33.9361

> <Gold.PLP.part.repulsive>
1.2384

> <Gold.PLP.ligand.clash>
0.0000

> <Gold.PLP.ligand.torsion>
0.9178

> <Gold.PLP.Chemscore.Hbond>
1.5321

> <Gold.PLP.Chemscore.CHOScore>
0.0000

> <Gold.PLP.Chemscore.Metal>
0.0000

> <Gold.Chemscore.Hbonds>
donor molecule, donor type, donor heavy atom, donor atom, acceptor molecule, acceptor atom, score
      L1  H     3    26       P1 10175  0.99
      L1  H     5    28       P1 10175  0.42

> <Gold.PLP.Chemscore.Internal.Correction>
0.3696

> <Gold.Rescore>
     Score         DG    S(hbond)    S(metal)    S(lipo)     H(rot)  DE(clash)    DE(int)     intcor
     13.22     -16.79       1.61        0.00      92.31       1.91       1.48       2.10       ----

> <Gold.Chemscore.Fitness>
13.2161

> <Gold.Chemscore.DG>
-16.7922

> <Gold.Chemscore.ZeroCoef>
-5.4800

> <Gold.Chemscore.Hbond>
1.6149

> <Gold.Chemscore.Metal>
0.0000

> <Gold.Chemscore.Lipo>
92.3052

> <Gold.Chemscore.Internal_Hbond>
0.0000

> <Gold.Chemscore.DEClash>
1.4778

> <Gold.Chemscore.DEInternal>
2.0983

> <Gold.Chemscore.Rot>
1.9067

> <Gold.Chemscore.Internal.Correction>
   9.000000E+99

> <Gold.Chemscore.Hbonds>
donor molecule, donor type, donor heavy atom, donor atom, acceptor molecule, acceptor atom, score
      L1  H     3    26       P1 10175  0.92
      L1  H     5    28       P1 10175  0.42

> <Gold.Chemscore.Hbond.Weighted>
-5.3936

> <Gold.Chemscore.Metal.Weighted>
-0.0000

> <Gold.Chemscore.Lipo.Weighted>
-10.7997

> <Gold.Chemscore.Internal_Hbond.Weighted>
0.0000

> <Gold.Chemscore.DEClash.Weighted>
1.4778

> <Gold.Chemscore.DEInternal.Weighted>
2.0983

> <Gold.Chemscore.Rot.Weighted>
4.8811

> <Gold.Chemscore.Internal.Correction.Weighted>
   9.000000E+99

> <Gold.Protein.RotatedTorsions>
[ 6907 6896 6895 6894 ] final  -52.12 input  -60.11 | X-H torsion
[ 7974 7965 7964 7962 ] final   37.67 input  175.53 | X-H torsion
[ 8008 7997 7996 7995 ] final  135.06 input   59.86 | X-H torsion
[ 10167 10162 10161 10158 ] final -174.70 input  -65.29 | X-H torsion
[ 10718 10713 10712 10709 ] final  -65.07 input   66.30 | X-H torsion
[ 10763 10752 10751 10750 ] final -174.64 input  -60.55 | X-H torsion
[ 11005 11000 10999 10996 ] final -115.52 input  -57.11 | X-H torsion

> <Gold.Protein.ActiveResidues>
 VAL166  LYS551  ARG553  GLY616  TRP617  ASP618  TYR619  PRO620  LYS621  CYS622 
 ASP623  PHE694  ASN695  SER759  ASP760  ASP761  ALA762  ILE779  LEU786  VAL792 
 PHE793  MET794  SER795  GLU796  ALA797  LYS798  CYS799  TRP800  GLU811  SER814 

> <Gold.Protein.RotatedAtoms>
  150.8548  134.7883  159.7036 H   0  0  0  0  0  0  0  0  0  0  0  0  # atno 6907 bound_to 6896
  152.4602  134.5197  159.9788 H   0  0  0  0  0  0  0  0  0  0  0  0  # atno 6908 bound_to 6896
  151.5311  133.3411  159.2954 H   0  0  0  0  0  0  0  0  0  0  0  0  # atno 6909 bound_to 6896
  146.1120  139.5866  142.9346 H   0  0  0  0  0  0  0  0  0  0  0  0  # atno 7974 bound_to 7965
  156.3002  140.2480  156.3518 H   0  0  0  0  0  0  0  0  0  0  0  0  # atno 8008 bound_to 7997
  154.8958  140.0408  157.1884 H   0  0  0  0  0  0  0  0  0  0  0  0  # atno 8009 bound_to 7997
  154.8551  140.2912  155.5578 H   0  0  0  0  0  0  0  0  0  0  0  0  # atno 8010 bound_to 7997
  139.5620  144.1847  152.1253 H   0  0  0  0  0  0  0  0  0  0  0  0  # atno 10167 bound_to 10162
  156.0691  130.4242  150.1511 H   0  0  0  0  0  0  0  0  0  0  0  0  # atno 10718 bound_to 10713
  154.5938  135.2847  155.0607 H   0  0  0  0  0  0  0  0  0  0  0  0  # atno 10763 bound_to 10752
  154.1898  135.6442  153.5060 H   0  0  0  0  0  0  0  0  0  0  0  0  # atno 10764 bound_to 10752
  153.0131  135.5443  154.6633 H   0  0  0  0  0  0  0  0  0  0  0  0  # atno 10765 bound_to 10752
  141.0482  133.9729  157.2882 H   0  0  0  0  0  0  0  0  0  0  0  0  # atno 11005 bound_to 11000
  145.5644  141.0401  143.2209 LP  0  0  0  0  0  0  0  0  0  0  0  0  # atno 17320 bound_to 7965
  144.7520  139.7170  143.7269 LP  0  0  0  0  0  0  0  0  0  0  0  0  # atno 17321 bound_to 7965
  140.1363  144.5243  150.6771 LP  0  0  0  0  0  0  0  0  0  0  0  0  # atno 17342 bound_to 10162
  140.6900  143.2371  151.5156 LP  0  0  0  0  0  0  0  0  0  0  0  0  # atno 17343 bound_to 10162
  156.9566  130.9791  151.3487 LP  0  0  0  0  0  0  0  0  0  0  0  0  # atno 17370 bound_to 10713
  157.5751  130.8337  149.8445 LP  0  0  0  0  0  0  0  0  0  0  0  0  # atno 17371 bound_to 10713
  139.9329  135.0199  156.8459 LP  0  0  0  0  0  0  0  0  0  0  0  0  # atno 17394 bound_to 11000
  140.6106  134.0086  155.7575 LP  0  0  0  0  0  0  0  0  0  0  0  0  # atno 17395 bound_to 11000

$$$$
