AV-unprocessed.smi:99|AV-procd|sdf|883|dock8
  -GOLD-   2262017363D 1   1.00000     0.00000
 Structure written by MMmdl.
 52 55  0  0  0  0  0  0  0  0  2 V2000
  150.8851  132.9081  157.2752 O   0  0  0  0  0  0  0  0  0  0  0  0
  151.0588  132.3443  156.1926 C   0  0  0  0  0  0  0  0  0  0  0  0
  150.2530  132.5109  155.1209 O   0  0  0  0  0  0  0  0  0  0  0  0
  148.9496  133.0693  155.2508 C   0  0  0  0  0  0  0  0  0  0  0  0
  148.9110  134.5291  154.7664 C   0  0  2  0  0  0  0  0  0  0  0  0
  149.7698  135.3413  155.5636 O   0  0  0  0  0  0  0  0  0  0  0  0
  149.1782  136.5804  155.8396 C   0  0  2  0  0  0  0  0  0  0  0  0
  148.9227  136.6432  157.3405 N   0  0  0  0  0  0  0  0  0  0  0  0
  147.6513  136.5674  157.8946 C   0  0  0  0  0  0  0  0  0  0  0  0
  147.4597  136.5461  159.2293 C   0  0  0  0  0  0  0  0  0  0  0  0
  148.6129  136.5860  160.1205 C   0  0  0  0  0  0  0  0  0  0  0  0
  148.4277  136.5742  161.3359 O   0  0  0  0  0  0  0  0  0  0  0  0
  149.8539  136.6284  159.5588 N   0  5  0  0  0  0  0  0  0  0  0  0
  150.0518  136.6424  158.2082 C   0  0  0  0  0  0  0  0  0  0  0  0
  151.1733  136.6548  157.7001 O   0  0  0  0  0  0  0  0  0  0  0  0
  147.9152  136.6860  154.9658 C   0  0  1  0  0  0  0  0  0  0  0  0
  148.2363  137.2891  153.7259 O   0  0  0  0  0  0  0  0  0  0  0  0
  147.5480  135.2154  154.8128 C   0  0  1  0  0  0  0  0  0  0  0  0
  146.7175  134.9399  153.6918 O   0  0  0  0  0  0  0  0  0  0  0  0
  146.2178  133.7006  153.4975 C   0  0  0  0  0  0  0  0  0  0  0  0
  146.2976  132.7927  154.3278 O   0  0  0  0  0  0  0  0  0  0  0  0
  145.5614  133.5417  152.1680 C   0  0  0  0  0  0  0  0  0  0  0  0
  145.1072  134.6900  151.4778 C   0  0  0  0  0  0  0  0  0  0  0  0
  144.4774  134.5709  150.2237 C   0  0  0  0  0  0  0  0  0  0  0  0
  144.2946  133.3020  149.6441 C   0  0  0  0  0  0  0  0  0  0  0  0
  144.7429  132.1522  150.3198 C   0  0  0  0  0  0  0  0  0  0  0  0
  145.3728  132.2692  151.5743 C   0  0  0  0  0  0  0  0  0  0  0  0
  152.2030  131.4293  155.9178 C   0  0  0  0  0  0  0  0  0  0  0  0
  153.4264  131.6270  156.5989 C   0  0  0  0  0  0  0  0  0  0  0  0
  154.5308  130.7902  156.3466 C   0  0  0  0  0  0  0  0  0  0  0  0
  154.4248  129.7451  155.4104 C   0  0  0  0  0  0  0  0  0  0  0  0
  153.2120  129.5361  154.7290 C   0  0  0  0  0  0  0  0  0  0  0  0
  152.1063  130.3716  154.9801 C   0  0  0  0  0  0  0  0  0  0  0  0
  148.2707  132.4732  154.6408 H   0  0  0  0  0  0  0  0  0  0  0  0
  148.5795  132.9984  156.2745 H   0  0  0  0  0  0  0  0  0  0  0  0
  149.2928  134.5764  153.7455 H   0  0  0  0  0  0  0  0  0  0  0  0
  149.8681  137.4034  155.6438 H   0  0  0  0  0  0  0  0  0  0  0  0
  146.7705  136.5215  157.2768 H   0  0  0  0  0  0  0  0  0  0  0  0
  146.4612  136.4843  159.6365 H   0  0  0  0  0  0  0  0  0  0  0  0
  147.1387  137.2926  155.4304 H   0  0  0  0  0  0  0  0  0  0  0  0
  148.1636  136.6348  153.0480 H   0  0  0  0  0  0  0  0  0  0  0  0
  147.0416  134.8932  155.7189 H   0  0  0  0  0  0  0  0  0  0  0  0
  145.2348  135.6750  151.9034 H   0  0  0  0  0  0  0  0  0  0  0  0
  144.1335  135.4547  149.7067 H   0  0  0  0  0  0  0  0  0  0  0  0
  143.8108  133.2110  148.6827 H   0  0  0  0  0  0  0  0  0  0  0  0
  144.6028  131.1775  149.8759 H   0  0  0  0  0  0  0  0  0  0  0  0
  145.7037  131.3663  152.0665 H   0  0  0  0  0  0  0  0  0  0  0  0
  153.5336  132.4272  157.3170 H   0  0  0  0  0  0  0  0  0  0  0  0
  155.4613  130.9532  156.8701 H   0  0  0  0  0  0  0  0  0  0  0  0
  155.2729  129.1060  155.2131 H   0  0  0  0  0  0  0  0  0  0  0  0
  153.1303  128.7386  154.0053 H   0  0  0  0  0  0  0  0  0  0  0  0
  151.1940  130.1895  154.4311 H   0  0  0  0  0  0  0  0  0  0  0  0
  1  2  2  0  0  0  0
  2  3  1  0  0  0  0
  2 28  1  0  0  0  0
  3  4  1  0  0  0  0
  4  5  1  0  0  0  0
  4 34  1  0  0  0  0
  4 35  1  0  0  0  0
  5 18  1  0  0  0  0
  5  6  1  0  0  0  0
  5 36  1  0  0  0  0
  6  7  1  0  0  0  0
  7  8  1  0  0  0  0
  7 16  1  0  0  0  0
  7 37  1  0  0  0  0
  8 14  1  0  0  0  0
  8  9  1  0  0  0  0
  9 10  2  0  0  0  0
  9 38  1  0  0  0  0
 10 11  1  0  0  0  0
 10 39  1  0  0  0  0
 11 12  2  0  0  0  0
 11 13  1  0  0  0  0
 13 14  1  0  0  0  0
 14 15  2  0  0  0  0
 16 17  1  0  0  0  0
 16 18  1  0  0  0  0
 16 40  1  0  0  0  0
 17 41  1  0  0  0  0
 18 19  1  0  0  0  0
 18 42  1  0  0  0  0
 19 20  1  0  0  0  0
 20 21  2  0  0  0  0
 20 22  1  0  0  0  0
 22 27  1  0  0  0  0
 22 23  2  0  0  0  0
 23 24  1  0  0  0  0
 23 43  1  0  0  0  0
 24 25  2  0  0  0  0
 24 44  1  0  0  0  0
 25 26  1  0  0  0  0
 25 45  1  0  0  0  0
 26 27  2  0  0  0  0
 26 46  1  0  0  0  0
 27 47  1  0  0  0  0
 28 33  1  0  0  0  0
 28 29  2  0  0  0  0
 29 30  1  0  0  0  0
 29 48  1  0  0  0  0
 30 31  2  0  0  0  0
 30 49  1  0  0  0  0
 31 32  1  0  0  0  0
 31 50  1  0  0  0  0
 32 33  2  0  0  0  0
 32 51  1  0  0  0  0
 33 52  1  0  0  0  0
M  CHG  1  13  -1
M  END
> <s_m_source_file>
AV-unprocessed.smi

> <i_m_source_file_index>
99

> <i_lp_mmshare_version>
43012

> <i_f3d_flags>
0

> <s_epik_input>
W2NIXTFbY0hdW2NIXVtjSF1bY0hdYzFDKD1PKU9bQ0gyXVtDQEBIXTJPW0NAQEhdKG4zW2NIXVtjSF1jKD1PKVtuSF1jMz1PKVtDQEBIXShbT0hdKVtDQEhdMk9DKD1PKWM0W2NIXVtjSF1bY0hdW2NIXVtjSF00

> <s_epik_cmdline>
J2VwaWtfcHl0aG9uJywgJy1waCcsICc3LjAnLCAnLXRuJywgJzgnLCAnLW1hJywgJzIwMCcsICctbWV0YWxfYmluZGluZycsICctaW1hZScsICc8aW5maWxlLm1hZT4nLCAnLW9tYWUnLCAnPG91dGZpbGUubWFlPic=

> <r_lp_tautomer_probability>
1

> <r_epik_Ionization_Penalty>
2.89159

> <r_epik_Ionization_Penalty_Charging>
2.1077e-08

> <r_epik_Ionization_Penalty_Neutral>
2.89159

> <r_epik_State_Penalty>
2.88671

> <r_epik_Charging_Adjusted_Penalty>
2.88671

> <i_epik_Tot_Q>
-1

> <i_epik_Tot_abs_Q>
1

> <r_epik_Metal_State_Penalty>
0.0727308

> <b_epik_Metal_Only>
1

> <s_epik_Chemistry_Notes>
This compound has an ester and may undergo hydrolysis at high or low pH. This compound contains an acetal/aminal-like group ( X-CH(R)-Y where X, Y are N, S, or O) that may be acid/base labile, releasing an aldehyde.

> <s_lp_Force_Field>
OPLS_2005

> <r_lp_Energy>
45.2738

> <b_lp_Chiralities_Consistent>
1

> <s_lp_Variant>
AV-unprocessed.smi:99-19

> <Gold.Version>
5.8.1

> <Gold.Id.Protein>
6NUR|6NUR_protein|mol2

> <Gold.PLP.Fitness>
49.6018

> <Gold.PLP.PLP>
-40.0079

> <Gold.PLP.part.hbond>
-3.1060

> <Gold.PLP.part.metal>
0.0000

> <Gold.PLP.part.buried>
-6.7539

> <Gold.PLP.part.nonpolar>
-30.2223

> <Gold.PLP.part.repulsive>
0.2852

> <Gold.PLP.ligand.clash>
0.0000

> <Gold.PLP.ligand.torsion>
1.3328

> <Gold.PLP.Chemscore.Hbond>
4.0076

> <Gold.PLP.Chemscore.CHOScore>
0.0000

> <Gold.PLP.Chemscore.Metal>
0.0000

> <Gold.Chemscore.Hbonds>
donor molecule, donor type, donor heavy atom, donor atom, acceptor molecule, acceptor atom, score
      L1  H    17    41       P1  7948  0.63
      P1  H  6896  6908       L1     1  1.00
      P1  H  6896  6909       L1    13  1.37
      P1  H  6931  6943       L1    12  1.00

> <Gold.PLP.Chemscore.Internal.Correction>
0.2366

> <Gold.Rescore>
     Score         DG    S(hbond)    S(metal)    S(lipo)     H(rot)  DE(clash)    DE(int)     intcor
     11.32     -15.39       2.29        0.00      88.07       3.13       0.16       3.92       ----

> <Gold.Chemscore.Fitness>
11.3189

> <Gold.Chemscore.DG>
-15.3934

> <Gold.Chemscore.ZeroCoef>
-5.4800

> <Gold.Chemscore.Hbond>
2.2854

> <Gold.Chemscore.Metal>
0.0000

> <Gold.Chemscore.Lipo>
88.0740

> <Gold.Chemscore.Internal_Hbond>
0.0000

> <Gold.Chemscore.DEClash>
0.1561

> <Gold.Chemscore.DEInternal>
3.9184

> <Gold.Chemscore.Rot>
3.1346

> <Gold.Chemscore.Internal.Correction>
   9.000000E+99

> <Gold.Chemscore.Hbonds>
donor molecule, donor type, donor heavy atom, donor atom, acceptor molecule, acceptor atom, score
      L1  H    17    41       P1  7948  0.62
      P1  H  6896  6908       L1     1  0.89
      P1  H  6896  6909       L1    13  0.06
      P1  H  6931  6943       L1    12  0.45

> <Gold.Chemscore.Hbond.Weighted>
-7.6333

> <Gold.Chemscore.Metal.Weighted>
-0.0000

> <Gold.Chemscore.Lipo.Weighted>
-10.3047

> <Gold.Chemscore.Internal_Hbond.Weighted>
0.0000

> <Gold.Chemscore.DEClash.Weighted>
0.1561

> <Gold.Chemscore.DEInternal.Weighted>
3.9184

> <Gold.Chemscore.Rot.Weighted>
8.0246

> <Gold.Chemscore.Internal.Correction.Weighted>
   9.000000E+99

> <Gold.Protein.RotatedTorsions>
[ 6907 6896 6895 6894 ] final   96.98 input  -60.11 | X-H torsion
[ 7974 7965 7964 7962 ] final  -80.18 input  175.53 | X-H torsion
[ 8008 7997 7996 7995 ] final  174.36 input   59.86 | X-H torsion
[ 10167 10162 10161 10158 ] final  -44.87 input  -65.29 | X-H torsion
[ 10718 10713 10712 10709 ] final -106.49 input   66.30 | X-H torsion
[ 10763 10752 10751 10750 ] final  -47.71 input  -60.55 | X-H torsion
[ 11005 11000 10999 10996 ] final  141.84 input  -57.11 | X-H torsion

> <Gold.Protein.ActiveResidues>
 VAL166  LYS551  ARG553  GLY616  TRP617  ASP618  TYR619  PRO620  LYS621  CYS622 
 ASP623  PHE694  ASN695  SER759  ASP760  ASP761  ALA762  ILE779  LEU786  VAL792 
 PHE793  MET794  SER795  GLU796  ALA797  LYS798  CYS799  TRP800  GLU811  SER814 

> <Gold.Protein.RotatedAtoms>
  152.5429  134.0803  159.8232 H   0  0  0  0  0  0  0  0  0  0  0  0  # atno 6907 bound_to 6896
  151.0906  133.5311  159.2622 H   0  0  0  0  0  0  0  0  0  0  0  0  # atno 6908 bound_to 6896
  151.2104  135.0488  159.8963 H   0  0  0  0  0  0  0  0  0  0  0  0  # atno 6909 bound_to 6896
  145.5634  140.9478  143.1435 H   0  0  0  0  0  0  0  0  0  0  0  0  # atno 7974 bound_to 7965
  156.0981  140.1436  156.9503 H   0  0  0  0  0  0  0  0  0  0  0  0  # atno 8008 bound_to 7997
  154.4685  140.0918  156.7128 H   0  0  0  0  0  0  0  0  0  0  0  0  # atno 8009 bound_to 7997
  155.4806  140.3445  155.4341 H   0  0  0  0  0  0  0  0  0  0  0  0  # atno 8010 bound_to 7997
  140.6880  143.2908  151.3557 H   0  0  0  0  0  0  0  0  0  0  0  0  # atno 10167 bound_to 10162
  156.0393  130.5616  150.7689 H   0  0  0  0  0  0  0  0  0  0  0  0  # atno 10718 bound_to 10713
  154.0659  135.6611  153.4818 H   0  0  0  0  0  0  0  0  0  0  0  0  # atno 10763 bound_to 10752
  153.0409  135.5145  154.7614 H   0  0  0  0  0  0  0  0  0  0  0  0  # atno 10764 bound_to 10752
  154.6665  135.3023  154.9766 H   0  0  0  0  0  0  0  0  0  0  0  0  # atno 10765 bound_to 10752
  140.0432  134.9294  157.0881 H   0  0  0  0  0  0  0  0  0  0  0  0  # atno 11005 bound_to 11000
  144.7472  139.7289  143.7287 LP  0  0  0  0  0  0  0  0  0  0  0  0  # atno 17320 bound_to 7965
  146.1835  139.5039  142.9851 LP  0  0  0  0  0  0  0  0  0  0  0  0  # atno 17321 bound_to 7965
  139.6256  144.0821  152.2431 LP  0  0  0  0  0  0  0  0  0  0  0  0  # atno 17342 bound_to 10162
  140.0279  144.6103  150.7512 LP  0  0  0  0  0  0  0  0  0  0  0  0  # atno 17343 bound_to 10162
  157.5188  131.0930  151.0105 LP  0  0  0  0  0  0  0  0  0  0  0  0  # atno 17370 bound_to 10713
  157.0441  130.5761  149.5360 LP  0  0  0  0  0  0  0  0  0  0  0  0  # atno 17371 bound_to 10713
  140.4036  134.2056  155.7163 LP  0  0  0  0  0  0  0  0  0  0  0  0  # atno 17394 bound_to 11000
  141.1893  133.8240  157.0960 LP  0  0  0  0  0  0  0  0  0  0  0  0  # atno 17395 bound_to 11000

$$$$
