AV-unprocessed.smi:2399|AV-procd|sdf|9500|dock3
  -GOLD-   2272013133D 1   1.00000     0.00000
 Structure written by MMmdl.
 53 55  0  0  0  0  0  0  0  0  2 V2000
  152.1032  143.5853  161.3154 C   0  0  0  0  0  0  0  0  0  0  0  0
  151.8413  142.8317  160.1409 O   0  0  0  0  0  0  0  0  0  0  0  0
  152.6383  141.7348  159.8766 C   0  0  0  0  0  0  0  0  0  0  0  0
  153.7022  141.3172  160.7163 C   0  0  0  0  0  0  0  0  0  0  0  0
  154.4577  140.1857  160.3633 C   0  0  0  0  0  0  0  0  0  0  0  0
  154.1240  139.5072  159.1777 C   0  0  0  0  0  0  0  0  0  0  0  0
  154.8938  138.2802  158.7372 C   0  0  0  0  0  0  0  0  0  0  0  0
  153.1139  139.8934  158.3726 N   0  0  0  0  0  0  0  0  0  0  0  0
  152.3768  140.9827  158.7022 C   0  0  0  0  0  0  0  0  0  0  0  0
  151.2973  141.4532  157.9047 N   0  0  0  0  0  0  0  0  0  0  0  0
  150.3966  140.7371  157.2097 C   0  0  0  0  0  0  0  0  0  0  0  0
  150.3519  139.5080  157.1509 O   0  0  0  0  0  0  0  0  0  0  0  0
  149.5233  141.5376  156.5812 N   0  0  0  0  0  0  0  0  0  0  0  0
  148.4025  141.0816  155.7643 C   0  0  2  0  0  0  0  0  0  0  0  0
  148.4273  141.7959  154.4016 C   0  0  0  0  0  0  0  0  0  0  0  0
  147.1840  141.4435  153.5625 C   0  0  0  0  0  0  0  0  0  0  0  0
  145.9178  141.7480  154.2852 N   0  3  2  0  0  0  0  0  0  0  0  0
  145.6001  143.2043  154.3896 C   0  0  0  0  0  0  0  0  0  0  0  0
  144.2551  143.4964  155.0682 C   0  0  0  0  0  0  0  0  0  0  0  0
  143.9060  144.9263  154.6481 C   0  0  0  0  0  0  0  0  0  0  0  0
  144.6019  145.1531  153.2994 C   0  0  0  0  0  0  0  0  0  0  0  0
  145.4328  143.8937  153.0274 C   0  0  0  0  0  0  0  0  0  0  0  0
  145.8664  141.0082  155.5763 C   0  0  0  0  0  0  0  0  0  0  0  0
  147.0648  141.3456  156.4828 C   0  0  0  0  0  0  0  0  0  0  0  0
  151.3909  144.4076  161.3807 H   0  0  0  0  0  0  0  0  0  0  0  0
  153.1045  144.0175  161.2970 H   0  0  0  0  0  0  0  0  0  0  0  0
  151.9873  142.9775  162.2137 H   0  0  0  0  0  0  0  0  0  0  0  0
  153.9546  141.8413  161.6254 H   0  0  0  0  0  0  0  0  0  0  0  0
  155.2712  139.8504  160.9898 H   0  0  0  0  0  0  0  0  0  0  0  0
  155.8086  138.1592  159.3179 H   0  0  0  0  0  0  0  0  0  0  0  0
  155.1688  138.3575  157.6848 H   0  0  0  0  0  0  0  0  0  0  0  0
  154.2845  137.3860  158.8683 H   0  0  0  0  0  0  0  0  0  0  0  0
  151.1966  142.4570  157.8722 H   0  0  0  0  0  0  0  0  0  0  0  0
  149.6370  142.5356  156.6840 H   0  0  0  0  0  0  0  0  0  0  0  0
  148.5012  140.0091  155.5851 H   0  0  0  0  0  0  0  0  0  0  0  0
  148.4846  142.8759  154.5429 H   0  0  0  0  0  0  0  0  0  0  0  0
  149.3281  141.5150  153.8545 H   0  0  0  0  0  0  0  0  0  0  0  0
  147.2198  141.9464  152.5971 H   0  0  0  0  0  0  0  0  0  0  0  0
  147.1970  140.3767  153.3347 H   0  0  0  0  0  0  0  0  0  0  0  0
  146.3842  143.7200  154.9452 H   0  0  0  0  0  0  0  0  0  0  0  0
  143.4909  142.8118  154.6963 H   0  0  0  0  0  0  0  0  0  0  0  0
  144.2949  143.3957  156.1533 H   0  0  0  0  0  0  0  0  0  0  0  0
  142.8280  145.0791  154.5870 H   0  0  0  0  0  0  0  0  0  0  0  0
  144.2949  145.6328  155.3826 H   0  0  0  0  0  0  0  0  0  0  0  0
  143.8828  145.3267  152.4979 H   0  0  0  0  0  0  0  0  0  0  0  0
  145.2449  146.0324  153.3552 H   0  0  0  0  0  0  0  0  0  0  0  0
  146.3867  144.1351  152.5572 H   0  0  0  0  0  0  0  0  0  0  0  0
  144.8831  143.2427  152.3459 H   0  0  0  0  0  0  0  0  0  0  0  0
  144.9280  141.1872  156.0993 H   0  0  0  0  0  0  0  0  0  0  0  0
  145.8761  139.9398  155.3562 H   0  0  0  0  0  0  0  0  0  0  0  0
  147.0078  140.7483  157.3934 H   0  0  0  0  0  0  0  0  0  0  0  0
  147.0083  142.3872  156.8010 H   0  0  0  0  0  0  0  0  0  0  0  0
  145.1773  141.3605  153.7177 H   0  0  0  0  0  0  0  0  0  0  0  0
  1  2  1  0  0  0  0
  1 25  1  0  0  0  0
  1 26  1  0  0  0  0
  1 27  1  0  0  0  0
  2  3  1  0  0  0  0
  3  9  1  0  0  0  0
  3  4  2  0  0  0  0
  4  5  1  0  0  0  0
  4 28  1  0  0  0  0
  5  6  2  0  0  0  0
  5 29  1  0  0  0  0
  6  7  1  0  0  0  0
  6  8  1  0  0  0  0
  7 30  1  0  0  0  0
  7 31  1  0  0  0  0
  7 32  1  0  0  0  0
  8  9  2  0  0  0  0
  9 10  1  0  0  0  0
 10 11  1  0  0  0  0
 10 33  1  0  0  0  0
 11 12  2  0  0  0  0
 11 13  1  0  0  0  0
 13 14  1  0  0  0  0
 13 34  1  0  0  0  0
 14 24  1  0  0  0  0
 14 15  1  0  0  0  0
 14 35  1  0  0  0  0
 15 16  1  0  0  0  0
 15 36  1  0  0  0  0
 15 37  1  0  0  0  0
 16 17  1  0  0  0  0
 16 38  1  0  0  0  0
 16 39  1  0  0  0  0
 17 18  1  0  0  0  0
 17 23  1  0  0  0  0
 17 53  1  0  0  0  0
 18 22  1  0  0  0  0
 18 19  1  0  0  0  0
 18 40  1  0  0  0  0
 19 20  1  0  0  0  0
 19 41  1  0  0  0  0
 19 42  1  0  0  0  0
 20 21  1  0  0  0  0
 20 43  1  0  0  0  0
 20 44  1  0  0  0  0
 21 22  1  0  0  0  0
 21 45  1  0  0  0  0
 21 46  1  0  0  0  0
 22 47  1  0  0  0  0
 22 48  1  0  0  0  0
 23 24  1  0  0  0  0
 23 49  1  0  0  0  0
 23 50  1  0  0  0  0
 24 51  1  0  0  0  0
 24 52  1  0  0  0  0
M  CHG  1  17   1
M  END
> <s_m_source_file>
AV-unprocessed.smi

> <i_m_source_file_index>
2399

> <i_lp_mmshare_version>
43012

> <i_f3d_flags>
0

> <s_epik_input>
W0NIM11PYzFbY0hdW2NIXWMoW0NIM10pbmMxW05IXUMoPU8pW05IXVtDSF0yW0NIMl1bQ0gyXU4oW0NIMl1bQ0gyXTIpW0NIXTNbQ0gyXVtDSDJdW0NIMl1bQ0gyXTM=

> <s_epik_cmdline>
J2VwaWtfcHl0aG9uJywgJy1waCcsICc3LjAnLCAnLXRuJywgJzgnLCAnLW1hJywgJzIwMCcsICctbWV0YWxfYmluZGluZycsICctaW1hZScsICc8aW5maWxlLm1hZT4nLCAnLW9tYWUnLCAnPG91dGZpbGUubWFlPic=

> <r_lp_tautomer_probability>
1

> <r_epik_Ionization_Penalty>
0.00183805

> <r_epik_Ionization_Penalty_Charging>
0.00179121

> <r_epik_Ionization_Penalty_Neutral>
4.68398e-05

> <r_epik_State_Penalty>
0.00121448

> <r_epik_Charging_Adjusted_Penalty>
0.0030057

> <i_epik_Tot_Q>
1

> <i_epik_Tot_abs_Q>
1

> <r_epik_Metal_State_Penalty>
-0

> <b_epik_Metal_Only>
0

> <s_lp_Force_Field>
OPLS_2005

> <r_lp_Energy>
44.4335

> <b_lp_Chiralities_Consistent>
1

> <s_lp_Variant>
AV-unprocessed.smi:2399-2

> <Gold.Version>
5.8.1

> <Gold.Id.Protein>
6NUR|6NUR_protein|mol2

> <Gold.PLP.Fitness>
47.2982

> <Gold.PLP.PLP>
-42.4604

> <Gold.PLP.part.hbond>
-1.6464

> <Gold.PLP.part.metal>
0.0000

> <Gold.PLP.part.buried>
-6.3202

> <Gold.PLP.part.nonpolar>
-35.4579

> <Gold.PLP.part.repulsive>
0.1249

> <Gold.PLP.ligand.clash>
0.0000

> <Gold.PLP.ligand.torsion>
0.4007

> <Gold.PLP.Chemscore.Hbond>
1.8614

> <Gold.PLP.Chemscore.CHOScore>
0.0000

> <Gold.PLP.Chemscore.Metal>
0.0000

> <Gold.Chemscore.Hbonds>
donor molecule, donor type, donor heavy atom, donor atom, acceptor molecule, acceptor atom, score
      L1  H    17    53       P1 10175  1.56
      P1  H  7997  8008       L1     8  0.25

> <Gold.PLP.Chemscore.Internal.Correction>
0.0549

> <Gold.Rescore>
     Score         DG    S(hbond)    S(metal)    S(lipo)     H(rot)  DE(clash)    DE(int)     intcor
     15.03     -16.72       0.63        0.00     108.47       1.38       0.45       1.24       ----

> <Gold.Chemscore.Fitness>
15.0301

> <Gold.Chemscore.DG>
-16.7241

> <Gold.Chemscore.ZeroCoef>
-5.4800

> <Gold.Chemscore.Hbond>
0.6265

> <Gold.Chemscore.Metal>
0.0000

> <Gold.Chemscore.Lipo>
108.4739

> <Gold.Chemscore.Internal_Hbond>
0.0000

> <Gold.Chemscore.DEClash>
0.4521

> <Gold.Chemscore.DEInternal>
1.2419

> <Gold.Chemscore.Rot>
1.3828

> <Gold.Chemscore.Internal.Correction>
   9.000000E+99

> <Gold.Chemscore.Hbonds>
donor molecule, donor type, donor heavy atom, donor atom, acceptor molecule, acceptor atom, score
      L1  H    17    53       P1 10175  0.27

> <Gold.Chemscore.Hbond.Weighted>
-2.0926

> <Gold.Chemscore.Metal.Weighted>
-0.0000

> <Gold.Chemscore.Lipo.Weighted>
-12.6914

> <Gold.Chemscore.Internal_Hbond.Weighted>
0.0000

> <Gold.Chemscore.DEClash.Weighted>
0.4521

> <Gold.Chemscore.DEInternal.Weighted>
1.2419

> <Gold.Chemscore.Rot.Weighted>
3.5399

> <Gold.Chemscore.Internal.Correction.Weighted>
   9.000000E+99

> <Gold.Protein.RotatedTorsions>
[ 6907 6896 6895 6894 ] final   -7.86 input  -60.11 | X-H torsion
[ 7974 7965 7964 7962 ] final -171.44 input  175.53 | X-H torsion
[ 8008 7997 7996 7995 ] final  -80.17 input   59.86 | X-H torsion
[ 10167 10162 10161 10158 ] final  158.88 input  -65.29 | X-H torsion
[ 10718 10713 10712 10709 ] final  100.09 input   66.30 | X-H torsion
[ 10763 10752 10751 10750 ] final  -48.83 input  -60.55 | X-H torsion
[ 11005 11000 10999 10996 ] final -166.41 input  -57.11 | X-H torsion

> <Gold.Protein.ActiveResidues>
 VAL166  LYS551  ARG553  GLY616  TRP617  ASP618  TYR619  PRO620  LYS621  CYS622 
 ASP623  PHE694  ASN695  SER759  ASP760  ASP761  ALA762  ILE779  LEU786  VAL792 
 PHE793  MET794  SER795  GLU796  ALA797  LYS798  CYS799  TRP800  GLU811  SER814 

> <Gold.Protein.RotatedAtoms>
  151.4428  135.1022  159.9674 H   0  0  0  0  0  0  0  0  0  0  0  0  # atno 6907 bound_to 6896
  152.4916  133.8513  159.7213 H   0  0  0  0  0  0  0  0  0  0  0  0  # atno 6908 bound_to 6896
  150.9076  133.6979  159.2890 H   0  0  0  0  0  0  0  0  0  0  0  0  # atno 6909 bound_to 6896
  144.7157  140.1922  143.6347 H   0  0  0  0  0  0  0  0  0  0  0  0  # atno 7974 bound_to 7965
  154.5857  140.0667  156.9167 H   0  0  0  0  0  0  0  0  0  0  0  0  # atno 8008 bound_to 7997
  155.2384  140.3343  155.4277 H   0  0  0  0  0  0  0  0  0  0  0  0  # atno 8009 bound_to 7997
  156.2221  140.1803  156.7437 H   0  0  0  0  0  0  0  0  0  0  0  0  # atno 8010 bound_to 7997
  139.4829  144.4783  151.8480 H   0  0  0  0  0  0  0  0  0  0  0  0  # atno 10167 bound_to 10162
  157.6862  131.0688  150.5047 H   0  0  0  0  0  0  0  0  0  0  0  0  # atno 10718 bound_to 10713
  154.0841  135.6587  153.4842 H   0  0  0  0  0  0  0  0  0  0  0  0  # atno 10763 bound_to 10752
  153.0345  135.5187  154.7445 H   0  0  0  0  0  0  0  0  0  0  0  0  # atno 10764 bound_to 10752
  154.6549  135.3006  154.9909 H   0  0  0  0  0  0  0  0  0  0  0  0  # atno 10765 bound_to 10752
  140.5648  134.5297  157.5150 H   0  0  0  0  0  0  0  0  0  0  0  0  # atno 11005 bound_to 11000
  145.8757  139.2296  143.1634 LP  0  0  0  0  0  0  0  0  0  0  0  0  # atno 17320 bound_to 7965
  146.0042  140.8493  143.0003 LP  0  0  0  0  0  0  0  0  0  0  0  0  # atno 17321 bound_to 7965
  140.4257  144.2183  150.5887 LP  0  0  0  0  0  0  0  0  0  0  0  0  # atno 17342 bound_to 10162
  140.4829  143.2373  151.8929 LP  0  0  0  0  0  0  0  0  0  0  0  0  # atno 17343 bound_to 10162
  156.5367  130.4198  149.6174 LP  0  0  0  0  0  0  0  0  0  0  0  0  # atno 17370 bound_to 10713
  156.3021  130.7182  151.2056 LP  0  0  0  0  0  0  0  0  0  0  0  0  # atno 17371 bound_to 10713
  139.9390  134.7822  156.0727 LP  0  0  0  0  0  0  0  0  0  0  0  0  # atno 17394 bound_to 11000
  141.1092  133.6649  156.2938 LP  0  0  0  0  0  0  0  0  0  0  0  0  # atno 17395 bound_to 11000

$$$$
