AV-unprocessed.smi:1724|AV-procd|sdf|6950|dock10
  -GOLD-   22720 8163D 1   1.00000     0.00000
 Structure written by MMmdl.
 38 39  0  0  0  0  0  0  0  0  1 V2000
  149.6869  135.7309  158.3662 O   0  0  0  0  0  0  0  0  0  0  0  0
  149.4403  136.7433  159.0204 C   0  0  0  0  0  0  0  0  0  0  0  0
  149.9188  137.9560  158.7066 N   0  0  0  0  0  0  0  0  0  0  0  0
  150.7817  138.2627  157.5689 C   0  0  0  0  0  0  0  0  0  0  0  0
  151.8641  139.3042  157.9183 C   0  0  1  0  0  0  0  0  0  0  0  0
  151.3581  140.4074  158.8672 C   0  0  0  0  0  0  0  0  0  0  0  0
  152.5059  141.3503  159.2458 C   0  0  0  0  0  0  0  0  0  0  0  0
  153.6996  140.5521  159.7904 C   0  0  0  0  0  0  0  0  0  0  0  0
  154.1095  139.5865  158.8288 O   0  0  0  0  0  0  0  0  0  0  0  0
  153.1003  138.6242  158.5413 C   0  0  0  0  0  0  0  0  0  0  0  0
  148.6697  136.8072  160.1223 N   0  0  0  0  0  0  0  0  0  0  0  0
  147.9762  135.7887  160.8001 C   0  0  0  0  0  0  0  0  0  0  0  0
  147.9655  134.4759  160.4476 C   0  0  0  0  0  0  0  0  0  0  0  0
  147.2225  133.4808  161.2052 C   0  0  0  0  0  0  0  0  0  0  0  0
  147.1935  132.0114  160.8158 C   0  0  0  0  0  0  0  0  0  0  0  0
  146.9390  131.8857  159.5135 F   0  0  0  0  0  0  0  0  0  0  0  0
  148.3765  131.4474  161.0589 F   0  0  0  0  0  0  0  0  0  0  0  0
  146.2616  131.3388  161.4916 F   0  0  0  0  0  0  0  0  0  0  0  0
  146.5480  133.9244  162.2808 C   0  0  0  0  0  0  0  0  0  0  0  0
  146.5595  135.2696  162.6538 N   0  0  0  0  0  0  0  0  0  0  0  0
  147.2292  136.2366  161.9879 C   0  0  0  0  0  0  0  0  0  0  0  0
  147.1906  137.4016  162.3825 O   0  0  0  0  0  0  0  0  0  0  0  0
  146.0296  135.5230  163.4751 H   0  0  0  0  0  0  0  0  0  0  0  0
  149.6626  138.7319  159.2995 H   0  0  0  0  0  0  0  0  0  0  0  0
  151.2408  137.3583  157.1659 H   0  0  0  0  0  0  0  0  0  0  0  0
  150.1433  138.6539  156.7762 H   0  0  0  0  0  0  0  0  0  0  0  0
  152.1839  139.7799  156.9897 H   0  0  0  0  0  0  0  0  0  0  0  0
  150.5548  140.9809  158.4044 H   0  0  0  0  0  0  0  0  0  0  0  0
  150.9421  139.9568  159.7693 H   0  0  0  0  0  0  0  0  0  0  0  0
  152.8181  141.9183  158.3686 H   0  0  0  0  0  0  0  0  0  0  0  0
  152.1684  142.0767  159.9856 H   0  0  0  0  0  0  0  0  0  0  0  0
  154.5356  141.2207  159.9967 H   0  0  0  0  0  0  0  0  0  0  0  0
  153.4441  140.0609  160.7306 H   0  0  0  0  0  0  0  0  0  0  0  0
  152.8328  138.0826  159.4503 H   0  0  0  0  0  0  0  0  0  0  0  0
  153.5149  137.8921  157.8478 H   0  0  0  0  0  0  0  0  0  0  0  0
  148.5466  137.7262  160.5222 H   0  0  0  0  0  0  0  0  0  0  0  0
  148.5190  134.1255  159.5933 H   0  0  0  0  0  0  0  0  0  0  0  0
  145.9569  133.2923  162.9270 H   0  0  0  0  0  0  0  0  0  0  0  0
  1  2  2  0  0  0  0
  2  3  1  0  0  0  0
  2 11  1  0  0  0  0
  3  4  1  0  0  0  0
  3 24  1  0  0  0  0
  4  5  1  0  0  0  0
  4 25  1  0  0  0  0
  4 26  1  0  0  0  0
  5 10  1  0  0  0  0
  5  6  1  0  0  0  0
  5 27  1  0  0  0  0
  6  7  1  0  0  0  0
  6 28  1  0  0  0  0
  6 29  1  0  0  0  0
  7  8  1  0  0  0  0
  7 30  1  0  0  0  0
  7 31  1  0  0  0  0
  8  9  1  0  0  0  0
  8 32  1  0  0  0  0
  8 33  1  0  0  0  0
  9 10  1  0  0  0  0
 10 34  1  0  0  0  0
 10 35  1  0  0  0  0
 11 12  1  0  0  0  0
 11 36  1  0  0  0  0
 12 21  1  0  0  0  0
 12 13  2  0  0  0  0
 13 14  1  0  0  0  0
 13 37  1  0  0  0  0
 14 15  1  0  0  0  0
 14 19  2  0  0  0  0
 15 16  1  0  0  0  0
 15 17  1  0  0  0  0
 15 18  1  0  0  0  0
 19 20  1  0  0  0  0
 19 38  1  0  0  0  0
 20 23  1  0  0  0  0
 20 21  1  0  0  0  0
 21 22  2  0  0  0  0
M  END
> <s_m_source_file>
AV-unprocessed.smi

> <i_m_source_file_index>
1724

> <i_lp_mmshare_version>
43012

> <i_f3d_flags>
0

> <s_epik_input>
Tz1jMVtuSF1bY0hdYyhDKEYpKEYpRilbY0hdYzFbTkhdQyg9TylbTkhdW0NIMl1bQ0BASF0yW0NIMl1bQ0gyXVtDSDJdT1tDSDJdMg==

> <s_epik_cmdline>
J2VwaWtfcHl0aG9uJywgJy1waCcsICc3LjAnLCAnLXRuJywgJzgnLCAnLW1hJywgJzIwMCcsICctbWV0YWxfYmluZGluZycsICctaW1hZScsICc8aW5maWxlLm1hZT4nLCAnLW9tYWUnLCAnPG91dGZpbGUubWFlPic=

> <r_lp_tautomer_probability>
1

> <r_epik_Ionization_Penalty>
0.00384958

> <r_epik_Ionization_Penalty_Charging>
0.00382926

> <r_epik_Ionization_Penalty_Neutral>
2.03186e-05

> <r_epik_State_Penalty>
-0

> <r_epik_Charging_Adjusted_Penalty>
0.00382926

> <i_epik_Tot_Q>
0

> <i_epik_Tot_abs_Q>
0

> <r_epik_Metal_State_Penalty>
0.371494

> <b_epik_Metal_Only>
0

> <s_lp_Force_Field>
OPLS_2005

> <r_lp_Energy>
21.778

> <b_lp_Chiralities_Consistent>
1

> <s_lp_Variant>
AV-unprocessed.smi:1724-2

> <Gold.Version>
5.8.1

> <Gold.Id.Protein>
6NUR|6NUR_protein|mol2

> <Gold.PLP.Fitness>
41.7199

> <Gold.PLP.PLP>
-35.1016

> <Gold.PLP.part.hbond>
-4.0000

> <Gold.PLP.part.metal>
0.0000

> <Gold.PLP.part.buried>
-5.1906

> <Gold.PLP.part.nonpolar>
-26.0469

> <Gold.PLP.part.repulsive>
1.2416

> <Gold.PLP.ligand.clash>
1.1393

> <Gold.PLP.ligand.torsion>
0.7723

> <Gold.PLP.Chemscore.Hbond>
3.0946

> <Gold.PLP.Chemscore.CHOScore>
0.0000

> <Gold.PLP.Chemscore.Metal>
0.0000

> <Gold.Chemscore.Hbonds>
donor molecule, donor type, donor heavy atom, donor atom, acceptor molecule, acceptor atom, score
      P1  H  6896  6908       L1     1  1.00
      P1  H  6931  6943       L1    22  0.63
      P1  H  6934  6947       L1    22  0.39
      P1  H  7997  8010       L1     9  1.00

> <Gold.PLP.Chemscore.Internal.Correction>
0.0183

> <Gold.Rescore>
     Score         DG    S(hbond)    S(metal)    S(lipo)     H(rot)  DE(clash)    DE(int)     intcor
     17.07     -18.89       2.75        0.00      65.31       1.33       0.08       1.74       ----

> <Gold.Chemscore.Fitness>
17.0703

> <Gold.Chemscore.DG>
-18.8931

> <Gold.Chemscore.ZeroCoef>
-5.4800

> <Gold.Chemscore.Hbond>
2.7510

> <Gold.Chemscore.Metal>
0.0000

> <Gold.Chemscore.Lipo>
65.3055

> <Gold.Chemscore.Internal_Hbond>
0.0000

> <Gold.Chemscore.DEClash>
0.0798

> <Gold.Chemscore.DEInternal>
1.7430

> <Gold.Chemscore.Rot>
1.3344

> <Gold.Chemscore.Internal.Correction>
   9.000000E+99

> <Gold.Chemscore.Hbonds>
donor molecule, donor type, donor heavy atom, donor atom, acceptor molecule, acceptor atom, score
      P1  H  6896  6908       L1     1  0.67
      P1  H  6931  6943       L1    22  0.39
      P1  H  6934  6947       L1    22  0.38
      P1  H  7997  8010       L1     9  0.80

> <Gold.Chemscore.Hbond.Weighted>
-9.1883

> <Gold.Chemscore.Metal.Weighted>
-0.0000

> <Gold.Chemscore.Lipo.Weighted>
-7.6407

> <Gold.Chemscore.Internal_Hbond.Weighted>
0.0000

> <Gold.Chemscore.DEClash.Weighted>
0.0798

> <Gold.Chemscore.DEInternal.Weighted>
1.7430

> <Gold.Chemscore.Rot.Weighted>
3.4160

> <Gold.Chemscore.Internal.Correction.Weighted>
   9.000000E+99

> <Gold.Protein.RotatedTorsions>
[ 6907 6896 6895 6894 ] final  162.17 input  -60.11 | X-H torsion
[ 7974 7965 7964 7962 ] final  141.69 input  175.53 | X-H torsion
[ 8008 7997 7996 7995 ] final   -0.58 input   59.86 | X-H torsion
[ 10167 10162 10161 10158 ] final   75.23 input  -65.29 | X-H torsion
[ 10718 10713 10712 10709 ] final   -1.46 input   66.30 | X-H torsion
[ 10763 10752 10751 10750 ] final -171.27 input  -60.55 | X-H torsion
[ 11005 11000 10999 10996 ] final  -27.86 input  -57.11 | X-H torsion

> <Gold.Protein.ActiveResidues>
 VAL166  LYS551  ARG553  GLY616  TRP617  ASP618  TYR619  PRO620  LYS621  CYS622 
 ASP623  PHE694  ASN695  SER759  ASP760  ASP761  ALA762  ILE779  LEU786  VAL792 
 PHE793  MET794  SER795  GLU796  ALA797  LYS798  CYS799  TRP800  GLU811  SER814 

> <Gold.Protein.RotatedAtoms>
  151.9445  133.3647  159.3976 H   0  0  0  0  0  0  0  0  0  0  0  0  # atno 6907 bound_to 6896
  150.6992  134.4405  159.5299 H   0  0  0  0  0  0  0  0  0  0  0  0  # atno 6908 bound_to 6896
  152.2067  134.8538  160.0553 H   0  0  0  0  0  0  0  0  0  0  0  0  # atno 6909 bound_to 6896
  144.9074  139.5339  143.5725 H   0  0  0  0  0  0  0  0  0  0  0  0  # atno 7974 bound_to 7965
  154.6565  140.2581  155.7156 H   0  0  0  0  0  0  0  0  0  0  0  0  # atno 8008 bound_to 7997
  156.2599  140.2857  156.0941 H   0  0  0  0  0  0  0  0  0  0  0  0  # atno 8009 bound_to 7997
  155.1372  140.0379  157.2780 H   0  0  0  0  0  0  0  0  0  0  0  0  # atno 8010 bound_to 7997
  140.0052  144.5656  150.7704 H   0  0  0  0  0  0  0  0  0  0  0  0  # atno 10167 bound_to 10162
  156.8052  130.5406  149.5716 H   0  0  0  0  0  0  0  0  0  0  0  0  # atno 10718 bound_to 10713
  154.6324  135.2888  155.0201 H   0  0  0  0  0  0  0  0  0  0  0  0  # atno 10763 bound_to 10752
  154.1357  135.6526  153.4935 H   0  0  0  0  0  0  0  0  0  0  0  0  # atno 10764 bound_to 10752
  153.0286  135.5321  154.7157 H   0  0  0  0  0  0  0  0  0  0  0  0  # atno 10765 bound_to 10752
  140.9157  133.7431  156.0732 H   0  0  0  0  0  0  0  0  0  0  0  0  # atno 11005 bound_to 11000
  146.3141  139.7853  142.8997 LP  0  0  0  0  0  0  0  0  0  0  0  0  # atno 17320 bound_to 7965
  145.3512  141.0308  143.3337 LP  0  0  0  0  0  0  0  0  0  0  0  0  # atno 17321 bound_to 7965
  140.7403  143.2803  151.3619 LP  0  0  0  0  0  0  0  0  0  0  0  0  # atno 17342 bound_to 10162
  139.6243  144.0844  152.2420 LP  0  0  0  0  0  0  0  0  0  0  0  0  # atno 17343 bound_to 10162
  156.1077  130.6017  150.9997 LP  0  0  0  0  0  0  0  0  0  0  0  0  # atno 17370 bound_to 10713
  157.6533  131.0893  150.8002 LP  0  0  0  0  0  0  0  0  0  0  0  0  # atno 17371 bound_to 10713
  140.8052  134.3462  157.5428 LP  0  0  0  0  0  0  0  0  0  0  0  0  # atno 17394 bound_to 11000
  139.8765  134.9222  156.3293 LP  0  0  0  0  0  0  0  0  0  0  0  0  # atno 17395 bound_to 11000

$$$$
