AV-unprocessed.smi:2738|AV-procd|sdf|10548|dock8
  -GOLD-   2272015 03D 1   1.00000     0.00000
 Structure written by MMmdl.
 32 33  0  0  0  0  0  0  0  0  1 V2000
  154.8069  140.2444  160.1276 C   0  0  0  0  0  0  0  0  0  0  0  0
  153.3859  140.5707  160.6041 C   0  0  0  0  0  0  0  0  0  0  0  0
  152.6828  141.4103  159.6375 N   0  0  0  0  0  0  0  0  0  0  0  0
  152.3545  141.0765  158.3670 C   0  0  0  0  0  0  0  0  0  0  0  0
  152.5970  140.0032  157.8156 O   0  0  0  0  0  0  0  0  0  0  0  0
  151.7291  142.1359  157.8023 N   0  0  0  0  0  0  0  0  0  0  0  0
  151.2159  142.2153  156.4363 C   0  0  0  0  0  0  0  0  0  0  0  0
  149.9059  141.4200  156.2742 C   0  0  2  0  0  0  0  0  0  0  0  0
  149.5486  141.2010  154.7981 C   0  0  0  0  0  0  0  0  0  0  0  0
  148.8457  142.1537  156.8525 O   0  0  0  0  0  0  0  0  0  0  0  0
  151.6809  143.1878  158.7284 C   0  0  0  0  0  0  0  0  0  0  0  0
  151.1662  144.4917  158.6217 C   0  0  0  0  0  0  0  0  0  0  0  0
  151.2829  145.3273  159.7571 C   0  0  0  0  0  0  0  0  0  0  0  0
  151.8981  144.8567  160.9464 C   0  0  0  0  0  0  0  0  0  0  0  0
  152.4107  143.5405  161.0253 C   0  0  0  0  0  0  0  0  0  0  0  0
  152.2799  142.7307  159.8836 C   0  0  0  0  0  0  0  0  0  0  0  0
  155.3239  139.6167  160.8535 H   0  0  0  0  0  0  0  0  0  0  0  0
  155.3962  141.1517  159.9934 H   0  0  0  0  0  0  0  0  0  0  0  0
  154.7915  139.7099  159.1773 H   0  0  0  0  0  0  0  0  0  0  0  0
  152.8290  139.6469  160.7678 H   0  0  0  0  0  0  0  0  0  0  0  0
  153.4219  141.0758  161.5697 H   0  0  0  0  0  0  0  0  0  0  0  0
  151.0879  143.2536  156.1249 H   0  0  0  0  0  0  0  0  0  0  0  0
  151.9799  141.8056  155.7747 H   0  0  0  0  0  0  0  0  0  0  0  0
  149.9811  140.4499  156.7673 H   0  0  0  0  0  0  0  0  0  0  0  0
  150.3181  140.6172  154.2925 H   0  0  0  0  0  0  0  0  0  0  0  0
  149.4480  142.1488  154.2677 H   0  0  0  0  0  0  0  0  0  0  0  0
  148.6074  140.6598  154.6964 H   0  0  0  0  0  0  0  0  0  0  0  0
  148.7569  142.9724  156.3883 H   0  0  0  0  0  0  0  0  0  0  0  0
  150.7035  144.8462  157.7126 H   0  0  0  0  0  0  0  0  0  0  0  0
  150.9005  146.3367  159.7174 H   0  0  0  0  0  0  0  0  0  0  0  0
  151.9781  145.5119  161.8013 H   0  0  0  0  0  0  0  0  0  0  0  0
  152.8841  143.1784  161.9258 H   0  0  0  0  0  0  0  0  0  0  0  0
  1  2  1  0  0  0  0
  1 17  1  0  0  0  0
  1 18  1  0  0  0  0
  1 19  1  0  0  0  0
  2  3  1  0  0  0  0
  2 20  1  0  0  0  0
  2 21  1  0  0  0  0
  3 16  1  0  0  0  0
  3  4  1  0  0  0  0
  4  5  2  0  0  0  0
  4  6  1  0  0  0  0
  6  7  1  0  0  0  0
  6 11  1  0  0  0  0
  7  8  1  0  0  0  0
  7 22  1  0  0  0  0
  7 23  1  0  0  0  0
  8  9  1  0  0  0  0
  8 10  1  0  0  0  0
  8 24  1  0  0  0  0
  9 25  1  0  0  0  0
  9 26  1  0  0  0  0
  9 27  1  0  0  0  0
 10 28  1  0  0  0  0
 11 16  2  0  0  0  0
 11 12  1  0  0  0  0
 12 13  2  0  0  0  0
 12 29  1  0  0  0  0
 13 14  1  0  0  0  0
 13 30  1  0  0  0  0
 14 15  2  0  0  0  0
 14 31  1  0  0  0  0
 15 16  1  0  0  0  0
 15 32  1  0  0  0  0
M  END
> <s_m_source_file>
AV-unprocessed.smi

> <i_m_source_file_index>
2738

> <i_lp_mmshare_version>
43012

> <i_f3d_flags>
0

> <s_epik_input>
W2NIXTFbY0hdW2NIXVtjSF1jKGMxMiluKFtDSDJdW0NIM10pYyg9TyluMltDSDJdW0NASF0oW0NIM10pW09IXQ==

> <s_epik_cmdline>
J2VwaWtfcHl0aG9uJywgJy1waCcsICc3LjAnLCAnLXRuJywgJzgnLCAnLW1hJywgJzIwMCcsICctbWV0YWxfYmluZGluZycsICctaW1hZScsICc8aW5maWxlLm1hZT4nLCAnLW9tYWUnLCAnPG91dGZpbGUubWFlPic=

> <r_lp_tautomer_probability>
1

> <r_epik_Ionization_Penalty>
5.28302e-08

> <r_epik_Ionization_Penalty_Charging>
2.52071e-09

> <r_epik_Ionization_Penalty_Neutral>
5.03095e-08

> <r_epik_State_Penalty>
-0

> <r_epik_Charging_Adjusted_Penalty>
2.52071e-09

> <i_epik_Tot_Q>
0

> <i_epik_Tot_abs_Q>
0

> <r_epik_Metal_State_Penalty>
-0

> <b_epik_Metal_Only>
0

> <s_lp_Force_Field>
OPLS_2005

> <r_lp_Energy>
38.1008

> <b_lp_Chiralities_Consistent>
1

> <s_lp_Variant>
AV-unprocessed.smi:2738-1

> <Gold.Version>
5.8.1

> <Gold.Id.Protein>
6NUR|6NUR_protein|mol2

> <Gold.PLP.Fitness>
45.1509

> <Gold.PLP.PLP>
-39.7663

> <Gold.PLP.part.hbond>
-2.0000

> <Gold.PLP.part.metal>
0.0000

> <Gold.PLP.part.buried>
-4.4752

> <Gold.PLP.part.nonpolar>
-34.0629

> <Gold.PLP.part.repulsive>
0.0000

> <Gold.PLP.ligand.clash>
0.0000

> <Gold.PLP.ligand.torsion>
0.3114

> <Gold.PLP.Chemscore.Hbond>
2.0000

> <Gold.PLP.Chemscore.CHOScore>
0.0000

> <Gold.PLP.Chemscore.Metal>
0.0000

> <Gold.Chemscore.Hbonds>
donor molecule, donor type, donor heavy atom, donor atom, acceptor molecule, acceptor atom, score
      L1  H    10    28       P1  8028  1.00
      P1  H  7997  8010       L1     5  0.81

> <Gold.PLP.Chemscore.Internal.Correction>
0.0073

> <Gold.Rescore>
     Score         DG    S(hbond)    S(metal)    S(lipo)     H(rot)  DE(clash)    DE(int)     intcor
     18.87     -19.42       1.85        0.00     105.92       1.81       0.04       0.51       ----

> <Gold.Chemscore.Fitness>
18.8683

> <Gold.Chemscore.DG>
-19.4212

> <Gold.Chemscore.ZeroCoef>
-5.4800

> <Gold.Chemscore.Hbond>
1.8516

> <Gold.Chemscore.Metal>
0.0000

> <Gold.Chemscore.Lipo>
105.9210

> <Gold.Chemscore.Internal_Hbond>
0.0000

> <Gold.Chemscore.DEClash>
0.0384

> <Gold.Chemscore.DEInternal>
0.5145

> <Gold.Chemscore.Rot>
1.8109

> <Gold.Chemscore.Internal.Correction>
   9.000000E+99

> <Gold.Chemscore.Hbonds>
donor molecule, donor type, donor heavy atom, donor atom, acceptor molecule, acceptor atom, score
      L1  H    10    28       P1  8028  0.98
      P1  H  7997  8010       L1     5  0.62

> <Gold.Chemscore.Hbond.Weighted>
-6.1843

> <Gold.Chemscore.Metal.Weighted>
-0.0000

> <Gold.Chemscore.Lipo.Weighted>
-12.3928

> <Gold.Chemscore.Internal_Hbond.Weighted>
0.0000

> <Gold.Chemscore.DEClash.Weighted>
0.0384

> <Gold.Chemscore.DEInternal.Weighted>
0.5145

> <Gold.Chemscore.Rot.Weighted>
4.6358

> <Gold.Chemscore.Internal.Correction.Weighted>
   9.000000E+99

> <Gold.Protein.RotatedTorsions>
[ 6907 6896 6895 6894 ] final  146.73 input  -60.11 | X-H torsion
[ 7974 7965 7964 7962 ] final  -66.89 input  175.53 | X-H torsion
[ 8008 7997 7996 7995 ] final   52.16 input   59.86 | X-H torsion
[ 10167 10162 10161 10158 ] final   90.41 input  -65.29 | X-H torsion
[ 10718 10713 10712 10709 ] final -101.76 input   66.30 | X-H torsion
[ 10763 10752 10751 10750 ] final   95.22 input  -60.55 | X-H torsion
[ 11005 11000 10999 10996 ] final   63.24 input  -57.11 | X-H torsion

> <Gold.Protein.ActiveResidues>
 VAL166  LYS551  ARG553  GLY616  TRP617  ASP618  TYR619  PRO620  LYS621  CYS622 
 ASP623  PHE694  ASN695  SER759  ASP760  ASP761  ALA762  ILE779  LEU786  VAL792 
 PHE793  MET794  SER795  GLU796  ALA797  LYS798  CYS799  TRP800  GLU811  SER814 

> <Gold.Protein.RotatedAtoms>
  152.1641  133.4600  159.4875 H   0  0  0  0  0  0  0  0  0  0  0  0  # atno 6907 bound_to 6896
  150.6910  134.2035  159.4340 H   0  0  0  0  0  0  0  0  0  0  0  0  # atno 6908 bound_to 6896
  151.9939  134.9964  160.0613 H   0  0  0  0  0  0  0  0  0  0  0  0  # atno 6909 bound_to 6896
  145.7360  140.8975  143.0555 H   0  0  0  0  0  0  0  0  0  0  0  0  # atno 7974 bound_to 7965
  155.4472  140.3457  155.4296 H   0  0  0  0  0  0  0  0  0  0  0  0  # atno 8008 bound_to 7997
  156.1243  140.1496  156.9190 H   0  0  0  0  0  0  0  0  0  0  0  0  # atno 8009 bound_to 7997
  154.4846  140.0859  156.7436 H   0  0  0  0  0  0  0  0  0  0  0  0  # atno 8010 bound_to 7997
  139.8476  144.6610  150.9208 H   0  0  0  0  0  0  0  0  0  0  0  0  # atno 10167 bound_to 10162
  156.0205  130.5388  150.7010 H   0  0  0  0  0  0  0  0  0  0  0  0  # atno 10718 bound_to 10713
  153.2507  135.4262  155.0794 H   0  0  0  0  0  0  0  0  0  0  0  0  # atno 10763 bound_to 10752
  154.8380  135.3425  154.6517 H   0  0  0  0  0  0  0  0  0  0  0  0  # atno 10764 bound_to 10752
  153.6939  135.7032  153.5139 H   0  0  0  0  0  0  0  0  0  0  0  0  # atno 10765 bound_to 10752
  140.0038  134.6401  155.9888 H   0  0  0  0  0  0  0  0  0  0  0  0  # atno 11005 bound_to 11000
  144.6881  139.9396  143.7474 LP  0  0  0  0  0  0  0  0  0  0  0  0  # atno 17320 bound_to 7965
  146.0493  139.3495  143.0649 LP  0  0  0  0  0  0  0  0  0  0  0  0  # atno 17321 bound_to 7965
  140.7791  143.3856  151.1400 LP  0  0  0  0  0  0  0  0  0  0  0  0  # atno 17342 bound_to 10162
  139.7497  143.8798  152.3073 LP  0  0  0  0  0  0  0  0  0  0  0  0  # atno 17343 bound_to 10162
  157.4670  131.0889  151.0683 LP  0  0  0  0  0  0  0  0  0  0  0  0  # atno 17370 bound_to 10713
  157.1155  130.6039  149.5492 LP  0  0  0  0  0  0  0  0  0  0  0  0  # atno 17371 bound_to 10713
  141.1661  133.6537  156.4486 LP  0  0  0  0  0  0  0  0  0  0  0  0  # atno 17394 bound_to 11000
  140.4679  134.6780  157.5116 LP  0  0  0  0  0  0  0  0  0  0  0  0  # atno 17395 bound_to 11000

$$$$
