AV-unprocessed.smi:1130|AV-procd|sdf|4849|dock6
  -GOLD-   22720 3413D 1   1.00000     0.00000
 Structure written by MMmdl.
 36 37  0  0  0  0  0  0  0  0  1 V2000
  144.8334  132.4642  150.9151 C   0  0  0  0  0  0  0  0  0  0  0  0
  145.9656  132.7738  151.8339 C   0  0  0  0  0  0  0  0  0  0  0  0
  146.0361  133.9312  152.4802 N   0  0  0  0  0  0  0  0  0  0  0  0
  147.2181  133.8136  153.2256 O   0  0  0  0  0  0  0  0  0  0  0  0
  147.7290  132.5968  152.9186 C   0  0  0  0  0  0  0  0  0  0  0  0
  148.9775  132.1459  153.5989 C   0  0  0  0  0  0  0  0  0  0  0  0
  149.3808  133.0754  154.7552 C   0  0  0  0  0  0  0  0  0  0  0  0
  149.4904  134.4639  154.3221 N   0  0  0  0  0  0  0  0  0  0  0  0
  150.3457  135.3604  154.8330 C   0  0  0  0  0  0  0  0  0  0  0  0
  151.1511  135.1103  155.7299 O   0  0  0  0  0  0  0  0  0  0  0  0
  150.2188  136.5593  154.2476 N   0  0  0  0  0  0  0  0  0  0  0  0
  151.0260  137.7328  154.5619 C   0  0  0  0  0  0  0  0  0  0  0  0
  150.3405  139.0268  154.0943 C   0  0  1  0  0  0  0  0  0  0  0  0
  148.8422  139.0645  154.3855 C   0  0  0  0  0  0  0  0  0  0  0  0
  148.5695  140.5512  154.3754 C   0  0  0  0  0  0  0  0  0  0  0  0
  149.8281  141.1084  155.0357 C   0  0  0  0  0  0  0  0  0  0  0  0
  150.8638  140.1638  154.7763 O   0  0  0  0  0  0  0  0  0  0  0  0
  146.9808  131.8980  152.0684 N   0  0  0  0  0  0  0  0  0  0  0  0
  144.0985  133.2698  150.9151 H   0  0  0  0  0  0  0  0  0  0  0  0
  144.3361  131.5454  151.2265 H   0  0  0  0  0  0  0  0  0  0  0  0
  145.2008  132.3324  149.8971 H   0  0  0  0  0  0  0  0  0  0  0  0
  148.8235  131.1291  153.9621 H   0  0  0  0  0  0  0  0  0  0  0  0
  149.7776  132.0958  152.8593 H   0  0  0  0  0  0  0  0  0  0  0  0
  148.6336  133.0268  155.5477 H   0  0  0  0  0  0  0  0  0  0  0  0
  150.3239  132.7480  155.1965 H   0  0  0  0  0  0  0  0  0  0  0  0
  148.8672  134.7638  153.5866 H   0  0  0  0  0  0  0  0  0  0  0  0
  149.5263  136.6645  153.5207 H   0  0  0  0  0  0  0  0  0  0  0  0
  151.1589  137.7612  155.6435 H   0  0  0  0  0  0  0  0  0  0  0  0
  152.0253  137.6483  154.1315 H   0  0  0  0  0  0  0  0  0  0  0  0
  150.4979  139.1730  153.0243 H   0  0  0  0  0  0  0  0  0  0  0  0
  148.2515  138.5153  153.6520 H   0  0  0  0  0  0  0  0  0  0  0  0
  148.6304  138.6532  155.3736 H   0  0  0  0  0  0  0  0  0  0  0  0
  148.4938  140.9088  153.3476 H   0  0  0  0  0  0  0  0  0  0  0  0
  147.6549  140.8254  154.9017 H   0  0  0  0  0  0  0  0  0  0  0  0
  150.0887  142.0969  154.6568 H   0  0  0  0  0  0  0  0  0  0  0  0
  149.6937  141.1851  156.1150 H   0  0  0  0  0  0  0  0  0  0  0  0
  1  2  1  0  0  0  0
  1 19  1  0  0  0  0
  1 20  1  0  0  0  0
  1 21  1  0  0  0  0
  2 18  1  0  0  0  0
  2  3  2  0  0  0  0
  3  4  1  0  0  0  0
  4  5  1  0  0  0  0
  5  6  1  0  0  0  0
  5 18  2  0  0  0  0
  6  7  1  0  0  0  0
  6 22  1  0  0  0  0
  6 23  1  0  0  0  0
  7  8  1  0  0  0  0
  7 24  1  0  0  0  0
  7 25  1  0  0  0  0
  8  9  1  0  0  0  0
  8 26  1  0  0  0  0
  9 10  2  0  0  0  0
  9 11  1  0  0  0  0
 11 12  1  0  0  0  0
 11 27  1  0  0  0  0
 12 13  1  0  0  0  0
 12 28  1  0  0  0  0
 12 29  1  0  0  0  0
 13 17  1  0  0  0  0
 13 14  1  0  0  0  0
 13 30  1  0  0  0  0
 14 15  1  0  0  0  0
 14 31  1  0  0  0  0
 14 32  1  0  0  0  0
 15 16  1  0  0  0  0
 15 33  1  0  0  0  0
 15 34  1  0  0  0  0
 16 17  1  0  0  0  0
 16 35  1  0  0  0  0
 16 36  1  0  0  0  0
M  END
> <s_m_source_file>
AV-unprocessed.smi

> <i_m_source_file_index>
1130

> <i_lp_mmshare_version>
43012

> <i_f3d_flags>
0

> <s_epik_input>
W0NIM11jMW5vYyhuMSlbQ0gyXVtDSDJdW05IXUMoPU8pW05IXVtDSDJdW0NAQEhdMltDSDJdW0NIMl1bQ0gyXU8y

> <s_epik_cmdline>
J2VwaWtfcHl0aG9uJywgJy1waCcsICc3LjAnLCAnLXRuJywgJzgnLCAnLW1hJywgJzIwMCcsICctbWV0YWxfYmluZGluZycsICctaW1hZScsICc8aW5maWxlLm1hZT4nLCAnLW9tYWUnLCAnPG91dGZpbGUubWFlPic=

> <r_lp_tautomer_probability>
1

> <r_epik_Ionization_Penalty>
4.67036e-05

> <r_epik_Ionization_Penalty_Charging>
0

> <r_epik_Ionization_Penalty_Neutral>
4.67036e-05

> <r_epik_State_Penalty>
-0

> <r_epik_Charging_Adjusted_Penalty>
0

> <i_epik_Tot_Q>
0

> <i_epik_Tot_abs_Q>
0

> <r_epik_Metal_State_Penalty>
-0

> <b_epik_Metal_Only>
0

> <s_lp_Force_Field>
OPLS_2005

> <r_lp_Energy>
9.65739

> <b_lp_Chiralities_Consistent>
1

> <s_lp_Variant>
AV-unprocessed.smi:1130-2

> <Gold.Version>
5.8.1

> <Gold.Id.Protein>
6NUR|6NUR_protein|mol2

> <Gold.PLP.Fitness>
39.6937

> <Gold.PLP.PLP>
-31.1184

> <Gold.PLP.part.hbond>
-5.0000

> <Gold.PLP.part.metal>
0.0000

> <Gold.PLP.part.buried>
-1.5051

> <Gold.PLP.part.nonpolar>
-24.8092

> <Gold.PLP.part.repulsive>
1.1340

> <Gold.PLP.ligand.clash>
0.0000

> <Gold.PLP.ligand.torsion>
0.6228

> <Gold.PLP.Chemscore.Hbond>
3.2542

> <Gold.PLP.Chemscore.CHOScore>
0.0000

> <Gold.PLP.Chemscore.Metal>
0.0000

> <Gold.Chemscore.Hbonds>
donor molecule, donor type, donor heavy atom, donor atom, acceptor molecule, acceptor atom, score
      L1  H     8    26       P1  7948  0.36
      L1  H    11    27       P1  7948  0.94
      P1  H  7989  7998       L1    17  0.90
      P1  H 10752 10763       L1    10  0.86

> <Gold.PLP.Chemscore.Internal.Correction>
0.0584

> <Gold.Rescore>
     Score         DG    S(hbond)    S(metal)    S(lipo)     H(rot)  DE(clash)    DE(int)     intcor
     12.44     -14.02       2.45        0.00      54.15       2.33       0.92       0.67       ----

> <Gold.Chemscore.Fitness>
12.4351

> <Gold.Chemscore.DG>
-14.0218

> <Gold.Chemscore.ZeroCoef>
-5.4800

> <Gold.Chemscore.Hbond>
2.4456

> <Gold.Chemscore.Metal>
0.0000

> <Gold.Chemscore.Lipo>
54.1479

> <Gold.Chemscore.Internal_Hbond>
0.0000

> <Gold.Chemscore.DEClash>
0.9176

> <Gold.Chemscore.DEInternal>
0.6691

> <Gold.Chemscore.Rot>
2.3288

> <Gold.Chemscore.Internal.Correction>
   9.000000E+99

> <Gold.Chemscore.Hbonds>
donor molecule, donor type, donor heavy atom, donor atom, acceptor molecule, acceptor atom, score
      L1  H     8    26       P1  7948  0.12
      L1  H    11    27       P1  7948  0.68
      P1  H  7989  7998       L1    17  0.05
      P1  H 10752 10763       L1    10  0.35

> <Gold.Chemscore.Hbond.Weighted>
-8.1682

> <Gold.Chemscore.Metal.Weighted>
-0.0000

> <Gold.Chemscore.Lipo.Weighted>
-6.3353

> <Gold.Chemscore.Internal_Hbond.Weighted>
0.0000

> <Gold.Chemscore.DEClash.Weighted>
0.9176

> <Gold.Chemscore.DEInternal.Weighted>
0.6691

> <Gold.Chemscore.Rot.Weighted>
5.9617

> <Gold.Chemscore.Internal.Correction.Weighted>
   9.000000E+99

> <Gold.Protein.RotatedTorsions>
[ 6907 6896 6895 6894 ] final    2.32 input  -60.11 | X-H torsion
[ 7974 7965 7964 7962 ] final   93.39 input  175.53 | X-H torsion
[ 8008 7997 7996 7995 ] final  -17.50 input   59.86 | X-H torsion
[ 10167 10162 10161 10158 ] final   50.45 input  -65.29 | X-H torsion
[ 10718 10713 10712 10709 ] final   23.62 input   66.30 | X-H torsion
[ 10763 10752 10751 10750 ] final   76.21 input  -60.55 | X-H torsion
[ 11005 11000 10999 10996 ] final  -34.50 input  -57.11 | X-H torsion

> <Gold.Protein.ActiveResidues>
 VAL166  LYS551  ARG553  GLY616  TRP617  ASP618  TYR619  PRO620  LYS621  CYS622 
 ASP623  PHE694  ASN695  SER759  ASP760  ASP761  ALA762  ILE779  LEU786  VAL792 
 PHE793  MET794  SER795  GLU796  ALA797  LYS798  CYS799  TRP800  GLU811  SER814 

> <Gold.Protein.RotatedAtoms>
  151.6070  135.1043  160.0072 H   0  0  0  0  0  0  0  0  0  0  0  0  # atno 6907 bound_to 6896
  152.4228  133.7140  159.6506 H   0  0  0  0  0  0  0  0  0  0  0  0  # atno 6908 bound_to 6896
  150.8116  133.8339  159.3201 H   0  0  0  0  0  0  0  0  0  0  0  0  # atno 6909 bound_to 6896
  145.4796  139.2279  143.2890 H   0  0  0  0  0  0  0  0  0  0  0  0  # atno 7974 bound_to 7965
  154.4974  140.2141  155.9418 H   0  0  0  0  0  0  0  0  0  0  0  0  # atno 8008 bound_to 7997
  156.1388  140.3183  155.8431 H   0  0  0  0  0  0  0  0  0  0  0  0  # atno 8009 bound_to 7997
  155.4159  140.0493  157.3019 H   0  0  0  0  0  0  0  0  0  0  0  0  # atno 8010 bound_to 7997
  140.2723  144.3251  150.6286 H   0  0  0  0  0  0  0  0  0  0  0  0  # atno 10167 bound_to 10162
  157.1686  130.6749  149.6069 H   0  0  0  0  0  0  0  0  0  0  0  0  # atno 10718 bound_to 10713
  153.0709  135.4960  154.8302 H   0  0  0  0  0  0  0  0  0  0  0  0  # atno 10763 bound_to 10752
  154.7021  135.3003  154.9328 H   0  0  0  0  0  0  0  0  0  0  0  0  # atno 10764 bound_to 10752
  154.0049  135.6761  153.4814 H   0  0  0  0  0  0  0  0  0  0  0  0  # atno 10765 bound_to 10752
  140.9721  133.7103  156.1542 H   0  0  0  0  0  0  0  0  0  0  0  0  # atno 11005 bound_to 11000
  146.2349  140.5581  142.8959 LP  0  0  0  0  0  0  0  0  0  0  0  0  # atno 17320 bound_to 7965
  144.7897  140.6007  143.6550 LP  0  0  0  0  0  0  0  0  0  0  0  0  # atno 17321 bound_to 7965
  140.5879  143.2169  151.7307 LP  0  0  0  0  0  0  0  0  0  0  0  0  # atno 17342 bound_to 10162
  139.4985  144.3983  152.0208 LP  0  0  0  0  0  0  0  0  0  0  0  0  # atno 17343 bound_to 10162
  155.9742  130.4687  150.6368 LP  0  0  0  0  0  0  0  0  0  0  0  0  # atno 17370 bound_to 10713
  157.4065  131.0817  151.1261 LP  0  0  0  0  0  0  0  0  0  0  0  0  # atno 17371 bound_to 10713
  140.7313  134.4252  157.5565 LP  0  0  0  0  0  0  0  0  0  0  0  0  # atno 17394 bound_to 11000
  139.8916  134.8775  156.2310 LP  0  0  0  0  0  0  0  0  0  0  0  0  # atno 17395 bound_to 11000

$$$$
