AV-unprocessed.smi:1815|AV-procd|sdf|7362|dock2
  -GOLD-   22720 9 23D 1   1.00000     0.00000
 Structure written by MMmdl.
 39 40  0  0  0  0  0  0  0  0  3 V2000
  146.1732  131.9484  150.2192 C   0  0  0  0  0  0  0  0  0  0  0  0
  146.4512  133.2622  150.9581 C   0  0  2  0  0  0  0  0  0  0  0  0
  147.0412  133.0254  152.3611 C   0  0  0  0  0  0  0  0  0  0  0  0
  147.2216  134.3108  153.0770 N   0  3  2  0  0  0  0  0  0  0  0  0
  147.8431  134.1276  154.4121 C   0  0  0  0  0  0  0  0  0  0  0  0
  149.3751  134.2373  154.3697 C   0  0  0  0  0  0  0  0  0  0  0  0
  149.7733  135.6095  154.0903 N   0  0  0  0  0  0  0  0  0  0  0  0
  150.7013  136.2983  154.7670 C   0  0  0  0  0  0  0  0  0  0  0  0
  151.2895  135.7699  155.7132 O   0  0  0  0  0  0  0  0  0  0  0  0
  150.8878  137.5543  154.3031 N   0  5  0  0  0  0  0  0  0  0  0  0
  150.9563  138.5860  155.1600 C   0  0  0  0  0  0  0  0  0  0  0  0
  151.1627  139.8472  154.7645 N   0  0  0  0  0  0  0  0  0  0  0  0
  151.1869  140.7629  155.8182 C   0  0  0  0  0  0  0  0  0  0  0  0
  150.9849  140.1863  157.0441 C   0  0  0  0  0  0  0  0  0  0  0  0
  150.7598  138.4653  156.9111 S   0  0  0  0  0  0  0  0  0  0  0  0
  145.9439  135.0643  153.1120 C   0  0  0  0  0  0  0  0  0  0  0  0
  145.3859  135.2472  151.6878 C   0  0  2  0  0  0  0  0  0  0  0  0
  144.0265  135.9552  151.6864 C   0  0  0  0  0  0  0  0  0  0  0  0
  145.2221  133.9689  151.0837 O   0  0  0  0  0  0  0  0  0  0  0  0
  147.0880  131.3707  150.0850 H   0  0  0  0  0  0  0  0  0  0  0  0
  145.7537  132.1384  149.2308 H   0  0  0  0  0  0  0  0  0  0  0  0
  145.4633  131.3284  150.7675 H   0  0  0  0  0  0  0  0  0  0  0  0
  147.1469  133.8547  150.3614 H   0  0  0  0  0  0  0  0  0  0  0  0
  146.3849  132.3754  152.9429 H   0  0  0  0  0  0  0  0  0  0  0  0
  148.0015  132.5157  152.2726 H   0  0  0  0  0  0  0  0  0  0  0  0
  147.4233  134.8470  155.1171 H   0  0  0  0  0  0  0  0  0  0  0  0
  147.5846  133.1370  154.7899 H   0  0  0  0  0  0  0  0  0  0  0  0
  149.8047  133.9268  155.3233 H   0  0  0  0  0  0  0  0  0  0  0  0
  149.7894  133.5884  153.5979 H   0  0  0  0  0  0  0  0  0  0  0  0
  149.3149  136.0786  153.3228 H   0  0  0  0  0  0  0  0  0  0  0  0
  151.3520  141.8081  155.6029 H   0  0  0  0  0  0  0  0  0  0  0  0
  150.9537  140.6651  158.0112 H   0  0  0  0  0  0  0  0  0  0  0  0
  145.2233  134.5308  153.7340 H   0  0  0  0  0  0  0  0  0  0  0  0
  146.0925  136.0439  153.5649 H   0  0  0  0  0  0  0  0  0  0  0  0
  146.0840  135.8386  151.0926 H   0  0  0  0  0  0  0  0  0  0  0  0
  144.0995  136.9463  152.1350 H   0  0  0  0  0  0  0  0  0  0  0  0
  143.2844  135.3872  152.2481 H   0  0  0  0  0  0  0  0  0  0  0  0
  143.6520  136.0780  150.6698 H   0  0  0  0  0  0  0  0  0  0  0  0
  147.8732  134.8542  152.5287 H   0  0  0  0  0  0  0  0  0  0  0  0
  1  2  1  0  0  0  0
  1 20  1  0  0  0  0
  1 21  1  0  0  0  0
  1 22  1  0  0  0  0
  2 19  1  0  0  0  0
  2  3  1  0  0  0  0
  2 23  1  0  0  0  0
  3  4  1  0  0  0  0
  3 24  1  0  0  0  0
  3 25  1  0  0  0  0
  4  5  1  0  0  0  0
  4 16  1  0  0  0  0
  4 39  1  0  0  0  0
  5  6  1  0  0  0  0
  5 26  1  0  0  0  0
  5 27  1  0  0  0  0
  6  7  1  0  0  0  0
  6 28  1  0  0  0  0
  6 29  1  0  0  0  0
  7  8  1  0  0  0  0
  7 30  1  0  0  0  0
  8  9  2  0  0  0  0
  8 10  1  0  0  0  0
 10 11  1  0  0  0  0
 11 15  1  0  0  0  0
 11 12  2  0  0  0  0
 12 13  1  0  0  0  0
 13 14  2  0  0  0  0
 13 31  1  0  0  0  0
 14 15  1  0  0  0  0
 14 32  1  0  0  0  0
 16 17  1  0  0  0  0
 16 33  1  0  0  0  0
 16 34  1  0  0  0  0
 17 18  1  0  0  0  0
 17 19  1  0  0  0  0
 17 35  1  0  0  0  0
 18 36  1  0  0  0  0
 18 37  1  0  0  0  0
 18 38  1  0  0  0  0
M  CHG  1   4   1
M  CHG  1  10  -1
M  END
> <s_m_source_file>
AV-unprocessed.smi

> <i_m_source_file_index>
1815

> <i_lp_mmshare_version>
43012

> <i_f3d_flags>
0

> <s_epik_input>
W0NIM11bQ0BASF0xW0NIMl1OKFtDSDJdW0NASF0oTzEpW0NIM10pW0NIMl1bQ0gyXVtOSF1DKD1PKVtOSF1jMm5bY0hdW2NIXXMy

> <s_epik_cmdline>
J2VwaWtfcHl0aG9uJywgJy1waCcsICc3LjAnLCAnLXRuJywgJzgnLCAnLW1hJywgJzIwMCcsICctbWV0YWxfYmluZGluZycsICctaW1hZScsICc8aW5maWxlLm1hZT4nLCAnLW9tYWUnLCAnPG91dGZpbGUubWFlPic=

> <r_lp_tautomer_probability>
0.999

> <r_epik_Ionization_Penalty>
6.71699

> <r_epik_Ionization_Penalty_Charging>
5.88592

> <r_epik_Ionization_Penalty_Neutral>
0.831074

> <r_epik_State_Penalty>
6.08365

> <r_epik_Charging_Adjusted_Penalty>
11.9696

> <i_epik_Tot_Q>
0

> <i_epik_Tot_abs_Q>
2

> <r_epik_Metal_State_Penalty>
2.0947

> <b_epik_Metal_Only>
1

> <s_lp_Force_Field>
OPLS_2005

> <r_lp_Energy>
4.96906

> <b_lp_Chiralities_Consistent>
1

> <s_lp_Variant>
AV-unprocessed.smi:1815-13

> <Gold.Version>
5.8.1

> <Gold.Id.Protein>
6NUR|6NUR_protein|mol2

> <Gold.PLP.Fitness>
41.2402

> <Gold.PLP.PLP>
-27.9670

> <Gold.PLP.part.hbond>
-4.8120

> <Gold.PLP.part.metal>
0.0000

> <Gold.PLP.part.buried>
-0.5691

> <Gold.PLP.part.nonpolar>
-22.6528

> <Gold.PLP.part.repulsive>
0.5060

> <Gold.PLP.ligand.clash>
0.0000

> <Gold.PLP.ligand.torsion>
0.9385

> <Gold.PLP.Chemscore.Hbond>
5.0000

> <Gold.PLP.Chemscore.CHOScore>
0.0000

> <Gold.PLP.Chemscore.Metal>
0.0000

> <Gold.Chemscore.Hbonds>
donor molecule, donor type, donor heavy atom, donor atom, acceptor molecule, acceptor atom, score
      L1  H     4    39       P1  7948  2.00
      L1  H     7    30       P1  7948  0.88
      P1  H  7989  7998       L1    12  1.00
      P1  H 10752 10765       L1     9  1.00

> <Gold.PLP.Chemscore.Internal.Correction>
0.1503

> <Gold.Rescore>
     Score         DG    S(hbond)    S(metal)    S(lipo)     H(rot)  DE(clash)    DE(int)     intcor
     16.77     -18.76       3.15        0.00      58.65       1.61       0.74       1.25       ----

> <Gold.Chemscore.Fitness>
16.7749

> <Gold.Chemscore.DG>
-18.7613

> <Gold.Chemscore.ZeroCoef>
-5.4800

> <Gold.Chemscore.Hbond>
3.1530

> <Gold.Chemscore.Metal>
0.0000

> <Gold.Chemscore.Lipo>
58.6452

> <Gold.Chemscore.Internal_Hbond>
0.0000

> <Gold.Chemscore.DEClash>
0.7397

> <Gold.Chemscore.DEInternal>
1.2467

> <Gold.Chemscore.Rot>
1.6060

> <Gold.Chemscore.Internal.Correction>
   9.000000E+99

> <Gold.Chemscore.Hbonds>
donor molecule, donor type, donor heavy atom, donor atom, acceptor molecule, acceptor atom, score
      L1  H     4    39       P1  7948  0.85
      L1  H     7    30       P1  7948  0.53
      P1  H  7989  7998       L1    12  0.26
      P1  H 10752 10765       L1     9  0.39

> <Gold.Chemscore.Hbond.Weighted>
-10.5310

> <Gold.Chemscore.Metal.Weighted>
-0.0000

> <Gold.Chemscore.Lipo.Weighted>
-6.8615

> <Gold.Chemscore.Internal_Hbond.Weighted>
0.0000

> <Gold.Chemscore.DEClash.Weighted>
0.7397

> <Gold.Chemscore.DEInternal.Weighted>
1.2467

> <Gold.Chemscore.Rot.Weighted>
4.1112

> <Gold.Chemscore.Internal.Correction.Weighted>
   9.000000E+99

> <Gold.Protein.RotatedTorsions>
[ 6907 6896 6895 6894 ] final  -90.90 input  -60.11 | X-H torsion
[ 7974 7965 7964 7962 ] final  141.32 input  175.53 | X-H torsion
[ 8008 7997 7996 7995 ] final  -66.64 input   59.86 | X-H torsion
[ 10167 10162 10161 10158 ] final  -69.19 input  -65.29 | X-H torsion
[ 10718 10713 10712 10709 ] final  -33.50 input   66.30 | X-H torsion
[ 10763 10752 10751 10750 ] final -153.85 input  -60.55 | X-H torsion
[ 11005 11000 10999 10996 ] final  -46.64 input  -57.11 | X-H torsion

> <Gold.Protein.ActiveResidues>
 VAL166  LYS551  ARG553  GLY616  TRP617  ASP618  TYR619  PRO620  LYS621  CYS622 
 ASP623  PHE694  ASN695  SER759  ASP760  ASP761  ALA762  ILE779  LEU786  VAL792 
 PHE793  MET794  SER795  GLU796  ALA797  LYS798  CYS799  TRP800  GLU811  SER814 

> <Gold.Protein.RotatedAtoms>
  150.6886  134.2361  159.4453 H   0  0  0  0  0  0  0  0  0  0  0  0  # atno 6907 bound_to 6896
  152.0308  134.9766  160.0582 H   0  0  0  0  0  0  0  0  0  0  0  0  # atno 6908 bound_to 6896
  152.1306  133.4371  159.4756 H   0  0  0  0  0  0  0  0  0  0  0  0  # atno 6909 bound_to 6896
  144.9107  139.5297  143.5710 H   0  0  0  0  0  0  0  0  0  0  0  0  # atno 7974 bound_to 7965
  154.4748  140.0908  156.7234 H   0  0  0  0  0  0  0  0  0  0  0  0  # atno 8008 bound_to 7997
  155.4627  140.3461  155.4296 H   0  0  0  0  0  0  0  0  0  0  0  0  # atno 8009 bound_to 7997
  156.1098  140.1444  156.9343 H   0  0  0  0  0  0  0  0  0  0  0  0  # atno 8010 bound_to 7997
  140.5450  143.2313  151.7019 H   0  0  0  0  0  0  0  0  0  0  0  0  # atno 10167 bound_to 10162
  156.3620  130.4325  149.7616 H   0  0  0  0  0  0  0  0  0  0  0  0  # atno 10718 bound_to 10713
  154.7900  135.3203  154.7800 H   0  0  0  0  0  0  0  0  0  0  0  0  # atno 10763 bound_to 10752
  153.8491  135.6864  153.4798 H   0  0  0  0  0  0  0  0  0  0  0  0  # atno 10764 bound_to 10752
  153.1566  135.4678  154.9653 H   0  0  0  0  0  0  0  0  0  0  0  0  # atno 10765 bound_to 10752
  141.0592  133.6715  156.3184 H   0  0  0  0  0  0  0  0  0  0  0  0  # atno 11005 bound_to 11000
  146.3157  139.7911  142.8985 LP  0  0  0  0  0  0  0  0  0  0  0  0  # atno 17320 bound_to 7965
  145.3459  141.0297  143.3366 LP  0  0  0  0  0  0  0  0  0  0  0  0  # atno 17321 bound_to 7965
  139.5004  144.3909  152.0280 LP  0  0  0  0  0  0  0  0  0  0  0  0  # atno 17342 bound_to 10162
  140.3021  144.3634  150.6057 LP  0  0  0  0  0  0  0  0  0  0  0  0  # atno 17343 bound_to 10162
  156.4777  130.8026  151.3042 LP  0  0  0  0  0  0  0  0  0  0  0  0  # atno 17370 bound_to 10713
  157.7474  131.0016  150.2968 LP  0  0  0  0  0  0  0  0  0  0  0  0  # atno 17371 bound_to 10713
  140.5903  134.5657  157.5498 LP  0  0  0  0  0  0  0  0  0  0  0  0  # atno 17394 bound_to 11000
  139.9417  134.7775  156.0662 LP  0  0  0  0  0  0  0  0  0  0  0  0  # atno 17395 bound_to 11000

$$$$
