AV-unprocessed.smi:58|AV-procd|sdf|584|dock1
  -GOLD-   2262016483D 1   1.00000     0.00000
 Structure written by MMmdl.
 32 33  0  0  0  0  0  0  0  0  1 V2000
  152.5063  143.1266  159.9021 C   0  0  0  0  0  0  0  0  0  0  0  0
  152.3136  141.9878  159.0303 N   0  0  0  0  0  0  0  0  0  0  0  0
  152.6962  140.6787  159.2261 C   0  0  0  0  0  0  0  0  0  0  0  0
  152.3050  139.9699  158.1258 C   0  0  0  0  0  0  0  0  0  0  0  0
  152.5109  138.5900  157.9186 N   0  0  0  0  0  0  0  0  0  0  0  0
  151.6618  140.9467  157.3043 C   0  0  0  0  0  0  0  0  0  0  0  0
  151.1144  140.5895  155.9518 C   0  0  0  0  0  0  0  0  0  0  0  0
  151.8207  139.9619  155.1622 O   0  0  0  0  0  0  0  0  0  0  0  0
  149.8374  140.9461  155.6798 N   0  0  0  0  0  0  0  0  0  0  0  0
  148.9629  141.7184  156.5666 C   0  0  0  0  0  0  0  0  0  0  0  0
  147.5880  141.7463  155.8998 C   0  0  0  0  0  0  0  0  0  0  0  0
  147.8803  141.5190  154.4230 C   0  0  0  0  0  0  0  0  0  0  0  0
  149.1582  140.6695  154.4067 C   0  0  2  0  0  0  0  0  0  0  0  0
  148.9013  139.1606  154.1746 C   0  0  0  0  0  0  0  0  0  0  0  0
  148.2900  138.9072  152.9258 O   0  0  0  0  0  0  0  0  0  0  0  0
  151.6911  142.1571  157.8464 N   0  0  0  0  0  0  0  0  0  0  0  0
  152.9735  142.8088  160.8345 H   0  0  0  0  0  0  0  0  0  0  0  0
  151.5441  143.5878  160.1270 H   0  0  0  0  0  0  0  0  0  0  0  0
  153.1501  143.8588  159.4141 H   0  0  0  0  0  0  0  0  0  0  0  0
  153.2142  140.3646  160.1204 H   0  0  0  0  0  0  0  0  0  0  0  0
  152.9818  138.0134  158.6016 H   0  0  0  0  0  0  0  0  0  0  0  0
  152.1510  138.1125  157.1047 H   0  0  0  0  0  0  0  0  0  0  0  0
  148.9051  141.2847  157.5661 H   0  0  0  0  0  0  0  0  0  0  0  0
  149.3514  142.7337  156.6566 H   0  0  0  0  0  0  0  0  0  0  0  0
  146.9784  140.9277  156.2835 H   0  0  0  0  0  0  0  0  0  0  0  0
  147.0482  142.6753  156.0852 H   0  0  0  0  0  0  0  0  0  0  0  0
  147.0459  141.0571  153.8941 H   0  0  0  0  0  0  0  0  0  0  0  0
  148.0784  142.4795  153.9454 H   0  0  0  0  0  0  0  0  0  0  0  0
  149.7929  141.0248  153.5928 H   0  0  0  0  0  0  0  0  0  0  0  0
  149.8482  138.6208  154.2021 H   0  0  0  0  0  0  0  0  0  0  0  0
  148.2829  138.7333  154.9635 H   0  0  0  0  0  0  0  0  0  0  0  0
  148.9290  139.0501  152.2443 H   0  0  0  0  0  0  0  0  0  0  0  0
  1  2  1  0  0  0  0
  1 17  1  0  0  0  0
  1 18  1  0  0  0  0
  1 19  1  0  0  0  0
  2 16  1  0  0  0  0
  2  3  1  0  0  0  0
  3  4  2  0  0  0  0
  3 20  1  0  0  0  0
  4  5  1  0  0  0  0
  4  6  1  0  0  0  0
  5 21  1  0  0  0  0
  5 22  1  0  0  0  0
  6  7  1  0  0  0  0
  6 16  2  0  0  0  0
  7  8  2  0  0  0  0
  7  9  1  0  0  0  0
  9 13  1  0  0  0  0
  9 10  1  0  0  0  0
 10 11  1  0  0  0  0
 10 23  1  0  0  0  0
 10 24  1  0  0  0  0
 11 12  1  0  0  0  0
 11 25  1  0  0  0  0
 11 26  1  0  0  0  0
 12 13  1  0  0  0  0
 12 27  1  0  0  0  0
 12 28  1  0  0  0  0
 13 14  1  0  0  0  0
 13 29  1  0  0  0  0
 14 15  1  0  0  0  0
 14 30  1  0  0  0  0
 14 31  1  0  0  0  0
 15 32  1  0  0  0  0
M  END
> <s_m_source_file>
AV-unprocessed.smi

> <i_m_source_file_index>
58

> <i_lp_mmshare_version>
43012

> <i_f3d_flags>
0

> <s_epik_input>
W0NIM11uMVtjSF1jKFtOSDJdKWMobjEpQyg9TylOMltDSDJdW0NIMl1bQ0gyXVtDQEhdMltDSDJdW09IXQ==

> <s_epik_cmdline>
J2VwaWtfcHl0aG9uJywgJy1waCcsICc3LjAnLCAnLXRuJywgJzgnLCAnLW1hJywgJzIwMCcsICctbWV0YWxfYmluZGluZycsICctaW1hZScsICc8aW5maWxlLm1hZT4nLCAnLW9tYWUnLCAnPG91dGZpbGUubWFlPic=

> <r_lp_tautomer_probability>
1

> <r_epik_Ionization_Penalty>
5.64206e-05

> <r_epik_Ionization_Penalty_Charging>
0

> <r_epik_Ionization_Penalty_Neutral>
5.64206e-05

> <r_epik_State_Penalty>
-0

> <r_epik_Charging_Adjusted_Penalty>
0

> <i_epik_Tot_Q>
0

> <i_epik_Tot_abs_Q>
0

> <r_epik_Metal_State_Penalty>
-0

> <b_epik_Metal_Only>
0

> <s_lp_Force_Field>
OPLS_2005

> <r_lp_Energy>
44.4621

> <b_lp_Chiralities_Consistent>
1

> <s_lp_Variant>
AV-unprocessed.smi:58-2

> <Gold.Version>
5.8.1

> <Gold.Id.Protein>
6NUR|6NUR_protein|mol2

> <Gold.PLP.Fitness>
35.5996

> <Gold.PLP.PLP>
-31.2145

> <Gold.PLP.part.hbond>
-2.6534

> <Gold.PLP.part.metal>
0.0000

> <Gold.PLP.part.buried>
-3.4304

> <Gold.PLP.part.nonpolar>
-24.9733

> <Gold.PLP.part.repulsive>
0.1285

> <Gold.PLP.ligand.clash>
0.0000

> <Gold.PLP.ligand.torsion>
0.9261

> <Gold.PLP.Chemscore.Hbond>
1.9280

> <Gold.PLP.Chemscore.CHOScore>
0.0000

> <Gold.PLP.Chemscore.Metal>
0.0000

> <Gold.Chemscore.Hbonds>
donor molecule, donor type, donor heavy atom, donor atom, acceptor molecule, acceptor atom, score
      L1  H    15    32       P1  7957  1.00
      P1  H  7989  7998       L1     8  0.93

> <Gold.PLP.Chemscore.Internal.Correction>
0.4532

> <Gold.Rescore>
     Score         DG    S(hbond)    S(metal)    S(lipo)     H(rot)  DE(clash)    DE(int)     intcor
     13.67     -14.81       1.95        0.00      56.72       1.49       0.00       1.14       ----

> <Gold.Chemscore.Fitness>
13.6675

> <Gold.Chemscore.DG>
-14.8064

> <Gold.Chemscore.ZeroCoef>
-5.4800

> <Gold.Chemscore.Hbond>
1.9482

> <Gold.Chemscore.Metal>
0.0000

> <Gold.Chemscore.Lipo>
56.7151

> <Gold.Chemscore.Internal_Hbond>
0.0000

> <Gold.Chemscore.DEClash>
0.0000

> <Gold.Chemscore.DEInternal>
1.1389

> <Gold.Chemscore.Rot>
1.4907

> <Gold.Chemscore.Internal.Correction>
   9.000000E+99

> <Gold.Chemscore.Hbonds>
donor molecule, donor type, donor heavy atom, donor atom, acceptor molecule, acceptor atom, score
      L1  H    15    32       P1  7957  0.92
      P1  H  7989  7998       L1     8  0.50

> <Gold.Chemscore.Hbond.Weighted>
-6.5070

> <Gold.Chemscore.Metal.Weighted>
-0.0000

> <Gold.Chemscore.Lipo.Weighted>
-6.6357

> <Gold.Chemscore.Internal_Hbond.Weighted>
0.0000

> <Gold.Chemscore.DEClash.Weighted>
0.0000

> <Gold.Chemscore.DEInternal.Weighted>
1.1389

> <Gold.Chemscore.Rot.Weighted>
3.8163

> <Gold.Chemscore.Internal.Correction.Weighted>
   9.000000E+99

> <Gold.Protein.RotatedTorsions>
[ 6907 6896 6895 6894 ] final -153.52 input  -60.11 | X-H torsion
[ 7974 7965 7964 7962 ] final  112.86 input  175.53 | X-H torsion
[ 8008 7997 7996 7995 ] final  -86.19 input   59.86 | X-H torsion
[ 10167 10162 10161 10158 ] final   53.42 input  -65.29 | X-H torsion
[ 10718 10713 10712 10709 ] final   -0.41 input   66.30 | X-H torsion
[ 10763 10752 10751 10750 ] final -141.44 input  -60.55 | X-H torsion
[ 11005 11000 10999 10996 ] final  117.66 input  -57.11 | X-H torsion

> <Gold.Protein.ActiveResidues>
 VAL166  LYS551  ARG553  GLY616  TRP617  ASP618  TYR619  PRO620  LYS621  CYS622 
 ASP623  PHE694  ASN695  SER759  ASP760  ASP761  ALA762  ILE779  LEU786  VAL792 
 PHE793  MET794  SER795  GLU796  ALA797  LYS798  CYS799  TRP800  GLU811  SER814 

> <Gold.Protein.RotatedAtoms>
  151.2438  133.4385  159.2608 H   0  0  0  0  0  0  0  0  0  0  0  0  # atno 6907 bound_to 6896
  151.0680  134.9780  159.8304 H   0  0  0  0  0  0  0  0  0  0  0  0  # atno 6908 bound_to 6896
  152.5408  134.2385  159.8905 H   0  0  0  0  0  0  0  0  0  0  0  0  # atno 6909 bound_to 6896
  145.2242  139.2848  143.4202 H   0  0  0  0  0  0  0  0  0  0  0  0  # atno 7974 bound_to 7965
  154.6491  140.0582  156.9934 H   0  0  0  0  0  0  0  0  0  0  0  0  # atno 8008 bound_to 7997
  155.1399  140.3264  155.4436 H   0  0  0  0  0  0  0  0  0  0  0  0  # atno 8009 bound_to 7997
  156.2567  140.1966  156.6515 H   0  0  0  0  0  0  0  0  0  0  0  0  # atno 8010 bound_to 7997
  140.2410  144.3584  150.6380 H   0  0  0  0  0  0  0  0  0  0  0  0  # atno 10167 bound_to 10162
  156.8208  130.5455  149.5697 H   0  0  0  0  0  0  0  0  0  0  0  0  # atno 10718 bound_to 10713
  154.8545  135.3524  154.5868 H   0  0  0  0  0  0  0  0  0  0  0  0  # atno 10763 bound_to 10752
  153.6478  135.6995  153.5224 H   0  0  0  0  0  0  0  0  0  0  0  0  # atno 10764 bound_to 10752
  153.2919  135.4232  155.1133 H   0  0  0  0  0  0  0  0  0  0  0  0  # atno 10765 bound_to 10752
  139.9082  134.9612  156.7385 H   0  0  0  0  0  0  0  0  0  0  0  0  # atno 11005 bound_to 11000
  146.3369  140.2557  142.8600 LP  0  0  0  0  0  0  0  0  0  0  0  0  # atno 17320 bound_to 7965
  144.9737  140.8393  143.5439 LP  0  0  0  0  0  0  0  0  0  0  0  0  # atno 17321 bound_to 7965
  140.6114  143.2170  151.6879 LP  0  0  0  0  0  0  0  0  0  0  0  0  # atno 17342 bound_to 10162
  139.5077  144.3635  152.0539 LP  0  0  0  0  0  0  0  0  0  0  0  0  # atno 17343 bound_to 10162
  156.0990  130.5954  150.9862 LP  0  0  0  0  0  0  0  0  0  0  0  0  # atno 17370 bound_to 10713
  157.6458  131.0904  150.8156 LP  0  0  0  0  0  0  0  0  0  0  0  0  # atno 17371 bound_to 10713
  140.6869  133.9425  155.7943 LP  0  0  0  0  0  0  0  0  0  0  0  0  # atno 17394 bound_to 11000
  141.0470  134.0539  157.3831 LP  0  0  0  0  0  0  0  0  0  0  0  0  # atno 17395 bound_to 11000

$$$$
