AV-unprocessed.smi:1257|AV-procd|sdf|5284|dock2
  -GOLD-   22720 4403D 1   1.00000     0.00000
 Structure written by MMmdl.
 47 48  0  0  0  0  0  0  0  0  1 V2000
  144.4610  134.8317  150.1937 C   0  0  0  0  0  0  0  0  0  0  0  0
  144.4658  135.6888  151.4664 C   0  0  0  0  0  0  0  0  0  0  0  0
  145.2101  136.9278  151.2751 N   0  0  0  0  0  0  0  0  0  0  0  0
  145.9851  137.5134  152.2004 C   0  0  0  0  0  0  0  0  0  0  0  0
  146.1359  137.0642  153.3375 O   0  0  0  0  0  0  0  0  0  0  0  0
  146.6739  138.8157  151.7743 C   0  0  0  0  0  0  0  0  0  0  0  0
  147.5225  139.3788  152.8214 N   0  0  0  0  0  0  0  0  0  0  0  0
  147.1323  139.6266  154.0833 C   0  0  0  0  0  0  0  0  0  0  0  0
  146.0100  139.3570  154.5125 O   0  0  0  0  0  0  0  0  0  0  0  0
  148.1825  140.2057  154.9860 C   0  0  0  0  0  0  0  0  0  0  0  0
  147.8853  140.5148  156.3297 C   0  0  0  0  0  0  0  0  0  0  0  0
  148.8878  141.0770  157.1429 C   0  0  0  0  0  0  0  0  0  0  0  0
  150.1673  141.3245  156.5917 C   0  0  0  0  0  0  0  0  0  0  0  0
  151.1894  141.8807  157.3910 N   0  0  0  0  0  0  0  0  0  0  0  0
  151.7346  141.0619  158.4719 C   0  0  0  0  0  0  0  0  0  0  0  0
  153.0147  141.7019  159.0398 C   0  0  2  0  0  0  0  0  0  0  0  0
  153.5516  140.9350  160.2526 C   0  0  0  0  0  0  0  0  0  0  0  0
  152.7273  143.0370  159.4457 O   0  0  0  0  0  0  0  0  0  0  0  0
  152.3024  143.8565  158.3603 C   0  0  2  0  0  0  0  0  0  0  0  0
  152.1102  145.2839  158.8832 C   0  0  0  0  0  0  0  0  0  0  0  0
  151.0033  143.2797  157.7661 C   0  0  0  0  0  0  0  0  0  0  0  0
  150.4452  141.0452  155.2943 N   0  0  0  0  0  0  0  0  0  0  0  0
  149.4809  140.5068  154.5184 C   0  0  0  0  0  0  0  0  0  0  0  0
  143.8722  133.9262  150.3398 H   0  0  0  0  0  0  0  0  0  0  0  0
  145.4703  134.5278  149.9145 H   0  0  0  0  0  0  0  0  0  0  0  0
  144.0304  135.3763  149.3531 H   0  0  0  0  0  0  0  0  0  0  0  0
  143.4423  135.9454  151.7401 H   0  0  0  0  0  0  0  0  0  0  0  0
  144.8783  135.1236  152.3039 H   0  0  0  0  0  0  0  0  0  0  0  0
  145.1373  137.3685  150.3694 H   0  0  0  0  0  0  0  0  0  0  0  0
  147.2576  138.6536  150.8664 H   0  0  0  0  0  0  0  0  0  0  0  0
  145.9050  139.5474  151.5264 H   0  0  0  0  0  0  0  0  0  0  0  0
  148.4687  139.6153  152.5610 H   0  0  0  0  0  0  0  0  0  0  0  0
  146.9041  140.3253  156.7405 H   0  0  0  0  0  0  0  0  0  0  0  0
  148.6597  141.3238  158.1689 H   0  0  0  0  0  0  0  0  0  0  0  0
  150.9847  140.9594  159.2576 H   0  0  0  0  0  0  0  0  0  0  0  0
  151.9632  140.0602  158.1052 H   0  0  0  0  0  0  0  0  0  0  0  0
  153.7892  141.7199  158.2708 H   0  0  0  0  0  0  0  0  0  0  0  0
  153.7968  139.9059  159.9887 H   0  0  0  0  0  0  0  0  0  0  0  0
  152.8184  140.9085  161.0591 H   0  0  0  0  0  0  0  0  0  0  0  0
  154.4566  141.4033  160.6403 H   0  0  0  0  0  0  0  0  0  0  0  0
  153.0812  143.8698  157.5957 H   0  0  0  0  0  0  0  0  0  0  0  0
  151.7935  145.9551  158.0847 H   0  0  0  0  0  0  0  0  0  0  0  0
  153.0397  145.6752  159.2973 H   0  0  0  0  0  0  0  0  0  0  0  0
  151.3547  145.3176  159.6689 H   0  0  0  0  0  0  0  0  0  0  0  0
  150.7033  143.8874  156.9136 H   0  0  0  0  0  0  0  0  0  0  0  0
  150.1961  143.3403  158.4972 H   0  0  0  0  0  0  0  0  0  0  0  0
  149.7644  140.3166  153.4933 H   0  0  0  0  0  0  0  0  0  0  0  0
  1  2  1  0  0  0  0
  1 24  1  0  0  0  0
  1 25  1  0  0  0  0
  1 26  1  0  0  0  0
  2  3  1  0  0  0  0
  2 27  1  0  0  0  0
  2 28  1  0  0  0  0
  3  4  1  0  0  0  0
  3 29  1  0  0  0  0
  4  5  2  0  0  0  0
  4  6  1  0  0  0  0
  6  7  1  0  0  0  0
  6 30  1  0  0  0  0
  6 31  1  0  0  0  0
  7  8  1  0  0  0  0
  7 32  1  0  0  0  0
  8  9  2  0  0  0  0
  8 10  1  0  0  0  0
 10 23  1  0  0  0  0
 10 11  2  0  0  0  0
 11 12  1  0  0  0  0
 11 33  1  0  0  0  0
 12 13  2  0  0  0  0
 12 34  1  0  0  0  0
 13 14  1  0  0  0  0
 13 22  1  0  0  0  0
 14 21  1  0  0  0  0
 14 15  1  0  0  0  0
 15 16  1  0  0  0  0
 15 35  1  0  0  0  0
 15 36  1  0  0  0  0
 16 17  1  0  0  0  0
 16 18  1  0  0  0  0
 16 37  1  0  0  0  0
 17 38  1  0  0  0  0
 17 39  1  0  0  0  0
 17 40  1  0  0  0  0
 18 19  1  0  0  0  0
 19 20  1  0  0  0  0
 19 21  1  0  0  0  0
 19 41  1  0  0  0  0
 20 42  1  0  0  0  0
 20 43  1  0  0  0  0
 20 44  1  0  0  0  0
 21 45  1  0  0  0  0
 21 46  1  0  0  0  0
 22 23  2  0  0  0  0
 23 47  1  0  0  0  0
M  END
> <s_m_source_file>
AV-unprocessed.smi

> <i_m_source_file_index>
1257

> <i_lp_mmshare_version>
43012

> <i_f3d_flags>
0

> <s_epik_input>
W0NIM11bQ0gyXVtOSF1DKD1PKVtDSDJdW05IXUMoPU8pYzFbY0hdW2NIXWMobltjSF0xKU4yW0NIMl1bQ0BASF0oW0NIM10pT1tDQEBIXShbQ0gzXSlbQ0gyXTI=

> <s_epik_cmdline>
J2VwaWtfcHl0aG9uJywgJy1waCcsICc3LjAnLCAnLXRuJywgJzgnLCAnLW1hJywgJzIwMCcsICctbWV0YWxfYmluZGluZycsICctaW1hZScsICc8aW5maWxlLm1hZT4nLCAnLW9tYWUnLCAnPG91dGZpbGUubWFlPic=

> <r_lp_tautomer_probability>
1

> <r_epik_Ionization_Penalty>
1.15681e-05

> <r_epik_Ionization_Penalty_Charging>
0

> <r_epik_Ionization_Penalty_Neutral>
1.15681e-05

> <r_epik_State_Penalty>
-0

> <r_epik_Charging_Adjusted_Penalty>
0

> <i_epik_Tot_Q>
0

> <i_epik_Tot_abs_Q>
0

> <r_epik_Metal_State_Penalty>
-0

> <b_epik_Metal_Only>
0

> <s_lp_Force_Field>
OPLS_2005

> <r_lp_Energy>
13.029

> <b_lp_Chiralities_Consistent>
1

> <s_lp_Variant>
AV-unprocessed.smi:1257-1

> <Gold.Version>
5.8.1

> <Gold.Id.Protein>
6NUR|6NUR_protein|mol2

> <Gold.PLP.Fitness>
50.1837

> <Gold.PLP.PLP>
-42.7997

> <Gold.PLP.part.hbond>
-3.0000

> <Gold.PLP.part.metal>
0.0000

> <Gold.PLP.part.buried>
-6.1822

> <Gold.PLP.part.nonpolar>
-35.1587

> <Gold.PLP.part.repulsive>
0.4727

> <Gold.PLP.ligand.clash>
0.0000

> <Gold.PLP.ligand.torsion>
0.3571

> <Gold.PLP.Chemscore.Hbond>
1.5909

> <Gold.PLP.Chemscore.CHOScore>
1.0000

> <Gold.PLP.Chemscore.Metal>
0.0000

> <Gold.Chemscore.Hbonds>
donor molecule, donor type, donor heavy atom, donor atom, acceptor molecule, acceptor atom, score
      L1  H     3    29       P1 10171  0.58
      L1  H     7    32       P1  7957  0.90
      P1  H  7989  7998       L1    22  0.10
      L1  C    23    47       P1  7957  1.00

> <Gold.PLP.Chemscore.Internal.Correction>
0.3253

> <Gold.Rescore>
     Score         DG    S(hbond)    S(metal)    S(lipo)     H(rot)  DE(clash)    DE(int)     intcor
     16.33     -19.08       1.84        0.00     100.90       1.71       0.19       2.55       ----

> <Gold.Chemscore.Fitness>
16.3322

> <Gold.Chemscore.DG>
-19.0757

> <Gold.Chemscore.ZeroCoef>
-5.4800

> <Gold.Chemscore.Hbond>
1.8442

> <Gold.Chemscore.Metal>
0.0000

> <Gold.Chemscore.Lipo>
100.8986

> <Gold.Chemscore.Internal_Hbond>
0.0000

> <Gold.Chemscore.DEClash>
0.1929

> <Gold.Chemscore.DEInternal>
2.5506

> <Gold.Chemscore.Rot>
1.7066

> <Gold.Chemscore.Internal.Correction>
   9.000000E+99

> <Gold.Chemscore.Hbonds>
donor molecule, donor type, donor heavy atom, donor atom, acceptor molecule, acceptor atom, score
      L1  H     3    29       P1 10171  0.58
      L1  H     7    32       P1  7957  0.88

> <Gold.Chemscore.Hbond.Weighted>
-6.1596

> <Gold.Chemscore.Metal.Weighted>
-0.0000

> <Gold.Chemscore.Lipo.Weighted>
-11.8051

> <Gold.Chemscore.Internal_Hbond.Weighted>
0.0000

> <Gold.Chemscore.DEClash.Weighted>
0.1929

> <Gold.Chemscore.DEInternal.Weighted>
2.5506

> <Gold.Chemscore.Rot.Weighted>
4.3690

> <Gold.Chemscore.Internal.Correction.Weighted>
   9.000000E+99

> <Gold.Protein.RotatedTorsions>
[ 6907 6896 6895 6894 ] final   51.27 input  -60.11 | X-H torsion
[ 7974 7965 7964 7962 ] final -160.99 input  175.53 | X-H torsion
[ 8008 7997 7996 7995 ] final   11.12 input   59.86 | X-H torsion
[ 10167 10162 10161 10158 ] final  112.06 input  -65.29 | X-H torsion
[ 10718 10713 10712 10709 ] final -121.00 input   66.30 | X-H torsion
[ 10763 10752 10751 10750 ] final   -1.50 input  -60.55 | X-H torsion
[ 11005 11000 10999 10996 ] final  -46.91 input  -57.11 | X-H torsion

> <Gold.Protein.ActiveResidues>
 VAL166  LYS551  ARG553  GLY616  TRP617  ASP618  TYR619  PRO620  LYS621  CYS622 
 ASP623  PHE694  ASN695  SER759  ASP760  ASP761  ALA762  ILE779  LEU786  VAL792 
 PHE793  MET794  SER795  GLU796  ALA797  LYS798  CYS799  TRP800  GLU811  SER814 

> <Gold.Protein.RotatedAtoms>
  152.3108  134.7499  160.0336 H   0  0  0  0  0  0  0  0  0  0  0  0  # atno 6907 bound_to 6896
  151.7981  133.3361  159.3527 H   0  0  0  0  0  0  0  0  0  0  0  0  # atno 6908 bound_to 6896
  150.7319  134.5710  159.5934 H   0  0  0  0  0  0  0  0  0  0  0  0  # atno 6909 bound_to 6896
  144.7407  140.3461  143.6125 H   0  0  0  0  0  0  0  0  0  0  0  0  # atno 7974 bound_to 7965
  154.8026  140.2854  155.5910 H   0  0  0  0  0  0  0  0  0  0  0  0  # atno 8008 bound_to 7997
  156.2979  140.2583  156.2827 H   0  0  0  0  0  0  0  0  0  0  0  0  # atno 8009 bound_to 7997
  154.9540  140.0379  157.2147 H   0  0  0  0  0  0  0  0  0  0  0  0  # atno 8010 bound_to 7997
  139.6564  144.7129  151.1948 H   0  0  0  0  0  0  0  0  0  0  0  0  # atno 10167 bound_to 10162
  156.1302  130.6390  150.9609 H   0  0  0  0  0  0  0  0  0  0  0  0  # atno 10718 bound_to 10713
  153.3457  135.6983  153.6830 H   0  0  0  0  0  0  0  0  0  0  0  0  # atno 10763 bound_to 10752
  153.5577  135.3541  155.2786 H   0  0  0  0  0  0  0  0  0  0  0  0  # atno 10764 bound_to 10752
  154.8644  135.4241  154.2681 H   0  0  0  0  0  0  0  0  0  0  0  0  # atno 10765 bound_to 10752
  141.0608  133.6710  156.3222 H   0  0  0  0  0  0  0  0  0  0  0  0  # atno 11005 bound_to 11000
  145.7324  139.1740  143.2423 LP  0  0  0  0  0  0  0  0  0  0  0  0  # atno 17320 bound_to 7965
  146.1196  140.7326  142.9464 LP  0  0  0  0  0  0  0  0  0  0  0  0  # atno 17321 bound_to 7965
  140.7561  143.6065  150.8648 LP  0  0  0  0  0  0  0  0  0  0  0  0  # atno 17342 bound_to 10162
  139.9718  143.6048  152.2971 LP  0  0  0  0  0  0  0  0  0  0  0  0  # atno 17343 bound_to 10162
  157.6481  131.0901  150.8110 LP  0  0  0  0  0  0  0  0  0  0  0  0  # atno 17370 bound_to 10713
  156.8196  130.4979  149.5345 LP  0  0  0  0  0  0  0  0  0  0  0  0  # atno 17371 bound_to 10713
  140.5872  134.5687  157.5492 LP  0  0  0  0  0  0  0  0  0  0  0  0  # atno 17394 bound_to 11000
  139.9431  134.7751  156.0628 LP  0  0  0  0  0  0  0  0  0  0  0  0  # atno 17395 bound_to 11000

$$$$
