AV-unprocessed.smi:740|AV-procd|sdf|3549|dock7
  -GOLD-   22720 0543D 1   1.00000     0.00000
 Structure written by MMmdl.
 44 46  0  0  0  0  0  0  0  0  1 V2000
  153.4507  142.1697  161.5835 C   0  0  0  0  0  0  0  0  0  0  0  0
  152.7831  141.9830  160.2324 C   0  0  0  0  0  0  0  0  0  0  0  0
  153.1032  140.8443  159.4595 C   0  0  0  0  0  0  0  0  0  0  0  0
  152.5016  140.6308  158.2002 C   0  0  0  0  0  0  0  0  0  0  0  0
  152.6641  139.5999  157.2906 N   0  0  0  0  0  0  0  0  0  0  0  0
  151.8311  139.9655  156.3207 C   0  0  0  0  0  0  0  0  0  0  0  0
  151.1483  141.1132  156.4938 N   0  0  0  0  0  0  0  0  0  0  0  0
  150.1862  141.6996  155.5782 C   0  0  0  0  0  0  0  0  0  0  0  0
  149.3388  140.6341  154.8566 C   0  0  1  0  0  0  0  0  0  0  0  0
  150.1136  140.0687  153.8164 O   0  0  0  0  0  0  0  0  0  0  0  0
  148.8992  139.5092  155.8165 C   0  0  0  0  0  0  0  0  0  0  0  0
  147.9887  138.5586  155.1675 N   0  0  0  0  0  0  0  0  0  0  0  0
  148.1533  137.2288  155.1873 C   0  0  0  0  0  0  0  0  0  0  0  0
  149.0735  136.6169  155.7288 O   0  0  0  0  0  0  0  0  0  0  0  0
  147.0256  136.5275  154.4432 C   0  0  0  0  0  0  0  0  0  0  0  0
  146.1442  137.6897  153.9616 C   0  0  2  0  0  0  0  0  0  0  0  0
  145.9745  137.7461  152.4344 C   0  0  0  0  0  0  0  0  0  0  0  0
  146.8836  138.9143  154.4973 C   0  0  0  0  0  0  0  0  0  0  0  0
  146.4825  140.0642  154.3170 O   0  0  0  0  0  0  0  0  0  0  0  0
  151.5626  141.5954  157.7308 C   0  0  0  0  0  0  0  0  0  0  0  0
  151.2372  142.7337  158.4897 C   0  0  0  0  0  0  0  0  0  0  0  0
  151.8478  142.9316  159.7460 C   0  0  0  0  0  0  0  0  0  0  0  0
  151.4883  144.1626  160.5589 C   0  0  0  0  0  0  0  0  0  0  0  0
  154.1661  141.3725  161.7878 H   0  0  0  0  0  0  0  0  0  0  0  0
  152.7064  142.1639  162.3800 H   0  0  0  0  0  0  0  0  0  0  0  0
  153.9886  143.1174  161.6180 H   0  0  0  0  0  0  0  0  0  0  0  0
  153.8147  140.1207  159.8294 H   0  0  0  0  0  0  0  0  0  0  0  0
  151.7064  139.3628  155.4329 H   0  0  0  0  0  0  0  0  0  0  0  0
  149.5492  142.3914  156.1309 H   0  0  0  0  0  0  0  0  0  0  0  0
  150.7361  142.2981  154.8505 H   0  0  0  0  0  0  0  0  0  0  0  0
  148.4652  141.1179  154.4174 H   0  0  0  0  0  0  0  0  0  0  0  0
  149.6537  140.1871  152.9994 H   0  0  0  0  0  0  0  0  0  0  0  0
  149.7678  139.0032  156.2422 H   0  0  0  0  0  0  0  0  0  0  0  0
  148.3775  139.9440  156.6708 H   0  0  0  0  0  0  0  0  0  0  0  0
  147.4286  135.9376  153.6192 H   0  0  0  0  0  0  0  0  0  0  0  0
  146.4842  135.8610  155.1154 H   0  0  0  0  0  0  0  0  0  0  0  0
  145.1650  137.6375  154.4392 H   0  0  0  0  0  0  0  0  0  0  0  0
  145.3405  138.5826  152.1381 H   0  0  0  0  0  0  0  0  0  0  0  0
  145.5077  136.8338  152.0624 H   0  0  0  0  0  0  0  0  0  0  0  0
  146.9337  137.8577  151.9272 H   0  0  0  0  0  0  0  0  0  0  0  0
  150.5207  143.4463  158.1090 H   0  0  0  0  0  0  0  0  0  0  0  0
  150.7480  144.7768  160.0454 H   0  0  0  0  0  0  0  0  0  0  0  0
  152.3719  144.7776  160.7307 H   0  0  0  0  0  0  0  0  0  0  0  0
  151.0726  143.8751  161.5247 H   0  0  0  0  0  0  0  0  0  0  0  0
  1  2  1  0  0  0  0
  1 24  1  0  0  0  0
  1 25  1  0  0  0  0
  1 26  1  0  0  0  0
  2 22  1  0  0  0  0
  2  3  2  0  0  0  0
  3  4  1  0  0  0  0
  3 27  1  0  0  0  0
  4 20  2  0  0  0  0
  4  5  1  0  0  0  0
  5  6  2  0  0  0  0
  6  7  1  0  0  0  0
  6 28  1  0  0  0  0
  7  8  1  0  0  0  0
  7 20  1  0  0  0  0
  8  9  1  0  0  0  0
  8 29  1  0  0  0  0
  8 30  1  0  0  0  0
  9 10  1  0  0  0  0
  9 11  1  0  0  0  0
  9 31  1  0  0  0  0
 10 32  1  0  0  0  0
 11 12  1  0  0  0  0
 11 33  1  0  0  0  0
 11 34  1  0  0  0  0
 12 18  1  0  0  0  0
 12 13  1  0  0  0  0
 13 14  2  0  0  0  0
 13 15  1  0  0  0  0
 15 16  1  0  0  0  0
 15 35  1  0  0  0  0
 15 36  1  0  0  0  0
 16 17  1  0  0  0  0
 16 18  1  0  0  0  0
 16 37  1  0  0  0  0
 17 38  1  0  0  0  0
 17 39  1  0  0  0  0
 17 40  1  0  0  0  0
 18 19  2  0  0  0  0
 20 21  1  0  0  0  0
 21 22  2  0  0  0  0
 21 41  1  0  0  0  0
 22 23  1  0  0  0  0
 23 42  1  0  0  0  0
 23 43  1  0  0  0  0
 23 44  1  0  0  0  0
M  END
> <s_m_source_file>
AV-unprocessed.smi

> <i_m_source_file_index>
740

> <i_lp_mmshare_version>
43012

> <i_f3d_flags>
0

> <s_epik_input>
W0NIM11jKFtjSF0xKWMoW0NIM10pW2NIXWMoYzEyKW4oW2NIXW4yKVtDSDJdW0NASF0oW09IXSlbQ0gyXU4zQyg9TylbQ0gyXVtDQEBIXShbQ0gzXSlDMz1P

> <s_epik_cmdline>
J2VwaWtfcHl0aG9uJywgJy1waCcsICc3LjAnLCAnLXRuJywgJzgnLCAnLW1hJywgJzIwMCcsICctbWV0YWxfYmluZGluZycsICctaW1hZScsICc8aW5maWxlLm1hZT4nLCAnLW9tYWUnLCAnPG91dGZpbGUubWFlPic=

> <r_lp_tautomer_probability>
1

> <r_epik_Ionization_Penalty>
0.104021

> <r_epik_Ionization_Penalty_Charging>
0

> <r_epik_Ionization_Penalty_Neutral>
0.104021

> <r_epik_State_Penalty>
0.0939354

> <r_epik_Charging_Adjusted_Penalty>
0.0939354

> <i_epik_Tot_Q>
0

> <i_epik_Tot_abs_Q>
0

> <r_epik_Metal_State_Penalty>
0.000101783

> <b_epik_Metal_Only>
0

> <s_lp_Force_Field>
OPLS_2005

> <r_lp_Energy>
16.4677

> <b_lp_Chiralities_Consistent>
1

> <s_lp_Variant>
AV-unprocessed.smi:740-4

> <Gold.Version>
5.8.1

> <Gold.Id.Protein>
6NUR|6NUR_protein|mol2

> <Gold.PLP.Fitness>
46.4368

> <Gold.PLP.PLP>
-39.0543

> <Gold.PLP.part.hbond>
-3.0000

> <Gold.PLP.part.metal>
0.0000

> <Gold.PLP.part.buried>
-5.3040

> <Gold.PLP.part.nonpolar>
-30.8846

> <Gold.PLP.part.repulsive>
0.1748

> <Gold.PLP.ligand.clash>
0.0000

> <Gold.PLP.ligand.torsion>
0.5822

> <Gold.PLP.Chemscore.Hbond>
2.8400

> <Gold.PLP.Chemscore.CHOScore>
0.0000

> <Gold.PLP.Chemscore.Metal>
0.0000

> <Gold.Chemscore.Hbonds>
donor molecule, donor type, donor heavy atom, donor atom, acceptor molecule, acceptor atom, score
      L1  H    10    32       P1  7957  0.99
      P1  H  7989  7998       L1    10  0.83
      P1  H  7997  8008       L1     5  1.00

> <Gold.PLP.Chemscore.Internal.Correction>
0.0269

> <Gold.Rescore>
     Score         DG    S(hbond)    S(metal)    S(lipo)     H(rot)  DE(clash)    DE(int)     intcor
     16.10     -18.19       2.17        0.00      97.24       2.31       0.36       1.73       ----

> <Gold.Chemscore.Fitness>
16.0987

> <Gold.Chemscore.DG>
-18.1924

> <Gold.Chemscore.ZeroCoef>
-5.4800

> <Gold.Chemscore.Hbond>
2.1741

> <Gold.Chemscore.Metal>
0.0000

> <Gold.Chemscore.Lipo>
97.2353

> <Gold.Chemscore.Internal_Hbond>
0.0000

> <Gold.Chemscore.DEClash>
0.3598

> <Gold.Chemscore.DEInternal>
1.7339

> <Gold.Chemscore.Rot>
2.3147

> <Gold.Chemscore.Internal.Correction>
   9.000000E+99

> <Gold.Chemscore.Hbonds>
donor molecule, donor type, donor heavy atom, donor atom, acceptor molecule, acceptor atom, score
      L1  H    10    32       P1  7957  0.93
      P1  H  7989  7998       L1    10  0.23
      P1  H  7997  8008       L1     5  0.06

> <Gold.Chemscore.Hbond.Weighted>
-7.2615

> <Gold.Chemscore.Metal.Weighted>
-0.0000

> <Gold.Chemscore.Lipo.Weighted>
-11.3765

> <Gold.Chemscore.Internal_Hbond.Weighted>
0.0000

> <Gold.Chemscore.DEClash.Weighted>
0.3598

> <Gold.Chemscore.DEInternal.Weighted>
1.7339

> <Gold.Chemscore.Rot.Weighted>
5.9256

> <Gold.Chemscore.Internal.Correction.Weighted>
   9.000000E+99

> <Gold.Protein.RotatedTorsions>
[ 6907 6896 6895 6894 ] final   34.43 input  -60.11 | X-H torsion
[ 7974 7965 7964 7962 ] final   80.84 input  175.53 | X-H torsion
[ 8008 7997 7996 7995 ] final  -50.71 input   59.86 | X-H torsion
[ 10167 10162 10161 10158 ] final -175.15 input  -65.29 | X-H torsion
[ 10718 10713 10712 10709 ] final  -78.23 input   66.30 | X-H torsion
[ 10763 10752 10751 10750 ] final   42.48 input  -60.55 | X-H torsion
[ 11005 11000 10999 10996 ] final   64.88 input  -57.11 | X-H torsion

> <Gold.Protein.ActiveResidues>
 VAL166  LYS551  ARG553  GLY616  TRP617  ASP618  TYR619  PRO620  LYS621  CYS622 
 ASP623  PHE694  ASN695  SER759  ASP760  ASP761  ALA762  ILE779  LEU786  VAL792 
 PHE793  MET794  SER795  GLU796  ALA797  LYS798  CYS799  TRP800  GLU811  SER814 

> <Gold.Protein.RotatedAtoms>
  152.1023  134.9333  160.0568 H   0  0  0  0  0  0  0  0  0  0  0  0  # atno 6907 bound_to 6896
  152.0543  133.4028  159.4398 H   0  0  0  0  0  0  0  0  0  0  0  0  # atno 6908 bound_to 6896
  150.6840  134.3193  159.4823 H   0  0  0  0  0  0  0  0  0  0  0  0  # atno 6909 bound_to 6896
  145.6460  139.2436  143.2004 H   0  0  0  0  0  0  0  0  0  0  0  0  # atno 7974 bound_to 7965
  154.4067  140.1265  156.4711 H   0  0  0  0  0  0  0  0  0  0  0  0  # atno 8008 bound_to 7997
  155.7178  140.3493  155.4983 H   0  0  0  0  0  0  0  0  0  0  0  0  # atno 8009 bound_to 7997
  155.9242  140.1058  157.1173 H   0  0  0  0  0  0  0  0  0  0  0  0  # atno 8010 bound_to 7997
  139.5596  144.1903  152.1217 H   0  0  0  0  0  0  0  0  0  0  0  0  # atno 10167 bound_to 10162
  156.0123  130.4512  150.3465 H   0  0  0  0  0  0  0  0  0  0  0  0  # atno 10718 bound_to 10713
  152.9882  135.6130  154.2956 H   0  0  0  0  0  0  0  0  0  0  0  0  # atno 10763 bound_to 10752
  154.2679  135.2780  155.2752 H   0  0  0  0  0  0  0  0  0  0  0  0  # atno 10764 bound_to 10752
  154.5148  135.5831  153.6690 H   0  0  0  0  0  0  0  0  0  0  0  0  # atno 10765 bound_to 10752
  139.9930  134.6562  156.0058 H   0  0  0  0  0  0  0  0  0  0  0  0  # atno 11005 bound_to 11000
  146.1242  140.7269  142.9443 LP  0  0  0  0  0  0  0  0  0  0  0  0  # atno 17320 bound_to 7965
  144.7140  140.4142  143.7059 LP  0  0  0  0  0  0  0  0  0  0  0  0  # atno 17321 bound_to 7965
  140.1414  144.5199  150.6742 LP  0  0  0  0  0  0  0  0  0  0  0  0  # atno 17342 bound_to 10162
  140.6874  143.2357  151.5224 LP  0  0  0  0  0  0  0  0  0  0  0  0  # atno 17343 bound_to 10162
  157.1559  131.0332  151.2864 LP  0  0  0  0  0  0  0  0  0  0  0  0  # atno 17370 bound_to 10713
  157.4353  130.7513  149.7023 LP  0  0  0  0  0  0  0  0  0  0  0  0  # atno 17371 bound_to 10713
  141.1581  133.6541  156.4229 LP  0  0  0  0  0  0  0  0  0  0  0  0  # atno 17394 bound_to 11000
  140.4872  134.6609  157.5196 LP  0  0  0  0  0  0  0  0  0  0  0  0  # atno 17395 bound_to 11000

$$$$
