AV-unprocessed.smi:3148|AV-procd|sdf|11997|dock6
  -GOLD-   2272017403D 1   1.00000     0.00000
 Structure written by MMmdl.
 35 37  0  0  0  0  0  0  0  0  2 V2000
  151.3602  137.6863  154.1561 C   0  0  0  0  0  0  0  0  0  0  0  0
  151.6854  138.6996  155.1020 O   0  0  0  0  0  0  0  0  0  0  0  0
  150.8880  139.8240  155.1562 C   0  0  0  0  0  0  0  0  0  0  0  0
  149.7714  139.9242  154.3102 C   0  0  0  0  0  0  0  0  0  0  0  0
  148.9941  141.0940  154.4114 C   0  0  0  0  0  0  0  0  0  0  0  0
  147.7692  141.3231  153.5520 C   0  0  0  0  0  0  0  0  0  0  0  0
  149.3360  142.0634  155.2965 N   0  3  0  0  0  0  0  0  0  0  0  0
  150.4173  141.9083  156.0746 C   0  0  0  0  0  0  0  0  0  0  0  0
  150.7253  142.9314  156.9530 N   0  0  0  0  0  0  0  0  0  0  0  0
  151.8653  142.9126  157.8623 C   0  0  2  0  0  0  0  0  0  0  0  0
  151.5751  142.1872  159.1784 C   0  0  0  0  0  0  0  0  0  0  0  0
  151.9719  143.2474  160.2154 C   0  0  2  0  0  0  0  0  0  0  0  0
  150.9263  144.3666  160.3049 C   0  0  0  0  0  0  0  0  0  0  0  0
  151.1677  145.1220  158.9996 C   0  0  0  0  0  0  0  0  0  0  0  0
  152.3039  144.3032  158.3630 C   0  0  1  0  0  0  0  0  0  0  0  0
  153.0138  143.9208  159.5286 O   0  0  0  0  0  0  0  0  0  0  0  0
  151.1932  140.8167  156.0238 N   0  0  0  0  0  0  0  0  0  0  0  0
  152.0875  136.8777  154.2294 H   0  0  0  0  0  0  0  0  0  0  0  0
  151.3934  138.0677  153.1344 H   0  0  0  0  0  0  0  0  0  0  0  0
  150.3733  137.2629  154.3481 H   0  0  0  0  0  0  0  0  0  0  0  0
  149.5241  139.1356  153.6141 H   0  0  0  0  0  0  0  0  0  0  0  0
  147.5047  140.4229  152.9964 H   0  0  0  0  0  0  0  0  0  0  0  0
  147.9546  142.1245  152.8363 H   0  0  0  0  0  0  0  0  0  0  0  0
  146.9157  141.6035  154.1700 H   0  0  0  0  0  0  0  0  0  0  0  0
  150.2199  143.7992  156.8494 H   0  0  0  0  0  0  0  0  0  0  0  0
  152.7061  142.4227  157.3689 H   0  0  0  0  0  0  0  0  0  0  0  0
  150.5357  141.8752  159.2915 H   0  0  0  0  0  0  0  0  0  0  0  0
  152.2052  141.3015  159.2679 H   0  0  0  0  0  0  0  0  0  0  0  0
  152.2614  142.8352  161.1823 H   0  0  0  0  0  0  0  0  0  0  0  0
  149.9100  143.9803  160.3902 H   0  0  0  0  0  0  0  0  0  0  0  0
  151.1192  145.0126  161.1623 H   0  0  0  0  0  0  0  0  0  0  0  0
  150.2784  145.1848  158.3721 H   0  0  0  0  0  0  0  0  0  0  0  0
  151.5016  146.1390  159.2087 H   0  0  0  0  0  0  0  0  0  0  0  0
  152.9021  144.8647  157.6449 H   0  0  0  0  0  0  0  0  0  0  0  0
  148.7648  142.9063  155.3589 H   0  0  0  0  0  0  0  0  0  0  0  0
  1  2  1  0  0  0  0
  1 18  1  0  0  0  0
  1 19  1  0  0  0  0
  1 20  1  0  0  0  0
  2  3  1  0  0  0  0
  3 17  1  0  0  0  0
  3  4  2  0  0  0  0
  4  5  1  0  0  0  0
  4 21  1  0  0  0  0
  5  6  1  0  0  0  0
  5  7  2  0  0  0  0
  6 22  1  0  0  0  0
  6 23  1  0  0  0  0
  6 24  1  0  0  0  0
  7  8  1  0  0  0  0
  7 35  1  0  0  0  0
  8  9  1  0  0  0  0
  8 17  2  0  0  0  0
  9 10  1  0  0  0  0
  9 25  1  0  0  0  0
 10 15  1  0  0  0  0
 10 11  1  0  0  0  0
 10 26  1  0  0  0  0
 11 12  1  0  0  0  0
 11 27  1  0  0  0  0
 11 28  1  0  0  0  0
 12 16  1  0  0  0  0
 12 13  1  0  0  0  0
 12 29  1  0  0  0  0
 13 14  1  0  0  0  0
 13 30  1  0  0  0  0
 13 31  1  0  0  0  0
 14 15  1  0  0  0  0
 14 32  1  0  0  0  0
 14 33  1  0  0  0  0
 15 16  1  0  0  0  0
 15 34  1  0  0  0  0
M  CHG  1   7   1
M  END
> <s_m_source_file>
AV-unprocessed.smi

> <i_m_source_file_index>
3148

> <i_lp_mmshare_version>
43012

> <i_f3d_flags>
0

> <s_epik_input>
W0NIM11PYzFbY0hdYyhbQ0gzXSluYyhuMSlbTkhdW0NASF0oW0NIMl1bQ0BASF0yMylbQ0BASF0oTzMpW0NIMl1bQ0gyXTI=

> <s_epik_cmdline>
J2VwaWtfcHl0aG9uJywgJy1waCcsICc3LjAnLCAnLXRuJywgJzgnLCAnLW1hJywgJzIwMCcsICctbWV0YWxfYmluZGluZycsICctaW1hZScsICc8aW5maWxlLm1hZT4nLCAnLW9tYWUnLCAnPG91dGZpbGUubWFlPic=

> <r_lp_tautomer_probability>
0.999985

> <r_epik_Ionization_Penalty>
1.09461

> <r_epik_Ionization_Penalty_Charging>
1.0946

> <r_epik_Ionization_Penalty_Neutral>
6.69406e-06

> <r_epik_State_Penalty>
1.15119

> <r_epik_Charging_Adjusted_Penalty>
2.24579

> <i_epik_Tot_Q>
1

> <i_epik_Tot_abs_Q>
1

> <r_epik_Metal_State_Penalty>
1.2392

> <b_epik_Metal_Only>
0

> <s_lp_Force_Field>
OPLS_2005

> <r_lp_Energy>
36.3956

> <b_lp_Chiralities_Consistent>
1

> <s_lp_Variant>
AV-unprocessed.smi:3148-7

> <Gold.Version>
5.8.1

> <Gold.Id.Protein>
6NUR|6NUR_protein|mol2

> <Gold.PLP.Fitness>
49.7351

> <Gold.PLP.PLP>
-39.5698

> <Gold.PLP.part.hbond>
-2.0000

> <Gold.PLP.part.metal>
0.0000

> <Gold.PLP.part.buried>
-4.5575

> <Gold.PLP.part.nonpolar>
-32.6737

> <Gold.PLP.part.repulsive>
0.2634

> <Gold.PLP.ligand.clash>
0.0423

> <Gold.PLP.ligand.torsion>
0.3246

> <Gold.PLP.Chemscore.Hbond>
3.6160

> <Gold.PLP.Chemscore.CHOScore>
0.0000

> <Gold.PLP.Chemscore.Metal>
0.0000

> <Gold.Chemscore.Hbonds>
donor molecule, donor type, donor heavy atom, donor atom, acceptor molecule, acceptor atom, score
      L1  H     7    35       P1  8028  1.70
      L1  H     9    25       P1  8028  1.73

> <Gold.PLP.Chemscore.Internal.Correction>
0.0089

> <Gold.Rescore>
     Score         DG    S(hbond)    S(metal)    S(lipo)     H(rot)  DE(clash)    DE(int)     intcor
     18.89     -19.26       1.68        0.00      96.78       1.24       0.15       0.22       ----

> <Gold.Chemscore.Fitness>
18.8941

> <Gold.Chemscore.DG>
-19.2610

> <Gold.Chemscore.ZeroCoef>
-5.4800

> <Gold.Chemscore.Hbond>
1.6843

> <Gold.Chemscore.Metal>
0.0000

> <Gold.Chemscore.Lipo>
96.7815

> <Gold.Chemscore.Internal_Hbond>
0.0000

> <Gold.Chemscore.DEClash>
0.1490

> <Gold.Chemscore.DEInternal>
0.2180

> <Gold.Chemscore.Rot>
1.2376

> <Gold.Chemscore.Internal.Correction>
   9.000000E+99

> <Gold.Chemscore.Hbonds>
donor molecule, donor type, donor heavy atom, donor atom, acceptor molecule, acceptor atom, score
      L1  H     7    35       P1  8028  0.85
      L1  H     9    25       P1  8028  0.82

> <Gold.Chemscore.Hbond.Weighted>
-5.6257

> <Gold.Chemscore.Metal.Weighted>
-0.0000

> <Gold.Chemscore.Lipo.Weighted>
-11.3234

> <Gold.Chemscore.Internal_Hbond.Weighted>
0.0000

> <Gold.Chemscore.DEClash.Weighted>
0.1490

> <Gold.Chemscore.DEInternal.Weighted>
0.2180

> <Gold.Chemscore.Rot.Weighted>
3.1681

> <Gold.Chemscore.Internal.Correction.Weighted>
   9.000000E+99

> <Gold.Protein.RotatedTorsions>
[ 6907 6896 6895 6894 ] final   34.07 input  -60.11 | X-H torsion
[ 7974 7965 7964 7962 ] final   50.41 input  175.53 | X-H torsion
[ 8008 7997 7996 7995 ] final  -35.56 input   59.86 | X-H torsion
[ 10167 10162 10161 10158 ] final   41.69 input  -65.29 | X-H torsion
[ 10718 10713 10712 10709 ] final -142.16 input   66.30 | X-H torsion
[ 10763 10752 10751 10750 ] final   68.98 input  -60.55 | X-H torsion
[ 11005 11000 10999 10996 ] final  -43.89 input  -57.11 | X-H torsion

> <Gold.Protein.ActiveResidues>
 VAL166  LYS551  ARG553  GLY616  TRP617  ASP618  TYR619  PRO620  LYS621  CYS622 
 ASP623  PHE694  ASN695  SER759  ASP760  ASP761  ALA762  ILE779  LEU786  VAL792 
 PHE793  MET794  SER795  GLU796  ALA797  LYS798  CYS799  TRP800  GLU811  SER814 

> <Gold.Protein.RotatedAtoms>
  152.0973  134.9366  160.0570 H   0  0  0  0  0  0  0  0  0  0  0  0  # atno 6907 bound_to 6896
  152.0594  133.4050  159.4419 H   0  0  0  0  0  0  0  0  0  0  0  0  # atno 6908 bound_to 6896
  150.6838  134.3138  159.4801 H   0  0  0  0  0  0  0  0  0  0  0  0  # atno 6909 bound_to 6896
  146.0015  139.4444  143.0012 H   0  0  0  0  0  0  0  0  0  0  0  0  # atno 7974 bound_to 7965
  154.4093  140.1654  156.2231 H   0  0  0  0  0  0  0  0  0  0  0  0  # atno 8008 bound_to 7997
  155.9346  140.3412  155.6254 H   0  0  0  0  0  0  0  0  0  0  0  0  # atno 8009 bound_to 7997
  155.7064  140.0751  157.2380 H   0  0  0  0  0  0  0  0  0  0  0  0  # atno 8010 bound_to 7997
  140.3618  144.2218  150.6137 H   0  0  0  0  0  0  0  0  0  0  0  0  # atno 10167 bound_to 10162
  156.3427  130.7646  151.1785 H   0  0  0  0  0  0  0  0  0  0  0  0  # atno 10718 bound_to 10713
  153.0263  135.5227  154.7217 H   0  0  0  0  0  0  0  0  0  0  0  0  # atno 10763 bound_to 10752
  154.6270  135.2896  155.0262 H   0  0  0  0  0  0  0  0  0  0  0  0  # atno 10764 bound_to 10752
  154.1228  135.6605  153.4959 H   0  0  0  0  0  0  0  0  0  0  0  0  # atno 10765 bound_to 10752
  141.0414  133.6778  156.2796 H   0  0  0  0  0  0  0  0  0  0  0  0  # atno 11005 bound_to 11000
  145.7481  140.9983  143.1265 LP  0  0  0  0  0  0  0  0  0  0  0  0  # atno 17320 bound_to 7965
  144.6921  139.9180  143.7466 LP  0  0  0  0  0  0  0  0  0  0  0  0  # atno 17321 bound_to 7965
  140.5119  143.2288  151.8522 LP  0  0  0  0  0  0  0  0  0  0  0  0  # atno 17342 bound_to 10162
  139.4813  144.4939  151.9149 LP  0  0  0  0  0  0  0  0  0  0  0  0  # atno 17343 bound_to 10162
  157.7449  131.0450  150.4821 LP  0  0  0  0  0  0  0  0  0  0  0  0  # atno 17370 bound_to 10713
  156.5004  130.4116  149.6356 LP  0  0  0  0  0  0  0  0  0  0  0  0  # atno 17371 bound_to 10713
  140.6227  134.5345  157.5549 LP  0  0  0  0  0  0  0  0  0  0  0  0  # atno 17394 bound_to 11000
  139.9278  134.8021  156.1016 LP  0  0  0  0  0  0  0  0  0  0  0  0  # atno 17395 bound_to 11000

$$$$
