AV-unprocessed.smi:2031|AV-procd|sdf|8228|dock4
  -GOLD-   2272010503D 1   1.00000     0.00000
 Structure written by MMmdl.
 42 43  0  0  0  0  0  0  0  0  2 V2000
  151.8585  139.8724  158.4374 C   0  0  0  0  0  0  0  0  0  0  0  0
  151.4766  139.7653  157.0010 C   0  0  0  0  0  0  0  0  0  0  0  0
  150.3032  139.4577  156.3723 C   0  0  0  0  0  0  0  0  0  0  0  0
  150.6500  139.5378  154.9920 C   0  0  0  0  0  0  0  0  0  0  0  0
  149.7837  139.3056  153.8925 N   0  0  0  0  0  0  0  0  0  0  0  0
  148.4584  139.0852  153.9072 C   0  0  0  0  0  0  0  0  0  0  0  0
  147.7513  139.0471  154.9142 O   0  0  0  0  0  0  0  0  0  0  0  0
  147.9779  138.9141  152.6671 N   0  0  0  0  0  0  0  0  0  0  0  0
  146.5767  138.6668  152.3459 C   0  0  0  0  0  0  0  0  0  0  0  0
  145.9452  137.6574  153.3258 C   0  0  0  0  0  0  0  0  0  0  0  0
  146.1961  136.2402  152.9501 N   0  3  0  0  0  0  0  0  0  0  0  0
  145.1451  135.7004  152.0468 C   0  0  0  0  0  0  0  0  0  0  0  0
  145.7642  134.8157  150.9512 C   0  0  0  0  0  0  0  0  0  0  0  0
  146.1311  133.3973  151.4091 C   0  0  0  0  0  0  0  0  0  0  0  0
  147.0862  133.3497  152.6116 C   0  0  0  0  0  0  0  0  0  0  0  0
  146.4257  133.8586  153.9022 C   0  0  0  0  0  0  0  0  0  0  0  0
  146.5174  135.3817  154.1271 C   0  0  0  0  0  0  0  0  0  0  0  0
  151.9159  139.8616  154.8035 N   0  0  0  0  0  0  0  0  0  0  0  0
  152.4541  140.0096  156.0872 O   0  0  0  0  0  0  0  0  0  0  0  0
  150.9737  139.9047  159.0735 H   0  0  0  0  0  0  0  0  0  0  0  0
  152.4381  140.7779  158.6190 H   0  0  0  0  0  0  0  0  0  0  0  0
  152.4619  139.0168  158.7405 H   0  0  0  0  0  0  0  0  0  0  0  0
  149.3615  139.2167  156.8415 H   0  0  0  0  0  0  0  0  0  0  0  0
  150.2285  139.3146  152.9865 H   0  0  0  0  0  0  0  0  0  0  0  0
  148.6248  138.9578  151.8929 H   0  0  0  0  0  0  0  0  0  0  0  0
  146.0433  139.6167  152.3933 H   0  0  0  0  0  0  0  0  0  0  0  0
  146.5091  138.3212  151.3137 H   0  0  0  0  0  0  0  0  0  0  0  0
  146.3012  137.8262  154.3435 H   0  0  0  0  0  0  0  0  0  0  0  0
  144.8702  137.8429  153.3386 H   0  0  0  0  0  0  0  0  0  0  0  0
  144.3604  135.1850  152.6020 H   0  0  0  0  0  0  0  0  0  0  0  0
  144.6429  136.5225  151.5359 H   0  0  0  0  0  0  0  0  0  0  0  0
  145.0514  134.7281  150.1304 H   0  0  0  0  0  0  0  0  0  0  0  0
  146.6407  135.3093  150.5291 H   0  0  0  0  0  0  0  0  0  0  0  0
  145.2210  132.8437  151.6439 H   0  0  0  0  0  0  0  0  0  0  0  0
  146.5899  132.8698  150.5722 H   0  0  0  0  0  0  0  0  0  0  0  0
  147.3796  132.3103  152.7628 H   0  0  0  0  0  0  0  0  0  0  0  0
  148.0079  133.8950  152.4039 H   0  0  0  0  0  0  0  0  0  0  0  0
  145.3862  133.5306  153.9425 H   0  0  0  0  0  0  0  0  0  0  0  0
  146.9055  133.3727  154.7525 H   0  0  0  0  0  0  0  0  0  0  0  0
  147.5322  135.6180  154.4478 H   0  0  0  0  0  0  0  0  0  0  0  0
  145.8623  135.6439  154.9593 H   0  0  0  0  0  0  0  0  0  0  0  0
  147.0316  136.2579  152.3829 H   0  0  0  0  0  0  0  0  0  0  0  0
  1  2  1  0  0  0  0
  1 20  1  0  0  0  0
  1 21  1  0  0  0  0
  1 22  1  0  0  0  0
  2 19  1  0  0  0  0
  2  3  2  0  0  0  0
  3  4  1  0  0  0  0
  3 23  1  0  0  0  0
  4  5  1  0  0  0  0
  4 18  2  0  0  0  0
  5  6  1  0  0  0  0
  5 24  1  0  0  0  0
  6  7  2  0  0  0  0
  6  8  1  0  0  0  0
  8  9  1  0  0  0  0
  8 25  1  0  0  0  0
  9 10  1  0  0  0  0
  9 26  1  0  0  0  0
  9 27  1  0  0  0  0
 10 11  1  0  0  0  0
 10 28  1  0  0  0  0
 10 29  1  0  0  0  0
 11 17  1  0  0  0  0
 11 12  1  0  0  0  0
 11 42  1  0  0  0  0
 12 13  1  0  0  0  0
 12 30  1  0  0  0  0
 12 31  1  0  0  0  0
 13 14  1  0  0  0  0
 13 32  1  0  0  0  0
 13 33  1  0  0  0  0
 14 15  1  0  0  0  0
 14 34  1  0  0  0  0
 14 35  1  0  0  0  0
 15 16  1  0  0  0  0
 15 36  1  0  0  0  0
 15 37  1  0  0  0  0
 16 17  1  0  0  0  0
 16 38  1  0  0  0  0
 16 39  1  0  0  0  0
 17 40  1  0  0  0  0
 17 41  1  0  0  0  0
 18 19  1  0  0  0  0
M  CHG  1  11   1
M  END
> <s_m_source_file>
AV-unprocessed.smi

> <i_m_source_file_index>
2031

> <i_lp_mmshare_version>
43012

> <i_f3d_flags>
0

> <s_epik_input>
W0NIM11jMVtjSF1jKG5vMSlbTkhdQyg9TylbTkhdW0NIMl1bQ0gyXU4yW0NIMl1bQ0gyXVtDSDJdW0NIMl1bQ0gyXVtDSDJdMg==

> <s_epik_cmdline>
J2VwaWtfcHl0aG9uJywgJy1waCcsICc3LjAnLCAnLXRuJywgJzgnLCAnLW1hJywgJzIwMCcsICctbWV0YWxfYmluZGluZycsICctaW1hZScsICc8aW5maWxlLm1hZT4nLCAnLW9tYWUnLCAnPG91dGZpbGUubWFlPic=

> <r_epik_Ionization_Penalty>
0.00265971

> <r_epik_Ionization_Penalty_Charging>
0.00262393

> <r_epik_Ionization_Penalty_Neutral>
3.57846e-05

> <r_epik_State_Penalty>
0.00182566

> <r_epik_Charging_Adjusted_Penalty>
0.00444959

> <i_epik_Tot_Q>
1

> <i_epik_Tot_abs_Q>
1

> <r_epik_Metal_State_Penalty>
0.0216344

> <b_epik_Metal_Only>
0

> <s_lp_Force_Field>
OPLS_2005

> <r_lp_Energy>
20.9695

> <b_lp_Chiralities_Consistent>
1

> <s_lp_Variant>
AV-unprocessed.smi:2031-1

> <Gold.Version>
5.8.1

> <Gold.Id.Protein>
6NUR|6NUR_protein|mol2

> <Gold.PLP.Fitness>
45.0911

> <Gold.PLP.PLP>
-29.7855

> <Gold.PLP.part.hbond>
-5.8611

> <Gold.PLP.part.metal>
0.0000

> <Gold.PLP.part.buried>
-3.2097

> <Gold.PLP.part.nonpolar>
-20.7153

> <Gold.PLP.part.repulsive>
0.3236

> <Gold.PLP.ligand.clash>
0.0000

> <Gold.PLP.ligand.torsion>
0.7332

> <Gold.PLP.Chemscore.Hbond>
5.5760

> <Gold.PLP.Chemscore.CHOScore>
0.0000

> <Gold.PLP.Chemscore.Metal>
0.0000

> <Gold.Chemscore.Hbonds>
donor molecule, donor type, donor heavy atom, donor atom, acceptor molecule, acceptor atom, score
      L1  H     5    24       P1  7957  0.63
      L1  H     8    25       P1  7957  0.82
      L1  H    11    42       P1  7948  2.00
      P1  H  7989  7998       L1    18  0.79
      P1  H  7997  8010       L1    19  1.00

> <Gold.PLP.Chemscore.Internal.Correction>
0.0439

> <Gold.Rescore>
     Score         DG    S(hbond)    S(metal)    S(lipo)     H(rot)  DE(clash)    DE(int)     intcor
     19.11     -22.50       4.59        0.00      48.80       1.57       0.07       3.33       ----

> <Gold.Chemscore.Fitness>
19.1067

> <Gold.Chemscore.DG>
-22.5036

> <Gold.Chemscore.ZeroCoef>
-5.4800

> <Gold.Chemscore.Hbond>
4.5905

> <Gold.Chemscore.Metal>
0.0000

> <Gold.Chemscore.Lipo>
48.8015

> <Gold.Chemscore.Internal_Hbond>
0.0000

> <Gold.Chemscore.DEClash>
0.0665

> <Gold.Chemscore.DEInternal>
3.3304

> <Gold.Chemscore.Rot>
1.5697

> <Gold.Chemscore.Internal.Correction>
   9.000000E+99

> <Gold.Chemscore.Hbonds>
donor molecule, donor type, donor heavy atom, donor atom, acceptor molecule, acceptor atom, score
      L1  H     5    24       P1  7957  0.55
      L1  H     8    25       P1  7957  0.71
      L1  H    11    42       P1  7948  0.98
      P1  H  7989  7998       L1    18  0.13
      P1  H  7997  8010       L1    19  0.98

> <Gold.Chemscore.Hbond.Weighted>
-15.3323

> <Gold.Chemscore.Metal.Weighted>
-0.0000

> <Gold.Chemscore.Lipo.Weighted>
-5.7098

> <Gold.Chemscore.Internal_Hbond.Weighted>
0.0000

> <Gold.Chemscore.DEClash.Weighted>
0.0665

> <Gold.Chemscore.DEInternal.Weighted>
3.3304

> <Gold.Chemscore.Rot.Weighted>
4.0185

> <Gold.Chemscore.Internal.Correction.Weighted>
   9.000000E+99

> <Gold.Protein.RotatedTorsions>
[ 6907 6896 6895 6894 ] final   44.45 input  -60.11 | X-H torsion
[ 7974 7965 7964 7962 ] final   33.58 input  175.53 | X-H torsion
[ 8008 7997 7996 7995 ] final   72.49 input   59.86 | X-H torsion
[ 10167 10162 10161 10158 ] final  166.06 input  -65.29 | X-H torsion
[ 10718 10713 10712 10709 ] final   37.57 input   66.30 | X-H torsion
[ 10763 10752 10751 10750 ] final  -11.46 input  -60.55 | X-H torsion
[ 11005 11000 10999 10996 ] final  112.79 input  -57.11 | X-H torsion

> <Gold.Protein.ActiveResidues>
 VAL166  LYS551  ARG553  GLY616  TRP617  ASP618  TYR619  PRO620  LYS621  CYS622 
 ASP623  PHE694  ASN695  SER759  ASP760  ASP761  ALA762  ILE779  LEU786  VAL792 
 PHE793  MET794  SER795  GLU796  ALA797  LYS798  CYS799  TRP800  GLU811  SER814 

> <Gold.Protein.RotatedAtoms>
  152.2327  134.8306  160.0471 H   0  0  0  0  0  0  0  0  0  0  0  0  # atno 6907 bound_to 6896
  151.9049  133.3542  159.3851 H   0  0  0  0  0  0  0  0  0  0  0  0  # atno 6908 bound_to 6896
  150.7030  134.4716  159.5472 H   0  0  0  0  0  0  0  0  0  0  0  0  # atno 6909 bound_to 6896
  146.1411  139.6379  142.9162 H   0  0  0  0  0  0  0  0  0  0  0  0  # atno 7974 bound_to 7965
  155.7696  140.3484  155.5240 H   0  0  0  0  0  0  0  0  0  0  0  0  # atno 8008 bound_to 7997
  155.8835  140.1006  157.1489 H   0  0  0  0  0  0  0  0  0  0  0  0  # atno 8009 bound_to 7997
  154.4027  140.1318  156.4213 H   0  0  0  0  0  0  0  0  0  0  0  0  # atno 8010 bound_to 7997
  139.4917  144.4067  151.9347 H   0  0  0  0  0  0  0  0  0  0  0  0  # atno 10167 bound_to 10162
  157.3485  130.7585  149.6961 H   0  0  0  0  0  0  0  0  0  0  0  0  # atno 10718 bound_to 10713
  153.4842  135.7017  153.5921 H   0  0  0  0  0  0  0  0  0  0  0  0  # atno 10763 bound_to 10752
  153.4121  135.3846  155.2057 H   0  0  0  0  0  0  0  0  0  0  0  0  # atno 10764 bound_to 10752
  154.8720  135.3907  154.4294 H   0  0  0  0  0  0  0  0  0  0  0  0  # atno 10765 bound_to 10752
  139.8936  134.9537  156.6639 H   0  0  0  0  0  0  0  0  0  0  0  0  # atno 11005 bound_to 11000
  145.5044  141.0437  143.2522 LP  0  0  0  0  0  0  0  0  0  0  0  0  # atno 17320 bound_to 7965
  144.7793  139.6560  143.7161 LP  0  0  0  0  0  0  0  0  0  0  0  0  # atno 17321 bound_to 7965
  140.3507  144.3092  150.5950 LP  0  0  0  0  0  0  0  0  0  0  0  0  # atno 17342 bound_to 10162
  140.5487  143.2210  151.7963 LP  0  0  0  0  0  0  0  0  0  0  0  0  # atno 17343 bound_to 10162
  155.9718  130.4147  150.4147 LP  0  0  0  0  0  0  0  0  0  0  0  0  # atno 17370 bound_to 10713
  157.2206  131.0481  151.2549 LP  0  0  0  0  0  0  0  0  0  0  0  0  # atno 17371 bound_to 10713
  140.7425  133.8965  155.8288 LP  0  0  0  0  0  0  0  0  0  0  0  0  # atno 17394 bound_to 11000
  141.0066  134.1078  157.4264 LP  0  0  0  0  0  0  0  0  0  0  0  0  # atno 17395 bound_to 11000

$$$$
