AV-unprocessed.smi:53|AV-procd|sdf|515|dock3
  -GOLD-   2262016393D 1   1.00000     0.00000
 Structure written by MMmdl.
 30 31  0  0  0  0  0  0  0  0  1 V2000
  152.8966  140.9976  159.2710 N   0  0  0  0  0  0  0  0  0  0  0  0
  152.1588  141.0036  158.1518 C   0  0  0  0  0  0  0  0  0  0  0  0
  151.0196  141.8855  158.0328 C   0  0  0  0  0  0  0  0  0  0  0  0
  150.3252  141.8349  156.8745 C   0  0  0  0  0  0  0  0  0  0  0  0
  150.6774  140.9801  155.8376 N   0  0  0  0  0  0  0  0  0  0  0  0
  149.9009  140.9232  154.5333 C   0  0  2  0  0  0  0  0  0  0  0  0
  148.9791  141.9733  154.4835 O   0  0  0  0  0  0  0  0  0  0  0  0
  147.6556  141.4746  154.6525 C   0  0  1  0  0  0  0  0  0  0  0  0
  146.6141  142.4512  154.0791 C   0  0  0  0  0  0  0  0  0  0  0  0
  145.3101  141.9897  154.3597 O   0  0  0  0  0  0  0  0  0  0  0  0
  147.7192  140.1012  153.9736 C   0  0  1  0  0  0  0  0  0  0  0  0
  147.5977  140.2177  152.5670 O   0  0  0  0  0  0  0  0  0  0  0  0
  149.1085  139.6041  154.3503 C   0  0  2  0  0  0  0  0  0  0  0  0
  149.0255  138.8153  155.5253 O   0  0  0  0  0  0  0  0  0  0  0  0
  151.7977  140.1274  155.9862 C   0  0  0  0  0  0  0  0  0  0  0  0
  152.1362  139.3456  155.0981 O   0  0  0  0  0  0  0  0  0  0  0  0
  152.4899  140.1930  157.1655 N   0  0  0  0  0  0  0  0  0  0  0  0
  150.6342  141.0999  153.7439 H   0  0  0  0  0  0  0  0  0  0  0  0
  147.4682  141.3122  155.7156 H   0  0  0  0  0  0  0  0  0  0  0  0
  146.9265  139.4385  154.3240 H   0  0  0  0  0  0  0  0  0  0  0  0
  149.5667  139.0031  153.5635 H   0  0  0  0  0  0  0  0  0  0  0  0
  153.6915  140.3799  159.3510 H   0  0  0  0  0  0  0  0  0  0  0  0
  152.6545  141.6124  160.0349 H   0  0  0  0  0  0  0  0  0  0  0  0
  150.7105  142.5654  158.8141 H   0  0  0  0  0  0  0  0  0  0  0  0
  149.4739  142.4918  156.7819 H   0  0  0  0  0  0  0  0  0  0  0  0
  146.7513  143.4579  154.4751 H   0  0  0  0  0  0  0  0  0  0  0  0
  146.7113  142.5101  152.9946 H   0  0  0  0  0  0  0  0  0  0  0  0
  145.0564  141.3777  153.6857 H   0  0  0  0  0  0  0  0  0  0  0  0
  148.4486  140.0834  152.1791 H   0  0  0  0  0  0  0  0  0  0  0  0
  148.4217  139.2337  156.1206 H   0  0  0  0  0  0  0  0  0  0  0  0
  1  2  1  0  0  0  0
  1 22  1  0  0  0  0
  1 23  1  0  0  0  0
  2 17  2  0  0  0  0
  2  3  1  0  0  0  0
  3  4  2  0  0  0  0
  3 24  1  0  0  0  0
  4  5  1  0  0  0  0
  4 25  1  0  0  0  0
  5  6  1  0  0  0  0
  5 15  1  0  0  0  0
  6 18  1  0  0  0  0
  6 13  1  0  0  0  0
  6  7  1  0  0  0  0
  7  8  1  0  0  0  0
  8 19  1  0  0  0  0
  8  9  1  0  0  0  0
  8 11  1  0  0  0  0
  9 10  1  0  0  0  0
  9 26  1  0  0  0  0
  9 27  1  0  0  0  0
 10 28  1  0  0  0  0
 11 20  1  0  0  0  0
 11 12  1  0  0  0  0
 11 13  1  0  0  0  0
 12 29  1  0  0  0  0
 13 21  1  0  0  0  0
 13 14  1  0  0  0  0
 14 30  1  0  0  0  0
 15 16  2  0  0  0  0
 15 17  1  0  0  0  0
M  END
> <s_m_source_file>
AV-unprocessed.smi

> <i_m_source_file_index>
53

> <i_lp_mmshare_version>
43012

> <i_f3d_flags>
0

> <s_epik_input>
W05IMl1jMVtjSF1bY0hdbihjKD1PKW4xKVtDQEBIXTJPW0NASF0oW0NIMl1bT0hdKVtDQEBIXShbT0hdKVtDQEBIXTJbT0hd

> <s_epik_cmdline>
J2VwaWtfcHl0aG9uJywgJy1waCcsICc3LjAnLCAnLXRuJywgJzgnLCAnLW1hJywgJzIwMCcsICctbWV0YWxfYmluZGluZycsICctaW1hZScsICc8aW5maWxlLm1hZT4nLCAnLW9tYWUnLCAnPG91dGZpbGUubWFlPic=

> <r_lp_tautomer_probability>
0.99996

> <r_epik_Ionization_Penalty>
0.00069087

> <r_epik_Ionization_Penalty_Charging>
2.61959e-08

> <r_epik_Ionization_Penalty_Neutral>
0.000690844

> <r_epik_State_Penalty>
1.15523e-05

> <r_epik_Charging_Adjusted_Penalty>
1.15785e-05

> <i_epik_Tot_Q>
0

> <i_epik_Tot_abs_Q>
0

> <r_epik_Metal_State_Penalty>
-0

> <b_epik_Metal_Only>
0

> <s_epik_Chemistry_Notes>
This compound contains an acetal/aminal-like group ( X-CH(R)-Y where X, Y are N, S, or O) that may be acid/base labile, releasing an aldehyde.

> <s_lp_Force_Field>
OPLS_2005

> <r_lp_Energy>
36.7575

> <b_lp_Chiralities_Consistent>
1

> <s_lp_Variant>
AV-unprocessed.smi:53-3

> <Gold.Version>
5.8.1

> <Gold.Id.Protein>
6NUR|6NUR_protein|mol2

> <Gold.PLP.Fitness>
41.8038

> <Gold.PLP.PLP>
-29.0222

> <Gold.PLP.part.hbond>
-4.9602

> <Gold.PLP.part.metal>
0.0000

> <Gold.PLP.part.buried>
-1.4730

> <Gold.PLP.part.nonpolar>
-22.2871

> <Gold.PLP.part.repulsive>
1.3305

> <Gold.PLP.ligand.clash>
0.0000

> <Gold.PLP.ligand.torsion>
0.1970

> <Gold.PLP.Chemscore.Hbond>
3.3704

> <Gold.PLP.Chemscore.CHOScore>
1.0000

> <Gold.PLP.Chemscore.Metal>
0.0000

> <Gold.Chemscore.Hbonds>
donor molecule, donor type, donor heavy atom, donor atom, acceptor molecule, acceptor atom, score
      L1  H    10    28       P1 10175  1.00
      L1  H    12    29       P1  7957  1.00
      P1  H  7989  7998       L1    16  0.24
      P1  H  7997  8010       L1    17  1.00
      P1  H  8011  8017       L1     7  0.03
      L1  C     4    25       P1  8028  0.92

> <Gold.PLP.Chemscore.Internal.Correction>
0.0644

> <Gold.Rescore>
     Score         DG    S(hbond)    S(metal)    S(lipo)     H(rot)  DE(clash)    DE(int)     intcor
      5.62      -7.17       2.10        0.00      35.49       3.71       1.08       0.46       ----

> <Gold.Chemscore.Fitness>
5.6246

> <Gold.Chemscore.DG>
-7.1663

> <Gold.Chemscore.ZeroCoef>
-5.4800

> <Gold.Chemscore.Hbond>
2.1050

> <Gold.Chemscore.Metal>
0.0000

> <Gold.Chemscore.Lipo>
35.4877

> <Gold.Chemscore.Internal_Hbond>
0.0000

> <Gold.Chemscore.DEClash>
1.0834

> <Gold.Chemscore.DEInternal>
0.4582

> <Gold.Chemscore.Rot>
3.7095

> <Gold.Chemscore.Internal.Correction>
   9.000000E+99

> <Gold.Chemscore.Hbonds>
donor molecule, donor type, donor heavy atom, donor atom, acceptor molecule, acceptor atom, score
      L1  H    10    28       P1 10175  0.23
      L1  H    12    29       P1  7957  0.93
      P1  H  7989  7998       L1    16  0.02
      P1  H  7997  8010       L1    17  0.41

> <Gold.Chemscore.Hbond.Weighted>
-7.0306

> <Gold.Chemscore.Metal.Weighted>
-0.0000

> <Gold.Chemscore.Lipo.Weighted>
-4.1521

> <Gold.Chemscore.Internal_Hbond.Weighted>
0.0000

> <Gold.Chemscore.DEClash.Weighted>
1.0834

> <Gold.Chemscore.DEInternal.Weighted>
0.4582

> <Gold.Chemscore.Rot.Weighted>
9.4964

> <Gold.Chemscore.Internal.Correction.Weighted>
   9.000000E+99

> <Gold.Protein.RotatedTorsions>
[ 6907 6896 6895 6894 ] final  -50.86 input  -60.11 | X-H torsion
[ 7974 7965 7964 7962 ] final -131.62 input  175.53 | X-H torsion
[ 8008 7997 7996 7995 ] final   61.25 input   59.86 | X-H torsion
[ 10167 10162 10161 10158 ] final  -31.56 input  -65.29 | X-H torsion
[ 10718 10713 10712 10709 ] final  163.63 input   66.30 | X-H torsion
[ 10763 10752 10751 10750 ] final  -45.58 input  -60.55 | X-H torsion
[ 11005 11000 10999 10996 ] final -170.71 input  -57.11 | X-H torsion

> <Gold.Protein.ActiveResidues>
 VAL166  LYS551  ARG553  GLY616  TRP617  ASP618  TYR619  PRO620  LYS621  CYS622 
 ASP623  PHE694  ASN695  SER759  ASP760  ASP761  ALA762  ILE779  LEU786  VAL792 
 PHE793  MET794  SER795  GLU796  ALA797  LYS798  CYS799  TRP800  GLU811  SER814 

> <Gold.Protein.RotatedAtoms>
  150.8666  134.8031  159.7122 H   0  0  0  0  0  0  0  0  0  0  0  0  # atno 6907 bound_to 6896
  152.4685  134.5014  159.9735 H   0  0  0  0  0  0  0  0  0  0  0  0  # atno 6908 bound_to 6896
  151.5109  133.3447  159.2920 H   0  0  0  0  0  0  0  0  0  0  0  0  # atno 6909 bound_to 6896
  144.9362  140.7186  143.4875 H   0  0  0  0  0  0  0  0  0  0  0  0  # atno 7974 bound_to 7965
  155.5953  140.3493  155.4578 H   0  0  0  0  0  0  0  0  0  0  0  0  # atno 8008 bound_to 7997
  156.0270  140.1266  157.0323 H   0  0  0  0  0  0  0  0  0  0  0  0  # atno 8009 bound_to 7997
  154.4337  140.1051  156.6031 H   0  0  0  0  0  0  0  0  0  0  0  0  # atno 8010 bound_to 7997
  140.7234  143.3761  151.1686 H   0  0  0  0  0  0  0  0  0  0  0  0  # atno 10167 bound_to 10162
  157.1057  131.0454  151.2479 H   0  0  0  0  0  0  0  0  0  0  0  0  # atno 10718 bound_to 10713
  154.0309  135.6657  153.4780 H   0  0  0  0  0  0  0  0  0  0  0  0  # atno 10763 bound_to 10752
  153.0541  135.5067  154.7933 H   0  0  0  0  0  0  0  0  0  0  0  0  # atno 10764 bound_to 10752
  154.6879  135.3056  154.9487 H   0  0  0  0  0  0  0  0  0  0  0  0  # atno 10765 bound_to 10752
  140.5164  134.5752  157.5034 H   0  0  0  0  0  0  0  0  0  0  0  0  # atno 11005 bound_to 11000
  145.3063  139.1833  143.4663 LP  0  0  0  0  0  0  0  0  0  0  0  0  # atno 17320 bound_to 7965
  146.3267  140.3061  142.8624 LP  0  0  0  0  0  0  0  0  0  0  0  0  # atno 17321 bound_to 7965
  139.7342  143.9025  152.3029 LP  0  0  0  0  0  0  0  0  0  0  0  0  # atno 17342 bound_to 10162
  139.8824  144.7010  150.8862 LP  0  0  0  0  0  0  0  0  0  0  0  0  # atno 17343 bound_to 10162
  157.4602  130.7649  149.7229 LP  0  0  0  0  0  0  0  0  0  0  0  0  # atno 17370 bound_to 10713
  155.9862  130.3976  150.3222 LP  0  0  0  0  0  0  0  0  0  0  0  0  # atno 17371 bound_to 10713
  139.9630  134.7420  156.0197 LP  0  0  0  0  0  0  0  0  0  0  0  0  # atno 17394 bound_to 11000
  141.1358  133.6575  156.3589 LP  0  0  0  0  0  0  0  0  0  0  0  0  # atno 17395 bound_to 11000

$$$$
