AV-unprocessed.smi:287|AV-procd|sdf|2177|dock6
  -GOLD-   2262021543D 1   1.00000     0.00000
 Structure written by MMmdl.
 55 58  0  0  0  0  0  0  0  0  1 V2000
  142.1533  134.3456  162.8331 C   0  0  0  0  0  0  0  0  0  0  0  0
  143.4823  134.9808  162.6076 C   0  0  0  0  0  0  0  0  0  0  0  0
  144.7604  134.5058  162.5630 C   0  0  0  0  0  0  0  0  0  0  0  0
  145.6208  135.6182  162.3195 C   0  0  0  0  0  0  0  0  0  0  0  0
  147.1373  135.5717  162.1883 C   0  0  1  0  0  0  0  0  0  0  0  0
  147.7856  136.1931  163.4359 C   0  0  0  0  0  0  0  0  0  0  0  0
  147.6389  134.2506  162.1200 O   0  0  0  0  0  0  0  0  0  0  0  0
  147.6476  136.2840  160.9145 C   0  0  0  0  0  0  0  0  0  0  0  0
  147.0938  135.7199  159.6877 N   0  0  0  0  0  0  0  0  0  0  0  0
  147.5666  136.1105  158.4861 C   0  0  0  0  0  0  0  0  0  0  0  0
  147.1304  135.5283  157.3385 N   0  0  0  0  0  0  0  0  0  0  0  0
  147.6125  135.9324  156.1589 C   0  0  0  0  0  0  0  0  0  0  0  0
  148.5155  136.8835  155.9073 N   0  0  0  0  0  0  0  0  0  0  0  0
  148.9534  137.4699  157.0591 C   0  0  0  0  0  0  0  0  0  0  0  0
  148.5327  137.1435  158.3774 C   0  0  0  0  0  0  0  0  0  0  0  0
  149.1936  137.9501  159.2948 N   0  0  0  0  0  0  0  0  0  0  0  0
  149.9557  138.7115  158.5554 C   0  0  0  0  0  0  0  0  0  0  0  0
  149.8673  138.4908  157.1967 N   0  0  0  0  0  0  0  0  0  0  0  0
  150.5794  139.1759  156.0755 C   0  0  2  0  0  0  0  0  0  0  0  0
  151.4166  140.1497  156.6303 O   0  0  0  0  0  0  0  0  0  0  0  0
  151.0440  141.4571  156.1941 C   0  0  2  0  0  0  0  0  0  0  0  0
  151.2588  142.4732  157.3266 C   0  0  0  0  0  0  0  0  0  0  0  0
  151.0666  143.7849  156.8430 O   0  0  0  0  0  0  0  0  0  0  0  0
  149.5786  141.2968  155.7890 C   0  0  1  0  0  0  0  0  0  0  0  0
  149.1319  142.2869  154.8829 O   0  0  0  0  0  0  0  0  0  0  0  0
  149.5558  139.8988  155.1911 C   0  0  1  0  0  0  0  0  0  0  0  0
  149.9493  139.8636  153.8310 O   0  0  0  0  0  0  0  0  0  0  0  0
  144.7759  136.6966  162.2118 C   0  0  0  0  0  0  0  0  0  0  0  0
  144.9800  138.1507  161.9409 C   0  0  0  0  0  0  0  0  0  0  0  0
  143.4792  136.3202  162.3927 O   0  0  0  0  0  0  0  0  0  0  0  0
  151.1377  138.3814  155.5784 H   0  0  0  0  0  0  0  0  0  0  0  0
  151.6372  141.7147  155.3143 H   0  0  0  0  0  0  0  0  0  0  0  0
  148.9464  141.3169  156.6784 H   0  0  0  0  0  0  0  0  0  0  0  0
  148.5692  139.4394  155.2679 H   0  0  0  0  0  0  0  0  0  0  0  0
  142.2656  133.2995  163.1183 H   0  0  0  0  0  0  0  0  0  0  0  0
  141.5473  134.3863  161.9281 H   0  0  0  0  0  0  0  0  0  0  0  0
  141.6106  134.8555  163.6294 H   0  0  0  0  0  0  0  0  0  0  0  0
  145.0492  133.4740  162.6983 H   0  0  0  0  0  0  0  0  0  0  0  0
  147.4833  137.2336  163.5607 H   0  0  0  0  0  0  0  0  0  0  0  0
  148.8744  136.1745  163.3725 H   0  0  0  0  0  0  0  0  0  0  0  0
  147.4978  135.6572  164.3417 H   0  0  0  0  0  0  0  0  0  0  0  0
  148.2870  134.1408  162.7988 H   0  0  0  0  0  0  0  0  0  0  0  0
  147.3436  137.3312  160.9548 H   0  0  0  0  0  0  0  0  0  0  0  0
  148.7381  136.2779  160.8762 H   0  0  0  0  0  0  0  0  0  0  0  0
  146.3509  135.0452  159.8045 H   0  0  0  0  0  0  0  0  0  0  0  0
  147.2165  135.4222  155.2932 H   0  0  0  0  0  0  0  0  0  0  0  0
  150.6023  139.4599  158.9887 H   0  0  0  0  0  0  0  0  0  0  0  0
  150.5300  142.3086  158.1207 H   0  0  0  0  0  0  0  0  0  0  0  0
  152.2490  142.3730  157.7713 H   0  0  0  0  0  0  0  0  0  0  0  0
  150.1884  143.8532  156.5010 H   0  0  0  0  0  0  0  0  0  0  0  0
  149.2330  143.1321  155.2945 H   0  0  0  0  0  0  0  0  0  0  0  0
  149.1723  139.9021  153.2940 H   0  0  0  0  0  0  0  0  0  0  0  0
  145.6248  138.2964  161.0744 H   0  0  0  0  0  0  0  0  0  0  0  0
  145.4443  138.6413  162.7962 H   0  0  0  0  0  0  0  0  0  0  0  0
  144.0329  138.6513  161.7387 H   0  0  0  0  0  0  0  0  0  0  0  0
  1  2  1  0  0  0  0
  1 35  1  0  0  0  0
  1 36  1  0  0  0  0
  1 37  1  0  0  0  0
  2 30  1  0  0  0  0
  2  3  2  0  0  0  0
  3  4  1  0  0  0  0
  3 38  1  0  0  0  0
  4  5  1  0  0  0  0
  4 28  2  0  0  0  0
  5  6  1  0  0  0  0
  5  7  1  0  0  0  0
  5  8  1  0  0  0  0
  6 39  1  0  0  0  0
  6 40  1  0  0  0  0
  6 41  1  0  0  0  0
  7 42  1  0  0  0  0
  8  9  1  0  0  0  0
  8 43  1  0  0  0  0
  8 44  1  0  0  0  0
  9 10  1  0  0  0  0
  9 45  1  0  0  0  0
 10 15  1  0  0  0  0
 10 11  2  0  0  0  0
 11 12  1  0  0  0  0
 12 13  2  0  0  0  0
 12 46  1  0  0  0  0
 13 14  1  0  0  0  0
 14 18  1  0  0  0  0
 14 15  2  0  0  0  0
 15 16  1  0  0  0  0
 16 17  2  0  0  0  0
 17 18  1  0  0  0  0
 17 47  1  0  0  0  0
 18 19  1  0  0  0  0
 19 31  1  0  0  0  0
 19 26  1  0  0  0  0
 19 20  1  0  0  0  0
 20 21  1  0  0  0  0
 21 32  1  0  0  0  0
 21 22  1  0  0  0  0
 21 24  1  0  0  0  0
 22 23  1  0  0  0  0
 22 48  1  0  0  0  0
 22 49  1  0  0  0  0
 23 50  1  0  0  0  0
 24 33  1  0  0  0  0
 24 25  1  0  0  0  0
 24 26  1  0  0  0  0
 25 51  1  0  0  0  0
 26 34  1  0  0  0  0
 26 27  1  0  0  0  0
 27 52  1  0  0  0  0
 28 29  1  0  0  0  0
 28 30  1  0  0  0  0
 29 53  1  0  0  0  0
 29 54  1  0  0  0  0
 29 55  1  0  0  0  0
M  END
> <s_m_source_file>
AV-unprocessed.smi

> <i_m_source_file_index>
287

> <i_lp_mmshare_version>
43012

> <i_f3d_flags>
0

> <s_epik_input>
W0NIM11jMVtjSF1jKGMobzEpW0NIM10pW0NAQF0oW0NIM10pKFtPSF0pW0NIMl1bTkhdYyhuW2NIXW4yKWMoYzIzKW5bY0hdbjNbQ0BASF00T1tDQEhdKFtDSDJdW09IXSlbQ0BASF0oW09IXSlbQ0BIXTRbT0hd

> <s_epik_cmdline>
J2VwaWtfcHl0aG9uJywgJy1waCcsICc3LjAnLCAnLXRuJywgJzgnLCAnLW1hJywgJzIwMCcsICctbWV0YWxfYmluZGluZycsICctaW1hZScsICc8aW5maWxlLm1hZT4nLCAnLW9tYWUnLCAnPG91dGZpbGUubWFlPic=

> <r_lp_tautomer_probability>
1

> <r_epik_Ionization_Penalty>
0.000992612

> <r_epik_Ionization_Penalty_Charging>
0

> <r_epik_Ionization_Penalty_Neutral>
0.000992612

> <r_epik_State_Penalty>
-0

> <r_epik_Charging_Adjusted_Penalty>
0

> <i_epik_Tot_Q>
0

> <i_epik_Tot_abs_Q>
0

> <r_epik_Metal_State_Penalty>
-0

> <b_epik_Metal_Only>
0

> <s_epik_Chemistry_Notes>
This compound contains an acetal/aminal-like group ( X-CH(R)-Y where X, Y are N, S, or O) that may be acid/base labile, releasing an aldehyde.

> <s_lp_Force_Field>
OPLS_2005

> <r_lp_Energy>
40.3349

> <b_lp_Chiralities_Consistent>
1

> <s_lp_Variant>
AV-unprocessed.smi:287-1

> <Gold.Version>
5.8.1

> <Gold.Id.Protein>
6NUR|6NUR_protein|mol2

> <Gold.PLP.Fitness>
52.5441

> <Gold.PLP.PLP>
-44.0854

> <Gold.PLP.part.hbond>
-6.3699

> <Gold.PLP.part.metal>
0.0000

> <Gold.PLP.part.buried>
-9.7335

> <Gold.PLP.part.nonpolar>
-28.9240

> <Gold.PLP.part.repulsive>
0.1439

> <Gold.PLP.ligand.clash>
0.0000

> <Gold.PLP.ligand.torsion>
0.4525

> <Gold.PLP.Chemscore.Hbond>
3.0619

> <Gold.PLP.Chemscore.CHOScore>
0.0000

> <Gold.PLP.Chemscore.Metal>
0.0000

> <Gold.Chemscore.Hbonds>
donor molecule, donor type, donor heavy atom, donor atom, acceptor molecule, acceptor atom, score
      L1  H    23    50       P1  8028  1.00
      L1  H    25    51       P1  8028  1.00
      L1  H    27    52       P1  7957  0.16
      P1  H  7989  7998       L1    27  0.86

> <Gold.PLP.Chemscore.Internal.Correction>
0.1780

> <Gold.Rescore>
     Score         DG    S(hbond)    S(metal)    S(lipo)     H(rot)  DE(clash)    DE(int)     intcor
     11.63     -13.25       3.20        0.00      90.22       5.27       0.06       1.56       ----

> <Gold.Chemscore.Fitness>
11.6269

> <Gold.Chemscore.DG>
-13.2504

> <Gold.Chemscore.ZeroCoef>
-5.4800

> <Gold.Chemscore.Hbond>
3.2032

> <Gold.Chemscore.Metal>
0.0000

> <Gold.Chemscore.Lipo>
90.2196

> <Gold.Chemscore.Internal_Hbond>
0.0000

> <Gold.Chemscore.DEClash>
0.0591

> <Gold.Chemscore.DEInternal>
1.5644

> <Gold.Chemscore.Rot>
5.2672

> <Gold.Chemscore.Internal.Correction>
   9.000000E+99

> <Gold.Chemscore.Hbonds>
donor molecule, donor type, donor heavy atom, donor atom, acceptor molecule, acceptor atom, score
      L1  H    23    50       P1  8028  0.95
      L1  H    25    51       P1  8028  0.99
      L1  H    27    52       P1  7957  0.16
      P1  H  7989  7998       L1    27  0.73

> <Gold.Chemscore.Hbond.Weighted>
-10.6986

> <Gold.Chemscore.Metal.Weighted>
-0.0000

> <Gold.Chemscore.Lipo.Weighted>
-10.5557

> <Gold.Chemscore.Internal_Hbond.Weighted>
0.0000

> <Gold.Chemscore.DEClash.Weighted>
0.0591

> <Gold.Chemscore.DEInternal.Weighted>
1.5644

> <Gold.Chemscore.Rot.Weighted>
13.4839

> <Gold.Chemscore.Internal.Correction.Weighted>
   9.000000E+99

> <Gold.Protein.RotatedTorsions>
[ 6907 6896 6895 6894 ] final   53.85 input  -60.11 | X-H torsion
[ 7974 7965 7964 7962 ] final  104.34 input  175.53 | X-H torsion
[ 8008 7997 7996 7995 ] final -123.49 input   59.86 | X-H torsion
[ 10167 10162 10161 10158 ] final -144.80 input  -65.29 | X-H torsion
[ 10718 10713 10712 10709 ] final  171.40 input   66.30 | X-H torsion
[ 10763 10752 10751 10750 ] final  146.44 input  -60.55 | X-H torsion
[ 11005 11000 10999 10996 ] final  136.09 input  -57.11 | X-H torsion

> <Gold.Protein.ActiveResidues>
 VAL166  LYS551  ARG553  GLY616  TRP617  ASP618  TYR619  PRO620  LYS621  CYS622 
 ASP623  PHE694  ASN695  SER759  ASP760  ASP761  ALA762  ILE779  LEU786  VAL792 
 PHE793  MET794  SER795  GLU796  ALA797  LYS798  CYS799  TRP800  GLU811  SER814 

> <Gold.Protein.RotatedAtoms>
  152.3379  134.7174  160.0271 H   0  0  0  0  0  0  0  0  0  0  0  0  # atno 6907 bound_to 6896
  151.7569  133.3325  159.3415 H   0  0  0  0  0  0  0  0  0  0  0  0  # atno 6908 bound_to 6896
  150.7461  134.6074  159.6112 H   0  0  0  0  0  0  0  0  0  0  0  0  # atno 6909 bound_to 6896
  145.3340  139.2479  143.3645 H   0  0  0  0  0  0  0  0  0  0  0  0  # atno 7974 bound_to 7965
  155.1813  140.0410  157.2883 H   0  0  0  0  0  0  0  0  0  0  0  0  # atno 8008 bound_to 7997
  154.6201  140.2498  155.7532 H   0  0  0  0  0  0  0  0  0  0  0  0  # atno 8009 bound_to 7997
  156.2429  140.2896  156.0505 H   0  0  0  0  0  0  0  0  0  0  0  0  # atno 8010 bound_to 7997
  139.7865  143.8026  152.2645 H   0  0  0  0  0  0  0  0  0  0  0  0  # atno 10167 bound_to 10162
  156.9941  131.0156  151.2849 H   0  0  0  0  0  0  0  0  0  0  0  0  # atno 10718 bound_to 10713
  154.0220  135.2905  155.3380 H   0  0  0  0  0  0  0  0  0  0  0  0  # atno 10763 bound_to 10752
  154.7040  135.5176  153.8572 H   0  0  0  0  0  0  0  0  0  0  0  0  # atno 10764 bound_to 10752
  153.0677  135.6637  154.0441 H   0  0  0  0  0  0  0  0  0  0  0  0  # atno 10765 bound_to 10752
  140.0023  134.9473  157.0098 H   0  0  0  0  0  0  0  0  0  0  0  0  # atno 11005 bound_to 11000
  146.3034  140.3924  142.8696 LP  0  0  0  0  0  0  0  0  0  0  0  0  # atno 17320 bound_to 7965
  144.8842  140.7440  143.5967 LP  0  0  0  0  0  0  0  0  0  0  0  0  # atno 17321 bound_to 7965
  139.8104  144.7338  150.9704 LP  0  0  0  0  0  0  0  0  0  0  0  0  # atno 17342 bound_to 10162
  140.7819  143.4256  151.0773 LP  0  0  0  0  0  0  0  0  0  0  0  0  # atno 17343 bound_to 10162
  157.5438  130.8137  149.8061 LP  0  0  0  0  0  0  0  0  0  0  0  0  # atno 17370 bound_to 10713
  156.0196  130.3800  150.2003 LP  0  0  0  0  0  0  0  0  0  0  0  0  # atno 17371 bound_to 10713
  140.4706  134.1391  155.7202 LP  0  0  0  0  0  0  0  0  0  0  0  0  # atno 17394 bound_to 11000
  141.1651  133.8719  157.1738 LP  0  0  0  0  0  0  0  0  0  0  0  0  # atno 17395 bound_to 11000

$$$$
