AV-unprocessed.smi:3355|AV-procd|sdf|12963|dock2
  -GOLD-   2272019403D 1   1.00000     0.00000
 Structure written by MMmdl.
 45 46  0  0  0  0  0  0  0  0  1 V2000
  147.7390  137.2731  155.1152 C   0  0  0  0  0  0  0  0  0  0  0  0
  147.3459  138.7193  155.4361 C   0  0  0  0  0  0  0  0  0  0  0  0
  148.4189  139.7054  155.0855 C   0  0  0  0  0  0  0  0  0  0  0  0
  149.6058  139.3359  154.5876 N   0  0  0  0  0  0  0  0  0  0  0  0
  150.3063  140.5060  154.3794 N   0  0  0  0  0  0  0  0  0  0  0  0
  149.4711  141.4681  154.7667 C   0  0  0  0  0  0  0  0  0  0  0  0
  148.2791  141.0440  155.2139 N   0  0  0  0  0  0  0  0  0  0  0  0
  147.1729  141.8564  155.6904 C   0  0  0  0  0  0  0  0  0  0  0  0
  147.3559  142.2565  157.1606 C   0  0  0  0  0  0  0  0  0  0  0  0
  148.7230  142.6937  157.4025 N   0  0  0  0  0  0  0  0  0  0  0  0
  149.6681  141.9514  158.0035 C   0  0  0  0  0  0  0  0  0  0  0  0
  149.4456  140.7996  158.3816 O   0  0  0  0  0  0  0  0  0  0  0  0
  150.8869  142.5463  158.1026 N   0  0  0  0  0  0  0  0  0  0  0  0
  151.1066  144.0059  158.0177 C   0  0  0  0  0  0  0  0  0  0  0  0
  152.2184  144.5522  158.9378 C   0  0  0  0  0  0  0  0  0  0  0  0
  152.1894  144.0085  160.3792 C   0  0  0  0  0  0  0  0  0  0  0  0
  152.9684  142.6884  160.5590 C   0  0  1  0  0  0  0  0  0  0  0  0
  153.1539  142.3658  162.0498 C   0  0  0  0  0  0  0  0  0  0  0  0
  152.3316  141.4890  159.8286 C   0  0  0  0  0  0  0  0  0  0  0  0
  152.0848  141.7232  158.3272 C   0  0  0  0  0  0  0  0  0  0  0  0
  146.9441  136.5835  155.3992 H   0  0  0  0  0  0  0  0  0  0  0  0
  148.6408  136.9820  155.6547 H   0  0  0  0  0  0  0  0  0  0  0  0
  147.9290  137.1396  154.0506 H   0  0  0  0  0  0  0  0  0  0  0  0
  146.4154  138.9768  154.9329 H   0  0  0  0  0  0  0  0  0  0  0  0
  147.1386  138.8064  156.5033 H   0  0  0  0  0  0  0  0  0  0  0  0
  149.7353  142.5145  154.7186 H   0  0  0  0  0  0  0  0  0  0  0  0
  147.0641  142.7378  155.0598 H   0  0  0  0  0  0  0  0  0  0  0  0
  146.2544  141.2797  155.5725 H   0  0  0  0  0  0  0  0  0  0  0  0
  146.6696  143.0647  157.4189 H   0  0  0  0  0  0  0  0  0  0  0  0
  147.1252  141.4159  157.8151 H   0  0  0  0  0  0  0  0  0  0  0  0
  148.9717  143.6225  157.0950 H   0  0  0  0  0  0  0  0  0  0  0  0
  151.3206  144.2709  156.9816 H   0  0  0  0  0  0  0  0  0  0  0  0
  150.2024  144.5519  158.2904 H   0  0  0  0  0  0  0  0  0  0  0  0
  153.2001  144.3822  158.4947 H   0  0  0  0  0  0  0  0  0  0  0  0
  152.1120  145.6371  158.9737 H   0  0  0  0  0  0  0  0  0  0  0  0
  152.6474  144.7609  161.0224 H   0  0  0  0  0  0  0  0  0  0  0  0
  151.1615  143.9048  160.7303 H   0  0  0  0  0  0  0  0  0  0  0  0
  153.9661  142.8355  160.1426 H   0  0  0  0  0  0  0  0  0  0  0  0
  152.1939  142.2172  162.5454 H   0  0  0  0  0  0  0  0  0  0  0  0
  153.6736  143.1729  162.5670 H   0  0  0  0  0  0  0  0  0  0  0  0
  153.7432  141.4584  162.1864 H   0  0  0  0  0  0  0  0  0  0  0  0
  152.9969  140.6313  159.9353 H   0  0  0  0  0  0  0  0  0  0  0  0
  151.4008  141.2009  160.3194 H   0  0  0  0  0  0  0  0  0  0  0  0
  151.9740  140.7590  157.8277 H   0  0  0  0  0  0  0  0  0  0  0  0
  152.9603  142.1705  157.8555 H   0  0  0  0  0  0  0  0  0  0  0  0
  1  2  1  0  0  0  0
  1 21  1  0  0  0  0
  1 22  1  0  0  0  0
  1 23  1  0  0  0  0
  2  3  1  0  0  0  0
  2 24  1  0  0  0  0
  2 25  1  0  0  0  0
  3  7  1  0  0  0  0
  3  4  2  0  0  0  0
  4  5  1  0  0  0  0
  5  6  2  0  0  0  0
  6  7  1  0  0  0  0
  6 26  1  0  0  0  0
  7  8  1  0  0  0  0
  8  9  1  0  0  0  0
  8 27  1  0  0  0  0
  8 28  1  0  0  0  0
  9 10  1  0  0  0  0
  9 29  1  0  0  0  0
  9 30  1  0  0  0  0
 10 11  1  0  0  0  0
 10 31  1  0  0  0  0
 11 12  2  0  0  0  0
 11 13  1  0  0  0  0
 13 20  1  0  0  0  0
 13 14  1  0  0  0  0
 14 15  1  0  0  0  0
 14 32  1  0  0  0  0
 14 33  1  0  0  0  0
 15 16  1  0  0  0  0
 15 34  1  0  0  0  0
 15 35  1  0  0  0  0
 16 17  1  0  0  0  0
 16 36  1  0  0  0  0
 16 37  1  0  0  0  0
 17 18  1  0  0  0  0
 17 19  1  0  0  0  0
 17 38  1  0  0  0  0
 18 39  1  0  0  0  0
 18 40  1  0  0  0  0
 18 41  1  0  0  0  0
 19 20  1  0  0  0  0
 19 42  1  0  0  0  0
 19 43  1  0  0  0  0
 20 44  1  0  0  0  0
 20 45  1  0  0  0  0
M  END
> <s_m_source_file>
AV-unprocessed.smi

> <i_m_source_file_index>
3355

> <i_lp_mmshare_version>
43012

> <i_f3d_flags>
0

> <s_epik_input>
W0NIM11bQ0gyXWMxbm5bY0hdbjFbQ0gyXVtDSDJdW05IXUMoPU8pTjJbQ0gyXVtDSDJdW0NIMl1bQ0BASF0oW0NIM10pW0NIMl1bQ0gyXTI=

> <s_epik_cmdline>
J2VwaWtfcHl0aG9uJywgJy1waCcsICc3LjAnLCAnLXRuJywgJzgnLCAnLW1hJywgJzIwMCcsICctbWV0YWxfYmluZGluZycsICctaW1hZScsICc8aW5maWxlLm1hZT4nLCAnLW9tYWUnLCAnPG91dGZpbGUubWFlPic=

> <r_lp_tautomer_probability>
1

> <r_epik_Ionization_Penalty>
0.000387734

> <r_epik_Ionization_Penalty_Charging>
0

> <r_epik_Ionization_Penalty_Neutral>
0.000387734

> <r_epik_State_Penalty>
-0

> <r_epik_Charging_Adjusted_Penalty>
0

> <i_epik_Tot_Q>
0

> <i_epik_Tot_abs_Q>
0

> <r_epik_Metal_State_Penalty>
-0

> <b_epik_Metal_Only>
0

> <s_lp_Force_Field>
OPLS_2005

> <r_lp_Energy>
33.7292

> <b_lp_Chiralities_Consistent>
1

> <s_lp_Variant>
AV-unprocessed.smi:3355-1

> <Gold.Version>
5.8.1

> <Gold.Id.Protein>
6NUR|6NUR_protein|mol2

> <Gold.PLP.Fitness>
44.9498

> <Gold.PLP.PLP>
-37.8099

> <Gold.PLP.part.hbond>
-1.9815

> <Gold.PLP.part.metal>
0.0000

> <Gold.PLP.part.buried>
-3.9126

> <Gold.PLP.part.nonpolar>
-32.0941

> <Gold.PLP.part.repulsive>
0.3020

> <Gold.PLP.ligand.clash>
0.0000

> <Gold.PLP.ligand.torsion>
0.6562

> <Gold.PLP.Chemscore.Hbond>
1.7920

> <Gold.PLP.Chemscore.CHOScore>
0.9971

> <Gold.PLP.Chemscore.Metal>
0.0000

> <Gold.Chemscore.Hbonds>
donor molecule, donor type, donor heavy atom, donor atom, acceptor molecule, acceptor atom, score
      L1  H    10    31       P1  8028  0.86
      P1  H  7989  7998       L1     5  0.93
      L1  C     6    26       P1  8028  1.00

> <Gold.PLP.Chemscore.Internal.Correction>
0.0850

> <Gold.Rescore>
     Score         DG    S(hbond)    S(metal)    S(lipo)     H(rot)  DE(clash)    DE(int)     intcor
     13.94     -14.91       1.23        0.00      83.36       1.74       0.26       0.71       ----

> <Gold.Chemscore.Fitness>
13.9397

> <Gold.Chemscore.DG>
-14.9070

> <Gold.Chemscore.ZeroCoef>
-5.4800

> <Gold.Chemscore.Hbond>
1.2329

> <Gold.Chemscore.Metal>
0.0000

> <Gold.Chemscore.Lipo>
83.3614

> <Gold.Chemscore.Internal_Hbond>
0.0000

> <Gold.Chemscore.DEClash>
0.2598

> <Gold.Chemscore.DEInternal>
0.7075

> <Gold.Chemscore.Rot>
1.7360

> <Gold.Chemscore.Internal.Correction>
   9.000000E+99

> <Gold.Chemscore.Hbonds>
donor molecule, donor type, donor heavy atom, donor atom, acceptor molecule, acceptor atom, score
      L1  H    10    31       P1  8028  0.34
      P1  H  7989  7998       L1     5  0.87

> <Gold.Chemscore.Hbond.Weighted>
-4.1180

> <Gold.Chemscore.Metal.Weighted>
-0.0000

> <Gold.Chemscore.Lipo.Weighted>
-9.7533

> <Gold.Chemscore.Internal_Hbond.Weighted>
0.0000

> <Gold.Chemscore.DEClash.Weighted>
0.2598

> <Gold.Chemscore.DEInternal.Weighted>
0.7075

> <Gold.Chemscore.Rot.Weighted>
4.4443

> <Gold.Chemscore.Internal.Correction.Weighted>
   9.000000E+99

> <Gold.Protein.RotatedTorsions>
[ 6907 6896 6895 6894 ] final    7.52 input  -60.11 | X-H torsion
[ 7974 7965 7964 7962 ] final -165.03 input  175.53 | X-H torsion
[ 8008 7997 7996 7995 ] final  -60.87 input   59.86 | X-H torsion
[ 10167 10162 10161 10158 ] final   29.90 input  -65.29 | X-H torsion
[ 10718 10713 10712 10709 ] final  103.56 input   66.30 | X-H torsion
[ 10763 10752 10751 10750 ] final  -99.66 input  -60.55 | X-H torsion
[ 11005 11000 10999 10996 ] final  -19.82 input  -57.11 | X-H torsion

> <Gold.Protein.ActiveResidues>
 VAL166  LYS551  ARG553  GLY616  TRP617  ASP618  TYR619  PRO620  LYS621  CYS622 
 ASP623  PHE694  ASN695  SER759  ASP760  ASP761  ALA762  ILE779  LEU786  VAL792 
 PHE793  MET794  SER795  GLU796  ALA797  LYS798  CYS799  TRP800  GLU811  SER814 

> <Gold.Protein.RotatedAtoms>
  151.6912  135.0946  160.0233 H   0  0  0  0  0  0  0  0  0  0  0  0  # atno 6907 bound_to 6896
  152.3777  133.6499  159.6145 H   0  0  0  0  0  0  0  0  0  0  0  0  # atno 6908 bound_to 6896
  150.7722  133.9082  159.3403 H   0  0  0  0  0  0  0  0  0  0  0  0  # atno 6909 bound_to 6896
  144.7281  140.2874  143.6226 H   0  0  0  0  0  0  0  0  0  0  0  0  # atno 7974 bound_to 7965
  154.4420  140.1030  156.6341 H   0  0  0  0  0  0  0  0  0  0  0  0  # atno 8008 bound_to 7997
  155.5572  140.3487  155.4464 H   0  0  0  0  0  0  0  0  0  0  0  0  # atno 8009 bound_to 7997
  156.0486  140.1298  157.0065 H   0  0  0  0  0  0  0  0  0  0  0  0  # atno 8010 bound_to 7997
  140.4725  144.0740  150.6241 H   0  0  0  0  0  0  0  0  0  0  0  0  # atno 10167 bound_to 10162
  157.6768  131.0782  150.5574 H   0  0  0  0  0  0  0  0  0  0  0  0  # atno 10718 bound_to 10713
  154.7516  135.4964  153.9299 H   0  0  0  0  0  0  0  0  0  0  0  0  # atno 10763 bound_to 10752
  153.1149  135.6718  153.9443 H   0  0  0  0  0  0  0  0  0  0  0  0  # atno 10764 bound_to 10752
  153.9191  135.3090  155.3427 H   0  0  0  0  0  0  0  0  0  0  0  0  # atno 10765 bound_to 10752
  140.8404  133.7930  155.9854 H   0  0  0  0  0  0  0  0  0  0  0  0  # atno 11005 bound_to 11000
  145.7889  139.1919  143.2114 LP  0  0  0  0  0  0  0  0  0  0  0  0  # atno 17320 bound_to 7965
  146.0773  140.7803  142.9659 LP  0  0  0  0  0  0  0  0  0  0  0  0  # atno 17321 bound_to 7965
  140.3959  143.2728  152.0005 LP  0  0  0  0  0  0  0  0  0  0  0  0  # atno 17342 bound_to 10162
  139.4820  144.6038  151.7557 LP  0  0  0  0  0  0  0  0  0  0  0  0  # atno 17343 bound_to 10162
  156.5878  130.4321  149.5950 LP  0  0  0  0  0  0  0  0  0  0  0  0  # atno 17370 bound_to 10713
  156.2608  130.6961  151.1729 LP  0  0  0  0  0  0  0  0  0  0  0  0  # atno 17371 bound_to 10713
  140.8901  134.2505  157.5099 LP  0  0  0  0  0  0  0  0  0  0  0  0  # atno 17394 bound_to 11000
  139.8703  134.9657  156.4539 LP  0  0  0  0  0  0  0  0  0  0  0  0  # atno 17395 bound_to 11000

$$$$
