AV-unprocessed.smi:1753|AV-procd|sdf|7062|dock10
  -GOLD-   22720 8283D 1   1.00000     0.00000
 Structure written by MMmdl.
 37 38  0  0  0  0  0  0  0  0  1 V2000
  143.5771  132.0689  150.1161 C   0  0  0  0  0  0  0  0  0  0  0  0
  144.6651  132.9150  150.7083 C   0  0  0  0  0  0  0  0  0  0  0  0
  144.7682  134.3366  150.7112 C   0  0  0  0  0  0  0  0  0  0  0  0
  145.9434  134.5516  151.3779 C   0  0  0  0  0  0  0  0  0  0  0  0
  146.5533  135.7289  151.6785 N   0  0  0  0  0  0  0  0  0  0  0  0
  145.9927  136.9085  151.9970 C   0  0  0  0  0  0  0  0  0  0  0  0
  144.7841  137.1257  152.0853 O   0  0  0  0  0  0  0  0  0  0  0  0
  146.9271  137.8460  152.2094 N   0  0  0  0  0  0  0  0  0  0  0  0
  146.6553  139.2361  152.5610 C   0  0  0  0  0  0  0  0  0  0  0  0
  147.4143  139.6841  153.8265 C   0  0  2  0  0  0  0  0  0  0  0  0
  147.8868  141.1524  153.7756 C   0  0  0  0  0  0  0  0  0  0  0  0
  148.8644  141.3905  154.9299 C   0  0  0  0  0  0  0  0  0  0  0  0
  149.7841  139.8200  155.1248 S   0  0  0  0  0  0  0  0  0  0  0  0
  151.0753  139.9197  154.4276 O   0  0  0  0  0  0  0  0  0  0  0  0
  149.7135  139.3933  156.5305 O   0  0  0  0  0  0  0  0  0  0  0  0
  148.6413  138.8035  154.1130 C   0  0  0  0  0  0  0  0  0  0  0  0
  146.4811  133.3354  151.7359 N   0  0  0  0  0  0  0  0  0  0  0  0
  147.7088  133.0462  152.4508 C   0  0  0  0  0  0  0  0  0  0  0  0
  145.6869  132.3257  151.3193 N   0  0  0  0  0  0  0  0  0  0  0  0
  142.8285  132.6833  149.6156 H   0  0  0  0  0  0  0  0  0  0  0  0
  143.0685  131.4886  150.8862 H   0  0  0  0  0  0  0  0  0  0  0  0
  143.9780  131.3707  149.3808 H   0  0  0  0  0  0  0  0  0  0  0  0
  144.0836  135.0565  150.2887 H   0  0  0  0  0  0  0  0  0  0  0  0
  147.5620  135.7083  151.6515 H   0  0  0  0  0  0  0  0  0  0  0  0
  147.8971  137.5814  152.1194 H   0  0  0  0  0  0  0  0  0  0  0  0
  146.9077  139.8838  151.7197 H   0  0  0  0  0  0  0  0  0  0  0  0
  145.5808  139.3383  152.7146 H   0  0  0  0  0  0  0  0  0  0  0  0
  146.7481  139.5905  154.6858 H   0  0  0  0  0  0  0  0  0  0  0  0
  148.4039  141.3304  152.8318 H   0  0  0  0  0  0  0  0  0  0  0  0
  147.0510  141.8515  153.8188 H   0  0  0  0  0  0  0  0  0  0  0  0
  149.5543  142.2145  154.7467 H   0  0  0  0  0  0  0  0  0  0  0  0
  148.3257  141.5833  155.8580 H   0  0  0  0  0  0  0  0  0  0  0  0
  148.3879  137.8850  154.6426 H   0  0  0  0  0  0  0  0  0  0  0  0
  149.1621  138.5389  153.1923 H   0  0  0  0  0  0  0  0  0  0  0  0
  147.7046  133.5635  153.4108 H   0  0  0  0  0  0  0  0  0  0  0  0
  148.5623  133.3879  151.8646 H   0  0  0  0  0  0  0  0  0  0  0  0
  147.8070  131.9740  152.6282 H   0  0  0  0  0  0  0  0  0  0  0  0
  1  2  1  0  0  0  0
  1 20  1  0  0  0  0
  1 21  1  0  0  0  0
  1 22  1  0  0  0  0
  2 19  2  0  0  0  0
  2  3  1  0  0  0  0
  3  4  2  0  0  0  0
  3 23  1  0  0  0  0
  4  5  1  0  0  0  0
  4 17  1  0  0  0  0
  5  6  1  0  0  0  0
  5 24  1  0  0  0  0
  6  7  2  0  0  0  0
  6  8  1  0  0  0  0
  8  9  1  0  0  0  0
  8 25  1  0  0  0  0
  9 10  1  0  0  0  0
  9 26  1  0  0  0  0
  9 27  1  0  0  0  0
 10 16  1  0  0  0  0
 10 11  1  0  0  0  0
 10 28  1  0  0  0  0
 11 12  1  0  0  0  0
 11 29  1  0  0  0  0
 11 30  1  0  0  0  0
 12 13  1  0  0  0  0
 12 31  1  0  0  0  0
 12 32  1  0  0  0  0
 13 14  2  0  0  0  0
 13 15  2  0  0  0  0
 13 16  1  0  0  0  0
 16 33  1  0  0  0  0
 16 34  1  0  0  0  0
 17 18  1  0  0  0  0
 17 19  1  0  0  0  0
 18 35  1  0  0  0  0
 18 36  1  0  0  0  0
 18 37  1  0  0  0  0
M  END
> <s_m_source_file>
AV-unprocessed.smi

> <i_m_source_file_index>
1753

> <i_lp_mmshare_version>
43012

> <i_f3d_flags>
0

> <s_epik_input>
W0NIM11jMVtjSF1jKG4objEpW0NIM10pW05IXUMoPU8pW05IXVtDSDJdW0NAQEhdKFtDSDJdMilbQ0gyXVtDSDJdUzIoPU8pPU8=

> <s_epik_cmdline>
J2VwaWtfcHl0aG9uJywgJy1waCcsICc3LjAnLCAnLXRuJywgJzgnLCAnLW1hJywgJzIwMCcsICctbWV0YWxfYmluZGluZycsICctaW1hZScsICc8aW5maWxlLm1hZT4nLCAnLW9tYWUnLCAnPG91dGZpbGUubWFlPic=

> <r_lp_tautomer_probability>
1

> <r_epik_Ionization_Penalty>
9.06651e-05

> <r_epik_Ionization_Penalty_Charging>
0

> <r_epik_Ionization_Penalty_Neutral>
9.06651e-05

> <r_epik_State_Penalty>
-0

> <r_epik_Charging_Adjusted_Penalty>
0

> <i_epik_Tot_Q>
0

> <i_epik_Tot_abs_Q>
0

> <r_epik_Metal_State_Penalty>
-0

> <b_epik_Metal_Only>
0

> <s_lp_Force_Field>
OPLS_2005

> <r_lp_Energy>
5.34898

> <b_lp_Chiralities_Consistent>
1

> <s_lp_Variant>
AV-unprocessed.smi:1753-1

> <Gold.Version>
5.8.1

> <Gold.Id.Protein>
6NUR|6NUR_protein|mol2

> <Gold.PLP.Fitness>
38.6729

> <Gold.PLP.PLP>
-31.9727

> <Gold.PLP.part.hbond>
-2.8684

> <Gold.PLP.part.metal>
0.0000

> <Gold.PLP.part.buried>
-4.8130

> <Gold.PLP.part.nonpolar>
-28.1348

> <Gold.PLP.part.repulsive>
2.0258

> <Gold.PLP.ligand.clash>
0.5533

> <Gold.PLP.ligand.torsion>
0.7781

> <Gold.PLP.Chemscore.Hbond>
2.9353

> <Gold.PLP.Chemscore.CHOScore>
0.0000

> <Gold.PLP.Chemscore.Metal>
0.0000

> <Gold.Chemscore.Hbonds>
donor molecule, donor type, donor heavy atom, donor atom, acceptor molecule, acceptor atom, score
      L1  H     5    24       P1  7948  0.83
      L1  H     8    25       P1  7948  0.88
      P1  H  7989  7998       L1    14  0.78

> <Gold.PLP.Chemscore.Internal.Correction>
0.0039

> <Gold.Rescore>
     Score         DG    S(hbond)    S(metal)    S(lipo)     H(rot)  DE(clash)    DE(int)     intcor
     18.02     -18.97       2.93        0.00      60.31       1.31       0.12       0.83       ----

> <Gold.Chemscore.Fitness>
18.0241

> <Gold.Chemscore.DG>
-18.9745

> <Gold.Chemscore.ZeroCoef>
-5.4800

> <Gold.Chemscore.Hbond>
2.9302

> <Gold.Chemscore.Metal>
0.0000

> <Gold.Chemscore.Lipo>
60.3086

> <Gold.Chemscore.Internal_Hbond>
0.0000

> <Gold.Chemscore.DEClash>
0.1224

> <Gold.Chemscore.DEInternal>
0.8280

> <Gold.Chemscore.Rot>
1.3080

> <Gold.Chemscore.Internal.Correction>
   9.000000E+99

> <Gold.Chemscore.Hbonds>
donor molecule, donor type, donor heavy atom, donor atom, acceptor molecule, acceptor atom, score
      L1  H     5    24       P1  7948  0.79
      L1  H     8    25       P1  7948  0.86
      P1  H  7989  7998       L1    14  0.77

> <Gold.Chemscore.Hbond.Weighted>
-9.7869

> <Gold.Chemscore.Metal.Weighted>
-0.0000

> <Gold.Chemscore.Lipo.Weighted>
-7.0561

> <Gold.Chemscore.Internal_Hbond.Weighted>
0.0000

> <Gold.Chemscore.DEClash.Weighted>
0.1224

> <Gold.Chemscore.DEInternal.Weighted>
0.8280

> <Gold.Chemscore.Rot.Weighted>
3.3485

> <Gold.Chemscore.Internal.Correction.Weighted>
   9.000000E+99

> <Gold.Protein.RotatedTorsions>
[ 6907 6896 6895 6894 ] final  100.97 input  -60.11 | X-H torsion
[ 7974 7965 7964 7962 ] final  168.62 input  175.53 | X-H torsion
[ 8008 7997 7996 7995 ] final -124.47 input   59.86 | X-H torsion
[ 10167 10162 10161 10158 ] final   89.28 input  -65.29 | X-H torsion
[ 10718 10713 10712 10709 ] final   35.63 input   66.30 | X-H torsion
[ 10763 10752 10751 10750 ] final -142.92 input  -60.55 | X-H torsion
[ 11005 11000 10999 10996 ] final  -69.41 input  -57.11 | X-H torsion

> <Gold.Protein.ActiveResidues>
 VAL166  LYS551  ARG553  GLY616  TRP617  ASP618  TYR619  PRO620  LYS621  CYS622 
 ASP623  PHE694  ASN695  SER759  ASP760  ASP761  ALA762  ILE779  LEU786  VAL792 
 PHE793  MET794  SER795  GLU796  ALA797  LYS798  CYS799  TRP800  GLU811  SER814 

> <Gold.Protein.RotatedAtoms>
  152.5360  134.0196  159.7975 H   0  0  0  0  0  0  0  0  0  0  0  0  # atno 6907 bound_to 6896
  151.0384  133.5720  159.2660 H   0  0  0  0  0  0  0  0  0  0  0  0  # atno 6908 bound_to 6896
  151.2698  135.0688  159.9183 H   0  0  0  0  0  0  0  0  0  0  0  0  # atno 6909 bound_to 6896
  144.7382  139.8935  143.6404 H   0  0  0  0  0  0  0  0  0  0  0  0  # atno 7974 bound_to 7965
  155.1975  140.0415  157.2911 H   0  0  0  0  0  0  0  0  0  0  0  0  # atno 8008 bound_to 7997
  154.6097  140.2473  155.7656 H   0  0  0  0  0  0  0  0  0  0  0  0  # atno 8009 bound_to 7997
  156.2372  140.2917  156.0353 H   0  0  0  0  0  0  0  0  0  0  0  0  # atno 8010 bound_to 7997
  139.8588  144.6555  150.9083 H   0  0  0  0  0  0  0  0  0  0  0  0  # atno 10167 bound_to 10162
  157.3250  130.7468  149.6810 H   0  0  0  0  0  0  0  0  0  0  0  0  # atno 10718 bound_to 10713
  154.8490  135.3482  154.6104 H   0  0  0  0  0  0  0  0  0  0  0  0  # atno 10763 bound_to 10752
  153.6713  135.6985  153.5151 H   0  0  0  0  0  0  0  0  0  0  0  0  # atno 10764 bound_to 10752
  153.2740  135.4284  155.0972 H   0  0  0  0  0  0  0  0  0  0  0  0  # atno 10765 bound_to 10752
  141.1553  133.6764  156.6594 H   0  0  0  0  0  0  0  0  0  0  0  0  # atno 11005 bound_to 11000
  146.1125  139.4131  143.0279 LP  0  0  0  0  0  0  0  0  0  0  0  0  # atno 17320 bound_to 7965
  145.7423  141.0003  143.1294 LP  0  0  0  0  0  0  0  0  0  0  0  0  # atno 17321 bound_to 7965
  140.7778  143.3762  151.1558 LP  0  0  0  0  0  0  0  0  0  0  0  0  # atno 17342 bound_to 10162
  139.7394  143.8948  152.3045 LP  0  0  0  0  0  0  0  0  0  0  0  0  # atno 17343 bound_to 10162
  155.9689  130.4212  150.4457 LP  0  0  0  0  0  0  0  0  0  0  0  0  # atno 17370 bound_to 10713
  157.2479  131.0540  151.2397 LP  0  0  0  0  0  0  0  0  0  0  0  0  # atno 17371 bound_to 10713
  140.3259  134.7969  157.4288 LP  0  0  0  0  0  0  0  0  0  0  0  0  # atno 17394 bound_to 11000
  140.1058  134.5412  155.8311 LP  0  0  0  0  0  0  0  0  0  0  0  0  # atno 17395 bound_to 11000

$$$$
