AV-unprocessed.smi:2419|AV-procd|sdf|9552|dock4
  -GOLD-   2272013183D 1   1.00000     0.00000
 Structure written by MMmdl.
 28 29  0  0  0  0  0  0  0  0  1 V2000
  150.9978  140.7696  156.6706 O   0  0  0  0  0  0  0  0  0  0  0  0
  150.4439  141.8544  156.4899 C   0  0  0  0  0  0  0  0  0  0  0  0
  149.6524  142.1116  155.4407 N   0  0  0  0  0  0  0  0  0  0  0  0
  149.3399  141.1526  154.3880 C   0  0  0  0  0  0  0  0  0  0  0  0
  147.8276  141.0668  154.1496 C   0  0  0  0  0  0  0  0  0  0  0  0
  147.6634  140.0629  153.1671 O   0  0  0  0  0  0  0  0  0  0  0  0
  146.8939  140.9376  155.3679 C   0  0  0  0  0  0  0  0  0  0  0  0
  145.9366  141.9359  154.7148 C   0  0  0  0  0  0  0  0  0  0  0  0
  147.0912  142.3758  153.8125 C   0  0  0  0  0  0  0  0  0  0  0  0
  150.5447  142.9245  157.2977 N   0  0  0  0  0  0  0  0  0  0  0  0
  151.2905  143.0503  158.4991 C   0  0  0  0  0  0  0  0  0  0  0  0
  151.8242  142.0216  159.1681 N   0  0  0  0  0  0  0  0  0  0  0  0
  152.5053  142.4381  160.3146 C   0  0  0  0  0  0  0  0  0  0  0  0
  152.4802  143.7976  160.5046 C   0  0  0  0  0  0  0  0  0  0  0  0
  151.5945  144.6132  159.2439 S   0  0  0  0  0  0  0  0  0  0  0  0
  149.2295  143.0251  155.3657 H   0  0  0  0  0  0  0  0  0  0  0  0
  149.8426  141.4789  153.4760 H   0  0  0  0  0  0  0  0  0  0  0  0
  149.7644  140.1781  154.6364 H   0  0  0  0  0  0  0  0  0  0  0  0
  148.3545  140.1806  152.5334 H   0  0  0  0  0  0  0  0  0  0  0  0
  146.4711  139.9436  155.5185 H   0  0  0  0  0  0  0  0  0  0  0  0
  147.3377  141.3244  156.2866 H   0  0  0  0  0  0  0  0  0  0  0  0
  145.1316  141.4492  154.1625 H   0  0  0  0  0  0  0  0  0  0  0  0
  145.5605  142.7106  155.3836 H   0  0  0  0  0  0  0  0  0  0  0  0
  147.6001  143.2640  154.1903 H   0  0  0  0  0  0  0  0  0  0  0  0
  146.8184  142.4933  152.7630 H   0  0  0  0  0  0  0  0  0  0  0  0
  150.0289  143.7462  157.0198 H   0  0  0  0  0  0  0  0  0  0  0  0
  152.9807  141.6979  160.9410 H   0  0  0  0  0  0  0  0  0  0  0  0
  152.9269  144.3657  161.3070 H   0  0  0  0  0  0  0  0  0  0  0  0
  1  2  2  0  0  0  0
  2  3  1  0  0  0  0
  2 10  1  0  0  0  0
  3  4  1  0  0  0  0
  3 16  1  0  0  0  0
  4  5  1  0  0  0  0
  4 17  1  0  0  0  0
  4 18  1  0  0  0  0
  5  9  1  0  0  0  0
  5  6  1  0  0  0  0
  5  7  1  0  0  0  0
  6 19  1  0  0  0  0
  7  8  1  0  0  0  0
  7 20  1  0  0  0  0
  7 21  1  0  0  0  0
  8  9  1  0  0  0  0
  8 22  1  0  0  0  0
  8 23  1  0  0  0  0
  9 24  1  0  0  0  0
  9 25  1  0  0  0  0
 10 11  1  0  0  0  0
 10 26  1  0  0  0  0
 11 15  1  0  0  0  0
 11 12  2  0  0  0  0
 12 13  1  0  0  0  0
 13 14  2  0  0  0  0
 13 27  1  0  0  0  0
 14 15  1  0  0  0  0
 14 28  1  0  0  0  0
M  END
> <s_m_source_file>
AV-unprocessed.smi

> <i_m_source_file_index>
2419

> <i_lp_mmshare_version>
43012

> <i_f3d_flags>
0

> <s_epik_input>
czFbY0hdW2NIXW5jMVtOSF1DKD1PKVtOSF1bQ0gyXUMyKFtPSF0pW0NIMl1bQ0gyXVtDSDJdMg==

> <s_epik_cmdline>
J2VwaWtfcHl0aG9uJywgJy1waCcsICc3LjAnLCAnLXRuJywgJzgnLCAnLW1hJywgJzIwMCcsICctbWV0YWxfYmluZGluZycsICctaW1hZScsICc8aW5maWxlLm1hZT4nLCAnLW9tYWUnLCAnPG91dGZpbGUubWFlPic=

> <r_lp_tautomer_probability>
0.999

> <r_epik_Ionization_Penalty>
0.000351348

> <r_epik_Ionization_Penalty_Charging>
0

> <r_epik_Ionization_Penalty_Neutral>
0.000351348

> <r_epik_State_Penalty>
0.000177984

> <r_epik_Charging_Adjusted_Penalty>
0.000177984

> <i_epik_Tot_Q>
0

> <i_epik_Tot_abs_Q>
0

> <r_epik_Metal_State_Penalty>
0.00728824

> <b_epik_Metal_Only>
0

> <s_lp_Force_Field>
OPLS_2005

> <r_lp_Energy>
10.8103

> <b_lp_Chiralities_Consistent>
1

> <s_lp_Variant>
AV-unprocessed.smi:2419-1

> <Gold.Version>
5.8.1

> <Gold.Id.Protein>
6NUR|6NUR_protein|mol2

> <Gold.PLP.Fitness>
41.4192

> <Gold.PLP.PLP>
-32.6361

> <Gold.PLP.part.hbond>
-3.0000

> <Gold.PLP.part.metal>
0.0000

> <Gold.PLP.part.buried>
-5.3337

> <Gold.PLP.part.nonpolar>
-24.9114

> <Gold.PLP.part.repulsive>
0.2080

> <Gold.PLP.ligand.clash>
0.0000

> <Gold.PLP.ligand.torsion>
0.1340

> <Gold.PLP.Chemscore.Hbond>
2.9920

> <Gold.PLP.Chemscore.CHOScore>
0.0000

> <Gold.PLP.Chemscore.Metal>
0.0000

> <Gold.Chemscore.Hbonds>
donor molecule, donor type, donor heavy atom, donor atom, acceptor molecule, acceptor atom, score
      L1  H     3    16       P1  8028  1.00
      L1  H     6    19       P1  7957  1.00
      L1  H    10    26       P1  8028  1.00

> <Gold.PLP.Chemscore.Internal.Correction>
0.0753

> <Gold.Rescore>
     Score         DG    S(hbond)    S(metal)    S(lipo)     H(rot)  DE(clash)    DE(int)     intcor
     16.48     -18.10       2.94        0.00      65.80       1.91       0.23       1.39       ----

> <Gold.Chemscore.Fitness>
16.4825

> <Gold.Chemscore.DG>
-18.1044

> <Gold.Chemscore.ZeroCoef>
-5.4800

> <Gold.Chemscore.Hbond>
2.9370

> <Gold.Chemscore.Metal>
0.0000

> <Gold.Chemscore.Lipo>
65.8007

> <Gold.Chemscore.Internal_Hbond>
0.0000

> <Gold.Chemscore.DEClash>
0.2302

> <Gold.Chemscore.DEInternal>
1.3917

> <Gold.Chemscore.Rot>
1.9077

> <Gold.Chemscore.Internal.Correction>
   9.000000E+99

> <Gold.Chemscore.Hbonds>
donor molecule, donor type, donor heavy atom, donor atom, acceptor molecule, acceptor atom, score
      L1  H     3    16       P1  8028  1.00
      L1  H     6    19       P1  7957  1.00
      L1  H    10    26       P1  8028  0.89

> <Gold.Chemscore.Hbond.Weighted>
-9.8094

> <Gold.Chemscore.Metal.Weighted>
-0.0000

> <Gold.Chemscore.Lipo.Weighted>
-7.6987

> <Gold.Chemscore.Internal_Hbond.Weighted>
0.0000

> <Gold.Chemscore.DEClash.Weighted>
0.2302

> <Gold.Chemscore.DEInternal.Weighted>
1.3917

> <Gold.Chemscore.Rot.Weighted>
4.8837

> <Gold.Chemscore.Internal.Correction.Weighted>
   9.000000E+99

> <Gold.Protein.RotatedTorsions>
[ 6907 6896 6895 6894 ] final  -82.99 input  -60.11 | X-H torsion
[ 7974 7965 7964 7962 ] final -104.52 input  175.53 | X-H torsion
[ 8008 7997 7996 7995 ] final   20.56 input   59.86 | X-H torsion
[ 10167 10162 10161 10158 ] final  114.46 input  -65.29 | X-H torsion
[ 10718 10713 10712 10709 ] final  -68.27 input   66.30 | X-H torsion
[ 10763 10752 10751 10750 ] final  133.75 input  -60.55 | X-H torsion
[ 11005 11000 10999 10996 ] final  119.12 input  -57.11 | X-H torsion

> <Gold.Protein.ActiveResidues>
 VAL166  LYS551  ARG553  GLY616  TRP617  ASP618  TYR619  PRO620  LYS621  CYS622 
 ASP623  PHE694  ASN695  SER759  ASP760  ASP761  ALA762  ILE779  LEU786  VAL792 
 PHE793  MET794  SER795  GLU796  ALA797  LYS798  CYS799  TRP800  GLU811  SER814 

> <Gold.Protein.RotatedAtoms>
  150.6890  134.3581  159.4937 H   0  0  0  0  0  0  0  0  0  0  0  0  # atno 6907 bound_to 6896
  152.1413  134.9057  160.0563 H   0  0  0  0  0  0  0  0  0  0  0  0  # atno 6908 bound_to 6896
  152.0190  133.3856  159.4287 H   0  0  0  0  0  0  0  0  0  0  0  0  # atno 6909 bound_to 6896
  145.2421  140.9209  143.3144 H   0  0  0  0  0  0  0  0  0  0  0  0  # atno 7974 bound_to 7965
  154.9374  140.3048  155.5137 H   0  0  0  0  0  0  0  0  0  0  0  0  # atno 8008 bound_to 7997
  156.2999  140.2342  156.4377 H   0  0  0  0  0  0  0  0  0  0  0  0  # atno 8009 bound_to 7997
  154.8178  140.0425  157.1377 H   0  0  0  0  0  0  0  0  0  0  0  0  # atno 8010 bound_to 7997
  139.6387  144.7122  151.2282 H   0  0  0  0  0  0  0  0  0  0  0  0  # atno 10167 bound_to 10162
  156.0514  130.4292  150.1976 H   0  0  0  0  0  0  0  0  0  0  0  0  # atno 10718 bound_to 10713
  153.8123  135.3127  155.3402 H   0  0  0  0  0  0  0  0  0  0  0  0  # atno 10763 bound_to 10752
  154.8046  135.4705  154.0364 H   0  0  0  0  0  0  0  0  0  0  0  0  # atno 10764 bound_to 10752
  153.1746  135.6883  153.8650 H   0  0  0  0  0  0  0  0  0  0  0  0  # atno 10765 bound_to 10752
  139.9134  134.9626  156.7606 H   0  0  0  0  0  0  0  0  0  0  0  0  # atno 11005 bound_to 11000
  144.9579  139.4011  143.6370 LP  0  0  0  0  0  0  0  0  0  0  0  0  # atno 17320 bound_to 7965
  146.3325  139.8618  142.8855 LP  0  0  0  0  0  0  0  0  0  0  0  0  # atno 17321 bound_to 7965
  140.7479  143.6350  150.8387 LP  0  0  0  0  0  0  0  0  0  0  0  0  # atno 17342 bound_to 10162
  139.9985  143.5770  152.2884 LP  0  0  0  0  0  0  0  0  0  0  0  0  # atno 17343 bound_to 10162
  157.0058  130.9936  151.3379 LP  0  0  0  0  0  0  0  0  0  0  0  0  # atno 17370 bound_to 10713
  157.5444  130.8141  149.8067 LP  0  0  0  0  0  0  0  0  0  0  0  0  # atno 17371 bound_to 10713
  140.6700  133.9568  155.7851 LP  0  0  0  0  0  0  0  0  0  0  0  0  # atno 17394 bound_to 11000
  141.0584  134.0382  157.3691 LP  0  0  0  0  0  0  0  0  0  0  0  0  # atno 17395 bound_to 11000

$$$$
