AV-unprocessed.smi:3058|AV-procd|sdf|11674|dock7
  -GOLD-   2272017 83D 1   1.00000     0.00000
 Structure written by MMmdl.
 39 41  0  0  0  0  0  0  0  0  2 V2000
  152.8441  140.1128  157.9752 O   0  0  0  0  0  0  0  0  0  0  0  0
  151.9458  140.9013  158.2729 C   0  0  0  0  0  0  0  0  0  0  0  0
  150.7878  140.9740  157.5986 N   0  0  0  0  0  0  0  0  0  0  0  0
  150.4450  140.1603  156.4386 C   0  0  0  0  0  0  0  0  0  0  0  0
  150.0323  141.0300  155.2397 C   0  0  0  0  0  0  0  0  0  0  0  0
  148.9493  140.3736  154.4064 C   0  0  0  0  0  0  0  0  0  0  0  0
  147.8199  141.1127  153.9903 C   0  0  0  0  0  0  0  0  0  0  0  0
  146.8287  140.4807  153.2109 C   0  0  0  0  0  0  0  0  0  0  0  0
  146.9901  139.1239  152.8639 C   0  0  0  0  0  0  0  0  0  0  0  0
  148.0847  138.4489  153.2796 N   0  3  0  0  0  0  0  0  0  0  0  0
  149.0555  139.0177  154.0280 C   0  0  0  0  0  0  0  0  0  0  0  0
  152.0912  141.8547  159.4723 C   0  0  1  0  0  0  0  0  0  0  0  0
  153.4595  142.5746  159.5666 C   0  0  0  0  0  0  0  0  0  0  0  0
  153.0633  144.0595  159.6703 C   0  0  1  0  0  0  0  0  0  0  0  0
  152.5547  144.5532  158.3029 C   0  0  0  0  0  0  0  0  0  0  0  0
  151.1640  143.9001  158.2021 C   0  0  0  0  0  0  0  0  0  0  0  0
  151.0960  143.0459  159.4875 C   0  0  2  0  0  0  0  0  0  0  0  0
  151.7751  143.9834  160.4818 C   0  0  0  0  0  0  0  0  0  0  0  0
  150.0973  141.6407  157.9122 H   0  0  0  0  0  0  0  0  0  0  0  0
  151.2869  139.5179  156.1744 H   0  0  0  0  0  0  0  0  0  0  0  0
  149.6254  139.4978  156.7181 H   0  0  0  0  0  0  0  0  0  0  0  0
  149.6777  142.0018  155.5860 H   0  0  0  0  0  0  0  0  0  0  0  0
  150.8934  141.2288  154.6001 H   0  0  0  0  0  0  0  0  0  0  0  0
  147.7142  142.1529  154.2629 H   0  0  0  0  0  0  0  0  0  0  0  0
  145.9581  141.0303  152.8834 H   0  0  0  0  0  0  0  0  0  0  0  0
  146.2828  138.5629  152.2705 H   0  0  0  0  0  0  0  0  0  0  0  0
  149.8819  138.3757  154.2967 H   0  0  0  0  0  0  0  0  0  0  0  0
  151.9496  141.2740  160.3861 H   0  0  0  0  0  0  0  0  0  0  0  0
  153.9878  142.2586  160.4672 H   0  0  0  0  0  0  0  0  0  0  0  0
  154.1262  142.3908  158.7231 H   0  0  0  0  0  0  0  0  0  0  0  0
  153.8431  144.6894  160.0993 H   0  0  0  0  0  0  0  0  0  0  0  0
  152.4703  145.6405  158.2839 H   0  0  0  0  0  0  0  0  0  0  0  0
  153.2139  144.2537  157.4873 H   0  0  0  0  0  0  0  0  0  0  0  0
  150.3886  144.6673  158.2203 H   0  0  0  0  0  0  0  0  0  0  0  0
  151.0251  143.3323  157.2830 H   0  0  0  0  0  0  0  0  0  0  0  0
  150.0816  142.7593  159.7666 H   0  0  0  0  0  0  0  0  0  0  0  0
  151.9117  143.5436  161.4715 H   0  0  0  0  0  0  0  0  0  0  0  0
  151.2719  144.9463  160.5864 H   0  0  0  0  0  0  0  0  0  0  0  0
  148.1824  137.4678  153.0166 H   0  0  0  0  0  0  0  0  0  0  0  0
  1  2  2  0  0  0  0
  2  3  1  0  0  0  0
  2 12  1  0  0  0  0
  3  4  1  0  0  0  0
  3 19  1  0  0  0  0
  4  5  1  0  0  0  0
  4 20  1  0  0  0  0
  4 21  1  0  0  0  0
  5  6  1  0  0  0  0
  5 22  1  0  0  0  0
  5 23  1  0  0  0  0
  6 11  1  0  0  0  0
  6  7  2  0  0  0  0
  7  8  1  0  0  0  0
  7 24  1  0  0  0  0
  8  9  2  0  0  0  0
  8 25  1  0  0  0  0
  9 10  1  0  0  0  0
  9 26  1  0  0  0  0
 10 11  2  0  0  0  0
 10 39  1  0  0  0  0
 11 27  1  0  0  0  0
 12 17  1  0  0  0  0
 12 13  1  0  0  0  0
 12 28  1  0  0  0  0
 13 14  1  0  0  0  0
 13 29  1  0  0  0  0
 13 30  1  0  0  0  0
 14 18  1  0  0  0  0
 14 15  1  0  0  0  0
 14 31  1  0  0  0  0
 15 16  1  0  0  0  0
 15 32  1  0  0  0  0
 15 33  1  0  0  0  0
 16 17  1  0  0  0  0
 16 34  1  0  0  0  0
 16 35  1  0  0  0  0
 17 18  1  0  0  0  0
 17 36  1  0  0  0  0
 18 37  1  0  0  0  0
 18 38  1  0  0  0  0
M  CHG  1  10   1
M  END
> <s_m_source_file>
AV-unprocessed.smi

> <i_m_source_file_index>
3058

> <i_lp_mmshare_version>
43012

> <i_f3d_flags>
0

> <s_epik_input>
W0NIMl0xW0NIMl1bQ0BIXShbQ0gyXTIpW0NAQEhdKFtDSDJdW0NAQEhdMTIpQyg9TylbTkhdW0NIMl1bQ0gyXWMzW2NIXVtjSF1bY0hdbltjSF0z

> <s_epik_cmdline>
J2VwaWtfcHl0aG9uJywgJy1waCcsICc3LjAnLCAnLXRuJywgJzgnLCAnLW1hJywgJzIwMCcsICctbWV0YWxfYmluZGluZycsICctaW1hZScsICc8aW5maWxlLm1hZT4nLCAnLW9tYWUnLCAnPG91dGZpbGUubWFlPic=

> <r_epik_Ionization_Penalty>
2.24375

> <r_epik_Ionization_Penalty_Charging>
2.24375

> <r_epik_Ionization_Penalty_Neutral>
1.89995e-08

> <r_epik_State_Penalty>
2.39035

> <r_epik_Charging_Adjusted_Penalty>
4.63411

> <i_epik_Tot_Q>
1

> <i_epik_Tot_abs_Q>
1

> <r_epik_Metal_State_Penalty>
2.40369

> <b_epik_Metal_Only>
0

> <s_lp_Force_Field>
OPLS_2005

> <r_lp_Energy>
53.8875

> <b_lp_Chiralities_Consistent>
1

> <s_lp_Variant>
AV-unprocessed.smi:3058-6

> <Gold.Version>
5.8.1

> <Gold.Id.Protein>
6NUR|6NUR_protein|mol2

> <Gold.PLP.Fitness>
46.6965

> <Gold.PLP.PLP>
-39.3906

> <Gold.PLP.part.hbond>
-3.0000

> <Gold.PLP.part.metal>
0.0000

> <Gold.PLP.part.buried>
-0.4200

> <Gold.PLP.part.nonpolar>
-36.2837

> <Gold.PLP.part.repulsive>
0.0926

> <Gold.PLP.ligand.clash>
0.0000

> <Gold.PLP.ligand.torsion>
0.8278

> <Gold.PLP.Chemscore.Hbond>
2.9840

> <Gold.PLP.Chemscore.CHOScore>
0.0000

> <Gold.PLP.Chemscore.Metal>
0.0000

> <Gold.Chemscore.Hbonds>
donor molecule, donor type, donor heavy atom, donor atom, acceptor molecule, acceptor atom, score
      L1  H    10    39       P1  7948  1.86
      P1  H  7997  8009       L1     1  1.00

> <Gold.PLP.Chemscore.Internal.Correction>
0.0096

> <Gold.Rescore>
     Score         DG    S(hbond)    S(metal)    S(lipo)     H(rot)  DE(clash)    DE(int)     intcor
     21.19     -23.31       1.93        0.00     129.25       1.45       0.32       1.81       ----

> <Gold.Chemscore.Fitness>
21.1874

> <Gold.Chemscore.DG>
-23.3140

> <Gold.Chemscore.ZeroCoef>
-5.4800

> <Gold.Chemscore.Hbond>
1.9269

> <Gold.Chemscore.Metal>
0.0000

> <Gold.Chemscore.Lipo>
129.2520

> <Gold.Chemscore.Internal_Hbond>
0.0000

> <Gold.Chemscore.DEClash>
0.3154

> <Gold.Chemscore.DEInternal>
1.8112

> <Gold.Chemscore.Rot>
1.4548

> <Gold.Chemscore.Internal.Correction>
   9.000000E+99

> <Gold.Chemscore.Hbonds>
donor molecule, donor type, donor heavy atom, donor atom, acceptor molecule, acceptor atom, score
      L1  H    10    39       P1  7948  0.90
      P1  H  7997  8009       L1     1  0.94

> <Gold.Chemscore.Hbond.Weighted>
-6.4357

> <Gold.Chemscore.Metal.Weighted>
-0.0000

> <Gold.Chemscore.Lipo.Weighted>
-15.1225

> <Gold.Chemscore.Internal_Hbond.Weighted>
0.0000

> <Gold.Chemscore.DEClash.Weighted>
0.3154

> <Gold.Chemscore.DEInternal.Weighted>
1.8112

> <Gold.Chemscore.Rot.Weighted>
3.7242

> <Gold.Chemscore.Internal.Correction.Weighted>
   9.000000E+99

> <Gold.Protein.RotatedTorsions>
[ 6907 6896 6895 6894 ] final  -50.38 input  -60.11 | X-H torsion
[ 7974 7965 7964 7962 ] final  145.83 input  175.53 | X-H torsion
[ 8008 7997 7996 7995 ] final  158.95 input   59.86 | X-H torsion
[ 10167 10162 10161 10158 ] final  -92.99 input  -65.29 | X-H torsion
[ 10718 10713 10712 10709 ] final  174.92 input   66.30 | X-H torsion
[ 10763 10752 10751 10750 ] final -163.35 input  -60.55 | X-H torsion
[ 11005 11000 10999 10996 ] final -140.31 input  -57.11 | X-H torsion

> <Gold.Protein.ActiveResidues>
 VAL166  LYS551  ARG553  GLY616  TRP617  ASP618  TYR619  PRO620  LYS621  CYS622 
 ASP623  PHE694  ASN695  SER759  ASP760  ASP761  ALA762  ILE779  LEU786  VAL792 
 PHE793  MET794  SER795  GLU796  ALA797  LYS798  CYS799  TRP800  GLU811  SER814 

> <Gold.Protein.RotatedAtoms>
  150.8713  134.8087  159.7156 H   0  0  0  0  0  0  0  0  0  0  0  0  # atno 6907 bound_to 6896
  152.4716  134.4943  159.9715 H   0  0  0  0  0  0  0  0  0  0  0  0  # atno 6908 bound_to 6896
  151.5031  133.3462  159.2908 H   0  0  0  0  0  0  0  0  0  0  0  0  # atno 6909 bound_to 6896
  144.8721  139.5830  143.5882 H   0  0  0  0  0  0  0  0  0  0  0  0  # atno 7974 bound_to 7965
  156.2270  140.1844  156.7338 H   0  0  0  0  0  0  0  0  0  0  0  0  # atno 8008 bound_to 7997
  154.5958  140.0643  156.9329 H   0  0  0  0  0  0  0  0  0  0  0  0  # atno 8009 bound_to 7997
  155.2258  140.3311  155.4312 H   0  0  0  0  0  0  0  0  0  0  0  0  # atno 8010 bound_to 7997
  140.3292  143.3005  151.9961 H   0  0  0  0  0  0  0  0  0  0  0  0  # atno 10167 bound_to 10162
  156.9425  131.0005  151.2965 H   0  0  0  0  0  0  0  0  0  0  0  0  # atno 10718 bound_to 10713
  154.7130  135.3010  154.9167 H   0  0  0  0  0  0  0  0  0  0  0  0  # atno 10763 bound_to 10752
  154.0063  135.6700  153.4766 H   0  0  0  0  0  0  0  0  0  0  0  0  # atno 10764 bound_to 10752
  153.0770  135.5029  154.8340 H   0  0  0  0  0  0  0  0  0  0  0  0  # atno 10765 bound_to 10752
  140.8435  134.2373  157.4798 H   0  0  0  0  0  0  0  0  0  0  0  0  # atno 11005 bound_to 11000
  146.2937  139.7214  142.9142 LP  0  0  0  0  0  0  0  0  0  0  0  0  # atno 17320 bound_to 7965
  145.4112  141.0396  143.3016 LP  0  0  0  0  0  0  0  0  0  0  0  0  # atno 17321 bound_to 7965
  139.4859  144.6249  151.7184 LP  0  0  0  0  0  0  0  0  0  0  0  0  # atno 17342 bound_to 10162
  140.5413  144.0574  150.6089 LP  0  0  0  0  0  0  0  0  0  0  0  0  # atno 17343 bound_to 10162
  157.5776  130.8353  149.8477 LP  0  0  0  0  0  0  0  0  0  0  0  0  # atno 17370 bound_to 10713
  156.0398  130.3742  150.1464 LP  0  0  0  0  0  0  0  0  0  0  0  0  # atno 17371 bound_to 10713
  139.8703  134.9647  156.4505 LP  0  0  0  0  0  0  0  0  0  0  0  0  # atno 17394 bound_to 11000
  140.8869  133.7876  155.9528 LP  0  0  0  0  0  0  0  0  0  0  0  0  # atno 17395 bound_to 11000

$$$$
