AV-unprocessed.smi:1166|AV-procd|sdf|4936|dock10
  -GOLD-   22720 3523D 1   1.00000     0.00000
 Structure written by MMmdl.
 46 47  0  0  0  0  0  0  0  0  1 V2000
  148.5686  123.5828  154.4149 C   0  0  0  0  0  0  0  0  0  0  0  0
  148.8460  123.9326  153.0254 N   0  0  0  0  0  0  0  0  0  0  0  0
  149.3543  122.9188  152.1097 C   0  0  0  0  0  0  0  0  0  0  0  0
  148.5336  125.2271  152.5503 C   0  0  0  0  0  0  0  0  0  0  0  0
  148.8158  125.6135  151.2165 C   0  0  0  0  0  0  0  0  0  0  0  0
  148.4851  126.9145  150.7932 C   0  0  0  0  0  0  0  0  0  0  0  0
  147.8903  127.8070  151.7048 C   0  0  0  0  0  0  0  0  0  0  0  0
  147.5501  129.1067  151.2426 N   0  0  0  0  0  0  0  0  0  0  0  0
  146.6012  129.9371  151.7072 C   0  0  0  0  0  0  0  0  0  0  0  0
  145.8583  129.7082  152.6615 O   0  0  0  0  0  0  0  0  0  0  0  0
  146.5742  131.0792  151.0061 N   0  0  0  0  0  0  0  0  0  0  0  0
  145.6894  132.2092  151.2702 C   0  0  2  0  0  0  0  0  0  0  0  0
  144.8355  132.5375  150.0345 C   0  0  0  0  0  0  0  0  0  0  0  0
  143.9555  133.7586  150.3247 C   0  0  0  0  0  0  0  0  0  0  0  0
  144.8005  134.9650  150.7707 C   0  0  0  0  0  0  0  0  0  0  0  0
  145.6845  134.6238  151.9042 N   0  0  0  0  0  0  0  0  0  0  0  0
  145.2532  135.1026  153.5208 S   0  0  0  0  0  0  0  0  0  0  0  0
  143.4135  135.1095  153.5150 C   0  0  0  0  0  0  0  0  0  0  0  0
  145.7040  134.0446  154.4379 O   0  0  0  0  0  0  0  0  0  0  0  0
  145.7164  136.4847  153.7187 O   0  0  0  0  0  0  0  0  0  0  0  0
  146.5283  133.4315  151.6905 C   0  0  0  0  0  0  0  0  0  0  0  0
  147.6347  127.3327  153.0125 C   0  0  0  0  0  0  0  0  0  0  0  0
  147.9491  126.0856  153.4214 N   0  0  0  0  0  0  0  0  0  0  0  0
  149.0958  124.2547  155.0928 H   0  0  0  0  0  0  0  0  0  0  0  0
  148.8887  122.5655  154.6410 H   0  0  0  0  0  0  0  0  0  0  0  0
  147.4999  123.6511  154.6203 H   0  0  0  0  0  0  0  0  0  0  0  0
  148.6492  122.7500  151.2951 H   0  0  0  0  0  0  0  0  0  0  0  0
  149.5088  121.9668  152.6175 H   0  0  0  0  0  0  0  0  0  0  0  0
  150.3105  123.2285  151.6871 H   0  0  0  0  0  0  0  0  0  0  0  0
  149.2782  124.9403  150.5107 H   0  0  0  0  0  0  0  0  0  0  0  0
  148.6920  127.2217  149.7784 H   0  0  0  0  0  0  0  0  0  0  0  0
  148.1364  129.4703  150.5058 H   0  0  0  0  0  0  0  0  0  0  0  0
  147.2231  131.1813  150.2396 H   0  0  0  0  0  0  0  0  0  0  0  0
  145.0258  131.9440  152.0931 H   0  0  0  0  0  0  0  0  0  0  0  0
  145.4775  132.7410  149.1763 H   0  0  0  0  0  0  0  0  0  0  0  0
  144.2091  131.6865  149.7641 H   0  0  0  0  0  0  0  0  0  0  0  0
  143.3824  134.0205  149.4350 H   0  0  0  0  0  0  0  0  0  0  0  0
  143.2247  133.5081  151.0927 H   0  0  0  0  0  0  0  0  0  0  0  0
  145.4224  135.3008  149.9403 H   0  0  0  0  0  0  0  0  0  0  0  0
  144.1558  135.8041  151.0300 H   0  0  0  0  0  0  0  0  0  0  0  0
  143.0570  135.4258  154.4950 H   0  0  0  0  0  0  0  0  0  0  0  0
  143.0381  134.1083  153.3115 H   0  0  0  0  0  0  0  0  0  0  0  0
  143.0461  135.8068  152.7642 H   0  0  0  0  0  0  0  0  0  0  0  0
  147.1004  133.2099  152.5913 H   0  0  0  0  0  0  0  0  0  0  0  0
  147.2578  133.6649  150.9136 H   0  0  0  0  0  0  0  0  0  0  0  0
  147.1486  127.9418  153.7583 H   0  0  0  0  0  0  0  0  0  0  0  0
  1  2  1  0  0  0  0
  1 24  1  0  0  0  0
  1 25  1  0  0  0  0
  1 26  1  0  0  0  0
  2  3  1  0  0  0  0
  2  4  1  0  0  0  0
  3 27  1  0  0  0  0
  3 28  1  0  0  0  0
  3 29  1  0  0  0  0
  4 23  1  0  0  0  0
  4  5  2  0  0  0  0
  5  6  1  0  0  0  0
  5 30  1  0  0  0  0
  6  7  2  0  0  0  0
  6 31  1  0  0  0  0
  7  8  1  0  0  0  0
  7 22  1  0  0  0  0
  8  9  1  0  0  0  0
  8 32  1  0  0  0  0
  9 10  2  0  0  0  0
  9 11  1  0  0  0  0
 11 12  1  0  0  0  0
 11 33  1  0  0  0  0
 12 21  1  0  0  0  0
 12 13  1  0  0  0  0
 12 34  1  0  0  0  0
 13 14  1  0  0  0  0
 13 35  1  0  0  0  0
 13 36  1  0  0  0  0
 14 15  1  0  0  0  0
 14 37  1  0  0  0  0
 14 38  1  0  0  0  0
 15 16  1  0  0  0  0
 15 39  1  0  0  0  0
 15 40  1  0  0  0  0
 16 17  1  0  0  0  0
 16 21  1  0  0  0  0
 17 18  1  0  0  0  0
 17 19  2  0  0  0  0
 17 20  2  0  0  0  0
 18 41  1  0  0  0  0
 18 42  1  0  0  0  0
 18 43  1  0  0  0  0
 21 44  1  0  0  0  0
 21 45  1  0  0  0  0
 22 23  2  0  0  0  0
 22 46  1  0  0  0  0
M  END
> <s_m_source_file>
AV-unprocessed.smi

> <i_m_source_file_index>
1166

> <i_lp_mmshare_version>
43012

> <i_f3d_flags>
0

> <s_epik_input>
W0NIM11OKFtDSDNdKWMxW2NIXVtjSF1jKFtjSF1uMSlbTkhdQyg9TylbTkhdW0NAQEhdMltDSDJdW0NIMl1bQ0gyXU4oW0NIMl0yKVMoPU8pKD1PKVtDSDNd

> <s_epik_cmdline>
J2VwaWtfcHl0aG9uJywgJy1waCcsICc3LjAnLCAnLXRuJywgJzgnLCAnLW1hJywgJzIwMCcsICctbWV0YWxfYmluZGluZycsICctaW1hZScsICc8aW5maWxlLm1hZT4nLCAnLW9tYWUnLCAnPG91dGZpbGUubWFlPic=

> <r_lp_tautomer_probability>
1

> <r_epik_Ionization_Penalty>
0.585334

> <r_epik_Ionization_Penalty_Charging>
0

> <r_epik_Ionization_Penalty_Neutral>
0.585334

> <r_epik_State_Penalty>
0.597345

> <r_epik_Charging_Adjusted_Penalty>
0.597345

> <i_epik_Tot_Q>
0

> <i_epik_Tot_abs_Q>
0

> <r_epik_Metal_State_Penalty>
0.29678

> <b_epik_Metal_Only>
0

> <s_lp_Force_Field>
OPLS_2005

> <r_lp_Energy>
0.833523

> <b_lp_Chiralities_Consistent>
1

> <s_lp_Variant>
AV-unprocessed.smi:1166-3

> <Gold.Version>
5.8.1

> <Gold.Id.Protein>
6NUR|6NUR_protein|mol2

> <Gold.PLP.Fitness>
39.7867

> <Gold.PLP.PLP>
-36.1643

> <Gold.PLP.part.hbond>
-2.8219

> <Gold.PLP.part.metal>
0.0000

> <Gold.PLP.part.buried>
-4.2146

> <Gold.PLP.part.nonpolar>
-30.3403

> <Gold.PLP.part.repulsive>
0.4943

> <Gold.PLP.ligand.clash>
0.0000

> <Gold.PLP.ligand.torsion>
1.2842

> <Gold.PLP.Chemscore.Hbond>
1.3760

> <Gold.PLP.Chemscore.CHOScore>
0.0000

> <Gold.PLP.Chemscore.Metal>
0.0000

> <Gold.Chemscore.Hbonds>
donor molecule, donor type, donor heavy atom, donor atom, acceptor molecule, acceptor atom, score
      L1  H     8    32       P1 10747  0.74
      L1  H    11    33       P1 10747  0.56

> <Gold.PLP.Chemscore.Internal.Correction>
2.0629

> <Gold.Rescore>
     Score         DG    S(hbond)    S(metal)    S(lipo)     H(rot)  DE(clash)    DE(int)     intcor
     13.21     -15.93       1.48        0.00      68.87       1.00       0.37       2.35       ----

> <Gold.Chemscore.Fitness>
13.2086

> <Gold.Chemscore.DG>
-15.9288

> <Gold.Chemscore.ZeroCoef>
-5.4800

> <Gold.Chemscore.Hbond>
1.4825

> <Gold.Chemscore.Metal>
0.0000

> <Gold.Chemscore.Lipo>
68.8666

> <Gold.Chemscore.Internal_Hbond>
0.0000

> <Gold.Chemscore.DEClash>
0.3722

> <Gold.Chemscore.DEInternal>
2.3481

> <Gold.Chemscore.Rot>
1.0000

> <Gold.Chemscore.Internal.Correction>
   9.000000E+99

> <Gold.Chemscore.Hbonds>
donor molecule, donor type, donor heavy atom, donor atom, acceptor molecule, acceptor atom, score
      L1  H     8    32       P1 10747  0.29
      L1  H    11    33       P1 10747  0.56

> <Gold.Chemscore.Hbond.Weighted>
-4.9514

> <Gold.Chemscore.Metal.Weighted>
-0.0000

> <Gold.Chemscore.Lipo.Weighted>
-8.0574

> <Gold.Chemscore.Internal_Hbond.Weighted>
0.0000

> <Gold.Chemscore.DEClash.Weighted>
0.3722

> <Gold.Chemscore.DEInternal.Weighted>
2.3481

> <Gold.Chemscore.Rot.Weighted>
2.5600

> <Gold.Chemscore.Internal.Correction.Weighted>
   9.000000E+99

> <Gold.Protein.RotatedTorsions>
[ 6907 6896 6895 6894 ] final  -99.96 input  -60.11 | X-H torsion
[ 7974 7965 7964 7962 ] final   56.45 input  175.53 | X-H torsion
[ 8008 7997 7996 7995 ] final   57.47 input   59.86 | X-H torsion
[ 10167 10162 10161 10158 ] final -121.41 input  -65.29 | X-H torsion
[ 10718 10713 10712 10709 ] final -103.79 input   66.30 | X-H torsion
[ 10763 10752 10751 10750 ] final  -98.87 input  -60.55 | X-H torsion
[ 11005 11000 10999 10996 ] final  -48.05 input  -57.11 | X-H torsion

> <Gold.Protein.ActiveResidues>
 VAL166  LYS551  ARG553  GLY616  TRP617  ASP618  TYR619  PRO620  LYS621  CYS622 
 ASP623  PHE694  ASN695  SER759  ASP760  ASP761  ALA762  ILE779  LEU786  VAL792 
 PHE793  MET794  SER795  GLU796  ALA797  LYS798  CYS799  TRP800  GLU811  SER814 

> <Gold.Protein.RotatedAtoms>
  150.7098  134.0960  159.3948 H   0  0  0  0  0  0  0  0  0  0  0  0  # atno 6907 bound_to 6896
  151.8946  135.0400  160.0510 H   0  0  0  0  0  0  0  0  0  0  0  0  # atno 6908 bound_to 6896
  152.2464  133.5142  159.5336 H   0  0  0  0  0  0  0  0  0  0  0  0  # atno 6909 bound_to 6896
  145.9397  139.3877  143.0371 H   0  0  0  0  0  0  0  0  0  0  0  0  # atno 7974 bound_to 7965
  155.5342  140.3483  155.4433 H   0  0  0  0  0  0  0  0  0  0  0  0  # atno 8008 bound_to 7997
  156.0697  140.1360  156.9870 H   0  0  0  0  0  0  0  0  0  0  0  0  # atno 8009 bound_to 7997
  154.4521  140.0968  156.6625 H   0  0  0  0  0  0  0  0  0  0  0  0  # atno 8010 bound_to 7997
  140.0253  143.5302  152.2202 H   0  0  0  0  0  0  0  0  0  0  0  0  # atno 10167 bound_to 10162
  156.0279  130.5484  150.7304 H   0  0  0  0  0  0  0  0  0  0  0  0  # atno 10718 bound_to 10713
  154.7450  135.4993  153.9189 H   0  0  0  0  0  0  0  0  0  0  0  0  # atno 10763 bound_to 10752
  153.1083  135.6703  153.9555 H   0  0  0  0  0  0  0  0  0  0  0  0  # atno 10764 bound_to 10752
  153.9322  135.3077  155.3424 H   0  0  0  0  0  0  0  0  0  0  0  0  # atno 10765 bound_to 10752
  141.0678  133.6688  156.3386 H   0  0  0  0  0  0  0  0  0  0  0  0  # atno 11005 bound_to 11000
  145.8317  140.9627  143.0846 LP  0  0  0  0  0  0  0  0  0  0  0  0  # atno 17320 bound_to 7965
  144.6777  140.0170  143.7484 LP  0  0  0  0  0  0  0  0  0  0  0  0  # atno 17321 bound_to 7965
  139.6112  144.7609  151.2948 LP  0  0  0  0  0  0  0  0  0  0  0  0  # atno 17342 bound_to 10162
  140.7325  143.6821  150.7992 LP  0  0  0  0  0  0  0  0  0  0  0  0  # atno 17343 bound_to 10162
  157.4898  131.0910  151.0440 LP  0  0  0  0  0  0  0  0  0  0  0  0  # atno 17370 bound_to 10713
  157.0851  130.5919  149.5428 LP  0  0  0  0  0  0  0  0  0  0  0  0  # atno 17371 bound_to 10713
  140.5737  134.5814  157.5464 LP  0  0  0  0  0  0  0  0  0  0  0  0  # atno 17394 bound_to 11000
  139.9493  134.7645  156.0486 LP  0  0  0  0  0  0  0  0  0  0  0  0  # atno 17395 bound_to 11000

$$$$
