AV-unprocessed.smi:1033|AV-procd|sdf|4499|dock5
  -GOLD-   22720 2493D 1   1.00000     0.00000
 Structure written by MMmdl.
 57 59  0  0  0  0  0  0  0  0  3 V2000
  152.8829  142.8192  160.6865 C   0  0  0  0  0  0  0  0  0  0  0  0
  152.3905  142.0879  159.4491 C   0  0  0  0  0  0  0  0  0  0  0  0
  151.4386  142.7260  158.6228 C   0  0  0  0  0  0  0  0  0  0  0  0
  150.9983  142.0268  157.5058 C   0  0  0  0  0  0  0  0  0  0  0  0
  150.0732  142.3722  156.5192 N   0  3  0  0  0  0  0  0  0  0  0  0
  149.9592  141.3519  155.6251 C   0  0  0  0  0  0  0  0  0  0  0  0
  150.7917  140.3543  156.0310 N   0  0  0  0  0  0  0  0  0  0  0  0
  151.0322  139.0375  155.4212 C   0  0  0  0  0  0  0  0  0  0  0  0
  150.0540  138.7105  154.2706 C   0  0  1  0  0  0  0  0  0  0  0  0
  150.4386  137.4645  153.7304 O   0  0  0  0  0  0  0  0  0  0  0  0
  148.5659  138.6036  154.6792 C   0  0  0  0  0  0  0  0  0  0  0  0
  147.8621  137.4540  154.0586 N   0  3  0  0  0  0  0  0  0  0  0  0
  146.5021  137.7998  153.5764 C   0  0  0  0  0  0  0  0  0  0  0  0
  145.9006  136.6034  152.8140 C   0  0  0  0  0  0  0  0  0  0  0  0
  145.8126  135.3879  153.6241 N   0  0  0  0  0  0  0  0  0  0  0  0
  144.7741  135.4782  154.6627 C   0  0  0  0  0  0  0  0  0  0  0  0
  143.3930  134.8738  154.3223 C   0  0  2  0  0  0  0  0  0  0  0  0
  142.8214  135.1853  152.9326 C   0  0  0  0  0  0  0  0  0  0  0  0
  142.4596  135.2358  155.3181 O   0  0  0  0  0  0  0  0  0  0  0  0
  147.1575  135.0747  154.1230 C   0  0  0  0  0  0  0  0  0  0  0  0
  147.8196  136.2317  154.9015 C   0  0  0  0  0  0  0  0  0  0  0  0
  151.4757  140.7388  157.1919 C   0  0  0  0  0  0  0  0  0  0  0  0
  152.4236  140.1013  157.9899 C   0  0  0  0  0  0  0  0  0  0  0  0
  152.8768  140.7924  159.1361 C   0  0  0  0  0  0  0  0  0  0  0  0
  153.8958  140.1132  160.0350 C   0  0  0  0  0  0  0  0  0  0  0  0
  152.3961  143.7886  160.7975 H   0  0  0  0  0  0  0  0  0  0  0  0
  153.9579  142.9913  160.6274 H   0  0  0  0  0  0  0  0  0  0  0  0
  152.6734  142.2373  161.5843 H   0  0  0  0  0  0  0  0  0  0  0  0
  151.0655  143.7134  158.8545 H   0  0  0  0  0  0  0  0  0  0  0  0
  149.3186  141.3349  154.7545 H   0  0  0  0  0  0  0  0  0  0  0  0
  152.0535  139.0612  155.0375 H   0  0  0  0  0  0  0  0  0  0  0  0
  151.0188  138.2630  156.1874 H   0  0  0  0  0  0  0  0  0  0  0  0
  150.1798  139.4367  153.4683 H   0  0  0  0  0  0  0  0  0  0  0  0
  149.7264  137.1207  153.2126 H   0  0  0  0  0  0  0  0  0  0  0  0
  148.4716  138.5243  155.7635 H   0  0  0  0  0  0  0  0  0  0  0  0
  148.0647  139.5305  154.3962 H   0  0  0  0  0  0  0  0  0  0  0  0
  145.8685  138.0901  154.4159 H   0  0  0  0  0  0  0  0  0  0  0  0
  146.5560  138.6593  152.9071 H   0  0  0  0  0  0  0  0  0  0  0  0
  144.9147  136.8660  152.4282 H   0  0  0  0  0  0  0  0  0  0  0  0
  146.5132  136.4007  151.9347 H   0  0  0  0  0  0  0  0  0  0  0  0
  145.1331  135.0550  155.5999 H   0  0  0  0  0  0  0  0  0  0  0  0
  144.5933  136.5312  154.8851 H   0  0  0  0  0  0  0  0  0  0  0  0
  143.5006  133.7904  154.3863 H   0  0  0  0  0  0  0  0  0  0  0  0
  143.5570  134.9961  152.1507 H   0  0  0  0  0  0  0  0  0  0  0  0
  142.4871  136.2193  152.8527 H   0  0  0  0  0  0  0  0  0  0  0  0
  141.9546  134.5569  152.7260 H   0  0  0  0  0  0  0  0  0  0  0  0
  141.8594  134.5166  155.4436 H   0  0  0  0  0  0  0  0  0  0  0  0
  147.1485  134.1852  154.7461 H   0  0  0  0  0  0  0  0  0  0  0  0
  147.7939  134.8227  153.2735 H   0  0  0  0  0  0  0  0  0  0  0  0
  148.8288  135.9299  155.1777 H   0  0  0  0  0  0  0  0  0  0  0  0
  147.2914  136.4364  155.8330 H   0  0  0  0  0  0  0  0  0  0  0  0
  152.7954  139.1139  157.7604 H   0  0  0  0  0  0  0  0  0  0  0  0
  154.1883  139.1387  159.6432 H   0  0  0  0  0  0  0  0  0  0  0  0
  153.4836  139.9610  161.0329 H   0  0  0  0  0  0  0  0  0  0  0  0
  154.7973  140.7203  160.1211 H   0  0  0  0  0  0  0  0  0  0  0  0
  148.3935  137.2158  153.2337 H   0  0  0  0  0  0  0  0  0  0  0  0
  149.5596  143.2425  156.4551 H   0  0  0  0  0  0  0  0  0  0  0  0
  1  2  1  0  0  0  0
  1 26  1  0  0  0  0
  1 27  1  0  0  0  0
  1 28  1  0  0  0  0
  2 24  1  0  0  0  0
  2  3  2  0  0  0  0
  3  4  1  0  0  0  0
  3 29  1  0  0  0  0
  4 22  2  0  0  0  0
  4  5  1  0  0  0  0
  5  6  2  0  0  0  0
  5 57  1  0  0  0  0
  6  7  1  0  0  0  0
  6 30  1  0  0  0  0
  7  8  1  0  0  0  0
  7 22  1  0  0  0  0
  8  9  1  0  0  0  0
  8 31  1  0  0  0  0
  8 32  1  0  0  0  0
  9 10  1  0  0  0  0
  9 11  1  0  0  0  0
  9 33  1  0  0  0  0
 10 34  1  0  0  0  0
 11 12  1  0  0  0  0
 11 35  1  0  0  0  0
 11 36  1  0  0  0  0
 12 21  1  0  0  0  0
 12 13  1  0  0  0  0
 12 56  1  0  0  0  0
 13 14  1  0  0  0  0
 13 37  1  0  0  0  0
 13 38  1  0  0  0  0
 14 15  1  0  0  0  0
 14 39  1  0  0  0  0
 14 40  1  0  0  0  0
 15 16  1  0  0  0  0
 15 20  1  0  0  0  0
 16 17  1  0  0  0  0
 16 41  1  0  0  0  0
 16 42  1  0  0  0  0
 17 18  1  0  0  0  0
 17 19  1  0  0  0  0
 17 43  1  0  0  0  0
 18 44  1  0  0  0  0
 18 45  1  0  0  0  0
 18 46  1  0  0  0  0
 19 47  1  0  0  0  0
 20 21  1  0  0  0  0
 20 48  1  0  0  0  0
 20 49  1  0  0  0  0
 21 50  1  0  0  0  0
 21 51  1  0  0  0  0
 22 23  1  0  0  0  0
 23 24  2  0  0  0  0
 23 52  1  0  0  0  0
 24 25  1  0  0  0  0
 25 53  1  0  0  0  0
 25 54  1  0  0  0  0
 25 55  1  0  0  0  0
M  CHG  1   5   1
M  CHG  1  12   1
M  END
> <s_m_source_file>
AV-unprocessed.smi

> <i_m_source_file_index>
1033

> <i_lp_mmshare_version>
43012

> <i_f3d_flags>
0

> <s_epik_input>
W0NIM11jKFtjSF0xKWMoW0NIM10pW2NIXWMoYzEyKW4oW2NIXW4yKVtDSDJdW0NASF0oW09IXSlbQ0gyXU4zW0NIMl1bQ0gyXU4oW0NIMl1bQ0gyXTMpW0NIMl1bQ0BIXShbQ0gzXSlbT0hd

> <s_epik_cmdline>
J2VwaWtfcHl0aG9uJywgJy1waCcsICc3LjAnLCAnLXRuJywgJzgnLCAnLW1hJywgJzIwMCcsICctbWV0YWxfYmluZGluZycsICctaW1hZScsICc8aW5maWxlLm1hZT4nLCAnLW9tYWUnLCAnPG91dGZpbGUubWFlPic=

> <r_epik_Ionization_Penalty>
1.22049

> <r_epik_Ionization_Penalty_Charging>
1.17952

> <r_epik_Ionization_Penalty_Neutral>
0.0409743

> <r_epik_State_Penalty>
1.61468

> <r_epik_Charging_Adjusted_Penalty>
2.7942

> <i_epik_Tot_Q>
2

> <i_epik_Tot_abs_Q>
2

> <r_epik_Metal_State_Penalty>
5.63169

> <b_epik_Metal_Only>
0

> <s_lp_Force_Field>
OPLS_2005

> <r_lp_Energy>
50.4079

> <b_lp_Chiralities_Consistent>
1

> <s_lp_Variant>
AV-unprocessed.smi:1033-10

> <Gold.Version>
5.8.1

> <Gold.Id.Protein>
6NUR|6NUR_protein|mol2

> <Gold.PLP.Fitness>
56.4690

> <Gold.PLP.PLP>
-41.8624

> <Gold.PLP.part.hbond>
-5.0000

> <Gold.PLP.part.metal>
0.0000

> <Gold.PLP.part.buried>
-5.0354

> <Gold.PLP.part.nonpolar>
-32.8092

> <Gold.PLP.part.repulsive>
0.1810

> <Gold.PLP.ligand.clash>
0.0000

> <Gold.PLP.ligand.torsion>
1.8239

> <Gold.PLP.Chemscore.Hbond>
5.9920

> <Gold.PLP.Chemscore.CHOScore>
0.0000

> <Gold.PLP.Chemscore.Metal>
0.0000

> <Gold.Chemscore.Hbonds>
donor molecule, donor type, donor heavy atom, donor atom, acceptor molecule, acceptor atom, score
      L1  H     5    57       P1  8028  2.00
      L1  H    10    34       P1  7948  1.00
      L1  H    12    56       P1  7948  2.00
      L1  H    19    47       P1 11000  0.72

> <Gold.PLP.Chemscore.Internal.Correction>
0.2785

> <Gold.Rescore>
     Score         DG    S(hbond)    S(metal)    S(lipo)     H(rot)  DE(clash)    DE(int)     intcor
     18.76     -20.69       3.15        0.00     109.07       3.15       0.04       1.89       ----

> <Gold.Chemscore.Fitness>
18.7575

> <Gold.Chemscore.DG>
-20.6870

> <Gold.Chemscore.ZeroCoef>
-5.4800

> <Gold.Chemscore.Hbond>
3.1455

> <Gold.Chemscore.Metal>
0.0000

> <Gold.Chemscore.Lipo>
109.0665

> <Gold.Chemscore.Internal_Hbond>
0.0000

> <Gold.Chemscore.DEClash>
0.0369

> <Gold.Chemscore.DEInternal>
1.8925

> <Gold.Chemscore.Rot>
3.1483

> <Gold.Chemscore.Internal.Correction>
   9.000000E+99

> <Gold.Chemscore.Hbonds>
donor molecule, donor type, donor heavy atom, donor atom, acceptor molecule, acceptor atom, score
      L1  H     5    57       P1  8028  0.99
      L1  H    10    34       P1  7948  0.54
      L1  H    12    56       P1  7948  0.99
      L1  H    19    47       P1 11000  0.35

> <Gold.Chemscore.Hbond.Weighted>
-10.5059

> <Gold.Chemscore.Metal.Weighted>
-0.0000

> <Gold.Chemscore.Lipo.Weighted>
-12.7608

> <Gold.Chemscore.Internal_Hbond.Weighted>
0.0000

> <Gold.Chemscore.DEClash.Weighted>
0.0369

> <Gold.Chemscore.DEInternal.Weighted>
1.8925

> <Gold.Chemscore.Rot.Weighted>
8.0597

> <Gold.Chemscore.Internal.Correction.Weighted>
   9.000000E+99

> <Gold.Protein.RotatedTorsions>
[ 6907 6896 6895 6894 ] final -112.53 input  -60.11 | X-H torsion
[ 7974 7965 7964 7962 ] final   53.26 input  175.53 | X-H torsion
[ 8008 7997 7996 7995 ] final -157.56 input   59.86 | X-H torsion
[ 10167 10162 10161 10158 ] final  -77.55 input  -65.29 | X-H torsion
[ 10718 10713 10712 10709 ] final   18.94 input   66.30 | X-H torsion
[ 10763 10752 10751 10750 ] final  169.04 input  -60.55 | X-H torsion
[ 11005 11000 10999 10996 ] final -171.53 input  -57.11 | X-H torsion

> <Gold.Protein.ActiveResidues>
 VAL166  LYS551  ARG553  GLY616  TRP617  ASP618  TYR619  PRO620  LYS621  CYS622 
 ASP623  PHE694  ASN695  SER759  ASP760  ASP761  ALA762  ILE779  LEU786  VAL792 
 PHE793  MET794  SER795  GLU796  ALA797  LYS798  CYS799  TRP800  GLU811  SER814 

> <Gold.Protein.RotatedAtoms>
  150.7765  133.9076  159.3359 H   0  0  0  0  0  0  0  0  0  0  0  0  # atno 6907 bound_to 6896
  151.6949  135.0938  160.0250 H   0  0  0  0  0  0  0  0  0  0  0  0  # atno 6908 bound_to 6896
  152.3802  133.6498  159.6191 H   0  0  0  0  0  0  0  0  0  0  0  0  # atno 6909 bound_to 6896
  145.9730  139.4167  143.0179 H   0  0  0  0  0  0  0  0  0  0  0  0  # atno 7974 bound_to 7965
  155.7343  140.0806  157.2275 H   0  0  0  0  0  0  0  0  0  0  0  0  # atno 8008 bound_to 7997
  154.4029  140.1589  156.2599 H   0  0  0  0  0  0  0  0  0  0  0  0  # atno 8009 bound_to 7997
  155.9080  140.3405  155.6079 H   0  0  0  0  0  0  0  0  0  0  0  0  # atno 8010 bound_to 7997
  140.4760  143.2414  151.8132 H   0  0  0  0  0  0  0  0  0  0  0  0  # atno 10167 bound_to 10162
  157.1034  130.6478  149.5878 H   0  0  0  0  0  0  0  0  0  0  0  0  # atno 10718 bound_to 10713
  154.3774  135.2753  155.2231 H   0  0  0  0  0  0  0  0  0  0  0  0  # atno 10763 bound_to 10752
  154.4353  135.5967  153.6098 H   0  0  0  0  0  0  0  0  0  0  0  0  # atno 10764 bound_to 10752
  152.9836  135.6005  154.4012 H   0  0  0  0  0  0  0  0  0  0  0  0  # atno 10765 bound_to 10752
  140.5072  134.5836  157.5007 H   0  0  0  0  0  0  0  0  0  0  0  0  # atno 11005 bound_to 11000
  145.7879  140.9827  143.1064 LP  0  0  0  0  0  0  0  0  0  0  0  0  # atno 17320 bound_to 7965
  144.6841  139.9646  143.7481 LP  0  0  0  0  0  0  0  0  0  0  0  0  # atno 17321 bound_to 7965
  139.4825  144.4833  151.9279 LP  0  0  0  0  0  0  0  0  0  0  0  0  # atno 17342 bound_to 10162
  140.3918  144.2606  150.5899 LP  0  0  0  0  0  0  0  0  0  0  0  0  # atno 17343 bound_to 10162
  155.9868  130.4904  150.7095 LP  0  0  0  0  0  0  0  0  0  0  0  0  # atno 17370 bound_to 10713
  157.4621  131.0884  151.0734 LP  0  0  0  0  0  0  0  0  0  0  0  0  # atno 17371 bound_to 10713
  139.9679  134.7342  156.0100 LP  0  0  0  0  0  0  0  0  0  0  0  0  # atno 17394 bound_to 11000
  141.1404  133.6566  156.3714 LP  0  0  0  0  0  0  0  0  0  0  0  0  # atno 17395 bound_to 11000

$$$$
