AV-unprocessed.smi:1433|AV-procd|sdf|5844|dock10
  -GOLD-   22720 5513D 1   1.00000     0.00000
 Structure written by MMmdl.
 45 46  0  0  0  0  0  0  0  0  2 V2000
  148.5270  141.6765  154.3584 C   0  0  0  0  0  0  0  0  0  0  0  0
  148.9771  140.2568  154.7204 C   0  0  1  0  0  0  0  0  0  0  0  0
  148.5473  139.2257  153.6524 C   0  0  0  0  0  0  0  0  0  0  0  0
  149.0840  137.8688  153.9481 N   0  3  2  0  0  0  0  0  0  0  0  0
  148.3256  137.1199  155.0079 C   0  0  1  0  0  0  0  0  0  0  0  0
  146.8046  137.2922  154.7887 C   0  0  0  0  0  0  0  0  0  0  0  0
  148.6969  135.6132  155.0842 C   0  0  0  0  0  0  0  0  0  0  0  0
  148.2609  134.8582  153.9120 N   0  0  0  0  0  0  0  0  0  0  0  0
  147.5429  133.7229  153.9370 C   0  0  0  0  0  0  0  0  0  0  0  0
  147.1979  133.1642  154.9775 O   0  0  0  0  0  0  0  0  0  0  0  0
  147.1745  133.1071  152.5839 C   0  0  0  0  0  0  0  0  0  0  0  0
  146.0461  133.7826  151.9650 N   0  0  0  0  0  0  0  0  0  0  0  0
  145.8987  135.1259  151.6885 C   0  0  0  0  0  0  0  0  0  0  0  0
  144.6733  135.2899  151.1087 C   0  0  0  0  0  0  0  0  0  0  0  0
  144.1394  133.9716  151.0677 C   0  0  0  0  0  0  0  0  0  0  0  0
  144.9633  133.0719  151.5800 N   0  0  0  0  0  0  0  0  0  0  0  0
  150.5601  137.9710  154.1101 C   0  0  0  0  0  0  0  0  0  0  0  0
  150.9306  138.9946  155.2021 C   0  0  1  0  0  0  0  0  0  0  0  0
  152.4472  139.1476  155.3595 C   0  0  0  0  0  0  0  0  0  0  0  0
  150.3965  140.2610  154.8318 O   0  0  0  0  0  0  0  0  0  0  0  0
  147.4420  141.7335  154.2682 H   0  0  0  0  0  0  0  0  0  0  0  0
  148.9589  141.9988  153.4104 H   0  0  0  0  0  0  0  0  0  0  0  0
  148.8340  142.3899  155.1236 H   0  0  0  0  0  0  0  0  0  0  0  0
  148.5463  140.0036  155.6898 H   0  0  0  0  0  0  0  0  0  0  0  0
  147.4649  139.2230  153.5440 H   0  0  0  0  0  0  0  0  0  0  0  0
  148.9365  139.5344  152.6810 H   0  0  0  0  0  0  0  0  0  0  0  0
  148.5740  137.5517  155.9771 H   0  0  0  0  0  0  0  0  0  0  0  0
  146.2260  136.8254  155.5851 H   0  0  0  0  0  0  0  0  0  0  0  0
  146.4911  136.8405  153.8470 H   0  0  0  0  0  0  0  0  0  0  0  0
  146.4922  138.3343  154.7733 H   0  0  0  0  0  0  0  0  0  0  0  0
  149.7690  135.4946  155.2514 H   0  0  0  0  0  0  0  0  0  0  0  0
  148.1972  135.1367  155.9269 H   0  0  0  0  0  0  0  0  0  0  0  0
  148.5020  135.2404  153.0088 H   0  0  0  0  0  0  0  0  0  0  0  0
  148.0335  133.1641  151.9142 H   0  0  0  0  0  0  0  0  0  0  0  0
  146.9317  132.0501  152.7044 H   0  0  0  0  0  0  0  0  0  0  0  0
  146.6687  135.8453  151.9262 H   0  0  0  0  0  0  0  0  0  0  0  0
  144.2266  136.2107  150.7641 H   0  0  0  0  0  0  0  0  0  0  0  0
  143.1846  133.6441  150.6835 H   0  0  0  0  0  0  0  0  0  0  0  0
  151.0286  137.0037  154.2834 H   0  0  0  0  0  0  0  0  0  0  0  0
  150.9753  138.3081  153.1589 H   0  0  0  0  0  0  0  0  0  0  0  0
  150.5125  138.6922  156.1636 H   0  0  0  0  0  0  0  0  0  0  0  0
  152.9092  138.2051  155.6544 H   0  0  0  0  0  0  0  0  0  0  0  0
  152.6868  139.8872  156.1238 H   0  0  0  0  0  0  0  0  0  0  0  0
  152.9109  139.4707  154.4271 H   0  0  0  0  0  0  0  0  0  0  0  0
  148.9495  137.3216  153.1097 H   0  0  0  0  0  0  0  0  0  0  0  0
  1  2  1  0  0  0  0
  1 21  1  0  0  0  0
  1 22  1  0  0  0  0
  1 23  1  0  0  0  0
  2 20  1  0  0  0  0
  2  3  1  0  0  0  0
  2 24  1  0  0  0  0
  3  4  1  0  0  0  0
  3 25  1  0  0  0  0
  3 26  1  0  0  0  0
  4  5  1  0  0  0  0
  4 17  1  0  0  0  0
  4 45  1  0  0  0  0
  5  6  1  0  0  0  0
  5  7  1  0  0  0  0
  5 27  1  0  0  0  0
  6 28  1  0  0  0  0
  6 29  1  0  0  0  0
  6 30  1  0  0  0  0
  7  8  1  0  0  0  0
  7 31  1  0  0  0  0
  7 32  1  0  0  0  0
  8  9  1  0  0  0  0
  8 33  1  0  0  0  0
  9 10  2  0  0  0  0
  9 11  1  0  0  0  0
 11 12  1  0  0  0  0
 11 34  1  0  0  0  0
 11 35  1  0  0  0  0
 12 16  1  0  0  0  0
 12 13  1  0  0  0  0
 13 14  2  0  0  0  0
 13 36  1  0  0  0  0
 14 15  1  0  0  0  0
 14 37  1  0  0  0  0
 15 16  2  0  0  0  0
 15 38  1  0  0  0  0
 17 18  1  0  0  0  0
 17 39  1  0  0  0  0
 17 40  1  0  0  0  0
 18 19  1  0  0  0  0
 18 20  1  0  0  0  0
 18 41  1  0  0  0  0
 19 42  1  0  0  0  0
 19 43  1  0  0  0  0
 19 44  1  0  0  0  0
M  CHG  1   4   1
M  END
> <s_m_source_file>
AV-unprocessed.smi

> <i_m_source_file_index>
1433

> <i_lp_mmshare_version>
43012

> <i_f3d_flags>
0

> <s_epik_input>
W0NIM11bQ0BASF0xW0NIMl1OKFtDSDJdW0NASF0oTzEpW0NIM10pW0NASF0oW0NIM10pW0NIMl1bTkhdQyg9TylbQ0gyXW4yW2NIXVtjSF1bY0hdbjI=

> <s_epik_cmdline>
J2VwaWtfcHl0aG9uJywgJy1waCcsICc3LjAnLCAnLXRuJywgJzgnLCAnLW1hJywgJzIwMCcsICctbWV0YWxfYmluZGluZycsICctaW1hZScsICc8aW5maWxlLm1hZT4nLCAnLW9tYWUnLCAnPG91dGZpbGUubWFlPic=

> <r_lp_tautomer_probability>
1

> <r_epik_Ionization_Penalty>
0.748405

> <r_epik_Ionization_Penalty_Charging>
0.748396

> <r_epik_Ionization_Penalty_Neutral>
8.54426e-06

> <r_epik_State_Penalty>
0.775162

> <r_epik_Charging_Adjusted_Penalty>
1.52356

> <i_epik_Tot_Q>
1

> <i_epik_Tot_abs_Q>
1

> <r_epik_Metal_State_Penalty>
0.775167

> <b_epik_Metal_Only>
0

> <s_lp_Force_Field>
OPLS_2005

> <r_lp_Energy>
22.8293

> <b_lp_Chiralities_Consistent>
1

> <s_lp_Variant>
AV-unprocessed.smi:1433-10

> <Gold.Version>
5.8.1

> <Gold.Id.Protein>
6NUR|6NUR_protein|mol2

> <Gold.PLP.Fitness>
48.1412

> <Gold.PLP.PLP>
-31.0219

> <Gold.PLP.part.hbond>
-2.9834

> <Gold.PLP.part.metal>
0.0000

> <Gold.PLP.part.buried>
-0.3981

> <Gold.PLP.part.nonpolar>
-27.8230

> <Gold.PLP.part.repulsive>
0.2026

> <Gold.PLP.ligand.clash>
0.0000

> <Gold.PLP.ligand.torsion>
0.4737

> <Gold.PLP.Chemscore.Hbond>
4.0000

> <Gold.PLP.Chemscore.CHOScore>
1.9959

> <Gold.PLP.Chemscore.Metal>
0.0000

> <Gold.Chemscore.Hbonds>
donor molecule, donor type, donor heavy atom, donor atom, acceptor molecule, acceptor atom, score
      L1  H     4    45       P1  7948  2.00
      L1  H     8    33       P1  7948  1.00
      P1  H  7989  7998       L1    20  1.00
      L1  C    13    36       P1  7948  1.00
      L1  C    15    38       P1 10186  0.90

> <Gold.PLP.Chemscore.Internal.Correction>
0.0791

> <Gold.Rescore>
     Score         DG    S(hbond)    S(metal)    S(lipo)     H(rot)  DE(clash)    DE(int)     intcor
     16.93     -18.06       2.79        0.00      68.81       1.87       0.70       0.43       ----

> <Gold.Chemscore.Fitness>
16.9338

> <Gold.Chemscore.DG>
-18.0607

> <Gold.Chemscore.ZeroCoef>
-5.4800

> <Gold.Chemscore.Hbond>
2.7864

> <Gold.Chemscore.Metal>
0.0000

> <Gold.Chemscore.Lipo>
68.8067

> <Gold.Chemscore.Internal_Hbond>
0.0000

> <Gold.Chemscore.DEClash>
0.7004

> <Gold.Chemscore.DEInternal>
0.4265

> <Gold.Chemscore.Rot>
1.8657

> <Gold.Chemscore.Internal.Correction>
   9.000000E+99

> <Gold.Chemscore.Hbonds>
donor molecule, donor type, donor heavy atom, donor atom, acceptor molecule, acceptor atom, score
      L1  H     4    45       P1  7948  1.00
      L1  H     8    33       P1  7948  0.84
      P1  H  7989  7998       L1    20  0.39

> <Gold.Chemscore.Hbond.Weighted>
-9.3064

> <Gold.Chemscore.Metal.Weighted>
-0.0000

> <Gold.Chemscore.Lipo.Weighted>
-8.0504

> <Gold.Chemscore.Internal_Hbond.Weighted>
0.0000

> <Gold.Chemscore.DEClash.Weighted>
0.7004

> <Gold.Chemscore.DEInternal.Weighted>
0.4265

> <Gold.Chemscore.Rot.Weighted>
4.7761

> <Gold.Chemscore.Internal.Correction.Weighted>
   9.000000E+99

> <Gold.Protein.RotatedTorsions>
[ 6907 6896 6895 6894 ] final  114.88 input  -60.11 | X-H torsion
[ 7974 7965 7964 7962 ] final   95.74 input  175.53 | X-H torsion
[ 8008 7997 7996 7995 ] final -127.21 input   59.86 | X-H torsion
[ 10167 10162 10161 10158 ] final  176.49 input  -65.29 | X-H torsion
[ 10718 10713 10712 10709 ] final -168.80 input   66.30 | X-H torsion
[ 10763 10752 10751 10750 ] final  166.76 input  -60.55 | X-H torsion
[ 11005 11000 10999 10996 ] final   98.51 input  -57.11 | X-H torsion

> <Gold.Protein.ActiveResidues>
 VAL166  LYS551  ARG553  GLY616  TRP617  ASP618  TYR619  PRO620  LYS621  CYS622 
 ASP623  PHE694  ASN695  SER759  ASP760  ASP761  ALA762  ILE779  LEU786  VAL792 
 PHE793  MET794  SER795  GLU796  ALA797  LYS798  CYS799  TRP800  GLU811  SER814 

> <Gold.Protein.RotatedAtoms>
  152.4775  133.8174  159.7035 H   0  0  0  0  0  0  0  0  0  0  0  0  # atno 6907 bound_to 6896
  150.8802  133.7373  159.2941 H   0  0  0  0  0  0  0  0  0  0  0  0  # atno 6908 bound_to 6896
  151.4879  135.1059  159.9847 H   0  0  0  0  0  0  0  0  0  0  0  0  # atno 6909 bound_to 6896
  145.4481  139.2295  143.3055 H   0  0  0  0  0  0  0  0  0  0  0  0  # atno 7974 bound_to 7965
  155.2425  140.0429  157.2976 H   0  0  0  0  0  0  0  0  0  0  0  0  # atno 8008 bound_to 7997
  154.5819  140.2403  155.8011 H   0  0  0  0  0  0  0  0  0  0  0  0  # atno 8009 bound_to 7997
  156.2199  140.2973  155.9936 H   0  0  0  0  0  0  0  0  0  0  0  0  # atno 8010 bound_to 7997
  139.5216  144.2909  152.0465 H   0  0  0  0  0  0  0  0  0  0  0  0  # atno 10167 bound_to 10162
  156.7022  130.9201  151.3081 H   0  0  0  0  0  0  0  0  0  0  0  0  # atno 10718 bound_to 10713
  154.3437  135.2753  155.2409 H   0  0  0  0  0  0  0  0  0  0  0  0  # atno 10763 bound_to 10752
  154.4668  135.5893  153.6297 H   0  0  0  0  0  0  0  0  0  0  0  0  # atno 10764 bound_to 10752
  152.9855  135.6078  154.3641 H   0  0  0  0  0  0  0  0  0  0  0  0  # atno 10765 bound_to 10752
  139.8772  134.9052  156.4467 H   0  0  0  0  0  0  0  0  0  0  0  0  # atno 11005 bound_to 11000
  146.2519  140.5237  142.8890 LP  0  0  0  0  0  0  0  0  0  0  0  0  # atno 17320 bound_to 7965
  144.8079  140.6332  143.6435 LP  0  0  0  0  0  0  0  0  0  0  0  0  # atno 17321 bound_to 7965
  140.2360  144.4319  150.6280 LP  0  0  0  0  0  0  0  0  0  0  0  0  # atno 17342 bound_to 10162
  140.6323  143.2189  151.6469 LP  0  0  0  0  0  0  0  0  0  0  0  0  # atno 17343 bound_to 10162
  157.6968  130.9291  150.0669 LP  0  0  0  0  0  0  0  0  0  0  0  0  # atno 17370 bound_to 10713
  156.1720  130.3647  149.9152 LP  0  0  0  0  0  0  0  0  0  0  0  0  # atno 17371 bound_to 10713
  140.8961  133.7813  155.9626 LP  0  0  0  0  0  0  0  0  0  0  0  0  # atno 17394 bound_to 11000
  140.8701  134.2736  157.5194 LP  0  0  0  0  0  0  0  0  0  0  0  0  # atno 17395 bound_to 11000

$$$$
