AV-unprocessed.smi:224|AV-procd|sdf|1711|dock6
  -GOLD-   2262020173D 1   1.00000     0.00000
 Structure written by MMmdl.
 56 59  0  0  0  0  0  0  0  0  2 V2000
  145.6565  130.8654  151.1879 C   0  0  0  0  0  0  0  0  0  0  0  0
  145.9808  131.9691  152.2056 C   0  0  2  0  0  0  0  0  0  0  0  0
  144.7639  132.5296  152.6518 O   0  0  0  0  0  0  0  0  0  0  0  0
  146.8487  133.0968  151.6116 C   0  0  0  0  0  0  0  0  0  0  0  0
  147.6345  133.8188  152.6531 N   0  3  2  0  0  0  0  0  0  0  0  0
  148.6446  132.9174  153.2793 C   0  0  0  0  0  0  0  0  0  0  0  0
  149.4850  133.6281  154.3539 C   0  0  0  0  0  0  0  0  0  0  0  0
  148.6331  134.2925  155.3336 N   0  0  0  0  0  0  0  0  0  0  0  0
  148.1839  133.5986  156.4147 C   0  0  0  0  0  0  0  0  0  0  0  0
  147.5987  132.3831  156.2430 N   0  0  0  0  0  0  0  0  0  0  0  0
  147.1306  131.7000  157.2912 C   0  0  0  0  0  0  0  0  0  0  0  0
  147.1450  132.0399  158.5804 N   0  0  0  0  0  0  0  0  0  0  0  0
  147.7437  133.2506  158.7657 C   0  0  0  0  0  0  0  0  0  0  0  0
  148.2914  134.0849  157.7499 C   0  0  0  0  0  0  0  0  0  0  0  0
  148.8369  135.2273  158.3246 N   0  0  0  0  0  0  0  0  0  0  0  0
  148.6096  135.0846  159.6016 C   0  0  0  0  0  0  0  0  0  0  0  0
  147.9451  133.9319  159.9530 N   0  0  0  0  0  0  0  0  0  0  0  0
  147.5510  133.5250  161.2926 C   0  0  0  0  0  0  0  0  0  0  0  0
  146.8948  134.6634  162.1084 C   0  0  2  0  0  0  0  0  0  0  0  0
  146.4141  134.1388  163.3341 O   0  0  0  0  0  0  0  0  0  0  0  0
  145.7377  135.3559  161.3925 C   0  0  0  0  0  0  0  0  0  0  0  0
  145.8337  136.7891  161.8964 C   0  0  0  0  0  0  0  0  0  0  0  0
  147.2333  137.0073  161.9317 O   0  0  0  0  0  0  0  0  0  0  0  0
  147.8601  135.8253  162.4186 C   0  0  0  0  0  0  0  0  0  0  0  0
  147.6944  135.2283  154.7282 C   0  0  0  0  0  0  0  0  0  0  0  0
  146.8024  134.5448  153.6667 C   0  0  1  0  0  0  0  0  0  0  0  0
  145.8991  135.6269  153.0389 C   0  0  0  0  0  0  0  0  0  0  0  0
  146.5632  130.3700  150.8397 H   0  0  0  0  0  0  0  0  0  0  0  0
  145.1418  131.2669  150.3140 H   0  0  0  0  0  0  0  0  0  0  0  0
  145.0165  130.1003  151.6289 H   0  0  0  0  0  0  0  0  0  0  0  0
  146.4625  131.5275  153.0772 H   0  0  0  0  0  0  0  0  0  0  0  0
  144.9512  133.3084  153.1536 H   0  0  0  0  0  0  0  0  0  0  0  0
  147.4880  132.6490  150.8555 H   0  0  0  0  0  0  0  0  0  0  0  0
  146.2273  133.8134  151.0716 H   0  0  0  0  0  0  0  0  0  0  0  0
  148.1324  132.0609  153.7190 H   0  0  0  0  0  0  0  0  0  0  0  0
  149.3177  132.5167  152.5228 H   0  0  0  0  0  0  0  0  0  0  0  0
  150.1668  132.9282  154.8391 H   0  0  0  0  0  0  0  0  0  0  0  0
  150.1146  134.3846  153.8843 H   0  0  0  0  0  0  0  0  0  0  0  0
  146.6771  130.7462  157.0646 H   0  0  0  0  0  0  0  0  0  0  0  0
  148.9173  135.8248  160.3259 H   0  0  0  0  0  0  0  0  0  0  0  0
  146.8695  132.6770  161.2108 H   0  0  0  0  0  0  0  0  0  0  0  0
  148.4377  133.1549  161.8091 H   0  0  0  0  0  0  0  0  0  0  0  0
  147.1535  133.9615  163.8953 H   0  0  0  0  0  0  0  0  0  0  0  0
  145.9052  135.3545  160.3149 H   0  0  0  0  0  0  0  0  0  0  0  0
  144.7652  134.8977  161.5780 H   0  0  0  0  0  0  0  0  0  0  0  0
  145.3302  137.5020  161.2435 H   0  0  0  0  0  0  0  0  0  0  0  0
  145.4187  136.8831  162.9012 H   0  0  0  0  0  0  0  0  0  0  0  0
  148.0478  135.9283  163.4887 H   0  0  0  0  0  0  0  0  0  0  0  0
  148.8271  135.7054  161.9290 H   0  0  0  0  0  0  0  0  0  0  0  0
  147.0682  135.7105  155.4768 H   0  0  0  0  0  0  0  0  0  0  0  0
  148.2728  136.0282  154.2639 H   0  0  0  0  0  0  0  0  0  0  0  0
  146.1699  133.8120  154.1709 H   0  0  0  0  0  0  0  0  0  0  0  0
  145.4425  136.2449  153.8129 H   0  0  0  0  0  0  0  0  0  0  0  0
  145.0724  135.2123  152.4646 H   0  0  0  0  0  0  0  0  0  0  0  0
  146.4684  136.2901  152.3867 H   0  0  0  0  0  0  0  0  0  0  0  0
  148.1524  134.5388  152.1701 H   0  0  0  0  0  0  0  0  0  0  0  0
  1  2  1  0  0  0  0
  1 28  1  0  0  0  0
  1 29  1  0  0  0  0
  1 30  1  0  0  0  0
  2  3  1  0  0  0  0
  2  4  1  0  0  0  0
  2 31  1  0  0  0  0
  3 32  1  0  0  0  0
  4  5  1  0  0  0  0
  4 33  1  0  0  0  0
  4 34  1  0  0  0  0
  5 26  1  0  0  0  0
  5  6  1  0  0  0  0
  5 56  1  0  0  0  0
  6  7  1  0  0  0  0
  6 35  1  0  0  0  0
  6 36  1  0  0  0  0
  7  8  1  0  0  0  0
  7 37  1  0  0  0  0
  7 38  1  0  0  0  0
  8  9  1  0  0  0  0
  8 25  1  0  0  0  0
  9 14  1  0  0  0  0
  9 10  2  0  0  0  0
 10 11  1  0  0  0  0
 11 12  2  0  0  0  0
 11 39  1  0  0  0  0
 12 13  1  0  0  0  0
 13 17  1  0  0  0  0
 13 14  2  0  0  0  0
 14 15  1  0  0  0  0
 15 16  2  0  0  0  0
 16 17  1  0  0  0  0
 16 40  1  0  0  0  0
 17 18  1  0  0  0  0
 18 19  1  0  0  0  0
 18 41  1  0  0  0  0
 18 42  1  0  0  0  0
 19 24  1  0  0  0  0
 19 20  1  0  0  0  0
 19 21  1  0  0  0  0
 20 43  1  0  0  0  0
 21 22  1  0  0  0  0
 21 44  1  0  0  0  0
 21 45  1  0  0  0  0
 22 23  1  0  0  0  0
 22 46  1  0  0  0  0
 22 47  1  0  0  0  0
 23 24  1  0  0  0  0
 24 48  1  0  0  0  0
 24 49  1  0  0  0  0
 25 26  1  0  0  0  0
 25 50  1  0  0  0  0
 25 51  1  0  0  0  0
 26 27  1  0  0  0  0
 26 52  1  0  0  0  0
 27 53  1  0  0  0  0
 27 54  1  0  0  0  0
 27 55  1  0  0  0  0
M  CHG  1   5   1
M  END
> <s_m_source_file>
AV-unprocessed.smi

> <i_m_source_file_index>
224

> <i_lp_mmshare_version>
43012

> <i_f3d_flags>
0

> <s_epik_input>
W0NIM11bQ0BIXShbT0hdKVtDSDJdTjFbQ0gyXVtDSDJdTihbQ0gyXVtDQEhdMVtDSDNdKWMobltjSF1uMiljKGMyMyluW2NIXW4zW0NIMl1bQ0BAXTQoW09IXSlbQ0gyXVtDSDJdT1tDSDJdNA==

> <s_epik_cmdline>
J2VwaWtfcHl0aG9uJywgJy1waCcsICc3LjAnLCAnLXRuJywgJzgnLCAnLW1hJywgJzIwMCcsICctbWV0YWxfYmluZGluZycsICctaW1hZScsICc8aW5maWxlLm1hZT4nLCAnLW9tYWUnLCAnPG91dGZpbGUubWFlPic=

> <r_lp_tautomer_probability>
1

> <r_epik_Ionization_Penalty>
0.00516958

> <r_epik_Ionization_Penalty_Charging>
0.00509693

> <r_epik_Ionization_Penalty_Neutral>
7.26542e-05

> <r_epik_State_Penalty>
-0

> <r_epik_Charging_Adjusted_Penalty>
0.00509693

> <i_epik_Tot_Q>
1

> <i_epik_Tot_abs_Q>
1

> <r_epik_Metal_State_Penalty>
-0

> <b_epik_Metal_Only>
0

> <s_lp_Force_Field>
OPLS_2005

> <r_lp_Energy>
47.9311

> <b_lp_Chiralities_Consistent>
1

> <s_lp_Variant>
AV-unprocessed.smi:224-5

> <Gold.Version>
5.8.1

> <Gold.Id.Protein>
6NUR|6NUR_protein|mol2

> <Gold.PLP.Fitness>
44.2609

> <Gold.PLP.PLP>
-36.4037

> <Gold.PLP.part.hbond>
-4.8809

> <Gold.PLP.part.metal>
0.0000

> <Gold.PLP.part.buried>
-4.0107

> <Gold.PLP.part.nonpolar>
-28.5509

> <Gold.PLP.part.repulsive>
0.0635

> <Gold.PLP.ligand.clash>
0.0000

> <Gold.PLP.ligand.torsion>
0.9685

> <Gold.PLP.Chemscore.Hbond>
3.0392

> <Gold.PLP.Chemscore.CHOScore>
0.0000

> <Gold.PLP.Chemscore.Metal>
0.0000

> <Gold.Chemscore.Hbonds>
donor molecule, donor type, donor heavy atom, donor atom, acceptor molecule, acceptor atom, score
      L1  H     5    56       P1  7948  1.70
      P1  H  6931  6943       L1    23  0.50
      P1  H  6934  6947       L1    23  0.31

> <Gold.PLP.Chemscore.Internal.Correction>
0.6765

> <Gold.Rescore>
     Score         DG    S(hbond)    S(metal)    S(lipo)     H(rot)  DE(clash)    DE(int)     intcor
      8.50     -11.36       1.66        0.00      76.49       3.36       1.01       1.85       ----

> <Gold.Chemscore.Fitness>
8.4981

> <Gold.Chemscore.DG>
-11.3595

> <Gold.Chemscore.ZeroCoef>
-5.4800

> <Gold.Chemscore.Hbond>
1.6571

> <Gold.Chemscore.Metal>
0.0000

> <Gold.Chemscore.Lipo>
76.4898

> <Gold.Chemscore.Internal_Hbond>
0.0000

> <Gold.Chemscore.DEClash>
1.0107

> <Gold.Chemscore.DEInternal>
1.8508

> <Gold.Chemscore.Rot>
3.3611

> <Gold.Chemscore.Internal.Correction>
   9.000000E+99

> <Gold.Chemscore.Hbonds>
donor molecule, donor type, donor heavy atom, donor atom, acceptor molecule, acceptor atom, score
      L1  H     5    56       P1  7948  0.15
      P1  H  6931  6943       L1    23  0.08
      P1  H  6934  6947       L1    23  0.05

> <Gold.Chemscore.Hbond.Weighted>
-5.5347

> <Gold.Chemscore.Metal.Weighted>
-0.0000

> <Gold.Chemscore.Lipo.Weighted>
-8.9493

> <Gold.Chemscore.Internal_Hbond.Weighted>
0.0000

> <Gold.Chemscore.DEClash.Weighted>
1.0107

> <Gold.Chemscore.DEInternal.Weighted>
1.8508

> <Gold.Chemscore.Rot.Weighted>
8.6045

> <Gold.Chemscore.Internal.Correction.Weighted>
   9.000000E+99

> <Gold.Protein.RotatedTorsions>
[ 6907 6896 6895 6894 ] final   25.01 input  -60.11 | X-H torsion
[ 7974 7965 7964 7962 ] final -130.99 input  175.53 | X-H torsion
[ 8008 7997 7996 7995 ] final  114.63 input   59.86 | X-H torsion
[ 10167 10162 10161 10158 ] final  -73.77 input  -65.29 | X-H torsion
[ 10718 10713 10712 10709 ] final   66.00 input   66.30 | X-H torsion
[ 10763 10752 10751 10750 ] final  138.95 input  -60.55 | X-H torsion
[ 11005 11000 10999 10996 ] final -138.83 input  -57.11 | X-H torsion

> <Gold.Protein.ActiveResidues>
 VAL166  LYS551  ARG553  GLY616  TRP617  ASP618  TYR619  PRO620  LYS621  CYS622 
 ASP623  PHE694  ASN695  SER759  ASP760  ASP761  ALA762  ILE779  LEU786  VAL792 
 PHE793  MET794  SER795  GLU796  ALA797  LYS798  CYS799  TRP800  GLU811  SER814 

> <Gold.Protein.RotatedAtoms>
  151.9661  135.0100  160.0550 H   0  0  0  0  0  0  0  0  0  0  0  0  # atno 6907 bound_to 6896
  152.1825  133.4712  159.4974 H   0  0  0  0  0  0  0  0  0  0  0  0  # atno 6908 bound_to 6896
  150.6920  134.1732  159.4263 H   0  0  0  0  0  0  0  0  0  0  0  0  # atno 6909 bound_to 6896
  144.9422  140.7251  143.4839 H   0  0  0  0  0  0  0  0  0  0  0  0  # atno 7974 bound_to 7965
  156.2333  140.2955  156.0246 H   0  0  0  0  0  0  0  0  0  0  0  0  # atno 8008 bound_to 7997
  155.2163  140.0414  157.2958 H   0  0  0  0  0  0  0  0  0  0  0  0  # atno 8009 bound_to 7997
  154.6034  140.2433  155.7770 H   0  0  0  0  0  0  0  0  0  0  0  0  # atno 8010 bound_to 7997
  140.5083  143.2349  151.7637 H   0  0  0  0  0  0  0  0  0  0  0  0  # atno 10167 bound_to 10162
  157.6141  130.9244  150.0051 H   0  0  0  0  0  0  0  0  0  0  0  0  # atno 10718 bound_to 10713
  153.8980  135.3025  155.3448 H   0  0  0  0  0  0  0  0  0  0  0  0  # atno 10763 bound_to 10752
  154.7684  135.4898  153.9603 H   0  0  0  0  0  0  0  0  0  0  0  0  # atno 10764 bound_to 10752
  153.1260  135.6793  153.9355 H   0  0  0  0  0  0  0  0  0  0  0  0  # atno 10765 bound_to 10752
  140.8578  134.2206  157.4724 H   0  0  0  0  0  0  0  0  0  0  0  0  # atno 11005 bound_to 11000
  145.2973  139.1862  143.4708 LP  0  0  0  0  0  0  0  0  0  0  0  0  # atno 17320 bound_to 7965
  146.3290  140.2959  142.8618 LP  0  0  0  0  0  0  0  0  0  0  0  0  # atno 17321 bound_to 7965
  139.4889  144.4426  151.9746 LP  0  0  0  0  0  0  0  0  0  0  0  0  # atno 17342 bound_to 10162
  140.3518  144.3080  150.5948 LP  0  0  0  0  0  0  0  0  0  0  0  0  # atno 17343 bound_to 10162
  156.1256  130.3644  149.9815 LP  0  0  0  0  0  0  0  0  0  0  0  0  # atno 17370 bound_to 10713
  156.7886  130.9247  151.3646 LP  0  0  0  0  0  0  0  0  0  0  0  0  # atno 17371 bound_to 10713
  139.8706  134.9715  156.4739 LP  0  0  0  0  0  0  0  0  0  0  0  0  # atno 17394 bound_to 11000
  140.8717  133.7983  155.9371 LP  0  0  0  0  0  0  0  0  0  0  0  0  # atno 17395 bound_to 11000

$$$$
