AV-unprocessed.smi:2482|AV-procd|sdf|9782|dock6
  -GOLD-   2272013423D 1   1.00000     0.00000
 Structure written by MMmdl.
 34 35  0  0  0  0  0  0  0  0  3 V2000
  151.3926  144.4892  159.6831 C   0  0  0  0  0  0  0  0  0  0  0  0
  152.1365  143.1729  159.8117 C   0  0  0  0  0  0  0  0  0  0  0  0
  152.7466  142.9624  160.9980 N   0  0  0  0  0  0  0  0  0  0  0  0
  153.4175  141.8052  161.1622 C   0  0  0  0  0  0  0  0  0  0  0  0
  153.5121  140.8183  160.1631 C   0  0  0  0  0  0  0  0  0  0  0  0
  152.8858  141.0280  158.9143 C   0  0  0  0  0  0  0  0  0  0  0  0
  152.9626  140.0920  157.9538 N   0  5  0  0  0  0  0  0  0  0  0  0
  151.8319  139.6320  157.3656 C   0  0  0  0  0  0  0  0  0  0  0  0
  150.7163  139.4761  157.8667 O   0  0  0  0  0  0  0  0  0  0  0  0
  152.0696  139.2826  155.8791 C   0  0  1  0  0  0  0  0  0  0  0  0
  151.9511  137.7757  155.5488 C   0  0  0  0  0  0  0  0  0  0  0  0
  150.5442  137.3179  155.6408 N   0  3  2  0  0  0  0  0  0  0  0  0
  150.3983  135.8671  155.3992 C   0  0  0  0  0  0  0  0  0  0  0  0
  149.6666  138.1357  154.7736 C   0  0  0  0  0  0  0  0  0  0  0  0
  149.8091  139.6259  155.1236 C   0  0  0  0  0  0  0  0  0  0  0  0
  151.1793  140.0120  155.0254 O   0  0  0  0  0  0  0  0  0  0  0  0
  152.1729  142.2434  158.7446 C   0  0  0  0  0  0  0  0  0  0  0  0
  151.3556  142.5939  157.2561 Cl  0  0  0  0  0  0  0  0  0  0  0  0
  151.8106  145.0828  158.8698 H   0  0  0  0  0  0  0  0  0  0  0  0
  151.4578  145.0784  160.5986 H   0  0  0  0  0  0  0  0  0  0  0  0
  150.3380  144.3094  159.4730 H   0  0  0  0  0  0  0  0  0  0  0  0
  153.8939  141.6597  162.1205 H   0  0  0  0  0  0  0  0  0  0  0  0
  154.0636  139.9095  160.3554 H   0  0  0  0  0  0  0  0  0  0  0  0
  153.0849  139.6003  155.6366 H   0  0  0  0  0  0  0  0  0  0  0  0
  152.3245  137.5921  154.5403 H   0  0  0  0  0  0  0  0  0  0  0  0
  152.5771  137.1882  156.2225 H   0  0  0  0  0  0  0  0  0  0  0  0
  150.7035  135.6058  154.3852 H   0  0  0  0  0  0  0  0  0  0  0  0
  149.3619  135.5575  155.5364 H   0  0  0  0  0  0  0  0  0  0  0  0
  151.0114  135.2983  156.0990 H   0  0  0  0  0  0  0  0  0  0  0  0
  149.9293  137.9712  153.7274 H   0  0  0  0  0  0  0  0  0  0  0  0
  148.6288  137.8239  154.8976 H   0  0  0  0  0  0  0  0  0  0  0  0
  149.2274  140.2291  154.4267 H   0  0  0  0  0  0  0  0  0  0  0  0
  149.4107  139.8328  156.1177 H   0  0  0  0  0  0  0  0  0  0  0  0
  150.2512  137.4866  156.5933 H   0  0  0  0  0  0  0  0  0  0  0  0
  1  2  1  0  0  0  0
  1 19  1  0  0  0  0
  1 20  1  0  0  0  0
  1 21  1  0  0  0  0
  2 17  1  0  0  0  0
  2  3  2  0  0  0  0
  3  4  1  0  0  0  0
  4  5  2  0  0  0  0
  4 22  1  0  0  0  0
  5  6  1  0  0  0  0
  5 23  1  0  0  0  0
  6  7  1  0  0  0  0
  6 17  2  0  0  0  0
  7  8  1  0  0  0  0
  8  9  2  0  0  0  0
  8 10  1  0  0  0  0
 10 16  1  0  0  0  0
 10 11  1  0  0  0  0
 10 24  1  0  0  0  0
 11 12  1  0  0  0  0
 11 25  1  0  0  0  0
 11 26  1  0  0  0  0
 12 13  1  0  0  0  0
 12 14  1  0  0  0  0
 12 34  1  0  0  0  0
 13 27  1  0  0  0  0
 13 28  1  0  0  0  0
 13 29  1  0  0  0  0
 14 15  1  0  0  0  0
 14 30  1  0  0  0  0
 14 31  1  0  0  0  0
 15 16  1  0  0  0  0
 15 32  1  0  0  0  0
 15 33  1  0  0  0  0
 17 18  1  0  0  0  0
M  CHG  1   7  -1
M  CHG  1  12   1
M  END
> <s_m_source_file>
AV-unprocessed.smi

> <i_m_source_file_index>
2482

> <i_lp_mmshare_version>
43012

> <i_f3d_flags>
0

> <s_epik_input>
W0NIM11jMW5bY0hdW2NIXWMoYzFDbClbTkhdQyg9TylbQ0BASF0yW0NIMl1OKFtDSDNdKVtDSDJdW0NIMl1PMg==

> <s_epik_cmdline>
J2VwaWtfcHl0aG9uJywgJy1waCcsICc3LjAnLCAnLXRuJywgJzgnLCAnLW1hJywgJzIwMCcsICctbWV0YWxfYmluZGluZycsICctaW1hZScsICc8aW5maWxlLm1hZT4nLCAnLW9tYWUnLCAnPG91dGZpbGUubWFlPic=

> <r_epik_Ionization_Penalty>
6.9249

> <r_epik_Ionization_Penalty_Charging>
6.74596

> <r_epik_Ionization_Penalty_Neutral>
0.178941

> <r_epik_State_Penalty>
6.78185

> <r_epik_Charging_Adjusted_Penalty>
13.5278

> <i_epik_Tot_Q>
0

> <i_epik_Tot_abs_Q>
2

> <r_epik_Metal_State_Penalty>
2.70608

> <b_epik_Metal_Only>
1

> <s_lp_Force_Field>
OPLS_2005

> <r_lp_Energy>
12.3896

> <b_lp_Chiralities_Consistent>
1

> <s_lp_Variant>
AV-unprocessed.smi:2482-8

> <Gold.Version>
5.8.1

> <Gold.Id.Protein>
6NUR|6NUR_protein|mol2

> <Gold.PLP.Fitness>
43.7292

> <Gold.PLP.PLP>
-35.7526

> <Gold.PLP.part.hbond>
-1.9316

> <Gold.PLP.part.metal>
0.0000

> <Gold.PLP.part.buried>
-4.5585

> <Gold.PLP.part.nonpolar>
-28.5388

> <Gold.PLP.part.repulsive>
0.1401

> <Gold.PLP.ligand.clash>
0.0000

> <Gold.PLP.ligand.torsion>
0.7538

> <Gold.PLP.Chemscore.Hbond>
3.0000

> <Gold.PLP.Chemscore.CHOScore>
0.0000

> <Gold.PLP.Chemscore.Metal>
0.0000

> <Gold.Chemscore.Hbonds>
donor molecule, donor type, donor heavy atom, donor atom, acceptor molecule, acceptor atom, score
      P1  H  7989  7998       L1    16  1.00
      P1  H  7997  8009       L1     7  2.00

> <Gold.PLP.Chemscore.Internal.Correction>
0.4842

> <Gold.Rescore>
     Score         DG    S(hbond)    S(metal)    S(lipo)     H(rot)  DE(clash)    DE(int)     intcor
     18.62     -20.64       1.84        0.00      98.83       1.00       0.03       1.98       ----

> <Gold.Chemscore.Fitness>
18.6238

> <Gold.Chemscore.DG>
-20.6391

> <Gold.Chemscore.ZeroCoef>
-5.4800

> <Gold.Chemscore.Hbond>
1.8432

> <Gold.Chemscore.Metal>
0.0000

> <Gold.Chemscore.Lipo>
98.8279

> <Gold.Chemscore.Internal_Hbond>
0.0000

> <Gold.Chemscore.DEClash>
0.0323

> <Gold.Chemscore.DEInternal>
1.9831

> <Gold.Chemscore.Rot>
1.0000

> <Gold.Chemscore.Internal.Correction>
   9.000000E+99

> <Gold.Chemscore.Hbonds>
donor molecule, donor type, donor heavy atom, donor atom, acceptor molecule, acceptor atom, score
      P1  H  7989  7998       L1    16  0.92
      P1  H  7997  8009       L1     7  0.83

> <Gold.Chemscore.Hbond.Weighted>
-6.1562

> <Gold.Chemscore.Metal.Weighted>
-0.0000

> <Gold.Chemscore.Lipo.Weighted>
-11.5629

> <Gold.Chemscore.Internal_Hbond.Weighted>
0.0000

> <Gold.Chemscore.DEClash.Weighted>
0.0323

> <Gold.Chemscore.DEInternal.Weighted>
1.9831

> <Gold.Chemscore.Rot.Weighted>
2.5600

> <Gold.Chemscore.Internal.Correction.Weighted>
   9.000000E+99

> <Gold.Protein.RotatedTorsions>
[ 6907 6896 6895 6894 ] final    1.08 input  -60.11 | X-H torsion
[ 7974 7965 7964 7962 ] final  -97.46 input  175.53 | X-H torsion
[ 8008 7997 7996 7995 ] final  167.11 input   59.86 | X-H torsion
[ 10167 10162 10161 10158 ] final   47.69 input  -65.29 | X-H torsion
[ 10718 10713 10712 10709 ] final   78.76 input   66.30 | X-H torsion
[ 10763 10752 10751 10750 ] final  -49.40 input  -60.55 | X-H torsion
[ 11005 11000 10999 10996 ] final  147.04 input  -57.11 | X-H torsion

> <Gold.Protein.ActiveResidues>
 VAL166  LYS551  ARG553  GLY616  TRP617  ASP618  TYR619  PRO620  LYS621  CYS622 
 ASP623  PHE694  ASN695  SER759  ASP760  ASP761  ALA762  ILE779  LEU786  VAL792 
 PHE793  MET794  SER795  GLU796  ALA797  LYS798  CYS799  TRP800  GLU811  SER814 

> <Gold.Protein.RotatedAtoms>
  151.5869  135.1055  160.0029 H   0  0  0  0  0  0  0  0  0  0  0  0  # atno 6907 bound_to 6896
  152.4326  133.7300  159.6593 H   0  0  0  0  0  0  0  0  0  0  0  0  # atno 6908 bound_to 6896
  150.8220  133.8166  159.3157 H   0  0  0  0  0  0  0  0  0  0  0  0  # atno 6909 bound_to 6896
  145.3334  140.9446  143.2649 H   0  0  0  0  0  0  0  0  0  0  0  0  # atno 7974 bound_to 7965
  156.1661  140.1625  156.8528 H   0  0  0  0  0  0  0  0  0  0  0  0  # atno 8008 bound_to 7997
  154.5209  140.0778  156.8205 H   0  0  0  0  0  0  0  0  0  0  0  0  # atno 8009 bound_to 7997
  155.3608  140.3395  155.4243 H   0  0  0  0  0  0  0  0  0  0  0  0  # atno 8010 bound_to 7997
  140.3010  144.2934  150.6219 H   0  0  0  0  0  0  0  0  0  0  0  0  # atno 10167 bound_to 10162
  157.6755  130.9883  150.1833 H   0  0  0  0  0  0  0  0  0  0  0  0  # atno 10718 bound_to 10713
  154.0935  135.6574  153.4856 H   0  0  0  0  0  0  0  0  0  0  0  0  # atno 10763 bound_to 10752
  153.0313  135.5208  154.7357 H   0  0  0  0  0  0  0  0  0  0  0  0  # atno 10764 bound_to 10752
  154.6488  135.2998  154.9982 H   0  0  0  0  0  0  0  0  0  0  0  0  # atno 10765 bound_to 10752
  140.0843  134.9078  157.1551 H   0  0  0  0  0  0  0  0  0  0  0  0  # atno 11005 bound_to 11000
  144.8846  139.4857  143.6707 LP  0  0  0  0  0  0  0  0  0  0  0  0  # atno 17320 bound_to 7965
  146.3036  139.7507  142.9073 LP  0  0  0  0  0  0  0  0  0  0  0  0  # atno 17321 bound_to 7965
  140.5651  143.2187  151.7698 LP  0  0  0  0  0  0  0  0  0  0  0  0  # atno 17342 bound_to 10162
  139.4915  144.4295  151.9888 LP  0  0  0  0  0  0  0  0  0  0  0  0  # atno 17343 bound_to 10162
  156.2561  130.3705  149.8180 LP  0  0  0  0  0  0  0  0  0  0  0  0  # atno 17370 bound_to 10713
  156.5939  130.8518  151.3415 LP  0  0  0  0  0  0  0  0  0  0  0  0  # atno 17371 bound_to 10713
  140.3443  134.2670  155.7207 LP  0  0  0  0  0  0  0  0  0  0  0  0  # atno 17394 bound_to 11000
  141.2057  133.7852  157.0217 LP  0  0  0  0  0  0  0  0  0  0  0  0  # atno 17395 bound_to 11000

$$$$
