AV-unprocessed.smi:10|AV-procd|sdf|54|dock2
  -GOLD-   2262015173D 1   1.00000     0.00000
 Structure written by MMmdl.
 34 36  0  0  0  0  0  0  0  0  1 V2000
  152.5093  143.7535  161.9079 C   0  0  0  0  0  0  0  0  0  0  0  0
  152.7149  142.7402  160.8937 N   0  0  0  0  0  0  0  0  0  0  0  0
  153.5855  141.7138  160.9278 C   0  0  0  0  0  0  0  0  0  0  0  0
  153.5709  140.9242  159.8553 N   0  0  0  0  0  0  0  0  0  0  0  0
  152.5915  141.5152  159.0649 C   0  0  0  0  0  0  0  0  0  0  0  0
  152.0748  141.1406  157.7285 C   0  0  0  0  0  0  0  0  0  0  0  0
  152.4916  140.1600  157.1113 O   0  0  0  0  0  0  0  0  0  0  0  0
  151.1055  141.9889  157.2718 N   0  0  0  0  0  0  0  0  0  0  0  0
  150.4816  141.7831  155.9555 C   0  0  0  0  0  0  0  0  0  0  0  0
  149.0579  141.1953  156.0673 C   0  0  1  0  0  0  0  0  0  0  0  0
  148.1731  142.2376  156.4300 O   0  0  0  0  0  0  0  0  0  0  0  0
  148.5865  140.5877  154.7424 C   0  0  0  0  0  0  0  0  0  0  0  0
  147.9944  141.4673  153.6292 C   0  0  0  0  0  0  0  0  0  0  0  0
  147.0923  140.2890  153.2468 C   0  0  0  0  0  0  0  0  0  0  0  0
  147.3061  139.7402  154.6617 C   0  0  0  0  0  0  0  0  0  0  0  0
  150.6377  143.1041  158.0302 C   0  0  0  0  0  0  0  0  0  0  0  0
  151.0730  143.4583  159.2114 N   0  0  0  0  0  0  0  0  0  0  0  0
  152.0590  142.6164  159.6751 C   0  0  0  0  0  0  0  0  0  0  0  0
  153.1371  143.5521  162.7764 H   0  0  0  0  0  0  0  0  0  0  0  0
  151.4641  143.7560  162.2181 H   0  0  0  0  0  0  0  0  0  0  0  0
  152.7655  144.7331  161.5038 H   0  0  0  0  0  0  0  0  0  0  0  0
  154.2497  141.5405  161.7619 H   0  0  0  0  0  0  0  0  0  0  0  0
  150.4737  142.6970  155.3575 H   0  0  0  0  0  0  0  0  0  0  0  0
  151.1104  141.0968  155.3848 H   0  0  0  0  0  0  0  0  0  0  0  0
  149.0209  140.4293  156.8428 H   0  0  0  0  0  0  0  0  0  0  0  0
  148.6348  143.0593  156.3601 H   0  0  0  0  0  0  0  0  0  0  0  0
  149.3967  140.0000  154.3046 H   0  0  0  0  0  0  0  0  0  0  0  0
  147.4304  142.3212  154.0076 H   0  0  0  0  0  0  0  0  0  0  0  0
  148.7061  141.7670  152.8593 H   0  0  0  0  0  0  0  0  0  0  0  0
  146.0625  140.5598  153.0125 H   0  0  0  0  0  0  0  0  0  0  0  0
  147.5305  139.6537  152.4754 H   0  0  0  0  0  0  0  0  0  0  0  0
  147.4694  138.6634  154.7128 H   0  0  0  0  0  0  0  0  0  0  0  0
  146.5256  140.0596  155.3539 H   0  0  0  0  0  0  0  0  0  0  0  0
  149.8479  143.6705  157.5335 H   0  0  0  0  0  0  0  0  0  0  0  0
  1  2  1  0  0  0  0
  1 19  1  0  0  0  0
  1 20  1  0  0  0  0
  1 21  1  0  0  0  0
  2 18  1  0  0  0  0
  2  3  1  0  0  0  0
  3  4  2  0  0  0  0
  3 22  1  0  0  0  0
  4  5  1  0  0  0  0
  5 18  2  0  0  0  0
  5  6  1  0  0  0  0
  6  7  2  0  0  0  0
  6  8  1  0  0  0  0
  8  9  1  0  0  0  0
  8 16  1  0  0  0  0
  9 10  1  0  0  0  0
  9 23  1  0  0  0  0
  9 24  1  0  0  0  0
 10 11  1  0  0  0  0
 10 12  1  0  0  0  0
 10 25  1  0  0  0  0
 11 26  1  0  0  0  0
 12 15  1  0  0  0  0
 12 13  1  0  0  0  0
 12 27  1  0  0  0  0
 13 14  1  0  0  0  0
 13 28  1  0  0  0  0
 13 29  1  0  0  0  0
 14 15  1  0  0  0  0
 14 30  1  0  0  0  0
 14 31  1  0  0  0  0
 15 32  1  0  0  0  0
 15 33  1  0  0  0  0
 16 17  2  0  0  0  0
 16 34  1  0  0  0  0
 17 18  1  0  0  0  0
M  END
> <s_m_source_file>
AV-unprocessed.smi

> <i_m_source_file_index>
10

> <i_lp_mmshare_version>
43012

> <i_f3d_flags>
0

> <s_epik_input>
bjFbY0hdbihbQ0gzXSljKGMxMiluW2NIXW4oYzI9TylbQ0gyXVtDQEhdKFtPSF0pW0NIXTNbQ0gyXVtDSDJdW0NIMl0z

> <s_epik_cmdline>
J2VwaWtfcHl0aG9uJywgJy1waCcsICc3LjAnLCAnLXRuJywgJzgnLCAnLW1hJywgJzIwMCcsICctbWV0YWxfYmluZGluZycsICctaW1hZScsICc8aW5maWxlLm1hZT4nLCAnLW9tYWUnLCAnPG91dGZpbGUubWFlPic=

> <r_lp_tautomer_probability>
1

> <r_epik_Ionization_Penalty>
0.0003743

> <r_epik_Ionization_Penalty_Charging>
2.98177e-12

> <r_epik_Ionization_Penalty_Neutral>
0.000374299

> <r_epik_State_Penalty>
0.000224514

> <r_epik_Charging_Adjusted_Penalty>
0.000224514

> <i_epik_Tot_Q>
0

> <i_epik_Tot_abs_Q>
0

> <r_epik_Metal_State_Penalty>
-0

> <b_epik_Metal_Only>
0

> <s_lp_Force_Field>
OPLS_2005

> <r_lp_Energy>
33.6231

> <b_lp_Chiralities_Consistent>
1

> <s_lp_Variant>
AV-unprocessed.smi:10-2

> <Gold.Version>
5.8.1

> <Gold.Id.Protein>
6NUR|6NUR_protein|mol2

> <Gold.PLP.Fitness>
45.6503

> <Gold.PLP.PLP>
-37.8282

> <Gold.PLP.part.hbond>
-2.0000

> <Gold.PLP.part.metal>
0.0000

> <Gold.PLP.part.buried>
-3.6333

> <Gold.PLP.part.nonpolar>
-30.0134

> <Gold.PLP.part.repulsive>
0.0589

> <Gold.PLP.ligand.clash>
0.0000

> <Gold.PLP.ligand.torsion>
0.6283

> <Gold.PLP.Chemscore.Hbond>
2.0000

> <Gold.PLP.Chemscore.CHOScore>
1.0000

> <Gold.PLP.Chemscore.Metal>
0.0000

> <Gold.Chemscore.Hbonds>
donor molecule, donor type, donor heavy atom, donor atom, acceptor molecule, acceptor atom, score
      L1  H    11    26       P1  8028  1.00
      P1  H  7997  8010       L1     7  1.00
      L1  C    16    34       P1  8028  1.00

> <Gold.PLP.Chemscore.Internal.Correction>
0.0787

> <Gold.Rescore>
     Score         DG    S(hbond)    S(metal)    S(lipo)     H(rot)  DE(clash)    DE(int)     intcor
     12.22     -12.96       1.88        0.00      60.18       2.28       0.11       0.63       ----

> <Gold.Chemscore.Fitness>
12.2241

> <Gold.Chemscore.DG>
-12.9607

> <Gold.Chemscore.ZeroCoef>
-5.4800

> <Gold.Chemscore.Hbond>
1.8812

> <Gold.Chemscore.Metal>
0.0000

> <Gold.Chemscore.Lipo>
60.1760

> <Gold.Chemscore.Internal_Hbond>
0.0000

> <Gold.Chemscore.DEClash>
0.1051

> <Gold.Chemscore.DEInternal>
0.6315

> <Gold.Chemscore.Rot>
2.2824

> <Gold.Chemscore.Internal.Correction>
   9.000000E+99

> <Gold.Chemscore.Hbonds>
donor molecule, donor type, donor heavy atom, donor atom, acceptor molecule, acceptor atom, score
      L1  H    11    26       P1  8028  0.91
      P1  H  7997  8010       L1     7  0.94

> <Gold.Chemscore.Hbond.Weighted>
-6.2832

> <Gold.Chemscore.Metal.Weighted>
-0.0000

> <Gold.Chemscore.Lipo.Weighted>
-7.0406

> <Gold.Chemscore.Internal_Hbond.Weighted>
0.0000

> <Gold.Chemscore.DEClash.Weighted>
0.1051

> <Gold.Chemscore.DEInternal.Weighted>
0.6315

> <Gold.Chemscore.Rot.Weighted>
5.8431

> <Gold.Chemscore.Internal.Correction.Weighted>
   9.000000E+99

> <Gold.Protein.RotatedTorsions>
[ 6907 6896 6895 6894 ] final  150.30 input  -60.11 | X-H torsion
[ 7974 7965 7964 7962 ] final   -3.48 input  175.53 | X-H torsion
[ 8008 7997 7996 7995 ] final   63.19 input   59.86 | X-H torsion
[ 10167 10162 10161 10158 ] final  135.10 input  -65.29 | X-H torsion
[ 10718 10713 10712 10709 ] final  112.14 input   66.30 | X-H torsion
[ 10763 10752 10751 10750 ] final  175.15 input  -60.55 | X-H torsion
[ 11005 11000 10999 10996 ] final -168.09 input  -57.11 | X-H torsion

> <Gold.Protein.ActiveResidues>
 VAL166  LYS551  ARG553  GLY616  TRP617  ASP618  TYR619  PRO620  LYS621  CYS622 
 ASP623  PHE694  ASN695  SER759  ASP760  ASP761  ALA762  ILE779  LEU786  VAL792 
 PHE793  MET794  SER795  GLU796  ALA797  LYS798  CYS799  TRP800  GLU811  SER814 

> <Gold.Protein.RotatedAtoms>
  152.1163  133.4328  159.4654 H   0  0  0  0  0  0  0  0  0  0  0  0  # atno 6907 bound_to 6896
  150.6869  134.2589  159.4550 H   0  0  0  0  0  0  0  0  0  0  0  0  # atno 6908 bound_to 6896
  152.0462  134.9681  160.0625 H   0  0  0  0  0  0  0  0  0  0  0  0  # atno 6909 bound_to 6896
  146.2389  140.1727  142.8332 H   0  0  0  0  0  0  0  0  0  0  0  0  # atno 7974 bound_to 7965
  155.6263  140.3496  155.4668 H   0  0  0  0  0  0  0  0  0  0  0  0  # atno 8008 bound_to 7997
  156.0039  140.1219  157.0544 H   0  0  0  0  0  0  0  0  0  0  0  0  # atno 8009 bound_to 7997
  154.4258  140.1095  156.5721 H   0  0  0  0  0  0  0  0  0  0  0  0  # atno 8010 bound_to 7997
  139.5230  144.6534  151.5234 H   0  0  0  0  0  0  0  0  0  0  0  0  # atno 10167 bound_to 10162
  157.6408  131.0962  150.6852 H   0  0  0  0  0  0  0  0  0  0  0  0  # atno 10718 bound_to 10713
  154.4636  135.2768  155.1694 H   0  0  0  0  0  0  0  0  0  0  0  0  # atno 10763 bound_to 10752
  154.3472  135.6157  153.5628 H   0  0  0  0  0  0  0  0  0  0  0  0  # atno 10764 bound_to 10752
  152.9857  135.5802  154.5004 H   0  0  0  0  0  0  0  0  0  0  0  0  # atno 10765 bound_to 10752
  140.5459  134.5476  157.5111 H   0  0  0  0  0  0  0  0  0  0  0  0  # atno 11005 bound_to 11000
  144.9998  140.8622  143.5288 LP  0  0  0  0  0  0  0  0  0  0  0  0  # atno 17320 bound_to 7965
  145.1745  139.2386  143.5324 LP  0  0  0  0  0  0  0  0  0  0  0  0  # atno 17321 bound_to 7965
  140.6349  143.9004  150.6638 LP  0  0  0  0  0  0  0  0  0  0  0  0  # atno 17342 bound_to 10162
  140.2319  143.3729  152.1558 LP  0  0  0  0  0  0  0  0  0  0  0  0  # atno 17343 bound_to 10162
  156.7176  130.4670  149.5531 LP  0  0  0  0  0  0  0  0  0  0  0  0  # atno 17370 bound_to 10713
  156.1687  130.6423  151.0811 LP  0  0  0  0  0  0  0  0  0  0  0  0  # atno 17371 bound_to 10713
  139.9480  134.7668  156.0516 LP  0  0  0  0  0  0  0  0  0  0  0  0  # atno 17394 bound_to 11000
  141.1200  133.6616  156.3190 LP  0  0  0  0  0  0  0  0  0  0  0  0  # atno 17395 bound_to 11000

$$$$
