AV-unprocessed.smi:1667|AV-procd|sdf|6675|dock3
  -GOLD-   22720 7393D 1   1.00000     0.00000
 Structure written by MMmdl.
 45 47  0  0  0  0  0  0  0  0  1 V2000
  150.5925  135.3040  156.8656 C   0  0  0  0  0  0  0  0  0  0  0  0
  151.1368  136.4010  155.9568 C   0  0  0  0  0  0  0  0  0  0  0  0
  151.5232  136.1210  154.8227 O   0  0  0  0  0  0  0  0  0  0  0  0
  151.1684  137.6417  156.4660 N   0  0  0  0  0  0  0  0  0  0  0  0
  151.6893  138.8251  155.7840 C   0  0  1  0  0  0  0  0  0  0  0  0
  150.7648  139.2495  154.6326 C   0  0  0  0  0  0  0  0  0  0  0  0
  151.8511  139.9226  156.8060 C   0  0  0  0  0  0  0  0  0  0  0  0
  151.3403  141.1431  156.6175 N   0  0  0  0  0  0  0  0  0  0  0  0
  151.7551  141.8302  157.7390 C   0  0  0  0  0  0  0  0  0  0  0  0
  151.5342  143.1715  158.1258 C   0  0  0  0  0  0  0  0  0  0  0  0
  152.0754  143.6651  159.3309 C   0  0  0  0  0  0  0  0  0  0  0  0
  152.8453  142.8268  160.1621 C   0  0  0  0  0  0  0  0  0  0  0  0
  153.0766  141.4876  159.7942 C   0  0  0  0  0  0  0  0  0  0  0  0
  152.5291  140.9966  158.5930 C   0  0  0  0  0  0  0  0  0  0  0  0
  152.5612  139.7583  157.9551 N   0  0  0  0  0  0  0  0  0  0  0  0
  153.2478  138.5640  158.4429 C   0  0  0  0  0  0  0  0  0  0  0  0
  152.7367  138.0550  159.8122 C   0  0  1  0  0  0  0  0  0  0  0  0
  151.6418  137.1781  159.6346 O   0  0  0  0  0  0  0  0  0  0  0  0
  153.8333  137.4509  160.6806 C   0  0  0  0  0  0  0  0  0  0  0  0
  155.0614  137.0361  160.1170 C   0  0  0  0  0  0  0  0  0  0  0  0
  156.0649  136.4767  160.9314 C   0  0  0  0  0  0  0  0  0  0  0  0
  155.8477  136.3271  162.3141 C   0  0  0  0  0  0  0  0  0  0  0  0
  154.6290  136.7434  162.8831 C   0  0  0  0  0  0  0  0  0  0  0  0
  154.4223  136.6067  164.2140 F   0  0  0  0  0  0  0  0  0  0  0  0
  153.6255  137.3038  162.0689 C   0  0  0  0  0  0  0  0  0  0  0  0
  152.6631  138.5653  155.3734 H   0  0  0  0  0  0  0  0  0  0  0  0
  150.5365  135.6360  157.9030 H   0  0  0  0  0  0  0  0  0  0  0  0
  151.2388  134.4268  156.8246 H   0  0  0  0  0  0  0  0  0  0  0  0
  149.5935  135.0100  156.5435 H   0  0  0  0  0  0  0  0  0  0  0  0
  150.8283  137.7797  157.4070 H   0  0  0  0  0  0  0  0  0  0  0  0
  151.1579  140.1297  154.1233 H   0  0  0  0  0  0  0  0  0  0  0  0
  149.7654  139.4933  154.9943 H   0  0  0  0  0  0  0  0  0  0  0  0
  150.6667  138.4573  153.8898 H   0  0  0  0  0  0  0  0  0  0  0  0
  150.9494  143.8226  157.4932 H   0  0  0  0  0  0  0  0  0  0  0  0
  151.9008  144.6920  159.6174 H   0  0  0  0  0  0  0  0  0  0  0  0
  153.2584  143.2120  161.0828 H   0  0  0  0  0  0  0  0  0  0  0  0
  153.6657  140.8444  160.4305 H   0  0  0  0  0  0  0  0  0  0  0  0
  153.1899  137.7750  157.6941 H   0  0  0  0  0  0  0  0  0  0  0  0
  154.3095  138.8010  158.5212 H   0  0  0  0  0  0  0  0  0  0  0  0
  152.3354  138.9140  160.3514 H   0  0  0  0  0  0  0  0  0  0  0  0
  151.1195  137.4944  158.9133 H   0  0  0  0  0  0  0  0  0  0  0  0
  155.2424  137.1520  159.0583 H   0  0  0  0  0  0  0  0  0  0  0  0
  157.0027  136.1650  160.4956 H   0  0  0  0  0  0  0  0  0  0  0  0
  156.6183  135.9007  162.9395 H   0  0  0  0  0  0  0  0  0  0  0  0
  152.6948  137.6216  162.5153 H   0  0  0  0  0  0  0  0  0  0  0  0
  1  2  1  0  0  0  0
  1 27  1  0  0  0  0
  1 28  1  0  0  0  0
  1 29  1  0  0  0  0
  2  3  2  0  0  0  0
  2  4  1  0  0  0  0
  4  5  1  0  0  0  0
  4 30  1  0  0  0  0
  5 26  1  0  0  0  0
  5  6  1  0  0  0  0
  5  7  1  0  0  0  0
  6 31  1  0  0  0  0
  6 32  1  0  0  0  0
  6 33  1  0  0  0  0
  7 15  1  0  0  0  0
  7  8  2  0  0  0  0
  8  9  1  0  0  0  0
  9 14  2  0  0  0  0
  9 10  1  0  0  0  0
 10 11  2  0  0  0  0
 10 34  1  0  0  0  0
 11 12  1  0  0  0  0
 11 35  1  0  0  0  0
 12 13  2  0  0  0  0
 12 36  1  0  0  0  0
 13 14  1  0  0  0  0
 13 37  1  0  0  0  0
 14 15  1  0  0  0  0
 15 16  1  0  0  0  0
 16 17  1  0  0  0  0
 16 38  1  0  0  0  0
 16 39  1  0  0  0  0
 17 18  1  0  0  0  0
 17 19  1  0  0  0  0
 17 40  1  0  0  0  0
 18 41  1  0  0  0  0
 19 25  1  0  0  0  0
 19 20  2  0  0  0  0
 20 21  1  0  0  0  0
 20 42  1  0  0  0  0
 21 22  2  0  0  0  0
 21 43  1  0  0  0  0
 22 23  1  0  0  0  0
 22 44  1  0  0  0  0
 23 24  1  0  0  0  0
 23 25  2  0  0  0  0
 25 45  1  0  0  0  0
M  END
> <s_m_source_file>
AV-unprocessed.smi

> <i_m_source_file_index>
1667

> <i_lp_mmshare_version>
43012

> <i_f3d_flags>
0

> <s_epik_input>
W0NIM11DKD1PKVtOSF1bQ0BASF0oW0NIM10pYyhuMSluKGMoYzEyKVtjSF1bY0hdW2NIXVtjSF0yKVtDSDJdW0NASF0oW09IXSljM1tjSF1bY0hdW2NIXWMoRilbY0hdMw==

> <s_epik_cmdline>
J2VwaWtfcHl0aG9uJywgJy1waCcsICc3LjAnLCAnLXRuJywgJzgnLCAnLW1hJywgJzIwMCcsICctbWV0YWxfYmluZGluZycsICctaW1hZScsICc8aW5maWxlLm1hZT4nLCAnLW9tYWUnLCAnPG91dGZpbGUubWFlPic=

> <r_epik_Ionization_Penalty>
0.133011

> <r_epik_Ionization_Penalty_Charging>
0

> <r_epik_Ionization_Penalty_Neutral>
0.133011

> <r_epik_State_Penalty>
0.122384

> <r_epik_Charging_Adjusted_Penalty>
0.122384

> <i_epik_Tot_Q>
0

> <i_epik_Tot_abs_Q>
0

> <r_epik_Metal_State_Penalty>
0.0997374

> <b_epik_Metal_Only>
0

> <s_lp_Force_Field>
OPLS_2005

> <r_lp_Energy>
5.5788

> <b_lp_Chiralities_Consistent>
1

> <s_lp_Variant>
AV-unprocessed.smi:1667-3

> <Gold.Version>
5.8.1

> <Gold.Id.Protein>
6NUR|6NUR_protein|mol2

> <Gold.PLP.Fitness>
49.8862

> <Gold.PLP.PLP>
-45.7930

> <Gold.PLP.part.hbond>
-2.0000

> <Gold.PLP.part.metal>
0.0000

> <Gold.PLP.part.buried>
-4.9278

> <Gold.PLP.part.nonpolar>
-38.8610

> <Gold.PLP.part.repulsive>
0.2255

> <Gold.PLP.ligand.clash>
0.0000

> <Gold.PLP.ligand.torsion>
0.9936

> <Gold.PLP.Chemscore.Hbond>
1.9913

> <Gold.PLP.Chemscore.CHOScore>
0.0000

> <Gold.PLP.Chemscore.Metal>
0.0000

> <Gold.Chemscore.Hbonds>
donor molecule, donor type, donor heavy atom, donor atom, acceptor molecule, acceptor atom, score
      P1  H  6896  6908       L1    18  0.94
      P1  H 10752 10763       L1     3  0.98

> <Gold.PLP.Chemscore.Internal.Correction>
0.1067

> <Gold.Rescore>
     Score         DG    S(hbond)    S(metal)    S(lipo)     H(rot)  DE(clash)    DE(int)     intcor
     18.53     -19.48       1.97        0.00     117.51       2.48       0.04       0.90       ----

> <Gold.Chemscore.Fitness>
18.5348

> <Gold.Chemscore.DG>
-19.4752

> <Gold.Chemscore.ZeroCoef>
-5.4800

> <Gold.Chemscore.Hbond>
1.9716

> <Gold.Chemscore.Metal>
0.0000

> <Gold.Chemscore.Lipo>
117.5084

> <Gold.Chemscore.Internal_Hbond>
0.0000

> <Gold.Chemscore.DEClash>
0.0371

> <Gold.Chemscore.DEInternal>
0.9032

> <Gold.Chemscore.Rot>
2.4760

> <Gold.Chemscore.Internal.Correction>
   9.000000E+99

> <Gold.Chemscore.Hbonds>
donor molecule, donor type, donor heavy atom, donor atom, acceptor molecule, acceptor atom, score
      P1  H  6896  6908       L1    18  0.74
      P1  H 10752 10763       L1     3  0.90

> <Gold.Chemscore.Hbond.Weighted>
-6.5852

> <Gold.Chemscore.Metal.Weighted>
-0.0000

> <Gold.Chemscore.Lipo.Weighted>
-13.7485

> <Gold.Chemscore.Internal_Hbond.Weighted>
0.0000

> <Gold.Chemscore.DEClash.Weighted>
0.0371

> <Gold.Chemscore.DEInternal.Weighted>
0.9032

> <Gold.Chemscore.Rot.Weighted>
6.3385

> <Gold.Chemscore.Internal.Correction.Weighted>
   9.000000E+99

> <Gold.Protein.RotatedTorsions>
[ 6907 6896 6895 6894 ] final -131.10 input  -60.11 | X-H torsion
[ 7974 7965 7964 7962 ] final   66.86 input  175.53 | X-H torsion
[ 8008 7997 7996 7995 ] final  179.18 input   59.86 | X-H torsion
[ 10167 10162 10161 10158 ] final -168.33 input  -65.29 | X-H torsion
[ 10718 10713 10712 10709 ] final   67.80 input   66.30 | X-H torsion
[ 10763 10752 10751 10750 ] final   57.97 input  -60.55 | X-H torsion
[ 11005 11000 10999 10996 ] final   57.94 input  -57.11 | X-H torsion

> <Gold.Protein.ActiveResidues>
 VAL166  LYS551  ARG553  GLY616  TRP617  ASP618  TYR619  PRO620  LYS621  CYS622 
 ASP623  PHE694  ASN695  SER759  ASP760  ASP761  ALA762  ILE779  LEU786  VAL792 
 PHE793  MET794  SER795  GLU796  ALA797  LYS798  CYS799  TRP800  GLU811  SER814 

> <Gold.Protein.RotatedAtoms>
  150.9471  133.6591  159.2778 H   0  0  0  0  0  0  0  0  0  0  0  0  # atno 6907 bound_to 6896
  151.3960  135.0962  159.9550 H   0  0  0  0  0  0  0  0  0  0  0  0  # atno 6908 bound_to 6896
  152.5094  133.8975  159.7479 H   0  0  0  0  0  0  0  0  0  0  0  0  # atno 6909 bound_to 6896
  145.8215  139.3087  143.1040 H   0  0  0  0  0  0  0  0  0  0  0  0  # atno 7974 bound_to 7965
  156.0463  140.1315  157.0100 H   0  0  0  0  0  0  0  0  0  0  0  0  # atno 8008 bound_to 7997
  154.4414  140.1020  156.6380 H   0  0  0  0  0  0  0  0  0  0  0  0  # atno 8009 bound_to 7997
  155.5592  140.3464  155.4489 H   0  0  0  0  0  0  0  0  0  0  0  0  # atno 8010 bound_to 7997
  139.5992  144.1047  152.1723 H   0  0  0  0  0  0  0  0  0  0  0  0  # atno 10167 bound_to 10162
  157.6252  130.9340  150.0291 H   0  0  0  0  0  0  0  0  0  0  0  0  # atno 10718 bound_to 10713
  152.9861  135.5623  154.5477 H   0  0  0  0  0  0  0  0  0  0  0  0  # atno 10763 bound_to 10752
  154.4919  135.2793  155.1491 H   0  0  0  0  0  0  0  0  0  0  0  0  # atno 10764 bound_to 10752
  154.2957  135.6317  153.5457 H   0  0  0  0  0  0  0  0  0  0  0  0  # atno 10765 bound_to 10752
  140.0414  134.5867  155.9376 H   0  0  0  0  0  0  0  0  0  0  0  0  # atno 11005 bound_to 11000
  145.9670  140.8791  143.0182 LP  0  0  0  0  0  0  0  0  0  0  0  0  # atno 17320 bound_to 7965
  144.6747  140.1892  143.7398 LP  0  0  0  0  0  0  0  0  0  0  0  0  # atno 17321 bound_to 7965
  140.0639  144.5834  150.7242 LP  0  0  0  0  0  0  0  0  0  0  0  0  # atno 17342 bound_to 10162
  140.7236  143.2613  151.4196 LP  0  0  0  0  0  0  0  0  0  0  0  0  # atno 17343 bound_to 10162
  156.1420  130.3642  149.9568 LP  0  0  0  0  0  0  0  0  0  0  0  0  # atno 17370 bound_to 10713
  156.7607  130.9150  151.3641 LP  0  0  0  0  0  0  0  0  0  0  0  0  # atno 17371 bound_to 10713
  141.1885  133.6562  156.5327 LP  0  0  0  0  0  0  0  0  0  0  0  0  # atno 17394 bound_to 11000
  140.4062  134.7312  157.4809 LP  0  0  0  0  0  0  0  0  0  0  0  0  # atno 17395 bound_to 11000

$$$$
