AV-unprocessed.smi:2675|AV-procd|sdf|10361|dock5
  -GOLD-   2272014383D 1   1.00000     0.00000
 Structure written by MMmdl.
 37 38  0  0  0  0  0  0  0  0  2 V2000
  151.8634  145.7829  159.8504 C   0  0  0  0  0  0  0  0  0  0  0  0
  151.3951  144.4906  159.2694 C   0  0  0  0  0  0  0  0  0  0  0  0
  150.3226  144.4306  158.4195 N   0  3  0  0  0  0  0  0  0  0  0  0
  150.0958  143.1738  158.0369 C   0  0  0  0  0  0  0  0  0  0  0  0
  151.0201  142.4144  158.6358 N   0  0  0  0  0  0  0  0  0  0  0  0
  151.0632  140.9576  158.4451 C   0  0  0  0  0  0  0  0  0  0  0  0
  151.2546  140.5990  156.9713 C   0  0  0  0  0  0  0  0  0  0  0  0
  151.5083  141.4848  156.1573 O   0  0  0  0  0  0  0  0  0  0  0  0
  151.1331  139.2977  156.6550 N   0  0  0  0  0  0  0  0  0  0  0  0
  151.3095  138.6565  155.3451 C   0  0  2  0  0  0  0  0  0  0  0  0
  151.1494  137.1464  155.5878 C   0  0  0  0  0  0  0  0  0  0  0  0
  152.6657  138.8801  154.8064 C   0  0  0  0  0  0  0  0  0  0  0  0
  153.7284  139.0578  154.3837 N   0  0  0  0  0  0  0  0  0  0  0  0
  150.3078  139.0826  154.2699 C   0  0  0  0  0  0  0  0  0  0  0  0
  149.3752  140.2669  154.3990 C   0  0  0  0  0  0  0  0  0  0  0  0
  148.8194  138.8603  154.4192 C   0  0  0  0  0  0  0  0  0  0  0  0
  151.8475  143.1977  159.4112 C   0  0  0  0  0  0  0  0  0  0  0  0
  152.9817  142.6402  160.2101 C   0  0  0  0  0  0  0  0  0  0  0  0
  152.7081  145.6249  160.5201 H   0  0  0  0  0  0  0  0  0  0  0  0
  151.0592  146.2545  160.4156 H   0  0  0  0  0  0  0  0  0  0  0  0
  152.1754  146.4614  159.0560 H   0  0  0  0  0  0  0  0  0  0  0  0
  149.3158  142.8387  157.3766 H   0  0  0  0  0  0  0  0  0  0  0  0
  151.8737  140.5466  159.0494 H   0  0  0  0  0  0  0  0  0  0  0  0
  150.1350  140.5266  158.8216 H   0  0  0  0  0  0  0  0  0  0  0  0
  150.9067  138.6695  157.4118 H   0  0  0  0  0  0  0  0  0  0  0  0
  151.3008  136.5794  154.6685 H   0  0  0  0  0  0  0  0  0  0  0  0
  150.1529  136.9064  155.9609 H   0  0  0  0  0  0  0  0  0  0  0  0
  151.8741  136.7816  156.3172 H   0  0  0  0  0  0  0  0  0  0  0  0
  150.6957  138.9313  153.2637 H   0  0  0  0  0  0  0  0  0  0  0  0
  149.3480  140.8233  155.3315 H   0  0  0  0  0  0  0  0  0  0  0  0
  149.1983  140.8613  153.5048 H   0  0  0  0  0  0  0  0  0  0  0  0
  148.2739  138.5220  153.5406 H   0  0  0  0  0  0  0  0  0  0  0  0
  148.4451  138.4853  155.3695 H   0  0  0  0  0  0  0  0  0  0  0  0
  153.5142  143.4341  160.7328 H   0  0  0  0  0  0  0  0  0  0  0  0
  153.6891  142.1269  159.5585 H   0  0  0  0  0  0  0  0  0  0  0  0
  152.6114  141.9333  160.9525 H   0  0  0  0  0  0  0  0  0  0  0  0
  149.7752  145.2287  158.1225 H   0  0  0  0  0  0  0  0  0  0  0  0
  1  2  1  0  0  0  0
  1 19  1  0  0  0  0
  1 20  1  0  0  0  0
  1 21  1  0  0  0  0
  2 17  2  0  0  0  0
  2  3  1  0  0  0  0
  3  4  2  0  0  0  0
  3 37  1  0  0  0  0
  4  5  1  0  0  0  0
  4 22  1  0  0  0  0
  5  6  1  0  0  0  0
  5 17  1  0  0  0  0
  6  7  1  0  0  0  0
  6 23  1  0  0  0  0
  6 24  1  0  0  0  0
  7  8  2  0  0  0  0
  7  9  1  0  0  0  0
  9 10  1  0  0  0  0
  9 25  1  0  0  0  0
 10 11  1  0  0  0  0
 10 12  1  0  0  0  0
 10 14  1  0  0  0  0
 11 26  1  0  0  0  0
 11 27  1  0  0  0  0
 11 28  1  0  0  0  0
 12 13  3  0  0  0  0
 14 16  1  0  0  0  0
 14 15  1  0  0  0  0
 14 29  1  0  0  0  0
 15 16  1  0  0  0  0
 15 30  1  0  0  0  0
 15 31  1  0  0  0  0
 16 32  1  0  0  0  0
 16 33  1  0  0  0  0
 17 18  1  0  0  0  0
 18 34  1  0  0  0  0
 18 35  1  0  0  0  0
 18 36  1  0  0  0  0
M  CHG  1   3   1
M  END
> <s_m_source_file>
AV-unprocessed.smi

> <i_m_source_file_index>
2675

> <i_lp_mmshare_version>
43012

> <i_f3d_flags>
0

> <s_epik_input>
W0NIM11jMW5bY0hdbihjMVtDSDNdKVtDSDJdQyg9TylbTkhdW0NAQF0oW0NIM10pKEMjTilbQ0hdMltDSDJdW0NIMl0y

> <s_epik_cmdline>
J2VwaWtfcHl0aG9uJywgJy1waCcsICc3LjAnLCAnLXRuJywgJzgnLCAnLW1hJywgJzIwMCcsICctbWV0YWxfYmluZGluZycsICctaW1hZScsICc8aW5maWxlLm1hZT4nLCAnLW9tYWUnLCAnPG91dGZpbGUubWFlPic=

> <r_lp_tautomer_probability>
1

> <r_epik_Ionization_Penalty>
0.153253

> <r_epik_Ionization_Penalty_Charging>
0

> <r_epik_Ionization_Penalty_Neutral>
0.153253

> <r_epik_State_Penalty>
0.14254

> <r_epik_Charging_Adjusted_Penalty>
0.14254

> <i_epik_Tot_Q>
1

> <i_epik_Tot_abs_Q>
1

> <r_epik_Metal_State_Penalty>
0.466899

> <b_epik_Metal_Only>
0

> <s_lp_Force_Field>
OPLS_2005

> <r_lp_Energy>
18.2942

> <b_lp_Chiralities_Consistent>
1

> <s_lp_Variant>
AV-unprocessed.smi:2675-2

> <Gold.Version>
5.8.1

> <Gold.Id.Protein>
6NUR|6NUR_protein|mol2

> <Gold.PLP.Fitness>
45.4683

> <Gold.PLP.PLP>
-36.1984

> <Gold.PLP.part.hbond>
-3.0000

> <Gold.PLP.part.metal>
0.0000

> <Gold.PLP.part.buried>
-0.3853

> <Gold.PLP.part.nonpolar>
-33.4484

> <Gold.PLP.part.repulsive>
0.2309

> <Gold.PLP.ligand.clash>
0.0000

> <Gold.PLP.ligand.torsion>
1.1487

> <Gold.PLP.Chemscore.Hbond>
2.9825

> <Gold.PLP.Chemscore.CHOScore>
0.3745

> <Gold.PLP.Chemscore.Metal>
0.0000

> <Gold.Chemscore.Hbonds>
donor molecule, donor type, donor heavy atom, donor atom, acceptor molecule, acceptor atom, score
      L1  H     3    37       P1  8029  1.28
      P1  H  7997  8008       L1    13  1.00
      L1  C     4    22       P1  8028  0.49

> <Gold.PLP.Chemscore.Internal.Correction>
1.4962

> <Gold.Rescore>
     Score         DG    S(hbond)    S(metal)    S(lipo)     H(rot)  DE(clash)    DE(int)     intcor
     12.18     -15.59       1.72        0.00      76.62       1.80       0.04       3.37       ----

> <Gold.Chemscore.Fitness>
12.1848

> <Gold.Chemscore.DG>
-15.5930

> <Gold.Chemscore.ZeroCoef>
-5.4800

> <Gold.Chemscore.Hbond>
1.7201

> <Gold.Chemscore.Metal>
0.0000

> <Gold.Chemscore.Lipo>
76.6197

> <Gold.Chemscore.Internal_Hbond>
0.0000

> <Gold.Chemscore.DEClash>
0.0410

> <Gold.Chemscore.DEInternal>
3.3672

> <Gold.Chemscore.Rot>
1.7955

> <Gold.Chemscore.Internal.Correction>
   9.000000E+99

> <Gold.Chemscore.Hbonds>
donor molecule, donor type, donor heavy atom, donor atom, acceptor molecule, acceptor atom, score
      L1  H     3    37       P1  8029  0.16
      P1  H  7997  8008       L1    13  0.49

> <Gold.Chemscore.Hbond.Weighted>
-5.7450

> <Gold.Chemscore.Metal.Weighted>
-0.0000

> <Gold.Chemscore.Lipo.Weighted>
-8.9645

> <Gold.Chemscore.Internal_Hbond.Weighted>
0.0000

> <Gold.Chemscore.DEClash.Weighted>
0.0410

> <Gold.Chemscore.DEInternal.Weighted>
3.3672

> <Gold.Chemscore.Rot.Weighted>
4.5965

> <Gold.Chemscore.Internal.Correction.Weighted>
   9.000000E+99

> <Gold.Protein.RotatedTorsions>
[ 6907 6896 6895 6894 ] final  113.08 input  -60.11 | X-H torsion
[ 7974 7965 7964 7962 ] final  132.30 input  175.53 | X-H torsion
[ 8008 7997 7996 7995 ] final   -3.32 input   59.86 | X-H torsion
[ 10167 10162 10161 10158 ] final  162.33 input  -65.29 | X-H torsion
[ 10718 10713 10712 10709 ] final   38.18 input   66.30 | X-H torsion
[ 10763 10752 10751 10750 ] final  -78.63 input  -60.55 | X-H torsion
[ 11005 11000 10999 10996 ] final  -50.06 input  -57.11 | X-H torsion

> <Gold.Protein.ActiveResidues>
 VAL166  LYS551  ARG553  GLY616  TRP617  ASP618  TYR619  PRO620  LYS621  CYS622 
 ASP623  PHE694  ASN695  SER759  ASP760  ASP761  ALA762  ILE779  LEU786  VAL792 
 PHE793  MET794  SER795  GLU796  ALA797  LYS798  CYS799  TRP800  GLU811  SER814 

> <Gold.Protein.RotatedAtoms>
  152.4880  133.8425  159.7159 H   0  0  0  0  0  0  0  0  0  0  0  0  # atno 6907 bound_to 6896
  150.8984  133.7141  159.2892 H   0  0  0  0  0  0  0  0  0  0  0  0  # atno 6908 bound_to 6896
  151.4590  135.1040  159.9771 H   0  0  0  0  0  0  0  0  0  0  0  0  # atno 6909 bound_to 6896
  144.9982  139.4338  143.5305 H   0  0  0  0  0  0  0  0  0  0  0  0  # atno 7974 bound_to 7965
  154.6262  140.2512  155.7489 H   0  0  0  0  0  0  0  0  0  0  0  0  # atno 8008 bound_to 7997
  156.2454  140.2916  156.0512 H   0  0  0  0  0  0  0  0  0  0  0  0  # atno 8009 bound_to 7997
  155.1818  140.0389  157.2874 H   0  0  0  0  0  0  0  0  0  0  0  0  # atno 8010 bound_to 7997
  139.4859  144.4448  151.8905 H   0  0  0  0  0  0  0  0  0  0  0  0  # atno 10167 bound_to 10162
  157.3557  130.7622  149.7011 H   0  0  0  0  0  0  0  0  0  0  0  0  # atno 10718 bound_to 10713
  154.5283  135.5723  153.6738 H   0  0  0  0  0  0  0  0  0  0  0  0  # atno 10763 bound_to 10752
  152.9933  135.6198  154.2663 H   0  0  0  0  0  0  0  0  0  0  0  0  # atno 10764 bound_to 10752
  154.2588  135.2857  155.2766 H   0  0  0  0  0  0  0  0  0  0  0  0  # atno 10765 bound_to 10752
  141.0795  133.6657  156.3676 H   0  0  0  0  0  0  0  0  0  0  0  0  # atno 11005 bound_to 11000
  146.3446  139.9355  142.8748 LP  0  0  0  0  0  0  0  0  0  0  0  0  # atno 17320 bound_to 7965
  145.2190  140.9927  143.4057 LP  0  0  0  0  0  0  0  0  0  0  0  0  # atno 17321 bound_to 7965
  140.3902  144.2625  150.5900 LP  0  0  0  0  0  0  0  0  0  0  0  0  # atno 17342 bound_to 10162
  140.5153  143.2280  151.8473 LP  0  0  0  0  0  0  0  0  0  0  0  0  # atno 17343 bound_to 10162
  155.9729  130.4128  150.4049 LP  0  0  0  0  0  0  0  0  0  0  0  0  # atno 17370 bound_to 10713
  157.2119  131.0462  151.2594 LP  0  0  0  0  0  0  0  0  0  0  0  0  # atno 17371 bound_to 10713
  140.5500  134.6037  157.5405 LP  0  0  0  0  0  0  0  0  0  0  0  0  # atno 17394 bound_to 11000
  139.9608  134.7456  156.0241 LP  0  0  0  0  0  0  0  0  0  0  0  0  # atno 17395 bound_to 11000

$$$$
