AV-unprocessed.smi:3314|AV-procd|sdf|12734|dock4
  -GOLD-   2272019 83D 1   1.00000     0.00000
 Structure written by MMmdl.
 38 39  0  0  0  0  0  0  0  0  2 V2000
  152.0831  145.9213  159.7466 C   0  0  0  0  0  0  0  0  0  0  0  0
  152.0836  144.4850  159.2671 C   0  0  0  0  0  0  0  0  0  0  0  0
  152.8391  143.5011  159.9334 C   0  0  0  0  0  0  0  0  0  0  0  0
  152.7996  142.1834  159.4374 C   0  0  0  0  0  0  0  0  0  0  0  0
  153.5857  141.0764  160.1081 C   0  0  0  0  0  0  0  0  0  0  0  0
  152.0715  141.8237  158.3585 N   0  0  0  0  0  0  0  0  0  0  0  0
  151.3409  142.7630  157.7087 C   0  0  0  0  0  0  0  0  0  0  0  0
  150.5445  142.4887  156.5658 N   0  0  0  0  0  0  0  0  0  0  0  0
  150.1383  141.2929  156.0961 C   0  0  0  0  0  0  0  0  0  0  0  0
  150.4358  140.2110  156.6040 O   0  0  0  0  0  0  0  0  0  0  0  0
  149.2719  141.3253  154.8272 C   0  0  1  0  0  0  0  0  0  0  0  0
  148.7101  139.9324  154.4561 C   0  0  0  0  0  0  0  0  0  0  0  0
  147.8235  140.0239  153.2733 N   0  3  1  0  0  0  0  0  0  0  0  0
  147.2888  138.7091  152.8595 C   0  0  0  0  0  0  0  0  0  0  0  0
  146.7602  141.0311  153.4851 C   0  0  0  0  0  0  0  0  0  0  0  0
  147.3792  142.3837  153.8703 C   0  0  0  0  0  0  0  0  0  0  0  0
  148.1824  142.2242  155.0328 O   0  0  0  0  0  0  0  0  0  0  0  0
  151.3263  144.1084  158.1396 C   0  0  0  0  0  0  0  0  0  0  0  0
  152.5649  146.0134  160.7205 H   0  0  0  0  0  0  0  0  0  0  0  0
  151.0613  146.2912  159.8371 H   0  0  0  0  0  0  0  0  0  0  0  0
  152.6175  146.5551  159.0386 H   0  0  0  0  0  0  0  0  0  0  0  0
  153.4328  143.7491  160.8012 H   0  0  0  0  0  0  0  0  0  0  0  0
  154.3566  141.4836  160.7629 H   0  0  0  0  0  0  0  0  0  0  0  0
  154.0734  140.4450  159.3645 H   0  0  0  0  0  0  0  0  0  0  0  0
  152.9215  140.4526  160.7064 H   0  0  0  0  0  0  0  0  0  0  0  0
  150.2355  143.2986  156.0483 H   0  0  0  0  0  0  0  0  0  0  0  0
  149.8973  141.7000  154.0151 H   0  0  0  0  0  0  0  0  0  0  0  0
  149.5253  139.2422  154.2338 H   0  0  0  0  0  0  0  0  0  0  0  0
  148.1525  139.5118  155.2953 H   0  0  0  0  0  0  0  0  0  0  0  0
  146.6585  138.2792  153.6391 H   0  0  0  0  0  0  0  0  0  0  0  0
  148.1011  138.0116  152.6529 H   0  0  0  0  0  0  0  0  0  0  0  0
  146.6928  138.8050  151.9514 H   0  0  0  0  0  0  0  0  0  0  0  0
  146.1676  141.1386  152.5757 H   0  0  0  0  0  0  0  0  0  0  0  0
  146.0841  140.6920  154.2717 H   0  0  0  0  0  0  0  0  0  0  0  0
  147.9770  142.7884  153.0519 H   0  0  0  0  0  0  0  0  0  0  0  0
  146.5939  143.1099  154.0809 H   0  0  0  0  0  0  0  0  0  0  0  0
  150.7403  144.8478  157.6128 H   0  0  0  0  0  0  0  0  0  0  0  0
  148.3930  140.3587  152.5092 H   0  0  0  0  0  0  0  0  0  0  0  0
  1  2  1  0  0  0  0
  1 19  1  0  0  0  0
  1 20  1  0  0  0  0
  1 21  1  0  0  0  0
  2 18  1  0  0  0  0
  2  3  2  0  0  0  0
  3  4  1  0  0  0  0
  3 22  1  0  0  0  0
  4  5  1  0  0  0  0
  4  6  2  0  0  0  0
  5 23  1  0  0  0  0
  5 24  1  0  0  0  0
  5 25  1  0  0  0  0
  6  7  1  0  0  0  0
  7  8  1  0  0  0  0
  7 18  2  0  0  0  0
  8  9  1  0  0  0  0
  8 26  1  0  0  0  0
  9 10  2  0  0  0  0
  9 11  1  0  0  0  0
 11 17  1  0  0  0  0
 11 12  1  0  0  0  0
 11 27  1  0  0  0  0
 12 13  1  0  0  0  0
 12 28  1  0  0  0  0
 12 29  1  0  0  0  0
 13 14  1  0  0  0  0
 13 15  1  0  0  0  0
 13 38  1  0  0  0  0
 14 30  1  0  0  0  0
 14 31  1  0  0  0  0
 14 32  1  0  0  0  0
 15 16  1  0  0  0  0
 15 33  1  0  0  0  0
 15 34  1  0  0  0  0
 16 17  1  0  0  0  0
 16 35  1  0  0  0  0
 16 36  1  0  0  0  0
 18 37  1  0  0  0  0
M  CHG  1  13   1
M  END
> <s_m_source_file>
AV-unprocessed.smi

> <i_m_source_file_index>
3314

> <i_lp_mmshare_version>
43012

> <i_f3d_flags>
0

> <s_epik_input>
W0NIM11jMVtjSF1jKFtDSDNdKW5jKFtjSF0xKVtOSF1DKD1PKVtDQEBIXTJbQ0gyXU4oW0NIM10pW0NIMl1bQ0gyXU8y

> <s_epik_cmdline>
J2VwaWtfcHl0aG9uJywgJy1waCcsICc3LjAnLCAnLXRuJywgJzgnLCAnLW1hJywgJzIwMCcsICctbWV0YWxfYmluZGluZycsICctaW1hZScsICc8aW5maWxlLm1hZT4nLCAnLW9tYWUnLCAnPG91dGZpbGUubWFlPic=

> <r_epik_Ionization_Penalty>
0.32442

> <r_epik_Ionization_Penalty_Charging>
0.314023

> <r_epik_Ionization_Penalty_Neutral>
0.0103972

> <r_epik_State_Penalty>
0.29453

> <r_epik_Charging_Adjusted_Penalty>
0.608553

> <i_epik_Tot_Q>
1

> <i_epik_Tot_abs_Q>
1

> <r_epik_Metal_State_Penalty>
0.286909

> <b_epik_Metal_Only>
0

> <s_lp_Force_Field>
OPLS_2005

> <r_lp_Energy>
16.6998

> <b_lp_Chiralities_Consistent>
1

> <s_lp_Variant>
AV-unprocessed.smi:3314-4

> <Gold.Version>
5.8.1

> <Gold.Id.Protein>
6NUR|6NUR_protein|mol2

> <Gold.PLP.Fitness>
44.9712

> <Gold.PLP.PLP>
-39.6786

> <Gold.PLP.part.hbond>
-2.0000

> <Gold.PLP.part.metal>
0.0000

> <Gold.PLP.part.buried>
-3.1228

> <Gold.PLP.part.nonpolar>
-37.8914

> <Gold.PLP.part.repulsive>
2.8287

> <Gold.PLP.ligand.clash>
0.0000

> <Gold.PLP.ligand.torsion>
0.1749

> <Gold.PLP.Chemscore.Hbond>
1.8800

> <Gold.PLP.Chemscore.CHOScore>
0.0000

> <Gold.PLP.Chemscore.Metal>
0.0000

> <Gold.Chemscore.Hbonds>
donor molecule, donor type, donor heavy atom, donor atom, acceptor molecule, acceptor atom, score
      L1  H     8    26       P1  8028  1.00
      L1  H    13    38       P1  7957  1.00

> <Gold.PLP.Chemscore.Internal.Correction>
0.0025

> <Gold.Rescore>
     Score         DG    S(hbond)    S(metal)    S(lipo)     H(rot)  DE(clash)    DE(int)     intcor
     18.45     -21.43       1.91        0.00     103.66       1.00       1.45       1.53       ----

> <Gold.Chemscore.Fitness>
18.4468

> <Gold.Chemscore.DG>
-21.4337

> <Gold.Chemscore.ZeroCoef>
-5.4800

> <Gold.Chemscore.Hbond>
1.9117

> <Gold.Chemscore.Metal>
0.0000

> <Gold.Chemscore.Lipo>
103.6627

> <Gold.Chemscore.Internal_Hbond>
0.0000

> <Gold.Chemscore.DEClash>
1.4539

> <Gold.Chemscore.DEInternal>
1.5329

> <Gold.Chemscore.Rot>
1.0000

> <Gold.Chemscore.Internal.Correction>
   9.000000E+99

> <Gold.Chemscore.Hbonds>
donor molecule, donor type, donor heavy atom, donor atom, acceptor molecule, acceptor atom, score
      L1  H     8    26       P1  8028  0.93
      L1  H    13    38       P1  7957  0.95

> <Gold.Chemscore.Hbond.Weighted>
-6.3852

> <Gold.Chemscore.Metal.Weighted>
-0.0000

> <Gold.Chemscore.Lipo.Weighted>
-12.1285

> <Gold.Chemscore.Internal_Hbond.Weighted>
0.0000

> <Gold.Chemscore.DEClash.Weighted>
1.4539

> <Gold.Chemscore.DEInternal.Weighted>
1.5329

> <Gold.Chemscore.Rot.Weighted>
2.5600

> <Gold.Chemscore.Internal.Correction.Weighted>
   9.000000E+99

> <Gold.Protein.RotatedTorsions>
[ 6907 6896 6895 6894 ] final   75.18 input  -60.11 | X-H torsion
[ 7974 7965 7964 7962 ] final  128.59 input  175.53 | X-H torsion
[ 8008 7997 7996 7995 ] final -103.97 input   59.86 | X-H torsion
[ 10167 10162 10161 10158 ] final -132.74 input  -65.29 | X-H torsion
[ 10718 10713 10712 10709 ] final  -66.70 input   66.30 | X-H torsion
[ 10763 10752 10751 10750 ] final   14.06 input  -60.55 | X-H torsion
[ 11005 11000 10999 10996 ] final   17.79 input  -57.11 | X-H torsion

> <Gold.Protein.ActiveResidues>
 VAL166  LYS551  ARG553  GLY616  TRP617  ASP618  TYR619  PRO620  LYS621  CYS622 
 ASP623  PHE694  ASN695  SER759  ASP760  ASP761  ALA762  ILE779  LEU786  VAL792 
 PHE793  MET794  SER795  GLU796  ALA797  LYS798  CYS799  TRP800  GLU811  SER814 

> <Gold.Protein.RotatedAtoms>
  152.5013  134.4159  159.9464 H   0  0  0  0  0  0  0  0  0  0  0  0  # atno 6907 bound_to 6896
  151.4130  133.3715  159.2754 H   0  0  0  0  0  0  0  0  0  0  0  0  # atno 6908 bound_to 6896
  150.9278  134.8716  159.7591 H   0  0  0  0  0  0  0  0  0  0  0  0  # atno 6909 bound_to 6896
  145.0379  139.3988  143.5116 H   0  0  0  0  0  0  0  0  0  0  0  0  # atno 7974 bound_to 7965
  154.8786  140.0420  157.1768 H   0  0  0  0  0  0  0  0  0  0  0  0  # atno 8008 bound_to 7997
  154.8663  140.2951  155.5487 H   0  0  0  0  0  0  0  0  0  0  0  0  # atno 8009 bound_to 7997
  156.2999  140.2437  156.3645 H   0  0  0  0  0  0  0  0  0  0  0  0  # atno 8010 bound_to 7997
  139.9054  143.6557  152.2586 H   0  0  0  0  0  0  0  0  0  0  0  0  # atno 10167 bound_to 10162
  156.0598  130.4266  150.1747 H   0  0  0  0  0  0  0  0  0  0  0  0  # atno 10718 bound_to 10713
  153.1659  135.6804  153.8675 H   0  0  0  0  0  0  0  0  0  0  0  0  # atno 10763 bound_to 10752
  153.8055  135.3150  155.3396 H   0  0  0  0  0  0  0  0  0  0  0  0  # atno 10764 bound_to 10752
  154.7965  135.4804  154.0264 H   0  0  0  0  0  0  0  0  0  0  0  0  # atno 10765 bound_to 10752
  140.4320  134.1410  155.7681 H   0  0  0  0  0  0  0  0  0  0  0  0  # atno 11005 bound_to 11000
  146.3506  139.9964  142.8680 LP  0  0  0  0  0  0  0  0  0  0  0  0  # atno 17320 bound_to 7965
  145.1685  140.9709  143.4335 LP  0  0  0  0  0  0  0  0  0  0  0  0  # atno 17321 bound_to 7965
  139.6989  144.7638  151.1308 LP  0  0  0  0  0  0  0  0  0  0  0  0  # atno 17342 bound_to 10162
  140.7697  143.5486  150.9231 LP  0  0  0  0  0  0  0  0  0  0  0  0  # atno 17343 bound_to 10162
  156.9818  130.9866  151.3435 LP  0  0  0  0  0  0  0  0  0  0  0  0  # atno 17370 bound_to 10713
  157.5597  130.8237  149.8249 LP  0  0  0  0  0  0  0  0  0  0  0  0  # atno 17371 bound_to 10713
  141.1741  133.8549  157.1476 LP  0  0  0  0  0  0  0  0  0  0  0  0  # atno 17394 bound_to 11000
  140.0128  134.9981  157.0430 LP  0  0  0  0  0  0  0  0  0  0  0  0  # atno 17395 bound_to 11000

$$$$
