AV-unprocessed.smi:229|AV-procd|sdf|1747|dock10
  -GOLD-   2262020263D 1   1.00000     0.00000
 Structure written by MMmdl.
 58 62  0  0  0  0  0  0  0  0  1 V2000
  154.3366  141.1123  161.9219 C   0  0  0  0  0  0  0  0  0  0  0  0
  154.1834  140.6123  160.4793 C   0  0  0  0  0  0  0  0  0  0  0  0
  152.9200  141.1329  159.7744 C   0  0  2  0  0  0  0  0  0  0  0  0
  152.5759  140.3425  158.4984 C   0  0  0  0  0  0  0  0  0  0  0  0
  151.4450  140.9615  157.8191 N   0  0  0  0  0  0  0  0  0  0  0  0
  150.8424  140.1861  156.8823 C   0  0  0  0  0  0  0  0  0  0  0  0
  150.6946  140.6463  155.6108 N   0  0  0  0  0  0  0  0  0  0  0  0
  150.1109  139.8853  154.6801 C   0  0  0  0  0  0  0  0  0  0  0  0
  149.6076  138.6559  154.8031 N   0  0  0  0  0  0  0  0  0  0  0  0
  149.7449  138.1911  156.0775 C   0  0  0  0  0  0  0  0  0  0  0  0
  150.3430  138.8837  157.1682 C   0  0  0  0  0  0  0  0  0  0  0  0
  150.2878  138.0975  158.3139 N   0  0  0  0  0  0  0  0  0  0  0  0
  149.7031  136.9994  157.9200 C   0  0  0  0  0  0  0  0  0  0  0  0
  149.3457  136.9700  156.5916 N   0  0  0  0  0  0  0  0  0  0  0  0
  148.6882  135.8780  155.8954 C   0  0  0  0  0  0  0  0  0  0  0  0
  149.6344  134.6874  155.6450 C   0  0  2  0  0  0  0  0  0  0  0  0
  150.7794  135.1008  154.9232 O   0  0  0  0  0  0  0  0  0  0  0  0
  148.9368  133.5095  154.9343 C   0  0  2  0  0  0  0  0  0  0  0  0
  149.8339  132.3492  154.4933 C   0  0  0  0  0  0  0  0  0  0  0  0
  149.0009  131.7361  153.3898 C   0  0  0  0  0  0  0  0  0  0  0  0
  148.4028  132.9747  152.7272 C   0  0  0  0  0  0  0  0  0  0  0  0
  148.2268  133.9286  153.7710 O   0  0  0  0  0  0  0  0  0  0  0  0
  151.6741  142.3684  157.5065 C   0  0  0  0  0  0  0  0  0  0  0  0
  152.0645  143.1559  158.7782 C   0  0  1  0  0  0  0  0  0  0  0  0
  152.5148  144.5707  158.4287 C   0  0  0  0  0  0  0  0  0  0  0  0
  151.2491  145.3942  158.6112 C   0  0  0  0  0  0  0  0  0  0  0  0
  150.6867  144.8278  159.7798 O   0  0  0  0  0  0  0  0  0  0  0  0
  150.8675  143.4172  159.7229 C   0  0  0  0  0  0  0  0  0  0  0  0
  153.1566  142.4992  159.4290 O   0  0  0  0  0  0  0  0  0  0  0  0
  155.2767  140.7663  162.3516 H   0  0  0  0  0  0  0  0  0  0  0  0
  153.5319  140.7492  162.5610 H   0  0  0  0  0  0  0  0  0  0  0  0
  154.3342  142.2018  161.9633 H   0  0  0  0  0  0  0  0  0  0  0  0
  155.0586  140.9300  159.9114 H   0  0  0  0  0  0  0  0  0  0  0  0
  154.1933  139.5217  160.4653 H   0  0  0  0  0  0  0  0  0  0  0  0
  152.0852  141.0713  160.4730 H   0  0  0  0  0  0  0  0  0  0  0  0
  153.4305  140.3305  157.8206 H   0  0  0  0  0  0  0  0  0  0  0  0
  152.3614  139.3058  158.7528 H   0  0  0  0  0  0  0  0  0  0  0  0
  150.0366  140.3242  153.6962 H   0  0  0  0  0  0  0  0  0  0  0  0
  149.5161  136.1742  158.5916 H   0  0  0  0  0  0  0  0  0  0  0  0
  147.8332  135.5600  156.4928 H   0  0  0  0  0  0  0  0  0  0  0  0
  148.2864  136.2549  154.9540 H   0  0  0  0  0  0  0  0  0  0  0  0
  149.9940  134.3259  156.6091 H   0  0  0  0  0  0  0  0  0  0  0  0
  150.7474  134.7136  154.0620 H   0  0  0  0  0  0  0  0  0  0  0  0
  148.1816  133.1042  155.6098 H   0  0  0  0  0  0  0  0  0  0  0  0
  150.7795  132.7027  154.0807 H   0  0  0  0  0  0  0  0  0  0  0  0
  150.0543  131.6517  155.3019 H   0  0  0  0  0  0  0  0  0  0  0  0
  149.5822  131.1226  152.7010 H   0  0  0  0  0  0  0  0  0  0  0  0
  148.2094  131.1178  153.8160 H   0  0  0  0  0  0  0  0  0  0  0  0
  149.1001  133.3873  151.9969 H   0  0  0  0  0  0  0  0  0  0  0  0
  147.4633  132.7633  152.2165 H   0  0  0  0  0  0  0  0  0  0  0  0
  152.4761  142.4328  156.7694 H   0  0  0  0  0  0  0  0  0  0  0  0
  150.7846  142.8071  157.0517 H   0  0  0  0  0  0  0  0  0  0  0  0
  153.2656  144.9135  159.1425 H   0  0  0  0  0  0  0  0  0  0  0  0
  152.9433  144.6625  157.4302 H   0  0  0  0  0  0  0  0  0  0  0  0
  151.4501  146.4584  158.7354 H   0  0  0  0  0  0  0  0  0  0  0  0
  150.5672  145.2632  157.7695 H   0  0  0  0  0  0  0  0  0  0  0  0
  149.9545  142.9517  159.3494 H   0  0  0  0  0  0  0  0  0  0  0  0
  151.0359  143.0489  160.7343 H   0  0  0  0  0  0  0  0  0  0  0  0
  1  2  1  0  0  0  0
  1 30  1  0  0  0  0
  1 31  1  0  0  0  0
  1 32  1  0  0  0  0
  2  3  1  0  0  0  0
  2 33  1  0  0  0  0
  2 34  1  0  0  0  0
  3 29  1  0  0  0  0
  3  4  1  0  0  0  0
  3 35  1  0  0  0  0
  4  5  1  0  0  0  0
  4 36  1  0  0  0  0
  4 37  1  0  0  0  0
  5  6  1  0  0  0  0
  5 23  1  0  0  0  0
  6 11  1  0  0  0  0
  6  7  2  0  0  0  0
  7  8  1  0  0  0  0
  8  9  2  0  0  0  0
  8 38  1  0  0  0  0
  9 10  1  0  0  0  0
 10 14  1  0  0  0  0
 10 11  2  0  0  0  0
 11 12  1  0  0  0  0
 12 13  2  0  0  0  0
 13 14  1  0  0  0  0
 13 39  1  0  0  0  0
 14 15  1  0  0  0  0
 15 16  1  0  0  0  0
 15 40  1  0  0  0  0
 15 41  1  0  0  0  0
 16 17  1  0  0  0  0
 16 18  1  0  0  0  0
 16 42  1  0  0  0  0
 17 43  1  0  0  0  0
 18 22  1  0  0  0  0
 18 19  1  0  0  0  0
 18 44  1  0  0  0  0
 19 20  1  0  0  0  0
 19 45  1  0  0  0  0
 19 46  1  0  0  0  0
 20 21  1  0  0  0  0
 20 47  1  0  0  0  0
 20 48  1  0  0  0  0
 21 22  1  0  0  0  0
 21 49  1  0  0  0  0
 21 50  1  0  0  0  0
 23 24  1  0  0  0  0
 23 51  1  0  0  0  0
 23 52  1  0  0  0  0
 24 28  1  0  0  0  0
 24 25  1  0  0  0  0
 24 29  1  0  0  0  0
 25 26  1  0  0  0  0
 25 53  1  0  0  0  0
 25 54  1  0  0  0  0
 26 27  1  0  0  0  0
 26 55  1  0  0  0  0
 26 56  1  0  0  0  0
 27 28  1  0  0  0  0
 28 57  1  0  0  0  0
 28 58  1  0  0  0  0
M  END
> <s_m_source_file>
AV-unprocessed.smi

> <i_m_source_file_index>
229

> <i_lp_mmshare_version>
43012

> <i_f3d_flags>
0

> <s_epik_input>
W0NIMl0xT1tDSDJdW0NIMl1bQ0BdMTJbQ0gyXU4oW0NIMl1bQ0BIXShPMilbQ0gyXVtDSDNdKWMobltjSF1uMyljKGMzNCluW2NIXW40W0NIMl1bQ0BIXShbT0hdKVtDQEBIXTVbQ0gyXVtDSDJdW0NIMl1PNQ==

> <s_epik_cmdline>
J2VwaWtfcHl0aG9uJywgJy1waCcsICc3LjAnLCAnLXRuJywgJzgnLCAnLW1hJywgJzIwMCcsICctbWV0YWxfYmluZGluZycsICctaW1hZScsICc8aW5maWxlLm1hZT4nLCAnLW9tYWUnLCAnPG91dGZpbGUubWFlPic=

> <r_lp_tautomer_probability>
1

> <r_epik_Ionization_Penalty>
0.00318402

> <r_epik_Ionization_Penalty_Charging>
0

> <r_epik_Ionization_Penalty_Neutral>
0.00318402

> <r_epik_State_Penalty>
0.00215642

> <r_epik_Charging_Adjusted_Penalty>
0.00215642

> <i_epik_Tot_Q>
0

> <i_epik_Tot_abs_Q>
0

> <r_epik_Metal_State_Penalty>
-0

> <b_epik_Metal_Only>
0

> <s_lp_Force_Field>
OPLS_2005

> <r_lp_Energy>
57.781

> <b_lp_Chiralities_Consistent>
1

> <s_lp_Variant>
AV-unprocessed.smi:229-1

> <Gold.Version>
5.8.1

> <Gold.Id.Protein>
6NUR|6NUR_protein|mol2

> <Gold.PLP.Fitness>
43.9958

> <Gold.PLP.PLP>
-41.7541

> <Gold.PLP.part.hbond>
-0.9695

> <Gold.PLP.part.metal>
0.0000

> <Gold.PLP.part.buried>
-4.9676

> <Gold.PLP.part.nonpolar>
-36.1205

> <Gold.PLP.part.repulsive>
0.6503

> <Gold.PLP.ligand.clash>
0.0000

> <Gold.PLP.ligand.torsion>
0.5599

> <Gold.PLP.Chemscore.Hbond>
0.1400

> <Gold.PLP.Chemscore.CHOScore>
0.8625

> <Gold.PLP.Chemscore.Metal>
0.0000

> <Gold.Chemscore.Hbonds>
donor molecule, donor type, donor heavy atom, donor atom, acceptor molecule, acceptor atom, score
      P1  H 10752 10763       L1    17  0.26
      L1  C     8    38       P1  7957  0.87

> <Gold.PLP.Chemscore.Internal.Correction>
0.3538

> <Gold.Rescore>
     Score         DG    S(hbond)    S(metal)    S(lipo)     H(rot)  DE(clash)    DE(int)     intcor
     12.68     -13.30       0.00        0.00     120.59       2.46       0.07       0.54       ----

> <Gold.Chemscore.Fitness>
12.6842

> <Gold.Chemscore.DG>
-13.2950

> <Gold.Chemscore.ZeroCoef>
-5.4800

> <Gold.Chemscore.Hbond>
0.0004

> <Gold.Chemscore.Metal>
0.0000

> <Gold.Chemscore.Lipo>
120.5895

> <Gold.Chemscore.Internal_Hbond>
0.0000

> <Gold.Chemscore.DEClash>
0.0747

> <Gold.Chemscore.DEInternal>
0.5360

> <Gold.Chemscore.Rot>
2.4591

> <Gold.Chemscore.Internal.Correction>
   9.000000E+99

> <Gold.Chemscore.Hbonds>
donor molecule, donor type, donor heavy atom, donor atom, acceptor molecule, acceptor atom, score
      P1  H 10752 10763       L1    17  0.01

> <Gold.Chemscore.Hbond.Weighted>
-0.0014

> <Gold.Chemscore.Metal.Weighted>
-0.0000

> <Gold.Chemscore.Lipo.Weighted>
-14.1090

> <Gold.Chemscore.Internal_Hbond.Weighted>
0.0000

> <Gold.Chemscore.DEClash.Weighted>
0.0747

> <Gold.Chemscore.DEInternal.Weighted>
0.5360

> <Gold.Chemscore.Rot.Weighted>
6.2953

> <Gold.Chemscore.Internal.Correction.Weighted>
   9.000000E+99

> <Gold.Protein.RotatedTorsions>
[ 6907 6896 6895 6894 ] final -136.51 input  -60.11 | X-H torsion
[ 7974 7965 7964 7962 ] final  112.06 input  175.53 | X-H torsion
[ 8008 7997 7996 7995 ] final  -46.43 input   59.86 | X-H torsion
[ 10167 10162 10161 10158 ] final  -63.78 input  -65.29 | X-H torsion
[ 10718 10713 10712 10709 ] final  -64.28 input   66.30 | X-H torsion
[ 10763 10752 10751 10750 ] final   65.64 input  -60.55 | X-H torsion
[ 11005 11000 10999 10996 ] final  124.32 input  -57.11 | X-H torsion

> <Gold.Protein.ActiveResidues>
 VAL166  LYS551  ARG553  GLY616  TRP617  ASP618  TYR619  PRO620  LYS621  CYS622 
 ASP623  PHE694  ASN695  SER759  ASP760  ASP761  ALA762  ILE779  LEU786  VAL792 
 PHE793  MET794  SER795  GLU796  ALA797  LYS798  CYS799  TRP800  GLU811  SER814 

> <Gold.Protein.RotatedAtoms>
  151.0110  133.5965  159.2682 H   0  0  0  0  0  0  0  0  0  0  0  0  # atno 6907 bound_to 6896
  151.3116  135.0795  159.9284 H   0  0  0  0  0  0  0  0  0  0  0  0  # atno 6908 bound_to 6896
  152.5299  133.9774  159.7844 H   0  0  0  0  0  0  0  0  0  0  0  0  # atno 6909 bound_to 6896
  145.2343  139.2806  143.4151 H   0  0  0  0  0  0  0  0  0  0  0  0  # atno 7974 bound_to 7965
  154.4007  140.1371  156.4010 H   0  0  0  0  0  0  0  0  0  0  0  0  # atno 8008 bound_to 7997
  155.7824  140.3481  155.5284 H   0  0  0  0  0  0  0  0  0  0  0  0  # atno 8009 bound_to 7997
  155.8660  140.0964  157.1572 H   0  0  0  0  0  0  0  0  0  0  0  0  # atno 8010 bound_to 7997
  140.5847  143.2332  151.6268 H   0  0  0  0  0  0  0  0  0  0  0  0  # atno 10167 bound_to 10162
  156.0738  130.4231  150.1398 H   0  0  0  0  0  0  0  0  0  0  0  0  # atno 10718 bound_to 10713
  153.0105  135.5349  154.6699 H   0  0  0  0  0  0  0  0  0  0  0  0  # atno 10763 bound_to 10752
  154.5886  135.2856  155.0661 H   0  0  0  0  0  0  0  0  0  0  0  0  # atno 10764 bound_to 10752
  154.1762  135.6524  153.5075 H   0  0  0  0  0  0  0  0  0  0  0  0  # atno 10765 bound_to 10752
  139.9353  134.9640  156.8391 H   0  0  0  0  0  0  0  0  0  0  0  0  # atno 11005 bound_to 11000
  146.3345  140.2688  142.8605 LP  0  0  0  0  0  0  0  0  0  0  0  0  # atno 17320 bound_to 7965
  144.9647  140.8310  143.5492 LP  0  0  0  0  0  0  0  0  0  0  0  0  # atno 17321 bound_to 7965
  139.5190  144.3266  152.0864 LP  0  0  0  0  0  0  0  0  0  0  0  0  # atno 17342 bound_to 10162
  140.2421  144.4258  150.6256 LP  0  0  0  0  0  0  0  0  0  0  0  0  # atno 17343 bound_to 10162
  156.9443  130.9754  151.3510 LP  0  0  0  0  0  0  0  0  0  0  0  0  # atno 17370 bound_to 10713
  157.5824  130.8385  149.8541 LP  0  0  0  0  0  0  0  0  0  0  0  0  # atno 17371 bound_to 10713
  140.6092  134.0098  155.7569 LP  0  0  0  0  0  0  0  0  0  0  0  0  # atno 17394 bound_to 11000
  141.0963  133.9838  157.3154 LP  0  0  0  0  0  0  0  0  0  0  0  0  # atno 17395 bound_to 11000

$$$$
