AV-unprocessed.smi:1191|AV-procd|sdf|4986|dock5
  -GOLD-   22720 3583D 1   1.00000     0.00000
 Structure written by MMmdl.
 47 48  0  0  0  0  0  0  0  0  2 V2000
  147.0739  139.5483  153.1538 C   0  0  0  0  0  0  0  0  0  0  0  0
  148.3914  139.6651  153.8620 C   0  0  0  0  0  0  0  0  0  0  0  0
  148.8599  140.7281  154.6838 C   0  0  0  0  0  0  0  0  0  0  0  0
  150.1079  140.3298  155.0728 C   0  0  0  0  0  0  0  0  0  0  0  0
  151.1082  141.0122  155.9470 C   0  0  0  0  0  0  0  0  0  0  0  0
  150.3341  139.0947  154.4914 N   0  0  0  0  0  0  0  0  0  0  0  0
  151.5016  138.2326  154.5912 C   0  0  0  0  0  0  0  0  0  0  0  0
  151.1141  136.8300  155.0617 C   0  0  0  0  0  0  0  0  0  0  0  0
  151.7007  136.3140  156.0128 O   0  0  0  0  0  0  0  0  0  0  0  0
  150.1210  136.2260  154.3909 N   0  0  0  0  0  0  0  0  0  0  0  0
  149.5870  134.9052  154.6963 C   0  0  0  0  0  0  0  0  0  0  0  0
  148.0530  134.9377  154.8346 C   0  0  0  0  0  0  0  0  0  0  0  0
  147.3690  134.7231  153.5352 N   0  3  1  0  0  0  0  0  0  0  0  0
  147.6756  133.3936  152.9477 C   0  0  0  0  0  0  0  0  0  0  0  0
  147.0886  133.2660  151.5331 C   0  0  0  0  0  0  0  0  0  0  0  0
  145.5768  133.5333  151.5359 C   0  0  0  0  0  0  0  0  0  0  0  0
  145.2475  134.8813  152.2043 C   0  0  2  0  0  0  0  0  0  0  0  0
  145.6035  136.0894  151.3203 C   0  0  0  0  0  0  0  0  0  0  0  0
  145.9023  134.9679  153.5983 C   0  0  0  0  0  0  0  0  0  0  0  0
  149.2777  138.6893  153.7524 N   0  0  0  0  0  0  0  0  0  0  0  0
  146.4803  140.4548  153.2728 H   0  0  0  0  0  0  0  0  0  0  0  0
  146.4901  138.7158  153.5472 H   0  0  0  0  0  0  0  0  0  0  0  0
  147.2146  139.3826  152.0854 H   0  0  0  0  0  0  0  0  0  0  0  0
  148.3554  141.6456  154.9481 H   0  0  0  0  0  0  0  0  0  0  0  0
  150.7255  141.9690  156.3029 H   0  0  0  0  0  0  0  0  0  0  0  0
  152.0337  141.2038  155.4035 H   0  0  0  0  0  0  0  0  0  0  0  0
  151.3450  140.4016  156.8184 H   0  0  0  0  0  0  0  0  0  0  0  0
  151.9961  138.1749  153.6201 H   0  0  0  0  0  0  0  0  0  0  0  0
  152.2168  138.6778  155.2836 H   0  0  0  0  0  0  0  0  0  0  0  0
  149.6971  136.7276  153.6231 H   0  0  0  0  0  0  0  0  0  0  0  0
  149.8922  134.2391  153.8903 H   0  0  0  0  0  0  0  0  0  0  0  0
  150.0458  134.5197  155.6086 H   0  0  0  0  0  0  0  0  0  0  0  0
  147.7556  134.1494  155.5275 H   0  0  0  0  0  0  0  0  0  0  0  0
  147.7209  135.8769  155.2798 H   0  0  0  0  0  0  0  0  0  0  0  0
  148.7558  133.2506  152.8958 H   0  0  0  0  0  0  0  0  0  0  0  0
  147.2812  132.6080  153.5942 H   0  0  0  0  0  0  0  0  0  0  0  0
  147.5899  133.9646  150.8624 H   0  0  0  0  0  0  0  0  0  0  0  0
  147.2871  132.2693  151.1382 H   0  0  0  0  0  0  0  0  0  0  0  0
  145.1841  133.5027  150.5190 H   0  0  0  0  0  0  0  0  0  0  0  0
  145.0760  132.7315  152.0805 H   0  0  0  0  0  0  0  0  0  0  0  0
  144.1668  134.9153  152.3487 H   0  0  0  0  0  0  0  0  0  0  0  0
  146.6756  136.1597  151.1371 H   0  0  0  0  0  0  0  0  0  0  0  0
  145.2891  137.0223  151.7892 H   0  0  0  0  0  0  0  0  0  0  0  0
  145.1048  136.0269  150.3525 H   0  0  0  0  0  0  0  0  0  0  0  0
  145.4485  134.2315  154.2639 H   0  0  0  0  0  0  0  0  0  0  0  0
  145.6932  135.9447  154.0333 H   0  0  0  0  0  0  0  0  0  0  0  0
  147.7545  135.4047  152.8970 H   0  0  0  0  0  0  0  0  0  0  0  0
  1  2  1  0  0  0  0
  1 21  1  0  0  0  0
  1 22  1  0  0  0  0
  1 23  1  0  0  0  0
  2 20  2  0  0  0  0
  2  3  1  0  0  0  0
  3  4  2  0  0  0  0
  3 24  1  0  0  0  0
  4  5  1  0  0  0  0
  4  6  1  0  0  0  0
  5 25  1  0  0  0  0
  5 26  1  0  0  0  0
  5 27  1  0  0  0  0
  6  7  1  0  0  0  0
  6 20  1  0  0  0  0
  7  8  1  0  0  0  0
  7 28  1  0  0  0  0
  7 29  1  0  0  0  0
  8  9  2  0  0  0  0
  8 10  1  0  0  0  0
 10 11  1  0  0  0  0
 10 30  1  0  0  0  0
 11 12  1  0  0  0  0
 11 31  1  0  0  0  0
 11 32  1  0  0  0  0
 12 13  1  0  0  0  0
 12 33  1  0  0  0  0
 12 34  1  0  0  0  0
 13 19  1  0  0  0  0
 13 14  1  0  0  0  0
 13 47  1  0  0  0  0
 14 15  1  0  0  0  0
 14 35  1  0  0  0  0
 14 36  1  0  0  0  0
 15 16  1  0  0  0  0
 15 37  1  0  0  0  0
 15 38  1  0  0  0  0
 16 17  1  0  0  0  0
 16 39  1  0  0  0  0
 16 40  1  0  0  0  0
 17 18  1  0  0  0  0
 17 19  1  0  0  0  0
 17 41  1  0  0  0  0
 18 42  1  0  0  0  0
 18 43  1  0  0  0  0
 18 44  1  0  0  0  0
 19 45  1  0  0  0  0
 19 46  1  0  0  0  0
M  CHG  1  13   1
M  END
> <s_m_source_file>
AV-unprocessed.smi

> <i_m_source_file_index>
1191

> <i_lp_mmshare_version>
43012

> <i_f3d_flags>
0

> <s_epik_input>
W0NIM11jMVtjSF1jKFtDSDNdKW4objEpW0NIMl1DKD1PKVtOSF1bQ0gyXVtDSDJdTjJbQ0gyXVtDSDJdW0NIMl1bQ0BASF0oW0NIM10pW0NIMl0y

> <s_epik_cmdline>
J2VwaWtfcHl0aG9uJywgJy1waCcsICc3LjAnLCAnLXRuJywgJzgnLCAnLW1hJywgJzIwMCcsICctbWV0YWxfYmluZGluZycsICctaW1hZScsICc8aW5maWxlLm1hZT4nLCAnLW9tYWUnLCAnPG91dGZpbGUubWFlPic=

> <r_lp_tautomer_probability>
1

> <r_epik_Ionization_Penalty>
0.00249932

> <r_epik_Ionization_Penalty_Charging>
0.00230623

> <r_epik_Ionization_Penalty_Neutral>
0.000193092

> <r_epik_State_Penalty>
-0

> <r_epik_Charging_Adjusted_Penalty>
0.00230623

> <i_epik_Tot_Q>
1

> <i_epik_Tot_abs_Q>
1

> <r_epik_Metal_State_Penalty>
-0

> <b_epik_Metal_Only>
0

> <s_lp_Force_Field>
OPLS_2005

> <r_lp_Energy>
16.3649

> <b_lp_Chiralities_Consistent>
1

> <s_lp_Variant>
AV-unprocessed.smi:1191-3

> <Gold.Version>
5.8.1

> <Gold.Id.Protein>
6NUR|6NUR_protein|mol2

> <Gold.PLP.Fitness>
46.3416

> <Gold.PLP.PLP>
-35.9214

> <Gold.PLP.part.hbond>
-3.7925

> <Gold.PLP.part.metal>
0.0000

> <Gold.PLP.part.buried>
-1.4685

> <Gold.PLP.part.nonpolar>
-31.6197

> <Gold.PLP.part.repulsive>
1.3453

> <Gold.PLP.ligand.clash>
0.0000

> <Gold.PLP.ligand.torsion>
0.3362

> <Gold.PLP.Chemscore.Hbond>
3.6880

> <Gold.PLP.Chemscore.CHOScore>
0.0000

> <Gold.PLP.Chemscore.Metal>
0.0000

> <Gold.Chemscore.Hbonds>
donor molecule, donor type, donor heavy atom, donor atom, acceptor molecule, acceptor atom, score
      L1  H    10    30       P1  7948  0.70
      L1  H    13    47       P1  7948  2.00
      P1  H 10752 10765       L1     9  1.00

> <Gold.PLP.Chemscore.Internal.Correction>
0.0285

> <Gold.Rescore>
     Score         DG    S(hbond)    S(metal)    S(lipo)     H(rot)  DE(clash)    DE(int)     intcor
     15.55     -17.52       2.29        0.00      73.91       1.67       0.04       1.93       ----

> <Gold.Chemscore.Fitness>
15.5498

> <Gold.Chemscore.DG>
-17.5182

> <Gold.Chemscore.ZeroCoef>
-5.4800

> <Gold.Chemscore.Hbond>
2.2918

> <Gold.Chemscore.Metal>
0.0000

> <Gold.Chemscore.Lipo>
73.9102

> <Gold.Chemscore.Internal_Hbond>
0.0000

> <Gold.Chemscore.DEClash>
0.0375

> <Gold.Chemscore.DEInternal>
1.9309

> <Gold.Chemscore.Rot>
1.6657

> <Gold.Chemscore.Internal.Correction>
   9.000000E+99

> <Gold.Chemscore.Hbonds>
donor molecule, donor type, donor heavy atom, donor atom, acceptor molecule, acceptor atom, score
      L1  H    10    30       P1  7948  0.42
      L1  H    13    47       P1  7948  0.99
      P1  H 10752 10765       L1     9  0.38

> <Gold.Chemscore.Hbond.Weighted>
-7.6548

> <Gold.Chemscore.Metal.Weighted>
-0.0000

> <Gold.Chemscore.Lipo.Weighted>
-8.6475

> <Gold.Chemscore.Internal_Hbond.Weighted>
0.0000

> <Gold.Chemscore.DEClash.Weighted>
0.0375

> <Gold.Chemscore.DEInternal.Weighted>
1.9309

> <Gold.Chemscore.Rot.Weighted>
4.2641

> <Gold.Chemscore.Internal.Correction.Weighted>
   9.000000E+99

> <Gold.Protein.RotatedTorsions>
[ 6907 6896 6895 6894 ] final   53.52 input  -60.11 | X-H torsion
[ 7974 7965 7964 7962 ] final   16.30 input  175.53 | X-H torsion
[ 8008 7997 7996 7995 ] final  106.85 input   59.86 | X-H torsion
[ 10167 10162 10161 10158 ] final   54.94 input  -65.29 | X-H torsion
[ 10718 10713 10712 10709 ] final   51.78 input   66.30 | X-H torsion
[ 10763 10752 10751 10750 ] final -140.85 input  -60.55 | X-H torsion
[ 11005 11000 10999 10996 ] final  145.22 input  -57.11 | X-H torsion

> <Gold.Protein.ActiveResidues>
 VAL166  LYS551  ARG553  GLY616  TRP617  ASP618  TYR619  PRO620  LYS621  CYS622 
 ASP623  PHE694  ASN695  SER759  ASP760  ASP761  ALA762  ILE779  LEU786  VAL792 
 PHE793  MET794  SER795  GLU796  ALA797  LYS798  CYS799  TRP800  GLU811  SER814 

> <Gold.Protein.RotatedAtoms>
  152.3345  134.7216  160.0280 H   0  0  0  0  0  0  0  0  0  0  0  0  # atno 6907 bound_to 6896
  151.7622  133.3329  159.3429 H   0  0  0  0  0  0  0  0  0  0  0  0  # atno 6908 bound_to 6896
  150.7442  134.6028  159.6090 H   0  0  0  0  0  0  0  0  0  0  0  0  # atno 6909 bound_to 6896
  146.2253  139.8767  142.8578 H   0  0  0  0  0  0  0  0  0  0  0  0  # atno 7974 bound_to 7965
  156.1776  140.3105  155.9088 H   0  0  0  0  0  0  0  0  0  0  0  0  # atno 8008 bound_to 7997
  155.3453  140.0468  157.3062 H   0  0  0  0  0  0  0  0  0  0  0  0  # atno 8009 bound_to 7997
  154.5307  140.2229  155.8819 H   0  0  0  0  0  0  0  0  0  0  0  0  # atno 8010 bound_to 7997
  140.2247  144.3751  150.6437 H   0  0  0  0  0  0  0  0  0  0  0  0  # atno 10167 bound_to 10162
  157.5013  130.8440  149.8320 H   0  0  0  0  0  0  0  0  0  0  0  0  # atno 10718 bound_to 10713
  154.8565  135.3541  154.5774 H   0  0  0  0  0  0  0  0  0  0  0  0  # atno 10763 bound_to 10752
  153.6385  135.6999  153.5254 H   0  0  0  0  0  0  0  0  0  0  0  0  # atno 10764 bound_to 10752
  153.2990  135.4212  155.1195 H   0  0  0  0  0  0  0  0  0  0  0  0  # atno 10765 bound_to 10752
  140.0695  134.9160  157.1320 H   0  0  0  0  0  0  0  0  0  0  0  0  # atno 11005 bound_to 11000
  145.2553  141.0058  143.3857 LP  0  0  0  0  0  0  0  0  0  0  0  0  # atno 17320 bound_to 7965
  144.9341  139.4264  143.6480 LP  0  0  0  0  0  0  0  0  0  0  0  0  # atno 17321 bound_to 7965
  140.6229  143.2178  151.6657 LP  0  0  0  0  0  0  0  0  0  0  0  0  # atno 17342 bound_to 10162
  139.5131  144.3453  152.0702 LP  0  0  0  0  0  0  0  0  0  0  0  0  # atno 17343 bound_to 10162
  156.0231  130.3788  150.1902 LP  0  0  0  0  0  0  0  0  0  0  0  0  # atno 17370 bound_to 10713
  157.0092  130.9946  151.3370 LP  0  0  0  0  0  0  0  0  0  0  0  0  # atno 17371 bound_to 10713
  140.3649  134.2454  155.7183 LP  0  0  0  0  0  0  0  0  0  0  0  0  # atno 17394 bound_to 11000
  141.2006  133.7983  157.0481 LP  0  0  0  0  0  0  0  0  0  0  0  0  # atno 17395 bound_to 11000

$$$$
