AV-unprocessed.smi:1014|AV-procd|sdf|4431|dock5
  -GOLD-   22720 2383D 1   1.00000     0.00000
 Structure written by MMmdl.
 34 34  0  0  0  0  0  0  0  0  2 V2000
  147.4813  142.2923  154.1143 C   0  0  0  0  0  0  0  0  0  0  0  0
  148.3441  141.0352  154.3077 C   0  0  0  0  0  0  0  0  0  0  0  0
  149.6693  141.2704  155.0657 C   0  0  1  0  0  0  0  0  0  0  0  0
  149.3896  142.0226  156.3110 N   0  3  0  0  0  0  0  0  0  0  0  0
  150.4636  141.9870  157.3267 C   0  0  0  0  0  0  0  0  0  0  0  0
  151.2564  143.3021  157.3301 C   0  0  0  0  0  0  0  0  0  0  0  0
  151.5592  143.7502  158.6757 N   0  0  0  0  0  0  0  0  0  0  0  0
  151.9658  143.0015  159.7599 C   0  0  0  0  0  0  0  0  0  0  0  0
  152.1439  143.8594  160.8082 C   0  0  0  0  0  0  0  0  0  0  0  0
  152.5809  143.5482  162.2105 C   0  0  0  0  0  0  0  0  0  0  0  0
  151.8201  145.1307  160.2543 C   0  0  0  0  0  0  0  0  0  0  0  0
  151.4735  145.0625  158.9793 N   0  0  0  0  0  0  0  0  0  0  0  0
  150.3823  139.9429  155.3728 C   0  0  0  0  0  0  0  0  0  0  0  0
  149.7061  139.0335  156.0794 N   0  0  0  0  0  0  0  0  0  0  0  0
  151.5323  139.7459  154.9842 O   0  0  0  0  0  0  0  0  0  0  0  0
  146.5328  142.0377  153.6408 H   0  0  0  0  0  0  0  0  0  0  0  0
  147.9733  143.0277  153.4776 H   0  0  0  0  0  0  0  0  0  0  0  0
  147.2566  142.7684  155.0689 H   0  0  0  0  0  0  0  0  0  0  0  0
  147.7502  140.3030  154.8568 H   0  0  0  0  0  0  0  0  0  0  0  0
  148.5449  140.5846  153.3344 H   0  0  0  0  0  0  0  0  0  0  0  0
  150.3146  141.8889  154.4391 H   0  0  0  0  0  0  0  0  0  0  0  0
  149.2383  142.9894  156.0620 H   0  0  0  0  0  0  0  0  0  0  0  0
  150.0279  141.8126  158.3113 H   0  0  0  0  0  0  0  0  0  0  0  0
  151.1323  141.1510  157.1169 H   0  0  0  0  0  0  0  0  0  0  0  0
  152.1939  143.1808  156.7857 H   0  0  0  0  0  0  0  0  0  0  0  0
  150.6949  144.0892  156.8245 H   0  0  0  0  0  0  0  0  0  0  0  0
  152.0948  141.9309  159.6977 H   0  0  0  0  0  0  0  0  0  0  0  0
  152.5091  144.4202  162.8609 H   0  0  0  0  0  0  0  0  0  0  0  0
  153.6164  143.2087  162.2426 H   0  0  0  0  0  0  0  0  0  0  0  0
  151.9706  142.7635  162.6579 H   0  0  0  0  0  0  0  0  0  0  0  0
  151.8285  146.0962  160.7384 H   0  0  0  0  0  0  0  0  0  0  0  0
  150.1284  138.1432  156.3002 H   0  0  0  0  0  0  0  0  0  0  0  0
  148.7654  139.2374  156.3862 H   0  0  0  0  0  0  0  0  0  0  0  0
  148.5396  141.6576  156.7174 H   0  0  0  0  0  0  0  0  0  0  0  0
  1  2  1  0  0  0  0
  1 16  1  0  0  0  0
  1 17  1  0  0  0  0
  1 18  1  0  0  0  0
  2  3  1  0  0  0  0
  2 19  1  0  0  0  0
  2 20  1  0  0  0  0
  3  4  1  0  0  0  0
  3 13  1  0  0  0  0
  3 21  1  0  0  0  0
  4  5  1  0  0  0  0
  4 22  1  0  0  0  0
  4 34  1  0  0  0  0
  5  6  1  0  0  0  0
  5 23  1  0  0  0  0
  5 24  1  0  0  0  0
  6  7  1  0  0  0  0
  6 25  1  0  0  0  0
  6 26  1  0  0  0  0
  7 12  1  0  0  0  0
  7  8  1  0  0  0  0
  8  9  2  0  0  0  0
  8 27  1  0  0  0  0
  9 10  1  0  0  0  0
  9 11  1  0  0  0  0
 10 28  1  0  0  0  0
 10 29  1  0  0  0  0
 10 30  1  0  0  0  0
 11 12  2  0  0  0  0
 11 31  1  0  0  0  0
 13 14  1  0  0  0  0
 13 15  2  0  0  0  0
 14 32  1  0  0  0  0
 14 33  1  0  0  0  0
M  CHG  1   4   1
M  END
> <s_m_source_file>
AV-unprocessed.smi

> <i_m_source_file_index>
1014

> <i_lp_mmshare_version>
43012

> <i_f3d_flags>
0

> <s_epik_input>
W0NIM11bQ0gyXVtDQEBIXShDKD1PKVtOSDJdKVtOSF1bQ0gyXVtDSDJdbjFbY0hdYyhbQ0gzXSlbY0hdbjE=

> <s_epik_cmdline>
J2VwaWtfcHl0aG9uJywgJy1waCcsICc3LjAnLCAnLXRuJywgJzgnLCAnLW1hJywgJzIwMCcsICctbWV0YWxfYmluZGluZycsICctaW1hZScsICc8aW5maWxlLm1hZT4nLCAnLW9tYWUnLCAnPG91dGZpbGUubWFlPic=

> <r_lp_tautomer_probability>
1

> <r_epik_Ionization_Penalty>
0.19042

> <r_epik_Ionization_Penalty_Charging>
0.190412

> <r_epik_Ionization_Penalty_Neutral>
7.5834e-06

> <r_epik_State_Penalty>
0.180404

> <r_epik_Charging_Adjusted_Penalty>
0.370816

> <i_epik_Tot_Q>
1

> <i_epik_Tot_abs_Q>
1

> <r_epik_Metal_State_Penalty>
0.180563

> <b_epik_Metal_Only>
0

> <s_lp_Force_Field>
OPLS_2005

> <r_lp_Energy>
2.60817

> <b_lp_Chiralities_Consistent>
1

> <s_lp_Variant>
AV-unprocessed.smi:1014-2

> <Gold.Version>
5.8.1

> <Gold.Id.Protein>
6NUR|6NUR_protein|mol2

> <Gold.PLP.Fitness>
45.7226

> <Gold.PLP.PLP>
-38.8430

> <Gold.PLP.part.hbond>
-1.9879

> <Gold.PLP.part.metal>
0.0000

> <Gold.PLP.part.buried>
-3.5357

> <Gold.PLP.part.nonpolar>
-32.8093

> <Gold.PLP.part.repulsive>
0.2480

> <Gold.PLP.ligand.clash>
0.0000

> <Gold.PLP.ligand.torsion>
1.0975

> <Gold.PLP.Chemscore.Hbond>
3.0000

> <Gold.PLP.Chemscore.CHOScore>
0.0000

> <Gold.PLP.Chemscore.Metal>
0.0000

> <Gold.Chemscore.Hbonds>
donor molecule, donor type, donor heavy atom, donor atom, acceptor molecule, acceptor atom, score
      L1  H     4    22       P1  8028  2.00
      P1  H  7989  7998       L1    15  1.00

> <Gold.PLP.Chemscore.Internal.Correction>
0.0746

> <Gold.Rescore>
     Score         DG    S(hbond)    S(metal)    S(lipo)     H(rot)  DE(clash)    DE(int)     intcor
     13.80     -15.09       1.90        0.00      84.49       2.59       0.25       1.05       ----

> <Gold.Chemscore.Fitness>
13.7983

> <Gold.Chemscore.DG>
-15.0930

> <Gold.Chemscore.ZeroCoef>
-5.4800

> <Gold.Chemscore.Hbond>
1.9020

> <Gold.Chemscore.Metal>
0.0000

> <Gold.Chemscore.Lipo>
84.4870

> <Gold.Chemscore.Internal_Hbond>
0.0000

> <Gold.Chemscore.DEClash>
0.2459

> <Gold.Chemscore.DEInternal>
1.0487

> <Gold.Chemscore.Rot>
2.5878

> <Gold.Chemscore.Internal.Correction>
   9.000000E+99

> <Gold.Chemscore.Hbonds>
donor molecule, donor type, donor heavy atom, donor atom, acceptor molecule, acceptor atom, score
      L1  H     4    22       P1  8028  1.00
      P1  H  7989  7998       L1    15  0.39

> <Gold.Chemscore.Hbond.Weighted>
-6.3527

> <Gold.Chemscore.Metal.Weighted>
-0.0000

> <Gold.Chemscore.Lipo.Weighted>
-9.8850

> <Gold.Chemscore.Internal_Hbond.Weighted>
0.0000

> <Gold.Chemscore.DEClash.Weighted>
0.2459

> <Gold.Chemscore.DEInternal.Weighted>
1.0487

> <Gold.Chemscore.Rot.Weighted>
6.6247

> <Gold.Chemscore.Internal.Correction.Weighted>
   9.000000E+99

> <Gold.Protein.RotatedTorsions>
[ 6907 6896 6895 6894 ] final   76.27 input  -60.11 | X-H torsion
[ 7974 7965 7964 7962 ] final  -47.79 input  175.53 | X-H torsion
[ 8008 7997 7996 7995 ] final   -6.66 input   59.86 | X-H torsion
[ 10167 10162 10161 10158 ] final    4.27 input  -65.29 | X-H torsion
[ 10718 10713 10712 10709 ] final  115.47 input   66.30 | X-H torsion
[ 10763 10752 10751 10750 ] final -148.99 input  -60.55 | X-H torsion
[ 11005 11000 10999 10996 ] final   76.96 input  -57.11 | X-H torsion

> <Gold.Protein.ActiveResidues>
 VAL166  LYS551  ARG553  GLY616  TRP617  ASP618  TYR619  PRO620  LYS621  CYS622 
 ASP623  PHE694  ASN695  SER759  ASP760  ASP761  ALA762  ILE779  LEU786  VAL792 
 PHE793  MET794  SER795  GLU796  ALA797  LYS798  CYS799  TRP800  GLU811  SER814 

> <Gold.Protein.RotatedAtoms>
  152.5065  134.3994  159.9411 H   0  0  0  0  0  0  0  0  0  0  0  0  # atno 6907 bound_to 6896
  151.3958  133.3767  159.2734 H   0  0  0  0  0  0  0  0  0  0  0  0  # atno 6908 bound_to 6896
  150.9399  134.8829  159.7664 H   0  0  0  0  0  0  0  0  0  0  0  0  # atno 6909 bound_to 6896
  145.9580  140.7508  142.9472 H   0  0  0  0  0  0  0  0  0  0  0  0  # atno 7974 bound_to 7965
  154.5915  140.2427  155.7914 H   0  0  0  0  0  0  0  0  0  0  0  0  # atno 8008 bound_to 7997
  156.2250  140.2985  156.0000 H   0  0  0  0  0  0  0  0  0  0  0  0  # atno 8009 bound_to 7997
  155.2365  140.0405  157.2960 H   0  0  0  0  0  0  0  0  0  0  0  0  # atno 8010 bound_to 7997
  140.6543  143.7466  150.7627 H   0  0  0  0  0  0  0  0  0  0  0  0  # atno 10167 bound_to 10162
  157.6220  131.1013  150.7335 H   0  0  0  0  0  0  0  0  0  0  0  0  # atno 10718 bound_to 10713
  154.8203  135.3320  154.7059 H   0  0  0  0  0  0  0  0  0  0  0  0  # atno 10763 bound_to 10752
  153.7693  135.6927  153.4914 H   0  0  0  0  0  0  0  0  0  0  0  0  # atno 10764 bound_to 10752
  153.2056  135.4500  155.0267 H   0  0  0  0  0  0  0  0  0  0  0  0  # atno 10765 bound_to 10752
  139.9275  134.7643  156.1461 H   0  0  0  0  0  0  0  0  0  0  0  0  # atno 11005 bound_to 11000
  144.6809  140.2543  143.7327 LP  0  0  0  0  0  0  0  0  0  0  0  0  # atno 17320 bound_to 7965
  145.8080  139.1991  143.2009 LP  0  0  0  0  0  0  0  0  0  0  0  0  # atno 17321 bound_to 7965
  140.1123  143.4688  152.2363 LP  0  0  0  0  0  0  0  0  0  0  0  0  # atno 17342 bound_to 10162
  139.5763  144.7489  151.3757 LP  0  0  0  0  0  0  0  0  0  0  0  0  # atno 17343 bound_to 10162
  156.7690  130.4823  149.5422 LP  0  0  0  0  0  0  0  0  0  0  0  0  # atno 17370 bound_to 10713
  156.1370  130.6218  151.0414 LP  0  0  0  0  0  0  0  0  0  0  0  0  # atno 17371 bound_to 10713
  141.0843  133.6741  156.2402 LP  0  0  0  0  0  0  0  0  0  0  0  0  # atno 17394 bound_to 11000
  140.6294  134.5280  157.5557 LP  0  0  0  0  0  0  0  0  0  0  0  0  # atno 17395 bound_to 11000

$$$$
