AV-unprocessed.smi:830|AV-procd|sdf|3872|dock7
  -GOLD-   22720 1323D 1   1.00000     0.00000
 Structure written by MMmdl.
 53 55  0  0  0  0  0  0  0  0  2 V2000
  149.0668  136.5869  156.7168 C   0  0  0  0  0  0  0  0  0  0  0  0
  148.5289  137.4164  157.8946 C   0  0  2  0  0  0  0  0  0  0  0  0
  149.4565  138.4963  158.2264 N   0  0  0  0  0  0  0  0  0  0  0  0
  150.6871  138.3429  158.7348 C   0  0  0  0  0  0  0  0  0  0  0  0
  151.1836  137.2491  159.0029 O   0  0  0  0  0  0  0  0  0  0  0  0
  151.2830  139.5317  158.9257 N   0  0  0  0  0  0  0  0  0  0  0  0
  152.5689  139.7959  159.4772 C   0  0  0  0  0  0  0  0  0  0  0  0
  153.5246  138.7614  159.6499 C   0  0  0  0  0  0  0  0  0  0  0  0
  154.7792  139.0503  160.2186 C   0  0  0  0  0  0  0  0  0  0  0  0
  155.0634  140.3716  160.6030 C   0  0  0  0  0  0  0  0  0  0  0  0
  154.1422  141.3370  160.4066 N   0  3  0  0  0  0  0  0  0  0  0  0
  152.9230  141.1256  159.8505 C   0  0  0  0  0  0  0  0  0  0  0  0
  152.0684  142.2413  159.6958 N   0  0  0  0  0  0  0  0  0  0  0  0
  152.3974  143.5167  160.3220 C   0  0  0  0  0  0  0  0  0  0  0  0
  151.4676  144.5323  159.6635 C   0  0  0  0  0  0  0  0  0  0  0  0
  151.3691  144.0069  158.2346 C   0  0  0  0  0  0  0  0  0  0  0  0
  151.4386  142.4850  158.4018 C   0  0  0  0  0  0  0  0  0  0  0  0
  148.1999  136.5730  159.1317 C   0  0  0  0  0  0  0  0  0  0  0  0
  149.0851  135.9485  159.7185 O   0  0  0  0  0  0  0  0  0  0  0  0
  146.9128  136.5516  159.5101 N   0  0  0  0  0  0  0  0  0  0  0  0
  146.3847  135.8071  160.6497 C   0  0  0  0  0  0  0  0  0  0  0  0
  146.6985  136.5403  161.9667 C   0  0  0  0  0  0  0  0  0  0  0  0
  147.7801  135.7125  162.6611 C   0  0  0  0  0  0  0  0  0  0  0  0
  147.4878  134.2801  162.2257 C   0  0  0  0  0  0  0  0  0  0  0  0
  147.0333  134.4121  160.7710 C   0  0  0  0  0  0  0  0  0  0  0  0
  148.3781  135.7839  156.4520 H   0  0  0  0  0  0  0  0  0  0  0  0
  150.0289  136.1332  156.9578 H   0  0  0  0  0  0  0  0  0  0  0  0
  149.2034  137.2035  155.8279 H   0  0  0  0  0  0  0  0  0  0  0  0
  147.5879  137.8707  157.5772 H   0  0  0  0  0  0  0  0  0  0  0  0
  149.1315  139.4336  158.0378 H   0  0  0  0  0  0  0  0  0  0  0  0
  150.7113  140.3444  158.7475 H   0  0  0  0  0  0  0  0  0  0  0  0
  153.3178  137.7458  159.3487 H   0  0  0  0  0  0  0  0  0  0  0  0
  155.5111  138.2683  160.3589 H   0  0  0  0  0  0  0  0  0  0  0  0
  155.9953  140.6860  161.0499 H   0  0  0  0  0  0  0  0  0  0  0  0
  152.2566  143.4795  161.4025 H   0  0  0  0  0  0  0  0  0  0  0  0
  153.4346  143.7851  160.1180 H   0  0  0  0  0  0  0  0  0  0  0  0
  150.4859  144.5047  160.1388 H   0  0  0  0  0  0  0  0  0  0  0  0
  151.8445  145.5539  159.7199 H   0  0  0  0  0  0  0  0  0  0  0  0
  150.4654  144.3353  157.7204 H   0  0  0  0  0  0  0  0  0  0  0  0
  152.2283  144.3531  157.6584 H   0  0  0  0  0  0  0  0  0  0  0  0
  151.9877  142.0206  157.5816 H   0  0  0  0  0  0  0  0  0  0  0  0
  150.4317  142.0672  158.4181 H   0  0  0  0  0  0  0  0  0  0  0  0
  146.2500  137.0883  158.9694 H   0  0  0  0  0  0  0  0  0  0  0  0
  145.3016  135.7126  160.5500 H   0  0  0  0  0  0  0  0  0  0  0  0
  147.0035  137.5782  161.8246 H   0  0  0  0  0  0  0  0  0  0  0  0
  145.8040  136.5538  162.5911 H   0  0  0  0  0  0  0  0  0  0  0  0
  148.7640  136.0135  162.2988 H   0  0  0  0  0  0  0  0  0  0  0  0
  147.7711  135.8335  163.7447 H   0  0  0  0  0  0  0  0  0  0  0  0
  148.3494  133.6215  162.3382 H   0  0  0  0  0  0  0  0  0  0  0  0
  146.6755  133.8724  162.8289 H   0  0  0  0  0  0  0  0  0  0  0  0
  146.3471  133.6144  160.4850 H   0  0  0  0  0  0  0  0  0  0  0  0
  147.9053  134.3346  160.1194 H   0  0  0  0  0  0  0  0  0  0  0  0
  154.3821  142.2880  160.6866 H   0  0  0  0  0  0  0  0  0  0  0  0
  1  2  1  0  0  0  0
  1 26  1  0  0  0  0
  1 27  1  0  0  0  0
  1 28  1  0  0  0  0
  2  3  1  0  0  0  0
  2 18  1  0  0  0  0
  2 29  1  0  0  0  0
  3  4  1  0  0  0  0
  3 30  1  0  0  0  0
  4  5  2  0  0  0  0
  4  6  1  0  0  0  0
  6  7  1  0  0  0  0
  6 31  1  0  0  0  0
  7 12  1  0  0  0  0
  7  8  2  0  0  0  0
  8  9  1  0  0  0  0
  8 32  1  0  0  0  0
  9 10  2  0  0  0  0
  9 33  1  0  0  0  0
 10 11  1  0  0  0  0
 10 34  1  0  0  0  0
 11 12  2  0  0  0  0
 11 53  1  0  0  0  0
 12 13  1  0  0  0  0
 13 17  1  0  0  0  0
 13 14  1  0  0  0  0
 14 15  1  0  0  0  0
 14 35  1  0  0  0  0
 14 36  1  0  0  0  0
 15 16  1  0  0  0  0
 15 37  1  0  0  0  0
 15 38  1  0  0  0  0
 16 17  1  0  0  0  0
 16 39  1  0  0  0  0
 16 40  1  0  0  0  0
 17 41  1  0  0  0  0
 17 42  1  0  0  0  0
 18 19  2  0  0  0  0
 18 20  1  0  0  0  0
 20 21  1  0  0  0  0
 20 43  1  0  0  0  0
 21 25  1  0  0  0  0
 21 22  1  0  0  0  0
 21 44  1  0  0  0  0
 22 23  1  0  0  0  0
 22 45  1  0  0  0  0
 22 46  1  0  0  0  0
 23 24  1  0  0  0  0
 23 47  1  0  0  0  0
 23 48  1  0  0  0  0
 24 25  1  0  0  0  0
 24 49  1  0  0  0  0
 24 50  1  0  0  0  0
 25 51  1  0  0  0  0
 25 52  1  0  0  0  0
M  CHG  1  11   1
M  END
> <s_m_source_file>
AV-unprocessed.smi

> <i_m_source_file_index>
830

> <i_lp_mmshare_version>
43012

> <i_f3d_flags>
0

> <s_epik_input>
W0NIMl0xW0NIMl1bQ0gyXVtDSDJdW0NIXTFbTkhdQyg9TylbQ0BIXShbQ0gzXSlbTkhdQyg9TylbTkhdYzJbY0hdW2NIXVtjSF1uYzJOM1tDSDJdW0NIMl1bQ0gyXVtDSDJdMw==

> <s_epik_cmdline>
J2VwaWtfcHl0aG9uJywgJy1waCcsICc3LjAnLCAnLXRuJywgJzgnLCAnLW1hJywgJzIwMCcsICctbWV0YWxfYmluZGluZycsICctaW1hZScsICc8aW5maWxlLm1hZT4nLCAnLW9tYWUnLCAnPG91dGZpbGUubWFlPic=

> <r_lp_tautomer_probability>
0.999994

> <r_epik_Ionization_Penalty>
1.21091

> <r_epik_Ionization_Penalty_Charging>
1.21089

> <r_epik_Ionization_Penalty_Neutral>
1.88713e-05

> <r_epik_State_Penalty>
1.27732

> <r_epik_Charging_Adjusted_Penalty>
2.48821

> <i_epik_Tot_Q>
1

> <i_epik_Tot_abs_Q>
1

> <r_epik_Metal_State_Penalty>
1.3505

> <b_epik_Metal_Only>
0

> <s_lp_Force_Field>
OPLS_2005

> <r_lp_Energy>
52.1076

> <b_lp_Chiralities_Consistent>
1

> <s_lp_Variant>
AV-unprocessed.smi:830-3

> <Gold.Version>
5.8.1

> <Gold.Id.Protein>
6NUR|6NUR_protein|mol2

> <Gold.PLP.Fitness>
47.3148

> <Gold.PLP.PLP>
-44.9142

> <Gold.PLP.part.hbond>
-1.5768

> <Gold.PLP.part.metal>
0.0000

> <Gold.PLP.part.buried>
-7.3429

> <Gold.PLP.part.nonpolar>
-36.4302

> <Gold.PLP.part.repulsive>
0.4333

> <Gold.PLP.ligand.clash>
0.0000

> <Gold.PLP.ligand.torsion>
0.5301

> <Gold.PLP.Chemscore.Hbond>
1.0000

> <Gold.PLP.Chemscore.CHOScore>
0.0000

> <Gold.PLP.Chemscore.Metal>
0.0000

> <Gold.Chemscore.Hbonds>
donor molecule, donor type, donor heavy atom, donor atom, acceptor molecule, acceptor atom, score
      P1  H  6896  6907       L1    19  0.96

> <Gold.PLP.Chemscore.Internal.Correction>
0.4608

> <Gold.Rescore>
     Score         DG    S(hbond)    S(metal)    S(lipo)     H(rot)  DE(clash)    DE(int)     intcor
     13.50     -18.15       0.98        0.00     116.83       1.67       0.02       4.62       ----

> <Gold.Chemscore.Fitness>
13.5038

> <Gold.Chemscore.DG>
-18.1474

> <Gold.Chemscore.ZeroCoef>
-5.4800

> <Gold.Chemscore.Hbond>
0.9783

> <Gold.Chemscore.Metal>
0.0000

> <Gold.Chemscore.Lipo>
116.8296

> <Gold.Chemscore.Internal_Hbond>
0.0000

> <Gold.Chemscore.DEClash>
0.0239

> <Gold.Chemscore.DEInternal>
4.6197

> <Gold.Chemscore.Rot>
1.6676

> <Gold.Chemscore.Internal.Correction>
   9.000000E+99

> <Gold.Chemscore.Hbonds>
donor molecule, donor type, donor heavy atom, donor atom, acceptor molecule, acceptor atom, score
      P1  H  6896  6907       L1    19  0.91

> <Gold.Chemscore.Hbond.Weighted>
-3.2674

> <Gold.Chemscore.Metal.Weighted>
-0.0000

> <Gold.Chemscore.Lipo.Weighted>
-13.6691

> <Gold.Chemscore.Internal_Hbond.Weighted>
0.0000

> <Gold.Chemscore.DEClash.Weighted>
0.0239

> <Gold.Chemscore.DEInternal.Weighted>
4.6197

> <Gold.Chemscore.Rot.Weighted>
4.2691

> <Gold.Chemscore.Internal.Correction.Weighted>
   9.000000E+99

> <Gold.Protein.RotatedTorsions>
[ 6907 6896 6895 6894 ] final  -53.80 input  -60.11 | X-H torsion
[ 7974 7965 7964 7962 ] final  -57.81 input  175.53 | X-H torsion
[ 8008 7997 7996 7995 ] final   38.05 input   59.86 | X-H torsion
[ 10167 10162 10161 10158 ] final  -31.40 input  -65.29 | X-H torsion
[ 10718 10713 10712 10709 ] final    0.78 input   66.30 | X-H torsion
[ 10763 10752 10751 10750 ] final -114.06 input  -60.55 | X-H torsion
[ 11005 11000 10999 10996 ] final  -40.43 input  -57.11 | X-H torsion

> <Gold.Protein.ActiveResidues>
 VAL166  LYS551  ARG553  GLY616  TRP617  ASP618  TYR619  PRO620  LYS621  CYS622 
 ASP623  PHE694  ASN695  SER759  ASP760  ASP761  ALA762  ILE779  LEU786  VAL792 
 PHE793  MET794  SER795  GLU796  ALA797  LYS798  CYS799  TRP800  GLU811  SER814 

> <Gold.Protein.RotatedAtoms>
  150.8394  134.7681  159.6919 H   0  0  0  0  0  0  0  0  0  0  0  0  # atno 6907 bound_to 6896
  152.4485  134.5441  159.9857 H   0  0  0  0  0  0  0  0  0  0  0  0  # atno 6908 bound_to 6896
  151.5584  133.3369  159.3002 H   0  0  0  0  0  0  0  0  0  0  0  0  # atno 6909 bound_to 6896
  145.8467  140.8380  143.0006 H   0  0  0  0  0  0  0  0  0  0  0  0  # atno 7974 bound_to 7965
  155.2138  140.3325  155.4325 H   0  0  0  0  0  0  0  0  0  0  0  0  # atno 8008 bound_to 7997
  156.2360  140.1872  156.7166 H   0  0  0  0  0  0  0  0  0  0  0  0  # atno 8009 bound_to 7997
  154.6060  140.0616  156.9417 H   0  0  0  0  0  0  0  0  0  0  0  0  # atno 8010 bound_to 7997
  140.7236  143.3773  151.1665 H   0  0  0  0  0  0  0  0  0  0  0  0  # atno 10167 bound_to 10162
  156.8385  130.5513  149.5680 H   0  0  0  0  0  0  0  0  0  0  0  0  # atno 10718 bound_to 10713
  154.8424  135.4431  154.1447 H   0  0  0  0  0  0  0  0  0  0  0  0  # atno 10763 bound_to 10752
  153.2623  135.6937  153.7572 H   0  0  0  0  0  0  0  0  0  0  0  0  # atno 10764 bound_to 10752
  153.6843  135.3397  155.3162 H   0  0  0  0  0  0  0  0  0  0  0  0  # atno 10765 bound_to 10752
  141.0174  133.6879  156.2321 H   0  0  0  0  0  0  0  0  0  0  0  0  # atno 11005 bound_to 11000
  144.6731  140.0893  143.7466 LP  0  0  0  0  0  0  0  0  0  0  0  0  # atno 17320 bound_to 7965
  145.9404  139.2665  143.1272 LP  0  0  0  0  0  0  0  0  0  0  0  0  # atno 17321 bound_to 7965
  139.7356  143.9004  152.3034 LP  0  0  0  0  0  0  0  0  0  0  0  0  # atno 17342 bound_to 10162
  139.8808  144.7018  150.8880 LP  0  0  0  0  0  0  0  0  0  0  0  0  # atno 17343 bound_to 10162
  156.0894  130.5884  150.9706 LP  0  0  0  0  0  0  0  0  0  0  0  0  # atno 17370 bound_to 10713
  157.6368  131.0915  150.8331 LP  0  0  0  0  0  0  0  0  0  0  0  0  # atno 17371 bound_to 10713
  140.6631  134.4947  157.5584 LP  0  0  0  0  0  0  0  0  0  0  0  0  # atno 17394 bound_to 11000
  139.9125  134.8314  156.1478 LP  0  0  0  0  0  0  0  0  0  0  0  0  # atno 17395 bound_to 11000

$$$$
