AV-unprocessed.smi:1665|AV-procd|sdf|6669|dock6
  -GOLD-   22720 7383D 1   1.00000     0.00000
 Structure written by MMmdl.
 37 38  0  0  0  0  0  0  0  0  1 V2000
  151.6469  140.0121  156.4993 C   0  0  0  0  0  0  0  0  0  0  0  0
  150.5210  140.2591  157.5158 C   0  0  2  0  0  0  0  0  0  0  0  0
  151.0588  140.9163  158.8012 C   0  0  0  0  0  0  0  0  0  0  0  0
  151.6163  142.2355  158.5589 N   0  0  0  0  0  0  0  0  0  0  0  0
  151.1217  143.2399  157.7543 C   0  0  0  0  0  0  0  0  0  0  0  0
  151.9861  144.2931  157.8426 C   0  0  0  0  0  0  0  0  0  0  0  0
  152.9914  143.8312  158.7376 C   0  0  0  0  0  0  0  0  0  0  0  0
  152.7656  142.6008  159.1671 N   0  0  0  0  0  0  0  0  0  0  0  0
  149.8483  139.0031  157.8397 N   0  0  0  0  0  0  0  0  0  0  0  0
  150.3702  138.0087  158.5724 C   0  0  0  0  0  0  0  0  0  0  0  0
  151.4711  138.0750  159.1192 O   0  0  0  0  0  0  0  0  0  0  0  0
  149.5246  136.7373  158.6945 C   0  0  0  0  0  0  0  0  0  0  0  0
  148.1729  136.9682  159.4049 C   0  0  0  0  0  0  0  0  0  0  0  0
  147.8807  135.9627  160.4297 N   0  0  0  0  0  0  0  0  0  0  0  0
  147.9886  134.5472  160.1043 C   0  0  0  0  0  0  0  0  0  0  0  0
  147.2925  133.7670  161.2204 C   0  0  0  0  0  0  0  0  0  0  0  0
  147.3455  134.7895  162.7057 S   0  0  0  0  0  0  0  0  0  0  0  0
  147.6160  136.2882  161.7530 C   0  0  0  0  0  0  0  0  0  0  0  0
  147.5656  137.4074  162.2596 O   0  0  0  0  0  0  0  0  0  0  0  0
  152.1419  140.9455  156.2304 H   0  0  0  0  0  0  0  0  0  0  0  0
  151.2626  139.5702  155.5795 H   0  0  0  0  0  0  0  0  0  0  0  0
  152.4038  139.3378  156.9017 H   0  0  0  0  0  0  0  0  0  0  0  0
  149.7983  140.9425  157.0652 H   0  0  0  0  0  0  0  0  0  0  0  0
  150.2715  140.9926  159.5532 H   0  0  0  0  0  0  0  0  0  0  0  0
  151.8442  140.2975  159.2369 H   0  0  0  0  0  0  0  0  0  0  0  0
  150.2062  143.1227  157.1934 H   0  0  0  0  0  0  0  0  0  0  0  0
  151.9112  145.2494  157.3465 H   0  0  0  0  0  0  0  0  0  0  0  0
  153.8687  144.3527  159.0909 H   0  0  0  0  0  0  0  0  0  0  0  0
  148.9379  138.8578  157.4270 H   0  0  0  0  0  0  0  0  0  0  0  0
  149.3452  136.3522  157.6903 H   0  0  0  0  0  0  0  0  0  0  0  0
  150.0916  135.9656  159.2172 H   0  0  0  0  0  0  0  0  0  0  0  0
  148.1566  137.9622  159.8546 H   0  0  0  0  0  0  0  0  0  0  0  0
  147.3688  136.9657  158.6677 H   0  0  0  0  0  0  0  0  0  0  0  0
  147.5488  134.3221  159.1322 H   0  0  0  0  0  0  0  0  0  0  0  0
  149.0461  134.2838  160.0595 H   0  0  0  0  0  0  0  0  0  0  0  0
  146.2454  133.6057  160.9622 H   0  0  0  0  0  0  0  0  0  0  0  0
  147.7484  132.7919  161.3925 H   0  0  0  0  0  0  0  0  0  0  0  0
  1  2  1  0  0  0  0
  1 20  1  0  0  0  0
  1 21  1  0  0  0  0
  1 22  1  0  0  0  0
  2  3  1  0  0  0  0
  2  9  1  0  0  0  0
  2 23  1  0  0  0  0
  3  4  1  0  0  0  0
  3 24  1  0  0  0  0
  3 25  1  0  0  0  0
  4  8  1  0  0  0  0
  4  5  1  0  0  0  0
  5  6  2  0  0  0  0
  5 26  1  0  0  0  0
  6  7  1  0  0  0  0
  6 27  1  0  0  0  0
  7  8  2  0  0  0  0
  7 28  1  0  0  0  0
  9 10  1  0  0  0  0
  9 29  1  0  0  0  0
 10 11  2  0  0  0  0
 10 12  1  0  0  0  0
 12 13  1  0  0  0  0
 12 30  1  0  0  0  0
 12 31  1  0  0  0  0
 13 14  1  0  0  0  0
 13 32  1  0  0  0  0
 13 33  1  0  0  0  0
 14 18  1  0  0  0  0
 14 15  1  0  0  0  0
 15 16  1  0  0  0  0
 15 34  1  0  0  0  0
 15 35  1  0  0  0  0
 16 17  1  0  0  0  0
 16 36  1  0  0  0  0
 16 37  1  0  0  0  0
 17 18  1  0  0  0  0
 18 19  2  0  0  0  0
M  END
> <s_m_source_file>
AV-unprocessed.smi

> <i_m_source_file_index>
1665

> <i_lp_mmshare_version>
43012

> <i_f3d_flags>
0

> <s_epik_input>
bjFbY0hdW2NIXVtjSF1uMVtDSDJdW0NAQEhdKFtDSDNdKVtOSF1DKD1PKVtDSDJdW0NIMl1OMltDSDJdW0NIMl1TQzI9Tw==

> <s_epik_cmdline>
J2VwaWtfcHl0aG9uJywgJy1waCcsICc3LjAnLCAnLXRuJywgJzgnLCAnLW1hJywgJzIwMCcsICctbWV0YWxfYmluZGluZycsICctaW1hZScsICc8aW5maWxlLm1hZT4nLCAnLW9tYWUnLCAnPG91dGZpbGUubWFlPic=

> <r_lp_tautomer_probability>
1

> <r_epik_Ionization_Penalty>
0.000300775

> <r_epik_Ionization_Penalty_Charging>
0

> <r_epik_Ionization_Penalty_Neutral>
0.000300775

> <r_epik_State_Penalty>
-0

> <r_epik_Charging_Adjusted_Penalty>
0

> <i_epik_Tot_Q>
0

> <i_epik_Tot_abs_Q>
0

> <r_epik_Metal_State_Penalty>
-0

> <b_epik_Metal_Only>
0

> <s_lp_Force_Field>
OPLS_2005

> <r_lp_Energy>
0.465271

> <b_lp_Chiralities_Consistent>
1

> <s_lp_Variant>
AV-unprocessed.smi:1665-1

> <Gold.Version>
5.8.1

> <Gold.Id.Protein>
6NUR|6NUR_protein|mol2

> <Gold.PLP.Fitness>
44.7346

> <Gold.PLP.PLP>
-39.1621

> <Gold.PLP.part.hbond>
-2.0000

> <Gold.PLP.part.metal>
0.0000

> <Gold.PLP.part.buried>
-4.8478

> <Gold.PLP.part.nonpolar>
-33.1077

> <Gold.PLP.part.repulsive>
0.1053

> <Gold.PLP.ligand.clash>
0.0000

> <Gold.PLP.ligand.torsion>
0.7417

> <Gold.PLP.Chemscore.Hbond>
1.3231

> <Gold.PLP.Chemscore.CHOScore>
1.0000

> <Gold.PLP.Chemscore.Metal>
0.0000

> <Gold.Chemscore.Hbonds>
donor molecule, donor type, donor heavy atom, donor atom, acceptor molecule, acceptor atom, score
      P1  H  6931  6943       L1    19  0.78
      P1  H  6934  6947       L1    19  0.42
      L1  C     5    26       P1  8028  0.90

> <Gold.PLP.Chemscore.Internal.Correction>
0.0866

> <Gold.Rescore>
     Score         DG    S(hbond)    S(metal)    S(lipo)     H(rot)  DE(clash)    DE(int)     intcor
     12.60     -14.63       1.67        0.00      78.77       2.20       0.15       1.88       ----

> <Gold.Chemscore.Fitness>
12.6028

> <Gold.Chemscore.DG>
-14.6304

> <Gold.Chemscore.ZeroCoef>
-5.4800

> <Gold.Chemscore.Hbond>
1.6686

> <Gold.Chemscore.Metal>
0.0000

> <Gold.Chemscore.Lipo>
78.7681

> <Gold.Chemscore.Internal_Hbond>
0.0000

> <Gold.Chemscore.DEClash>
0.1461

> <Gold.Chemscore.DEInternal>
1.8814

> <Gold.Chemscore.Rot>
2.2026

> <Gold.Chemscore.Internal.Correction>
   9.000000E+99

> <Gold.Chemscore.Hbonds>
donor molecule, donor type, donor heavy atom, donor atom, acceptor molecule, acceptor atom, score
      P1  H  6931  6943       L1    19  0.59
      P1  H  6934  6947       L1    19  0.39

> <Gold.Chemscore.Hbond.Weighted>
-5.5732

> <Gold.Chemscore.Metal.Weighted>
-0.0000

> <Gold.Chemscore.Lipo.Weighted>
-9.2159

> <Gold.Chemscore.Internal_Hbond.Weighted>
0.0000

> <Gold.Chemscore.DEClash.Weighted>
0.1461

> <Gold.Chemscore.DEInternal.Weighted>
1.8814

> <Gold.Chemscore.Rot.Weighted>
5.6387

> <Gold.Chemscore.Internal.Correction.Weighted>
   9.000000E+99

> <Gold.Protein.RotatedTorsions>
[ 6907 6896 6895 6894 ] final  -87.16 input  -60.11 | X-H torsion
[ 7974 7965 7964 7962 ] final  -95.96 input  175.53 | X-H torsion
[ 8008 7997 7996 7995 ] final    7.83 input   59.86 | X-H torsion
[ 10167 10162 10161 10158 ] final  -99.26 input  -65.29 | X-H torsion
[ 10718 10713 10712 10709 ] final   31.11 input   66.30 | X-H torsion
[ 10763 10752 10751 10750 ] final -152.35 input  -60.55 | X-H torsion
[ 11005 11000 10999 10996 ] final  156.47 input  -57.11 | X-H torsion

> <Gold.Protein.ActiveResidues>
 VAL166  LYS551  ARG553  GLY616  TRP617  ASP618  TYR619  PRO620  LYS621  CYS622 
 ASP623  PHE694  ASN695  SER759  ASP760  ASP761  ALA762  ILE779  LEU786  VAL792 
 PHE793  MET794  SER795  GLU796  ALA797  LYS798  CYS799  TRP800  GLU811  SER814 

> <Gold.Protein.RotatedAtoms>
  150.6866  134.2939  159.4677 H   0  0  0  0  0  0  0  0  0  0  0  0  # atno 6907 bound_to 6896
  152.0842  134.9448  160.0582 H   0  0  0  0  0  0  0  0  0  0  0  0  # atno 6908 bound_to 6896
  152.0789  133.4108  159.4529 H   0  0  0  0  0  0  0  0  0  0  0  0  # atno 6909 bound_to 6896
  145.3531  140.9480  143.2543 H   0  0  0  0  0  0  0  0  0  0  0  0  # atno 7974 bound_to 7965
  154.7590  140.2781  155.6230 H   0  0  0  0  0  0  0  0  0  0  0  0  # atno 8008 bound_to 7997
  156.2911  140.2664  156.2290 H   0  0  0  0  0  0  0  0  0  0  0  0  # atno 8009 bound_to 7997
  155.0042  140.0372  157.2362 H   0  0  0  0  0  0  0  0  0  0  0  0  # atno 8010 bound_to 7997
  140.2644  143.3386  152.0595 H   0  0  0  0  0  0  0  0  0  0  0  0  # atno 10167 bound_to 10162
  157.2683  130.7195  149.6490 H   0  0  0  0  0  0  0  0  0  0  0  0  # atno 10718 bound_to 10713
  154.8000  135.3238  154.7574 H   0  0  0  0  0  0  0  0  0  0  0  0  # atno 10763 bound_to 10752
  153.8244  135.6885  153.4827 H   0  0  0  0  0  0  0  0  0  0  0  0  # atno 10764 bound_to 10752
  153.1711  135.4623  154.9847 H   0  0  0  0  0  0  0  0  0  0  0  0  # atno 10765 bound_to 10752
  140.1678  134.8565  157.2653 H   0  0  0  0  0  0  0  0  0  0  0  0  # atno 11005 bound_to 11000
  144.8702  139.5049  143.6771 LP  0  0  0  0  0  0  0  0  0  0  0  0  # atno 17320 bound_to 7965
  146.2959  139.7278  142.9127 LP  0  0  0  0  0  0  0  0  0  0  0  0  # atno 17321 bound_to 7965
  139.5007  144.6698  151.6270 LP  0  0  0  0  0  0  0  0  0  0  0  0  # atno 17342 bound_to 10162
  140.5940  143.9728  150.6343 LP  0  0  0  0  0  0  0  0  0  0  0  0  # atno 17343 bound_to 10162
  155.9663  130.4375  150.5181 LP  0  0  0  0  0  0  0  0  0  0  0  0  # atno 17370 bound_to 10713
  157.3100  131.0662  151.2008 LP  0  0  0  0  0  0  0  0  0  0  0  0  # atno 17371 bound_to 10713
  140.2414  134.3791  155.7479 LP  0  0  0  0  0  0  0  0  0  0  0  0  # atno 17394 bound_to 11000
  141.2215  133.7267  156.8794 LP  0  0  0  0  0  0  0  0  0  0  0  0  # atno 17395 bound_to 11000

$$$$
