AV-unprocessed.smi:39|AV-procd|sdf|362|dock3
  -GOLD-   2262016203D 1   1.00000     0.00000
 Structure written by MMmdl.
 31 32  0  0  0  0  0  0  0  0  4 V2000
  151.9658  144.8070  157.7863 C   0  0  0  0  0  0  0  0  0  0  0  0
  152.0222  143.2941  157.9057 C   0  0  0  0  0  0  0  0  0  0  0  0
  151.1209  142.4891  157.3002 C   0  0  0  0  0  0  0  0  0  0  0  0
  151.1755  141.1090  157.4114 N   0  0  0  0  0  0  0  0  0  0  0  0
  150.1544  140.2103  156.7400 C   0  0  2  0  0  0  0  0  0  0  0  0
  150.7824  139.4626  155.5478 C   0  0  0  0  0  0  0  0  0  0  0  0
  149.8067  139.7447  154.4136 C   0  0  1  0  0  0  0  0  0  0  0  0
  148.7324  138.7423  154.3721 N   0  0  0  0  0  0  0  0  0  0  0  0
  148.0616  138.6062  155.4035 N   0  3  0  0  0  0  0  0  0  0  0  0
  147.4938  138.3651  156.3598 N   0  5  0  0  0  0  0  0  0  0  0  0
  149.2889  141.1297  154.8190 C   0  0  1  0  0  0  0  0  0  0  0  0
  147.9821  141.5684  154.1360 C   0  0  0  0  0  0  0  0  0  0  0  0
  147.4538  142.7060  154.7844 O   0  0  0  0  0  0  0  0  0  0  0  0
  149.1064  140.9790  156.2222 O   0  0  0  0  0  0  0  0  0  0  0  0
  152.1945  140.5124  158.2000 C   0  0  0  0  0  0  0  0  0  0  0  0
  152.2068  139.2845  158.2942 O   0  0  0  0  0  0  0  0  0  0  0  0
  153.1095  141.3164  158.8125 N   0  5  0  0  0  0  0  0  0  0  0  0
  153.0844  142.6759  158.7082 C   0  0  0  0  0  0  0  0  0  0  0  0
  153.9187  143.3901  159.2637 O   0  0  0  0  0  0  0  0  0  0  0  0
  149.7727  139.5584  157.5275 H   0  0  0  0  0  0  0  0  0  0  0  0
  150.3221  139.8008  153.4529 H   0  0  0  0  0  0  0  0  0  0  0  0
  150.0759  141.8620  154.6262 H   0  0  0  0  0  0  0  0  0  0  0  0
  151.1386  145.1243  157.1507 H   0  0  0  0  0  0  0  0  0  0  0  0
  152.8904  145.1900  157.3530 H   0  0  0  0  0  0  0  0  0  0  0  0
  151.8309  145.2604  158.7687 H   0  0  0  0  0  0  0  0  0  0  0  0
  150.3395  142.9521  156.7177 H   0  0  0  0  0  0  0  0  0  0  0  0
  151.7602  139.8876  155.3147 H   0  0  0  0  0  0  0  0  0  0  0  0
  150.9117  138.4036  155.7745 H   0  0  0  0  0  0  0  0  0  0  0  0
  148.1758  141.8438  153.0990 H   0  0  0  0  0  0  0  0  0  0  0  0
  147.2468  140.7631  154.1280 H   0  0  0  0  0  0  0  0  0  0  0  0
  148.1180  143.3779  154.8004 H   0  0  0  0  0  0  0  0  0  0  0  0
  1  2  1  0  0  0  0
  1 23  1  0  0  0  0
  1 24  1  0  0  0  0
  1 25  1  0  0  0  0
  2 18  1  0  0  0  0
  2  3  2  0  0  0  0
  3  4  1  0  0  0  0
  3 26  1  0  0  0  0
  4  5  1  0  0  0  0
  4 15  1  0  0  0  0
  5 20  1  0  0  0  0
  5 14  1  0  0  0  0
  5  6  1  0  0  0  0
  6  7  1  0  0  0  0
  6 27  1  0  0  0  0
  6 28  1  0  0  0  0
  7 21  1  0  0  0  0
  7  8  1  0  0  0  0
  7 11  1  0  0  0  0
  8  9  2  0  0  0  0
  9 10  2  0  0  0  0
 11 22  1  0  0  0  0
 11 12  1  0  0  0  0
 11 14  1  0  0  0  0
 12 13  1  0  0  0  0
 12 29  1  0  0  0  0
 12 30  1  0  0  0  0
 13 31  1  0  0  0  0
 15 16  2  0  0  0  0
 15 17  1  0  0  0  0
 17 18  1  0  0  0  0
 18 19  2  0  0  0  0
M  CHG  1   9   1
M  CHG  1  10  -1
M  CHG  1  17  -1
M  END
> <s_m_source_file>
AV-unprocessed.smi

> <i_m_source_file_index>
39

> <i_lp_mmshare_version>
43012

> <i_f3d_flags>
0

> <s_epik_input>
Tz1jMVtuSF1jKD1PKW4oW2NIXWMxW0NIM10pW0NASF0yW0NIMl1bQ0BIXShOPVtOK109W04tXSlbQ0BIXShPMilbQ0gyXVtPSF0=

> <s_epik_cmdline>
J2VwaWtfcHl0aG9uJywgJy1waCcsICc3LjAnLCAnLXRuJywgJzgnLCAnLW1hJywgJzIwMCcsICctbWV0YWxfYmluZGluZycsICctaW1hZScsICc8aW5maWxlLm1hZT4nLCAnLW9tYWUnLCAnPG91dGZpbGUubWFlPic=

> <r_lp_tautomer_probability>
0.999537

> <r_epik_Ionization_Penalty>
3.6393

> <r_epik_Ionization_Penalty_Charging>
9.76484e-08

> <r_epik_Ionization_Penalty_Neutral>
3.6393

> <r_epik_State_Penalty>
3.63887

> <r_epik_Charging_Adjusted_Penalty>
3.63887

> <i_epik_Tot_Q>
-1

> <i_epik_Tot_abs_Q>
3

> <r_epik_Metal_State_Penalty>
0.225911

> <b_epik_Metal_Only>
1

> <s_epik_Chemistry_Notes>
This compound contains an acetal/aminal-like group ( X-CH(R)-Y where X, Y are N, S, or O) that may be acid/base labile, releasing an aldehyde.

> <s_lp_Force_Field>
OPLS_2005

> <r_lp_Energy>
37.741

> <b_lp_Chiralities_Consistent>
1

> <s_lp_Variant>
AV-unprocessed.smi:39-12

> <Gold.Version>
5.8.1

> <Gold.Id.Protein>
6NUR|6NUR_protein|mol2

> <Gold.PLP.Fitness>
36.4252

> <Gold.PLP.PLP>
-30.9834

> <Gold.PLP.part.hbond>
-1.0000

> <Gold.PLP.part.metal>
0.0000

> <Gold.PLP.part.buried>
-4.3334

> <Gold.PLP.part.nonpolar>
-26.5901

> <Gold.PLP.part.repulsive>
0.3303

> <Gold.PLP.ligand.clash>
0.0000

> <Gold.PLP.ligand.torsion>
0.3029

> <Gold.PLP.Chemscore.Hbond>
1.0000

> <Gold.PLP.Chemscore.CHOScore>
1.0000

> <Gold.PLP.Chemscore.Metal>
0.0000

> <Gold.Chemscore.Hbonds>
donor molecule, donor type, donor heavy atom, donor atom, acceptor molecule, acceptor atom, score
      L1  H    13    31       P1  8028  0.98
      L1  C     3    26       P1  8028  1.00

> <Gold.PLP.Chemscore.Internal.Correction>
0.0476

> <Gold.Rescore>
     Score         DG    S(hbond)    S(metal)    S(lipo)     H(rot)  DE(clash)    DE(int)     intcor
      5.65      -9.09       0.94        0.00      63.35       2.72       0.01       3.43       ----

> <Gold.Chemscore.Fitness>
5.6499

> <Gold.Chemscore.DG>
-9.0884

> <Gold.Chemscore.ZeroCoef>
-5.4800

> <Gold.Chemscore.Hbond>
0.9426

> <Gold.Chemscore.Metal>
0.0000

> <Gold.Chemscore.Lipo>
63.3452

> <Gold.Chemscore.Internal_Hbond>
0.0000

> <Gold.Chemscore.DEClash>
0.0073

> <Gold.Chemscore.DEInternal>
3.4312

> <Gold.Chemscore.Rot>
2.7153

> <Gold.Chemscore.Internal.Correction>
   9.000000E+99

> <Gold.Chemscore.Hbonds>
donor molecule, donor type, donor heavy atom, donor atom, acceptor molecule, acceptor atom, score
      L1  H    13    31       P1  8028  0.85

> <Gold.Chemscore.Hbond.Weighted>
-3.1482

> <Gold.Chemscore.Metal.Weighted>
-0.0000

> <Gold.Chemscore.Lipo.Weighted>
-7.4114

> <Gold.Chemscore.Internal_Hbond.Weighted>
0.0000

> <Gold.Chemscore.DEClash.Weighted>
0.0073

> <Gold.Chemscore.DEInternal.Weighted>
3.4312

> <Gold.Chemscore.Rot.Weighted>
6.9512

> <Gold.Chemscore.Internal.Correction.Weighted>
   9.000000E+99

> <Gold.Protein.RotatedTorsions>
[ 6907 6896 6895 6894 ] final   67.49 input  -60.11 | X-H torsion
[ 7974 7965 7964 7962 ] final -154.26 input  175.53 | X-H torsion
[ 8008 7997 7996 7995 ] final -119.03 input   59.86 | X-H torsion
[ 10167 10162 10161 10158 ] final  112.62 input  -65.29 | X-H torsion
[ 10718 10713 10712 10709 ] final -161.09 input   66.30 | X-H torsion
[ 10763 10752 10751 10750 ] final   94.71 input  -60.55 | X-H torsion
[ 11005 11000 10999 10996 ] final  117.89 input  -57.11 | X-H torsion

> <Gold.Protein.ActiveResidues>
 VAL166  LYS551  ARG553  GLY616  TRP617  ASP618  TYR619  PRO620  LYS621  CYS622 
 ASP623  PHE694  ASN695  SER759  ASP760  ASP761  ALA762  ILE779  LEU786  VAL792 
 PHE793  MET794  SER795  GLU796  ALA797  LYS798  CYS799  TRP800  GLU811  SER814 

> <Gold.Protein.RotatedAtoms>
  152.4555  134.5301  159.9808 H   0  0  0  0  0  0  0  0  0  0  0  0  # atno 6907 bound_to 6896
  151.5362  133.3434  159.2935 H   0  0  0  0  0  0  0  0  0  0  0  0  # atno 6908 bound_to 6896
  150.8498  134.7850  159.7062 H   0  0  0  0  0  0  0  0  0  0  0  0  # atno 6909 bound_to 6896
  144.7698  140.4413  143.5915 H   0  0  0  0  0  0  0  0  0  0  0  0  # atno 7974 bound_to 7965
  155.1091  140.0397  157.2719 H   0  0  0  0  0  0  0  0  0  0  0  0  # atno 8008 bound_to 7997
  154.6699  140.2610  155.6993 H   0  0  0  0  0  0  0  0  0  0  0  0  # atno 8009 bound_to 7997
  156.2654  140.2800  156.1204 H   0  0  0  0  0  0  0  0  0  0  0  0  # atno 8010 bound_to 7997
  139.6522  144.7128  151.2026 H   0  0  0  0  0  0  0  0  0  0  0  0  # atno 10167 bound_to 10162
  156.5913  130.8771  151.2890 H   0  0  0  0  0  0  0  0  0  0  0  0  # atno 10718 bound_to 10713
  153.2447  135.4280  155.0735 H   0  0  0  0  0  0  0  0  0  0  0  0  # atno 10763 bound_to 10752
  154.8356  135.3411  154.6598 H   0  0  0  0  0  0  0  0  0  0  0  0  # atno 10764 bound_to 10752
  153.7021  135.7028  153.5117 H   0  0  0  0  0  0  0  0  0  0  0  0  # atno 10765 bound_to 10752
  139.9090  134.9615  156.7420 H   0  0  0  0  0  0  0  0  0  0  0  0  # atno 11005 bound_to 11000
  145.6357  139.1542  143.2944 LP  0  0  0  0  0  0  0  0  0  0  0  0  # atno 17320 bound_to 7965
  146.1836  140.6457  142.9178 LP  0  0  0  0  0  0  0  0  0  0  0  0  # atno 17321 bound_to 7965
  140.7543  143.6131  150.8586 LP  0  0  0  0  0  0  0  0  0  0  0  0  # atno 17342 bound_to 10162
  139.9780  143.5982  152.2952 LP  0  0  0  0  0  0  0  0  0  0  0  0  # atno 17343 bound_to 10162
  157.7303  130.9683  150.1826 LP  0  0  0  0  0  0  0  0  0  0  0  0  # atno 17370 bound_to 10713
  156.2547  130.3704  149.8194 LP  0  0  0  0  0  0  0  0  0  0  0  0  # atno 17371 bound_to 10713
  140.6842  133.9447  155.7928 LP  0  0  0  0  0  0  0  0  0  0  0  0  # atno 17394 bound_to 11000
  141.0488  134.0515  157.3810 LP  0  0  0  0  0  0  0  0  0  0  0  0  # atno 17395 bound_to 11000

$$$$
