AV-unprocessed.smi:1914|AV-procd|sdf|7758|dock9
  -GOLD-   22720 9503D 1   1.00000     0.00000
 Structure written by MMmdl.
 44 45  0  0  0  0  0  0  0  0  2 V2000
  146.6117  139.7677  151.0691 C   0  0  0  0  0  0  0  0  0  0  0  0
  147.5444  139.4467  152.2502 C   0  0  2  0  0  0  0  0  0  0  0  0
  147.3219  138.0334  152.8197 C   0  0  0  0  0  0  0  0  0  0  0  0
  146.0225  137.9594  153.6341 C   0  0  0  0  0  0  0  0  0  0  0  0
  145.9856  139.0527  154.7135 C   0  0  0  0  0  0  0  0  0  0  0  0
  146.1641  140.4014  154.1165 N   0  3  1  0  0  0  0  0  0  0  0  0
  145.9795  141.4853  155.1140 C   0  0  0  0  0  0  0  0  0  0  0  0
  146.7824  141.2400  156.4016 C   0  0  0  0  0  0  0  0  0  0  0  0
  148.1565  141.6929  156.2374 N   0  0  0  0  0  0  0  0  0  0  0  0
  149.2362  140.9563  156.5338 C   0  0  0  0  0  0  0  0  0  0  0  0
  149.1651  139.8067  156.9698 O   0  0  0  0  0  0  0  0  0  0  0  0
  150.5973  141.6184  156.2747 C   0  0  0  0  0  0  0  0  0  0  0  0
  151.3128  141.9800  157.5099 N   0  0  0  0  0  0  0  0  0  0  0  0
  151.3161  143.3406  157.8766 C   0  0  0  0  0  0  0  0  0  0  0  0
  151.9375  143.7757  158.9841 C   0  0  0  0  0  0  0  0  0  0  0  0
  152.6175  142.8069  159.8106 C   0  0  0  0  0  0  0  0  0  0  0  0
  152.6229  141.5033  159.4678 C   0  0  0  0  0  0  0  0  0  0  0  0
  151.9450  141.0234  158.2581 C   0  0  0  0  0  0  0  0  0  0  0  0
  151.9443  139.8347  157.9360 O   0  0  0  0  0  0  0  0  0  0  0  0
  147.4483  140.5030  153.3705 C   0  0  0  0  0  0  0  0  0  0  0  0
  145.5642  139.7894  151.3701 H   0  0  0  0  0  0  0  0  0  0  0  0
  146.7132  139.0257  150.2765 H   0  0  0  0  0  0  0  0  0  0  0  0
  146.8491  140.7405  150.6376 H   0  0  0  0  0  0  0  0  0  0  0  0
  148.5608  139.4799  151.8556 H   0  0  0  0  0  0  0  0  0  0  0  0
  147.3105  137.2940  152.0183 H   0  0  0  0  0  0  0  0  0  0  0  0
  148.1613  137.7705  153.4651 H   0  0  0  0  0  0  0  0  0  0  0  0
  145.1609  138.0642  152.9739 H   0  0  0  0  0  0  0  0  0  0  0  0
  145.9322  136.9768  154.0984 H   0  0  0  0  0  0  0  0  0  0  0  0
  145.0296  139.0016  155.2358 H   0  0  0  0  0  0  0  0  0  0  0  0
  146.7637  138.8763  155.4582 H   0  0  0  0  0  0  0  0  0  0  0  0
  146.3175  142.4296  154.6844 H   0  0  0  0  0  0  0  0  0  0  0  0
  144.9177  141.6090  155.3333 H   0  0  0  0  0  0  0  0  0  0  0  0
  146.3424  141.7691  157.2471 H   0  0  0  0  0  0  0  0  0  0  0  0
  146.7783  140.1768  156.6478 H   0  0  0  0  0  0  0  0  0  0  0  0
  148.2984  142.6276  155.8818 H   0  0  0  0  0  0  0  0  0  0  0  0
  151.1952  140.9348  155.6704 H   0  0  0  0  0  0  0  0  0  0  0  0
  150.4616  142.5046  155.6517 H   0  0  0  0  0  0  0  0  0  0  0  0
  150.7913  144.0015  157.2022 H   0  0  0  0  0  0  0  0  0  0  0  0
  151.9323  144.8232  159.2473 H   0  0  0  0  0  0  0  0  0  0  0  0
  153.1260  143.1294  160.7072 H   0  0  0  0  0  0  0  0  0  0  0  0
  153.1380  140.7928  160.0977 H   0  0  0  0  0  0  0  0  0  0  0  0
  148.2760  140.3726  154.0695 H   0  0  0  0  0  0  0  0  0  0  0  0
  147.5650  141.4958  152.9377 H   0  0  0  0  0  0  0  0  0  0  0  0
  145.4216  140.5074  153.4398 H   0  0  0  0  0  0  0  0  0  0  0  0
  1  2  1  0  0  0  0
  1 21  1  0  0  0  0
  1 22  1  0  0  0  0
  1 23  1  0  0  0  0
  2 20  1  0  0  0  0
  2  3  1  0  0  0  0
  2 24  1  0  0  0  0
  3  4  1  0  0  0  0
  3 25  1  0  0  0  0
  3 26  1  0  0  0  0
  4  5  1  0  0  0  0
  4 27  1  0  0  0  0
  4 28  1  0  0  0  0
  5  6  1  0  0  0  0
  5 29  1  0  0  0  0
  5 30  1  0  0  0  0
  6  7  1  0  0  0  0
  6 20  1  0  0  0  0
  6 44  1  0  0  0  0
  7  8  1  0  0  0  0
  7 31  1  0  0  0  0
  7 32  1  0  0  0  0
  8  9  1  0  0  0  0
  8 33  1  0  0  0  0
  8 34  1  0  0  0  0
  9 10  1  0  0  0  0
  9 35  1  0  0  0  0
 10 11  2  0  0  0  0
 10 12  1  0  0  0  0
 12 13  1  0  0  0  0
 12 36  1  0  0  0  0
 12 37  1  0  0  0  0
 13 18  1  0  0  0  0
 13 14  1  0  0  0  0
 14 15  2  0  0  0  0
 14 38  1  0  0  0  0
 15 16  1  0  0  0  0
 15 39  1  0  0  0  0
 16 17  2  0  0  0  0
 16 40  1  0  0  0  0
 17 18  1  0  0  0  0
 17 41  1  0  0  0  0
 18 19  2  0  0  0  0
 20 42  1  0  0  0  0
 20 43  1  0  0  0  0
M  CHG  1   6   1
M  END
> <s_m_source_file>
AV-unprocessed.smi

> <i_m_source_file_index>
1914

> <i_lp_mmshare_version>
43012

> <i_f3d_flags>
0

> <s_epik_input>
W0NIM11bQ0BASF0xW0NIMl1bQ0gyXVtDSDJdTihbQ0gyXTEpW0NIMl1bQ0gyXVtOSF1DKD1PKVtDSDJdbjJbY0hdW2NIXVtjSF1bY0hdYzI9Tw==

> <s_epik_cmdline>
J2VwaWtfcHl0aG9uJywgJy1waCcsICc3LjAnLCAnLXRuJywgJzgnLCAnLW1hJywgJzIwMCcsICctbWV0YWxfYmluZGluZycsICctaW1hZScsICc8aW5maWxlLm1hZT4nLCAnLW9tYWUnLCAnPG91dGZpbGUubWFlPic=

> <r_lp_tautomer_probability>
1

> <r_epik_Ionization_Penalty>
0.00192477

> <r_epik_Ionization_Penalty_Charging>
0.00192469

> <r_epik_Ionization_Penalty_Neutral>
8.16761e-08

> <r_epik_State_Penalty>
0.00131115

> <r_epik_Charging_Adjusted_Penalty>
0.00323584

> <i_epik_Tot_Q>
1

> <i_epik_Tot_abs_Q>
1

> <r_epik_Metal_State_Penalty>
-0

> <b_epik_Metal_Only>
0

> <s_lp_Force_Field>
OPLS_2005

> <r_lp_Energy>
28.3213

> <b_lp_Chiralities_Consistent>
1

> <s_lp_Variant>
AV-unprocessed.smi:1914-3

> <Gold.Version>
5.8.1

> <Gold.Id.Protein>
6NUR|6NUR_protein|mol2

> <Gold.PLP.Fitness>
48.6201

> <Gold.PLP.PLP>
-38.9028

> <Gold.PLP.part.hbond>
-1.9711

> <Gold.PLP.part.metal>
0.0000

> <Gold.PLP.part.buried>
-1.9869

> <Gold.PLP.part.nonpolar>
-36.2075

> <Gold.PLP.part.repulsive>
0.0816

> <Gold.PLP.ligand.clash>
0.0000

> <Gold.PLP.ligand.torsion>
0.6163

> <Gold.PLP.Chemscore.Hbond>
2.6400

> <Gold.PLP.Chemscore.CHOScore>
1.0000

> <Gold.PLP.Chemscore.Metal>
0.0000

> <Gold.Chemscore.Hbonds>
donor molecule, donor type, donor heavy atom, donor atom, acceptor molecule, acceptor atom, score
      L1  H     6    44       P1 10175  2.00
      L1  H     9    35       P1  8028  0.65
      L1  C    14    38       P1  8028  1.00

> <Gold.PLP.Chemscore.Internal.Correction>
0.0299

> <Gold.Rescore>
     Score         DG    S(hbond)    S(metal)    S(lipo)     H(rot)  DE(clash)    DE(int)     intcor
     16.30     -17.34       1.77        0.00      91.42       1.86       0.42       0.62       ----

> <Gold.Chemscore.Fitness>
16.3048

> <Gold.Chemscore.DG>
-17.3371

> <Gold.Chemscore.ZeroCoef>
-5.4800

> <Gold.Chemscore.Hbond>
1.7723

> <Gold.Chemscore.Metal>
0.0000

> <Gold.Chemscore.Lipo>
91.4166

> <Gold.Chemscore.Internal_Hbond>
0.0000

> <Gold.Chemscore.DEClash>
0.4160

> <Gold.Chemscore.DEInternal>
0.6164

> <Gold.Chemscore.Rot>
1.8586

> <Gold.Chemscore.Internal.Correction>
   9.000000E+99

> <Gold.Chemscore.Hbonds>
donor molecule, donor type, donor heavy atom, donor atom, acceptor molecule, acceptor atom, score
      L1  H     6    44       P1 10175  0.94
      L1  H     9    35       P1  8028  0.63

> <Gold.Chemscore.Hbond.Weighted>
-5.9195

> <Gold.Chemscore.Metal.Weighted>
-0.0000

> <Gold.Chemscore.Lipo.Weighted>
-10.6957

> <Gold.Chemscore.Internal_Hbond.Weighted>
0.0000

> <Gold.Chemscore.DEClash.Weighted>
0.4160

> <Gold.Chemscore.DEInternal.Weighted>
0.6164

> <Gold.Chemscore.Rot.Weighted>
4.7581

> <Gold.Chemscore.Internal.Correction.Weighted>
   9.000000E+99

> <Gold.Protein.RotatedTorsions>
[ 6907 6896 6895 6894 ] final  -53.55 input  -60.11 | X-H torsion
[ 7974 7965 7964 7962 ] final   -0.32 input  175.53 | X-H torsion
[ 8008 7997 7996 7995 ] final  -90.19 input   59.86 | X-H torsion
[ 10167 10162 10161 10158 ] final   59.92 input  -65.29 | X-H torsion
[ 10718 10713 10712 10709 ] final  -46.10 input   66.30 | X-H torsion
[ 10763 10752 10751 10750 ] final -113.31 input  -60.55 | X-H torsion
[ 11005 11000 10999 10996 ] final  147.83 input  -57.11 | X-H torsion

> <Gold.Protein.ActiveResidues>
 VAL166  LYS551  ARG553  GLY616  TRP617  ASP618  TYR619  PRO620  LYS621  CYS622 
 ASP623  PHE694  ASN695  SER759  ASP760  ASP761  ALA762  ILE779  LEU786  VAL792 
 PHE793  MET794  SER795  GLU796  ALA797  LYS798  CYS799  TRP800  GLU811  SER814 

> <Gold.Protein.RotatedAtoms>
  150.8417  134.7711  159.6937 H   0  0  0  0  0  0  0  0  0  0  0  0  # atno 6907 bound_to 6896
  152.4503  134.5405  159.9847 H   0  0  0  0  0  0  0  0  0  0  0  0  # atno 6908 bound_to 6896
  151.5543  133.3375  159.2995 H   0  0  0  0  0  0  0  0  0  0  0  0  # atno 6909 bound_to 6896
  146.2428  140.1252  142.8339 H   0  0  0  0  0  0  0  0  0  0  0  0  # atno 7974 bound_to 7965
  154.6956  140.0533  157.0407 H   0  0  0  0  0  0  0  0  0  0  0  0  # atno 8008 bound_to 7997
  155.0756  140.3204  155.4598 H   0  0  0  0  0  0  0  0  0  0  0  0  # atno 8009 bound_to 7997
  156.2743  140.2074  156.5883 H   0  0  0  0  0  0  0  0  0  0  0  0  # atno 8010 bound_to 7997
  140.1711  144.4275  150.6661 H   0  0  0  0  0  0  0  0  0  0  0  0  # atno 10167 bound_to 10162
  156.2217  130.4166  149.8985 H   0  0  0  0  0  0  0  0  0  0  0  0  # atno 10718 bound_to 10713
  154.8390  135.4459  154.1329 H   0  0  0  0  0  0  0  0  0  0  0  0  # atno 10763 bound_to 10752
  153.2534  135.6929  153.7660 H   0  0  0  0  0  0  0  0  0  0  0  0  # atno 10764 bound_to 10752
  153.6964  135.3379  155.3190 H   0  0  0  0  0  0  0  0  0  0  0  0  # atno 10765 bound_to 10752
  140.0908  134.9042  157.1648 H   0  0  0  0  0  0  0  0  0  0  0  0  # atno 11005 bound_to 11000
  145.0373  140.8918  143.5074 LP  0  0  0  0  0  0  0  0  0  0  0  0  # atno 17320 bound_to 7965
  145.1326  139.2622  143.5531 LP  0  0  0  0  0  0  0  0  0  0  0  0  # atno 17321 bound_to 7965
  140.6581  143.2243  151.5921 LP  0  0  0  0  0  0  0  0  0  0  0  0  # atno 17342 bound_to 10162
  139.5337  144.2841  152.1205 LP  0  0  0  0  0  0  0  0  0  0  0  0  # atno 17343 bound_to 10162
  156.6629  130.8789  151.3550 LP  0  0  0  0  0  0  0  0  0  0  0  0  # atno 17370 bound_to 10713
  157.7090  130.9419  150.1027 LP  0  0  0  0  0  0  0  0  0  0  0  0  # atno 17371 bound_to 10713
  140.3354  134.2763  155.7221 LP  0  0  0  0  0  0  0  0  0  0  0  0  # atno 17394 bound_to 11000
  141.2077  133.7798  157.0102 LP  0  0  0  0  0  0  0  0  0  0  0  0  # atno 17395 bound_to 11000

$$$$
