AV-unprocessed.smi:1285|AV-procd|sdf|5371|dock6
  -GOLD-   22720 4513D 1   1.00000     0.00000
 Structure written by MMmdl.
 47 48  0  0  0  0  0  0  0  0  2 V2000
  151.5366  138.9217  155.7554 C   0  0  0  0  0  0  0  0  0  0  0  0
  151.9060  140.1932  156.5400 C   0  0  0  0  0  0  0  0  0  0  0  0
  150.8710  140.6480  157.6153 C   0  0  1  0  0  0  0  0  0  0  0  0
  149.5016  140.7930  156.8990 C   0  0  0  0  0  0  0  0  0  0  0  0
  150.7443  139.5571  158.7247 C   0  0  0  0  0  0  0  0  0  0  0  0
  149.8524  138.4619  158.3500 N   0  0  0  0  0  0  0  0  0  0  0  0
  150.0353  137.1635  158.6369 C   0  0  0  0  0  0  0  0  0  0  0  0
  150.9596  136.7491  159.3374 O   0  0  0  0  0  0  0  0  0  0  0  0
  149.0395  136.1912  157.9890 C   0  0  2  0  0  0  0  0  0  0  0  0
  148.1310  135.4868  159.0141 C   0  0  0  0  0  0  0  0  0  0  0  0
  149.7668  135.2287  157.1726 N   0  0  0  0  0  0  0  0  0  0  0  0
  149.7783  135.0346  155.8507 C   0  0  0  0  0  0  0  0  0  0  0  0
  150.5292  134.0130  155.4645 N   0  0  0  0  0  0  0  0  0  0  0  0
  150.9813  133.5895  156.6817 C   0  0  0  0  0  0  0  0  0  0  0  0
  150.5460  134.2757  157.7383 N   0  0  0  0  0  0  0  0  0  0  0  0
  151.2951  141.9675  158.2117 N   0  3  0  0  0  0  0  0  0  0  0  0
  152.5100  141.9365  159.0747 C   0  0  0  0  0  0  0  0  0  0  0  0
  152.7155  143.2944  159.7678 C   0  0  0  0  0  0  0  0  0  0  0  0
  152.8105  144.3241  158.7938 O   0  0  0  0  0  0  0  0  0  0  0  0
  151.6234  144.4267  158.0205 C   0  0  0  0  0  0  0  0  0  0  0  0
  151.3911  143.1111  157.2600 C   0  0  0  0  0  0  0  0  0  0  0  0
  152.3198  138.6794  155.0367 H   0  0  0  0  0  0  0  0  0  0  0  0
  150.6100  139.0425  155.1948 H   0  0  0  0  0  0  0  0  0  0  0  0
  151.4247  138.0588  156.4115 H   0  0  0  0  0  0  0  0  0  0  0  0
  152.8694  140.0067  157.0149 H   0  0  0  0  0  0  0  0  0  0  0  0
  152.1038  141.0003  155.8351 H   0  0  0  0  0  0  0  0  0  0  0  0
  149.2834  139.9317  156.2661 H   0  0  0  0  0  0  0  0  0  0  0  0
  149.4693  141.6756  156.2598 H   0  0  0  0  0  0  0  0  0  0  0  0
  148.6753  140.8679  157.6062 H   0  0  0  0  0  0  0  0  0  0  0  0
  151.7207  139.1552  158.9960 H   0  0  0  0  0  0  0  0  0  0  0  0
  150.3362  139.9876  159.6384 H   0  0  0  0  0  0  0  0  0  0  0  0
  149.0626  138.7023  157.7678 H   0  0  0  0  0  0  0  0  0  0  0  0
  148.3945  136.7751  157.3290 H   0  0  0  0  0  0  0  0  0  0  0  0
  147.5714  136.2110  159.6073 H   0  0  0  0  0  0  0  0  0  0  0  0
  148.7005  134.8617  159.7030 H   0  0  0  0  0  0  0  0  0  0  0  0
  147.4051  134.8461  158.5123 H   0  0  0  0  0  0  0  0  0  0  0  0
  149.2164  135.6450  155.1587 H   0  0  0  0  0  0  0  0  0  0  0  0
  151.6446  132.7444  156.7931 H   0  0  0  0  0  0  0  0  0  0  0  0
  152.4313  141.1806  159.8536 H   0  0  0  0  0  0  0  0  0  0  0  0
  153.3904  141.6953  158.4783 H   0  0  0  0  0  0  0  0  0  0  0  0
  151.8987  143.5058  160.4599 H   0  0  0  0  0  0  0  0  0  0  0  0
  153.6335  143.2804  160.3556 H   0  0  0  0  0  0  0  0  0  0  0  0
  150.7724  144.6650  158.6608 H   0  0  0  0  0  0  0  0  0  0  0  0
  151.7333  145.2523  157.3172 H   0  0  0  0  0  0  0  0  0  0  0  0
  152.2145  142.9575  156.5624 H   0  0  0  0  0  0  0  0  0  0  0  0
  150.4841  143.2174  156.6684 H   0  0  0  0  0  0  0  0  0  0  0  0
  150.5402  142.2098  158.8377 H   0  0  0  0  0  0  0  0  0  0  0  0
  1  2  1  0  0  0  0
  1 22  1  0  0  0  0
  1 23  1  0  0  0  0
  1 24  1  0  0  0  0
  2  3  1  0  0  0  0
  2 25  1  0  0  0  0
  2 26  1  0  0  0  0
  3  4  1  0  0  0  0
  3  5  1  0  0  0  0
  3 16  1  0  0  0  0
  4 27  1  0  0  0  0
  4 28  1  0  0  0  0
  4 29  1  0  0  0  0
  5  6  1  0  0  0  0
  5 30  1  0  0  0  0
  5 31  1  0  0  0  0
  6  7  1  0  0  0  0
  6 32  1  0  0  0  0
  7  8  2  0  0  0  0
  7  9  1  0  0  0  0
  9 10  1  0  0  0  0
  9 11  1  0  0  0  0
  9 33  1  0  0  0  0
 10 34  1  0  0  0  0
 10 35  1  0  0  0  0
 10 36  1  0  0  0  0
 11 15  1  0  0  0  0
 11 12  1  0  0  0  0
 12 13  2  0  0  0  0
 12 37  1  0  0  0  0
 13 14  1  0  0  0  0
 14 15  2  0  0  0  0
 14 38  1  0  0  0  0
 16 21  1  0  0  0  0
 16 17  1  0  0  0  0
 16 47  1  0  0  0  0
 17 18  1  0  0  0  0
 17 39  1  0  0  0  0
 17 40  1  0  0  0  0
 18 19  1  0  0  0  0
 18 41  1  0  0  0  0
 18 42  1  0  0  0  0
 19 20  1  0  0  0  0
 20 21  1  0  0  0  0
 20 43  1  0  0  0  0
 20 44  1  0  0  0  0
 21 45  1  0  0  0  0
 21 46  1  0  0  0  0
M  CHG  1  16   1
M  END
> <s_m_source_file>
AV-unprocessed.smi

> <i_m_source_file_index>
1285

> <i_lp_mmshare_version>
43012

> <i_f3d_flags>
0

> <s_epik_input>
W0NIMl0xW0NIMl1PW0NIMl1bQ0gyXU4xW0NAQF0oW0NIM10pKFtDSDJdW0NIM10pW0NIMl1bTkhdQyg9TylbQ0BIXShbQ0gzXSluMltjSF1uW2NIXW4y

> <s_epik_cmdline>
J2VwaWtfcHl0aG9uJywgJy1waCcsICc3LjAnLCAnLXRuJywgJzgnLCAnLW1hJywgJzIwMCcsICctbWV0YWxfYmluZGluZycsICctaW1hZScsICc8aW5maWxlLm1hZT4nLCAnLW9tYWUnLCAnPG91dGZpbGUubWFlPic=

> <r_lp_tautomer_probability>
1

> <r_epik_Ionization_Penalty>
0.569304

> <r_epik_Ionization_Penalty_Charging>
0.569295

> <r_epik_Ionization_Penalty_Neutral>
8.22697e-06

> <r_epik_State_Penalty>
0.581114

> <r_epik_Charging_Adjusted_Penalty>
1.15041

> <i_epik_Tot_Q>
1

> <i_epik_Tot_abs_Q>
1

> <r_epik_Metal_State_Penalty>
0.581117

> <b_epik_Metal_Only>
0

> <s_lp_Force_Field>
OPLS_2005

> <r_lp_Energy>
33.7003

> <b_lp_Chiralities_Consistent>
1

> <s_lp_Variant>
AV-unprocessed.smi:1285-5

> <Gold.Version>
5.8.1

> <Gold.Id.Protein>
6NUR|6NUR_protein|mol2

> <Gold.PLP.Fitness>
36.0855

> <Gold.PLP.PLP>
-32.5911

> <Gold.PLP.part.hbond>
-2.0000

> <Gold.PLP.part.metal>
0.0000

> <Gold.PLP.part.buried>
-5.7968

> <Gold.PLP.part.nonpolar>
-25.3096

> <Gold.PLP.part.repulsive>
0.2859

> <Gold.PLP.ligand.clash>
0.0000

> <Gold.PLP.ligand.torsion>
0.7384

> <Gold.PLP.Chemscore.Hbond>
1.5600

> <Gold.PLP.Chemscore.CHOScore>
0.0000

> <Gold.PLP.Chemscore.Metal>
0.0000

> <Gold.Chemscore.Hbonds>
donor molecule, donor type, donor heavy atom, donor atom, acceptor molecule, acceptor atom, score
      P1  H  6896  6907       L1    15  0.54
      P1  H  6896  6908       L1     8  1.00

> <Gold.PLP.Chemscore.Internal.Correction>
0.2911

> <Gold.Rescore>
     Score         DG    S(hbond)    S(metal)    S(lipo)     H(rot)  DE(clash)    DE(int)     intcor
     12.19     -13.21       1.75        0.00      76.40       2.76       0.07       0.95       ----

> <Gold.Chemscore.Fitness>
12.1908

> <Gold.Chemscore.DG>
-13.2081

> <Gold.Chemscore.ZeroCoef>
-5.4800

> <Gold.Chemscore.Hbond>
1.7519

> <Gold.Chemscore.Metal>
0.0000

> <Gold.Chemscore.Lipo>
76.4049

> <Gold.Chemscore.Internal_Hbond>
0.0000

> <Gold.Chemscore.DEClash>
0.0678

> <Gold.Chemscore.DEInternal>
0.9494

> <Gold.Chemscore.Rot>
2.7589

> <Gold.Chemscore.Internal.Correction>
   9.000000E+99

> <Gold.Chemscore.Hbonds>
donor molecule, donor type, donor heavy atom, donor atom, acceptor molecule, acceptor atom, score
      P1  H  6896  6907       L1    15  0.51
      P1  H  6896  6908       L1     8  0.99

> <Gold.Chemscore.Hbond.Weighted>
-5.8514

> <Gold.Chemscore.Metal.Weighted>
-0.0000

> <Gold.Chemscore.Lipo.Weighted>
-8.9394

> <Gold.Chemscore.Internal_Hbond.Weighted>
0.0000

> <Gold.Chemscore.DEClash.Weighted>
0.0678

> <Gold.Chemscore.DEInternal.Weighted>
0.9494

> <Gold.Chemscore.Rot.Weighted>
7.0627

> <Gold.Chemscore.Internal.Correction.Weighted>
   9.000000E+99

> <Gold.Protein.RotatedTorsions>
[ 6907 6896 6895 6894 ] final -129.46 input  -60.11 | X-H torsion
[ 7974 7965 7964 7962 ] final   12.41 input  175.53 | X-H torsion
[ 8008 7997 7996 7995 ] final  135.77 input   59.86 | X-H torsion
[ 10167 10162 10161 10158 ] final -136.59 input  -65.29 | X-H torsion
[ 10718 10713 10712 10709 ] final   -8.85 input   66.30 | X-H torsion
[ 10763 10752 10751 10750 ] final  163.14 input  -60.55 | X-H torsion
[ 11005 11000 10999 10996 ] final  171.94 input  -57.11 | X-H torsion

> <Gold.Protein.ActiveResidues>
 VAL166  LYS551  ARG553  GLY616  TRP617  ASP618  TYR619  PRO620  LYS621  CYS622 
 ASP623  PHE694  ASN695  SER759  ASP760  ASP761  ALA762  ILE779  LEU786  VAL792 
 PHE793  MET794  SER795  GLU796  ALA797  LYS798  CYS799  TRP800  GLU811  SER814 

> <Gold.Protein.RotatedAtoms>
  150.9290  133.6789  159.2814 H   0  0  0  0  0  0  0  0  0  0  0  0  # atno 6907 bound_to 6896
  151.4218  135.0997  159.9625 H   0  0  0  0  0  0  0  0  0  0  0  0  # atno 6908 bound_to 6896
  152.5017  133.8740  159.7368 H   0  0  0  0  0  0  0  0  0  0  0  0  # atno 6909 bound_to 6896
  146.2352  139.9341  142.8492 H   0  0  0  0  0  0  0  0  0  0  0  0  # atno 7974 bound_to 7965
  156.3003  140.2462  156.3636 H   0  0  0  0  0  0  0  0  0  0  0  0  # atno 8008 bound_to 7997
  154.8854  140.0411  157.1826 H   0  0  0  0  0  0  0  0  0  0  0  0  # atno 8009 bound_to 7997
  154.8653  140.2927  155.5518 H   0  0  0  0  0  0  0  0  0  0  0  0  # atno 8010 bound_to 7997
  139.8662  143.7014  152.2645 H   0  0  0  0  0  0  0  0  0  0  0  0  # atno 10167 bound_to 10162
  156.6965  130.5080  149.5929 H   0  0  0  0  0  0  0  0  0  0  0  0  # atno 10718 bound_to 10713
  154.2891  135.2761  155.2663 H   0  0  0  0  0  0  0  0  0  0  0  0  # atno 10763 bound_to 10752
  154.5149  135.5772  153.6638 H   0  0  0  0  0  0  0  0  0  0  0  0  # atno 10764 bound_to 10752
  152.9917  135.6190  154.3055 H   0  0  0  0  0  0  0  0  0  0  0  0  # atno 10765 bound_to 10752
  140.3244  134.7410  157.4088 H   0  0  0  0  0  0  0  0  0  0  0  0  # atno 11005 bound_to 11000
  145.2016  140.9857  143.4152 LP  0  0  0  0  0  0  0  0  0  0  0  0  # atno 17320 bound_to 7965
  144.9769  139.3823  143.6281 LP  0  0  0  0  0  0  0  0  0  0  0  0  # atno 17321 bound_to 7965
  139.7327  144.7578  151.0777 LP  0  0  0  0  0  0  0  0  0  0  0  0  # atno 17342 bound_to 10162
  140.7768  143.5069  150.9701 LP  0  0  0  0  0  0  0  0  0  0  0  0  # atno 17343 bound_to 10162
  156.1759  130.6468  151.0894 LP  0  0  0  0  0  0  0  0  0  0  0  0  # atno 17370 bound_to 10713
  157.6989  131.0783  150.6882 LP  0  0  0  0  0  0  0  0  0  0  0  0  # atno 17371 bound_to 10713
  140.0914  134.5595  155.8440 LP  0  0  0  0  0  0  0  0  0  0  0  0  # atno 17394 bound_to 11000
  141.2079  133.6668  156.6335 LP  0  0  0  0  0  0  0  0  0  0  0  0  # atno 17395 bound_to 11000

$$$$
