AV-unprocessed.smi:33|AV-procd|sdf|206|dock6
  -GOLD-   2262015493D 1   1.00000     0.00000
 Structure written by MMmdl.
 67 72  0  0  0  0  0  0  0  0  1 V2000
  151.7077  140.0464  158.2263 O   0  0  0  0  0  0  0  0  0  0  0  0
  151.0876  141.0784  157.9611 C   0  0  0  0  0  0  0  0  0  0  0  0
  150.0800  141.1346  157.0681 O   0  0  0  0  0  0  0  0  0  0  0  0
  149.5580  139.9409  156.5064 C   0  0  0  0  0  0  0  0  0  0  0  0
  148.2666  140.2573  155.7434 C   0  0  1  0  0  0  0  0  0  0  0  0
  147.8681  141.6043  155.9913 O   0  0  0  0  0  0  0  0  0  0  0  0
  147.2147  142.1295  154.8703 C   0  0  2  0  0  0  0  0  0  0  0  0
  145.8295  142.5592  155.2511 N   0  0  0  0  0  0  0  0  0  0  0  0
  145.0730  142.0844  156.2999 C   0  0  0  0  0  0  0  0  0  0  0  0
  143.8927  142.6260  156.4323 N   0  0  0  0  0  0  0  0  0  0  0  0
  143.8289  143.5453  155.3941 C   0  0  0  0  0  0  0  0  0  0  0  0
  142.8448  144.4717  154.9560 C   0  0  0  0  0  0  0  0  0  0  0  0
  141.6529  144.6262  155.5785 N   0  0  0  0  0  0  0  0  0  0  0  0
  140.4505  144.2518  154.8196 C   0  0  0  0  0  0  0  0  0  0  0  0
  140.5385  143.4273  153.9076 O   0  0  0  0  0  0  0  0  0  0  0  0
  139.1123  144.8337  155.1767 C   0  0  0  0  0  0  0  0  0  0  0  0
  137.9401  144.0637  155.0133 C   0  0  0  0  0  0  0  0  0  0  0  0
  136.6818  144.6095  155.3335 C   0  0  0  0  0  0  0  0  0  0  0  0
  136.5862  145.9345  155.8000 C   0  0  0  0  0  0  0  0  0  0  0  0
  137.7483  146.7173  155.9375 C   0  0  0  0  0  0  0  0  0  0  0  0
  139.0069  146.1718  155.6191 C   0  0  0  0  0  0  0  0  0  0  0  0
  141.6716  145.1496  156.9523 C   0  0  0  0  0  0  0  0  0  0  0  0
  140.7359  144.8930  157.7125 O   0  0  0  0  0  0  0  0  0  0  0  0
  142.8462  145.9428  157.4518 C   0  0  0  0  0  0  0  0  0  0  0  0
  143.4769  145.5836  158.6630 C   0  0  0  0  0  0  0  0  0  0  0  0
  144.5707  146.3298  159.1430 C   0  0  0  0  0  0  0  0  0  0  0  0
  145.0281  147.4514  158.4255 C   0  0  0  0  0  0  0  0  0  0  0  0
  144.3859  147.8320  157.2319 C   0  0  0  0  0  0  0  0  0  0  0  0
  143.2930  147.0856  156.7504 C   0  0  0  0  0  0  0  0  0  0  0  0
  143.1245  145.2338  153.8675 N   0  0  0  0  0  0  0  0  0  0  0  0
  144.3003  145.0977  153.2482 C   0  0  0  0  0  0  0  0  0  0  0  0
  145.3116  144.2795  153.5476 N   0  0  0  0  0  0  0  0  0  0  0  0
  145.0339  143.5091  154.6396 C   0  0  0  0  0  0  0  0  0  0  0  0
  147.2356  141.0558  153.7634 C   0  0  2  0  0  0  0  0  0  0  0  0
  146.0370  140.3028  153.6763 O   0  0  0  0  0  0  0  0  0  0  0  0
  148.4040  140.2049  154.2237 C   0  0  2  0  0  0  0  0  0  0  0  0
  148.3892  138.9717  153.7148 F   0  0  0  0  0  0  0  0  0  0  0  0
  151.3724  142.3964  158.5990 C   0  0  0  0  0  0  0  0  0  0  0  0
  152.3579  142.4782  159.6106 C   0  0  0  0  0  0  0  0  0  0  0  0
  152.6491  143.7088  160.2311 C   0  0  0  0  0  0  0  0  0  0  0  0
  151.9584  144.8729  159.8473 C   0  0  0  0  0  0  0  0  0  0  0  0
  150.9757  144.8051  158.8425 C   0  0  0  0  0  0  0  0  0  0  0  0
  150.6833  143.5752  158.2205 C   0  0  0  0  0  0  0  0  0  0  0  0
  150.2981  139.5161  155.8273 H   0  0  0  0  0  0  0  0  0  0  0  0
  149.3634  139.2007  157.2840 H   0  0  0  0  0  0  0  0  0  0  0  0
  147.4641  139.5945  156.0696 H   0  0  0  0  0  0  0  0  0  0  0  0
  147.7172  143.0507  154.5728 H   0  0  0  0  0  0  0  0  0  0  0  0
  145.4294  141.3190  156.9738 H   0  0  0  0  0  0  0  0  0  0  0  0
  138.0022  143.0456  154.6563 H   0  0  0  0  0  0  0  0  0  0  0  0
  135.7897  144.0115  155.2202 H   0  0  0  0  0  0  0  0  0  0  0  0
  135.6211  146.3525  156.0454 H   0  0  0  0  0  0  0  0  0  0  0  0
  137.6749  147.7369  156.2861 H   0  0  0  0  0  0  0  0  0  0  0  0
  139.8917  146.7833  155.7237 H   0  0  0  0  0  0  0  0  0  0  0  0
  143.1344  144.7246  159.2220 H   0  0  0  0  0  0  0  0  0  0  0  0
  145.0580  146.0421  160.0627 H   0  0  0  0  0  0  0  0  0  0  0  0
  145.8666  148.0235  158.7942 H   0  0  0  0  0  0  0  0  0  0  0  0
  144.7306  148.6972  156.6854 H   0  0  0  0  0  0  0  0  0  0  0  0
  142.8053  147.3901  155.8355 H   0  0  0  0  0  0  0  0  0  0  0  0
  144.4541  145.7366  152.3912 H   0  0  0  0  0  0  0  0  0  0  0  0
  147.4243  141.5241  152.7971 H   0  0  0  0  0  0  0  0  0  0  0  0
  145.5208  140.6416  152.9608 H   0  0  0  0  0  0  0  0  0  0  0  0
  149.3423  140.6685  153.9156 H   0  0  0  0  0  0  0  0  0  0  0  0
  152.9009  141.5977  159.9229 H   0  0  0  0  0  0  0  0  0  0  0  0
  153.4039  143.7590  161.0020 H   0  0  0  0  0  0  0  0  0  0  0  0
  152.1820  145.8166  160.3226 H   0  0  0  0  0  0  0  0  0  0  0  0
  150.4453  145.6980  158.5463 H   0  0  0  0  0  0  0  0  0  0  0  0
  149.9242  143.5590  157.4521 H   0  0  0  0  0  0  0  0  0  0  0  0
  1  2  2  0  0  0  0
  2  3  1  0  0  0  0
  2 38  1  0  0  0  0
  3  4  1  0  0  0  0
  4  5  1  0  0  0  0
  4 44  1  0  0  0  0
  4 45  1  0  0  0  0
  5 36  1  0  0  0  0
  5  6  1  0  0  0  0
  5 46  1  0  0  0  0
  6  7  1  0  0  0  0
  7  8  1  0  0  0  0
  7 34  1  0  0  0  0
  7 47  1  0  0  0  0
  8 33  1  0  0  0  0
  8  9  1  0  0  0  0
  9 10  2  0  0  0  0
  9 48  1  0  0  0  0
 10 11  1  0  0  0  0
 11 33  2  0  0  0  0
 11 12  1  0  0  0  0
 12 13  1  0  0  0  0
 12 30  2  0  0  0  0
 13 14  1  0  0  0  0
 13 22  1  0  0  0  0
 14 15  2  0  0  0  0
 14 16  1  0  0  0  0
 16 21  1  0  0  0  0
 16 17  2  0  0  0  0
 17 18  1  0  0  0  0
 17 49  1  0  0  0  0
 18 19  2  0  0  0  0
 18 50  1  0  0  0  0
 19 20  1  0  0  0  0
 19 51  1  0  0  0  0
 20 21  2  0  0  0  0
 20 52  1  0  0  0  0
 21 53  1  0  0  0  0
 22 23  2  0  0  0  0
 22 24  1  0  0  0  0
 24 29  1  0  0  0  0
 24 25  2  0  0  0  0
 25 26  1  0  0  0  0
 25 54  1  0  0  0  0
 26 27  2  0  0  0  0
 26 55  1  0  0  0  0
 27 28  1  0  0  0  0
 27 56  1  0  0  0  0
 28 29  2  0  0  0  0
 28 57  1  0  0  0  0
 29 58  1  0  0  0  0
 30 31  1  0  0  0  0
 31 32  2  0  0  0  0
 31 59  1  0  0  0  0
 32 33  1  0  0  0  0
 34 35  1  0  0  0  0
 34 36  1  0  0  0  0
 34 60  1  0  0  0  0
 35 61  1  0  0  0  0
 36 37  1  0  0  0  0
 36 62  1  0  0  0  0
 38 43  1  0  0  0  0
 38 39  2  0  0  0  0
 39 40  1  0  0  0  0
 39 63  1  0  0  0  0
 40 41  2  0  0  0  0
 40 64  1  0  0  0  0
 41 42  1  0  0  0  0
 41 65  1  0  0  0  0
 42 43  2  0  0  0  0
 42 66  1  0  0  0  0
 43 67  1  0  0  0  0
M  END
> <s_m_source_file>
AV-unprocessed.smi

> <i_m_source_file_index>
33

> <i_lp_mmshare_version>
43012

> <i_f3d_flags>
0

> <s_epik_input>
W2NIXTFbY0hdW2NIXVtjSF1bY0hdYzFDKD1PKU9bQ0gyXVtDQEBIXTJPW0NASF0oW0NAQEhdKFtPSF0pW0NAQEhdMkYpbihbY0hdbjMpYyhjMzQpbltjSF1uYzROKEMoPU8pYzVbY0hdW2NIXVtjSF1bY0hdW2NIXTUpQyg9TyljNltjSF1bY0hdW2NIXVtjSF1bY0hdNg==

> <s_epik_cmdline>
J2VwaWtfcHl0aG9uJywgJy1waCcsICc3LjAnLCAnLXRuJywgJzgnLCAnLW1hJywgJzIwMCcsICctbWV0YWxfYmluZGluZycsICctaW1hZScsICc8aW5maWxlLm1hZT4nLCAnLW9tYWUnLCAnPG91dGZpbGUubWFlPic=

> <r_lp_tautomer_probability>
1

> <r_epik_Ionization_Penalty>
0.00067664

> <r_epik_Ionization_Penalty_Charging>
0

> <r_epik_Ionization_Penalty_Neutral>
0.00067664

> <r_epik_State_Penalty>
0.000428095

> <r_epik_Charging_Adjusted_Penalty>
0.000428095

> <i_epik_Tot_Q>
0

> <i_epik_Tot_abs_Q>
0

> <r_epik_Metal_State_Penalty>
-0

> <b_epik_Metal_Only>
0

> <s_epik_Chemistry_Notes>
This compound has an ester and may undergo hydrolysis at high or low pH. This compound contains an acetal/aminal-like group ( X-CH(R)-Y where X, Y are N, S, or O) that may be acid/base labile, releasing an aldehyde.

> <s_lp_Force_Field>
OPLS_2005

> <r_lp_Energy>
78.7548

> <b_lp_Chiralities_Consistent>
1

> <s_lp_Variant>
AV-unprocessed.smi:33-8

> <Gold.Version>
5.8.1

> <Gold.Id.Protein>
6NUR|6NUR_protein|mol2

> <Gold.PLP.Fitness>
70.4875

> <Gold.PLP.PLP>
-70.8493

> <Gold.PLP.part.hbond>
-3.4055

> <Gold.PLP.part.metal>
0.0000

> <Gold.PLP.part.buried>
-6.1798

> <Gold.PLP.part.nonpolar>
-66.4271

> <Gold.PLP.part.repulsive>
2.8700

> <Gold.PLP.ligand.clash>
0.0000

> <Gold.PLP.ligand.torsion>
4.5846

> <Gold.PLP.Chemscore.Hbond>
1.3920

> <Gold.PLP.Chemscore.CHOScore>
0.0000

> <Gold.PLP.Chemscore.Metal>
0.0000

> <Gold.Chemscore.Hbonds>
donor molecule, donor type, donor heavy atom, donor atom, acceptor molecule, acceptor atom, score
      L1  H    35    61       P1 10175  0.69
      P1  H 10162 10167       L1    15  1.00

> <Gold.PLP.Chemscore.Internal.Correction>
4.6314

> <Gold.Rescore>
     Score         DG    S(hbond)    S(metal)    S(lipo)     H(rot)  DE(clash)    DE(int)     intcor
     16.61     -23.76       1.94        0.00     156.07       2.52       1.59       5.56       ----

> <Gold.Chemscore.Fitness>
16.6117

> <Gold.Chemscore.DG>
-23.7605

> <Gold.Chemscore.ZeroCoef>
-5.4800

> <Gold.Chemscore.Hbond>
1.9413

> <Gold.Chemscore.Metal>
0.0000

> <Gold.Chemscore.Lipo>
156.0670

> <Gold.Chemscore.Internal_Hbond>
0.0000

> <Gold.Chemscore.DEClash>
1.5855

> <Gold.Chemscore.DEInternal>
5.5633

> <Gold.Chemscore.Rot>
2.5247

> <Gold.Chemscore.Internal.Correction>
   9.000000E+99

> <Gold.Chemscore.Hbonds>
donor molecule, donor type, donor heavy atom, donor atom, acceptor molecule, acceptor atom, score
      L1  H    35    61       P1 10175  0.47
      P1  H 10162 10167       L1    15  1.00

> <Gold.Chemscore.Hbond.Weighted>
-6.4839

> <Gold.Chemscore.Metal.Weighted>
-0.0000

> <Gold.Chemscore.Lipo.Weighted>
-18.2598

> <Gold.Chemscore.Internal_Hbond.Weighted>
0.0000

> <Gold.Chemscore.DEClash.Weighted>
1.5855

> <Gold.Chemscore.DEInternal.Weighted>
5.5633

> <Gold.Chemscore.Rot.Weighted>
6.4633

> <Gold.Chemscore.Internal.Correction.Weighted>
   9.000000E+99

> <Gold.Protein.RotatedTorsions>
[ 6907 6896 6895 6894 ] final -172.81 input  -60.11 | X-H torsion
[ 7974 7965 7964 7962 ] final  -66.27 input  175.53 | X-H torsion
[ 8008 7997 7996 7995 ] final  143.44 input   59.86 | X-H torsion
[ 10167 10162 10161 10158 ] final -131.41 input  -65.29 | X-H torsion
[ 10718 10713 10712 10709 ] final   58.81 input   66.30 | X-H torsion
[ 10763 10752 10751 10750 ] final  170.74 input  -60.55 | X-H torsion
[ 11005 11000 10999 10996 ] final   40.29 input  -57.11 | X-H torsion

> <Gold.Protein.ActiveResidues>
 VAL166  LYS551  ARG553  GLY616  TRP617  ASP618  TYR619  PRO620  LYS621  CYS622 
 ASP623  PHE694  ASN695  SER759  ASP760  ASP761  ALA762  ILE779  LEU786  VAL792 
 PHE793  MET794  SER795  GLU796  ALA797  LYS798  CYS799  TRP800  GLU811  SER814 

> <Gold.Protein.RotatedAtoms>
  151.5460  133.3425  159.2943 H   0  0  0  0  0  0  0  0  0  0  0  0  # atno 6907 bound_to 6896
  150.8507  134.7833  159.7017 H   0  0  0  0  0  0  0  0  0  0  0  0  # atno 6908 bound_to 6896
  152.4554  134.5311  159.9863 H   0  0  0  0  0  0  0  0  0  0  0  0  # atno 6909 bound_to 6896
  145.7438  140.8941  143.0516 H   0  0  0  0  0  0  0  0  0  0  0  0  # atno 7974 bound_to 7965
  156.2930  140.2262  156.4890 H   0  0  0  0  0  0  0  0  0  0  0  0  # atno 8008 bound_to 7997
  154.7787  140.0461  157.1131 H   0  0  0  0  0  0  0  0  0  0  0  0  # atno 8009 bound_to 7997
  154.9785  140.3075  155.4960 H   0  0  0  0  0  0  0  0  0  0  0  0  # atno 8010 bound_to 7997
  139.9191  143.6403  152.2558 H   0  0  0  0  0  0  0  0  0  0  0  0  # atno 10167 bound_to 10162
  157.5626  130.8847  149.9135 H   0  0  0  0  0  0  0  0  0  0  0  0  # atno 10718 bound_to 10713
  154.4020  135.2755  155.2091 H   0  0  0  0  0  0  0  0  0  0  0  0  # atno 10763 bound_to 10752
  154.4113  135.6022  153.5958 H   0  0  0  0  0  0  0  0  0  0  0  0  # atno 10764 bound_to 10752
  152.9831  135.5950  154.4289 H   0  0  0  0  0  0  0  0  0  0  0  0  # atno 10765 bound_to 10752
  140.1945  134.3945  155.8128 H   0  0  0  0  0  0  0  0  0  0  0  0  # atno 11005 bound_to 11000
  144.6864  139.9497  143.7477 LP  0  0  0  0  0  0  0  0  0  0  0  0  # atno 17320 bound_to 7965
  146.0422  139.3432  143.0690 LP  0  0  0  0  0  0  0  0  0  0  0  0  # atno 17321 bound_to 7965
  139.6876  144.7650  151.1495 LP  0  0  0  0  0  0  0  0  0  0  0  0  # atno 17342 bound_to 10162
  140.7666  143.5634  150.9074 LP  0  0  0  0  0  0  0  0  0  0  0  0  # atno 17343 bound_to 10162
  156.0677  130.3690  150.0843 LP  0  0  0  0  0  0  0  0  0  0  0  0  # atno 17370 bound_to 10713
  156.9005  130.9619  151.3577 LP  0  0  0  0  0  0  0  0  0  0  0  0  # atno 17371 bound_to 10713
  141.2227  133.7063  156.8153 LP  0  0  0  0  0  0  0  0  0  0  0  0  # atno 17394 bound_to 11000
  140.2122  134.8819  157.3287 LP  0  0  0  0  0  0  0  0  0  0  0  0  # atno 17395 bound_to 11000

$$$$
