AV-unprocessed.smi:790|AV-procd|sdf|3746|dock1
  -GOLD-   22720 1173D 1   1.00000     0.00000
 Structure written by MMmdl.
 38 40  0  0  0  0  0  0  0  0  1 V2000
  147.2431  133.8921  155.2457 O   0  0  0  0  0  0  0  0  0  0  0  0
  147.6997  134.4234  154.2341 C   0  0  0  0  0  0  0  0  0  0  0  0
  148.7561  135.2529  154.1970 N   0  0  0  0  0  0  0  0  0  0  0  0
  149.5774  135.6960  155.2689 C   0  0  0  0  0  0  0  0  0  0  0  0
  149.1581  135.7777  156.6192 C   0  0  0  0  0  0  0  0  0  0  0  0
  150.0781  136.2170  157.5908 C   0  0  0  0  0  0  0  0  0  0  0  0
  151.3824  136.5530  157.1797 C   0  0  0  0  0  0  0  0  0  0  0  0
  151.7991  136.4684  155.8990 N   0  0  0  0  0  0  0  0  0  0  0  0
  150.9122  136.0452  154.9734 C   0  0  0  0  0  0  0  0  0  0  0  0
  147.1727  134.2607  153.0124 N   0  0  0  0  0  0  0  0  0  0  0  0
  146.0142  133.4256  152.6937 C   0  0  2  0  0  0  0  0  0  0  0  0
  146.4103  132.3309  151.6797 C   0  0  1  0  0  0  0  0  0  0  0  0
  145.3161  131.2481  151.6560 C   0  0  0  0  0  0  0  0  0  0  0  0
  144.1552  131.9630  150.9386 C   0  0  0  0  0  0  0  0  0  0  0  0
  144.7387  133.3603  150.6479 C   0  0  2  0  0  0  0  0  0  0  0  0
  146.1916  133.0225  150.3394 C   0  0  0  0  0  0  0  0  0  0  0  0
  144.8438  134.1598  151.9703 C   0  0  2  0  0  0  0  0  0  0  0  0
  145.0195  135.6804  151.7528 C   0  0  0  0  0  0  0  0  0  0  0  0
  146.2064  135.9430  151.0345 O   0  0  0  0  0  0  0  0  0  0  0  0
  148.9639  135.6638  153.2986 H   0  0  0  0  0  0  0  0  0  0  0  0
  148.1635  135.5021  156.9324 H   0  0  0  0  0  0  0  0  0  0  0  0
  149.7911  136.2905  158.6293 H   0  0  0  0  0  0  0  0  0  0  0  0
  152.1120  136.8932  157.8994 H   0  0  0  0  0  0  0  0  0  0  0  0
  151.2816  135.9868  153.9598 H   0  0  0  0  0  0  0  0  0  0  0  0
  147.6077  134.7432  152.2397 H   0  0  0  0  0  0  0  0  0  0  0  0
  145.6562  132.9574  153.6127 H   0  0  0  0  0  0  0  0  0  0  0  0
  147.4113  131.9246  151.8316 H   0  0  0  0  0  0  0  0  0  0  0  0
  145.6422  130.3786  151.0838 H   0  0  0  0  0  0  0  0  0  0  0  0
  145.0433  130.9072  152.6555 H   0  0  0  0  0  0  0  0  0  0  0  0
  143.9059  131.4474  150.0105 H   0  0  0  0  0  0  0  0  0  0  0  0
  143.2515  132.0069  151.5473 H   0  0  0  0  0  0  0  0  0  0  0  0
  144.2117  133.8834  149.8495 H   0  0  0  0  0  0  0  0  0  0  0  0
  146.8239  133.8993  150.1934 H   0  0  0  0  0  0  0  0  0  0  0  0
  146.3082  132.3549  149.4836 H   0  0  0  0  0  0  0  0  0  0  0  0
  143.9317  134.0206  152.5528 H   0  0  0  0  0  0  0  0  0  0  0  0
  144.1899  136.0836  151.1721 H   0  0  0  0  0  0  0  0  0  0  0  0
  145.0486  136.2207  152.6990 H   0  0  0  0  0  0  0  0  0  0  0  0
  146.9300  135.9449  151.6423 H   0  0  0  0  0  0  0  0  0  0  0  0
  1  2  2  0  0  0  0
  2  3  1  0  0  0  0
  2 10  1  0  0  0  0
  3  4  1  0  0  0  0
  3 20  1  0  0  0  0
  4  9  1  0  0  0  0
  4  5  2  0  0  0  0
  5  6  1  0  0  0  0
  5 21  1  0  0  0  0
  6  7  2  0  0  0  0
  6 22  1  0  0  0  0
  7  8  1  0  0  0  0
  7 23  1  0  0  0  0
  8  9  2  0  0  0  0
  9 24  1  0  0  0  0
 10 11  1  0  0  0  0
 10 25  1  0  0  0  0
 11 17  1  0  0  0  0
 11 12  1  0  0  0  0
 11 26  1  0  0  0  0
 12 16  1  0  0  0  0
 12 13  1  0  0  0  0
 12 27  1  0  0  0  0
 13 14  1  0  0  0  0
 13 28  1  0  0  0  0
 13 29  1  0  0  0  0
 14 15  1  0  0  0  0
 14 30  1  0  0  0  0
 14 31  1  0  0  0  0
 15 16  1  0  0  0  0
 15 17  1  0  0  0  0
 15 32  1  0  0  0  0
 16 33  1  0  0  0  0
 16 34  1  0  0  0  0
 17 18  1  0  0  0  0
 17 35  1  0  0  0  0
 18 19  1  0  0  0  0
 18 36  1  0  0  0  0
 18 37  1  0  0  0  0
 19 38  1  0  0  0  0
M  END
> <s_m_source_file>
AV-unprocessed.smi

> <i_m_source_file_index>
790

> <i_lp_mmshare_version>
43012

> <i_f3d_flags>
0

> <s_epik_input>
W0NIMl0xW0NIMl1bQ0BASF0oW0NIMl0yKVtDQEBIXShbQ0gyXVtPSF0pW0NAQEhdKFtDQEhdMTIpW05IXUMoPU8pW05IXWMzW2NIXVtjSF1bY0hdbltjSF0z

> <s_epik_cmdline>
J2VwaWtfcHl0aG9uJywgJy1waCcsICc3LjAnLCAnLXRuJywgJzgnLCAnLW1hJywgJzIwMCcsICctbWV0YWxfYmluZGluZycsICctaW1hZScsICc8aW5maWxlLm1hZT4nLCAnLW9tYWUnLCAnPG91dGZpbGUubWFlPic=

> <r_epik_Ionization_Penalty>
0.00497582

> <r_epik_Ionization_Penalty_Charging>
0

> <r_epik_Ionization_Penalty_Neutral>
0.00497582

> <r_epik_State_Penalty>
0.00358602

> <r_epik_Charging_Adjusted_Penalty>
0.00358602

> <i_epik_Tot_Q>
0

> <i_epik_Tot_abs_Q>
0

> <r_epik_Metal_State_Penalty>
-0

> <b_epik_Metal_Only>
0

> <s_lp_Force_Field>
OPLS_2005

> <r_lp_Energy>
52.0711

> <b_lp_Chiralities_Consistent>
1

> <s_lp_Variant>
AV-unprocessed.smi:790-7

> <Gold.Version>
5.8.1

> <Gold.Id.Protein>
6NUR|6NUR_protein|mol2

> <Gold.PLP.Fitness>
39.0257

> <Gold.PLP.PLP>
-26.0345

> <Gold.PLP.part.hbond>
-3.9694

> <Gold.PLP.part.metal>
0.0000

> <Gold.PLP.part.buried>
-1.4672

> <Gold.PLP.part.nonpolar>
-19.4089

> <Gold.PLP.part.repulsive>
0.0540

> <Gold.PLP.ligand.clash>
0.0000

> <Gold.PLP.ligand.torsion>
0.1666

> <Gold.PLP.Chemscore.Hbond>
3.4361

> <Gold.PLP.Chemscore.CHOScore>
1.0000

> <Gold.PLP.Chemscore.Metal>
0.0000

> <Gold.Chemscore.Hbonds>
donor molecule, donor type, donor heavy atom, donor atom, acceptor molecule, acceptor atom, score
      L1  H     3    20       P1  7948  0.98
      L1  H    10    25       P1  7948  0.85
      L1  H    19    38       P1  7948  0.88
      P1  H 10752 10765       L1     8  0.72
      L1  C     9    24       P1  7949  1.00

> <Gold.PLP.Chemscore.Internal.Correction>
0.0162

> <Gold.Rescore>
     Score         DG    S(hbond)    S(metal)    S(lipo)     H(rot)  DE(clash)    DE(int)     intcor
     14.79     -18.28       2.75        0.00      69.72       1.78       0.05       3.44       ----

> <Gold.Chemscore.Fitness>
14.7900

> <Gold.Chemscore.DG>
-18.2835

> <Gold.Chemscore.ZeroCoef>
-5.4800

> <Gold.Chemscore.Hbond>
2.7542

> <Gold.Chemscore.Metal>
0.0000

> <Gold.Chemscore.Lipo>
69.7185

> <Gold.Chemscore.Internal_Hbond>
0.0000

> <Gold.Chemscore.DEClash>
0.0531

> <Gold.Chemscore.DEInternal>
3.4404

> <Gold.Chemscore.Rot>
1.7783

> <Gold.Chemscore.Internal.Correction>
   9.000000E+99

> <Gold.Chemscore.Hbonds>
donor molecule, donor type, donor heavy atom, donor atom, acceptor molecule, acceptor atom, score
      L1  H     3    20       P1  7948  0.75
      L1  H    10    25       P1  7948  0.66
      L1  H    19    38       P1  7948  0.82
      P1  H 10752 10765       L1     8  0.10

> <Gold.Chemscore.Hbond.Weighted>
-9.1990

> <Gold.Chemscore.Metal.Weighted>
-0.0000

> <Gold.Chemscore.Lipo.Weighted>
-8.1571

> <Gold.Chemscore.Internal_Hbond.Weighted>
0.0000

> <Gold.Chemscore.DEClash.Weighted>
0.0531

> <Gold.Chemscore.DEInternal.Weighted>
3.4404

> <Gold.Chemscore.Rot.Weighted>
4.5525

> <Gold.Chemscore.Internal.Correction.Weighted>
   9.000000E+99

> <Gold.Protein.RotatedTorsions>
[ 6907 6896 6895 6894 ] final  166.30 input  -60.11 | X-H torsion
[ 7974 7965 7964 7962 ] final   10.20 input  175.53 | X-H torsion
[ 8008 7997 7996 7995 ] final  139.65 input   59.86 | X-H torsion
[ 10167 10162 10161 10158 ] final   22.70 input  -65.29 | X-H torsion
[ 10718 10713 10712 10709 ] final  178.17 input   66.30 | X-H torsion
[ 10763 10752 10751 10750 ] final -135.14 input  -60.55 | X-H torsion
[ 11005 11000 10999 10996 ] final  -50.31 input  -57.11 | X-H torsion

> <Gold.Protein.ActiveResidues>
 VAL166  LYS551  ARG553  GLY616  TRP617  ASP618  TYR619  PRO620  LYS621  CYS622 
 ASP623  PHE694  ASN695  SER759  ASP760  ASP761  ALA762  ILE779  LEU786  VAL792 
 PHE793  MET794  SER795  GLU796  ALA797  LYS798  CYS799  TRP800  GLU811  SER814 

> <Gold.Protein.RotatedAtoms>
  151.8810  133.3495  159.3766 H   0  0  0  0  0  0  0  0  0  0  0  0  # atno 6907 bound_to 6896
  150.7127  134.5018  159.5574 H   0  0  0  0  0  0  0  0  0  0  0  0  # atno 6908 bound_to 6896
  152.2570  134.8074  160.0488 H   0  0  0  0  0  0  0  0  0  0  0  0  # atno 6909 bound_to 6896
  146.2392  139.9670  142.8451 H   0  0  0  0  0  0  0  0  0  0  0  0  # atno 7974 bound_to 7965
  156.2987  140.2362  156.4272 H   0  0  0  0  0  0  0  0  0  0  0  0  # atno 8008 bound_to 7997
  154.8302  140.0433  157.1492 H   0  0  0  0  0  0  0  0  0  0  0  0  # atno 8009 bound_to 7997
  154.9216  140.3004  155.5217 H   0  0  0  0  0  0  0  0  0  0  0  0  # atno 8010 bound_to 7997
  140.5328  143.9813  150.6475 H   0  0  0  0  0  0  0  0  0  0  0  0  # atno 10167 bound_to 10162
  156.8945  130.9858  151.3044 H   0  0  0  0  0  0  0  0  0  0  0  0  # atno 10718 bound_to 10713
  154.8708  135.3712  154.4850 H   0  0  0  0  0  0  0  0  0  0  0  0  # atno 10763 bound_to 10752
  153.5501  135.7025  153.5600 H   0  0  0  0  0  0  0  0  0  0  0  0  # atno 10764 bound_to 10752
  153.3723  135.4018  155.1761 H   0  0  0  0  0  0  0  0  0  0  0  0  # atno 10765 bound_to 10752
  141.0809  133.6654  156.3712 H   0  0  0  0  0  0  0  0  0  0  0  0  # atno 11005 bound_to 11000
  145.1717  140.9724  143.4318 LP  0  0  0  0  0  0  0  0  0  0  0  0  # atno 17320 bound_to 7965
  145.0022  139.3587  143.6161 LP  0  0  0  0  0  0  0  0  0  0  0  0  # atno 17321 bound_to 7965
  140.3192  143.3148  152.0801 LP  0  0  0  0  0  0  0  0  0  0  0  0  # atno 17342 bound_to 10162
  139.4960  144.6585  151.6518 LP  0  0  0  0  0  0  0  0  0  0  0  0  # atno 17343 bound_to 10162
  157.6064  130.8550  149.8881 LP  0  0  0  0  0  0  0  0  0  0  0  0  # atno 17370 bound_to 10713
  156.0612  130.3699  150.0977 LP  0  0  0  0  0  0  0  0  0  0  0  0  # atno 17371 bound_to 10713
  140.5471  134.6064  157.5397 LP  0  0  0  0  0  0  0  0  0  0  0  0  # atno 17394 bound_to 11000
  139.9623  134.7432  156.0212 LP  0  0  0  0  0  0  0  0  0  0  0  0  # atno 17395 bound_to 11000

$$$$
