AV-unprocessed.smi:1483|AV-procd|sdf|5991|dock5
  -GOLD-   22720 6 83D 1   1.00000     0.00000
 Structure written by MMmdl.
 50 51  0  0  0  0  0  0  0  0  3 V2000
  144.3937  132.5025  149.1541 C   0  0  0  0  0  0  0  0  0  0  0  0
  144.3396  133.6692  150.1176 C   0  0  0  0  0  0  0  0  0  0  0  0
  143.5951  133.6231  151.3158 C   0  0  0  0  0  0  0  0  0  0  0  0
  143.5914  134.7466  152.1680 C   0  0  0  0  0  0  0  0  0  0  0  0
  144.3300  135.8948  151.8057 C   0  0  0  0  0  0  0  0  0  0  0  0
  144.3434  137.1209  152.7012 C   0  0  0  0  0  0  0  0  0  0  0  0
  143.0214  137.2384  153.4601 C   0  0  0  0  0  0  0  0  0  0  0  0
  142.6783  136.3474  154.2363 O   0  0  0  0  0  0  0  0  0  0  0  0
  142.2939  138.3434  153.2320 N   0  0  0  0  0  0  0  0  0  0  0  0
  141.0136  138.6526  153.8618 C   0  0  2  0  0  0  0  0  0  0  0  0
  139.8806  137.8247  153.2308 C   0  0  0  0  0  0  0  0  0  0  0  0
  138.5129  138.2182  153.8136 C   0  0  0  0  0  0  0  0  0  0  0  0
  138.2521  139.6717  153.6468 N   0  3  1  0  0  0  0  0  0  0  0  0
  136.8818  140.0488  154.0809 C   0  0  0  0  0  0  0  0  0  0  0  0
  136.3596  141.3326  153.3993 C   0  0  0  0  0  0  0  0  0  0  0  0
  137.1674  142.5544  153.8609 C   0  0  0  0  0  0  0  0  0  0  0  0
  134.8596  141.5509  153.6599 C   0  0  0  0  0  0  0  0  0  0  0  0
  139.3179  140.4918  154.2829 C   0  0  0  0  0  0  0  0  0  0  0  0
  140.7020  140.1492  153.7067 C   0  0  0  0  0  0  0  0  0  0  0  0
  145.0577  135.8821  150.5956 C   0  0  0  0  0  0  0  0  0  0  0  0
  145.0358  134.7855  149.8064 N   0  3  0  0  0  0  0  0  0  0  0  0
  143.7034  131.7136  149.4543 H   0  0  0  0  0  0  0  0  0  0  0  0
  145.3992  132.0823  149.1242 H   0  0  0  0  0  0  0  0  0  0  0  0
  144.1239  132.8246  148.1481 H   0  0  0  0  0  0  0  0  0  0  0  0
  143.0335  132.7392  151.5811 H   0  0  0  0  0  0  0  0  0  0  0  0
  143.0253  134.7252  153.0879 H   0  0  0  0  0  0  0  0  0  0  0  0
  145.1768  137.0659  153.4031 H   0  0  0  0  0  0  0  0  0  0  0  0
  144.5004  138.0159  152.0974 H   0  0  0  0  0  0  0  0  0  0  0  0
  142.6541  139.0201  152.5748 H   0  0  0  0  0  0  0  0  0  0  0  0
  141.0706  138.4252  154.9284 H   0  0  0  0  0  0  0  0  0  0  0  0
  139.8688  137.9734  152.1498 H   0  0  0  0  0  0  0  0  0  0  0  0
  140.0553  136.7605  153.3942 H   0  0  0  0  0  0  0  0  0  0  0  0
  137.7345  137.6436  153.3101 H   0  0  0  0  0  0  0  0  0  0  0  0
  138.4653  137.9579  154.8724 H   0  0  0  0  0  0  0  0  0  0  0  0
  136.1898  139.2376  153.8494 H   0  0  0  0  0  0  0  0  0  0  0  0
  136.8677  140.1553  155.1668 H   0  0  0  0  0  0  0  0  0  0  0  0
  136.5042  141.2536  152.3224 H   0  0  0  0  0  0  0  0  0  0  0  0
  137.0698  142.7134  154.9354 H   0  0  0  0  0  0  0  0  0  0  0  0
  136.8302  143.4620  153.3590 H   0  0  0  0  0  0  0  0  0  0  0  0
  138.2278  142.4326  153.6376 H   0  0  0  0  0  0  0  0  0  0  0  0
  134.6503  141.6386  154.7266 H   0  0  0  0  0  0  0  0  0  0  0  0
  134.2615  140.7277  153.2690 H   0  0  0  0  0  0  0  0  0  0  0  0
  134.5074  142.4634  153.1779 H   0  0  0  0  0  0  0  0  0  0  0  0
  139.1281  141.5527  154.1266 H   0  0  0  0  0  0  0  0  0  0  0  0
  139.3106  140.3276  155.3617 H   0  0  0  0  0  0  0  0  0  0  0  0
  141.4663  140.7442  154.2085 H   0  0  0  0  0  0  0  0  0  0  0  0
  140.7338  140.4299  152.6526 H   0  0  0  0  0  0  0  0  0  0  0  0
  145.6497  136.7111  150.2351 H   0  0  0  0  0  0  0  0  0  0  0  0
  138.2928  139.8510  152.6536 H   0  0  0  0  0  0  0  0  0  0  0  0
  145.5684  134.8011  148.9363 H   0  0  0  0  0  0  0  0  0  0  0  0
  1  2  1  0  0  0  0
  1 22  1  0  0  0  0
  1 23  1  0  0  0  0
  1 24  1  0  0  0  0
  2 21  1  0  0  0  0
  2  3  2  0  0  0  0
  3  4  1  0  0  0  0
  3 25  1  0  0  0  0
  4  5  2  0  0  0  0
  4 26  1  0  0  0  0
  5  6  1  0  0  0  0
  5 20  1  0  0  0  0
  6  7  1  0  0  0  0
  6 27  1  0  0  0  0
  6 28  1  0  0  0  0
  7  8  2  0  0  0  0
  7  9  1  0  0  0  0
  9 10  1  0  0  0  0
  9 29  1  0  0  0  0
 10 19  1  0  0  0  0
 10 11  1  0  0  0  0
 10 30  1  0  0  0  0
 11 12  1  0  0  0  0
 11 31  1  0  0  0  0
 11 32  1  0  0  0  0
 12 13  1  0  0  0  0
 12 33  1  0  0  0  0
 12 34  1  0  0  0  0
 13 14  1  0  0  0  0
 13 18  1  0  0  0  0
 13 49  1  0  0  0  0
 14 15  1  0  0  0  0
 14 35  1  0  0  0  0
 14 36  1  0  0  0  0
 15 16  1  0  0  0  0
 15 17  1  0  0  0  0
 15 37  1  0  0  0  0
 16 38  1  0  0  0  0
 16 39  1  0  0  0  0
 16 40  1  0  0  0  0
 17 41  1  0  0  0  0
 17 42  1  0  0  0  0
 17 43  1  0  0  0  0
 18 19  1  0  0  0  0
 18 44  1  0  0  0  0
 18 45  1  0  0  0  0
 19 46  1  0  0  0  0
 19 47  1  0  0  0  0
 20 21  2  0  0  0  0
 20 48  1  0  0  0  0
 21 50  1  0  0  0  0
M  CHG  1  13   1
M  CHG  1  21   1
M  END
> <s_m_source_file>
AV-unprocessed.smi

> <i_m_source_file_index>
1483

> <i_lp_mmshare_version>
43012

> <i_f3d_flags>
0

> <s_epik_input>
W0NIM11jMVtjSF1bY0hdYyhbY0hdbjEpW0NIMl1DKD1PKVtOSF1bQ0hdMltDSDJdW0NIMl1OKFtDSDJdW0NIMl0yKVtDSDJdW0NIXShbQ0gzXSlbQ0gzXQ==

> <s_epik_cmdline>
J2VwaWtfcHl0aG9uJywgJy1waCcsICc3LjAnLCAnLXRuJywgJzgnLCAnLW1hJywgJzIwMCcsICctbWV0YWxfYmluZGluZycsICctaW1hZScsICc8aW5maWxlLm1hZT4nLCAnLW9tYWUnLCAnPG91dGZpbGUubWFlPic=

> <r_epik_Ionization_Penalty>
2.20554

> <r_epik_Ionization_Penalty_Charging>
2.20554

> <r_epik_Ionization_Penalty_Neutral>
2.83835e-07

> <r_epik_State_Penalty>
2.34446

> <r_epik_Charging_Adjusted_Penalty>
4.55

> <i_epik_Tot_Q>
2

> <i_epik_Tot_abs_Q>
2

> <r_epik_Metal_State_Penalty>
2.35906

> <b_epik_Metal_Only>
0

> <s_lp_Force_Field>
OPLS_2005

> <r_lp_Energy>
27.324

> <b_lp_Chiralities_Consistent>
1

> <s_lp_Variant>
AV-unprocessed.smi:1483-3

> <Gold.Version>
5.8.1

> <Gold.Id.Protein>
6NUR|6NUR_protein|mol2

> <Gold.PLP.Fitness>
42.8682

> <Gold.PLP.PLP>
-38.5285

> <Gold.PLP.part.hbond>
-2.0000

> <Gold.PLP.part.metal>
0.0000

> <Gold.PLP.part.buried>
-4.2356

> <Gold.PLP.part.nonpolar>
-32.7711

> <Gold.PLP.part.repulsive>
0.1364

> <Gold.PLP.ligand.clash>
0.0000

> <Gold.PLP.ligand.torsion>
0.8543

> <Gold.PLP.Chemscore.Hbond>
2.0000

> <Gold.PLP.Chemscore.CHOScore>
0.0000

> <Gold.PLP.Chemscore.Metal>
0.0000

> <Gold.Chemscore.Hbonds>
donor molecule, donor type, donor heavy atom, donor atom, acceptor molecule, acceptor atom, score
      L1  H     9    29       P1 10175  0.86
      L1  H    21    50       P1  7921  0.71

> <Gold.PLP.Chemscore.Internal.Correction>
0.0483

> <Gold.Rescore>
     Score         DG    S(hbond)    S(metal)    S(lipo)     H(rot)  DE(clash)    DE(int)     intcor
     17.45     -20.18       1.92        0.00     104.67       1.55       0.54       2.19       ----

> <Gold.Chemscore.Fitness>
17.4477

> <Gold.Chemscore.DG>
-20.1829

> <Gold.Chemscore.ZeroCoef>
-5.4800

> <Gold.Chemscore.Hbond>
1.9249

> <Gold.Chemscore.Metal>
0.0000

> <Gold.Chemscore.Lipo>
104.6728

> <Gold.Chemscore.Internal_Hbond>
0.0000

> <Gold.Chemscore.DEClash>
0.5407

> <Gold.Chemscore.DEInternal>
2.1946

> <Gold.Chemscore.Rot>
1.5520

> <Gold.Chemscore.Internal.Correction>
   9.000000E+99

> <Gold.Chemscore.Hbonds>
donor molecule, donor type, donor heavy atom, donor atom, acceptor molecule, acceptor atom, score
      L1  H     9    29       P1 10175  0.84
      L1  H    21    50       P1  7921  0.71

> <Gold.Chemscore.Hbond.Weighted>
-6.4292

> <Gold.Chemscore.Metal.Weighted>
-0.0000

> <Gold.Chemscore.Lipo.Weighted>
-12.2467

> <Gold.Chemscore.Internal_Hbond.Weighted>
0.0000

> <Gold.Chemscore.DEClash.Weighted>
0.5407

> <Gold.Chemscore.DEInternal.Weighted>
2.1946

> <Gold.Chemscore.Rot.Weighted>
3.9730

> <Gold.Chemscore.Internal.Correction.Weighted>
   9.000000E+99

> <Gold.Protein.RotatedTorsions>
[ 6907 6896 6895 6894 ] final   44.79 input  -60.11 | X-H torsion
[ 7974 7965 7964 7962 ] final  154.13 input  175.53 | X-H torsion
[ 8008 7997 7996 7995 ] final  170.60 input   59.86 | X-H torsion
[ 10167 10162 10161 10158 ] final  161.95 input  -65.29 | X-H torsion
[ 10718 10713 10712 10709 ] final -110.28 input   66.30 | X-H torsion
[ 10763 10752 10751 10750 ] final -156.59 input  -60.55 | X-H torsion
[ 11005 11000 10999 10996 ] final   62.63 input  -57.11 | X-H torsion

> <Gold.Protein.ActiveResidues>
 VAL166  LYS551  ARG553  GLY616  TRP617  ASP618  TYR619  PRO620  LYS621  CYS622 
 ASP623  PHE694  ASN695  SER759  ASP760  ASP761  ALA762  ILE779  LEU786  VAL792 
 PHE793  MET794  SER795  GLU796  ALA797  LYS798  CYS799  TRP800  GLU811  SER814 

> <Gold.Protein.RotatedAtoms>
  152.2368  134.8268  160.0465 H   0  0  0  0  0  0  0  0  0  0  0  0  # atno 6907 bound_to 6896
  151.8997  133.3530  159.3834 H   0  0  0  0  0  0  0  0  0  0  0  0  # atno 6908 bound_to 6896
  150.7041  134.4766  159.5495 H   0  0  0  0  0  0  0  0  0  0  0  0  # atno 6909 bound_to 6896
  144.8108  139.6893  143.6142 H   0  0  0  0  0  0  0  0  0  0  0  0  # atno 7974 bound_to 7965
  156.1350  140.1534  156.9007 H   0  0  0  0  0  0  0  0  0  0  0  0  # atno 8008 bound_to 7997
  154.4940  140.0843  156.7696 H   0  0  0  0  0  0  0  0  0  0  0  0  # atno 8009 bound_to 7997
  155.4185  140.3422  155.4271 H   0  0  0  0  0  0  0  0  0  0  0  0  # atno 8010 bound_to 7997
  139.4855  144.4485  151.8860 H   0  0  0  0  0  0  0  0  0  0  0  0  # atno 10167 bound_to 10162
  156.0582  130.5807  150.8216 H   0  0  0  0  0  0  0  0  0  0  0  0  # atno 10718 bound_to 10713
  154.7701  135.3142  154.8207 H   0  0  0  0  0  0  0  0  0  0  0  0  # atno 10763 bound_to 10752
  153.8945  135.6822  153.4763 H   0  0  0  0  0  0  0  0  0  0  0  0  # atno 10764 bound_to 10752
  153.1313  135.4779  154.9288 H   0  0  0  0  0  0  0  0  0  0  0  0  # atno 10765 bound_to 10752
  140.0079  134.6341  155.9826 H   0  0  0  0  0  0  0  0  0  0  0  0  # atno 11005 bound_to 11000
  146.2407  139.5995  142.9493 LP  0  0  0  0  0  0  0  0  0  0  0  0  # atno 17320 bound_to 7965
  145.5327  141.0426  143.2374 LP  0  0  0  0  0  0  0  0  0  0  0  0  # atno 17321 bound_to 7965
  140.3941  144.2578  150.5897 LP  0  0  0  0  0  0  0  0  0  0  0  0  # atno 17342 bound_to 10162
  140.5119  143.2288  151.8523 LP  0  0  0  0  0  0  0  0  0  0  0  0  # atno 17343 bound_to 10162
  157.5570  131.0945  150.9614 LP  0  0  0  0  0  0  0  0  0  0  0  0  # atno 17370 bound_to 10713
  156.9860  130.5545  149.5299 LP  0  0  0  0  0  0  0  0  0  0  0  0  # atno 17371 bound_to 10713
  141.1690  133.6537  156.4582 LP  0  0  0  0  0  0  0  0  0  0  0  0  # atno 17394 bound_to 11000
  140.4608  134.6843  157.5084 LP  0  0  0  0  0  0  0  0  0  0  0  0  # atno 17395 bound_to 11000

$$$$
