AV-unprocessed.smi:3078|AV-procd|sdf|11736|dock7
  -GOLD-   2272017133D 1   1.00000     0.00000
 Structure written by MMmdl.
 24 24  0  0  0  0  0  0  0  0  3 V2000
  151.7331  138.4046  154.7113 C   0  0  0  0  0  0  0  0  0  0  0  0
  150.4726  139.0891  154.5172 N   0  0  0  0  0  0  0  0  0  0  0  0
  149.2705  138.5742  154.0834 C   0  0  0  0  0  0  0  0  0  0  0  0
  148.3657  139.6008  154.0610 C   0  0  0  0  0  0  0  0  0  0  0  0
  146.9101  139.5873  153.6669 C   0  0  1  0  0  0  0  0  0  0  0  0
  146.4186  140.9726  153.5547 N   0  3  0  0  0  0  0  0  0  0  0  0
  146.6567  138.8085  152.3608 C   0  0  0  0  0  0  0  0  0  0  0  0
  145.2740  138.3008  152.2804 N   0  3  0  0  0  0  0  0  0  0  0  0
  149.1305  140.7192  154.5023 C   0  0  0  0  0  0  0  0  0  0  0  0
  150.3857  140.4091  154.7773 N   0  0  0  0  0  0  0  0  0  0  0  0
  151.6754  137.3918  154.3111 H   0  0  0  0  0  0  0  0  0  0  0  0
  151.9640  138.3534  155.7756 H   0  0  0  0  0  0  0  0  0  0  0  0
  152.5306  138.9424  154.1973 H   0  0  0  0  0  0  0  0  0  0  0  0
  149.1613  137.5298  153.8294 H   0  0  0  0  0  0  0  0  0  0  0  0
  146.3183  139.1223  154.4567 H   0  0  0  0  0  0  0  0  0  0  0  0
  146.8534  141.4200  152.7598 H   0  0  0  0  0  0  0  0  0  0  0  0
  146.6492  141.4861  154.3934 H   0  0  0  0  0  0  0  0  0  0  0  0
  146.8269  139.4553  151.4993 H   0  0  0  0  0  0  0  0  0  0  0  0
  147.3475  137.9696  152.2677 H   0  0  0  0  0  0  0  0  0  0  0  0
  145.1930  137.4520  152.8224 H   0  0  0  0  0  0  0  0  0  0  0  0
  145.0368  138.1055  151.3180 H   0  0  0  0  0  0  0  0  0  0  0  0
  148.8103  141.7425  154.6329 H   0  0  0  0  0  0  0  0  0  0  0  0
  144.6365  138.9934  152.6476 H   0  0  0  0  0  0  0  0  0  0  0  0
  145.4165  140.9703  153.4266 H   0  0  0  0  0  0  0  0  0  0  0  0
  1  2  1  0  0  0  0
  1 11  1  0  0  0  0
  1 12  1  0  0  0  0
  1 13  1  0  0  0  0
  2 10  1  0  0  0  0
  2  3  1  0  0  0  0
  3  4  2  0  0  0  0
  3 14  1  0  0  0  0
  4  5  1  0  0  0  0
  4  9  1  0  0  0  0
  5  6  1  0  0  0  0
  5  7  1  0  0  0  0
  5 15  1  0  0  0  0
  6 16  1  0  0  0  0
  6 17  1  0  0  0  0
  6 24  1  0  0  0  0
  7  8  1  0  0  0  0
  7 18  1  0  0  0  0
  7 19  1  0  0  0  0
  8 20  1  0  0  0  0
  8 21  1  0  0  0  0
  8 23  1  0  0  0  0
  9 10  2  0  0  0  0
  9 22  1  0  0  0  0
M  CHG  1   6   1
M  CHG  1   8   1
M  END
> <s_m_source_file>
AV-unprocessed.smi

> <i_m_source_file_index>
3078

> <i_lp_mmshare_version>
43012

> <i_f3d_flags>
0

> <s_epik_input>
W0NIM11uMVtjSF1jKFtjSF1uMSlbQ0BIXShbTkgyXSlbQ0gyXVtOSDJd

> <s_epik_cmdline>
J2VwaWtfcHl0aG9uJywgJy1waCcsICc3LjAnLCAnLXRuJywgJzgnLCAnLW1hJywgJzIwMCcsICctbWV0YWxfYmluZGluZycsICctaW1hZScsICc8aW5maWxlLm1hZT4nLCAnLW9tYWUnLCAnPG91dGZpbGUubWFlPic=

> <r_lp_tautomer_probability>
1

> <r_epik_Ionization_Penalty>
2.39325

> <r_epik_Ionization_Penalty_Charging>
2.39325

> <r_epik_Ionization_Penalty_Neutral>
1.68997e-07

> <r_epik_State_Penalty>
1.77229

> <r_epik_Charging_Adjusted_Penalty>
4.16555

> <i_epik_Tot_Q>
2

> <i_epik_Tot_abs_Q>
2

> <r_epik_Metal_State_Penalty>
1.77233

> <b_epik_Metal_Only>
0

> <s_lp_Force_Field>
OPLS_2005

> <r_lp_Energy>
8.51806

> <b_lp_Chiralities_Consistent>
1

> <s_lp_Variant>
AV-unprocessed.smi:3078-6

> <Gold.Version>
5.8.1

> <Gold.Id.Protein>
6NUR|6NUR_protein|mol2

> <Gold.PLP.Fitness>
41.9071

> <Gold.PLP.PLP>
-22.5115

> <Gold.PLP.part.hbond>
-4.0000

> <Gold.PLP.part.metal>
0.0000

> <Gold.PLP.part.buried>
-2.4240

> <Gold.PLP.part.nonpolar>
-17.7940

> <Gold.PLP.part.repulsive>
0.1335

> <Gold.PLP.ligand.clash>
0.0000

> <Gold.PLP.ligand.torsion>
0.5316

> <Gold.PLP.Chemscore.Hbond>
5.8140

> <Gold.PLP.Chemscore.CHOScore>
1.0000

> <Gold.PLP.Chemscore.Metal>
0.0000

> <Gold.Chemscore.Hbonds>
donor molecule, donor type, donor heavy atom, donor atom, acceptor molecule, acceptor atom, score
      L1  H     6    24       P1 10175  2.00
      L1  H     8    21       P1 10171  0.90
      L1  H     8    23       P1 10175  2.00
      P1  H  7989  7998       L1    10  0.70
      L1  C     3    14       P1  7948  1.00

> <Gold.PLP.Chemscore.Internal.Correction>
0.0169

> <Gold.Rescore>
     Score         DG    S(hbond)    S(metal)    S(lipo)     H(rot)  DE(clash)    DE(int)     intcor
     18.23     -18.33       3.52        0.00      40.78       1.43       0.06       0.05       ----

> <Gold.Chemscore.Fitness>
18.2279

> <Gold.Chemscore.DG>
-18.3314

> <Gold.Chemscore.ZeroCoef>
-5.4800

> <Gold.Chemscore.Hbond>
3.5156

> <Gold.Chemscore.Metal>
0.0000

> <Gold.Chemscore.Lipo>
40.7792

> <Gold.Chemscore.Internal_Hbond>
0.0000

> <Gold.Chemscore.DEClash>
0.0576

> <Gold.Chemscore.DEInternal>
0.0458

> <Gold.Chemscore.Rot>
1.4304

> <Gold.Chemscore.Internal.Correction>
   9.000000E+99

> <Gold.Chemscore.Hbonds>
donor molecule, donor type, donor heavy atom, donor atom, acceptor molecule, acceptor atom, score
      L1  H     6    24       P1 10175  0.60
      L1  H     8    21       P1 10171  0.87
      L1  H     8    23       P1 10175  0.95
      P1  H  7989  7998       L1    10  0.06

> <Gold.Chemscore.Hbond.Weighted>
-11.7420

> <Gold.Chemscore.Metal.Weighted>
-0.0000

> <Gold.Chemscore.Lipo.Weighted>
-4.7712

> <Gold.Chemscore.Internal_Hbond.Weighted>
0.0000

> <Gold.Chemscore.DEClash.Weighted>
0.0576

> <Gold.Chemscore.DEInternal.Weighted>
0.0458

> <Gold.Chemscore.Rot.Weighted>
3.6618

> <Gold.Chemscore.Internal.Correction.Weighted>
   9.000000E+99

> <Gold.Protein.RotatedTorsions>
[ 6907 6896 6895 6894 ] final -112.41 input  -60.11 | X-H torsion
[ 7974 7965 7964 7962 ] final  145.67 input  175.53 | X-H torsion
[ 8008 7997 7996 7995 ] final   -1.83 input   59.86 | X-H torsion
[ 10167 10162 10161 10158 ] final -161.66 input  -65.29 | X-H torsion
[ 10718 10713 10712 10709 ] final   77.38 input   66.30 | X-H torsion
[ 10763 10752 10751 10750 ] final   71.16 input  -60.55 | X-H torsion
[ 11005 11000 10999 10996 ] final   -0.71 input  -57.11 | X-H torsion

> <Gold.Protein.ActiveResidues>
 VAL166  LYS551  ARG553  GLY616  TRP617  ASP618  TYR619  PRO620  LYS621  CYS622 
 ASP623  PHE694  ASN695  SER759  ASP760  ASP761  ALA762  ILE779  LEU786  VAL792 
 PHE793  MET794  SER795  GLU796  ALA797  LYS798  CYS799  TRP800  GLU811  SER814 

> <Gold.Protein.RotatedAtoms>
  150.7757  133.9093  159.3364 H   0  0  0  0  0  0  0  0  0  0  0  0  # atno 6907 bound_to 6896
  151.6968  135.0935  160.0253 H   0  0  0  0  0  0  0  0  0  0  0  0  # atno 6908 bound_to 6896
  152.3791  133.6484  159.6183 H   0  0  0  0  0  0  0  0  0  0  0  0  # atno 6909 bound_to 6896
  144.8733  139.5811  143.5876 H   0  0  0  0  0  0  0  0  0  0  0  0  # atno 7974 bound_to 7965
  154.6424  140.2549  155.7307 H   0  0  0  0  0  0  0  0  0  0  0  0  # atno 8008 bound_to 7997
  156.2535  140.2884  156.0744 H   0  0  0  0  0  0  0  0  0  0  0  0  # atno 8009 bound_to 7997
  155.1576  140.0383  157.2825 H   0  0  0  0  0  0  0  0  0  0  0  0  # atno 8010 bound_to 7997
  139.6449  144.0191  152.2119 H   0  0  0  0  0  0  0  0  0  0  0  0  # atno 10167 bound_to 10162
  157.6708  130.9819  150.1632 H   0  0  0  0  0  0  0  0  0  0  0  0  # atno 10718 bound_to 10713
  153.0383  135.5147  154.7551 H   0  0  0  0  0  0  0  0  0  0  0  0  # atno 10763 bound_to 10752
  154.6509  135.2925  154.9990 H   0  0  0  0  0  0  0  0  0  0  0  0  # atno 10764 bound_to 10752
  154.0874  135.6655  153.4900 H   0  0  0  0  0  0  0  0  0  0  0  0  # atno 10765 bound_to 10752
  140.6393  133.9504  155.8317 H   0  0  0  0  0  0  0  0  0  0  0  0  # atno 11005 bound_to 11000
  146.2946  139.7238  142.9136 LP  0  0  0  0  0  0  0  0  0  0  0  0  # atno 17320 bound_to 7965
  145.4089  141.0394  143.3028 LP  0  0  0  0  0  0  0  0  0  0  0  0  # atno 17321 bound_to 7965
  139.9890  144.6375  150.7831 LP  0  0  0  0  0  0  0  0  0  0  0  0  # atno 17342 bound_to 10162
  140.7509  143.2964  151.3194 LP  0  0  0  0  0  0  0  0  0  0  0  0  # atno 17343 bound_to 10162
  156.2404  130.3690  149.8344 LP  0  0  0  0  0  0  0  0  0  0  0  0  # atno 17370 bound_to 10713
  156.6146  130.8601  151.3462 LP  0  0  0  0  0  0  0  0  0  0  0  0  # atno 17371 bound_to 10713
  141.0619  134.0334  157.3647 LP  0  0  0  0  0  0  0  0  0  0  0  0  # atno 17394 bound_to 11000
  139.9086  135.0185  156.7596 LP  0  0  0  0  0  0  0  0  0  0  0  0  # atno 17395 bound_to 11000

$$$$
