AV-unprocessed.smi:68|AV-procd|sdf|640|dock4
  -GOLD-   2262016533D 1   1.00000     0.00000
 Structure written by MMmdl.
 23 24  0  0  0  0  0  0  0  0  1 V2000
  151.1457  139.3742  154.5141 O   0  0  0  0  0  0  0  0  0  0  0  0
  151.1889  140.0693  155.5272 C   0  0  0  0  0  0  0  0  0  0  0  0
  152.1399  139.8094  156.5182 N   0  0  0  0  0  0  0  0  0  0  0  0
  152.2884  140.5244  157.7081 C   0  0  0  0  0  0  0  0  0  0  0  0
  153.1762  140.2156  158.5019 O   0  0  0  0  0  0  0  0  0  0  0  0
  151.3928  141.5935  157.9341 N   0  0  0  0  0  0  0  0  0  0  0  0
  151.5146  142.4038  159.2048 C   0  0  1  0  0  0  0  0  0  0  0  0
  152.8826  143.0920  159.2800 C   0  0  0  0  0  0  0  0  0  0  0  0
  152.5137  144.4504  159.8359 C   0  0  0  0  0  0  0  0  0  0  0  0
  151.1510  144.6838  159.1962 C   0  0  0  0  0  0  0  0  0  0  0  0
  150.5327  143.4009  159.2140 O   0  0  0  0  0  0  0  0  0  0  0  0
  150.4410  141.8972  156.9695 C   0  0  0  0  0  0  0  0  0  0  0  0
  150.3101  141.1986  155.8171 C   0  0  0  0  0  0  0  0  0  0  0  0
  149.3653  141.5530  154.9297 F   0  0  0  0  0  0  0  0  0  0  0  0
  152.7759  139.0420  156.3577 H   0  0  0  0  0  0  0  0  0  0  0  0
  151.3134  141.7387  160.0461 H   0  0  0  0  0  0  0  0  0  0  0  0
  153.5756  142.5302  159.9069 H   0  0  0  0  0  0  0  0  0  0  0  0
  153.3064  143.1945  158.2796 H   0  0  0  0  0  0  0  0  0  0  0  0
  152.4163  144.3999  160.9212 H   0  0  0  0  0  0  0  0  0  0  0  0
  153.2399  145.2257  159.5907 H   0  0  0  0  0  0  0  0  0  0  0  0
  150.5545  145.4207  159.7341 H   0  0  0  0  0  0  0  0  0  0  0  0
  151.2646  145.0248  158.1668 H   0  0  0  0  0  0  0  0  0  0  0  0
  149.7697  142.7271  157.1274 H   0  0  0  0  0  0  0  0  0  0  0  0
  1  2  2  0  0  0  0
  2 13  1  0  0  0  0
  2  3  1  0  0  0  0
  3 15  1  0  0  0  0
  3  4  1  0  0  0  0
  4  5  2  0  0  0  0
  4  6  1  0  0  0  0
  6  7  1  0  0  0  0
  6 12  1  0  0  0  0
  7 11  1  0  0  0  0
  7  8  1  0  0  0  0
  7 16  1  0  0  0  0
  8  9  1  0  0  0  0
  8 17  1  0  0  0  0
  8 18  1  0  0  0  0
  9 10  1  0  0  0  0
  9 19  1  0  0  0  0
  9 20  1  0  0  0  0
 10 11  1  0  0  0  0
 10 21  1  0  0  0  0
 10 22  1  0  0  0  0
 12 13  2  0  0  0  0
 12 23  1  0  0  0  0
 13 14  1  0  0  0  0
M  END
> <s_m_source_file>
AV-unprocessed.smi

> <i_m_source_file_index>
68

> <i_lp_mmshare_version>
43012

> <i_f3d_flags>
0

> <s_epik_input>
Tz1jMVtuSF1jKD1PKW4oW2NIXWMxRilbQ0BASF0yW0NIMl1bQ0gyXVtDSDJdTzI=

> <s_epik_cmdline>
J2VwaWtfcHl0aG9uJywgJy1waCcsICc3LjAnLCAnLXRuJywgJzgnLCAnLW1hJywgJzIwMCcsICctbWV0YWxfYmluZGluZycsICctaW1hZScsICc8aW5maWxlLm1hZT4nLCAnLW9tYWUnLCAnPG91dGZpbGUubWFlPic=

> <r_lp_tautomer_probability>
0.999537

> <r_epik_Ionization_Penalty>
0.0350763

> <r_epik_Ionization_Penalty_Charging>
0.0350763

> <r_epik_Ionization_Penalty_Neutral>
6.20402e-12

> <r_epik_State_Penalty>
0.0292209

> <r_epik_Charging_Adjusted_Penalty>
0.0642972

> <i_epik_Tot_Q>
0

> <i_epik_Tot_abs_Q>
0

> <r_epik_Metal_State_Penalty>
2.33597

> <b_epik_Metal_Only>
0

> <s_epik_Chemistry_Notes>
This compound contains an acetal/aminal-like group ( X-CH(R)-Y where X, Y are N, S, or O) that may be acid/base labile, releasing an aldehyde.

> <s_lp_Force_Field>
OPLS_2005

> <r_lp_Energy>
24.1423

> <b_lp_Chiralities_Consistent>
1

> <s_lp_Variant>
AV-unprocessed.smi:68-2

> <Gold.Version>
5.8.1

> <Gold.Id.Protein>
6NUR|6NUR_protein|mol2

> <Gold.PLP.Fitness>
37.1983

> <Gold.PLP.PLP>
-29.9939

> <Gold.PLP.part.hbond>
-2.0000

> <Gold.PLP.part.metal>
0.0000

> <Gold.PLP.part.buried>
-1.1922

> <Gold.PLP.part.nonpolar>
-25.0114

> <Gold.PLP.part.repulsive>
0.3782

> <Gold.PLP.ligand.clash>
0.0000

> <Gold.PLP.ligand.torsion>
0.0062

> <Gold.PLP.Chemscore.Hbond>
1.4100

> <Gold.PLP.Chemscore.CHOScore>
0.9941

> <Gold.PLP.Chemscore.Metal>
0.0000

> <Gold.Chemscore.Hbonds>
donor molecule, donor type, donor heavy atom, donor atom, acceptor molecule, acceptor atom, score
      P1  H  7989  7998       L1     1  0.50
      P1  H  7997  8009       L1     5  0.70
      L1  C    12    23       P1  8028  0.77

> <Gold.PLP.Chemscore.Internal.Correction>
0.0045

> <Gold.Rescore>
     Score         DG    S(hbond)    S(metal)    S(lipo)     H(rot)  DE(clash)    DE(int)     intcor
     11.47     -11.59       0.98        0.00      46.05       1.00       0.00       0.12       ----

> <Gold.Chemscore.Fitness>
11.4722

> <Gold.Chemscore.DG>
-11.5939

> <Gold.Chemscore.ZeroCoef>
-5.4800

> <Gold.Chemscore.Hbond>
0.9839

> <Gold.Chemscore.Metal>
0.0000

> <Gold.Chemscore.Lipo>
46.0481

> <Gold.Chemscore.Internal_Hbond>
0.0000

> <Gold.Chemscore.DEClash>
0.0048

> <Gold.Chemscore.DEInternal>
0.1169

> <Gold.Chemscore.Rot>
1.0000

> <Gold.Chemscore.Internal.Correction>
   9.000000E+99

> <Gold.Chemscore.Hbonds>
donor molecule, donor type, donor heavy atom, donor atom, acceptor molecule, acceptor atom, score
      P1  H  7989  7998       L1     1  0.02
      P1  H  7997  8009       L1     5  0.08

> <Gold.Chemscore.Hbond.Weighted>
-3.2863

> <Gold.Chemscore.Metal.Weighted>
-0.0000

> <Gold.Chemscore.Lipo.Weighted>
-5.3876

> <Gold.Chemscore.Internal_Hbond.Weighted>
0.0000

> <Gold.Chemscore.DEClash.Weighted>
0.0048

> <Gold.Chemscore.DEInternal.Weighted>
0.1169

> <Gold.Chemscore.Rot.Weighted>
2.5600

> <Gold.Chemscore.Internal.Correction.Weighted>
   9.000000E+99

> <Gold.Protein.RotatedTorsions>
[ 6907 6896 6895 6894 ] final   34.71 input  -60.11 | X-H torsion
[ 7974 7965 7964 7962 ] final -158.70 input  175.53 | X-H torsion
[ 8008 7997 7996 7995 ] final  151.05 input   59.86 | X-H torsion
[ 10167 10162 10161 10158 ] final -104.99 input  -65.29 | X-H torsion
[ 10718 10713 10712 10709 ] final   -0.98 input   66.30 | X-H torsion
[ 10763 10752 10751 10750 ] final  152.50 input  -60.55 | X-H torsion
[ 11005 11000 10999 10996 ] final   14.18 input  -57.11 | X-H torsion

> <Gold.Protein.ActiveResidues>
 VAL166  LYS551  ARG553  GLY616  TRP617  ASP618  TYR619  PRO620  LYS621  CYS622 
 ASP623  PHE694  ASN695  SER759  ASP760  ASP761  ALA762  ILE779  LEU786  VAL792 
 PHE793  MET794  SER795  GLU796  ALA797  LYS798  CYS799  TRP800  GLU811  SER814 

> <Gold.Protein.RotatedAtoms>
  152.1062  134.9307  160.0567 H   0  0  0  0  0  0  0  0  0  0  0  0  # atno 6907 bound_to 6896
  152.0502  133.4011  159.4382 H   0  0  0  0  0  0  0  0  0  0  0  0  # atno 6908 bound_to 6896
  150.6841  134.3237  159.4841 H   0  0  0  0  0  0  0  0  0  0  0  0  # atno 6909 bound_to 6896
  144.7495  140.3790  143.6059 H   0  0  0  0  0  0  0  0  0  0  0  0  # atno 7974 bound_to 7965
  156.2690  140.2058  156.6114 H   0  0  0  0  0  0  0  0  0  0  0  0  # atno 8008 bound_to 7997
  154.6828  140.0538  157.0307 H   0  0  0  0  0  0  0  0  0  0  0  0  # atno 8009 bound_to 7997
  155.0976  140.3203  155.4559 H   0  0  0  0  0  0  0  0  0  0  0  0  # atno 8010 bound_to 7997
  140.2033  143.3802  152.1111 H   0  0  0  0  0  0  0  0  0  0  0  0  # atno 10167 bound_to 10162
  156.8124  130.5429  149.5707 H   0  0  0  0  0  0  0  0  0  0  0  0  # atno 10718 bound_to 10713
  154.1210  135.2833  155.3208 H   0  0  0  0  0  0  0  0  0  0  0  0  # atno 10763 bound_to 10752
  154.6423  135.5398  153.7807 H   0  0  0  0  0  0  0  0  0  0  0  0  # atno 10764 bound_to 10752
  153.0313  135.6489  154.1364 H   0  0  0  0  0  0  0  0  0  0  0  0  # atno 10765 bound_to 10752
  140.4724  134.1018  155.7735 H   0  0  0  0  0  0  0  0  0  0  0  0  # atno 11005 bound_to 11000
  145.6998  139.1658  143.2599 LP  0  0  0  0  0  0  0  0  0  0  0  0  # atno 17320 bound_to 7965
  146.1424  140.7040  142.9361 LP  0  0  0  0  0  0  0  0  0  0  0  0  # atno 17321 bound_to 7965
  139.5208  144.7038  151.5415 LP  0  0  0  0  0  0  0  0  0  0  0  0  # atno 17342 bound_to 10162
  140.6375  143.8955  150.6661 LP  0  0  0  0  0  0  0  0  0  0  0  0  # atno 17343 bound_to 10162
  156.1036  130.5988  150.9935 LP  0  0  0  0  0  0  0  0  0  0  0  0  # atno 17370 bound_to 10713
  157.6499  131.0898  150.8073 LP  0  0  0  0  0  0  0  0  0  0  0  0  # atno 17371 bound_to 10713
  141.1571  133.8863  157.1949 LP  0  0  0  0  0  0  0  0  0  0  0  0  # atno 17394 bound_to 11000
  139.9877  135.0076  156.9901 LP  0  0  0  0  0  0  0  0  0  0  0  0  # atno 17395 bound_to 11000

$$$$
