AV-unprocessed.smi:44|AV-procd|sdf|400|dock3
  -GOLD-   2262016253D 1   1.00000     0.00000
 Structure written by MMmdl.
 29 31  0  0  0  0  0  0  0  0  3 V2000
  152.5953  139.9717  158.7694 O   0  0  0  0  0  0  0  0  0  0  0  0
  152.2836  139.8523  157.5864 C   0  0  0  0  0  0  0  0  0  0  0  0
  152.8975  139.0906  156.6243 N   0  5  0  0  0  0  0  0  0  0  0  0
  152.4327  139.0519  155.3142 C   0  0  0  0  0  0  0  0  0  0  0  0
  151.4226  139.6793  154.8242 N   0  0  0  0  0  0  0  0  0  0  0  0
  150.7260  140.4876  155.7349 C   0  0  0  0  0  0  0  0  0  0  0  0
  151.0973  140.6015  157.0544 C   0  0  0  0  0  0  0  0  0  0  0  0
  150.2426  141.4541  157.7003 N   0  3  0  0  0  0  0  0  0  0  0  0
  149.3909  141.8193  156.7420 C   0  0  0  0  0  0  0  0  0  0  0  0
  149.6220  141.2707  155.5117 N   0  0  0  0  0  0  0  0  0  0  0  0
  148.8403  141.4922  154.2598 C   0  0  2  0  0  0  0  0  0  0  0  0
  147.5059  142.1763  154.5786 C   0  0  0  0  0  0  0  0  0  0  0  0
  146.5505  141.4083  153.6919 C   0  0  0  0  0  0  0  0  0  0  0  0
  147.1496  140.0044  153.7510 C   0  0  1  0  0  0  0  0  0  0  0  0
  146.7225  139.0798  152.6026 C   0  0  0  0  0  0  0  0  0  0  0  0
  146.7283  139.7879  151.3817 O   0  0  0  0  0  0  0  0  0  0  0  0
  148.5512  140.2478  153.6905 O   0  0  0  0  0  0  0  0  0  0  0  0
  150.2536  141.7382  158.6715 H   0  0  0  0  0  0  0  0  0  0  0  0
  149.4927  142.0716  153.6054 H   0  0  0  0  0  0  0  0  0  0  0  0
  146.9229  139.5423  154.7134 H   0  0  0  0  0  0  0  0  0  0  0  0
  153.0400  138.3959  154.6856 H   0  0  0  0  0  0  0  0  0  0  0  0
  148.5774  142.4983  156.9212 H   0  0  0  0  0  0  0  0  0  0  0  0
  147.2461  142.0366  155.6294 H   0  0  0  0  0  0  0  0  0  0  0  0
  147.5476  143.2436  154.3600 H   0  0  0  0  0  0  0  0  0  0  0  0
  145.5189  141.4469  154.0426 H   0  0  0  0  0  0  0  0  0  0  0  0
  146.5829  141.8007  152.6743 H   0  0  0  0  0  0  0  0  0  0  0  0
  147.3822  138.2148  152.5286 H   0  0  0  0  0  0  0  0  0  0  0  0
  145.7142  138.7041  152.7779 H   0  0  0  0  0  0  0  0  0  0  0  0
  147.6198  140.0250  151.1761 H   0  0  0  0  0  0  0  0  0  0  0  0
  1  2  2  0  0  0  0
  2  7  1  0  0  0  0
  2  3  1  0  0  0  0
  3  4  1  0  0  0  0
  4 21  1  0  0  0  0
  4  5  2  0  0  0  0
  5  6  1  0  0  0  0
  6 10  1  0  0  0  0
  6  7  2  0  0  0  0
  7  8  1  0  0  0  0
  8  9  2  0  0  0  0
  8 18  1  0  0  0  0
  9 10  1  0  0  0  0
  9 22  1  0  0  0  0
 10 11  1  0  0  0  0
 11 19  1  0  0  0  0
 11 17  1  0  0  0  0
 11 12  1  0  0  0  0
 12 13  1  0  0  0  0
 12 23  1  0  0  0  0
 12 24  1  0  0  0  0
 13 14  1  0  0  0  0
 13 25  1  0  0  0  0
 13 26  1  0  0  0  0
 14 20  1  0  0  0  0
 14 15  1  0  0  0  0
 14 17  1  0  0  0  0
 15 16  1  0  0  0  0
 15 27  1  0  0  0  0
 15 28  1  0  0  0  0
 16 29  1  0  0  0  0
M  CHG  1   3  -1
M  CHG  1   8   1
M  END
> <s_m_source_file>
AV-unprocessed.smi

> <i_m_source_file_index>
44

> <i_lp_mmshare_version>
43012

> <i_f3d_flags>
0

> <s_epik_input>
bjFbY0hdW25IXWMoPU8pYyhjMTIpbltjSF1uMltDQEhdM1tDSDJdW0NIMl1bQ0BIXShPMylbQ0gyXVtPSF0=

> <s_epik_cmdline>
J2VwaWtfcHl0aG9uJywgJy1waCcsICc3LjAnLCAnLXRuJywgJzgnLCAnLW1hJywgJzIwMCcsICctbWV0YWxfYmluZGluZycsICctaW1hZScsICc8aW5maWxlLm1hZT4nLCAnLW9tYWUnLCAnPG91dGZpbGUubWFlPic=

> <r_lp_tautomer_probability>
0.144281

> <r_epik_Ionization_Penalty>
5.63685

> <r_epik_Ionization_Penalty_Charging>
5.58669

> <r_epik_Ionization_Penalty_Neutral>
0.0501585

> <r_epik_State_Penalty>
1.20809

> <r_epik_Charging_Adjusted_Penalty>
6.79478

> <i_epik_Tot_Q>
0

> <i_epik_Tot_abs_Q>
2

> <r_epik_Metal_State_Penalty>
1.52487

> <b_epik_Metal_Only>
0

> <s_epik_Chemistry_Notes>
This compound contains an acetal/aminal-like group ( X-CH(R)-Y where X, Y are N, S, or O) that may be acid/base labile, releasing an aldehyde.

> <s_lp_Force_Field>
OPLS_2005

> <r_lp_Energy>
45.8443

> <b_lp_Chiralities_Consistent>
1

> <s_lp_Variant>
AV-unprocessed.smi:44-6

> <Gold.Version>
5.8.1

> <Gold.Id.Protein>
6NUR|6NUR_protein|mol2

> <Gold.PLP.Fitness>
41.4634

> <Gold.PLP.PLP>
-28.3514

> <Gold.PLP.part.hbond>
-3.0000

> <Gold.PLP.part.metal>
0.0000

> <Gold.PLP.part.buried>
-1.0734

> <Gold.PLP.part.nonpolar>
-25.7946

> <Gold.PLP.part.repulsive>
2.5985

> <Gold.PLP.ligand.clash>
0.0000

> <Gold.PLP.ligand.torsion>
0.3997

> <Gold.PLP.Chemscore.Hbond>
4.0000

> <Gold.PLP.Chemscore.CHOScore>
0.6335

> <Gold.PLP.Chemscore.Metal>
0.0000

> <Gold.Chemscore.Hbonds>
donor molecule, donor type, donor heavy atom, donor atom, acceptor molecule, acceptor atom, score
      L1  H    16    29       P1  7957  1.00
      P1  H  7989  7998       L1     5  1.00
      P1  H  7997  8008       L1     3  1.50
      L1  C     9    22       P1  8028  0.60

> <Gold.PLP.Chemscore.Internal.Correction>
0.0107

> <Gold.Rescore>
     Score         DG    S(hbond)    S(metal)    S(lipo)     H(rot)  DE(clash)    DE(int)     intcor
      9.82     -10.28       2.15        0.00      29.29       2.27       0.14       0.32       ----

> <Gold.Chemscore.Fitness>
9.8186

> <Gold.Chemscore.DG>
-10.2811

> <Gold.Chemscore.ZeroCoef>
-5.4800

> <Gold.Chemscore.Hbond>
2.1527

> <Gold.Chemscore.Metal>
0.0000

> <Gold.Chemscore.Lipo>
29.2933

> <Gold.Chemscore.Internal_Hbond>
0.0000

> <Gold.Chemscore.DEClash>
0.1423

> <Gold.Chemscore.DEInternal>
0.3202

> <Gold.Chemscore.Rot>
2.2720

> <Gold.Chemscore.Internal.Correction>
   9.000000E+99

> <Gold.Chemscore.Hbonds>
donor molecule, donor type, donor heavy atom, donor atom, acceptor molecule, acceptor atom, score
      L1  H    16    29       P1  7957  0.98
      P1  H  7989  7998       L1     5  0.25
      P1  H  7997  8008       L1     3  0.04

> <Gold.Chemscore.Hbond.Weighted>
-7.1902

> <Gold.Chemscore.Metal.Weighted>
-0.0000

> <Gold.Chemscore.Lipo.Weighted>
-3.4273

> <Gold.Chemscore.Internal_Hbond.Weighted>
0.0000

> <Gold.Chemscore.DEClash.Weighted>
0.1423

> <Gold.Chemscore.DEInternal.Weighted>
0.3202

> <Gold.Chemscore.Rot.Weighted>
5.8164

> <Gold.Chemscore.Internal.Correction.Weighted>
   9.000000E+99

> <Gold.Protein.RotatedTorsions>
[ 6907 6896 6895 6894 ] final -159.31 input  -60.11 | X-H torsion
[ 7974 7965 7964 7962 ] final  176.33 input  175.53 | X-H torsion
[ 8008 7997 7996 7995 ] final  -54.28 input   59.86 | X-H torsion
[ 10167 10162 10161 10158 ] final   49.45 input  -65.29 | X-H torsion
[ 10718 10713 10712 10709 ] final -121.19 input   66.30 | X-H torsion
[ 10763 10752 10751 10750 ] final  134.02 input  -60.55 | X-H torsion
[ 11005 11000 10999 10996 ] final   72.92 input  -57.11 | X-H torsion

> <Gold.Protein.ActiveResidues>
 VAL166  LYS551  ARG553  GLY616  TRP617  ASP618  TYR619  PRO620  LYS621  CYS622 
 ASP623  PHE694  ASN695  SER759  ASP760  ASP761  ALA762  ILE779  LEU786  VAL792 
 PHE793  MET794  SER795  GLU796  ALA797  LYS798  CYS799  TRP800  GLU811  SER814 

> <Gold.Protein.RotatedAtoms>
  151.3316  133.3998  159.2662 H   0  0  0  0  0  0  0  0  0  0  0  0  # atno 6907 bound_to 6896
  150.9951  134.9277  159.7932 H   0  0  0  0  0  0  0  0  0  0  0  0  # atno 6908 bound_to 6896
  152.5259  134.3281  159.9225 H   0  0  0  0  0  0  0  0  0  0  0  0  # atno 6909 bound_to 6896
  144.7186  140.0080  143.6440 H   0  0  0  0  0  0  0  0  0  0  0  0  # atno 7974 bound_to 7965
  154.4158  140.1180  156.5290 H   0  0  0  0  0  0  0  0  0  0  0  0  # atno 8008 bound_to 7997
  155.6625  140.3496  155.4769 H   0  0  0  0  0  0  0  0  0  0  0  0  # atno 8009 bound_to 7997
  155.9701  140.1139  157.0810 H   0  0  0  0  0  0  0  0  0  0  0  0  # atno 8010 bound_to 7997
  140.2828  144.3137  150.6260 H   0  0  0  0  0  0  0  0  0  0  0  0  # atno 10167 bound_to 10162
  156.1317  130.6401  150.9632 H   0  0  0  0  0  0  0  0  0  0  0  0  # atno 10718 bound_to 10713
  153.8166  135.3122  155.3406 H   0  0  0  0  0  0  0  0  0  0  0  0  # atno 10763 bound_to 10752
  154.8030  135.4715  154.0324 H   0  0  0  0  0  0  0  0  0  0  0  0  # atno 10764 bound_to 10752
  153.1720  135.6879  153.8684 H   0  0  0  0  0  0  0  0  0  0  0  0  # atno 10765 bound_to 10752
  139.9466  134.7302  156.0964 H   0  0  0  0  0  0  0  0  0  0  0  0  # atno 11005 bound_to 11000
  146.0281  139.3310  143.0772 LP  0  0  0  0  0  0  0  0  0  0  0  0  # atno 17320 bound_to 7965
  145.8486  140.9541  143.0761 LP  0  0  0  0  0  0  0  0  0  0  0  0  # atno 17321 bound_to 7965
  140.5798  143.2173  151.7449 LP  0  0  0  0  0  0  0  0  0  0  0  0  # atno 17342 bound_to 10162
  139.4958  144.4097  152.0094 LP  0  0  0  0  0  0  0  0  0  0  0  0  # atno 17343 bound_to 10162
  157.6495  131.0899  150.8082 LP  0  0  0  0  0  0  0  0  0  0  0  0  # atno 17370 bound_to 10713
  156.8166  130.4970  149.5348 LP  0  0  0  0  0  0  0  0  0  0  0  0  # atno 17371 bound_to 10713
  141.1118  133.6641  156.2997 LP  0  0  0  0  0  0  0  0  0  0  0  0  # atno 17394 bound_to 11000
  140.5820  134.5736  157.5481 LP  0  0  0  0  0  0  0  0  0  0  0  0  # atno 17395 bound_to 11000

$$$$
