AV-unprocessed.smi:831|AV-procd|sdf|3875|dock5
  -GOLD-   22720 1333D 1   1.00000     0.00000
 Structure written by MMmdl.
 50 51  0  0  0  0  0  0  0  0  1 V2000
  152.7069  142.1478  159.7134 C   0  0  0  0  0  0  0  0  0  0  0  0
  152.3579  143.0302  158.5045 C   0  0  0  0  0  0  0  0  0  0  0  0
  152.2536  144.5058  158.9170 C   0  0  0  0  0  0  0  0  0  0  0  0
  151.0674  142.5559  157.8176 C   0  0  0  0  0  0  0  0  0  0  0  0
  151.2529  141.2271  157.3430 O   0  0  0  0  0  0  0  0  0  0  0  0
  150.9906  141.0346  155.9565 C   0  0  1  0  0  0  0  0  0  0  0  0
  151.4557  139.6148  155.6003 C   0  0  0  0  0  0  0  0  0  0  0  0
  149.4816  141.2069  155.6792 C   0  0  0  0  0  0  0  0  0  0  0  0
  148.7098  141.3560  156.6248 O   0  0  0  0  0  0  0  0  0  0  0  0
  149.0217  141.2100  154.4166 N   0  0  0  0  0  0  0  0  0  0  0  0
  147.6380  141.3603  153.9797 C   0  0  0  0  0  0  0  0  0  0  0  0
  147.0217  140.0837  153.4272 C   0  0  0  0  0  0  0  0  0  0  0  0
  146.9254  139.8232  152.0433 C   0  0  0  0  0  0  0  0  0  0  0  0
  146.3429  138.6155  151.6137 C   0  0  0  0  0  0  0  0  0  0  0  0
  145.8731  137.6922  152.5777 C   0  0  0  0  0  0  0  0  0  0  0  0
  145.2810  136.4779  152.1681 N   0  0  0  0  0  0  0  0  0  0  0  0
  145.4862  136.1184  150.7669 C   0  0  0  0  0  0  0  0  0  0  0  0
  145.0655  134.6593  150.5200 C   0  0  0  0  0  0  0  0  0  0  0  0
  143.7223  134.4650  150.9497 O   0  0  0  0  0  0  0  0  0  0  0  0
  143.5724  134.7114  152.3438 C   0  0  0  0  0  0  0  0  0  0  0  0
  143.9361  136.1731  152.6537 C   0  0  0  0  0  0  0  0  0  0  0  0
  145.9822  137.9392  153.9067 N   0  0  0  0  0  0  0  0  0  0  0  0
  146.5392  139.0994  154.3129 C   0  0  0  0  0  0  0  0  0  0  0  0
  151.9227  142.1840  160.4704 H   0  0  0  0  0  0  0  0  0  0  0  0
  153.6368  142.4713  160.1815 H   0  0  0  0  0  0  0  0  0  0  0  0
  152.8351  141.1057  159.4190 H   0  0  0  0  0  0  0  0  0  0  0  0
  153.1715  142.9496  157.7826 H   0  0  0  0  0  0  0  0  0  0  0  0
  151.4531  144.6597  159.6413 H   0  0  0  0  0  0  0  0  0  0  0  0
  152.0498  145.1421  158.0553 H   0  0  0  0  0  0  0  0  0  0  0  0
  153.1832  144.8539  159.3684 H   0  0  0  0  0  0  0  0  0  0  0  0
  150.2316  142.6189  158.5154 H   0  0  0  0  0  0  0  0  0  0  0  0
  150.8338  143.2061  156.9731 H   0  0  0  0  0  0  0  0  0  0  0  0
  151.5992  141.7313  155.3815 H   0  0  0  0  0  0  0  0  0  0  0  0
  151.2791  139.3938  154.5470 H   0  0  0  0  0  0  0  0  0  0  0  0
  150.9393  138.8594  156.1937 H   0  0  0  0  0  0  0  0  0  0  0  0
  152.5244  139.5017  155.7845 H   0  0  0  0  0  0  0  0  0  0  0  0
  149.7077  141.1007  153.6837 H   0  0  0  0  0  0  0  0  0  0  0  0
  147.0262  141.6990  154.8170 H   0  0  0  0  0  0  0  0  0  0  0  0
  147.5893  142.1283  153.2062 H   0  0  0  0  0  0  0  0  0  0  0  0
  147.2926  140.5277  151.3121 H   0  0  0  0  0  0  0  0  0  0  0  0
  146.2776  138.4063  150.5564 H   0  0  0  0  0  0  0  0  0  0  0  0
  144.8933  136.7875  150.1420 H   0  0  0  0  0  0  0  0  0  0  0  0
  146.5254  136.2425  150.4665 H   0  0  0  0  0  0  0  0  0  0  0  0
  145.1361  134.4233  149.4581 H   0  0  0  0  0  0  0  0  0  0  0  0
  145.7296  133.9695  151.0436 H   0  0  0  0  0  0  0  0  0  0  0  0
  142.5396  134.5135  152.6304 H   0  0  0  0  0  0  0  0  0  0  0  0
  144.1986  134.0241  152.9154 H   0  0  0  0  0  0  0  0  0  0  0  0
  143.8765  136.3401  153.7299 H   0  0  0  0  0  0  0  0  0  0  0  0
  143.2191  136.8442  152.1785 H   0  0  0  0  0  0  0  0  0  0  0  0
  146.5989  139.2463  155.3814 H   0  0  0  0  0  0  0  0  0  0  0  0
  1  2  1  0  0  0  0
  1 24  1  0  0  0  0
  1 25  1  0  0  0  0
  1 26  1  0  0  0  0
  2  3  1  0  0  0  0
  2  4  1  0  0  0  0
  2 27  1  0  0  0  0
  3 28  1  0  0  0  0
  3 29  1  0  0  0  0
  3 30  1  0  0  0  0
  4  5  1  0  0  0  0
  4 31  1  0  0  0  0
  4 32  1  0  0  0  0
  5  6  1  0  0  0  0
  6  7  1  0  0  0  0
  6  8  1  0  0  0  0
  6 33  1  0  0  0  0
  7 34  1  0  0  0  0
  7 35  1  0  0  0  0
  7 36  1  0  0  0  0
  8  9  2  0  0  0  0
  8 10  1  0  0  0  0
 10 11  1  0  0  0  0
 10 37  1  0  0  0  0
 11 12  1  0  0  0  0
 11 38  1  0  0  0  0
 11 39  1  0  0  0  0
 12 23  1  0  0  0  0
 12 13  2  0  0  0  0
 13 14  1  0  0  0  0
 13 40  1  0  0  0  0
 14 15  2  0  0  0  0
 14 41  1  0  0  0  0
 15 16  1  0  0  0  0
 15 22  1  0  0  0  0
 16 21  1  0  0  0  0
 16 17  1  0  0  0  0
 17 18  1  0  0  0  0
 17 42  1  0  0  0  0
 17 43  1  0  0  0  0
 18 19  1  0  0  0  0
 18 44  1  0  0  0  0
 18 45  1  0  0  0  0
 19 20  1  0  0  0  0
 20 21  1  0  0  0  0
 20 46  1  0  0  0  0
 20 47  1  0  0  0  0
 21 48  1  0  0  0  0
 21 49  1  0  0  0  0
 22 23  2  0  0  0  0
 23 50  1  0  0  0  0
M  END
> <s_m_source_file>
AV-unprocessed.smi

> <i_m_source_file_index>
831

> <i_lp_mmshare_version>
43012

> <i_f3d_flags>
0

> <s_epik_input>
W0NIM11bQ0hdKFtDSDNdKVtDSDJdT1tDQEhdKFtDSDNdKUMoPU8pW05IXVtDSDJdYzFbY0hdW2NIXWMobltjSF0xKU4yW0NIMl1bQ0gyXU9bQ0gyXVtDSDJdMg==

> <s_epik_cmdline>
J2VwaWtfcHl0aG9uJywgJy1waCcsICc3LjAnLCAnLXRuJywgJzgnLCAnLW1hJywgJzIwMCcsICctbWV0YWxfYmluZGluZycsICctaW1hZScsICc8aW5maWxlLm1hZT4nLCAnLW9tYWUnLCAnPG91dGZpbGUubWFlPic=

> <r_lp_tautomer_probability>
1

> <r_epik_Ionization_Penalty>
0.00456501

> <r_epik_Ionization_Penalty_Charging>
0

> <r_epik_Ionization_Penalty_Neutral>
0.00456501

> <r_epik_State_Penalty>
0.00329791

> <r_epik_Charging_Adjusted_Penalty>
0.00329791

> <i_epik_Tot_Q>
0

> <i_epik_Tot_abs_Q>
0

> <r_epik_Metal_State_Penalty>
-0

> <b_epik_Metal_Only>
0

> <s_lp_Force_Field>
OPLS_2005

> <r_lp_Energy>
24.1479

> <b_lp_Chiralities_Consistent>
1

> <s_lp_Variant>
AV-unprocessed.smi:831-2

> <Gold.Version>
5.8.1

> <Gold.Id.Protein>
6NUR|6NUR_protein|mol2

> <Gold.PLP.Fitness>
44.9705

> <Gold.PLP.PLP>
-46.7224

> <Gold.PLP.part.hbond>
0.0000

> <Gold.PLP.part.metal>
0.0000

> <Gold.PLP.part.buried>
-2.6696

> <Gold.PLP.part.nonpolar>
-46.2968

> <Gold.PLP.part.repulsive>
0.9259

> <Gold.PLP.ligand.clash>
0.0000

> <Gold.PLP.ligand.torsion>
1.0646

> <Gold.PLP.Chemscore.Hbond>
0.0000

> <Gold.PLP.Chemscore.CHOScore>
0.0000

> <Gold.PLP.Chemscore.Metal>
0.0000

> <Gold.PLP.Chemscore.Internal.Correction>
0.3773

> <Gold.Rescore>
     Score         DG    S(hbond)    S(metal)    S(lipo)     H(rot)  DE(clash)    DE(int)     intcor
     11.95     -14.68       0.00        0.00     120.54       1.92       1.46       1.27       ----

> <Gold.Chemscore.Fitness>
11.9492

> <Gold.Chemscore.DG>
-14.6785

> <Gold.Chemscore.ZeroCoef>
-5.4800

> <Gold.Chemscore.Hbond>
0.0000

> <Gold.Chemscore.Metal>
0.0000

> <Gold.Chemscore.Lipo>
120.5402

> <Gold.Chemscore.Internal_Hbond>
0.0000

> <Gold.Chemscore.DEClash>
1.4617

> <Gold.Chemscore.DEInternal>
1.2676

> <Gold.Chemscore.Rot>
1.9159

> <Gold.Chemscore.Internal.Correction>
   9.000000E+99

> <Gold.Chemscore.Hbond.Weighted>
-0.0000

> <Gold.Chemscore.Metal.Weighted>
-0.0000

> <Gold.Chemscore.Lipo.Weighted>
-14.1032

> <Gold.Chemscore.Internal_Hbond.Weighted>
0.0000

> <Gold.Chemscore.DEClash.Weighted>
1.4617

> <Gold.Chemscore.DEInternal.Weighted>
1.2676

> <Gold.Chemscore.Rot.Weighted>
4.9047

> <Gold.Chemscore.Internal.Correction.Weighted>
   9.000000E+99

> <Gold.Protein.RotatedTorsions>
[ 6907 6896 6895 6894 ] final -156.99 input  -60.11 | X-H torsion
[ 7974 7965 7964 7962 ] final  149.48 input  175.53 | X-H torsion
[ 8008 7997 7996 7995 ] final   14.88 input   59.86 | X-H torsion
[ 10167 10162 10161 10158 ] final   -9.99 input  -65.29 | X-H torsion
[ 10718 10713 10712 10709 ] final -169.97 input   66.30 | X-H torsion
[ 10763 10752 10751 10750 ] final   45.32 input  -60.55 | X-H torsion
[ 11005 11000 10999 10996 ] final  -17.29 input  -57.11 | X-H torsion

> <Gold.Protein.ActiveResidues>
 VAL166  LYS551  ARG553  GLY616  TRP617  ASP618  TYR619  PRO620  LYS621  CYS622 
 ASP623  PHE694  ASN695  SER759  ASP760  ASP761  ALA762  ILE779  LEU786  VAL792 
 PHE793  MET794  SER795  GLU796  ALA797  LYS798  CYS799  TRP800  GLU811  SER814 

> <Gold.Protein.RotatedAtoms>
  151.2960  133.4144  159.2636 H   0  0  0  0  0  0  0  0  0  0  0  0  # atno 6907 bound_to 6896
  151.0237  134.9488  159.8083 H   0  0  0  0  0  0  0  0  0  0  0  0  # atno 6908 bound_to 6896
  152.5330  134.2922  159.9100 H   0  0  0  0  0  0  0  0  0  0  0  0  # atno 6909 bound_to 6896
  144.8435  139.6286  143.6006 H   0  0  0  0  0  0  0  0  0  0  0  0  # atno 7974 bound_to 7965
  154.8547  140.2935  155.5576 H   0  0  0  0  0  0  0  0  0  0  0  0  # atno 8008 bound_to 7997
  156.3018  140.2489  156.3444 H   0  0  0  0  0  0  0  0  0  0  0  0  # atno 8009 bound_to 7997
  154.8983  140.0392  157.1868 H   0  0  0  0  0  0  0  0  0  0  0  0  # atno 8010 bound_to 7997
  140.7102  143.5797  150.9005 H   0  0  0  0  0  0  0  0  0  0  0  0  # atno 10167 bound_to 10162
  156.7194  130.9264  151.3096 H   0  0  0  0  0  0  0  0  0  0  0  0  # atno 10718 bound_to 10713
  152.9826  135.6043  154.3418 H   0  0  0  0  0  0  0  0  0  0  0  0  # atno 10763 bound_to 10752
  154.3114  135.2771  155.2566 H   0  0  0  0  0  0  0  0  0  0  0  0  # atno 10764 bound_to 10752
  154.4774  135.5926  153.6420 H   0  0  0  0  0  0  0  0  0  0  0  0  # atno 10765 bound_to 10752
  140.8153  133.8109  155.9604 H   0  0  0  0  0  0  0  0  0  0  0  0  # atno 11005 bound_to 11000
  146.2723  139.6666  142.9287 LP  0  0  0  0  0  0  0  0  0  0  0  0  # atno 17320 bound_to 7965
  145.4646  141.0434  143.2733 LP  0  0  0  0  0  0  0  0  0  0  0  0  # atno 17321 bound_to 7965
  139.9523  143.6258  152.3025 LP  0  0  0  0  0  0  0  0  0  0  0  0  # atno 17342 bound_to 10162
  139.6781  144.7657  151.1658 LP  0  0  0  0  0  0  0  0  0  0  0  0  # atno 17343 bound_to 10162
  157.6904  130.9228  150.0499 LP  0  0  0  0  0  0  0  0  0  0  0  0  # atno 17370 bound_to 10713
  156.1605  130.3644  149.9306 LP  0  0  0  0  0  0  0  0  0  0  0  0  # atno 17371 bound_to 10713
  140.9155  134.2207  157.4959 LP  0  0  0  0  0  0  0  0  0  0  0  0  # atno 17394 bound_to 11000
  139.8711  134.9769  156.4939 LP  0  0  0  0  0  0  0  0  0  0  0  0  # atno 17395 bound_to 11000

$$$$
