AV-unprocessed.smi:2527|AV-procd|sdf|9947|dock3
  -GOLD-   2272013583D 1   1.00000     0.00000
 Structure written by MMmdl.
 36 38  0  0  0  0  0  0  0  0  3 V2000
  150.6627  136.7276  155.2712 C   0  0  0  0  0  0  0  0  0  0  0  0
  151.9066  137.2969  154.9033 O   0  0  0  0  0  0  0  0  0  0  0  0
  151.9086  138.7118  155.0052 C   0  0  0  0  0  0  0  0  0  0  0  0
  151.6430  139.1325  156.4577 C   0  0  0  0  0  0  0  0  0  0  0  0
  151.0983  140.4949  156.5512 N   0  0  0  0  0  0  0  0  0  0  0  0
  150.1675  141.1227  155.7795 C   0  0  0  0  0  0  0  0  0  0  0  0
  149.3299  140.4322  154.3896 S   0  0  0  0  0  0  0  0  0  0  0  0
  148.0623  141.6452  153.9307 C   0  0  0  0  0  0  0  0  0  0  0  0
  147.1239  141.9957  155.0483 C   0  0  0  0  0  0  0  0  0  0  0  0
  146.1853  142.9582  154.8464 N   0  5  0  0  0  0  0  0  0  0  0  0
  145.5288  143.0145  156.0191 C   0  0  0  0  0  0  0  0  0  0  0  0
  144.5856  143.7266  156.3564 O   0  0  0  0  0  0  0  0  0  0  0  0
  146.0983  142.1135  156.8231 N   0  0  0  0  0  0  0  0  0  0  0  0
  147.1064  141.4670  156.2145 N   0  0  0  0  0  0  0  0  0  0  0  0
  149.9977  142.3788  156.2771 N   0  3  0  0  0  0  0  0  0  0  0  0
  150.8271  142.5571  157.3859 C   0  0  0  0  0  0  0  0  0  0  0  0
  151.0044  143.6541  158.2232 C   0  0  0  0  0  0  0  0  0  0  0  0
  151.9319  143.5065  159.2758 C   0  0  0  0  0  0  0  0  0  0  0  0
  152.2017  144.8244  160.3557 Cl  0  0  0  0  0  0  0  0  0  0  0  0
  152.6406  142.3016  159.4628 C   0  0  0  0  0  0  0  0  0  0  0  0
  152.4540  141.1959  158.6075 C   0  0  0  0  0  0  0  0  0  0  0  0
  151.5361  141.3510  157.5688 C   0  0  0  0  0  0  0  0  0  0  0  0
  145.8529  141.8906  157.7764 H   0  0  0  0  0  0  0  0  0  0  0  0
  150.7131  135.6432  155.1741 H   0  0  0  0  0  0  0  0  0  0  0  0
  149.8585  137.0867  154.6278 H   0  0  0  0  0  0  0  0  0  0  0  0
  150.4136  136.9618  156.3071 H   0  0  0  0  0  0  0  0  0  0  0  0
  152.8707  139.1077  154.6769 H   0  0  0  0  0  0  0  0  0  0  0  0
  151.1429  139.1341  154.3521 H   0  0  0  0  0  0  0  0  0  0  0  0
  150.9632  138.4376  156.9505 H   0  0  0  0  0  0  0  0  0  0  0  0
  152.5715  139.1073  157.0287 H   0  0  0  0  0  0  0  0  0  0  0  0
  148.5634  142.5470  153.5778 H   0  0  0  0  0  0  0  0  0  0  0  0
  147.5010  141.2533  153.0814 H   0  0  0  0  0  0  0  0  0  0  0  0
  150.4605  144.5766  158.0815 H   0  0  0  0  0  0  0  0  0  0  0  0
  153.3422  142.2217  160.2805 H   0  0  0  0  0  0  0  0  0  0  0  0
  152.9986  140.2769  158.7657 H   0  0  0  0  0  0  0  0  0  0  0  0
  149.3609  143.0598  155.8837 H   0  0  0  0  0  0  0  0  0  0  0  0
  1  2  1  0  0  0  0
  1 24  1  0  0  0  0
  1 25  1  0  0  0  0
  1 26  1  0  0  0  0
  2  3  1  0  0  0  0
  3  4  1  0  0  0  0
  3 27  1  0  0  0  0
  3 28  1  0  0  0  0
  4  5  1  0  0  0  0
  4 29  1  0  0  0  0
  4 30  1  0  0  0  0
  5 22  1  0  0  0  0
  5  6  1  0  0  0  0
  6  7  1  0  0  0  0
  6 15  2  0  0  0  0
  7  8  1  0  0  0  0
  8 31  1  0  0  0  0
  8 32  1  0  0  0  0
  8  9  1  0  0  0  0
  9 14  2  0  0  0  0
  9 10  1  0  0  0  0
 10 11  1  0  0  0  0
 11 13  1  0  0  0  0
 11 12  2  0  0  0  0
 13 14  1  0  0  0  0
 13 23  1  0  0  0  0
 15 16  1  0  0  0  0
 15 36  1  0  0  0  0
 16 22  2  0  0  0  0
 16 17  1  0  0  0  0
 17 18  2  0  0  0  0
 17 33  1  0  0  0  0
 18 19  1  0  0  0  0
 18 20  1  0  0  0  0
 20 21  2  0  0  0  0
 20 34  1  0  0  0  0
 21 22  1  0  0  0  0
 21 35  1  0  0  0  0
M  CHG  1  10  -1
M  CHG  1  15   1
M  END
> <s_m_source_file>
AV-unprocessed.smi

> <i_m_source_file_index>
2527

> <i_lp_mmshare_version>
43012

> <i_f3d_flags>
0

> <s_epik_input>
W2NIXTFjKENsKVtjSF1bY0hdYyhjMTIpbihbQ0gyXVtDSDJdT1tDSDNdKWMobjIpU1tDSDJdYzNuYyg9TylbbkhdW25IXTM=

> <s_epik_cmdline>
J2VwaWtfcHl0aG9uJywgJy1waCcsICc3LjAnLCAnLXRuJywgJzgnLCAnLW1hJywgJzIwMCcsICctbWV0YWxfYmluZGluZycsICctaW1hZScsICc8aW5maWxlLm1hZT4nLCAnLW9tYWUnLCAnPG91dGZpbGUubWFlPic=

> <r_lp_tautomer_probability>
0.999897

> <r_epik_Ionization_Penalty>
3.64286

> <r_epik_Ionization_Penalty_Charging>
2.48685

> <r_epik_Ionization_Penalty_Neutral>
1.15601

> <r_epik_State_Penalty>
3.71863

> <r_epik_Charging_Adjusted_Penalty>
6.20549

> <i_epik_Tot_Q>
0

> <i_epik_Tot_abs_Q>
2

> <r_epik_Metal_State_Penalty>
2.92967

> <b_epik_Metal_Only>
1

> <s_lp_Force_Field>
OPLS_2005

> <r_lp_Energy>
23.3692

> <b_lp_Chiralities_Consistent>
1

> <s_lp_Variant>
AV-unprocessed.smi:2527-6

> <Gold.Version>
5.8.1

> <Gold.Id.Protein>
6NUR|6NUR_protein|mol2

> <Gold.PLP.Fitness>
50.8657

> <Gold.PLP.PLP>
-42.9353

> <Gold.PLP.part.hbond>
-2.0000

> <Gold.PLP.part.metal>
0.0000

> <Gold.PLP.part.buried>
-5.9147

> <Gold.PLP.part.nonpolar>
-36.1695

> <Gold.PLP.part.repulsive>
0.5727

> <Gold.PLP.ligand.clash>
0.0000

> <Gold.PLP.ligand.torsion>
0.4744

> <Gold.PLP.Chemscore.Hbond>
2.9280

> <Gold.PLP.Chemscore.CHOScore>
0.0000

> <Gold.PLP.Chemscore.Metal>
0.0000

> <Gold.Chemscore.Hbonds>
donor molecule, donor type, donor heavy atom, donor atom, acceptor molecule, acceptor atom, score
      L1  H    15    36       P1  8028  1.98
      P1  H 10752 10763       L1     2  0.93

> <Gold.PLP.Chemscore.Internal.Correction>
0.0953

> <Gold.Rescore>
     Score         DG    S(hbond)    S(metal)    S(lipo)     H(rot)  DE(clash)    DE(int)     intcor
     15.42     -16.01       1.83        0.00     100.67       2.88       0.10       0.49       ----

> <Gold.Chemscore.Fitness>
15.4249

> <Gold.Chemscore.DG>
-16.0142

> <Gold.Chemscore.ZeroCoef>
-5.4800

> <Gold.Chemscore.Hbond>
1.8325

> <Gold.Chemscore.Metal>
0.0000

> <Gold.Chemscore.Lipo>
100.6727

> <Gold.Chemscore.Internal_Hbond>
0.0000

> <Gold.Chemscore.DEClash>
0.1006

> <Gold.Chemscore.DEInternal>
0.4887

> <Gold.Chemscore.Rot>
2.8770

> <Gold.Chemscore.Internal.Correction>
   9.000000E+99

> <Gold.Chemscore.Hbonds>
donor molecule, donor type, donor heavy atom, donor atom, acceptor molecule, acceptor atom, score
      L1  H    15    36       P1  8028  0.94
      P1  H 10752 10763       L1     2  0.22

> <Gold.Chemscore.Hbond.Weighted>
-6.1204

> <Gold.Chemscore.Metal.Weighted>
-0.0000

> <Gold.Chemscore.Lipo.Weighted>
-11.7787

> <Gold.Chemscore.Internal_Hbond.Weighted>
0.0000

> <Gold.Chemscore.DEClash.Weighted>
0.1006

> <Gold.Chemscore.DEInternal.Weighted>
0.4887

> <Gold.Chemscore.Rot.Weighted>
7.3650

> <Gold.Chemscore.Internal.Correction.Weighted>
   9.000000E+99

> <Gold.Protein.RotatedTorsions>
[ 6907 6896 6895 6894 ] final   81.93 input  -60.11 | X-H torsion
[ 7974 7965 7964 7962 ] final   88.12 input  175.53 | X-H torsion
[ 8008 7997 7996 7995 ] final  139.65 input   59.86 | X-H torsion
[ 10167 10162 10161 10158 ] final  151.88 input  -65.29 | X-H torsion
[ 10718 10713 10712 10709 ] final -138.97 input   66.30 | X-H torsion
[ 10763 10752 10751 10750 ] final   52.29 input  -60.55 | X-H torsion
[ 11005 11000 10999 10996 ] final   73.01 input  -57.11 | X-H torsion

> <Gold.Protein.ActiveResidues>
 VAL166  LYS551  ARG553  GLY616  TRP617  ASP618  TYR619  PRO620  LYS621  CYS622 
 ASP623  PHE694  ASN695  SER759  ASP760  ASP761  ALA762  ILE779  LEU786  VAL792 
 PHE793  MET794  SER795  GLU796  ALA797  LYS798  CYS799  TRP800  GLU811  SER814 

> <Gold.Protein.RotatedAtoms>
  152.5283  134.3129  159.9119 H   0  0  0  0  0  0  0  0  0  0  0  0  # atno 6907 bound_to 6896
  151.3078  133.4087  159.2652 H   0  0  0  0  0  0  0  0  0  0  0  0  # atno 6908 bound_to 6896
  151.0064  134.9379  159.8040 H   0  0  0  0  0  0  0  0  0  0  0  0  # atno 6909 bound_to 6896
  145.5499  139.2294  143.2519 H   0  0  0  0  0  0  0  0  0  0  0  0  # atno 7974 bound_to 7965
  156.2987  140.2362  156.4272 H   0  0  0  0  0  0  0  0  0  0  0  0  # atno 8008 bound_to 7997
  154.8302  140.0433  157.1492 H   0  0  0  0  0  0  0  0  0  0  0  0  # atno 8009 bound_to 7997
  154.9216  140.3004  155.5217 H   0  0  0  0  0  0  0  0  0  0  0  0  # atno 8010 bound_to 7997
  139.4837  144.5404  151.7574 H   0  0  0  0  0  0  0  0  0  0  0  0  # atno 10167 bound_to 10162
  156.3054  130.7452  151.1514 H   0  0  0  0  0  0  0  0  0  0  0  0  # atno 10718 bound_to 10713
  152.9788  135.5817  154.4554 H   0  0  0  0  0  0  0  0  0  0  0  0  # atno 10763 bound_to 10752
  154.4137  135.2770  155.2022 H   0  0  0  0  0  0  0  0  0  0  0  0  # atno 10764 bound_to 10752
  154.3801  135.6148  153.5840 H   0  0  0  0  0  0  0  0  0  0  0  0  # atno 10765 bound_to 10752
  139.9462  134.7309  156.0974 H   0  0  0  0  0  0  0  0  0  0  0  0  # atno 11005 bound_to 11000
  146.1924  140.6321  142.9139 LP  0  0  0  0  0  0  0  0  0  0  0  0  # atno 17320 bound_to 7965
  144.7535  140.5249  143.6785 LP  0  0  0  0  0  0  0  0  0  0  0  0  # atno 17321 bound_to 7965
  140.4943  144.1264  150.5957 LP  0  0  0  0  0  0  0  0  0  0  0  0  # atno 17342 bound_to 10162
  140.4136  143.2645  151.9803 LP  0  0  0  0  0  0  0  0  0  0  0  0  # atno 17343 bound_to 10162
  157.7378  131.0547  150.5332 LP  0  0  0  0  0  0  0  0  0  0  0  0  # atno 17370 bound_to 10713
  156.5465  130.4221  149.6128 LP  0  0  0  0  0  0  0  0  0  0  0  0  # atno 17371 bound_to 10713
  141.1112  133.6642  156.2984 LP  0  0  0  0  0  0  0  0  0  0  0  0  # atno 17394 bound_to 11000
  140.5830  134.5727  157.5483 LP  0  0  0  0  0  0  0  0  0  0  0  0  # atno 17395 bound_to 11000

$$$$
