AV-unprocessed.smi:2311|AV-procd|sdf|9262|dock2
  -GOLD-   2272012483D 1   1.00000     0.00000
 Structure written by MMmdl.
 40 41  0  0  0  0  0  0  0  0  1 V2000
  152.9252  142.2886  161.5238 C   0  0  0  0  0  0  0  0  0  0  0  0
  152.2658  143.3055  160.6162 C   0  0  0  0  0  0  0  0  0  0  0  0
  152.2579  144.6750  160.9466 C   0  0  0  0  0  0  0  0  0  0  0  0
  151.6307  145.5673  160.0587 C   0  0  0  0  0  0  0  0  0  0  0  0
  151.0425  145.0574  158.8851 C   0  0  0  0  0  0  0  0  0  0  0  0
  151.0949  143.6689  158.6276 C   0  0  0  0  0  0  0  0  0  0  0  0
  150.4734  143.2564  157.4189 N   0  0  0  0  0  0  0  0  0  0  0  0
  150.3858  142.0142  156.9107 C   0  0  0  0  0  0  0  0  0  0  0  0
  150.8461  140.9971  157.4305 O   0  0  0  0  0  0  0  0  0  0  0  0
  149.7255  142.0129  155.7434 N   0  0  0  0  0  0  0  0  0  0  0  0
  149.4588  140.8302  154.9292 C   0  0  1  0  0  0  0  0  0  0  0  0
  150.7162  139.9560  154.8570 C   0  0  0  0  0  0  0  0  0  0  0  0
  150.4237  138.6502  154.1052 C   0  0  0  0  0  0  0  0  0  0  0  0
  149.3414  137.9529  154.7190 O   0  0  0  0  0  0  0  0  0  0  0  0
  148.0962  138.6556  154.7940 C   0  0  0  0  0  0  0  0  0  0  0  0
  147.4826  138.8369  153.3889 C   0  0  0  0  0  0  0  0  0  0  0  0
  147.1725  137.7516  155.6270 C   0  0  0  0  0  0  0  0  0  0  0  0
  148.3041  140.0041  155.5250 C   0  0  0  0  0  0  0  0  0  0  0  0
  151.7019  142.8164  159.4908 N   0  0  0  0  0  0  0  0  0  0  0  0
  153.2188  142.7379  162.4729 H   0  0  0  0  0  0  0  0  0  0  0  0
  153.8174  141.8811  161.0481 H   0  0  0  0  0  0  0  0  0  0  0  0
  152.2419  141.4657  161.7353 H   0  0  0  0  0  0  0  0  0  0  0  0
  152.7198  145.0350  161.8543 H   0  0  0  0  0  0  0  0  0  0  0  0
  151.6013  146.6255  160.2729 H   0  0  0  0  0  0  0  0  0  0  0  0
  150.5572  145.7299  158.1927 H   0  0  0  0  0  0  0  0  0  0  0  0
  150.0481  143.9937  156.8769 H   0  0  0  0  0  0  0  0  0  0  0  0
  149.3823  142.8939  155.3898 H   0  0  0  0  0  0  0  0  0  0  0  0
  149.2002  141.1485  153.9180 H   0  0  0  0  0  0  0  0  0  0  0  0
  151.5263  140.4957  154.3651 H   0  0  0  0  0  0  0  0  0  0  0  0
  151.0635  139.7190  155.8638 H   0  0  0  0  0  0  0  0  0  0  0  0
  150.2154  138.8435  153.0531 H   0  0  0  0  0  0  0  0  0  0  0  0
  151.3033  138.0072  154.1289 H   0  0  0  0  0  0  0  0  0  0  0  0
  146.4883  139.2801  153.4529 H   0  0  0  0  0  0  0  0  0  0  0  0
  147.3819  137.8782  152.8794 H   0  0  0  0  0  0  0  0  0  0  0  0
  148.0777  139.4860  152.7483 H   0  0  0  0  0  0  0  0  0  0  0  0
  146.1903  138.2054  155.7629 H   0  0  0  0  0  0  0  0  0  0  0  0
  147.5892  137.5631  156.6169 H   0  0  0  0  0  0  0  0  0  0  0  0
  147.0269  136.7844  155.1448 H   0  0  0  0  0  0  0  0  0  0  0  0
  148.5250  139.8091  156.5757 H   0  0  0  0  0  0  0  0  0  0  0  0
  147.3783  140.5810  155.5137 H   0  0  0  0  0  0  0  0  0  0  0  0
  1  2  1  0  0  0  0
  1 20  1  0  0  0  0
  1 21  1  0  0  0  0
  1 22  1  0  0  0  0
  2 19  1  0  0  0  0
  2  3  2  0  0  0  0
  3  4  1  0  0  0  0
  3 23  1  0  0  0  0
  4  5  2  0  0  0  0
  4 24  1  0  0  0  0
  5  6  1  0  0  0  0
  5 25  1  0  0  0  0
  6  7  1  0  0  0  0
  6 19  2  0  0  0  0
  7  8  1  0  0  0  0
  7 26  1  0  0  0  0
  8  9  2  0  0  0  0
  8 10  1  0  0  0  0
 10 11  1  0  0  0  0
 10 27  1  0  0  0  0
 11 18  1  0  0  0  0
 11 12  1  0  0  0  0
 11 28  1  0  0  0  0
 12 13  1  0  0  0  0
 12 29  1  0  0  0  0
 12 30  1  0  0  0  0
 13 14  1  0  0  0  0
 13 31  1  0  0  0  0
 13 32  1  0  0  0  0
 14 15  1  0  0  0  0
 15 16  1  0  0  0  0
 15 17  1  0  0  0  0
 15 18  1  0  0  0  0
 16 33  1  0  0  0  0
 16 34  1  0  0  0  0
 16 35  1  0  0  0  0
 17 36  1  0  0  0  0
 17 37  1  0  0  0  0
 17 38  1  0  0  0  0
 18 39  1  0  0  0  0
 18 40  1  0  0  0  0
M  END
> <s_m_source_file>
AV-unprocessed.smi

> <i_m_source_file_index>
2311

> <i_lp_mmshare_version>
43012

> <i_f3d_flags>
0

> <s_epik_input>
W0NIM11jMVtjSF1bY0hdW2NIXWMobjEpW05IXUMoPU8pW05IXVtDQEBIXShbQ0gyXTIpW0NIMl1bQ0gyXU9DMihbQ0gzXSlbQ0gzXQ==

> <s_epik_cmdline>
J2VwaWtfcHl0aG9uJywgJy1waCcsICc3LjAnLCAnLXRuJywgJzgnLCAnLW1hJywgJzIwMCcsICctbWV0YWxfYmluZGluZycsICctaW1hZScsICc8aW5maWxlLm1hZT4nLCAnLW9tYWUnLCAnPG91dGZpbGUubWFlPic=

> <r_lp_tautomer_probability>
1

> <r_epik_Ionization_Penalty>
8.54628e-05

> <r_epik_Ionization_Penalty_Charging>
0

> <r_epik_Ionization_Penalty_Neutral>
8.54628e-05

> <r_epik_State_Penalty>
-0

> <r_epik_Charging_Adjusted_Penalty>
0

> <i_epik_Tot_Q>
0

> <i_epik_Tot_abs_Q>
0

> <r_epik_Metal_State_Penalty>
-0

> <b_epik_Metal_Only>
0

> <s_lp_Force_Field>
OPLS_2005

> <r_lp_Energy>
12.4955

> <b_lp_Chiralities_Consistent>
1

> <s_lp_Variant>
AV-unprocessed.smi:2311-2

> <Gold.Version>
5.8.1

> <Gold.Id.Protein>
6NUR|6NUR_protein|mol2

> <Gold.PLP.Fitness>
42.5869

> <Gold.PLP.PLP>
-37.0301

> <Gold.PLP.part.hbond>
-2.0000

> <Gold.PLP.part.metal>
0.0000

> <Gold.PLP.part.buried>
-4.8208

> <Gold.PLP.part.nonpolar>
-31.5152

> <Gold.PLP.part.repulsive>
0.3437

> <Gold.PLP.ligand.clash>
0.0000

> <Gold.PLP.ligand.torsion>
0.2218

> <Gold.PLP.Chemscore.Hbond>
2.0000

> <Gold.PLP.Chemscore.CHOScore>
0.0000

> <Gold.PLP.Chemscore.Metal>
0.0000

> <Gold.Chemscore.Hbonds>
donor molecule, donor type, donor heavy atom, donor atom, acceptor molecule, acceptor atom, score
      L1  H     7    26       P1  8028  1.00
      L1  H    10    27       P1  8028  1.00

> <Gold.PLP.Chemscore.Internal.Correction>
0.0003

> <Gold.Rescore>
     Score         DG    S(hbond)    S(metal)    S(lipo)     H(rot)  DE(clash)    DE(int)     intcor
     16.40     -20.60       1.94        0.00      95.86       1.00       1.38       2.83       ----

> <Gold.Chemscore.Fitness>
16.3968

> <Gold.Chemscore.DG>
-20.6040

> <Gold.Chemscore.ZeroCoef>
-5.4800

> <Gold.Chemscore.Hbond>
1.9366

> <Gold.Chemscore.Metal>
0.0000

> <Gold.Chemscore.Lipo>
95.8614

> <Gold.Chemscore.Internal_Hbond>
0.0000

> <Gold.Chemscore.DEClash>
1.3790

> <Gold.Chemscore.DEInternal>
2.8283

> <Gold.Chemscore.Rot>
1.0000

> <Gold.Chemscore.Internal.Correction>
   9.000000E+99

> <Gold.Chemscore.Hbonds>
donor molecule, donor type, donor heavy atom, donor atom, acceptor molecule, acceptor atom, score
      L1  H     7    26       P1  8028  0.97
      L1  H    10    27       P1  8028  0.96

> <Gold.Chemscore.Hbond.Weighted>
-6.4682

> <Gold.Chemscore.Metal.Weighted>
-0.0000

> <Gold.Chemscore.Lipo.Weighted>
-11.2158

> <Gold.Chemscore.Internal_Hbond.Weighted>
0.0000

> <Gold.Chemscore.DEClash.Weighted>
1.3790

> <Gold.Chemscore.DEInternal.Weighted>
2.8283

> <Gold.Chemscore.Rot.Weighted>
2.5600

> <Gold.Chemscore.Internal.Correction.Weighted>
   9.000000E+99

> <Gold.Protein.RotatedTorsions>
[ 6907 6896 6895 6894 ] final  -56.78 input  -60.11 | X-H torsion
[ 7974 7965 7964 7962 ] final   57.61 input  175.53 | X-H torsion
[ 8008 7997 7996 7995 ] final  156.47 input   59.86 | X-H torsion
[ 10167 10162 10161 10158 ] final -174.21 input  -65.29 | X-H torsion
[ 10718 10713 10712 10709 ] final   54.12 input   66.30 | X-H torsion
[ 10763 10752 10751 10750 ] final -114.39 input  -60.55 | X-H torsion
[ 11005 11000 10999 10996 ] final   73.96 input  -57.11 | X-H torsion

> <Gold.Protein.ActiveResidues>
 VAL166  LYS551  ARG553  GLY616  TRP617  ASP618  TYR619  PRO620  LYS621  CYS622 
 ASP623  PHE694  ASN695  SER759  ASP760  ASP761  ALA762  ILE779  LEU786  VAL792 
 PHE793  MET794  SER795  GLU796  ALA797  LYS798  CYS799  TRP800  GLU811  SER814 

> <Gold.Protein.RotatedAtoms>
  150.8139  134.7310  159.6712 H   0  0  0  0  0  0  0  0  0  0  0  0  # atno 6907 bound_to 6896
  152.4258  134.5867  159.9972 H   0  0  0  0  0  0  0  0  0  0  0  0  # atno 6908 bound_to 6896
  151.6069  133.3313  159.3095 H   0  0  0  0  0  0  0  0  0  0  0  0  # atno 6909 bound_to 6896
  145.9272  139.3777  143.0443 H   0  0  0  0  0  0  0  0  0  0  0  0  # atno 7974 bound_to 7965
  156.2420  140.1911  156.6960 H   0  0  0  0  0  0  0  0  0  0  0  0  # atno 8008 bound_to 7997
  154.6216  140.0608  156.9649 H   0  0  0  0  0  0  0  0  0  0  0  0  # atno 8009 bound_to 7997
  155.1852  140.3280  155.4370 H   0  0  0  0  0  0  0  0  0  0  0  0  # atno 8010 bound_to 7997
  139.5646  144.1786  152.1292 H   0  0  0  0  0  0  0  0  0  0  0  0  # atno 10167 bound_to 10162
  157.5228  130.8577  149.8582 H   0  0  0  0  0  0  0  0  0  0  0  0  # atno 10718 bound_to 10713
  154.8438  135.4419  154.1498 H   0  0  0  0  0  0  0  0  0  0  0  0  # atno 10763 bound_to 10752
  153.2662  135.6941  153.7534 H   0  0  0  0  0  0  0  0  0  0  0  0  # atno 10764 bound_to 10752
  153.6791  135.3406  155.3149 H   0  0  0  0  0  0  0  0  0  0  0  0  # atno 10765 bound_to 10752
  139.9414  134.7392  156.1090 H   0  0  0  0  0  0  0  0  0  0  0  0  # atno 11005 bound_to 11000
  145.8473  140.9548  143.0768 LP  0  0  0  0  0  0  0  0  0  0  0  0  # atno 17320 bound_to 7965
  144.6760  140.0362  143.7482 LP  0  0  0  0  0  0  0  0  0  0  0  0  # atno 17321 bound_to 7965
  140.1307  144.5291  150.6804 LP  0  0  0  0  0  0  0  0  0  0  0  0  # atno 17342 bound_to 10162
  140.6929  143.2386  151.5082 LP  0  0  0  0  0  0  0  0  0  0  0  0  # atno 17343 bound_to 10162
  156.0366  130.3750  150.1545 LP  0  0  0  0  0  0  0  0  0  0  0  0  # atno 17370 bound_to 10713
  156.9733  130.9841  151.3454 LP  0  0  0  0  0  0  0  0  0  0  0  0  # atno 17371 bound_to 10713
  141.1050  133.6663  156.2842 LP  0  0  0  0  0  0  0  0  0  0  0  0  # atno 17394 bound_to 11000
  140.5942  134.5620  157.5505 LP  0  0  0  0  0  0  0  0  0  0  0  0  # atno 17395 bound_to 11000

$$$$
