AV-unprocessed.smi:1830|AV-procd|sdf|7439|dock9
  -GOLD-   22720 9123D 1   1.00000     0.00000
 Structure written by MMmdl.
 53 56  0  0  0  0  0  0  0  0  2 V2000
  149.2019  132.7309  158.5431 O   0  0  0  0  0  0  0  0  0  0  0  0
  148.1035  132.5810  158.0083 C   0  0  0  0  0  0  0  0  0  0  0  0
  147.9426  132.0970  156.7687 N   0  0  0  0  0  0  0  0  0  0  0  0
  149.0237  131.6696  155.8866 C   0  0  0  0  0  0  0  0  0  0  0  0
  148.6538  131.8388  154.4016 C   0  0  1  0  0  0  0  0  0  0  0  0
  147.5176  130.8758  153.9818 C   0  0  0  0  0  0  0  0  0  0  0  0
  147.1478  131.1739  152.5859 N   0  3  1  0  0  0  0  0  0  0  0  0
  146.0921  130.3652  151.9525 C   0  0  0  0  0  0  0  0  0  0  0  0
  145.5360  131.2578  150.8244 C   0  0  0  0  0  0  0  0  0  0  0  0
  146.2228  132.6254  150.9957 C   0  0  0  0  0  0  0  0  0  0  0  0
  146.7395  132.5715  152.4297 C   0  0  2  0  0  0  0  0  0  0  0  0
  147.9130  133.4803  152.8149 C   0  0  0  0  0  0  0  0  0  0  0  0
  148.2459  133.1929  154.1734 O   0  0  0  0  0  0  0  0  0  0  0  0
  146.9191  132.8526  158.5804 N   0  0  0  0  0  0  0  0  0  0  0  0
  146.6698  133.2674  159.9187 C   0  0  0  0  0  0  0  0  0  0  0  0
  147.6261  134.0105  160.6533 C   0  0  0  0  0  0  0  0  0  0  0  0
  147.3090  134.4530  161.9491 C   0  0  0  0  0  0  0  0  0  0  0  0
  146.0362  134.1513  162.4610 C   0  0  0  0  0  0  0  0  0  0  0  0
  145.1095  133.4589  161.7691 N   0  0  0  0  0  0  0  0  0  0  0  0
  145.4054  133.0127  160.5235 C   0  0  0  0  0  0  0  0  0  0  0  0
  144.3996  132.2795  159.8527 N   0  0  0  0  0  0  0  0  0  0  0  0
  143.2303  132.9578  159.3031 C   0  0  0  0  0  0  0  0  0  0  0  0
  142.2257  131.8448  159.0202 C   0  0  0  0  0  0  0  0  0  0  0  0
  142.4825  130.8757  160.1701 C   0  0  0  0  0  0  0  0  0  0  0  0
  143.9903  130.9961  160.4159 C   0  0  0  0  0  0  0  0  0  0  0  0
  147.0023  132.0119  156.4114 H   0  0  0  0  0  0  0  0  0  0  0  0
  149.8927  132.2854  156.1193 H   0  0  0  0  0  0  0  0  0  0  0  0
  149.3127  130.6385  156.0980 H   0  0  0  0  0  0  0  0  0  0  0  0
  149.5361  131.6329  153.7924 H   0  0  0  0  0  0  0  0  0  0  0  0
  147.8436  129.8381  154.0609 H   0  0  0  0  0  0  0  0  0  0  0  0
  146.6487  130.9963  154.6311 H   0  0  0  0  0  0  0  0  0  0  0  0
  146.4921  129.4212  151.5817 H   0  0  0  0  0  0  0  0  0  0  0  0
  145.3068  130.1421  152.6764 H   0  0  0  0  0  0  0  0  0  0  0  0
  145.7416  130.8391  149.8388 H   0  0  0  0  0  0  0  0  0  0  0  0
  144.4538  131.3530  150.9212 H   0  0  0  0  0  0  0  0  0  0  0  0
  147.0565  132.7126  150.2974 H   0  0  0  0  0  0  0  0  0  0  0  0
  145.5481  133.4642  150.8214 H   0  0  0  0  0  0  0  0  0  0  0  0
  145.9021  132.7685  153.1031 H   0  0  0  0  0  0  0  0  0  0  0  0
  148.7770  133.3181  152.1684 H   0  0  0  0  0  0  0  0  0  0  0  0
  147.6308  134.5297  152.7285 H   0  0  0  0  0  0  0  0  0  0  0  0
  146.0988  132.6057  158.0461 H   0  0  0  0  0  0  0  0  0  0  0  0
  148.5878  134.2666  160.2362 H   0  0  0  0  0  0  0  0  0  0  0  0
  148.0202  135.0206  162.5306 H   0  0  0  0  0  0  0  0  0  0  0  0
  145.7516  134.4795  163.4498 H   0  0  0  0  0  0  0  0  0  0  0  0
  142.8070  133.6516  160.0308 H   0  0  0  0  0  0  0  0  0  0  0  0
  143.4815  133.5168  158.4012 H   0  0  0  0  0  0  0  0  0  0  0  0
  141.1959  132.2011  158.9813 H   0  0  0  0  0  0  0  0  0  0  0  0
  142.4570  131.3646  158.0684 H   0  0  0  0  0  0  0  0  0  0  0  0
  141.9389  131.2080  161.0557 H   0  0  0  0  0  0  0  0  0  0  0  0
  142.1694  129.8557  159.9466 H   0  0  0  0  0  0  0  0  0  0  0  0
  144.5154  130.1989  159.8897 H   0  0  0  0  0  0  0  0  0  0  0  0
  144.2288  130.9171  161.4775 H   0  0  0  0  0  0  0  0  0  0  0  0
  147.9773  131.0541  152.0220 H   0  0  0  0  0  0  0  0  0  0  0  0
  1  2  2  0  0  0  0
  2  3  1  0  0  0  0
  2 14  1  0  0  0  0
  3  4  1  0  0  0  0
  3 26  1  0  0  0  0
  4  5  1  0  0  0  0
  4 27  1  0  0  0  0
  4 28  1  0  0  0  0
  5 13  1  0  0  0  0
  5  6  1  0  0  0  0
  5 29  1  0  0  0  0
  6  7  1  0  0  0  0
  6 30  1  0  0  0  0
  6 31  1  0  0  0  0
  7 11  1  0  0  0  0
  7  8  1  0  0  0  0
  7 53  1  0  0  0  0
  8  9  1  0  0  0  0
  8 32  1  0  0  0  0
  8 33  1  0  0  0  0
  9 10  1  0  0  0  0
  9 34  1  0  0  0  0
  9 35  1  0  0  0  0
 10 11  1  0  0  0  0
 10 36  1  0  0  0  0
 10 37  1  0  0  0  0
 11 12  1  0  0  0  0
 11 38  1  0  0  0  0
 12 13  1  0  0  0  0
 12 39  1  0  0  0  0
 12 40  1  0  0  0  0
 14 15  1  0  0  0  0
 14 41  1  0  0  0  0
 15 20  1  0  0  0  0
 15 16  2  0  0  0  0
 16 17  1  0  0  0  0
 16 42  1  0  0  0  0
 17 18  2  0  0  0  0
 17 43  1  0  0  0  0
 18 19  1  0  0  0  0
 18 44  1  0  0  0  0
 19 20  2  0  0  0  0
 20 21  1  0  0  0  0
 21 25  1  0  0  0  0
 21 22  1  0  0  0  0
 22 23  1  0  0  0  0
 22 45  1  0  0  0  0
 22 46  1  0  0  0  0
 23 24  1  0  0  0  0
 23 47  1  0  0  0  0
 23 48  1  0  0  0  0
 24 25  1  0  0  0  0
 24 49  1  0  0  0  0
 24 50  1  0  0  0  0
 25 51  1  0  0  0  0
 25 52  1  0  0  0  0
M  CHG  1   7   1
M  END
> <s_m_source_file>
AV-unprocessed.smi

> <i_m_source_file_index>
1830

> <i_lp_mmshare_version>
43012

> <i_f3d_flags>
0

> <s_epik_input>
W0NIMl0xW0NIMl1bQ0gyXVtDQEhdKE4xMilbQ0gyXU9bQ0BASF0oW0NIMl0yKVtDSDJdW05IXUMoPU8pW05IXWMzW2NIXVtjSF1bY0hdbmMzTjRbQ0gyXVtDSDJdW0NIMl1bQ0gyXTQ=

> <s_epik_cmdline>
J2VwaWtfcHl0aG9uJywgJy1waCcsICc3LjAnLCAnLXRuJywgJzgnLCAnLW1hJywgJzIwMCcsICctbWV0YWxfYmluZGluZycsICctaW1hZScsICc8aW5maWxlLm1hZT4nLCAnLW9tYWUnLCAnPG91dGZpbGUubWFlPic=

> <r_lp_tautomer_probability>
1

> <r_epik_Ionization_Penalty>
0.193547

> <r_epik_Ionization_Penalty_Charging>
0.10673

> <r_epik_Ionization_Penalty_Neutral>
0.0868166

> <r_epik_State_Penalty>
0.173595

> <r_epik_Charging_Adjusted_Penalty>
0.280326

> <i_epik_Tot_Q>
1

> <i_epik_Tot_abs_Q>
1

> <r_epik_Metal_State_Penalty>
0.164683

> <b_epik_Metal_Only>
0

> <s_lp_Force_Field>
OPLS_2005

> <r_lp_Energy>
64.524

> <b_lp_Chiralities_Consistent>
1

> <s_lp_Variant>
AV-unprocessed.smi:1830-8

> <Gold.Version>
5.8.1

> <Gold.Id.Protein>
6NUR|6NUR_protein|mol2

> <Gold.PLP.Fitness>
38.9328

> <Gold.PLP.PLP>
-33.6883

> <Gold.PLP.part.hbond>
-2.0000

> <Gold.PLP.part.metal>
0.0000

> <Gold.PLP.part.buried>
-4.1556

> <Gold.PLP.part.nonpolar>
-27.9091

> <Gold.PLP.part.repulsive>
0.1591

> <Gold.PLP.ligand.clash>
0.0000

> <Gold.PLP.ligand.torsion>
0.5498

> <Gold.PLP.Chemscore.Hbond>
2.0000

> <Gold.PLP.Chemscore.CHOScore>
0.0000

> <Gold.PLP.Chemscore.Metal>
0.0000

> <Gold.Chemscore.Hbonds>
donor molecule, donor type, donor heavy atom, donor atom, acceptor molecule, acceptor atom, score
      L1  H     7    53       P1 10747  1.00
      P1  H  6896  6909       L1     1  0.93

> <Gold.PLP.Chemscore.Internal.Correction>
0.3441

> <Gold.Rescore>
     Score         DG    S(hbond)    S(metal)    S(lipo)     H(rot)  DE(clash)    DE(int)     intcor
     17.78     -19.57       1.98        0.00      94.57       1.41       0.00       1.78       ----

> <Gold.Chemscore.Fitness>
17.7824

> <Gold.Chemscore.DG>
-19.5719

> <Gold.Chemscore.ZeroCoef>
-5.4800

> <Gold.Chemscore.Hbond>
1.9844

> <Gold.Chemscore.Metal>
0.0000

> <Gold.Chemscore.Lipo>
94.5744

> <Gold.Chemscore.Internal_Hbond>
0.0000

> <Gold.Chemscore.DEClash>
0.0048

> <Gold.Chemscore.DEInternal>
1.7847

> <Gold.Chemscore.Rot>
1.4067

> <Gold.Chemscore.Internal.Correction>
   9.000000E+99

> <Gold.Chemscore.Hbonds>
donor molecule, donor type, donor heavy atom, donor atom, acceptor molecule, acceptor atom, score
      L1  H     7    53       P1 10747  0.93
      P1  H  6896  6909       L1     1  0.85

> <Gold.Chemscore.Hbond.Weighted>
-6.6278

> <Gold.Chemscore.Metal.Weighted>
-0.0000

> <Gold.Chemscore.Lipo.Weighted>
-11.0652

> <Gold.Chemscore.Internal_Hbond.Weighted>
0.0000

> <Gold.Chemscore.DEClash.Weighted>
0.0048

> <Gold.Chemscore.DEInternal.Weighted>
1.7847

> <Gold.Chemscore.Rot.Weighted>
3.6011

> <Gold.Chemscore.Internal.Correction.Weighted>
   9.000000E+99

> <Gold.Protein.RotatedTorsions>
[ 6907 6896 6895 6894 ] final  -16.49 input  -60.11 | X-H torsion
[ 7974 7965 7964 7962 ] final  176.15 input  175.53 | X-H torsion
[ 8008 7997 7996 7995 ] final  -55.09 input   59.86 | X-H torsion
[ 10167 10162 10161 10158 ] final -179.91 input  -65.29 | X-H torsion
[ 10718 10713 10712 10709 ] final  -17.52 input   66.30 | X-H torsion
[ 10763 10752 10751 10750 ] final   59.49 input  -60.55 | X-H torsion
[ 11005 11000 10999 10996 ] final  -95.04 input  -57.11 | X-H torsion

> <Gold.Protein.ActiveResidues>
 VAL166  LYS551  ARG553  GLY616  TRP617  ASP618  TYR619  PRO620  LYS621  CYS622 
 ASP623  PHE694  ASN695  SER759  ASP760  ASP761  ALA762  ILE779  LEU786  VAL792 
 PHE793  MET794  SER795  GLU796  ALA797  LYS798  CYS799  TRP800  GLU811  SER814 

> <Gold.Protein.RotatedAtoms>
  151.3078  135.0786  159.9261 H   0  0  0  0  0  0  0  0  0  0  0  0  # atno 6907 bound_to 6896
  152.5284  133.9767  159.7797 H   0  0  0  0  0  0  0  0  0  0  0  0  # atno 6908 bound_to 6896
  151.0065  133.5954  159.2718 H   0  0  0  0  0  0  0  0  0  0  0  0  # atno 6909 bound_to 6896
  144.7189  140.0053  143.6440 H   0  0  0  0  0  0  0  0  0  0  0  0  # atno 7974 bound_to 7965
  154.4183  140.1161  156.5421 H   0  0  0  0  0  0  0  0  0  0  0  0  # atno 8008 bound_to 7997
  155.6497  140.3496  155.4725 H   0  0  0  0  0  0  0  0  0  0  0  0  # atno 8009 bound_to 7997
  155.9802  140.1159  157.0723 H   0  0  0  0  0  0  0  0  0  0  0  0  # atno 8010 bound_to 7997
  139.5365  144.2483  152.0805 H   0  0  0  0  0  0  0  0  0  0  0  0  # atno 10167 bound_to 10162
  156.5724  130.4753  149.6357 H   0  0  0  0  0  0  0  0  0  0  0  0  # atno 10718 bound_to 10713
  152.9896  135.5570  154.5722 H   0  0  0  0  0  0  0  0  0  0  0  0  # atno 10763 bound_to 10752
  154.5120  135.2803  155.1337 H   0  0  0  0  0  0  0  0  0  0  0  0  # atno 10764 bound_to 10752
  154.2725  135.6360  153.5368 H   0  0  0  0  0  0  0  0  0  0  0  0  # atno 10765 bound_to 10752
  141.1453  133.7998  157.0381 H   0  0  0  0  0  0  0  0  0  0  0  0  # atno 11005 bound_to 11000
  146.0302  139.3328  143.0760 LP  0  0  0  0  0  0  0  0  0  0  0  0  # atno 17320 bound_to 7965
  145.8462  140.9554  143.0773 LP  0  0  0  0  0  0  0  0  0  0  0  0  # atno 17321 bound_to 7965
  140.1955  144.4710  150.6457 LP  0  0  0  0  0  0  0  0  0  0  0  0  # atno 17342 bound_to 10162
  140.6574  143.2241  151.5937 LP  0  0  0  0  0  0  0  0  0  0  0  0  # atno 17343 bound_to 10162
  156.2703  130.7013  151.1808 LP  0  0  0  0  0  0  0  0  0  0  0  0  # atno 17370 bound_to 10713
  157.7345  131.0581  150.5520 LP  0  0  0  0  0  0  0  0  0  0  0  0  # atno 17371 bound_to 10713
  140.0710  134.9702  157.1468 LP  0  0  0  0  0  0  0  0  0  0  0  0  # atno 17394 bound_to 11000
  140.3710  134.2390  155.7178 LP  0  0  0  0  0  0  0  0  0  0  0  0  # atno 17395 bound_to 11000

$$$$
