AV-unprocessed.smi:3165|AV-procd|sdf|12089|dock1
  -GOLD-   2272017523D 1   1.00000     0.00000
 Structure written by MMmdl.
 37 38  0  0  0  0  0  0  0  0  1 V2000
  150.9765  140.8659  156.0109 C   0  0  0  0  0  0  0  0  0  0  0  0
  150.1627  141.3945  157.2026 C   0  0  2  0  0  0  0  0  0  0  0  0
  148.7063  140.8637  157.2035 C   0  0  0  0  0  0  0  0  0  0  0  0
  148.0076  141.0504  155.9416 N   0  0  0  0  0  0  0  0  0  0  0  0
  148.3740  141.8301  154.8642 C   0  0  0  0  0  0  0  0  0  0  0  0
  147.4102  141.6836  153.9083 C   0  0  0  0  0  0  0  0  0  0  0  0
  146.4846  140.7784  154.4981 C   0  0  0  0  0  0  0  0  0  0  0  0
  146.8477  140.3969  155.7113 N   0  0  0  0  0  0  0  0  0  0  0  0
  150.2439  142.8593  157.2342 N   0  0  0  0  0  0  0  0  0  0  0  0
  151.5827  143.4250  157.0728 C   0  0  0  0  0  0  0  0  0  0  0  0
  152.2760  143.5961  158.4316 C   0  0  2  0  0  0  0  0  0  0  0  0
  152.5469  142.2362  159.1041 C   0  0  0  0  0  0  0  0  0  0  0  0
  153.1509  142.4327  160.4992 C   0  0  0  0  0  0  0  0  0  0  0  0
  152.2602  143.3707  161.3207 C   0  0  0  0  0  0  0  0  0  0  0  0
  151.9889  144.6672  160.5416 C   0  0  0  0  0  0  0  0  0  0  0  0
  151.4148  144.3589  159.2754 O   0  0  0  0  0  0  0  0  0  0  0  0
  150.9362  139.7775  155.9604 H   0  0  0  0  0  0  0  0  0  0  0  0
  152.0255  141.1507  156.0971 H   0  0  0  0  0  0  0  0  0  0  0  0
  150.6070  141.2580  155.0630 H   0  0  0  0  0  0  0  0  0  0  0  0
  150.6416  141.0096  158.1037 H   0  0  0  0  0  0  0  0  0  0  0  0
  148.7167  139.7948  157.4194 H   0  0  0  0  0  0  0  0  0  0  0  0
  148.1173  141.3117  158.0042 H   0  0  0  0  0  0  0  0  0  0  0  0
  149.2789  142.4196  154.8698 H   0  0  0  0  0  0  0  0  0  0  0  0
  147.3722  142.1513  152.9359 H   0  0  0  0  0  0  0  0  0  0  0  0
  145.5675  140.3875  154.0826 H   0  0  0  0  0  0  0  0  0  0  0  0
  149.6206  143.2526  156.5365 H   0  0  0  0  0  0  0  0  0  0  0  0
  152.2012  142.8004  156.4288 H   0  0  0  0  0  0  0  0  0  0  0  0
  151.5039  144.3983  156.5871 H   0  0  0  0  0  0  0  0  0  0  0  0
  153.2210  144.1250  158.2927 H   0  0  0  0  0  0  0  0  0  0  0  0
  151.6146  141.6758  159.1870 H   0  0  0  0  0  0  0  0  0  0  0  0
  153.2184  141.6359  158.4895 H   0  0  0  0  0  0  0  0  0  0  0  0
  153.2620  141.4734  161.0054 H   0  0  0  0  0  0  0  0  0  0  0  0
  154.1509  142.8594  160.4099 H   0  0  0  0  0  0  0  0  0  0  0  0
  151.3141  142.8761  161.5434 H   0  0  0  0  0  0  0  0  0  0  0  0
  152.7296  143.5956  162.2785 H   0  0  0  0  0  0  0  0  0  0  0  0
  151.2961  145.2996  161.0970 H   0  0  0  0  0  0  0  0  0  0  0  0
  152.9064  145.2420  160.4072 H   0  0  0  0  0  0  0  0  0  0  0  0
  1  2  1  0  0  0  0
  1 17  1  0  0  0  0
  1 18  1  0  0  0  0
  1 19  1  0  0  0  0
  2  3  1  0  0  0  0
  2  9  1  0  0  0  0
  2 20  1  0  0  0  0
  3  4  1  0  0  0  0
  3 21  1  0  0  0  0
  3 22  1  0  0  0  0
  4  8  1  0  0  0  0
  4  5  1  0  0  0  0
  5  6  2  0  0  0  0
  5 23  1  0  0  0  0
  6  7  1  0  0  0  0
  6 24  1  0  0  0  0
  7  8  2  0  0  0  0
  7 25  1  0  0  0  0
  9 10  1  0  0  0  0
  9 26  1  0  0  0  0
 10 11  1  0  0  0  0
 10 27  1  0  0  0  0
 10 28  1  0  0  0  0
 11 16  1  0  0  0  0
 11 12  1  0  0  0  0
 11 29  1  0  0  0  0
 12 13  1  0  0  0  0
 12 30  1  0  0  0  0
 12 31  1  0  0  0  0
 13 14  1  0  0  0  0
 13 32  1  0  0  0  0
 13 33  1  0  0  0  0
 14 15  1  0  0  0  0
 14 34  1  0  0  0  0
 14 35  1  0  0  0  0
 15 16  1  0  0  0  0
 15 36  1  0  0  0  0
 15 37  1  0  0  0  0
M  END
> <s_m_source_file>
AV-unprocessed.smi

> <i_m_source_file_index>
3165

> <i_lp_mmshare_version>
43012

> <i_f3d_flags>
0

> <s_epik_input>
bjFbY0hdW2NIXVtjSF1uMVtDSDJdW0NAQEhdKFtDSDNdKVtOSF1bQ0gyXVtDQEBIXTJbQ0gyXVtDSDJdW0NIMl1bQ0gyXU8y

> <s_epik_cmdline>
J2VwaWtfcHl0aG9uJywgJy1waCcsICc3LjAnLCAnLXRuJywgJzgnLCAnLW1hJywgJzIwMCcsICctbWV0YWxfYmluZGluZycsICctaW1hZScsICc8aW5maWxlLm1hZT4nLCAnLW9tYWUnLCAnPG91dGZpbGUubWFlPic=

> <r_lp_tautomer_probability>
1

> <r_epik_Ionization_Penalty>
2.51982

> <r_epik_Ionization_Penalty_Charging>
0

> <r_epik_Ionization_Penalty_Neutral>
2.51982

> <r_epik_State_Penalty>
2.68614

> <r_epik_Charging_Adjusted_Penalty>
2.68614

> <i_epik_Tot_Q>
0

> <i_epik_Tot_abs_Q>
0

> <r_epik_Metal_State_Penalty>
2.6861

> <b_epik_Metal_Only>
0

> <s_lp_Force_Field>
OPLS_2005

> <r_lp_Energy>
14.3424

> <b_lp_Chiralities_Consistent>
1

> <s_lp_Variant>
AV-unprocessed.smi:3165-5

> <Gold.Version>
5.8.1

> <Gold.Id.Protein>
6NUR|6NUR_protein|mol2

> <Gold.PLP.Fitness>
42.9770

> <Gold.PLP.PLP>
-35.8302

> <Gold.PLP.part.hbond>
-1.0000

> <Gold.PLP.part.metal>
0.0000

> <Gold.PLP.part.buried>
-3.8198

> <Gold.PLP.part.nonpolar>
-31.2993

> <Gold.PLP.part.repulsive>
0.1187

> <Gold.PLP.ligand.clash>
0.0000

> <Gold.PLP.ligand.torsion>
0.4781

> <Gold.PLP.Chemscore.Hbond>
1.0000

> <Gold.PLP.Chemscore.CHOScore>
1.6589

> <Gold.PLP.Chemscore.Metal>
0.0000

> <Gold.Chemscore.Hbonds>
donor molecule, donor type, donor heavy atom, donor atom, acceptor molecule, acceptor atom, score
      L1  H     9    26       P1  8028  1.00
      L1  C     5    23       P1  8028  0.64
      L1  C     7    25       P1 10175  1.00

> <Gold.PLP.Chemscore.Internal.Correction>
0.1263

> <Gold.Rescore>
     Score         DG    S(hbond)    S(metal)    S(lipo)     H(rot)  DE(clash)    DE(int)     intcor
     15.33     -17.00       0.90        0.00     107.31       1.57       0.11       1.56       ----

> <Gold.Chemscore.Fitness>
15.3266

> <Gold.Chemscore.DG>
-16.9974

> <Gold.Chemscore.ZeroCoef>
-5.4800

> <Gold.Chemscore.Hbond>
0.8950

> <Gold.Chemscore.Metal>
0.0000

> <Gold.Chemscore.Lipo>
107.3090

> <Gold.Chemscore.Internal_Hbond>
0.0000

> <Gold.Chemscore.DEClash>
0.1121

> <Gold.Chemscore.DEInternal>
1.5587

> <Gold.Chemscore.Rot>
1.5731

> <Gold.Chemscore.Internal.Correction>
   9.000000E+99

> <Gold.Chemscore.Hbonds>
donor molecule, donor type, donor heavy atom, donor atom, acceptor molecule, acceptor atom, score
      L1  H     9    26       P1  8028  0.94

> <Gold.Chemscore.Hbond.Weighted>
-2.9895

> <Gold.Chemscore.Metal.Weighted>
-0.0000

> <Gold.Chemscore.Lipo.Weighted>
-12.5552

> <Gold.Chemscore.Internal_Hbond.Weighted>
0.0000

> <Gold.Chemscore.DEClash.Weighted>
0.1121

> <Gold.Chemscore.DEInternal.Weighted>
1.5587

> <Gold.Chemscore.Rot.Weighted>
4.0273

> <Gold.Chemscore.Internal.Correction.Weighted>
   9.000000E+99

> <Gold.Protein.RotatedTorsions>
[ 6907 6896 6895 6894 ] final  -98.05 input  -60.11 | X-H torsion
[ 7974 7965 7964 7962 ] final  -74.47 input  175.53 | X-H torsion
[ 8008 7997 7996 7995 ] final  157.07 input   59.86 | X-H torsion
[ 10167 10162 10161 10158 ] final -131.86 input  -65.29 | X-H torsion
[ 10718 10713 10712 10709 ] final -108.31 input   66.30 | X-H torsion
[ 10763 10752 10751 10750 ] final  -75.46 input  -60.55 | X-H torsion
[ 11005 11000 10999 10996 ] final   46.19 input  -57.11 | X-H torsion

> <Gold.Protein.ActiveResidues>
 VAL166  LYS551  ARG553  GLY616  TRP617  ASP618  TYR619  PRO620  LYS621  CYS622 
 ASP623  PHE694  ASN695  SER759  ASP760  ASP761  ALA762  ILE779  LEU786  VAL792 
 PHE793  MET794  SER795  GLU796  ALA797  LYS798  CYS799  TRP800  GLU811  SER814 

> <Gold.Protein.RotatedAtoms>
  150.7034  134.1255  159.4050 H   0  0  0  0  0  0  0  0  0  0  0  0  # atno 6907 bound_to 6896
  151.9241  135.0283  160.0533 H   0  0  0  0  0  0  0  0  0  0  0  0  # atno 6908 bound_to 6896
  152.2231  133.4964  159.5210 H   0  0  0  0  0  0  0  0  0  0  0  0  # atno 6909 bound_to 6896
  145.6387  140.9317  143.1048 H   0  0  0  0  0  0  0  0  0  0  0  0  # atno 7974 bound_to 7965
  156.2385  140.1895  156.7052 H   0  0  0  0  0  0  0  0  0  0  0  0  # atno 8008 bound_to 7997
  154.6152  140.0616  156.9572 H   0  0  0  0  0  0  0  0  0  0  0  0  # atno 8009 bound_to 7997
  155.1950  140.3287  155.4355 H   0  0  0  0  0  0  0  0  0  0  0  0  # atno 8010 bound_to 7997
  139.9145  143.6455  152.2568 H   0  0  0  0  0  0  0  0  0  0  0  0  # atno 10167 bound_to 10162
  156.0479  130.5706  150.7944 H   0  0  0  0  0  0  0  0  0  0  0  0  # atno 10718 bound_to 10713
  154.4868  135.5830  153.6430 H   0  0  0  0  0  0  0  0  0  0  0  0  # atno 10763 bound_to 10752
  152.9856  135.6103  154.3175 H   0  0  0  0  0  0  0  0  0  0  0  0  # atno 10764 bound_to 10752
  154.3072  135.2845  155.2563 H   0  0  0  0  0  0  0  0  0  0  0  0  # atno 10765 bound_to 10752
  140.1391  134.4606  155.8463 H   0  0  0  0  0  0  0  0  0  0  0  0  # atno 11005 bound_to 11000
  144.7166  139.8176  143.7396 LP  0  0  0  0  0  0  0  0  0  0  0  0  # atno 17320 bound_to 7965
  146.1299  139.4332  143.0175 LP  0  0  0  0  0  0  0  0  0  0  0  0  # atno 17321 bound_to 7965
  139.6914  144.7646  151.1432 LP  0  0  0  0  0  0  0  0  0  0  0  0  # atno 17342 bound_to 10162
  140.7677  143.5584  150.9126 LP  0  0  0  0  0  0  0  0  0  0  0  0  # atno 17343 bound_to 10162
  157.5375  131.0939  150.9872 LP  0  0  0  0  0  0  0  0  0  0  0  0  # atno 17370 bound_to 10713
  157.0163  130.5656  149.5326 LP  0  0  0  0  0  0  0  0  0  0  0  0  # atno 17371 bound_to 10713
  141.2183  133.6826  156.7213 LP  0  0  0  0  0  0  0  0  0  0  0  0  # atno 17394 bound_to 11000
  140.2745  134.8366  157.3877 LP  0  0  0  0  0  0  0  0  0  0  0  0  # atno 17395 bound_to 11000

$$$$
