AV-unprocessed.smi:109|AV-procd|sdf|1033|dock9
  -GOLD-   2262018 43D 1   1.00000     0.00000
 Structure written by MMmdl.
 58 61  0  0  0  0  0  0  0  0  1 V2000
  147.8716  143.0295  154.4144 O   0  0  0  0  0  0  0  0  0  0  0  0
  148.1726  141.7777  154.9917 C   0  0  0  0  0  0  0  0  0  0  0  0
  148.7862  141.9783  156.3880 C   0  0  0  0  0  0  0  0  0  0  0  0
  150.0812  141.1652  156.6343 C   0  0  2  0  0  0  0  0  0  0  0  0
  149.8070  139.7403  156.4335 N   0  0  0  0  0  0  0  0  0  0  0  0
  150.5523  138.9686  155.6107 C   0  0  0  0  0  0  0  0  0  0  0  0
  151.5324  139.4976  154.8337 N   0  0  0  0  0  0  0  0  0  0  0  0
  152.2474  138.7076  154.0282 C   0  0  0  0  0  0  0  0  0  0  0  0
  152.1473  137.3889  153.8514 N   0  0  0  0  0  0  0  0  0  0  0  0
  151.1637  136.8497  154.6283 C   0  0  0  0  0  0  0  0  0  0  0  0
  150.3303  137.5698  155.5294 C   0  0  0  0  0  0  0  0  0  0  0  0
  149.4469  136.6989  156.1525 N   0  0  0  0  0  0  0  0  0  0  0  0
  149.7466  135.5323  155.6483 C   0  0  0  0  0  0  0  0  0  0  0  0
  150.7679  135.5294  154.7242 N   0  0  0  0  0  0  0  0  0  0  0  0
  151.3190  134.3428  153.9908 C   0  0  1  0  0  0  0  0  0  0  0  0
  151.0515  133.1808  154.7207 O   0  0  0  0  0  0  0  0  0  0  0  0
  150.2476  132.2801  153.9586 C   0  0  2  0  0  0  0  0  0  0  0  0
  150.5967  130.8332  154.3363 C   0  0  0  0  0  0  0  0  0  0  0  0
  151.9546  130.5769  154.0488 O   0  0  0  0  0  0  0  0  0  0  0  0
  150.6021  132.6442  152.5160 C   0  0  1  0  0  0  0  0  0  0  0  0
  149.6400  132.2036  151.5761 O   0  0  0  0  0  0  0  0  0  0  0  0
  150.7213  134.1605  152.5819 C   0  0  1  0  0  0  0  0  0  0  0  0
  149.4774  134.8190  152.3999 O   0  0  0  0  0  0  0  0  0  0  0  0
  150.6956  141.3794  158.0480 C   0  0  0  0  0  0  0  0  0  0  0  0
  151.1312  142.8439  158.3084 C   0  0  0  0  0  0  0  0  0  0  0  0
  151.7883  143.0296  159.6862 C   0  0  0  0  0  0  0  0  0  0  0  0
  152.9838  142.0878  159.8698 C   0  0  0  0  0  0  0  0  0  0  0  0
  152.5575  140.6314  159.6532 C   0  0  0  0  0  0  0  0  0  0  0  0
  151.9112  140.4427  158.2723 C   0  0  0  0  0  0  0  0  0  0  0  0
  152.3973  134.5056  153.9733 H   0  0  0  0  0  0  0  0  0  0  0  0
  149.1906  132.4865  154.1339 H   0  0  0  0  0  0  0  0  0  0  0  0
  151.5735  132.2192  152.2579 H   0  0  0  0  0  0  0  0  0  0  0  0
  151.4201  134.5414  151.8366 H   0  0  0  0  0  0  0  0  0  0  0  0
  148.1708  143.7095  154.9985 H   0  0  0  0  0  0  0  0  0  0  0  0
  147.2549  141.1919  155.0411 H   0  0  0  0  0  0  0  0  0  0  0  0
  148.8669  141.2460  154.3405 H   0  0  0  0  0  0  0  0  0  0  0  0
  148.9923  143.0427  156.4860 H   0  0  0  0  0  0  0  0  0  0  0  0
  148.0484  141.7359  157.1541 H   0  0  0  0  0  0  0  0  0  0  0  0
  150.8275  141.5155  155.9218 H   0  0  0  0  0  0  0  0  0  0  0  0
  149.0048  139.3807  156.9308 H   0  0  0  0  0  0  0  0  0  0  0  0
  153.0075  139.2023  153.4416 H   0  0  0  0  0  0  0  0  0  0  0  0
  149.2268  134.6318  155.9414 H   0  0  0  0  0  0  0  0  0  0  0  0
  150.4534  130.6767  155.4057 H   0  0  0  0  0  0  0  0  0  0  0  0
  149.9559  130.1213  153.8151 H   0  0  0  0  0  0  0  0  0  0  0  0
  152.2560  129.8863  154.6196 H   0  0  0  0  0  0  0  0  0  0  0  0
  150.0630  132.1055  150.7367 H   0  0  0  0  0  0  0  0  0  0  0  0
  149.6001  135.5175  151.7741 H   0  0  0  0  0  0  0  0  0  0  0  0
  149.9356  141.1255  158.7888 H   0  0  0  0  0  0  0  0  0  0  0  0
  151.8224  143.1666  157.5287 H   0  0  0  0  0  0  0  0  0  0  0  0
  150.2767  143.5171  158.2652 H   0  0  0  0  0  0  0  0  0  0  0  0
  152.1103  144.0644  159.8065 H   0  0  0  0  0  0  0  0  0  0  0  0
  151.0526  142.8432  160.4697 H   0  0  0  0  0  0  0  0  0  0  0  0
  153.7718  142.3504  159.1628 H   0  0  0  0  0  0  0  0  0  0  0  0
  153.4067  142.2095  160.8672 H   0  0  0  0  0  0  0  0  0  0  0  0
  153.4218  139.9737  159.7511 H   0  0  0  0  0  0  0  0  0  0  0  0
  151.8531  140.3348  160.4314 H   0  0  0  0  0  0  0  0  0  0  0  0
  151.6176  139.3976  158.1747 H   0  0  0  0  0  0  0  0  0  0  0  0
  152.6577  140.6217  157.4971 H   0  0  0  0  0  0  0  0  0  0  0  0
  1  2  1  0  0  0  0
  1 34  1  0  0  0  0
  2  3  1  0  0  0  0
  2 35  1  0  0  0  0
  2 36  1  0  0  0  0
  3  4  1  0  0  0  0
  3 37  1  0  0  0  0
  3 38  1  0  0  0  0
  4  5  1  0  0  0  0
  4 24  1  0  0  0  0
  4 39  1  0  0  0  0
  5  6  1  0  0  0  0
  5 40  1  0  0  0  0
  6 11  1  0  0  0  0
  6  7  2  0  0  0  0
  7  8  1  0  0  0  0
  8  9  2  0  0  0  0
  8 41  1  0  0  0  0
  9 10  1  0  0  0  0
 10 14  1  0  0  0  0
 10 11  2  0  0  0  0
 11 12  1  0  0  0  0
 12 13  2  0  0  0  0
 13 14  1  0  0  0  0
 13 42  1  0  0  0  0
 14 15  1  0  0  0  0
 15 30  1  0  0  0  0
 15 22  1  0  0  0  0
 15 16  1  0  0  0  0
 16 17  1  0  0  0  0
 17 31  1  0  0  0  0
 17 18  1  0  0  0  0
 17 20  1  0  0  0  0
 18 19  1  0  0  0  0
 18 43  1  0  0  0  0
 18 44  1  0  0  0  0
 19 45  1  0  0  0  0
 20 32  1  0  0  0  0
 20 21  1  0  0  0  0
 20 22  1  0  0  0  0
 21 46  1  0  0  0  0
 22 33  1  0  0  0  0
 22 23  1  0  0  0  0
 23 47  1  0  0  0  0
 24 29  1  0  0  0  0
 24 25  1  0  0  0  0
 24 48  1  0  0  0  0
 25 26  1  0  0  0  0
 25 49  1  0  0  0  0
 25 50  1  0  0  0  0
 26 27  1  0  0  0  0
 26 51  1  0  0  0  0
 26 52  1  0  0  0  0
 27 28  1  0  0  0  0
 27 53  1  0  0  0  0
 27 54  1  0  0  0  0
 28 29  1  0  0  0  0
 28 55  1  0  0  0  0
 28 56  1  0  0  0  0
 29 57  1  0  0  0  0
 29 58  1  0  0  0  0
M  END
> <s_m_source_file>
AV-unprocessed.smi

> <i_m_source_file_index>
109

> <i_lp_mmshare_version>
43012

> <i_f3d_flags>
0

> <s_epik_input>
W0NIMl0xW0NIMl1bQ0gyXVtDSDJdW0NIMl1bQ0hdMVtDQEhdKFtDSDJdW0NIMl1bT0hdKVtOSF1jKG5bY0hdbjIpYyhjMjMpbltjSF1uM1tDQEBIXTRPW0NASF0oW0NIMl1bT0hdKVtDQEBIXShbT0hdKVtDQEhdNFtPSF0=

> <s_epik_cmdline>
J2VwaWtfcHl0aG9uJywgJy1waCcsICc3LjAnLCAnLXRuJywgJzgnLCAnLW1hJywgJzIwMCcsICctbWV0YWxfYmluZGluZycsICctaW1hZScsICc8aW5maWxlLm1hZT4nLCAnLW9tYWUnLCAnPG91dGZpbGUubWFlPic=

> <r_lp_tautomer_probability>
1

> <r_epik_Ionization_Penalty>
0.000793976

> <r_epik_Ionization_Penalty_Charging>
0

> <r_epik_Ionization_Penalty_Neutral>
0.000793976

> <r_epik_State_Penalty>
-0

> <r_epik_Charging_Adjusted_Penalty>
0

> <i_epik_Tot_Q>
0

> <i_epik_Tot_abs_Q>
0

> <r_epik_Metal_State_Penalty>
-0

> <b_epik_Metal_Only>
0

> <s_epik_Chemistry_Notes>
This compound contains an acetal/aminal-like group ( X-CH(R)-Y where X, Y are N, S, or O) that may be acid/base labile, releasing an aldehyde.

> <s_lp_Force_Field>
OPLS_2005

> <r_lp_Energy>
57.1061

> <b_lp_Chiralities_Consistent>
1

> <s_lp_Variant>
AV-unprocessed.smi:109-3

> <Gold.Version>
5.8.1

> <Gold.Id.Protein>
6NUR|6NUR_protein|mol2

> <Gold.PLP.Fitness>
49.9851

> <Gold.PLP.PLP>
-39.9710

> <Gold.PLP.part.hbond>
-5.8564

> <Gold.PLP.part.metal>
0.0000

> <Gold.PLP.part.buried>
-1.0549

> <Gold.PLP.part.nonpolar>
-32.4543

> <Gold.PLP.part.repulsive>
1.3988

> <Gold.PLP.ligand.clash>
0.0000

> <Gold.PLP.ligand.torsion>
1.1563

> <Gold.PLP.Chemscore.Hbond>
4.0376

> <Gold.PLP.Chemscore.CHOScore>
0.0000

> <Gold.PLP.Chemscore.Metal>
0.0000

> <Gold.Chemscore.Hbonds>
donor molecule, donor type, donor heavy atom, donor atom, acceptor molecule, acceptor atom, score
      L1  H     1    34       P1  8028  0.59
      P1  H  7989  7998       L1     7  0.40

> <Gold.PLP.Chemscore.Internal.Correction>
0.2139

> <Gold.Rescore>
     Score         DG    S(hbond)    S(metal)    S(lipo)     H(rot)  DE(clash)    DE(int)     intcor
      9.37     -12.61       3.25        0.00      87.67       5.47       1.85       1.39       ----

> <Gold.Chemscore.Fitness>
9.3733

> <Gold.Chemscore.DG>
-12.6105

> <Gold.Chemscore.ZeroCoef>
-5.4800

> <Gold.Chemscore.Hbond>
3.2536

> <Gold.Chemscore.Metal>
0.0000

> <Gold.Chemscore.Lipo>
87.6652

> <Gold.Chemscore.Internal_Hbond>
0.0000

> <Gold.Chemscore.DEClash>
1.8508

> <Gold.Chemscore.DEInternal>
1.3864

> <Gold.Chemscore.Rot>
5.4662

> <Gold.Chemscore.Internal.Correction>
   9.000000E+99

> <Gold.Chemscore.Hbonds>
donor molecule, donor type, donor heavy atom, donor atom, acceptor molecule, acceptor atom, score
      L1  H     1    34       P1  8028  0.46
      P1  H  7989  7998       L1     7  0.01

> <Gold.Chemscore.Hbond.Weighted>
-10.8672

> <Gold.Chemscore.Metal.Weighted>
-0.0000

> <Gold.Chemscore.Lipo.Weighted>
-10.2568

> <Gold.Chemscore.Internal_Hbond.Weighted>
0.0000

> <Gold.Chemscore.DEClash.Weighted>
1.8508

> <Gold.Chemscore.DEInternal.Weighted>
1.3864

> <Gold.Chemscore.Rot.Weighted>
13.9935

> <Gold.Chemscore.Internal.Correction.Weighted>
   9.000000E+99

> <Gold.Protein.RotatedTorsions>
[ 6907 6896 6895 6894 ] final -157.52 input  -60.11 | X-H torsion
[ 7974 7965 7964 7962 ] final -168.39 input  175.53 | X-H torsion
[ 8008 7997 7996 7995 ] final  108.29 input   59.86 | X-H torsion
[ 10167 10162 10161 10158 ] final  134.52 input  -65.29 | X-H torsion
[ 10718 10713 10712 10709 ] final   79.77 input   66.30 | X-H torsion
[ 10763 10752 10751 10750 ] final   56.07 input  -60.55 | X-H torsion
[ 11005 11000 10999 10996 ] final  -82.55 input  -57.11 | X-H torsion

> <Gold.Protein.ActiveResidues>
 VAL166  LYS551  ARG553  GLY616  TRP617  ASP618  TYR619  PRO620  LYS621  CYS622 
 ASP623  PHE694  ASN695  SER759  ASP760  ASP761  ALA762  ILE779  LEU786  VAL792 
 PHE793  MET794  SER795  GLU796  ALA797  LYS798  CYS799  TRP800  GLU811  SER814 

> <Gold.Protein.RotatedAtoms>
  151.3041  133.4109  159.2641 H   0  0  0  0  0  0  0  0  0  0  0  0  # atno 6907 bound_to 6896
  151.0170  134.9441  159.8049 H   0  0  0  0  0  0  0  0  0  0  0  0  # atno 6908 bound_to 6896
  152.5315  134.3004  159.9129 H   0  0  0  0  0  0  0  0  0  0  0  0  # atno 6909 bound_to 6896
  144.7204  140.2377  143.6296 H   0  0  0  0  0  0  0  0  0  0  0  0  # atno 7974 bound_to 7965
  156.1891  140.3079  155.9297 H   0  0  0  0  0  0  0  0  0  0  0  0  # atno 8008 bound_to 7997
  155.3214  140.0456  157.3056 H   0  0  0  0  0  0  0  0  0  0  0  0  # atno 8009 bound_to 7997
  154.5431  140.2268  155.8618 H   0  0  0  0  0  0  0  0  0  0  0  0  # atno 8010 bound_to 7997
  139.5253  144.6563  151.5152 H   0  0  0  0  0  0  0  0  0  0  0  0  # atno 10167 bound_to 10162
  157.6787  130.9929  150.1982 H   0  0  0  0  0  0  0  0  0  0  0  0  # atno 10718 bound_to 10713
  152.9826  135.5689  154.5168 H   0  0  0  0  0  0  0  0  0  0  0  0  # atno 10763 bound_to 10752
  154.4663  135.2783  155.1678 H   0  0  0  0  0  0  0  0  0  0  0  0  # atno 10764 bound_to 10752
  154.3244  135.6262  153.5576 H   0  0  0  0  0  0  0  0  0  0  0  0  # atno 10765 bound_to 10752
  141.1662  133.7250  156.8588 H   0  0  0  0  0  0  0  0  0  0  0  0  # atno 11005 bound_to 11000
  145.8350  139.2103  143.1861 LP  0  0  0  0  0  0  0  0  0  0  0  0  # atno 17320 bound_to 7965
  146.0397  140.8177  142.9834 LP  0  0  0  0  0  0  0  0  0  0  0  0  # atno 17321 bound_to 7965
  140.6390  143.8927  150.6674 LP  0  0  0  0  0  0  0  0  0  0  0  0  # atno 17342 bound_to 10162
  140.2255  143.3776  152.1608 LP  0  0  0  0  0  0  0  0  0  0  0  0  # atno 17343 bound_to 10162
  156.2678  130.3718  149.8063 LP  0  0  0  0  0  0  0  0  0  0  0  0  # atno 17370 bound_to 10713
  156.5788  130.8457  151.3377 LP  0  0  0  0  0  0  0  0  0  0  0  0  # atno 17371 bound_to 10713
  140.1863  134.8997  157.3008 LP  0  0  0  0  0  0  0  0  0  0  0  0  # atno 17394 bound_to 11000
  140.2339  134.3876  155.7509 LP  0  0  0  0  0  0  0  0  0  0  0  0  # atno 17395 bound_to 11000

$$$$
