AV-unprocessed.smi:919|AV-procd|sdf|4164|dock10
  -GOLD-   22720 2 73D 1   1.00000     0.00000
 Structure written by MMmdl.
 43 45  0  0  0  0  0  0  0  0  1 V2000
  150.1567  138.4236  154.2614 C   0  0  0  0  0  0  0  0  0  0  0  0
  149.5130  139.7777  154.3422 C   0  0  0  0  0  0  0  0  0  0  0  0
  150.2025  140.7906  154.8395 N   0  0  0  0  0  0  0  0  0  0  0  0
  149.3549  141.9008  154.7753 O   0  0  0  0  0  0  0  0  0  0  0  0
  148.1739  141.5075  154.2344 C   0  0  0  0  0  0  0  0  0  0  0  0
  147.1249  142.5554  154.0731 C   0  0  0  0  0  0  0  0  0  0  0  0
  148.2044  140.1727  153.9396 C   0  0  0  0  0  0  0  0  0  0  0  0
  147.1186  139.3300  153.3273 C   0  0  0  0  0  0  0  0  0  0  0  0
  146.8124  138.0980  154.1929 C   0  0  0  0  0  0  0  0  0  0  0  0
  146.8699  136.8674  153.4140 N   0  0  0  0  0  0  0  0  0  0  0  0
  145.8675  135.9789  153.3044 C   0  0  0  0  0  0  0  0  0  0  0  0
  144.7823  136.1083  153.8681 O   0  0  0  0  0  0  0  0  0  0  0  0
  146.1353  134.9239  152.5149 N   0  0  0  0  0  0  0  0  0  0  0  0
  145.2603  133.7939  152.1946 C   0  0  2  0  0  0  0  0  0  0  0  0
  145.8936  132.4201  152.5203 C   0  0  0  0  0  0  0  0  0  0  0  0
  145.8687  131.6994  151.1599 C   0  0  1  0  0  0  0  0  0  0  0  0
  144.4126  131.3730  150.7745 C   0  0  0  0  0  0  0  0  0  0  0  0
  143.8361  132.7557  150.4107 C   0  0  0  0  0  0  0  0  0  0  0  0
  145.0287  133.6945  150.6708 C   0  0  2  0  0  0  0  0  0  0  0  0
  146.2006  132.8359  150.2031 C   0  0  0  0  0  0  0  0  0  0  0  0
  149.4596  137.6698  153.8958 H   0  0  0  0  0  0  0  0  0  0  0  0
  150.5117  138.0982  155.2397 H   0  0  0  0  0  0  0  0  0  0  0  0
  151.0111  138.4374  153.5844 H   0  0  0  0  0  0  0  0  0  0  0  0
  146.6660  142.4931  153.0861 H   0  0  0  0  0  0  0  0  0  0  0  0
  147.5453  143.5548  154.1867 H   0  0  0  0  0  0  0  0  0  0  0  0
  146.3396  142.4313  154.8187 H   0  0  0  0  0  0  0  0  0  0  0  0
  146.2075  139.9136  153.1917 H   0  0  0  0  0  0  0  0  0  0  0  0
  147.4095  139.0082  152.3267 H   0  0  0  0  0  0  0  0  0  0  0  0
  147.5072  138.0394  155.0328 H   0  0  0  0  0  0  0  0  0  0  0  0
  145.8137  138.1825  154.6224 H   0  0  0  0  0  0  0  0  0  0  0  0
  147.7266  136.6817  152.9132 H   0  0  0  0  0  0  0  0  0  0  0  0
  147.0433  134.9127  152.0729 H   0  0  0  0  0  0  0  0  0  0  0  0
  144.3074  133.9249  152.7107 H   0  0  0  0  0  0  0  0  0  0  0  0
  146.9206  132.5241  152.8742 H   0  0  0  0  0  0  0  0  0  0  0  0
  145.3349  131.8785  153.2845 H   0  0  0  0  0  0  0  0  0  0  0  0
  146.5395  130.8416  151.1074 H   0  0  0  0  0  0  0  0  0  0  0  0
  144.3782  130.7051  149.9127 H   0  0  0  0  0  0  0  0  0  0  0  0
  143.8674  130.8959  151.5898 H   0  0  0  0  0  0  0  0  0  0  0  0
  143.5437  132.7835  149.3601 H   0  0  0  0  0  0  0  0  0  0  0  0
  142.9605  133.0146  151.0072 H   0  0  0  0  0  0  0  0  0  0  0  0
  144.9337  134.6592  150.1703 H   0  0  0  0  0  0  0  0  0  0  0  0
  147.1751  133.2898  150.3912 H   0  0  0  0  0  0  0  0  0  0  0  0
  146.1364  132.5502  149.1516 H   0  0  0  0  0  0  0  0  0  0  0  0
  1  2  1  0  0  0  0
  1 21  1  0  0  0  0
  1 22  1  0  0  0  0
  1 23  1  0  0  0  0
  2  7  1  0  0  0  0
  2  3  2  0  0  0  0
  3  4  1  0  0  0  0
  4  5  1  0  0  0  0
  5  6  1  0  0  0  0
  5  7  2  0  0  0  0
  6 24  1  0  0  0  0
  6 25  1  0  0  0  0
  6 26  1  0  0  0  0
  7  8  1  0  0  0  0
  8  9  1  0  0  0  0
  8 27  1  0  0  0  0
  8 28  1  0  0  0  0
  9 10  1  0  0  0  0
  9 29  1  0  0  0  0
  9 30  1  0  0  0  0
 10 11  1  0  0  0  0
 10 31  1  0  0  0  0
 11 12  2  0  0  0  0
 11 13  1  0  0  0  0
 13 14  1  0  0  0  0
 13 32  1  0  0  0  0
 14 19  1  0  0  0  0
 14 15  1  0  0  0  0
 14 33  1  0  0  0  0
 15 16  1  0  0  0  0
 15 34  1  0  0  0  0
 15 35  1  0  0  0  0
 16 20  1  0  0  0  0
 16 17  1  0  0  0  0
 16 36  1  0  0  0  0
 17 18  1  0  0  0  0
 17 37  1  0  0  0  0
 17 38  1  0  0  0  0
 18 19  1  0  0  0  0
 18 39  1  0  0  0  0
 18 40  1  0  0  0  0
 19 20  1  0  0  0  0
 19 41  1  0  0  0  0
 20 42  1  0  0  0  0
 20 43  1  0  0  0  0
M  END
> <s_m_source_file>
AV-unprocessed.smi

> <i_m_source_file_index>
919

> <i_lp_mmshare_version>
43012

> <i_f3d_flags>
0

> <s_epik_input>
W0NIM11jMW5vYyhbQ0gzXSljMVtDSDJdW0NIMl1bTkhdQyg9TylbTkhdW0NASF0oW0NIMl1bQ0BASF0yMylbQ0BASF0oW0NIMl0zKVtDSDJdW0NIMl0y

> <s_epik_cmdline>
J2VwaWtfcHl0aG9uJywgJy1waCcsICc3LjAnLCAnLXRuJywgJzgnLCAnLW1hJywgJzIwMCcsICctbWV0YWxfYmluZGluZycsICctaW1hZScsICc8aW5maWxlLm1hZT4nLCAnLW9tYWUnLCAnPG91dGZpbGUubWFlPic=

> <r_lp_tautomer_probability>
1

> <r_epik_Ionization_Penalty>
6.40771e-05

> <r_epik_Ionization_Penalty_Charging>
0

> <r_epik_Ionization_Penalty_Neutral>
6.40771e-05

> <r_epik_State_Penalty>
-0

> <r_epik_Charging_Adjusted_Penalty>
0

> <i_epik_Tot_Q>
0

> <i_epik_Tot_abs_Q>
0

> <r_epik_Metal_State_Penalty>
-0

> <b_epik_Metal_Only>
0

> <s_lp_Force_Field>
OPLS_2005

> <r_lp_Energy>
47.5349

> <b_lp_Chiralities_Consistent>
1

> <s_lp_Variant>
AV-unprocessed.smi:919-1

> <Gold.Version>
5.8.1

> <Gold.Id.Protein>
6NUR|6NUR_protein|mol2

> <Gold.PLP.Fitness>
41.3004

> <Gold.PLP.PLP>
-35.5224

> <Gold.PLP.part.hbond>
-3.7092

> <Gold.PLP.part.metal>
0.0000

> <Gold.PLP.part.buried>
-2.5492

> <Gold.PLP.part.nonpolar>
-29.9735

> <Gold.PLP.part.repulsive>
0.6345

> <Gold.PLP.ligand.clash>
0.0000

> <Gold.PLP.ligand.torsion>
0.4137

> <Gold.PLP.Chemscore.Hbond>
2.1920

> <Gold.PLP.Chemscore.CHOScore>
0.0000

> <Gold.PLP.Chemscore.Metal>
0.0000

> <Gold.Chemscore.Hbonds>
donor molecule, donor type, donor heavy atom, donor atom, acceptor molecule, acceptor atom, score
      L1  H    10    31       P1  7948  1.00
      L1  H    13    32       P1  7948  0.28
      P1  H  7989  7998       L1     3  0.76

> <Gold.PLP.Chemscore.Internal.Correction>
0.0293

> <Gold.Rescore>
     Score         DG    S(hbond)    S(metal)    S(lipo)     H(rot)  DE(clash)    DE(int)     intcor
     17.79     -18.47       1.63        0.00      97.66       1.52       0.28       0.40       ----

> <Gold.Chemscore.Fitness>
17.7916

> <Gold.Chemscore.DG>
-18.4733

> <Gold.Chemscore.ZeroCoef>
-5.4800

> <Gold.Chemscore.Hbond>
1.6313

> <Gold.Chemscore.Metal>
0.0000

> <Gold.Chemscore.Lipo>
97.6580

> <Gold.Chemscore.Internal_Hbond>
0.0000

> <Gold.Chemscore.DEClash>
0.2825

> <Gold.Chemscore.DEInternal>
0.3992

> <Gold.Chemscore.Rot>
1.5161

> <Gold.Chemscore.Internal.Correction>
   9.000000E+99

> <Gold.Chemscore.Hbonds>
donor molecule, donor type, donor heavy atom, donor atom, acceptor molecule, acceptor atom, score
      L1  H    10    31       P1  7948  1.00
      L1  H    13    32       P1  7948  0.29
      P1  H  7989  7998       L1     3  0.13

> <Gold.Chemscore.Hbond.Weighted>
-5.4486

> <Gold.Chemscore.Metal.Weighted>
-0.0000

> <Gold.Chemscore.Lipo.Weighted>
-11.4260

> <Gold.Chemscore.Internal_Hbond.Weighted>
0.0000

> <Gold.Chemscore.DEClash.Weighted>
0.2825

> <Gold.Chemscore.DEInternal.Weighted>
0.3992

> <Gold.Chemscore.Rot.Weighted>
3.8813

> <Gold.Chemscore.Internal.Correction.Weighted>
   9.000000E+99

> <Gold.Protein.RotatedTorsions>
[ 6907 6896 6895 6894 ] final  131.66 input  -60.11 | X-H torsion
[ 7974 7965 7964 7962 ] final   59.34 input  175.53 | X-H torsion
[ 8008 7997 7996 7995 ] final  148.40 input   59.86 | X-H torsion
[ 10167 10162 10161 10158 ] final  147.88 input  -65.29 | X-H torsion
[ 10718 10713 10712 10709 ] final -138.30 input   66.30 | X-H torsion
[ 10763 10752 10751 10750 ] final   74.99 input  -60.55 | X-H torsion
[ 11005 11000 10999 10996 ] final   86.85 input  -57.11 | X-H torsion

> <Gold.Protein.ActiveResidues>
 VAL166  LYS551  ARG553  GLY616  TRP617  ASP618  TYR619  PRO620  LYS621  CYS622 
 ASP623  PHE694  ASN695  SER759  ASP760  ASP761  ALA762  ILE779  LEU786  VAL792 
 PHE793  MET794  SER795  GLU796  ALA797  LYS798  CYS799  TRP800  GLU811  SER814 

> <Gold.Protein.RotatedAtoms>
  152.3404  133.6060  159.5871 H   0  0  0  0  0  0  0  0  0  0  0  0  # atno 6907 bound_to 6896
  150.7475  133.9731  159.3561 H   0  0  0  0  0  0  0  0  0  0  0  0  # atno 6908 bound_to 6896
  151.7596  135.0814  160.0394 H   0  0  0  0  0  0  0  0  0  0  0  0  # atno 6909 bound_to 6896
  145.9082  139.3633  143.0551 H   0  0  0  0  0  0  0  0  0  0  0  0  # atno 7974 bound_to 7965
  156.2792  140.2130  156.5692 H   0  0  0  0  0  0  0  0  0  0  0  0  # atno 8008 bound_to 7997
  154.7149  140.0508  157.0608 H   0  0  0  0  0  0  0  0  0  0  0  0  # atno 8009 bound_to 7997
  155.0555  140.3161  155.4680 H   0  0  0  0  0  0  0  0  0  0  0  0  # atno 8010 bound_to 7997
  139.4883  144.5722  151.7033 H   0  0  0  0  0  0  0  0  0  0  0  0  # atno 10167 bound_to 10162
  156.2978  130.7411  151.1455 H   0  0  0  0  0  0  0  0  0  0  0  0  # atno 10718 bound_to 10713
  153.0624  135.5005  154.8123 H   0  0  0  0  0  0  0  0  0  0  0  0  # atno 10763 bound_to 10752
  154.6902  135.2983  154.9492 H   0  0  0  0  0  0  0  0  0  0  0  0  # atno 10764 bound_to 10752
  154.0249  135.6737  153.4828 H   0  0  0  0  0  0  0  0  0  0  0  0  # atno 10765 bound_to 10752
  139.8934  134.8383  156.2778 H   0  0  0  0  0  0  0  0  0  0  0  0  # atno 11005 bound_to 11000
  145.8705  140.9422  143.0653 LP  0  0  0  0  0  0  0  0  0  0  0  0  # atno 17320 bound_to 7965
  144.6741  140.0649  143.7475 LP  0  0  0  0  0  0  0  0  0  0  0  0  # atno 17321 bound_to 7965
  140.5311  144.0729  150.6054 LP  0  0  0  0  0  0  0  0  0  0  0  0  # atno 17342 bound_to 10162
  140.3719  143.2850  152.0268 LP  0  0  0  0  0  0  0  0  0  0  0  0  # atno 17343 bound_to 10162
  157.7360  131.0567  150.5439 LP  0  0  0  0  0  0  0  0  0  0  0  0  # atno 17370 bound_to 10713
  156.5563  130.4244  149.6084 LP  0  0  0  0  0  0  0  0  0  0  0  0  # atno 17371 bound_to 10713
  141.0059  133.7124  156.1033 LP  0  0  0  0  0  0  0  0  0  0  0  0  # atno 17394 bound_to 11000
  140.7435  134.4124  157.5551 LP  0  0  0  0  0  0  0  0  0  0  0  0  # atno 17395 bound_to 11000

$$$$
