AV-unprocessed.smi:1916|AV-procd|sdf|7766|dock9
  -GOLD-   22720 9513D 1   1.00000     0.00000
 Structure written by MMmdl.
 46 48  0  0  0  0  0  0  0  0  2 V2000
  148.6439  139.4085  155.7471 O   0  0  0  0  0  0  0  0  0  0  0  0
  149.1434  139.9538  154.7628 C   0  0  0  0  0  0  0  0  0  0  0  0
  148.5575  139.9790  153.5566 N   0  0  0  0  0  0  0  0  0  0  0  0
  147.2691  139.3746  153.2292 C   0  0  0  0  0  0  0  0  0  0  0  0
  147.1905  137.9029  153.6730 C   0  0  0  0  0  0  0  0  0  0  0  0
  146.2548  137.0576  152.8261 C   0  0  0  0  0  0  0  0  0  0  0  0
  144.8882  136.9072  153.1474 C   0  0  0  0  0  0  0  0  0  0  0  0
  144.0659  136.1216  152.3128 C   0  0  0  0  0  0  0  0  0  0  0  0
  144.6264  135.5045  151.1753 C   0  0  0  0  0  0  0  0  0  0  0  0
  145.9968  135.6886  150.9006 C   0  0  0  0  0  0  0  0  0  0  0  0
  146.7514  136.4494  151.7239 N   0  3  0  0  0  0  0  0  0  0  0  0
  150.5068  140.6550  154.8753 C   0  0  2  0  0  0  0  0  0  0  0  0
  151.6062  139.6755  155.3212 C   0  0  0  0  0  0  0  0  0  0  0  0
  151.9529  140.1297  156.7286 C   0  0  0  0  0  0  0  0  0  0  0  0
  152.6876  139.4757  157.4671 O   0  0  0  0  0  0  0  0  0  0  0  0
  151.3451  141.2841  157.0378 N   0  0  0  0  0  0  0  0  0  0  0  0
  151.3848  141.9283  158.3625 C   0  0  0  0  0  0  0  0  0  0  0  0
  150.6301  143.2681  158.4641 C   0  0  0  0  0  0  0  0  0  0  0  0
  151.3315  144.0169  159.5932 C   0  0  0  0  0  0  0  0  0  0  0  0
  152.8056  143.6706  159.3996 C   0  0  0  0  0  0  0  0  0  0  0  0
  152.8205  142.2402  158.8456 C   0  0  0  0  0  0  0  0  0  0  0  0
  150.5134  141.7709  155.9418 C   0  0  0  0  0  0  0  0  0  0  0  0
  149.0376  140.4619  152.8113 H   0  0  0  0  0  0  0  0  0  0  0  0
  146.4441  139.9271  153.6819 H   0  0  0  0  0  0  0  0  0  0  0  0
  147.1316  139.4409  152.1493 H   0  0  0  0  0  0  0  0  0  0  0  0
  148.1872  137.4597  153.6467 H   0  0  0  0  0  0  0  0  0  0  0  0
  146.8670  137.8520  154.7134 H   0  0  0  0  0  0  0  0  0  0  0  0
  144.4731  137.3899  154.0205 H   0  0  0  0  0  0  0  0  0  0  0  0
  143.0177  135.9955  152.5418 H   0  0  0  0  0  0  0  0  0  0  0  0
  144.0139  134.8991  150.5232 H   0  0  0  0  0  0  0  0  0  0  0  0
  146.5079  135.2541  150.0540 H   0  0  0  0  0  0  0  0  0  0  0  0
  150.7678  141.0816  153.9052 H   0  0  0  0  0  0  0  0  0  0  0  0
  151.2903  138.6307  155.3230 H   0  0  0  0  0  0  0  0  0  0  0  0
  152.4887  139.7593  154.6864 H   0  0  0  0  0  0  0  0  0  0  0  0
  150.9305  141.2406  159.0781 H   0  0  0  0  0  0  0  0  0  0  0  0
  150.7417  143.8587  157.5545 H   0  0  0  0  0  0  0  0  0  0  0  0
  149.5633  143.1363  158.6480 H   0  0  0  0  0  0  0  0  0  0  0  0
  151.1448  145.0908  159.5663 H   0  0  0  0  0  0  0  0  0  0  0  0
  150.9853  143.6406  160.5567 H   0  0  0  0  0  0  0  0  0  0  0  0
  153.2450  144.3495  158.6675 H   0  0  0  0  0  0  0  0  0  0  0  0
  153.3789  143.7665  160.3223 H   0  0  0  0  0  0  0  0  0  0  0  0
  153.1160  141.5292  159.6180 H   0  0  0  0  0  0  0  0  0  0  0  0
  153.5556  142.1649  158.0431 H   0  0  0  0  0  0  0  0  0  0  0  0
  150.9536  142.6810  155.5324 H   0  0  0  0  0  0  0  0  0  0  0  0
  149.5097  142.0175  156.2924 H   0  0  0  0  0  0  0  0  0  0  0  0
  147.7411  136.5684  151.5059 H   0  0  0  0  0  0  0  0  0  0  0  0
  1  2  2  0  0  0  0
  2  3  1  0  0  0  0
  2 12  1  0  0  0  0
  3  4  1  0  0  0  0
  3 23  1  0  0  0  0
  4  5  1  0  0  0  0
  4 24  1  0  0  0  0
  4 25  1  0  0  0  0
  5  6  1  0  0  0  0
  5 26  1  0  0  0  0
  5 27  1  0  0  0  0
  6 11  1  0  0  0  0
  6  7  2  0  0  0  0
  7  8  1  0  0  0  0
  7 28  1  0  0  0  0
  8  9  2  0  0  0  0
  8 29  1  0  0  0  0
  9 10  1  0  0  0  0
  9 30  1  0  0  0  0
 10 11  2  0  0  0  0
 10 31  1  0  0  0  0
 11 46  1  0  0  0  0
 12 22  1  0  0  0  0
 12 13  1  0  0  0  0
 12 32  1  0  0  0  0
 13 14  1  0  0  0  0
 13 33  1  0  0  0  0
 13 34  1  0  0  0  0
 14 15  2  0  0  0  0
 14 16  1  0  0  0  0
 16 17  1  0  0  0  0
 16 22  1  0  0  0  0
 17 21  1  0  0  0  0
 17 18  1  0  0  0  0
 17 35  1  0  0  0  0
 18 19  1  0  0  0  0
 18 36  1  0  0  0  0
 18 37  1  0  0  0  0
 19 20  1  0  0  0  0
 19 38  1  0  0  0  0
 19 39  1  0  0  0  0
 20 21  1  0  0  0  0
 20 40  1  0  0  0  0
 20 41  1  0  0  0  0
 21 42  1  0  0  0  0
 21 43  1  0  0  0  0
 22 44  1  0  0  0  0
 22 45  1  0  0  0  0
M  CHG  1  11   1
M  END
> <s_m_source_file>
AV-unprocessed.smi

> <i_m_source_file_index>
1916

> <i_lp_mmshare_version>
43012

> <i_f3d_flags>
0

> <s_epik_input>
W0NIMl0xW0NIMl1bQ0gyXVtDSDJdW0NIXTFOKFtDSDJdMilDKD1PKVtDSDJdW0NASF0yQyg9TylbTkhdW0NIMl1bQ0gyXWMzW2NIXVtjSF1bY0hdW2NIXW4z

> <s_epik_cmdline>
J2VwaWtfcHl0aG9uJywgJy1waCcsICc3LjAnLCAnLXRuJywgJzgnLCAnLW1hJywgJzIwMCcsICctbWV0YWxfYmluZGluZycsICctaW1hZScsICc8aW5maWxlLm1hZT4nLCAnLW9tYWUnLCAnPG91dGZpbGUubWFlPic=

> <r_epik_Ionization_Penalty>
1.88249

> <r_epik_Ionization_Penalty_Charging>
1.88249

> <r_epik_Ionization_Penalty_Neutral>
3.64574e-08

> <r_epik_State_Penalty>
2.00238

> <r_epik_Charging_Adjusted_Penalty>
3.88487

> <i_epik_Tot_Q>
1

> <i_epik_Tot_abs_Q>
1

> <r_epik_Metal_State_Penalty>
2.02676

> <b_epik_Metal_Only>
0

> <s_lp_Force_Field>
OPLS_2005

> <r_lp_Energy>
42.8241

> <b_lp_Chiralities_Consistent>
1

> <s_lp_Variant>
AV-unprocessed.smi:1916-3

> <Gold.Version>
5.8.1

> <Gold.Id.Protein>
6NUR|6NUR_protein|mol2

> <Gold.PLP.Fitness>
50.1724

> <Gold.PLP.PLP>
-40.6682

> <Gold.PLP.part.hbond>
-2.7358

> <Gold.PLP.part.metal>
0.0000

> <Gold.PLP.part.buried>
-3.0886

> <Gold.PLP.part.nonpolar>
-35.2924

> <Gold.PLP.part.repulsive>
0.1756

> <Gold.PLP.ligand.clash>
0.0000

> <Gold.PLP.ligand.torsion>
0.6547

> <Gold.PLP.Chemscore.Hbond>
3.5803

> <Gold.PLP.Chemscore.CHOScore>
0.0000

> <Gold.PLP.Chemscore.Metal>
0.0000

> <Gold.Chemscore.Hbonds>
donor molecule, donor type, donor heavy atom, donor atom, acceptor molecule, acceptor atom, score
      L1  H     3    23       P1  7957  0.72
      L1  H    11    46       P1  7948  0.63
      P1  H  7997  8009       L1    15  1.00

> <Gold.PLP.Chemscore.Internal.Correction>
0.0728

> <Gold.Rescore>
     Score         DG    S(hbond)    S(metal)    S(lipo)     H(rot)  DE(clash)    DE(int)     intcor
     17.73     -21.09       2.32        0.00     104.85       1.72       1.52       1.84       ----

> <Gold.Chemscore.Fitness>
17.7276

> <Gold.Chemscore.DG>
-21.0948

> <Gold.Chemscore.ZeroCoef>
-5.4800

> <Gold.Chemscore.Hbond>
2.3173

> <Gold.Chemscore.Metal>
0.0000

> <Gold.Chemscore.Lipo>
104.8510

> <Gold.Chemscore.Internal_Hbond>
0.0000

> <Gold.Chemscore.DEClash>
1.5224

> <Gold.Chemscore.DEInternal>
1.8448

> <Gold.Chemscore.Rot>
1.7158

> <Gold.Chemscore.Internal.Correction>
   9.000000E+99

> <Gold.Chemscore.Hbonds>
donor molecule, donor type, donor heavy atom, donor atom, acceptor molecule, acceptor atom, score
      L1  H     3    23       P1  7957  0.72
      L1  H    11    46       P1  7948  0.31
      P1  H  7997  8009       L1    15  0.29

> <Gold.Chemscore.Hbond.Weighted>
-7.7396

> <Gold.Chemscore.Metal.Weighted>
-0.0000

> <Gold.Chemscore.Lipo.Weighted>
-12.2676

> <Gold.Chemscore.Internal_Hbond.Weighted>
0.0000

> <Gold.Chemscore.DEClash.Weighted>
1.5224

> <Gold.Chemscore.DEInternal.Weighted>
1.8448

> <Gold.Chemscore.Rot.Weighted>
4.3924

> <Gold.Chemscore.Internal.Correction.Weighted>
   9.000000E+99

> <Gold.Protein.RotatedTorsions>
[ 6907 6896 6895 6894 ] final  161.20 input  -60.11 | X-H torsion
[ 7974 7965 7964 7962 ] final   66.69 input  175.53 | X-H torsion
[ 8008 7997 7996 7995 ] final  165.82 input   59.86 | X-H torsion
[ 10167 10162 10161 10158 ] final  140.21 input  -65.29 | X-H torsion
[ 10718 10713 10712 10709 ] final  -80.51 input   66.30 | X-H torsion
[ 10763 10752 10751 10750 ] final  -74.62 input  -60.55 | X-H torsion
[ 11005 11000 10999 10996 ] final  -49.43 input  -57.11 | X-H torsion

> <Gold.Protein.ActiveResidues>
 VAL166  LYS551  ARG553  GLY616  TRP617  ASP618  TYR619  PRO620  LYS621  CYS622 
 ASP623  PHE694  ASN695  SER759  ASP760  ASP761  ALA762  ILE779  LEU786  VAL792 
 PHE793  MET794  SER795  GLU796  ALA797  LYS798  CYS799  TRP800  GLU811  SER814 

> <Gold.Protein.RotatedAtoms>
  151.9592  133.3690  159.4028 H   0  0  0  0  0  0  0  0  0  0  0  0  # atno 6907 bound_to 6896
  150.6967  134.4258  159.5235 H   0  0  0  0  0  0  0  0  0  0  0  0  # atno 6908 bound_to 6896
  152.1944  134.8643  160.0565 H   0  0  0  0  0  0  0  0  0  0  0  0  # atno 6909 bound_to 6896
  145.8236  139.3098  143.1029 H   0  0  0  0  0  0  0  0  0  0  0  0  # atno 7974 bound_to 7965
  156.1769  140.1660  156.8345 H   0  0  0  0  0  0  0  0  0  0  0  0  # atno 8008 bound_to 7997
  154.5317  140.0755  156.8390 H   0  0  0  0  0  0  0  0  0  0  0  0  # atno 8009 bound_to 7997
  155.3393  140.3383  155.4241 H   0  0  0  0  0  0  0  0  0  0  0  0  # atno 8010 bound_to 7997
  139.5055  144.6248  151.5964 H   0  0  0  0  0  0  0  0  0  0  0  0  # atno 10167 bound_to 10162
  156.0069  130.4576  150.3811 H   0  0  0  0  0  0  0  0  0  0  0  0  # atno 10718 bound_to 10713
  154.4755  135.5858  153.6352 H   0  0  0  0  0  0  0  0  0  0  0  0  # atno 10763 bound_to 10752
  152.9840  135.6077  154.3313 H   0  0  0  0  0  0  0  0  0  0  0  0  # atno 10764 bound_to 10752
  154.3199  135.2844  155.2504 H   0  0  0  0  0  0  0  0  0  0  0  0  # atno 10765 bound_to 10752
  141.0759  133.6666  156.3585 H   0  0  0  0  0  0  0  0  0  0  0  0  # atno 11005 bound_to 11000
  145.9648  140.8807  143.0192 LP  0  0  0  0  0  0  0  0  0  0  0  0  # atno 17320 bound_to 7965
  144.6745  140.1863  143.7401 LP  0  0  0  0  0  0  0  0  0  0  0  0  # atno 17321 bound_to 7965
  140.5961  143.9693  150.6355 LP  0  0  0  0  0  0  0  0  0  0  0  0  # atno 17342 bound_to 10162
  140.2890  143.3337  152.1080 LP  0  0  0  0  0  0  0  0  0  0  0  0  # atno 17343 bound_to 10162
  157.1890  131.0411  151.2710 LP  0  0  0  0  0  0  0  0  0  0  0  0  # atno 17370 bound_to 10713
  157.4078  130.7368  149.6815 LP  0  0  0  0  0  0  0  0  0  0  0  0  # atno 17371 bound_to 10713
  140.5575  134.5967  157.5424 LP  0  0  0  0  0  0  0  0  0  0  0  0  # atno 17394 bound_to 11000
  139.9571  134.7516  156.0318 LP  0  0  0  0  0  0  0  0  0  0  0  0  # atno 17395 bound_to 11000

$$$$
