AV-unprocessed.smi:655|AV-procd|sdf|3214|dock6
  -GOLD-   22720 0153D 1   1.00000     0.00000
 Structure written by MMmdl.
 35 36  0  0  0  0  0  0  0  0  1 V2000
  152.1241  143.8421  160.8548 C   0  0  0  0  0  0  0  0  0  0  0  0
  152.2337  143.1404  159.4937 C   0  0  2  0  0  0  0  0  0  0  0  0
  151.0235  143.4569  158.5981 C   0  0  0  0  0  0  0  0  0  0  0  0
  151.1268  142.7611  157.2292 C   0  0  0  0  0  0  0  0  0  0  0  0
  151.3265  141.2281  157.3378 C   0  0  1  0  0  0  0  0  0  0  0  0
  150.1681  140.6488  157.9110 O   0  0  0  0  0  0  0  0  0  0  0  0
  151.5740  140.5316  155.9680 C   0  0  0  0  0  0  0  0  0  0  0  0
  150.3931  140.2778  155.1710 N   0  0  0  0  0  0  0  0  0  0  0  0
  149.3958  141.2268  154.9976 C   0  0  0  0  0  0  0  0  0  0  0  0
  148.2750  141.0044  154.2698 C   0  0  0  0  0  0  0  0  0  0  0  0
  147.0750  142.2365  154.1093 Cl  0  0  0  0  0  0  0  0  0  0  0  0
  148.0723  139.7128  153.6154 C   0  0  0  0  0  0  0  0  0  0  0  0
  147.0963  139.4049  152.9340 O   0  0  0  0  0  0  0  0  0  0  0  0
  149.1031  138.7892  153.8122 N   0  0  0  0  0  0  0  0  0  0  0  0
  150.2600  139.0089  154.5605 C   0  0  0  0  0  0  0  0  0  0  0  0
  151.1020  138.1164  154.6586 O   0  0  0  0  0  0  0  0  0  0  0  0
  152.5013  140.9100  158.2942 C   0  0  0  0  0  0  0  0  0  0  0  0
  152.3872  141.6182  159.6563 C   0  0  0  0  0  0  0  0  0  0  0  0
  149.0027  137.8851  153.3737 H   0  0  0  0  0  0  0  0  0  0  0  0
  151.2385  143.5137  161.3999 H   0  0  0  0  0  0  0  0  0  0  0  0
  152.0588  144.9239  160.7346 H   0  0  0  0  0  0  0  0  0  0  0  0
  152.9948  143.6320  161.4765 H   0  0  0  0  0  0  0  0  0  0  0  0
  153.1290  143.5194  158.9984 H   0  0  0  0  0  0  0  0  0  0  0  0
  150.1036  143.1487  159.0968 H   0  0  0  0  0  0  0  0  0  0  0  0
  150.9430  144.5342  158.4497 H   0  0  0  0  0  0  0  0  0  0  0  0
  150.2324  142.9908  156.6485 H   0  0  0  0  0  0  0  0  0  0  0  0
  151.9651  143.1937  156.6824 H   0  0  0  0  0  0  0  0  0  0  0  0
  149.4119  141.1357  157.6211 H   0  0  0  0  0  0  0  0  0  0  0  0
  152.1919  141.1711  155.3355 H   0  0  0  0  0  0  0  0  0  0  0  0
  152.1372  139.5994  156.0550 H   0  0  0  0  0  0  0  0  0  0  0  0
  149.5110  142.1915  155.4714 H   0  0  0  0  0  0  0  0  0  0  0  0
  152.5840  139.8329  158.4474 H   0  0  0  0  0  0  0  0  0  0  0  0
  153.4384  141.2180  157.8281 H   0  0  0  0  0  0  0  0  0  0  0  0
  153.2725  141.3969  160.2534 H   0  0  0  0  0  0  0  0  0  0  0  0
  151.5379  141.2176  160.2115 H   0  0  0  0  0  0  0  0  0  0  0  0
  1  2  1  0  0  0  0
  1 20  1  0  0  0  0
  1 21  1  0  0  0  0
  1 22  1  0  0  0  0
  2 18  1  0  0  0  0
  2  3  1  0  0  0  0
  2 23  1  0  0  0  0
  3  4  1  0  0  0  0
  3 24  1  0  0  0  0
  3 25  1  0  0  0  0
  4  5  1  0  0  0  0
  4 26  1  0  0  0  0
  4 27  1  0  0  0  0
  5  6  1  0  0  0  0
  5  7  1  0  0  0  0
  5 17  1  0  0  0  0
  6 28  1  0  0  0  0
  7  8  1  0  0  0  0
  7 29  1  0  0  0  0
  7 30  1  0  0  0  0
  8 15  1  0  0  0  0
  8  9  1  0  0  0  0
  9 10  2  0  0  0  0
  9 31  1  0  0  0  0
 10 11  1  0  0  0  0
 10 12  1  0  0  0  0
 12 13  2  0  0  0  0
 12 14  1  0  0  0  0
 14 19  1  0  0  0  0
 14 15  1  0  0  0  0
 15 16  2  0  0  0  0
 17 18  1  0  0  0  0
 17 32  1  0  0  0  0
 17 33  1  0  0  0  0
 18 34  1  0  0  0  0
 18 35  1  0  0  0  0
M  END
> <s_m_source_file>
AV-unprocessed.smi

> <i_m_source_file_index>
655

> <i_lp_mmshare_version>
43012

> <i_f3d_flags>
0

> <s_epik_input>
W0NIMl0xW0NIMl1bQ0BIXShbQ0gzXSlbQ0gyXVtDSDJdW0NAQF0xKFtPSF0pW0NIMl1uMltjSF1jKENsKWMoPU8pW25IXWMyPU8=

> <s_epik_cmdline>
J2VwaWtfcHl0aG9uJywgJy1waCcsICc3LjAnLCAnLXRuJywgJzgnLCAnLW1hJywgJzIwMCcsICctbWV0YWxfYmluZGluZycsICctaW1hZScsICc8aW5maWxlLm1hZT4nLCAnLW9tYWUnLCAnPG91dGZpbGUubWFlPic=

> <r_lp_tautomer_probability>
0.999537

> <r_epik_Ionization_Penalty>
0.0114762

> <r_epik_Ionization_Penalty_Charging>
0.0114753

> <r_epik_Ionization_Penalty_Neutral>
8.25878e-07

> <r_epik_State_Penalty>
0.00883314

> <r_epik_Charging_Adjusted_Penalty>
0.0203085

> <i_epik_Tot_Q>
0

> <i_epik_Tot_abs_Q>
0

> <r_epik_Metal_State_Penalty>
1.64347

> <b_epik_Metal_Only>
0

> <s_lp_Force_Field>
OPLS_2005

> <r_lp_Energy>
18.0938

> <b_lp_Chiralities_Consistent>
1

> <s_lp_Variant>
AV-unprocessed.smi:655-1

> <Gold.Version>
5.8.1

> <Gold.Id.Protein>
6NUR|6NUR_protein|mol2

> <Gold.PLP.Fitness>
41.9676

> <Gold.PLP.PLP>
-38.6194

> <Gold.PLP.part.hbond>
-1.3268

> <Gold.PLP.part.metal>
0.0000

> <Gold.PLP.part.buried>
-2.2067

> <Gold.PLP.part.nonpolar>
-35.0352

> <Gold.PLP.part.repulsive>
0.8673

> <Gold.PLP.ligand.clash>
0.0000

> <Gold.PLP.ligand.torsion>
0.4949

> <Gold.PLP.Chemscore.Hbond>
0.4713

> <Gold.PLP.Chemscore.CHOScore>
0.9727

> <Gold.PLP.Chemscore.Metal>
0.0000

> <Gold.Chemscore.Hbonds>
donor molecule, donor type, donor heavy atom, donor atom, acceptor molecule, acceptor atom, score
      L1  H    14    19       P1  7948  0.54
      L1  C     9    31       P1  8028  0.81

> <Gold.PLP.Chemscore.Internal.Correction>
0.0062

> <Gold.Rescore>
     Score         DG    S(hbond)    S(metal)    S(lipo)     H(rot)  DE(clash)    DE(int)     intcor
     12.09     -12.67       0.20        0.00      96.04       1.84       0.23       0.34       ----

> <Gold.Chemscore.Fitness>
12.0891

> <Gold.Chemscore.DG>
-12.6652

> <Gold.Chemscore.ZeroCoef>
-5.4800

> <Gold.Chemscore.Hbond>
0.1991

> <Gold.Chemscore.Metal>
0.0000

> <Gold.Chemscore.Lipo>
96.0390

> <Gold.Chemscore.Internal_Hbond>
0.0000

> <Gold.Chemscore.DEClash>
0.2331

> <Gold.Chemscore.DEInternal>
0.3429

> <Gold.Chemscore.Rot>
1.8424

> <Gold.Chemscore.Internal.Correction>
   9.000000E+99

> <Gold.Chemscore.Hbonds>
donor molecule, donor type, donor heavy atom, donor atom, acceptor molecule, acceptor atom, score
      L1  H    14    19       P1  7948  0.52

> <Gold.Chemscore.Hbond.Weighted>
-0.6650

> <Gold.Chemscore.Metal.Weighted>
-0.0000

> <Gold.Chemscore.Lipo.Weighted>
-11.2366

> <Gold.Chemscore.Internal_Hbond.Weighted>
0.0000

> <Gold.Chemscore.DEClash.Weighted>
0.2331

> <Gold.Chemscore.DEInternal.Weighted>
0.3429

> <Gold.Chemscore.Rot.Weighted>
4.7164

> <Gold.Chemscore.Internal.Correction.Weighted>
   9.000000E+99

> <Gold.Protein.RotatedTorsions>
[ 6907 6896 6895 6894 ] final  -31.13 input  -60.11 | X-H torsion
[ 7974 7965 7964 7962 ] final   79.63 input  175.53 | X-H torsion
[ 8008 7997 7996 7995 ] final  -15.80 input   59.86 | X-H torsion
[ 10167 10162 10161 10158 ] final   24.32 input  -65.29 | X-H torsion
[ 10718 10713 10712 10709 ] final   24.80 input   66.30 | X-H torsion
[ 10763 10752 10751 10750 ] final -172.34 input  -60.55 | X-H torsion
[ 11005 11000 10999 10996 ] final  -45.99 input  -57.11 | X-H torsion

> <Gold.Protein.ActiveResidues>
 VAL166  LYS551  ARG553  GLY616  TRP617  ASP618  TYR619  PRO620  LYS621  CYS622 
 ASP623  PHE694  ASN695  SER759  ASP760  ASP761  ALA762  ILE779  LEU786  VAL792 
 PHE793  MET794  SER795  GLU796  ALA797  LYS798  CYS799  TRP800  GLU811  SER814 

> <Gold.Protein.RotatedAtoms>
  151.0962  134.9946  159.8426 H   0  0  0  0  0  0  0  0  0  0  0  0  # atno 6907 bound_to 6896
  152.5433  134.2005  159.8720 H   0  0  0  0  0  0  0  0  0  0  0  0  # atno 6908 bound_to 6896
  151.2044  133.4548  159.2630 H   0  0  0  0  0  0  0  0  0  0  0  0  # atno 6909 bound_to 6896
  145.6617  139.2473  143.1919 H   0  0  0  0  0  0  0  0  0  0  0  0  # atno 7974 bound_to 7965
  154.5102  140.2186  155.9172 H   0  0  0  0  0  0  0  0  0  0  0  0  # atno 8008 bound_to 7997
  156.1543  140.3155  155.8665 H   0  0  0  0  0  0  0  0  0  0  0  0  # atno 8009 bound_to 7997
  155.3878  140.0476  157.3032 H   0  0  0  0  0  0  0  0  0  0  0  0  # atno 8010 bound_to 7997
  140.5197  144.0022  150.6411 H   0  0  0  0  0  0  0  0  0  0  0  0  # atno 10167 bound_to 10162
  157.1847  130.6819  149.6127 H   0  0  0  0  0  0  0  0  0  0  0  0  # atno 10718 bound_to 10713
  154.6204  135.2874  155.0333 H   0  0  0  0  0  0  0  0  0  0  0  0  # atno 10763 bound_to 10752
  154.1530  135.6500  153.4971 H   0  0  0  0  0  0  0  0  0  0  0  0  # atno 10764 bound_to 10752
  153.0233  135.5360  154.6991 H   0  0  0  0  0  0  0  0  0  0  0  0  # atno 10765 bound_to 10752
  141.0550  133.6729  156.3091 H   0  0  0  0  0  0  0  0  0  0  0  0  # atno 11005 bound_to 11000
  146.1120  140.7417  142.9499 LP  0  0  0  0  0  0  0  0  0  0  0  0  # atno 17320 bound_to 7965
  144.7087  140.3954  143.7098 LP  0  0  0  0  0  0  0  0  0  0  0  0  # atno 17321 bound_to 7965
  140.3368  143.3044  152.0630 LP  0  0  0  0  0  0  0  0  0  0  0  0  # atno 17342 bound_to 10162
  139.4920  144.6471  151.6756 LP  0  0  0  0  0  0  0  0  0  0  0  0  # atno 17343 bound_to 10162
  155.9719  130.4634  150.6182 LP  0  0  0  0  0  0  0  0  0  0  0  0  # atno 17370 bound_to 10713
  157.3918  131.0797  151.1387 LP  0  0  0  0  0  0  0  0  0  0  0  0  # atno 17371 bound_to 10713
  140.5981  134.5583  157.5512 LP  0  0  0  0  0  0  0  0  0  0  0  0  # atno 17394 bound_to 11000
  139.9383  134.7835  156.0745 LP  0  0  0  0  0  0  0  0  0  0  0  0  # atno 17395 bound_to 11000

$$$$
