AV-unprocessed.smi:266|AV-procd|sdf|2032|dock5
  -GOLD-   2262021243D 1   1.00000     0.00000
 Structure written by MMmdl.
 52 55  0  0  0  0  0  0  0  0  1 V2000
  145.7061  135.0500  151.0034 C   0  0  0  0  0  0  0  0  0  0  0  0
  145.0991  133.6770  151.3345 C   0  0  1  0  0  0  0  0  0  0  0  0
  143.8893  133.5207  150.5992 O   0  0  0  0  0  0  0  0  0  0  0  0
  143.6877  132.1405  150.3569 C   0  0  0  0  0  0  0  0  0  0  0  0
  145.0893  131.6696  150.0054 C   0  0  0  0  0  0  0  0  0  0  0  0
  145.9661  132.4301  151.0022 C   0  0  1  0  0  0  0  0  0  0  0  0
  147.1809  132.7704  150.3558 O   0  0  0  0  0  0  0  0  0  0  0  0
  146.2964  131.6267  152.2883 C   0  0  0  0  0  0  0  0  0  0  0  0
  147.1809  132.3115  153.2205 N   0  0  0  0  0  0  0  0  0  0  0  0
  148.5293  132.0966  153.3816 C   0  0  0  0  0  0  0  0  0  0  0  0
  149.1018  132.8319  154.2932 N   0  0  0  0  0  0  0  0  0  0  0  0
  148.0729  133.6078  154.8206 C   0  0  0  0  0  0  0  0  0  0  0  0
  147.9841  134.6073  155.8417 C   0  0  0  0  0  0  0  0  0  0  0  0
  149.0343  135.0604  156.5895 N   0  0  0  0  0  0  0  0  0  0  0  0
  150.1901  134.2031  156.8253 C   0  0  0  0  0  0  0  0  0  0  0  0
  149.1263  136.4592  157.0196 C   0  0  0  0  0  0  0  0  0  0  0  0
  149.6946  137.3870  155.9272 C   0  0  2  0  0  0  0  0  0  0  0  0
  150.9414  136.7882  155.2488 C   0  0  0  0  0  0  0  0  0  0  0  0
  151.5820  137.8619  154.3628 C   0  0  0  0  0  0  0  0  0  0  0  0
  151.2732  139.4543  155.2139 S   0  0  0  0  0  0  0  0  0  0  0  0
  152.4927  139.8826  155.9157 O   0  0  0  0  0  0  0  0  0  0  0  0
  150.5724  140.3596  154.2907 O   0  0  0  0  0  0  0  0  0  0  0  0
  150.0833  138.7845  156.4359 C   0  0  0  0  0  0  0  0  0  0  0  0
  146.7486  135.1271  156.0740 N   0  0  0  0  0  0  0  0  0  0  0  0
  145.6858  134.7249  155.3737 C   0  0  0  0  0  0  0  0  0  0  0  0
  145.6268  133.8172  154.4008 N   0  0  0  0  0  0  0  0  0  0  0  0
  146.8542  133.2798  154.1547 C   0  0  0  0  0  0  0  0  0  0  0  0
  146.6294  135.2161  151.5590 H   0  0  0  0  0  0  0  0  0  0  0  0
  145.0150  135.8515  151.2657 H   0  0  0  0  0  0  0  0  0  0  0  0
  145.9284  135.1422  149.9400 H   0  0  0  0  0  0  0  0  0  0  0  0
  144.8298  133.6672  152.3918 H   0  0  0  0  0  0  0  0  0  0  0  0
  143.3216  131.6517  151.2609 H   0  0  0  0  0  0  0  0  0  0  0  0
  142.9704  131.9725  149.5536 H   0  0  0  0  0  0  0  0  0  0  0  0
  145.1921  130.5865  150.0381 H   0  0  0  0  0  0  0  0  0  0  0  0
  145.3104  131.9835  148.9836 H   0  0  0  0  0  0  0  0  0  0  0  0
  147.6051  131.9744  150.0740 H   0  0  0  0  0  0  0  0  0  0  0  0
  145.3759  131.3757  152.8170 H   0  0  0  0  0  0  0  0  0  0  0  0
  146.7617  130.6756  152.0256 H   0  0  0  0  0  0  0  0  0  0  0  0
  149.0800  131.3756  152.7950 H   0  0  0  0  0  0  0  0  0  0  0  0
  150.5997  133.8381  155.8830 H   0  0  0  0  0  0  0  0  0  0  0  0
  149.9171  133.3521  157.4497 H   0  0  0  0  0  0  0  0  0  0  0  0
  150.9834  134.7458  157.3402 H   0  0  0  0  0  0  0  0  0  0  0  0
  148.1760  136.8415  157.3922 H   0  0  0  0  0  0  0  0  0  0  0  0
  149.7936  136.4855  157.8819 H   0  0  0  0  0  0  0  0  0  0  0  0
  148.9434  137.5160  155.1466 H   0  0  0  0  0  0  0  0  0  0  0  0
  151.6578  136.4894  156.0155 H   0  0  0  0  0  0  0  0  0  0  0  0
  150.6984  135.8936  154.6745 H   0  0  0  0  0  0  0  0  0  0  0  0
  152.6516  137.7124  154.2150 H   0  0  0  0  0  0  0  0  0  0  0  0
  151.0954  137.9007  153.3879 H   0  0  0  0  0  0  0  0  0  0  0  0
  149.2306  139.4552  156.5409 H   0  0  0  0  0  0  0  0  0  0  0  0
  150.5986  138.7224  157.3945 H   0  0  0  0  0  0  0  0  0  0  0  0
  144.7495  135.1988  155.6292 H   0  0  0  0  0  0  0  0  0  0  0  0
  1  2  1  0  0  0  0
  1 28  1  0  0  0  0
  1 29  1  0  0  0  0
  1 30  1  0  0  0  0
  2  6  1  0  0  0  0
  2  3  1  0  0  0  0
  2 31  1  0  0  0  0
  3  4  1  0  0  0  0
  4  5  1  0  0  0  0
  4 32  1  0  0  0  0
  4 33  1  0  0  0  0
  5  6  1  0  0  0  0
  5 34  1  0  0  0  0
  5 35  1  0  0  0  0
  6  7  1  0  0  0  0
  6  8  1  0  0  0  0
  7 36  1  0  0  0  0
  8  9  1  0  0  0  0
  8 37  1  0  0  0  0
  8 38  1  0  0  0  0
  9 27  1  0  0  0  0
  9 10  1  0  0  0  0
 10 11  2  0  0  0  0
 10 39  1  0  0  0  0
 11 12  1  0  0  0  0
 12 27  2  0  0  0  0
 12 13  1  0  0  0  0
 13 14  1  0  0  0  0
 13 24  2  0  0  0  0
 14 15  1  0  0  0  0
 14 16  1  0  0  0  0
 15 40  1  0  0  0  0
 15 41  1  0  0  0  0
 15 42  1  0  0  0  0
 16 17  1  0  0  0  0
 16 43  1  0  0  0  0
 16 44  1  0  0  0  0
 17 23  1  0  0  0  0
 17 18  1  0  0  0  0
 17 45  1  0  0  0  0
 18 19  1  0  0  0  0
 18 46  1  0  0  0  0
 18 47  1  0  0  0  0
 19 20  1  0  0  0  0
 19 48  1  0  0  0  0
 19 49  1  0  0  0  0
 20 21  2  0  0  0  0
 20 22  2  0  0  0  0
 20 23  1  0  0  0  0
 23 50  1  0  0  0  0
 23 51  1  0  0  0  0
 24 25  1  0  0  0  0
 25 26  2  0  0  0  0
 25 52  1  0  0  0  0
 26 27  1  0  0  0  0
M  END
> <s_m_source_file>
AV-unprocessed.smi

> <i_m_source_file_index>
266

> <i_lp_mmshare_version>
43012

> <i_f3d_flags>
0

> <s_epik_input>
W0NIMl0xW0NIMl1PW0NAQEhdKFtDSDNdKVtDQEBdMShbT0hdKVtDSDJdbihbY0hdbjIpYyhjMjMpbltjSF1uYzNOKFtDSDNdKVtDSDJdW0NAQEhdKFtDSDJdNClbQ0gyXVtDSDJdUzQoPU8pPU8=

> <s_epik_cmdline>
J2VwaWtfcHl0aG9uJywgJy1waCcsICc3LjAnLCAnLXRuJywgJzgnLCAnLW1hJywgJzIwMCcsICctbWV0YWxfYmluZGluZycsICctaW1hZScsICc8aW5maWxlLm1hZT4nLCAnLW9tYWUnLCAnPG91dGZpbGUubWFlPic=

> <r_lp_tautomer_probability>
1

> <r_epik_Ionization_Penalty>
0.00155497

> <r_epik_Ionization_Penalty_Charging>
0

> <r_epik_Ionization_Penalty_Neutral>
0.00155497

> <r_epik_State_Penalty>
-0

> <r_epik_Charging_Adjusted_Penalty>
0

> <i_epik_Tot_Q>
0

> <i_epik_Tot_abs_Q>
0

> <r_epik_Metal_State_Penalty>
-0

> <b_epik_Metal_Only>
0

> <s_lp_Force_Field>
OPLS_2005

> <r_lp_Energy>
32.0182

> <b_lp_Chiralities_Consistent>
1

> <s_lp_Variant>
AV-unprocessed.smi:266-2

> <Gold.Version>
5.8.1

> <Gold.Id.Protein>
6NUR|6NUR_protein|mol2

> <Gold.PLP.Fitness>
46.1086

> <Gold.PLP.PLP>
-36.5377

> <Gold.PLP.part.hbond>
-3.6885

> <Gold.PLP.part.metal>
0.0000

> <Gold.PLP.part.buried>
-4.8385

> <Gold.PLP.part.nonpolar>
-28.4592

> <Gold.PLP.part.repulsive>
0.4902

> <Gold.PLP.ligand.clash>
0.0000

> <Gold.PLP.ligand.torsion>
1.1369

> <Gold.PLP.Chemscore.Hbond>
2.9120

> <Gold.PLP.Chemscore.CHOScore>
1.0000

> <Gold.PLP.Chemscore.Metal>
0.0000

> <Gold.Chemscore.Hbonds>
donor molecule, donor type, donor heavy atom, donor atom, acceptor molecule, acceptor atom, score
      L1  H     7    36       P1 10747  0.96
      P1  H  7989  7998       L1    22  0.71
      P1  H  7997  8009       L1    21  1.00
      L1  C    10    39       P1 10747  0.97

> <Gold.PLP.Chemscore.Internal.Correction>
0.1086

> <Gold.Rescore>
     Score         DG    S(hbond)    S(metal)    S(lipo)     H(rot)  DE(clash)    DE(int)     intcor
     16.34     -17.82       2.97        0.00      74.26       2.45       0.20       1.28       ----

> <Gold.Chemscore.Fitness>
16.3436

> <Gold.Chemscore.DG>
-17.8244

> <Gold.Chemscore.ZeroCoef>
-5.4800

> <Gold.Chemscore.Hbond>
2.9703

> <Gold.Chemscore.Metal>
0.0000

> <Gold.Chemscore.Lipo>
74.2571

> <Gold.Chemscore.Internal_Hbond>
0.0000

> <Gold.Chemscore.DEClash>
0.1973

> <Gold.Chemscore.DEInternal>
1.2835

> <Gold.Chemscore.Rot>
2.4471

> <Gold.Chemscore.Internal.Correction>
   9.000000E+99

> <Gold.Chemscore.Hbonds>
donor molecule, donor type, donor heavy atom, donor atom, acceptor molecule, acceptor atom, score
      L1  H     7    36       P1 10747  0.92
      P1  H  7989  7998       L1    22  0.27
      P1  H  7997  8009       L1    21  0.93

> <Gold.Chemscore.Hbond.Weighted>
-9.9209

> <Gold.Chemscore.Metal.Weighted>
-0.0000

> <Gold.Chemscore.Lipo.Weighted>
-8.6881

> <Gold.Chemscore.Internal_Hbond.Weighted>
0.0000

> <Gold.Chemscore.DEClash.Weighted>
0.1973

> <Gold.Chemscore.DEInternal.Weighted>
1.2835

> <Gold.Chemscore.Rot.Weighted>
6.2645

> <Gold.Chemscore.Internal.Correction.Weighted>
   9.000000E+99

> <Gold.Protein.RotatedTorsions>
[ 6907 6896 6895 6894 ] final -122.72 input  -60.11 | X-H torsion
[ 7974 7965 7964 7962 ] final  -44.49 input  175.53 | X-H torsion
[ 8008 7997 7996 7995 ] final -174.46 input   59.86 | X-H torsion
[ 10167 10162 10161 10158 ] final  -91.25 input  -65.29 | X-H torsion
[ 10718 10713 10712 10709 ] final  109.66 input   66.30 | X-H torsion
[ 10763 10752 10751 10750 ] final  -20.75 input  -60.55 | X-H torsion
[ 11005 11000 10999 10996 ] final  -10.61 input  -57.11 | X-H torsion

> <Gold.Protein.ActiveResidues>
 VAL166  LYS551  ARG553  GLY616  TRP617  ASP618  TYR619  PRO620  LYS621  CYS622 
 ASP623  PHE694  ASN695  SER759  ASP760  ASP761  ALA762  ILE779  LEU786  VAL792 
 PHE793  MET794  SER795  GLU796  ALA797  LYS798  CYS799  TRP800  GLU811  SER814 

> <Gold.Protein.RotatedAtoms>
  150.8603  133.7654  159.2994 H   0  0  0  0  0  0  0  0  0  0  0  0  # atno 6907 bound_to 6896
  151.5298  135.1066  159.9909 H   0  0  0  0  0  0  0  0  0  0  0  0  # atno 6908 bound_to 6896
  152.4621  133.7800  159.6901 H   0  0  0  0  0  0  0  0  0  0  0  0  # atno 6909 bound_to 6896
  145.9915  140.7175  142.9314 H   0  0  0  0  0  0  0  0  0  0  0  0  # atno 7974 bound_to 7965
  155.9703  140.1161  157.0818 H   0  0  0  0  0  0  0  0  0  0  0  0  # atno 8008 bound_to 7997
  154.4154  140.1164  156.5365 H   0  0  0  0  0  0  0  0  0  0  0  0  # atno 8009 bound_to 7997
  155.6605  140.3473  155.4783 H   0  0  0  0  0  0  0  0  0  0  0  0  # atno 8010 bound_to 7997
  140.3468  143.2912  151.9772 H   0  0  0  0  0  0  0  0  0  0  0  0  # atno 10167 bound_to 10162
  157.6531  131.0918  150.6487 H   0  0  0  0  0  0  0  0  0  0  0  0  # atno 10718 bound_to 10713
  153.6253  135.6991  153.5295 H   0  0  0  0  0  0  0  0  0  0  0  0  # atno 10763 bound_to 10752
  153.2904  135.4159  155.1161 H   0  0  0  0  0  0  0  0  0  0  0  0  # atno 10764 bound_to 10752
  154.8534  135.3624  154.5795 H   0  0  0  0  0  0  0  0  0  0  0  0  # atno 10765 bound_to 10752
  140.7466  133.8627  155.9010 H   0  0  0  0  0  0  0  0  0  0  0  0  # atno 11005 bound_to 11000
  144.6890  140.3079  143.7253 LP  0  0  0  0  0  0  0  0  0  0  0  0  # atno 17320 bound_to 7965
  145.7622  139.1828  143.2260 LP  0  0  0  0  0  0  0  0  0  0  0  0  # atno 17321 bound_to 7965
  139.4832  144.6110  151.7433 LP  0  0  0  0  0  0  0  0  0  0  0  0  # atno 17342 bound_to 10162
  140.5257  144.0809  150.6037 LP  0  0  0  0  0  0  0  0  0  0  0  0  # atno 17343 bound_to 10162
  156.6797  130.4563  149.5632 LP  0  0  0  0  0  0  0  0  0  0  0  0  # atno 17370 bound_to 10713
  156.1938  130.6577  151.1091 LP  0  0  0  0  0  0  0  0  0  0  0  0  # atno 17371 bound_to 10713
  140.9789  134.1432  157.4512 LP  0  0  0  0  0  0  0  0  0  0  0  0  # atno 17394 bound_to 11000
  139.8795  135.0004  156.6007 LP  0  0  0  0  0  0  0  0  0  0  0  0  # atno 17395 bound_to 11000

$$$$
