AV-unprocessed.smi:2177|AV-procd|sdf|8851|dock10
  -GOLD-   2272012 43D 1   1.00000     0.00000
 Structure written by MMmdl.
 42 43  0  0  0  0  0  0  0  0  1 V2000
  153.3717  142.3024  162.3757 C   0  0  0  0  0  0  0  0  0  0  0  0
  152.8433  143.1180  161.2305 C   0  0  0  0  0  0  0  0  0  0  0  0
  152.2125  144.2533  161.4795 N   0  0  0  0  0  0  0  0  0  0  0  0
  151.8560  144.7223  160.2668 N   0  0  0  0  0  0  0  0  0  0  0  0
  151.1277  145.9724  160.1731 C   0  0  0  0  0  0  0  0  0  0  0  0
  152.2649  143.8828  159.2494 C   0  0  0  0  0  0  0  0  0  0  0  0
  151.9812  144.1761  157.8117 C   0  0  0  0  0  0  0  0  0  0  0  0
  152.9076  142.8253  159.8360 C   0  0  0  0  0  0  0  0  0  0  0  0
  153.5193  141.6118  159.1784 C   0  0  0  0  0  0  0  0  0  0  0  0
  152.4083  140.7151  158.6306 C   0  0  0  0  0  0  0  0  0  0  0  0
  152.1253  139.6628  159.2020 O   0  0  0  0  0  0  0  0  0  0  0  0
  151.8082  141.1382  157.5074 N   0  0  0  0  0  0  0  0  0  0  0  0
  150.8491  140.3826  156.7089 C   0  0  1  0  0  0  0  0  0  0  0  0
  150.1921  141.3078  155.6741 C   0  0  0  0  0  0  0  0  0  0  0  0
  151.5687  139.1898  156.0511 C   0  0  1  0  0  0  0  0  0  0  0  0
  150.6956  138.3576  155.1069 C   0  0  0  0  0  0  0  0  0  0  0  0
  151.6932  137.7463  154.1351 C   0  0  0  0  0  0  0  0  0  0  0  0
  152.9871  138.5261  154.3856 C   0  0  0  0  0  0  0  0  0  0  0  0
  152.6029  139.6337  155.1875 O   0  0  0  0  0  0  0  0  0  0  0  0
  152.8223  141.3656  162.4709 H   0  0  0  0  0  0  0  0  0  0  0  0
  153.2878  142.8335  163.3244 H   0  0  0  0  0  0  0  0  0  0  0  0
  154.4233  142.0575  162.2273 H   0  0  0  0  0  0  0  0  0  0  0  0
  151.7518  146.7235  159.6888 H   0  0  0  0  0  0  0  0  0  0  0  0
  150.8474  146.3309  161.1648 H   0  0  0  0  0  0  0  0  0  0  0  0
  150.2218  145.8267  159.5839 H   0  0  0  0  0  0  0  0  0  0  0  0
  152.4519  143.4422  157.1576 H   0  0  0  0  0  0  0  0  0  0  0  0
  152.3577  145.1606  157.5336 H   0  0  0  0  0  0  0  0  0  0  0  0
  150.9086  144.1553  157.6187 H   0  0  0  0  0  0  0  0  0  0  0  0
  154.1887  141.8963  158.3657 H   0  0  0  0  0  0  0  0  0  0  0  0
  154.1222  141.0338  159.8793 H   0  0  0  0  0  0  0  0  0  0  0  0
  152.1087  142.0234  157.1261 H   0  0  0  0  0  0  0  0  0  0  0  0
  150.0679  139.9838  157.3589 H   0  0  0  0  0  0  0  0  0  0  0  0
  149.4588  140.7677  155.0748 H   0  0  0  0  0  0  0  0  0  0  0  0
  150.9312  141.7317  154.9934 H   0  0  0  0  0  0  0  0  0  0  0  0
  149.6728  142.1343  156.1607 H   0  0  0  0  0  0  0  0  0  0  0  0
  152.0020  138.5402  156.8146 H   0  0  0  0  0  0  0  0  0  0  0  0
  150.1039  137.6077  155.6333 H   0  0  0  0  0  0  0  0  0  0  0  0
  150.0058  139.0039  154.5619 H   0  0  0  0  0  0  0  0  0  0  0  0
  151.8402  136.6824  154.3247 H   0  0  0  0  0  0  0  0  0  0  0  0
  151.3487  137.8593  153.1065 H   0  0  0  0  0  0  0  0  0  0  0  0
  153.7013  137.9148  154.9390 H   0  0  0  0  0  0  0  0  0  0  0  0
  153.4645  138.8549  153.4621 H   0  0  0  0  0  0  0  0  0  0  0  0
  1  2  1  0  0  0  0
  1 20  1  0  0  0  0
  1 21  1  0  0  0  0
  1 22  1  0  0  0  0
  2  8  1  0  0  0  0
  2  3  2  0  0  0  0
  3  4  1  0  0  0  0
  4  5  1  0  0  0  0
  4  6  1  0  0  0  0
  5 23  1  0  0  0  0
  5 24  1  0  0  0  0
  5 25  1  0  0  0  0
  6  7  1  0  0  0  0
  6  8  2  0  0  0  0
  7 26  1  0  0  0  0
  7 27  1  0  0  0  0
  7 28  1  0  0  0  0
  8  9  1  0  0  0  0
  9 10  1  0  0  0  0
  9 29  1  0  0  0  0
  9 30  1  0  0  0  0
 10 11  2  0  0  0  0
 10 12  1  0  0  0  0
 12 13  1  0  0  0  0
 12 31  1  0  0  0  0
 13 14  1  0  0  0  0
 13 15  1  0  0  0  0
 13 32  1  0  0  0  0
 14 33  1  0  0  0  0
 14 34  1  0  0  0  0
 14 35  1  0  0  0  0
 15 19  1  0  0  0  0
 15 16  1  0  0  0  0
 15 36  1  0  0  0  0
 16 17  1  0  0  0  0
 16 37  1  0  0  0  0
 16 38  1  0  0  0  0
 17 18  1  0  0  0  0
 17 39  1  0  0  0  0
 17 40  1  0  0  0  0
 18 19  1  0  0  0  0
 18 41  1  0  0  0  0
 18 42  1  0  0  0  0
M  END
> <s_m_source_file>
AV-unprocessed.smi

> <i_m_source_file_index>
2177

> <i_lp_mmshare_version>
43012

> <i_f3d_flags>
0

> <s_epik_input>
W0NIM11jMW5uKFtDSDNdKWMoW0NIM10pYzFbQ0gyXUMoPU8pW05IXVtDQEhdKFtDSDNdKVtDQEBIXTJbQ0gyXVtDSDJdW0NIMl1PMg==

> <s_epik_cmdline>
J2VwaWtfcHl0aG9uJywgJy1waCcsICc3LjAnLCAnLXRuJywgJzgnLCAnLW1hJywgJzIwMCcsICctbWV0YWxfYmluZGluZycsICctaW1hZScsICc8aW5maWxlLm1hZT4nLCAnLW9tYWUnLCAnPG91dGZpbGUubWFlPic=

> <r_lp_tautomer_probability>
1

> <r_epik_Ionization_Penalty>
0.00310467

> <r_epik_Ionization_Penalty_Charging>
0

> <r_epik_Ionization_Penalty_Neutral>
0.00310467

> <r_epik_State_Penalty>
0.00218493

> <r_epik_Charging_Adjusted_Penalty>
0.00218493

> <i_epik_Tot_Q>
0

> <i_epik_Tot_abs_Q>
0

> <r_epik_Metal_State_Penalty>
-0

> <b_epik_Metal_Only>
0

> <s_lp_Force_Field>
OPLS_2005

> <r_lp_Energy>
11.3681

> <b_lp_Chiralities_Consistent>
1

> <s_lp_Variant>
AV-unprocessed.smi:2177-4

> <Gold.Version>
5.8.1

> <Gold.Id.Protein>
6NUR|6NUR_protein|mol2

> <Gold.PLP.Fitness>
48.4541

> <Gold.PLP.PLP>
-45.6779

> <Gold.PLP.part.hbond>
-1.9621

> <Gold.PLP.part.metal>
0.0000

> <Gold.PLP.part.buried>
-2.3687

> <Gold.PLP.part.nonpolar>
-41.3355

> <Gold.PLP.part.repulsive>
0.2528

> <Gold.PLP.ligand.clash>
0.0000

> <Gold.PLP.ligand.torsion>
0.3901

> <Gold.PLP.Chemscore.Hbond>
1.1739

> <Gold.PLP.Chemscore.CHOScore>
0.0000

> <Gold.PLP.Chemscore.Metal>
0.0000

> <Gold.Chemscore.Hbonds>
donor molecule, donor type, donor heavy atom, donor atom, acceptor molecule, acceptor atom, score
      P1  H  7989  7998       L1    19  0.19
      P1  H  7997  8009       L1    19  0.94

> <Gold.PLP.Chemscore.Internal.Correction>
0.0348

> <Gold.Rescore>
     Score         DG    S(hbond)    S(metal)    S(lipo)     H(rot)  DE(clash)    DE(int)     intcor
     18.06     -18.82       0.63        0.00     127.95       1.46       0.35       0.41       ----

> <Gold.Chemscore.Fitness>
18.0631

> <Gold.Chemscore.DG>
-18.8201

> <Gold.Chemscore.ZeroCoef>
-5.4800

> <Gold.Chemscore.Hbond>
0.6332

> <Gold.Chemscore.Metal>
0.0000

> <Gold.Chemscore.Lipo>
127.9469

> <Gold.Chemscore.Internal_Hbond>
0.0000

> <Gold.Chemscore.DEClash>
0.3495

> <Gold.Chemscore.DEInternal>
0.4075

> <Gold.Chemscore.Rot>
1.4627

> <Gold.Chemscore.Internal.Correction>
   9.000000E+99

> <Gold.Chemscore.Hbonds>
donor molecule, donor type, donor heavy atom, donor atom, acceptor molecule, acceptor atom, score
      P1  H  7989  7998       L1    19  0.02
      P1  H  7997  8009       L1    19  0.33

> <Gold.Chemscore.Hbond.Weighted>
-2.1148

> <Gold.Chemscore.Metal.Weighted>
-0.0000

> <Gold.Chemscore.Lipo.Weighted>
-14.9698

> <Gold.Chemscore.Internal_Hbond.Weighted>
0.0000

> <Gold.Chemscore.DEClash.Weighted>
0.3495

> <Gold.Chemscore.DEInternal.Weighted>
0.4075

> <Gold.Chemscore.Rot.Weighted>
3.7445

> <Gold.Chemscore.Internal.Correction.Weighted>
   9.000000E+99

> <Gold.Protein.RotatedTorsions>
[ 6907 6896 6895 6894 ] final  115.55 input  -60.11 | X-H torsion
[ 7974 7965 7964 7962 ] final  158.74 input  175.53 | X-H torsion
[ 8008 7997 7996 7995 ] final -149.18 input   59.86 | X-H torsion
[ 10167 10162 10161 10158 ] final -128.49 input  -65.29 | X-H torsion
[ 10718 10713 10712 10709 ] final  169.70 input   66.30 | X-H torsion
[ 10763 10752 10751 10750 ] final   31.44 input  -60.55 | X-H torsion
[ 11005 11000 10999 10996 ] final   79.07 input  -57.11 | X-H torsion

> <Gold.Protein.ActiveResidues>
 VAL166  LYS551  ARG553  GLY616  TRP617  ASP618  TYR619  PRO620  LYS621  CYS622 
 ASP623  PHE694  ASN695  SER759  ASP760  ASP761  ALA762  ILE779  LEU786  VAL792 
 PHE793  MET794  SER795  GLU796  ALA797  LYS798  CYS799  TRP800  GLU811  SER814 

> <Gold.Protein.RotatedAtoms>
  152.4734  133.8082  159.6989 H   0  0  0  0  0  0  0  0  0  0  0  0  # atno 6907 bound_to 6896
  150.8737  133.7460  159.2960 H   0  0  0  0  0  0  0  0  0  0  0  0  # atno 6908 bound_to 6896
  151.4987  135.1064  159.9875 H   0  0  0  0  0  0  0  0  0  0  0  0  # atno 6909 bound_to 6896
  144.7828  139.7521  143.6253 H   0  0  0  0  0  0  0  0  0  0  0  0  # atno 7974 bound_to 7965
  155.6035  140.0664  157.2726 H   0  0  0  0  0  0  0  0  0  0  0  0  # atno 8008 bound_to 7997
  154.4272  140.1814  156.1245 H   0  0  0  0  0  0  0  0  0  0  0  0  # atno 8009 bound_to 7997
  156.0141  140.3323  155.6974 H   0  0  0  0  0  0  0  0  0  0  0  0  # atno 8010 bound_to 7997
  139.9498  143.6069  152.2479 H   0  0  0  0  0  0  0  0  0  0  0  0  # atno 10167 bound_to 10162
  157.0188  131.0226  151.2781 H   0  0  0  0  0  0  0  0  0  0  0  0  # atno 10718 bound_to 10713
  153.0315  135.6439  154.1200 H   0  0  0  0  0  0  0  0  0  0  0  0  # atno 10763 bound_to 10752
  154.0922  135.2865  155.3271 H   0  0  0  0  0  0  0  0  0  0  0  0  # atno 10764 bound_to 10752
  154.6457  135.5444  153.7905 H   0  0  0  0  0  0  0  0  0  0  0  0  # atno 10765 bound_to 10752
  139.9187  134.7814  156.1731 H   0  0  0  0  0  0  0  0  0  0  0  0  # atno 11005 bound_to 11000
  146.2046  139.5361  142.9721 LP  0  0  0  0  0  0  0  0  0  0  0  0  # atno 17320 bound_to 7965
  145.6002  141.0356  143.2022 LP  0  0  0  0  0  0  0  0  0  0  0  0  # atno 17321 bound_to 7965
  139.6638  144.7662  151.1912 LP  0  0  0  0  0  0  0  0  0  0  0  0  # atno 17342 bound_to 10162
  140.7586  143.5970  150.8738 LP  0  0  0  0  0  0  0  0  0  0  0  0  # atno 17343 bound_to 10162
  157.5265  130.8031  149.7868 LP  0  0  0  0  0  0  0  0  0  0  0  0  # atno 17370 bound_to 10713
  156.0110  130.3833  150.2267 LP  0  0  0  0  0  0  0  0  0  0  0  0  # atno 17371 bound_to 10713
  141.0688  133.6806  156.2098 LP  0  0  0  0  0  0  0  0  0  0  0  0  # atno 17394 bound_to 11000
  140.6541  134.5036  157.5579 LP  0  0  0  0  0  0  0  0  0  0  0  0  # atno 17395 bound_to 11000

$$$$
