AV-unprocessed.smi:225|AV-procd|sdf|1723|dock1
  -GOLD-   2262020203D 1   1.00000     0.00000
 Structure written by MMmdl.
 56 59  0  0  0  0  0  0  0  0  1 V2000
  150.5371  140.1358  154.0948 O   0  0  0  0  0  0  0  0  0  0  0  0
  151.1710  139.9493  155.3411 C   0  0  0  0  0  0  0  0  0  0  0  0
  150.4403  140.7711  156.4165 C   0  0  0  0  0  0  0  0  0  0  0  0
  151.0125  140.5939  157.7544 N   0  0  0  0  0  0  0  0  0  0  0  0
  152.0817  141.5093  158.1561 C   0  0  0  0  0  0  0  0  0  0  0  0
  151.6216  142.5811  159.1670 C   0  0  0  0  0  0  0  0  0  0  0  0
  151.2618  143.8926  158.4408 C   0  0  0  0  0  0  0  0  0  0  0  0
  150.7943  144.9784  159.4242 C   0  0  0  0  0  0  0  0  0  0  0  0
  151.8488  145.2378  160.5107 C   0  0  0  0  0  0  0  0  0  0  0  0
  152.2206  143.9379  161.2405 C   0  0  0  0  0  0  0  0  0  0  0  0
  152.6851  142.8570  160.2512 C   0  0  0  0  0  0  0  0  0  0  0  0
  151.2051  139.3234  158.1948 C   0  0  0  0  0  0  0  0  0  0  0  0
  152.4327  138.9299  158.6284 N   0  0  0  0  0  0  0  0  0  0  0  0
  152.6245  137.6843  159.0728 C   0  0  0  0  0  0  0  0  0  0  0  0
  151.7414  136.6892  159.1732 N   0  0  0  0  0  0  0  0  0  0  0  0
  150.5068  137.0788  158.7445 C   0  0  0  0  0  0  0  0  0  0  0  0
  150.1558  138.3636  158.2424 C   0  0  0  0  0  0  0  0  0  0  0  0
  148.8119  138.3830  157.8910 N   0  0  0  0  0  0  0  0  0  0  0  0
  148.3902  137.1815  158.1761 C   0  0  0  0  0  0  0  0  0  0  0  0
  149.3402  136.3353  158.7018 N   0  0  0  0  0  0  0  0  0  0  0  0
  149.1470  134.9532  159.1121 C   0  0  0  0  0  0  0  0  0  0  0  0
  148.4619  134.8124  160.4914 C   0  0  1  0  0  0  0  0  0  0  0  0
  148.2348  133.4394  160.7583 O   0  0  0  0  0  0  0  0  0  0  0  0
  149.2633  135.4034  161.6491 C   0  0  0  0  0  0  0  0  0  0  0  0
  148.1803  135.9086  162.5918 C   0  0  0  0  0  0  0  0  0  0  0  0
  147.2192  136.4377  161.6953 O   0  0  0  0  0  0  0  0  0  0  0  0
  147.1147  135.5575  160.5813 C   0  0  0  0  0  0  0  0  0  0  0  0
  149.7157  140.5801  154.2394 H   0  0  0  0  0  0  0  0  0  0  0  0
  151.1526  138.8886  155.5931 H   0  0  0  0  0  0  0  0  0  0  0  0
  152.2160  140.2449  155.2482 H   0  0  0  0  0  0  0  0  0  0  0  0
  150.4432  141.8292  156.1510 H   0  0  0  0  0  0  0  0  0  0  0  0
  149.3921  140.4751  156.4301 H   0  0  0  0  0  0  0  0  0  0  0  0
  152.9331  140.9672  158.5705 H   0  0  0  0  0  0  0  0  0  0  0  0
  152.4527  141.9990  157.2549 H   0  0  0  0  0  0  0  0  0  0  0  0
  150.7172  142.2310  159.6642 H   0  0  0  0  0  0  0  0  0  0  0  0
  152.1269  144.2558  157.8841 H   0  0  0  0  0  0  0  0  0  0  0  0
  150.4782  143.7083  157.7051 H   0  0  0  0  0  0  0  0  0  0  0  0
  150.5822  145.9019  158.8848 H   0  0  0  0  0  0  0  0  0  0  0  0
  149.8575  144.6707  159.8902 H   0  0  0  0  0  0  0  0  0  0  0  0
  152.7413  145.6711  160.0574 H   0  0  0  0  0  0  0  0  0  0  0  0
  151.4757  145.9727  161.2245 H   0  0  0  0  0  0  0  0  0  0  0  0
  153.0053  144.1341  161.9714 H   0  0  0  0  0  0  0  0  0  0  0  0
  151.3593  143.5736  161.8017 H   0  0  0  0  0  0  0  0  0  0  0  0
  152.9123  141.9422  160.7992 H   0  0  0  0  0  0  0  0  0  0  0  0
  153.6161  143.1755  159.7806 H   0  0  0  0  0  0  0  0  0  0  0  0
  153.6288  137.4525  159.3954 H   0  0  0  0  0  0  0  0  0  0  0  0
  147.3661  136.8798  158.0123 H   0  0  0  0  0  0  0  0  0  0  0  0
  148.5537  134.4529  158.3457 H   0  0  0  0  0  0  0  0  0  0  0  0
  150.1178  134.4554  159.1191 H   0  0  0  0  0  0  0  0  0  0  0  0
  148.9978  133.0875  161.1905 H   0  0  0  0  0  0  0  0  0  0  0  0
  149.9492  134.6966  162.1186 H   0  0  0  0  0  0  0  0  0  0  0  0
  149.8500  136.2565  161.3061 H   0  0  0  0  0  0  0  0  0  0  0  0
  147.7420  135.0899  163.1646 H   0  0  0  0  0  0  0  0  0  0  0  0
  148.5431  136.6650  163.2878 H   0  0  0  0  0  0  0  0  0  0  0  0
  146.8974  136.1373  159.6838 H   0  0  0  0  0  0  0  0  0  0  0  0
  146.2782  134.8743  160.7378 H   0  0  0  0  0  0  0  0  0  0  0  0
  1  2  1  0  0  0  0
  1 28  1  0  0  0  0
  2  3  1  0  0  0  0
  2 29  1  0  0  0  0
  2 30  1  0  0  0  0
  3  4  1  0  0  0  0
  3 31  1  0  0  0  0
  3 32  1  0  0  0  0
  4  5  1  0  0  0  0
  4 12  1  0  0  0  0
  5  6  1  0  0  0  0
  5 33  1  0  0  0  0
  5 34  1  0  0  0  0
  6 11  1  0  0  0  0
  6  7  1  0  0  0  0
  6 35  1  0  0  0  0
  7  8  1  0  0  0  0
  7 36  1  0  0  0  0
  7 37  1  0  0  0  0
  8  9  1  0  0  0  0
  8 38  1  0  0  0  0
  8 39  1  0  0  0  0
  9 10  1  0  0  0  0
  9 40  1  0  0  0  0
  9 41  1  0  0  0  0
 10 11  1  0  0  0  0
 10 42  1  0  0  0  0
 10 43  1  0  0  0  0
 11 44  1  0  0  0  0
 11 45  1  0  0  0  0
 12 17  1  0  0  0  0
 12 13  2  0  0  0  0
 13 14  1  0  0  0  0
 14 15  2  0  0  0  0
 14 46  1  0  0  0  0
 15 16  1  0  0  0  0
 16 20  1  0  0  0  0
 16 17  2  0  0  0  0
 17 18  1  0  0  0  0
 18 19  2  0  0  0  0
 19 20  1  0  0  0  0
 19 47  1  0  0  0  0
 20 21  1  0  0  0  0
 21 22  1  0  0  0  0
 21 48  1  0  0  0  0
 21 49  1  0  0  0  0
 22 27  1  0  0  0  0
 22 23  1  0  0  0  0
 22 24  1  0  0  0  0
 23 50  1  0  0  0  0
 24 25  1  0  0  0  0
 24 51  1  0  0  0  0
 24 52  1  0  0  0  0
 25 26  1  0  0  0  0
 25 53  1  0  0  0  0
 25 54  1  0  0  0  0
 26 27  1  0  0  0  0
 27 55  1  0  0  0  0
 27 56  1  0  0  0  0
M  END
> <s_m_source_file>
AV-unprocessed.smi

> <i_m_source_file_index>
225

> <i_lp_mmshare_version>
43012

> <i_f3d_flags>
0

> <s_epik_input>
W0NIMl0xW0NIMl1bQ0gyXVtDSDJdW0NIMl1bQ0hdMVtDSDJdTihbQ0gyXVtDSDJdW09IXSljKG5bY0hdbjIpYyhjMjMpbltjSF1uM1tDSDJdW0NAQF00KFtPSF0pW0NIMl1bQ0gyXU9bQ0gyXTQ=

> <s_epik_cmdline>
J2VwaWtfcHl0aG9uJywgJy1waCcsICc3LjAnLCAnLXRuJywgJzgnLCAnLW1hJywgJzIwMCcsICctbWV0YWxfYmluZGluZycsICctaW1hZScsICc8aW5maWxlLm1hZT4nLCAnLW9tYWUnLCAnPG91dGZpbGUubWFlPic=

> <r_lp_tautomer_probability>
1

> <r_epik_Ionization_Penalty>
0.00405109

> <r_epik_Ionization_Penalty_Charging>
0

> <r_epik_Ionization_Penalty_Neutral>
0.00405109

> <r_epik_State_Penalty>
0.00270467

> <r_epik_Charging_Adjusted_Penalty>
0.00270467

> <i_epik_Tot_Q>
0

> <i_epik_Tot_abs_Q>
0

> <r_epik_Metal_State_Penalty>
-0

> <b_epik_Metal_Only>
0

> <s_lp_Force_Field>
OPLS_2005

> <r_lp_Energy>
35.3167

> <b_lp_Chiralities_Consistent>
1

> <s_lp_Variant>
AV-unprocessed.smi:225-1

> <Gold.Version>
5.8.1

> <Gold.Id.Protein>
6NUR|6NUR_protein|mol2

> <Gold.PLP.Fitness>
58.0803

> <Gold.PLP.PLP>
-51.5039

> <Gold.PLP.part.hbond>
-3.8865

> <Gold.PLP.part.metal>
0.0000

> <Gold.PLP.part.buried>
-6.6539

> <Gold.PLP.part.nonpolar>
-40.5661

> <Gold.PLP.part.repulsive>
0.0049

> <Gold.PLP.ligand.clash>
0.0000

> <Gold.PLP.ligand.torsion>
1.9323

> <Gold.PLP.Chemscore.Hbond>
2.9440

> <Gold.PLP.Chemscore.CHOScore>
0.0000

> <Gold.PLP.Chemscore.Metal>
0.0000

> <Gold.Chemscore.Hbonds>
donor molecule, donor type, donor heavy atom, donor atom, acceptor molecule, acceptor atom, score
      P1  H  6896  6907       L1    15  0.34
      P1  H  7989  7998       L1     1  0.62

> <Gold.PLP.Chemscore.Internal.Correction>
1.6089

> <Gold.Rescore>
     Score         DG    S(hbond)    S(metal)    S(lipo)     H(rot)  DE(clash)    DE(int)     intcor
     14.42     -16.32       1.80        0.00     123.62       3.76       0.11       1.79       ----

> <Gold.Chemscore.Fitness>
14.4228

> <Gold.Chemscore.DG>
-16.3243

> <Gold.Chemscore.ZeroCoef>
-5.4800

> <Gold.Chemscore.Hbond>
1.8017

> <Gold.Chemscore.Metal>
0.0000

> <Gold.Chemscore.Lipo>
123.6210

> <Gold.Chemscore.Internal_Hbond>
0.0000

> <Gold.Chemscore.DEClash>
0.1087

> <Gold.Chemscore.DEInternal>
1.7929

> <Gold.Chemscore.Rot>
3.7644

> <Gold.Chemscore.Internal.Correction>
   9.000000E+99

> <Gold.Chemscore.Hbonds>
donor molecule, donor type, donor heavy atom, donor atom, acceptor molecule, acceptor atom, score
      P1  H  6896  6907       L1    15  0.02
      P1  H  7989  7998       L1     1  0.09

> <Gold.Chemscore.Hbond.Weighted>
-6.0176

> <Gold.Chemscore.Metal.Weighted>
-0.0000

> <Gold.Chemscore.Lipo.Weighted>
-14.4637

> <Gold.Chemscore.Internal_Hbond.Weighted>
0.0000

> <Gold.Chemscore.DEClash.Weighted>
0.1087

> <Gold.Chemscore.DEInternal.Weighted>
1.7929

> <Gold.Chemscore.Rot.Weighted>
9.6369

> <Gold.Chemscore.Internal.Correction.Weighted>
   9.000000E+99

> <Gold.Protein.RotatedTorsions>
[ 6907 6896 6895 6894 ] final  -36.11 input  -60.11 | X-H torsion
[ 7974 7965 7964 7962 ] final  -56.16 input  175.53 | X-H torsion
[ 8008 7997 7996 7995 ] final   75.15 input   59.86 | X-H torsion
[ 10167 10162 10161 10158 ] final -138.08 input  -65.29 | X-H torsion
[ 10718 10713 10712 10709 ] final  137.01 input   66.30 | X-H torsion
[ 10763 10752 10751 10750 ] final   25.10 input  -60.55 | X-H torsion
[ 11005 11000 10999 10996 ] final -104.68 input  -57.11 | X-H torsion

> <Gold.Protein.ActiveResidues>
 VAL166  LYS551  ARG553  GLY616  TRP617  ASP618  TYR619  PRO620  LYS621  CYS622 
 ASP623  PHE694  ASN695  SER759  ASP760  ASP761  ALA762  ILE779  LEU786  VAL792 
 PHE793  MET794  SER795  GLU796  ALA797  LYS798  CYS799  TRP800  GLU811  SER814 

> <Gold.Protein.RotatedAtoms>
  151.0313  134.9541  159.8112 H   0  0  0  0  0  0  0  0  0  0  0  0  # atno 6907 bound_to 6896
  152.5346  134.2777  159.9005 H   0  0  0  0  0  0  0  0  0  0  0  0  # atno 6908 bound_to 6896
  151.2786  133.4178  159.2659 H   0  0  0  0  0  0  0  0  0  0  0  0  # atno 6909 bound_to 6896
  145.8659  140.8251  142.9913 H   0  0  0  0  0  0  0  0  0  0  0  0  # atno 7974 bound_to 7965
  155.8088  140.3474  155.5445 H   0  0  0  0  0  0  0  0  0  0  0  0  # atno 8008 bound_to 7997
  155.8463  140.0949  157.1723 H   0  0  0  0  0  0  0  0  0  0  0  0  # atno 8009 bound_to 7997
  154.4006  140.1385  156.3777 H   0  0  0  0  0  0  0  0  0  0  0  0  # atno 8010 bound_to 7997
  139.8513  143.7194  152.2657 H   0  0  0  0  0  0  0  0  0  0  0  0  # atno 10167 bound_to 10162
  157.4406  131.1057  151.0147 H   0  0  0  0  0  0  0  0  0  0  0  0  # atno 10718 bound_to 10713
  153.0716  135.6590  154.0236 H   0  0  0  0  0  0  0  0  0  0  0  0  # atno 10763 bound_to 10752
  153.9880  135.2949  155.3416 H   0  0  0  0  0  0  0  0  0  0  0  0  # atno 10764 bound_to 10752
  154.7092  135.5212  153.8710 H   0  0  0  0  0  0  0  0  0  0  0  0  # atno 10765 bound_to 10752
  141.1089  133.8744  157.1641 H   0  0  0  0  0  0  0  0  0  0  0  0  # atno 11005 bound_to 11000
  144.6726  140.1166  143.7452 LP  0  0  0  0  0  0  0  0  0  0  0  0  # atno 17320 bound_to 7965
  145.9193  139.2536  143.1391 LP  0  0  0  0  0  0  0  0  0  0  0  0  # atno 17321 bound_to 7965
  139.7462  144.7546  151.0576 LP  0  0  0  0  0  0  0  0  0  0  0  0  # atno 17342 bound_to 10162
  140.7787  143.4913  150.9889 LP  0  0  0  0  0  0  0  0  0  0  0  0  # atno 17343 bound_to 10162
  157.1011  130.5982  149.5460 LP  0  0  0  0  0  0  0  0  0  0  0  0  # atno 17370 bound_to 10713
  155.9947  130.5012  150.7431 LP  0  0  0  0  0  0  0  0  0  0  0  0  # atno 17371 bound_to 10713
  139.9972  135.0042  157.0110 LP  0  0  0  0  0  0  0  0  0  0  0  0  # atno 17394 bound_to 11000
  140.4829  134.1271  155.7220 LP  0  0  0  0  0  0  0  0  0  0  0  0  # atno 17395 bound_to 11000

$$$$
