AV-unprocessed.smi:17|AV-procd|sdf|104|dock9
  -GOLD-   2262015263D 1   1.00000     0.00000
 Structure written by MMmdl.
 57 59  0  0  0  0  0  0  0  0  1 V2000
  154.6599  137.1430  163.1229 C   0  0  0  0  0  0  0  0  0  0  0  0
  154.6863  136.0341  162.0576 C   0  0  0  0  0  0  0  0  0  0  0  0
  155.0518  136.5115  160.7219 N   0  0  0  0  0  0  0  0  0  0  0  0
  154.5289  137.7146  160.3703 C   0  0  0  0  0  0  0  0  0  0  0  0
  155.2375  138.8229  160.7017 N   0  0  0  0  0  0  0  0  0  0  0  0
  154.7741  140.0372  160.3941 C   0  0  0  0  0  0  0  0  0  0  0  0
  153.6414  140.3641  159.7697 N   0  0  0  0  0  0  0  0  0  0  0  0
  152.9189  139.2548  159.4425 C   0  0  0  0  0  0  0  0  0  0  0  0
  153.2817  137.9033  159.7058 C   0  0  0  0  0  0  0  0  0  0  0  0
  152.2936  137.0502  159.2275 N   0  0  0  0  0  0  0  0  0  0  0  0
  151.4006  137.8492  158.7117 C   0  0  0  0  0  0  0  0  0  0  0  0
  151.7060  139.1891  158.7790 N   0  0  0  0  0  0  0  0  0  0  0  0
  150.8931  140.2878  158.2875 C   0  0  0  0  0  0  0  0  0  0  0  0
  151.5507  141.1115  157.1463 C   0  0  1  0  0  0  0  0  0  0  0  0
  150.6998  140.9695  155.8613 C   0  0  0  0  0  0  0  0  0  0  0  0
  151.2594  140.0202  154.9769 O   0  0  0  0  0  0  0  0  0  0  0  0
  151.7615  142.6087  157.5236 C   0  0  2  0  0  0  0  0  0  0  0  0
  152.8212  142.8623  158.5866 C   0  0  0  0  0  0  0  0  0  0  0  0
  152.4695  144.2612  159.0692 C   0  0  0  0  0  0  0  0  0  0  0  0
  151.0518  144.2758  159.0873 O   0  0  0  0  0  0  0  0  0  0  0  0
  150.5519  143.3190  158.1575 C   0  0  0  0  0  0  0  0  0  0  0  0
  155.1114  135.4941  159.6599 C   0  0  1  0  0  0  0  0  0  0  0  0
  155.7708  136.0112  158.3669 C   0  0  0  0  0  0  0  0  0  0  0  0
  155.7373  134.1555  160.1089 C   0  0  0  0  0  0  0  0  0  0  0  0
  155.2240  132.7590  159.0148 S   0  0  0  0  0  0  0  0  0  0  0  0
  156.0934  133.1706  157.4483 C   0  0  0  0  0  0  0  0  0  0  0  0
  155.7854  131.5049  159.5390 O   0  0  0  0  0  0  0  0  0  0  0  0
  153.7747  132.8616  158.7853 O   0  0  0  0  0  0  0  0  0  0  0  0
  154.4645  136.7216  164.1090 H   0  0  0  0  0  0  0  0  0  0  0  0
  153.8825  137.8815  162.9259 H   0  0  0  0  0  0  0  0  0  0  0  0
  155.6164  137.6647  163.1692 H   0  0  0  0  0  0  0  0  0  0  0  0
  155.4171  135.2850  162.3633 H   0  0  0  0  0  0  0  0  0  0  0  0
  153.7262  135.5206  162.0288 H   0  0  0  0  0  0  0  0  0  0  0  0
  155.4014  140.8646  160.6913 H   0  0  0  0  0  0  0  0  0  0  0  0
  150.4931  137.4805  158.2559 H   0  0  0  0  0  0  0  0  0  0  0  0
  149.9533  139.8491  157.9525 H   0  0  0  0  0  0  0  0  0  0  0  0
  150.6378  140.9428  159.1210 H   0  0  0  0  0  0  0  0  0  0  0  0
  152.5307  140.6840  156.9283 H   0  0  0  0  0  0  0  0  0  0  0  0
  149.6765  140.6799  156.1030 H   0  0  0  0  0  0  0  0  0  0  0  0
  150.6458  141.9072  155.3100 H   0  0  0  0  0  0  0  0  0  0  0  0
  150.8931  139.1720  155.1757 H   0  0  0  0  0  0  0  0  0  0  0  0
  152.0527  143.1616  156.6290 H   0  0  0  0  0  0  0  0  0  0  0  0
  152.7234  142.1485  159.4057 H   0  0  0  0  0  0  0  0  0  0  0  0
  153.8401  142.8091  158.2021 H   0  0  0  0  0  0  0  0  0  0  0  0
  152.8874  144.4886  160.0501 H   0  0  0  0  0  0  0  0  0  0  0  0
  152.8254  145.0115  158.3615 H   0  0  0  0  0  0  0  0  0  0  0  0
  149.9364  143.8179  157.4099 H   0  0  0  0  0  0  0  0  0  0  0  0
  149.9201  142.6201  158.7063 H   0  0  0  0  0  0  0  0  0  0  0  0
  154.0770  135.2709  159.3965 H   0  0  0  0  0  0  0  0  0  0  0  0
  155.6794  135.2781  157.5654 H   0  0  0  0  0  0  0  0  0  0  0  0
  156.8341  136.2074  158.5066 H   0  0  0  0  0  0  0  0  0  0  0  0
  155.3011  136.9305  158.0165 H   0  0  0  0  0  0  0  0  0  0  0  0
  156.8237  134.2155  160.0422 H   0  0  0  0  0  0  0  0  0  0  0  0
  155.5047  133.9074  161.1436 H   0  0  0  0  0  0  0  0  0  0  0  0
  155.8634  132.4144  156.6983 H   0  0  0  0  0  0  0  0  0  0  0  0
  157.1689  133.1904  157.6235 H   0  0  0  0  0  0  0  0  0  0  0  0
  155.7635  134.1462  157.0922 H   0  0  0  0  0  0  0  0  0  0  0  0
  1  2  1  0  0  0  0
  1 29  1  0  0  0  0
  1 30  1  0  0  0  0
  1 31  1  0  0  0  0
  2  3  1  0  0  0  0
  2 32  1  0  0  0  0
  2 33  1  0  0  0  0
  3  4  1  0  0  0  0
  3 22  1  0  0  0  0
  4  9  1  0  0  0  0
  4  5  2  0  0  0  0
  5  6  1  0  0  0  0
  6  7  2  0  0  0  0
  6 34  1  0  0  0  0
  7  8  1  0  0  0  0
  8 12  1  0  0  0  0
  8  9  2  0  0  0  0
  9 10  1  0  0  0  0
 10 11  2  0  0  0  0
 11 12  1  0  0  0  0
 11 35  1  0  0  0  0
 12 13  1  0  0  0  0
 13 14  1  0  0  0  0
 13 36  1  0  0  0  0
 13 37  1  0  0  0  0
 14 15  1  0  0  0  0
 14 17  1  0  0  0  0
 14 38  1  0  0  0  0
 15 16  1  0  0  0  0
 15 39  1  0  0  0  0
 15 40  1  0  0  0  0
 16 41  1  0  0  0  0
 17 21  1  0  0  0  0
 17 18  1  0  0  0  0
 17 42  1  0  0  0  0
 18 19  1  0  0  0  0
 18 43  1  0  0  0  0
 18 44  1  0  0  0  0
 19 20  1  0  0  0  0
 19 45  1  0  0  0  0
 19 46  1  0  0  0  0
 20 21  1  0  0  0  0
 21 47  1  0  0  0  0
 21 48  1  0  0  0  0
 22 23  1  0  0  0  0
 22 24  1  0  0  0  0
 22 49  1  0  0  0  0
 23 50  1  0  0  0  0
 23 51  1  0  0  0  0
 23 52  1  0  0  0  0
 24 25  1  0  0  0  0
 24 53  1  0  0  0  0
 24 54  1  0  0  0  0
 25 26  1  0  0  0  0
 25 27  2  0  0  0  0
 25 28  2  0  0  0  0
 26 55  1  0  0  0  0
 26 56  1  0  0  0  0
 26 57  1  0  0  0  0
M  END
> <s_m_source_file>
AV-unprocessed.smi

> <i_m_source_file_index>
17

> <i_lp_mmshare_version>
43012

> <i_f3d_flags>
0

> <s_epik_input>
W0NIM11TKD1PKSg9TylbQ0gyXVtDQEBIXShbQ0gzXSlOKFtDSDJdW0NIM10pYyhuW2NIXW4xKWMoYzEyKW5bY0hdbjJbQ0gyXVtDQEhdKFtDSDJdW09IXSlbQ0BASF0zW0NIMl1bQ0gyXU9bQ0gyXTM=

> <s_epik_cmdline>
J2VwaWtfcHl0aG9uJywgJy1waCcsICc3LjAnLCAnLXRuJywgJzgnLCAnLW1hJywgJzIwMCcsICctbWV0YWxfYmluZGluZycsICctaW1hZScsICc8aW5maWxlLm1hZT4nLCAnLW9tYWUnLCAnPG91dGZpbGUubWFlPic=

> <r_lp_tautomer_probability>
1

> <r_epik_Ionization_Penalty>
0.00119955

> <r_epik_Ionization_Penalty_Charging>
0

> <r_epik_Ionization_Penalty_Neutral>
0.00119955

> <r_epik_State_Penalty>
0.000665399

> <r_epik_Charging_Adjusted_Penalty>
0.000665399

> <i_epik_Tot_Q>
0

> <i_epik_Tot_abs_Q>
0

> <r_epik_Metal_State_Penalty>
-0

> <b_epik_Metal_Only>
0

> <s_lp_Force_Field>
OPLS_2005

> <r_lp_Energy>
33.8653

> <b_lp_Chiralities_Consistent>
1

> <s_lp_Variant>
AV-unprocessed.smi:17-6

> <Gold.Version>
5.8.1

> <Gold.Id.Protein>
6NUR|6NUR_protein|mol2

> <Gold.PLP.Fitness>
45.7939

> <Gold.PLP.PLP>
-40.5383

> <Gold.PLP.part.hbond>
-3.0000

> <Gold.PLP.part.metal>
0.0000

> <Gold.PLP.part.buried>
-7.7194

> <Gold.PLP.part.nonpolar>
-30.8279

> <Gold.PLP.part.repulsive>
0.1235

> <Gold.PLP.ligand.clash>
0.0000

> <Gold.PLP.ligand.torsion>
2.5184

> <Gold.PLP.Chemscore.Hbond>
3.0000

> <Gold.PLP.Chemscore.CHOScore>
0.0000

> <Gold.PLP.Chemscore.Metal>
0.0000

> <Gold.Chemscore.Hbonds>
donor molecule, donor type, donor heavy atom, donor atom, acceptor molecule, acceptor atom, score
      P1  H  6896  6908       L1    10  0.75
      P1  H  6896  6909       L1    28  1.00
      P1  H  7989  7998       L1    16  1.00

> <Gold.PLP.Chemscore.Internal.Correction>
1.2924

> <Gold.Rescore>
     Score         DG    S(hbond)    S(metal)    S(lipo)     H(rot)  DE(clash)    DE(int)     intcor
     12.76     -15.55       2.89        0.00      86.58       3.79       0.00       2.79       ----

> <Gold.Chemscore.Fitness>
12.7602

> <Gold.Chemscore.DG>
-15.5532

> <Gold.Chemscore.ZeroCoef>
-5.4800

> <Gold.Chemscore.Hbond>
2.8874

> <Gold.Chemscore.Metal>
0.0000

> <Gold.Chemscore.Lipo>
86.5823

> <Gold.Chemscore.Internal_Hbond>
0.0000

> <Gold.Chemscore.DEClash>
0.0000

> <Gold.Chemscore.DEInternal>
2.7930

> <Gold.Chemscore.Rot>
3.7894

> <Gold.Chemscore.Internal.Correction>
   9.000000E+99

> <Gold.Chemscore.Hbonds>
donor molecule, donor type, donor heavy atom, donor atom, acceptor molecule, acceptor atom, score
      P1  H  6896  6908       L1    10  0.70
      P1  H  6896  6909       L1    28  1.00
      P1  H  7989  7998       L1    16  0.60

> <Gold.Chemscore.Hbond.Weighted>
-9.6440

> <Gold.Chemscore.Metal.Weighted>
-0.0000

> <Gold.Chemscore.Lipo.Weighted>
-10.1301

> <Gold.Chemscore.Internal_Hbond.Weighted>
0.0000

> <Gold.Chemscore.DEClash.Weighted>
0.0000

> <Gold.Chemscore.DEInternal.Weighted>
2.7930

> <Gold.Chemscore.Rot.Weighted>
9.7010

> <Gold.Chemscore.Internal.Correction.Weighted>
   9.000000E+99

> <Gold.Protein.RotatedTorsions>
[ 6907 6896 6895 6894 ] final -114.67 input  -60.11 | X-H torsion
[ 7974 7965 7964 7962 ] final  165.93 input  175.53 | X-H torsion
[ 8008 7997 7996 7995 ] final  144.71 input   59.86 | X-H torsion
[ 10167 10162 10161 10158 ] final  100.97 input  -65.29 | X-H torsion
[ 10718 10713 10712 10709 ] final   14.67 input   66.30 | X-H torsion
[ 10763 10752 10751 10750 ] final -136.09 input  -60.55 | X-H torsion
[ 11005 11000 10999 10996 ] final  -73.18 input  -57.11 | X-H torsion

> <Gold.Protein.ActiveResidues>
 VAL166  LYS551  ARG553  GLY616  TRP617  ASP618  TYR619  PRO620  LYS621  CYS622 
 ASP623  PHE694  ASN695  SER759  ASP760  ASP761  ALA762  ILE779  LEU786  VAL792 
 PHE793  MET794  SER795  GLU796  ALA797  LYS798  CYS799  TRP800  GLU811  SER814 

> <Gold.Protein.RotatedAtoms>
  150.7920  133.8768  159.3274 H   0  0  0  0  0  0  0  0  0  0  0  0  # atno 6907 bound_to 6896
  151.6603  135.0988  160.0187 H   0  0  0  0  0  0  0  0  0  0  0  0  # atno 6908 bound_to 6896
  152.3995  133.6758  159.6340 H   0  0  0  0  0  0  0  0  0  0  0  0  # atno 6909 bound_to 6896
  144.7482  139.8542  143.6375 H   0  0  0  0  0  0  0  0  0  0  0  0  # atno 7974 bound_to 7965
  156.2901  140.2228  156.5098 H   0  0  0  0  0  0  0  0  0  0  0  0  # atno 8008 bound_to 7997
  154.7618  140.0473  157.1002 H   0  0  0  0  0  0  0  0  0  0  0  0  # atno 8009 bound_to 7997
  154.9981  140.3098  155.4882 H   0  0  0  0  0  0  0  0  0  0  0  0  # atno 8010 bound_to 7997
  139.7479  144.6992  151.0476 H   0  0  0  0  0  0  0  0  0  0  0  0  # atno 10167 bound_to 10162
  157.0425  130.6237  149.5753 H   0  0  0  0  0  0  0  0  0  0  0  0  # atno 10718 bound_to 10713
  154.8690  135.3683  154.5005 H   0  0  0  0  0  0  0  0  0  0  0  0  # atno 10763 bound_to 10752
  153.5646  135.7022  153.5537 H   0  0  0  0  0  0  0  0  0  0  0  0  # atno 10764 bound_to 10752
  153.3597  135.4050  155.1672 H   0  0  0  0  0  0  0  0  0  0  0  0  # atno 10765 bound_to 10752
  141.1619  133.6870  156.7173 H   0  0  0  0  0  0  0  0  0  0  0  0  # atno 11005 bound_to 11000
  146.1394  139.4448  143.0118 LP  0  0  0  0  0  0  0  0  0  0  0  0  # atno 17320 bound_to 7965
  145.7041  141.0127  143.1488 LP  0  0  0  0  0  0  0  0  0  0  0  0  # atno 17321 bound_to 7965
  140.7794  143.4844  150.9975 LP  0  0  0  0  0  0  0  0  0  0  0  0  # atno 17342 bound_to 10162
  139.8532  143.7411  152.3177 LP  0  0  0  0  0  0  0  0  0  0  0  0  # atno 17343 bound_to 10162
  156.0033  130.5116  150.7743 LP  0  0  0  0  0  0  0  0  0  0  0  0  # atno 17370 bound_to 10713
  157.5093  131.0924  151.0217 LP  0  0  0  0  0  0  0  0  0  0  0  0  # atno 17371 bound_to 10713
  140.2843  134.8292  157.3960 LP  0  0  0  0  0  0  0  0  0  0  0  0  # atno 17394 bound_to 11000
  140.1405  134.4978  155.8035 LP  0  0  0  0  0  0  0  0  0  0  0  0  # atno 17395 bound_to 11000

$$$$
