AV-unprocessed.smi:1436|AV-procd|sdf|5859|dock5
  -GOLD-   22720 5533D 1   1.00000     0.00000
 Structure written by MMmdl.
 43 44  0  0  0  0  0  0  0  0  1 V2000
  148.8289  135.7324  155.5450 C   0  0  0  0  0  0  0  0  0  0  0  0
  150.0891  136.4748  155.2061 C   0  0  0  0  0  0  0  0  0  0  0  0
  151.2484  135.8414  155.2599 N   0  0  0  0  0  0  0  0  0  0  0  0
  152.2180  136.7887  154.9197 O   0  0  0  0  0  0  0  0  0  0  0  0
  151.5980  137.9705  154.6742 C   0  0  0  0  0  0  0  0  0  0  0  0
  152.4815  139.1168  154.3155 C   0  0  0  0  0  0  0  0  0  0  0  0
  150.2450  137.8422  154.8354 C   0  0  0  0  0  0  0  0  0  0  0  0
  149.1695  138.8910  154.6880 C   0  0  0  0  0  0  0  0  0  0  0  0
  149.5854  140.1591  155.4340 C   0  0  0  0  0  0  0  0  0  0  0  0
  149.6755  141.2283  154.8314 O   0  0  0  0  0  0  0  0  0  0  0  0
  149.8110  140.0272  156.7507 N   0  0  0  0  0  0  0  0  0  0  0  0
  150.0876  141.1149  157.6842 C   0  0  2  0  0  0  0  0  0  0  0  0
  148.8106  141.9253  157.9529 C   0  0  0  0  0  0  0  0  0  0  0  0
  151.2842  141.9916  157.2341 C   0  0  0  0  0  0  0  0  0  0  0  0
  152.0328  142.6953  158.2822 N   0  0  0  0  0  0  0  0  0  0  0  0
  151.2820  143.8548  158.7551 C   0  0  0  0  0  0  0  0  0  0  0  0
  152.0298  144.6210  159.8592 C   0  0  0  0  0  0  0  0  0  0  0  0
  152.3096  143.7394  160.9408 O   0  0  0  0  0  0  0  0  0  0  0  0
  153.0859  142.6158  160.5408 C   0  0  0  0  0  0  0  0  0  0  0  0
  152.3538  141.8462  159.4285 C   0  0  0  0  0  0  0  0  0  0  0  0
  148.6618  135.7247  156.6222 H   0  0  0  0  0  0  0  0  0  0  0  0
  148.8718  134.6970  155.2056 H   0  0  0  0  0  0  0  0  0  0  0  0
  147.9589  136.1947  155.0789 H   0  0  0  0  0  0  0  0  0  0  0  0
  153.2039  139.3061  155.1096 H   0  0  0  0  0  0  0  0  0  0  0  0
  151.9052  140.0290  154.1628 H   0  0  0  0  0  0  0  0  0  0  0  0
  153.0328  138.9078  153.3987 H   0  0  0  0  0  0  0  0  0  0  0  0
  148.9878  139.1417  153.6427 H   0  0  0  0  0  0  0  0  0  0  0  0
  148.2161  138.5378  155.0824 H   0  0  0  0  0  0  0  0  0  0  0  0
  149.7176  139.1049  157.1506 H   0  0  0  0  0  0  0  0  0  0  0  0
  150.3697  140.6513  158.6313 H   0  0  0  0  0  0  0  0  0  0  0  0
  148.9984  142.7223  158.6727 H   0  0  0  0  0  0  0  0  0  0  0  0
  148.0229  141.2912  158.3612 H   0  0  0  0  0  0  0  0  0  0  0  0
  148.4264  142.3836  157.0410 H   0  0  0  0  0  0  0  0  0  0  0  0
  151.9761  141.3213  156.7222 H   0  0  0  0  0  0  0  0  0  0  0  0
  150.9622  142.7019  156.4711 H   0  0  0  0  0  0  0  0  0  0  0  0
  151.0832  144.5314  157.9232 H   0  0  0  0  0  0  0  0  0  0  0  0
  150.3102  143.5361  159.1357 H   0  0  0  0  0  0  0  0  0  0  0  0
  152.9585  145.0461  159.4753 H   0  0  0  0  0  0  0  0  0  0  0  0
  151.4232  145.4504  160.2229 H   0  0  0  0  0  0  0  0  0  0  0  0
  154.0672  142.9470  160.1979 H   0  0  0  0  0  0  0  0  0  0  0  0
  153.2497  141.9685  161.4026 H   0  0  0  0  0  0  0  0  0  0  0  0
  151.4401  141.4083  159.8327 H   0  0  0  0  0  0  0  0  0  0  0  0
  152.9932  141.0214  159.1210 H   0  0  0  0  0  0  0  0  0  0  0  0
  1  2  1  0  0  0  0
  1 21  1  0  0  0  0
  1 22  1  0  0  0  0
  1 23  1  0  0  0  0
  2  7  1  0  0  0  0
  2  3  2  0  0  0  0
  3  4  1  0  0  0  0
  4  5  1  0  0  0  0
  5  6  1  0  0  0  0
  5  7  2  0  0  0  0
  6 24  1  0  0  0  0
  6 25  1  0  0  0  0
  6 26  1  0  0  0  0
  7  8  1  0  0  0  0
  8  9  1  0  0  0  0
  8 27  1  0  0  0  0
  8 28  1  0  0  0  0
  9 10  2  0  0  0  0
  9 11  1  0  0  0  0
 11 12  1  0  0  0  0
 11 29  1  0  0  0  0
 12 13  1  0  0  0  0
 12 14  1  0  0  0  0
 12 30  1  0  0  0  0
 13 31  1  0  0  0  0
 13 32  1  0  0  0  0
 13 33  1  0  0  0  0
 14 15  1  0  0  0  0
 14 34  1  0  0  0  0
 14 35  1  0  0  0  0
 15 20  1  0  0  0  0
 15 16  1  0  0  0  0
 16 17  1  0  0  0  0
 16 36  1  0  0  0  0
 16 37  1  0  0  0  0
 17 18  1  0  0  0  0
 17 38  1  0  0  0  0
 17 39  1  0  0  0  0
 18 19  1  0  0  0  0
 19 20  1  0  0  0  0
 19 40  1  0  0  0  0
 19 41  1  0  0  0  0
 20 42  1  0  0  0  0
 20 43  1  0  0  0  0
M  END
> <s_m_source_file>
AV-unprocessed.smi

> <i_m_source_file_index>
1436

> <i_lp_mmshare_version>
43012

> <i_f3d_flags>
0

> <s_epik_input>
W0NIM11jMW5vYyhbQ0gzXSljMVtDSDJdQyg9TylbTkhdW0NASF0oW0NIM10pW0NIMl1OMltDSDJdW0NIMl1PW0NIMl1bQ0gyXTI=

> <s_epik_cmdline>
J2VwaWtfcHl0aG9uJywgJy1waCcsICc3LjAnLCAnLXRuJywgJzgnLCAnLW1hJywgJzIwMCcsICctbWV0YWxfYmluZGluZycsICctaW1hZScsICc8aW5maWxlLm1hZT4nLCAnLW9tYWUnLCAnPG91dGZpbGUubWFlPic=

> <r_epik_Ionization_Penalty>
0.234179

> <r_epik_Ionization_Penalty_Charging>
0

> <r_epik_Ionization_Penalty_Neutral>
0.234179

> <r_epik_State_Penalty>
0.224936

> <r_epik_Charging_Adjusted_Penalty>
0.224936

> <i_epik_Tot_Q>
0

> <i_epik_Tot_abs_Q>
0

> <r_epik_Metal_State_Penalty>
0.224936

> <b_epik_Metal_Only>
0

> <s_lp_Force_Field>
OPLS_2005

> <r_lp_Energy>
20.5604

> <b_lp_Chiralities_Consistent>
1

> <s_lp_Variant>
AV-unprocessed.smi:1436-1

> <Gold.Version>
5.8.1

> <Gold.Id.Protein>
6NUR|6NUR_protein|mol2

> <Gold.PLP.Fitness>
37.5926

> <Gold.PLP.PLP>
-34.0793

> <Gold.PLP.part.hbond>
-2.2082

> <Gold.PLP.part.metal>
0.0000

> <Gold.PLP.part.buried>
-5.3731

> <Gold.PLP.part.nonpolar>
-27.2148

> <Gold.PLP.part.repulsive>
0.4342

> <Gold.PLP.ligand.clash>
0.0000

> <Gold.PLP.ligand.torsion>
0.5862

> <Gold.PLP.Chemscore.Hbond>
1.5440

> <Gold.PLP.Chemscore.CHOScore>
0.0000

> <Gold.PLP.Chemscore.Metal>
0.0000

> <Gold.Chemscore.Hbonds>
donor molecule, donor type, donor heavy atom, donor atom, acceptor molecule, acceptor atom, score
      P1  H  7989  7998       L1    10  0.08
      P1  H 10752 10763       L1     4  0.03

> <Gold.PLP.Chemscore.Internal.Correction>
0.0538

> <Gold.Rescore>
     Score         DG    S(hbond)    S(metal)    S(lipo)     H(rot)  DE(clash)    DE(int)     intcor
     14.57     -16.59       1.62        0.00      86.30       1.71       0.07       1.94       ----

> <Gold.Chemscore.Fitness>
14.5698

> <Gold.Chemscore.DG>
-16.5888

> <Gold.Chemscore.ZeroCoef>
-5.4800

> <Gold.Chemscore.Hbond>
1.6169

> <Gold.Chemscore.Metal>
0.0000

> <Gold.Chemscore.Lipo>
86.3026

> <Gold.Chemscore.Internal_Hbond>
0.0000

> <Gold.Chemscore.DEClash>
0.0750

> <Gold.Chemscore.DEInternal>
1.9441

> <Gold.Chemscore.Rot>
1.7145

> <Gold.Chemscore.Internal.Correction>
   9.000000E+99

> <Gold.Chemscore.Hbonds>
donor molecule, donor type, donor heavy atom, donor atom, acceptor molecule, acceptor atom, score
      P1  H  7989  7998       L1    10  0.03

> <Gold.Chemscore.Hbond.Weighted>
-5.4005

> <Gold.Chemscore.Metal.Weighted>
-0.0000

> <Gold.Chemscore.Lipo.Weighted>
-10.0974

> <Gold.Chemscore.Internal_Hbond.Weighted>
0.0000

> <Gold.Chemscore.DEClash.Weighted>
0.0750

> <Gold.Chemscore.DEInternal.Weighted>
1.9441

> <Gold.Chemscore.Rot.Weighted>
4.3891

> <Gold.Chemscore.Internal.Correction.Weighted>
   9.000000E+99

> <Gold.Protein.RotatedTorsions>
[ 6907 6896 6895 6894 ] final -136.20 input  -60.11 | X-H torsion
[ 7974 7965 7964 7962 ] final  -16.47 input  175.53 | X-H torsion
[ 8008 7997 7996 7995 ] final -165.05 input   59.86 | X-H torsion
[ 10167 10162 10161 10158 ] final  -79.67 input  -65.29 | X-H torsion
[ 10718 10713 10712 10709 ] final   83.22 input   66.30 | X-H torsion
[ 10763 10752 10751 10750 ] final   62.57 input  -60.55 | X-H torsion
[ 11005 11000 10999 10996 ] final  -87.94 input  -57.11 | X-H torsion

> <Gold.Protein.ActiveResidues>
 VAL166  LYS551  ARG553  GLY616  TRP617  ASP618  TYR619  PRO620  LYS621  CYS622 
 ASP623  PHE694  ASN695  SER759  ASP760  ASP761  ALA762  ILE779  LEU786  VAL792 
 PHE793  MET794  SER795  GLU796  ALA797  LYS798  CYS799  TRP800  GLU811  SER814 

> <Gold.Protein.RotatedAtoms>
  151.0071  133.6000  159.2687 H   0  0  0  0  0  0  0  0  0  0  0  0  # atno 6907 bound_to 6896
  151.3165  135.0807  159.9300 H   0  0  0  0  0  0  0  0  0  0  0  0  # atno 6908 bound_to 6896
  152.5290  133.9727  159.7823 H   0  0  0  0  0  0  0  0  0  0  0  0  # atno 6909 bound_to 6896
  146.1986  140.3641  142.8431 H   0  0  0  0  0  0  0  0  0  0  0  0  # atno 7974 bound_to 7965
  155.8444  140.0953  157.1714 H   0  0  0  0  0  0  0  0  0  0  0  0  # atno 8008 bound_to 7997
  154.3983  140.1395  156.3829 H   0  0  0  0  0  0  0  0  0  0  0  0  # atno 8009 bound_to 7997
  155.8030  140.3452  155.5416 H   0  0  0  0  0  0  0  0  0  0  0  0  # atno 8010 bound_to 7997
  140.4572  143.2464  151.8402 H   0  0  0  0  0  0  0  0  0  0  0  0  # atno 10167 bound_to 10162
  157.6874  131.0081  150.2491 H   0  0  0  0  0  0  0  0  0  0  0  0  # atno 10718 bound_to 10713
  152.9987  135.5460  154.6214 H   0  0  0  0  0  0  0  0  0  0  0  0  # atno 10763 bound_to 10752
  154.5513  135.2827  155.1008 H   0  0  0  0  0  0  0  0  0  0  0  0  # atno 10764 bound_to 10752
  154.2247  135.6444  153.5208 H   0  0  0  0  0  0  0  0  0  0  0  0  # atno 10765 bound_to 10752
  141.1609  133.7540  156.9379 H   0  0  0  0  0  0  0  0  0  0  0  0  # atno 11005 bound_to 11000
  144.8633  140.7171  143.6093 LP  0  0  0  0  0  0  0  0  0  0  0  0  # atno 17320 bound_to 7965
  145.3561  139.1693  143.4408 LP  0  0  0  0  0  0  0  0  0  0  0  0  # atno 17321 bound_to 7965
  139.4802  144.5051  151.9009 LP  0  0  0  0  0  0  0  0  0  0  0  0  # atno 17342 bound_to 10162
  140.4137  144.2335  150.5888 LP  0  0  0  0  0  0  0  0  0  0  0  0  # atno 17343 bound_to 10162
  156.3091  130.3769  149.7678 LP  0  0  0  0  0  0  0  0  0  0  0  0  # atno 17370 bound_to 10713
  156.5285  130.8247  151.3228 LP  0  0  0  0  0  0  0  0  0  0  0  0  # atno 17371 bound_to 10713
  140.1342  134.9336  157.2378 LP  0  0  0  0  0  0  0  0  0  0  0  0  # atno 17394 bound_to 11000
  140.2916  134.3234  155.7313 LP  0  0  0  0  0  0  0  0  0  0  0  0  # atno 17395 bound_to 11000

$$$$
