AV-unprocessed.smi:2061|AV-procd|sdf|8368|dock8
  -GOLD-   2272011 43D 1   1.00000     0.00000
 Structure written by MMmdl.
 46 47  0  0  0  0  0  0  0  0  2 V2000
  153.4861  141.2930  160.2557 C   0  0  0  0  0  0  0  0  0  0  0  0
  152.5561  141.8969  159.2600 C   0  0  0  0  0  0  0  0  0  0  0  0
  151.8954  141.3891  158.1773 C   0  0  0  0  0  0  0  0  0  0  0  0
  151.1839  142.5194  157.6789 C   0  0  0  0  0  0  0  0  0  0  0  0
  150.3266  142.5420  156.5485 N   0  0  0  0  0  0  0  0  0  0  0  0
  150.0487  141.5452  155.6913 C   0  0  0  0  0  0  0  0  0  0  0  0
  150.4998  140.4018  155.7554 O   0  0  0  0  0  0  0  0  0  0  0  0
  149.1991  141.9507  154.7355 N   0  0  0  0  0  0  0  0  0  0  0  0
  148.7289  141.1364  153.6165 C   0  0  0  0  0  0  0  0  0  0  0  0
  147.2012  141.2637  153.3533 C   0  0  2  0  0  0  0  0  0  0  0  0
  146.6110  142.4643  154.1344 C   0  0  0  0  0  0  0  0  0  0  0  0
  146.4649  139.9891  153.6602 N   0  3  1  0  0  0  0  0  0  0  0  0
  147.0356  138.7915  152.9804 C   0  0  0  0  0  0  0  0  0  0  0  0
  146.2416  137.5073  153.2893 C   0  0  2  0  0  0  0  0  0  0  0  0
  144.8841  137.4306  152.5663 C   0  0  0  0  0  0  0  0  0  0  0  0
  146.1218  137.3291  154.6964 O   0  0  0  0  0  0  0  0  0  0  0  0
  145.5127  138.4216  155.3710 C   0  0  1  0  0  0  0  0  0  0  0  0
  145.4507  138.0719  156.8619 C   0  0  0  0  0  0  0  0  0  0  0  0
  146.3197  139.7073  155.1157 C   0  0  0  0  0  0  0  0  0  0  0  0
  151.3914  143.6081  158.3965 N   0  0  0  0  0  0  0  0  0  0  0  0
  152.2725  143.2185  159.4118 O   0  0  0  0  0  0  0  0  0  0  0  0
  153.5379  140.2109  160.1343 H   0  0  0  0  0  0  0  0  0  0  0  0
  153.1540  141.5032  161.2725 H   0  0  0  0  0  0  0  0  0  0  0  0
  154.4924  141.6952  160.1376 H   0  0  0  0  0  0  0  0  0  0  0  0
  151.9281  140.3724  157.8159 H   0  0  0  0  0  0  0  0  0  0  0  0
  149.8865  143.4310  156.3618 H   0  0  0  0  0  0  0  0  0  0  0  0
  148.8762  142.9071  154.7662 H   0  0  0  0  0  0  0  0  0  0  0  0
  149.3019  141.5017  152.7663 H   0  0  0  0  0  0  0  0  0  0  0  0
  149.0046  140.0885  153.7477 H   0  0  0  0  0  0  0  0  0  0  0  0
  147.0689  141.4677  152.2895 H   0  0  0  0  0  0  0  0  0  0  0  0
  147.1657  143.3838  153.9544 H   0  0  0  0  0  0  0  0  0  0  0  0
  146.6196  142.2809  155.2094 H   0  0  0  0  0  0  0  0  0  0  0  0
  145.5907  142.6980  153.8360 H   0  0  0  0  0  0  0  0  0  0  0  0
  147.0486  138.9106  151.8990 H   0  0  0  0  0  0  0  0  0  0  0  0
  148.0717  138.6657  153.2991 H   0  0  0  0  0  0  0  0  0  0  0  0
  146.8315  136.6624  152.9328 H   0  0  0  0  0  0  0  0  0  0  0  0
  145.0232  137.4184  151.4850 H   0  0  0  0  0  0  0  0  0  0  0  0
  144.2406  138.2789  152.7980 H   0  0  0  0  0  0  0  0  0  0  0  0
  144.3501  136.5197  152.8383 H   0  0  0  0  0  0  0  0  0  0  0  0
  144.4908  138.5544  155.0157 H   0  0  0  0  0  0  0  0  0  0  0  0
  144.9831  138.8729  157.4354 H   0  0  0  0  0  0  0  0  0  0  0  0
  146.4481  137.9057  157.2706 H   0  0  0  0  0  0  0  0  0  0  0  0
  144.8689  137.1644  157.0249 H   0  0  0  0  0  0  0  0  0  0  0  0
  147.3084  139.6348  155.5721 H   0  0  0  0  0  0  0  0  0  0  0  0
  145.7869  140.5115  155.6188 H   0  0  0  0  0  0  0  0  0  0  0  0
  145.5290  140.1054  153.2984 H   0  0  0  0  0  0  0  0  0  0  0  0
  1  2  1  0  0  0  0
  1 22  1  0  0  0  0
  1 23  1  0  0  0  0
  1 24  1  0  0  0  0
  2 21  1  0  0  0  0
  2  3  2  0  0  0  0
  3  4  1  0  0  0  0
  3 25  1  0  0  0  0
  4  5  1  0  0  0  0
  4 20  2  0  0  0  0
  5  6  1  0  0  0  0
  5 26  1  0  0  0  0
  6  7  2  0  0  0  0
  6  8  1  0  0  0  0
  8  9  1  0  0  0  0
  8 27  1  0  0  0  0
  9 10  1  0  0  0  0
  9 28  1  0  0  0  0
  9 29  1  0  0  0  0
 10 11  1  0  0  0  0
 10 12  1  0  0  0  0
 10 30  1  0  0  0  0
 11 31  1  0  0  0  0
 11 32  1  0  0  0  0
 11 33  1  0  0  0  0
 12 19  1  0  0  0  0
 12 13  1  0  0  0  0
 12 46  1  0  0  0  0
 13 14  1  0  0  0  0
 13 34  1  0  0  0  0
 13 35  1  0  0  0  0
 14 15  1  0  0  0  0
 14 16  1  0  0  0  0
 14 36  1  0  0  0  0
 15 37  1  0  0  0  0
 15 38  1  0  0  0  0
 15 39  1  0  0  0  0
 16 17  1  0  0  0  0
 17 18  1  0  0  0  0
 17 19  1  0  0  0  0
 17 40  1  0  0  0  0
 18 41  1  0  0  0  0
 18 42  1  0  0  0  0
 18 43  1  0  0  0  0
 19 44  1  0  0  0  0
 19 45  1  0  0  0  0
 20 21  1  0  0  0  0
M  CHG  1  12   1
M  END
> <s_m_source_file>
AV-unprocessed.smi

> <i_m_source_file_index>
2061

> <i_lp_mmshare_version>
43012

> <i_f3d_flags>
0

> <s_epik_input>
W0NIM11jMVtjSF1jKG5vMSlbTkhdQyg9TylbTkhdW0NIMl1bQ0BIXShbQ0gzXSlOMltDSDJdW0NAQEhdKFtDSDNdKU9bQ0BASF0oW0NIM10pW0NIMl0y

> <s_epik_cmdline>
J2VwaWtfcHl0aG9uJywgJy1waCcsICc3LjAnLCAnLXRuJywgJzgnLCAnLW1hJywgJzIwMCcsICctbWV0YWxfYmluZGluZycsICctaW1hZScsICc8aW5maWxlLm1hZT4nLCAnLW9tYWUnLCAnPG91dGZpbGUubWFlPic=

> <r_epik_Ionization_Penalty>
0.707076

> <r_epik_Ionization_Penalty_Charging>
0.707039

> <r_epik_Ionization_Penalty_Neutral>
3.6548e-05

> <r_epik_State_Penalty>
0.730276

> <r_epik_Charging_Adjusted_Penalty>
1.43732

> <i_epik_Tot_Q>
1

> <i_epik_Tot_abs_Q>
1

> <r_epik_Metal_State_Penalty>
0.743132

> <b_epik_Metal_Only>
0

> <s_lp_Force_Field>
OPLS_2005

> <r_lp_Energy>
23.7206

> <b_lp_Chiralities_Consistent>
1

> <s_lp_Variant>
AV-unprocessed.smi:2061-9

> <Gold.Version>
5.8.1

> <Gold.Id.Protein>
6NUR|6NUR_protein|mol2

> <Gold.PLP.Fitness>
40.0034

> <Gold.PLP.PLP>
-31.3115

> <Gold.PLP.part.hbond>
-2.9946

> <Gold.PLP.part.metal>
0.0000

> <Gold.PLP.part.buried>
-2.7812

> <Gold.PLP.part.nonpolar>
-25.4434

> <Gold.PLP.part.repulsive>
0.6347

> <Gold.PLP.ligand.clash>
1.5834

> <Gold.PLP.ligand.torsion>
0.8780

> <Gold.PLP.Chemscore.Hbond>
3.9920

> <Gold.PLP.Chemscore.CHOScore>
0.0000

> <Gold.PLP.Chemscore.Metal>
0.0000

> <Gold.Chemscore.Hbonds>
donor molecule, donor type, donor heavy atom, donor atom, acceptor molecule, acceptor atom, score
      L1  H     5    26       P1  8028  1.00
      L1  H     8    27       P1  8028  1.00
      L1  H    12    46       P1 10175  1.89

> <Gold.PLP.Chemscore.Internal.Correction>
0.0554

> <Gold.Rescore>
     Score         DG    S(hbond)    S(metal)    S(lipo)     H(rot)  DE(clash)    DE(int)     intcor
     16.52     -18.67       2.95        0.00      63.33       1.58       0.12       2.04       ----

> <Gold.Chemscore.Fitness>
16.5164

> <Gold.Chemscore.DG>
-18.6728

> <Gold.Chemscore.ZeroCoef>
-5.4800

> <Gold.Chemscore.Hbond>
2.9451

> <Gold.Chemscore.Metal>
0.0000

> <Gold.Chemscore.Lipo>
63.3315

> <Gold.Chemscore.Internal_Hbond>
0.0000

> <Gold.Chemscore.DEClash>
0.1160

> <Gold.Chemscore.DEInternal>
2.0404

> <Gold.Chemscore.Rot>
1.5834

> <Gold.Chemscore.Internal.Correction>
   9.000000E+99

> <Gold.Chemscore.Hbonds>
donor molecule, donor type, donor heavy atom, donor atom, acceptor molecule, acceptor atom, score
      L1  H     5    26       P1  8028  1.00
      L1  H     8    27       P1  8028  0.92
      L1  H    12    46       P1 10175  0.90

> <Gold.Chemscore.Hbond.Weighted>
-9.8365

> <Gold.Chemscore.Metal.Weighted>
-0.0000

> <Gold.Chemscore.Lipo.Weighted>
-7.4098

> <Gold.Chemscore.Internal_Hbond.Weighted>
0.0000

> <Gold.Chemscore.DEClash.Weighted>
0.1160

> <Gold.Chemscore.DEInternal.Weighted>
2.0404

> <Gold.Chemscore.Rot.Weighted>
4.0535

> <Gold.Chemscore.Internal.Correction.Weighted>
   9.000000E+99

> <Gold.Protein.RotatedTorsions>
[ 6907 6896 6895 6894 ] final -113.11 input  -60.11 | X-H torsion
[ 7974 7965 7964 7962 ] final -177.95 input  175.53 | X-H torsion
[ 8008 7997 7996 7995 ] final  -54.88 input   59.86 | X-H torsion
[ 10167 10162 10161 10158 ] final  -48.39 input  -65.29 | X-H torsion
[ 10718 10713 10712 10709 ] final  -59.96 input   66.30 | X-H torsion
[ 10763 10752 10751 10750 ] final   14.06 input  -60.55 | X-H torsion
[ 11005 11000 10999 10996 ] final   39.20 input  -57.11 | X-H torsion

> <Gold.Protein.ActiveResidues>
 VAL166  LYS551  ARG553  GLY616  TRP617  ASP618  TYR619  PRO620  LYS621  CYS622 
 ASP623  PHE694  ASN695  SER759  ASP760  ASP761  ALA762  ILE779  LEU786  VAL792 
 PHE793  MET794  SER795  GLU796  ALA797  LYS798  CYS799  TRP800  GLU811  SER814 

> <Gold.Protein.RotatedAtoms>
  150.7805  133.8993  159.3336 H   0  0  0  0  0  0  0  0  0  0  0  0  # atno 6907 bound_to 6896
  151.6857  135.0953  160.0234 H   0  0  0  0  0  0  0  0  0  0  0  0  # atno 6908 bound_to 6896
  152.3855  133.6567  159.6231 H   0  0  0  0  0  0  0  0  0  0  0  0  # atno 6909 bound_to 6896
  144.7129  140.0942  143.6420 H   0  0  0  0  0  0  0  0  0  0  0  0  # atno 7974 bound_to 7965
  154.4176  140.1166  156.5386 H   0  0  0  0  0  0  0  0  0  0  0  0  # atno 8008 bound_to 7997
  155.6531  140.3496  155.4736 H   0  0  0  0  0  0  0  0  0  0  0  0  # atno 8009 bound_to 7997
  155.9776  140.1153  157.0746 H   0  0  0  0  0  0  0  0  0  0  0  0  # atno 8010 bound_to 7997
  140.6733  143.2742  151.4064 H   0  0  0  0  0  0  0  0  0  0  0  0  # atno 10167 bound_to 10162
  156.1024  130.4184  150.0787 H   0  0  0  0  0  0  0  0  0  0  0  0  # atno 10718 bound_to 10713
  153.1660  135.6804  153.8675 H   0  0  0  0  0  0  0  0  0  0  0  0  # atno 10763 bound_to 10752
  153.8055  135.3150  155.3396 H   0  0  0  0  0  0  0  0  0  0  0  0  # atno 10764 bound_to 10752
  154.7965  135.4804  154.0264 H   0  0  0  0  0  0  0  0  0  0  0  0  # atno 10765 bound_to 10752
  140.2051  134.3823  155.8076 H   0  0  0  0  0  0  0  0  0  0  0  0  # atno 11005 bound_to 11000
  145.9594  139.2789  143.1165 LP  0  0  0  0  0  0  0  0  0  0  0  0  # atno 17320 bound_to 7965
  145.9237  140.9097  143.0392 LP  0  0  0  0  0  0  0  0  0  0  0  0  # atno 17321 bound_to 7965
  139.6012  144.1292  152.2200 LP  0  0  0  0  0  0  0  0  0  0  0  0  # atno 17342 bound_to 10162
  140.0676  144.5805  150.7215 LP  0  0  0  0  0  0  0  0  0  0  0  0  # atno 17343 bound_to 10162
  156.8771  130.9544  151.3603 LP  0  0  0  0  0  0  0  0  0  0  0  0  # atno 17370 bound_to 10713
  157.6197  130.8645  149.9087 LP  0  0  0  0  0  0  0  0  0  0  0  0  # atno 17371 bound_to 10713
  141.2227  133.7114  156.8323 LP  0  0  0  0  0  0  0  0  0  0  0  0  # atno 17394 bound_to 11000
  140.2011  134.8896  157.3170 LP  0  0  0  0  0  0  0  0  0  0  0  0  # atno 17395 bound_to 11000

$$$$
