AV-unprocessed.smi:942|AV-procd|sdf|4227|dock2
  -GOLD-   22720 2133D 1   1.00000     0.00000
 Structure written by MMmdl.
 42 44  0  0  0  0  0  0  0  0  1 V2000
  152.3070  140.0969  156.4437 O   0  0  0  0  0  0  0  0  0  0  0  0
  151.4141  140.2893  157.2694 C   0  0  0  0  0  0  0  0  0  0  0  0
  150.2980  139.5488  157.3322 N   0  0  0  0  0  0  0  0  0  0  0  0
  150.0040  138.3837  156.4972 C   0  0  2  0  0  0  0  0  0  0  0  0
  151.2697  137.5225  156.2961 C   0  0  0  0  0  0  0  0  0  0  0  0
  151.6174  137.5886  154.8022 C   0  0  0  0  0  0  0  0  0  0  0  0
  150.8601  138.8012  154.2641 C   0  0  0  0  0  0  0  0  0  0  0  0
  149.5611  138.7957  155.0760 C   0  0  2  0  0  0  0  0  0  0  0  0
  148.7750  140.0250  155.0112 N   0  0  0  0  0  0  0  0  0  0  0  0
  148.9260  141.1092  154.1512 C   0  0  0  0  0  0  0  0  0  0  0  0
  147.9404  142.0131  154.4764 C   0  0  0  0  0  0  0  0  0  0  0  0
  147.1634  141.5068  155.5142 N   0  0  0  0  0  0  0  0  0  0  0  0
  147.7106  140.3261  155.7700 C   0  0  0  0  0  0  0  0  0  0  0  0
  151.5435  141.4109  158.3079 C   0  0  0  0  0  0  0  0  0  0  0  0
  151.5514  142.7996  157.6344 C   0  0  0  0  0  0  0  0  0  0  0  0
  151.6952  143.9228  158.6748 C   0  0  0  0  0  0  0  0  0  0  0  0
  152.9524  143.7272  159.5370 C   0  0  0  0  0  0  0  0  0  0  0  0
  152.9593  142.3430  160.2048 C   0  0  0  0  0  0  0  0  0  0  0  0
  152.8146  141.2220  159.1627 C   0  0  0  0  0  0  0  0  0  0  0  0
  149.6172  139.7813  158.0409 H   0  0  0  0  0  0  0  0  0  0  0  0
  149.2100  137.7973  156.9635 H   0  0  0  0  0  0  0  0  0  0  0  0
  152.1038  137.8950  156.8927 H   0  0  0  0  0  0  0  0  0  0  0  0
  151.0982  136.4908  156.6048 H   0  0  0  0  0  0  0  0  0  0  0  0
  152.6914  137.6573  154.6266 H   0  0  0  0  0  0  0  0  0  0  0  0
  151.2595  136.6864  154.3045 H   0  0  0  0  0  0  0  0  0  0  0  0
  151.4391  139.7029  154.4676 H   0  0  0  0  0  0  0  0  0  0  0  0
  150.6879  138.7433  153.1889 H   0  0  0  0  0  0  0  0  0  0  0  0
  148.9308  137.9986  154.6775 H   0  0  0  0  0  0  0  0  0  0  0  0
  149.6995  141.1578  153.3995 H   0  0  0  0  0  0  0  0  0  0  0  0
  147.7287  142.9793  154.0423 H   0  0  0  0  0  0  0  0  0  0  0  0
  147.3336  139.6655  156.5370 H   0  0  0  0  0  0  0  0  0  0  0  0
  150.6789  141.3632  158.9728 H   0  0  0  0  0  0  0  0  0  0  0  0
  152.3723  142.8671  156.9187 H   0  0  0  0  0  0  0  0  0  0  0  0
  150.6327  142.9464  157.0650 H   0  0  0  0  0  0  0  0  0  0  0  0
  151.7346  144.8907  158.1743 H   0  0  0  0  0  0  0  0  0  0  0  0
  150.8128  143.9419  159.3156 H   0  0  0  0  0  0  0  0  0  0  0  0
  153.8422  143.8365  158.9155 H   0  0  0  0  0  0  0  0  0  0  0  0
  153.0077  144.5072  160.2968 H   0  0  0  0  0  0  0  0  0  0  0  0
  153.8820  142.2081  160.7699 H   0  0  0  0  0  0  0  0  0  0  0  0
  152.1436  142.2795  160.9260 H   0  0  0  0  0  0  0  0  0  0  0  0
  152.7872  140.2558  159.6688 H   0  0  0  0  0  0  0  0  0  0  0  0
  153.6993  141.2104  158.5239 H   0  0  0  0  0  0  0  0  0  0  0  0
  1  2  2  0  0  0  0
  2  3  1  0  0  0  0
  2 14  1  0  0  0  0
  3  4  1  0  0  0  0
  3 20  1  0  0  0  0
  4  8  1  0  0  0  0
  4  5  1  0  0  0  0
  4 21  1  0  0  0  0
  5  6  1  0  0  0  0
  5 22  1  0  0  0  0
  5 23  1  0  0  0  0
  6  7  1  0  0  0  0
  6 24  1  0  0  0  0
  6 25  1  0  0  0  0
  7  8  1  0  0  0  0
  7 26  1  0  0  0  0
  7 27  1  0  0  0  0
  8  9  1  0  0  0  0
  8 28  1  0  0  0  0
  9 13  1  0  0  0  0
  9 10  1  0  0  0  0
 10 11  2  0  0  0  0
 10 29  1  0  0  0  0
 11 12  1  0  0  0  0
 11 30  1  0  0  0  0
 12 13  2  0  0  0  0
 13 31  1  0  0  0  0
 14 19  1  0  0  0  0
 14 15  1  0  0  0  0
 14 32  1  0  0  0  0
 15 16  1  0  0  0  0
 15 33  1  0  0  0  0
 15 34  1  0  0  0  0
 16 17  1  0  0  0  0
 16 35  1  0  0  0  0
 16 36  1  0  0  0  0
 17 18  1  0  0  0  0
 17 37  1  0  0  0  0
 17 38  1  0  0  0  0
 18 19  1  0  0  0  0
 18 39  1  0  0  0  0
 18 40  1  0  0  0  0
 19 41  1  0  0  0  0
 19 42  1  0  0  0  0
M  END
> <s_m_source_file>
AV-unprocessed.smi

> <i_m_source_file_index>
942

> <i_lp_mmshare_version>
43012

> <i_f3d_flags>
0

> <s_epik_input>
W0NIMl0xW0NIMl1bQ0gyXVtDSDJdW0NIMl1bQ0hdMUMoPU8pW05IXVtDQEBIXTJbQ0gyXVtDSDJdW0NIMl1bQ0BIXTJuM1tjSF1bY0hdbltjSF0z

> <s_epik_cmdline>
J2VwaWtfcHl0aG9uJywgJy1waCcsICc3LjAnLCAnLXRuJywgJzgnLCAnLW1hJywgJzIwMCcsICctbWV0YWxfYmluZGluZycsICctaW1hZScsICc8aW5maWxlLm1hZT4nLCAnLW9tYWUnLCAnPG91dGZpbGUubWFlPic=

> <r_lp_tautomer_probability>
1

> <r_epik_Ionization_Penalty>
0.778458

> <r_epik_Ionization_Penalty_Charging>
0.778458

> <r_epik_Ionization_Penalty_Neutral>
2.79355e-08

> <r_epik_State_Penalty>
0.807804

> <r_epik_Charging_Adjusted_Penalty>
1.58626

> <i_epik_Tot_Q>
0

> <i_epik_Tot_abs_Q>
0

> <r_epik_Metal_State_Penalty>
0.343007

> <b_epik_Metal_Only>
0

> <s_lp_Force_Field>
OPLS_2005

> <r_lp_Energy>
33.2669

> <b_lp_Chiralities_Consistent>
1

> <s_lp_Variant>
AV-unprocessed.smi:942-7

> <Gold.Version>
5.8.1

> <Gold.Id.Protein>
6NUR|6NUR_protein|mol2

> <Gold.PLP.Fitness>
40.0567

> <Gold.PLP.PLP>
-33.8532

> <Gold.PLP.part.hbond>
-1.0000

> <Gold.PLP.part.metal>
0.0000

> <Gold.PLP.part.buried>
-2.1574

> <Gold.PLP.part.nonpolar>
-30.5000

> <Gold.PLP.part.repulsive>
0.1202

> <Gold.PLP.ligand.clash>
0.0000

> <Gold.PLP.ligand.torsion>
0.5197

> <Gold.PLP.Chemscore.Hbond>
0.9913

> <Gold.PLP.Chemscore.CHOScore>
1.4156

> <Gold.PLP.Chemscore.Metal>
0.0000

> <Gold.Chemscore.Hbonds>
donor molecule, donor type, donor heavy atom, donor atom, acceptor molecule, acceptor atom, score
      P1  H  7997  8008       L1     1  1.00
      L1  C    10    29       P1  7957  0.92
      L1  C    11    30       P1  8028  0.44

> <Gold.PLP.Chemscore.Internal.Correction>
0.0222

> <Gold.Rescore>
     Score         DG    S(hbond)    S(metal)    S(lipo)     H(rot)  DE(clash)    DE(int)     intcor
     13.62     -17.88       0.97        0.00     109.73       1.44       0.52       3.75       ----

> <Gold.Chemscore.Fitness>
13.6169

> <Gold.Chemscore.DG>
-17.8832

> <Gold.Chemscore.ZeroCoef>
-5.4800

> <Gold.Chemscore.Hbond>
0.9731

> <Gold.Chemscore.Metal>
0.0000

> <Gold.Chemscore.Lipo>
109.7295

> <Gold.Chemscore.Internal_Hbond>
0.0000

> <Gold.Chemscore.DEClash>
0.5177

> <Gold.Chemscore.DEInternal>
3.7486

> <Gold.Chemscore.Rot>
1.4395

> <Gold.Chemscore.Internal.Correction>
   9.000000E+99

> <Gold.Chemscore.Hbonds>
donor molecule, donor type, donor heavy atom, donor atom, acceptor molecule, acceptor atom, score
      P1  H  7997  8008       L1     1  0.93

> <Gold.Chemscore.Hbond.Weighted>
-3.2501

> <Gold.Chemscore.Metal.Weighted>
-0.0000

> <Gold.Chemscore.Lipo.Weighted>
-12.8384

> <Gold.Chemscore.Internal_Hbond.Weighted>
0.0000

> <Gold.Chemscore.DEClash.Weighted>
0.5177

> <Gold.Chemscore.DEInternal.Weighted>
3.7486

> <Gold.Chemscore.Rot.Weighted>
3.6852

> <Gold.Chemscore.Internal.Correction.Weighted>
   9.000000E+99

> <Gold.Protein.RotatedTorsions>
[ 6907 6896 6895 6894 ] final  147.47 input  -60.11 | X-H torsion
[ 7974 7965 7964 7962 ] final    6.50 input  175.53 | X-H torsion
[ 8008 7997 7996 7995 ] final  -42.77 input   59.86 | X-H torsion
[ 10167 10162 10161 10158 ] final  161.34 input  -65.29 | X-H torsion
[ 10718 10713 10712 10709 ] final  -32.04 input   66.30 | X-H torsion
[ 10763 10752 10751 10750 ] final  -34.46 input  -60.55 | X-H torsion
[ 11005 11000 10999 10996 ] final -179.32 input  -57.11 | X-H torsion

> <Gold.Protein.ActiveResidues>
 VAL166  LYS551  ARG553  GLY616  TRP617  ASP618  TYR619  PRO620  LYS621  CYS622 
 ASP623  PHE694  ASN695  SER759  ASP760  ASP761  ALA762  ILE779  LEU786  VAL792 
 PHE793  MET794  SER795  GLU796  ALA797  LYS798  CYS799  TRP800  GLU811  SER814 

> <Gold.Protein.RotatedAtoms>
  152.1543  133.4541  159.4828 H   0  0  0  0  0  0  0  0  0  0  0  0  # atno 6907 bound_to 6896
  150.6899  134.2150  159.4383 H   0  0  0  0  0  0  0  0  0  0  0  0  # atno 6908 bound_to 6896
  152.0049  134.9908  160.0617 H   0  0  0  0  0  0  0  0  0  0  0  0  # atno 6909 bound_to 6896
  146.2434  140.0224  142.8397 H   0  0  0  0  0  0  0  0  0  0  0  0  # atno 7974 bound_to 7965
  154.3998  140.1465  156.3409 H   0  0  0  0  0  0  0  0  0  0  0  0  # atno 8008 bound_to 7997
  155.8357  140.3464  155.5579 H   0  0  0  0  0  0  0  0  0  0  0  0  # atno 8009 bound_to 7997
  155.8140  140.0888  157.1878 H   0  0  0  0  0  0  0  0  0  0  0  0  # atno 8010 bound_to 7997
  139.4848  144.4546  151.8785 H   0  0  0  0  0  0  0  0  0  0  0  0  # atno 10167 bound_to 10162
  156.3798  130.4354  149.7478 H   0  0  0  0  0  0  0  0  0  0  0  0  # atno 10718 bound_to 10713
  153.8471  135.6852  153.4796 H   0  0  0  0  0  0  0  0  0  0  0  0  # atno 10763 bound_to 10752
  153.1419  135.4654  154.9506 H   0  0  0  0  0  0  0  0  0  0  0  0  # atno 10764 bound_to 10752
  154.7819  135.3271  154.7919 H   0  0  0  0  0  0  0  0  0  0  0  0  # atno 10765 bound_to 10752
  140.4199  134.6615  157.4658 H   0  0  0  0  0  0  0  0  0  0  0  0  # atno 11005 bound_to 11000
  145.1229  140.9473  143.4590 LP  0  0  0  0  0  0  0  0  0  0  0  0  # atno 17320 bound_to 7965
  145.0463  139.3218  143.5951 LP  0  0  0  0  0  0  0  0  0  0  0  0  # atno 17321 bound_to 7965
  140.4005  144.2500  150.5893 LP  0  0  0  0  0  0  0  0  0  0  0  0  # atno 17342 bound_to 10162
  140.5062  143.2303  151.8605 LP  0  0  0  0  0  0  0  0  0  0  0  0  # atno 17343 bound_to 10162
  156.4572  130.7935  151.2955 LP  0  0  0  0  0  0  0  0  0  0  0  0  # atno 17370 bound_to 10713
  157.7491  131.0077  150.3199 LP  0  0  0  0  0  0  0  0  0  0  0  0  # atno 17371 bound_to 10713
  140.0207  134.6551  155.9243 LP  0  0  0  0  0  0  0  0  0  0  0  0  # atno 17394 bound_to 11000
  141.1788  133.6543  156.4935 LP  0  0  0  0  0  0  0  0  0  0  0  0  # atno 17395 bound_to 11000

$$$$
