AV-unprocessed.smi:2822|AV-procd|sdf|10879|dock2
  -GOLD-   2272015323D 1   1.00000     0.00000
 Structure written by MMmdl.
 40 42  0  0  0  0  0  0  0  0  2 V2000
  146.9240  139.1290  157.4508 Cl  0  0  0  0  0  0  0  0  0  0  0  0
  147.1619  139.9364  155.9404 C   0  0  0  0  0  0  0  0  0  0  0  0
  146.0438  140.2269  155.1316 C   0  0  0  0  0  0  0  0  0  0  0  0
  146.2099  140.8572  153.9495 N   0  3  0  0  0  0  0  0  0  0  0  0
  147.4214  141.2332  153.4882 C   0  0  0  0  0  0  0  0  0  0  0  0
  148.5771  140.9701  154.2511 C   0  0  0  0  0  0  0  0  0  0  0  0
  148.4557  140.3115  155.5005 C   0  0  0  0  0  0  0  0  0  0  0  0
  149.5675  140.0200  156.3056 N   0  0  0  0  0  0  0  0  0  0  0  0
  150.9215  140.2929  155.8479 C   0  0  0  0  0  0  0  0  0  0  0  0
  151.7251  141.0679  156.9006 C   0  0  1  0  0  0  0  0  0  0  0  0
  151.1337  142.4669  157.1542 C   0  0  0  0  0  0  0  0  0  0  0  0
  151.8529  143.1776  158.2034 N   0  0  0  0  0  0  0  0  0  0  0  0
  151.2810  144.5026  158.4368 C   0  0  0  0  0  0  0  0  0  0  0  0
  152.0438  145.2883  159.5150 C   0  0  0  0  0  0  0  0  0  0  0  0
  152.0895  144.4894  160.8254 C   0  0  0  0  0  0  0  0  0  0  0  0
  152.6391  143.0781  160.5656 C   0  0  0  0  0  0  0  0  0  0  0  0
  151.8566  142.3801  159.4337 C   0  0  2  0  0  0  0  0  0  0  0  0
  152.4207  140.9686  159.1713 C   0  0  0  0  0  0  0  0  0  0  0  0
  151.6880  140.3389  158.1248 O   0  0  0  0  0  0  0  0  0  0  0  0
  145.0266  139.9748  155.3942 H   0  0  0  0  0  0  0  0  0  0  0  0
  147.4311  141.7293  152.5286 H   0  0  0  0  0  0  0  0  0  0  0  0
  149.5377  141.2757  153.8642 H   0  0  0  0  0  0  0  0  0  0  0  0
  149.4277  139.8107  157.2845 H   0  0  0  0  0  0  0  0  0  0  0  0
  151.4153  139.3417  155.6459 H   0  0  0  0  0  0  0  0  0  0  0  0
  150.8926  140.8512  154.9111 H   0  0  0  0  0  0  0  0  0  0  0  0
  152.7597  141.1688  156.5664 H   0  0  0  0  0  0  0  0  0  0  0  0
  151.1647  143.0472  156.2313 H   0  0  0  0  0  0  0  0  0  0  0  0
  150.0815  142.3721  157.4274 H   0  0  0  0  0  0  0  0  0  0  0  0
  151.2909  145.0736  157.5076 H   0  0  0  0  0  0  0  0  0  0  0  0
  150.2342  144.4080  158.7297 H   0  0  0  0  0  0  0  0  0  0  0  0
  153.0588  145.4920  159.1711 H   0  0  0  0  0  0  0  0  0  0  0  0
  151.5698  146.2560  159.6811 H   0  0  0  0  0  0  0  0  0  0  0  0
  152.7031  145.0059  161.5640 H   0  0  0  0  0  0  0  0  0  0  0  0
  151.0855  144.4190  161.2457 H   0  0  0  0  0  0  0  0  0  0  0  0
  153.6950  143.1423  160.2989 H   0  0  0  0  0  0  0  0  0  0  0  0
  152.5851  142.4883  161.4813 H   0  0  0  0  0  0  0  0  0  0  0  0
  150.8250  142.2612  159.7702 H   0  0  0  0  0  0  0  0  0  0  0  0
  153.4773  141.0142  158.9024 H   0  0  0  0  0  0  0  0  0  0  0  0
  152.3461  140.3547  160.0692 H   0  0  0  0  0  0  0  0  0  0  0  0
  145.3859  141.0570  153.3817 H   0  0  0  0  0  0  0  0  0  0  0  0
  1  2  1  0  0  0  0
  2  7  1  0  0  0  0
  2  3  2  0  0  0  0
  3  4  1  0  0  0  0
  3 20  1  0  0  0  0
  4  5  2  0  0  0  0
  4 40  1  0  0  0  0
  5  6  1  0  0  0  0
  5 21  1  0  0  0  0
  6  7  2  0  0  0  0
  6 22  1  0  0  0  0
  7  8  1  0  0  0  0
  8  9  1  0  0  0  0
  8 23  1  0  0  0  0
  9 10  1  0  0  0  0
  9 24  1  0  0  0  0
  9 25  1  0  0  0  0
 10 19  1  0  0  0  0
 10 11  1  0  0  0  0
 10 26  1  0  0  0  0
 11 12  1  0  0  0  0
 11 27  1  0  0  0  0
 11 28  1  0  0  0  0
 12 17  1  0  0  0  0
 12 13  1  0  0  0  0
 13 14  1  0  0  0  0
 13 29  1  0  0  0  0
 13 30  1  0  0  0  0
 14 15  1  0  0  0  0
 14 31  1  0  0  0  0
 14 32  1  0  0  0  0
 15 16  1  0  0  0  0
 15 33  1  0  0  0  0
 15 34  1  0  0  0  0
 16 17  1  0  0  0  0
 16 35  1  0  0  0  0
 16 36  1  0  0  0  0
 17 18  1  0  0  0  0
 17 37  1  0  0  0  0
 18 19  1  0  0  0  0
 18 38  1  0  0  0  0
 18 39  1  0  0  0  0
M  CHG  1   4   1
M  END
> <s_m_source_file>
AV-unprocessed.smi

> <i_m_source_file_index>
2822

> <i_lp_mmshare_version>
43012

> <i_f3d_flags>
0

> <s_epik_input>
Q2xjMVtjSF1uW2NIXVtjSF1jMVtOSF1bQ0gyXVtDQEhdKFtDSDJdMilPW0NIMl1bQ0BASF0oTjIzKVtDSDJdW0NIMl1bQ0gyXVtDSDJdMw==

> <s_epik_cmdline>
J2VwaWtfcHl0aG9uJywgJy1waCcsICc3LjAnLCAnLXRuJywgJzgnLCAnLW1hJywgJzIwMCcsICctbWV0YWxfYmluZGluZycsICctaW1hZScsICc8aW5maWxlLm1hZT4nLCAnLW9tYWUnLCAnPG91dGZpbGUubWFlPic=

> <r_epik_Ionization_Penalty>
1.37653

> <r_epik_Ionization_Penalty_Charging>
0.152973

> <r_epik_Ionization_Penalty_Neutral>
1.22356

> <r_epik_State_Penalty>
1.42693

> <r_epik_Charging_Adjusted_Penalty>
1.5799

> <i_epik_Tot_Q>
1

> <i_epik_Tot_abs_Q>
1

> <r_epik_Metal_State_Penalty>
4.59822

> <b_epik_Metal_Only>
0

> <s_lp_Force_Field>
OPLS_2005

> <r_lp_Energy>
43.1838

> <b_lp_Chiralities_Consistent>
1

> <s_lp_Variant>
AV-unprocessed.smi:2822-20

> <Gold.Version>
5.8.1

> <Gold.Id.Protein>
6NUR|6NUR_protein|mol2

> <Gold.PLP.Fitness>
42.3657

> <Gold.PLP.PLP>
-36.4901

> <Gold.PLP.part.hbond>
-1.0000

> <Gold.PLP.part.metal>
0.0000

> <Gold.PLP.part.buried>
-6.8717

> <Gold.PLP.part.nonpolar>
-29.0808

> <Gold.PLP.part.repulsive>
0.0690

> <Gold.PLP.ligand.clash>
0.0000

> <Gold.PLP.ligand.torsion>
0.0655

> <Gold.PLP.Chemscore.Hbond>
2.0000

> <Gold.PLP.Chemscore.CHOScore>
0.0000

> <Gold.PLP.Chemscore.Metal>
0.0000

> <Gold.Chemscore.Hbonds>
donor molecule, donor type, donor heavy atom, donor atom, acceptor molecule, acceptor atom, score
      L1  H     4    40       P1 10175  2.00

> <Gold.PLP.Chemscore.Internal.Correction>
0.0066

> <Gold.Rescore>
     Score         DG    S(hbond)    S(metal)    S(lipo)     H(rot)  DE(clash)    DE(int)     intcor
     18.39     -18.51       0.97        0.00     109.52       1.18       0.02       0.10       ----

> <Gold.Chemscore.Fitness>
18.3939

> <Gold.Chemscore.DG>
-18.5101

> <Gold.Chemscore.ZeroCoef>
-5.4800

> <Gold.Chemscore.Hbond>
0.9684

> <Gold.Chemscore.Metal>
0.0000

> <Gold.Chemscore.Lipo>
109.5157

> <Gold.Chemscore.Internal_Hbond>
0.0000

> <Gold.Chemscore.DEClash>
0.0183

> <Gold.Chemscore.DEInternal>
0.0979

> <Gold.Chemscore.Rot>
1.1788

> <Gold.Chemscore.Internal.Correction>
   9.000000E+99

> <Gold.Chemscore.Hbonds>
donor molecule, donor type, donor heavy atom, donor atom, acceptor molecule, acceptor atom, score
      L1  H     4    40       P1 10175  0.46

> <Gold.Chemscore.Hbond.Weighted>
-3.2345

> <Gold.Chemscore.Metal.Weighted>
-0.0000

> <Gold.Chemscore.Lipo.Weighted>
-12.8133

> <Gold.Chemscore.Internal_Hbond.Weighted>
0.0000

> <Gold.Chemscore.DEClash.Weighted>
0.0183

> <Gold.Chemscore.DEInternal.Weighted>
0.0979

> <Gold.Chemscore.Rot.Weighted>
3.0177

> <Gold.Chemscore.Internal.Correction.Weighted>
   9.000000E+99

> <Gold.Protein.RotatedTorsions>
[ 6907 6896 6895 6894 ] final  150.41 input  -60.11 | X-H torsion
[ 7974 7965 7964 7962 ] final  122.62 input  175.53 | X-H torsion
[ 8008 7997 7996 7995 ] final  -21.81 input   59.86 | X-H torsion
[ 10167 10162 10161 10158 ] final  -80.43 input  -65.29 | X-H torsion
[ 10718 10713 10712 10709 ] final  -92.98 input   66.30 | X-H torsion
[ 10763 10752 10751 10750 ] final -126.17 input  -60.55 | X-H torsion
[ 11005 11000 10999 10996 ] final -140.52 input  -57.11 | X-H torsion

> <Gold.Protein.ActiveResidues>
 VAL166  LYS551  ARG553  GLY616  TRP617  ASP618  TYR619  PRO620  LYS621  CYS622 
 ASP623  PHE694  ASN695  SER759  ASP760  ASP761  ALA762  ILE779  LEU786  VAL792 
 PHE793  MET794  SER795  GLU796  ALA797  LYS798  CYS799  TRP800  GLU811  SER814 

> <Gold.Protein.RotatedAtoms>
  152.1148  133.4320  159.4647 H   0  0  0  0  0  0  0  0  0  0  0  0  # atno 6907 bound_to 6896
  150.6869  134.2605  159.4556 H   0  0  0  0  0  0  0  0  0  0  0  0  # atno 6908 bound_to 6896
  152.0477  134.9672  160.0625 H   0  0  0  0  0  0  0  0  0  0  0  0  # atno 6909 bound_to 6896
  145.1055  139.3489  143.4790 H   0  0  0  0  0  0  0  0  0  0  0  0  # atno 7974 bound_to 7965
  154.4682  140.2025  156.0062 H   0  0  0  0  0  0  0  0  0  0  0  0  # atno 8008 bound_to 7997
  156.0965  140.3250  155.7856 H   0  0  0  0  0  0  0  0  0  0  0  0  # atno 8009 bound_to 7997
  155.4869  140.0543  157.2950 H   0  0  0  0  0  0  0  0  0  0  0  0  # atno 8010 bound_to 7997
  140.4504  143.2485  151.8497 H   0  0  0  0  0  0  0  0  0  0  0  0  # atno 10167 bound_to 10162
  156.0008  130.5009  150.5707 H   0  0  0  0  0  0  0  0  0  0  0  0  # atno 10718 bound_to 10713
  154.8743  135.4004  154.3387 H   0  0  0  0  0  0  0  0  0  0  0  0  # atno 10763 bound_to 10752
  153.4190  135.7022  153.6312 H   0  0  0  0  0  0  0  0  0  0  0  0  # atno 10764 bound_to 10752
  153.4983  135.3733  155.2497 H   0  0  0  0  0  0  0  0  0  0  0  0  # atno 10765 bound_to 10752
  140.8414  134.2397  157.4808 H   0  0  0  0  0  0  0  0  0  0  0  0  # atno 11005 bound_to 11000
  146.3528  140.0950  142.8610 LP  0  0  0  0  0  0  0  0  0  0  0  0  # atno 17320 bound_to 7965
  145.0907  140.9282  143.4771 LP  0  0  0  0  0  0  0  0  0  0  0  0  # atno 17321 bound_to 7965
  139.4796  144.5127  151.8911 LP  0  0  0  0  0  0  0  0  0  0  0  0  # atno 17342 bound_to 10162
  140.4214  144.2238  150.5887 LP  0  0  0  0  0  0  0  0  0  0  0  0  # atno 17343 bound_to 10162
  157.3603  131.0748  151.1642 LP  0  0  0  0  0  0  0  0  0  0  0  0  # atno 17370 bound_to 10713
  157.2429  130.6578  149.5897 LP  0  0  0  0  0  0  0  0  0  0  0  0  # atno 17371 bound_to 10713
  139.8703  134.9637  156.4472 LP  0  0  0  0  0  0  0  0  0  0  0  0  # atno 17394 bound_to 11000
  140.8891  133.7862  155.9551 LP  0  0  0  0  0  0  0  0  0  0  0  0  # atno 17395 bound_to 11000

$$$$
