AV-unprocessed.smi:94|AV-procd|sdf|851|dock10
  -GOLD-   2262017293D 1   1.00000     0.00000
 Structure written by MMmdl.
 53 55  0  0  0  0  0  0  0  0  1 V2000
  149.0732  141.1585  154.4941 C   0  0  0  0  0  0  0  0  0  0  0  0
  150.1673  140.4723  155.0841 O   0  0  0  0  0  0  0  0  0  0  0  0
  150.7711  141.0275  156.1942 C   0  0  0  0  0  0  0  0  0  0  0  0
  150.8294  142.4254  156.4305 C   0  0  0  0  0  0  0  0  0  0  0  0
  151.4544  142.9355  157.5833 C   0  0  0  0  0  0  0  0  0  0  0  0
  152.0226  142.0586  158.5248 C   0  0  0  0  0  0  0  0  0  0  0  0
  152.6982  142.5993  159.7682 C   0  0  0  0  0  0  0  0  0  0  0  0
  151.9667  140.6713  158.3017 C   0  0  0  0  0  0  0  0  0  0  0  0
  151.3567  140.1459  157.1371 C   0  0  0  0  0  0  0  0  0  0  0  0
  151.3146  138.6332  156.9049 C   0  0  2  0  0  0  0  0  0  0  0  0
  151.7794  138.2773  155.4860 C   0  0  0  0  0  0  0  0  0  0  0  0
  149.9776  138.0879  157.1192 N   0  0  0  0  0  0  0  0  0  0  0  0
  149.5854  137.2714  158.1107 C   0  0  0  0  0  0  0  0  0  0  0  0
  150.3647  136.7534  158.9091 O   0  0  0  0  0  0  0  0  0  0  0  0
  148.0725  137.0353  158.2649 C   0  0  0  0  0  0  0  0  0  0  0  0
  147.7352  135.9706  159.2405 N   0  0  0  0  0  0  0  0  0  0  0  0
  147.4815  136.3508  160.5826 C   0  0  0  0  0  0  0  0  0  0  0  0
  147.5776  137.5243  160.9438 O   0  0  0  0  0  0  0  0  0  0  0  0
  147.0830  135.2722  161.4784 C   0  0  0  0  0  0  0  0  0  0  0  0
  146.8016  135.5433  162.7641 F   0  0  0  0  0  0  0  0  0  0  0  0
  146.9778  134.0041  161.0328 C   0  0  0  0  0  0  0  0  0  0  0  0
  147.2481  133.6397  159.7281 N   0  0  0  0  0  0  0  0  0  0  0  0
  147.0313  132.2009  159.3130 C   0  0  2  0  0  0  0  0  0  0  0  0
  146.5263  131.2938  160.4452 C   0  0  0  0  0  0  0  0  0  0  0  0
  147.2165  129.9905  160.1052 C   0  0  0  0  0  0  0  0  0  0  0  0
  148.5491  130.4740  159.5428 C   0  0  0  0  0  0  0  0  0  0  0  0
  148.2387  131.6753  158.8417 O   0  0  0  0  0  0  0  0  0  0  0  0
  147.6121  134.6338  158.7895 C   0  0  0  0  0  0  0  0  0  0  0  0
  147.7960  134.3550  157.6041 O   0  0  0  0  0  0  0  0  0  0  0  0
  148.7199  140.5945  153.6313 H   0  0  0  0  0  0  0  0  0  0  0  0
  149.3663  142.1486  154.1425 H   0  0  0  0  0  0  0  0  0  0  0  0
  148.2387  141.2531  155.1901 H   0  0  0  0  0  0  0  0  0  0  0  0
  150.4002  143.1338  155.7388 H   0  0  0  0  0  0  0  0  0  0  0  0
  151.4929  144.0030  157.7425 H   0  0  0  0  0  0  0  0  0  0  0  0
  152.5726  141.9139  160.6072 H   0  0  0  0  0  0  0  0  0  0  0  0
  152.2769  143.5638  160.0534 H   0  0  0  0  0  0  0  0  0  0  0  0
  153.7657  142.7285  159.5896 H   0  0  0  0  0  0  0  0  0  0  0  0
  152.4011  140.0135  159.0399 H   0  0  0  0  0  0  0  0  0  0  0  0
  152.0015  138.1580  157.6067 H   0  0  0  0  0  0  0  0  0  0  0  0
  152.7980  138.6233  155.3077 H   0  0  0  0  0  0  0  0  0  0  0  0
  151.1366  138.7324  154.7315 H   0  0  0  0  0  0  0  0  0  0  0  0
  151.7672  137.1984  155.3283 H   0  0  0  0  0  0  0  0  0  0  0  0
  149.2567  138.4381  156.5052 H   0  0  0  0  0  0  0  0  0  0  0  0
  147.6076  137.9847  158.5334 H   0  0  0  0  0  0  0  0  0  0  0  0
  147.6508  136.8047  157.2849 H   0  0  0  0  0  0  0  0  0  0  0  0
  146.6673  133.2455  161.7365 H   0  0  0  0  0  0  0  0  0  0  0  0
  146.3301  132.2295  158.4780 H   0  0  0  0  0  0  0  0  0  0  0  0
  146.8439  131.6525  161.4231 H   0  0  0  0  0  0  0  0  0  0  0  0
  145.4384  131.2259  160.4359 H   0  0  0  0  0  0  0  0  0  0  0  0
  147.3301  129.3278  160.9636 H   0  0  0  0  0  0  0  0  0  0  0  0
  146.6555  129.4608  159.3342 H   0  0  0  0  0  0  0  0  0  0  0  0
  149.2480  130.6954  160.3496 H   0  0  0  0  0  0  0  0  0  0  0  0
  149.0172  129.7404  158.8862 H   0  0  0  0  0  0  0  0  0  0  0  0
  1  2  1  0  0  0  0
  1 30  1  0  0  0  0
  1 31  1  0  0  0  0
  1 32  1  0  0  0  0
  2  3  1  0  0  0  0
  3  9  1  0  0  0  0
  3  4  2  0  0  0  0
  4  5  1  0  0  0  0
  4 33  1  0  0  0  0
  5  6  2  0  0  0  0
  5 34  1  0  0  0  0
  6  7  1  0  0  0  0
  6  8  1  0  0  0  0
  7 35  1  0  0  0  0
  7 36  1  0  0  0  0
  7 37  1  0  0  0  0
  8  9  2  0  0  0  0
  8 38  1  0  0  0  0
  9 10  1  0  0  0  0
 10 11  1  0  0  0  0
 10 12  1  0  0  0  0
 10 39  1  0  0  0  0
 11 40  1  0  0  0  0
 11 41  1  0  0  0  0
 11 42  1  0  0  0  0
 12 13  1  0  0  0  0
 12 43  1  0  0  0  0
 13 14  2  0  0  0  0
 13 15  1  0  0  0  0
 15 16  1  0  0  0  0
 15 44  1  0  0  0  0
 15 45  1  0  0  0  0
 16 28  1  0  0  0  0
 16 17  1  0  0  0  0
 17 18  2  0  0  0  0
 17 19  1  0  0  0  0
 19 20  1  0  0  0  0
 19 21  2  0  0  0  0
 21 22  1  0  0  0  0
 21 46  1  0  0  0  0
 22 23  1  0  0  0  0
 22 28  1  0  0  0  0
 23 27  1  0  0  0  0
 23 24  1  0  0  0  0
 23 47  1  0  0  0  0
 24 25  1  0  0  0  0
 24 48  1  0  0  0  0
 24 49  1  0  0  0  0
 25 26  1  0  0  0  0
 25 50  1  0  0  0  0
 25 51  1  0  0  0  0
 26 27  1  0  0  0  0
 26 52  1  0  0  0  0
 26 53  1  0  0  0  0
 28 29  2  0  0  0  0
M  END
> <s_m_source_file>
AV-unprocessed.smi

> <i_m_source_file_index>
94

> <i_lp_mmshare_version>
43012

> <i_f3d_flags>
0

> <s_epik_input>
W0NIM11PYzFbY0hdW2NIXWMoW0NIM10pW2NIXWMxW0NASF0oW0NIM10pW05IXUMoPU8pW0NIMl1uMmMoPU8pYyhGKVtjSF1uKGMyPU8pW0NAQEhdM1tDSDJdW0NIMl1bQ0gyXU8z

> <s_epik_cmdline>
J2VwaWtfcHl0aG9uJywgJy1waCcsICc3LjAnLCAnLXRuJywgJzgnLCAnLW1hJywgJzIwMCcsICctbWV0YWxfYmluZGluZycsICctaW1hZScsICc8aW5maWxlLm1hZT4nLCAnLW9tYWUnLCAnPG91dGZpbGUubWFlPic=

> <r_lp_tautomer_probability>
1

> <r_epik_Ionization_Penalty>
3.37009e-08

> <r_epik_Ionization_Penalty_Charging>
3.59856e-09

> <r_epik_Ionization_Penalty_Neutral>
3.01024e-08

> <r_epik_State_Penalty>
-0

> <r_epik_Charging_Adjusted_Penalty>
3.59856e-09

> <i_epik_Tot_Q>
0

> <i_epik_Tot_abs_Q>
0

> <r_epik_Metal_State_Penalty>
-0

> <b_epik_Metal_Only>
0

> <s_epik_Chemistry_Notes>
This compound contains an acetal/aminal-like group ( X-CH(R)-Y where X, Y are N, S, or O) that may be acid/base labile, releasing an aldehyde.

> <s_lp_Force_Field>
OPLS_2005

> <r_lp_Energy>
26.0468

> <b_lp_Chiralities_Consistent>
1

> <s_lp_Variant>
AV-unprocessed.smi:94-1

> <Gold.Version>
5.8.1

> <Gold.Id.Protein>
6NUR|6NUR_protein|mol2

> <Gold.PLP.Fitness>
54.0407

> <Gold.PLP.PLP>
-46.9670

> <Gold.PLP.part.hbond>
-3.8071

> <Gold.PLP.part.metal>
0.0000

> <Gold.PLP.part.buried>
-3.8831

> <Gold.PLP.part.nonpolar>
-39.2146

> <Gold.PLP.part.repulsive>
0.0710

> <Gold.PLP.ligand.clash>
0.0000

> <Gold.PLP.ligand.torsion>
1.1736

> <Gold.PLP.Chemscore.Hbond>
3.1026

> <Gold.PLP.Chemscore.CHOScore>
0.0000

> <Gold.PLP.Chemscore.Metal>
0.0000

> <Gold.Chemscore.Hbonds>
donor molecule, donor type, donor heavy atom, donor atom, acceptor molecule, acceptor atom, score
      P1  H  6896  6907       L1    14  0.86
      P1  H  6931  6943       L1    18  0.69
      P1  H  6934  6947       L1    18  0.91
      P1  H  7989  7998       L1     2  0.50

> <Gold.PLP.Chemscore.Internal.Correction>
0.1131

> <Gold.Rescore>
     Score         DG    S(hbond)    S(metal)    S(lipo)     H(rot)  DE(clash)    DE(int)     intcor
     18.35     -20.53       2.69        0.00     103.06       2.34       0.05       2.13       ----

> <Gold.Chemscore.Fitness>
18.3516

> <Gold.Chemscore.DG>
-20.5267

> <Gold.Chemscore.ZeroCoef>
-5.4800

> <Gold.Chemscore.Hbond>
2.6860

> <Gold.Chemscore.Metal>
0.0000

> <Gold.Chemscore.Lipo>
103.0608

> <Gold.Chemscore.Internal_Hbond>
0.0000

> <Gold.Chemscore.DEClash>
0.0456

> <Gold.Chemscore.DEInternal>
2.1294

> <Gold.Chemscore.Rot>
2.3370

> <Gold.Chemscore.Internal.Correction>
   9.000000E+99

> <Gold.Chemscore.Hbonds>
donor molecule, donor type, donor heavy atom, donor atom, acceptor molecule, acceptor atom, score
      P1  H  6896  6907       L1    14  0.82
      P1  H  6931  6943       L1    18  0.70
      P1  H  6934  6947       L1    18  0.85
      P1  H  7989  7998       L1     2  0.03

> <Gold.Chemscore.Hbond.Weighted>
-8.9712

> <Gold.Chemscore.Metal.Weighted>
-0.0000

> <Gold.Chemscore.Lipo.Weighted>
-12.0581

> <Gold.Chemscore.Internal_Hbond.Weighted>
0.0000

> <Gold.Chemscore.DEClash.Weighted>
0.0456

> <Gold.Chemscore.DEInternal.Weighted>
2.1294

> <Gold.Chemscore.Rot.Weighted>
5.9827

> <Gold.Chemscore.Internal.Correction.Weighted>
   9.000000E+99

> <Gold.Protein.RotatedTorsions>
[ 6907 6896 6895 6894 ] final  -20.59 input  -60.11 | X-H torsion
[ 7974 7965 7964 7962 ] final  -79.99 input  175.53 | X-H torsion
[ 8008 7997 7996 7995 ] final   15.15 input   59.86 | X-H torsion
[ 10167 10162 10161 10158 ] final  -39.15 input  -65.29 | X-H torsion
[ 10718 10713 10712 10709 ] final  179.22 input   66.30 | X-H torsion
[ 10763 10752 10751 10750 ] final  -72.32 input  -60.55 | X-H torsion
[ 11005 11000 10999 10996 ] final  169.48 input  -57.11 | X-H torsion

> <Gold.Protein.ActiveResidues>
 VAL166  LYS551  ARG553  GLY616  TRP617  ASP618  TYR619  PRO620  LYS621  CYS622 
 ASP623  PHE694  ASN695  SER759  ASP760  ASP761  ALA762  ILE779  LEU786  VAL792 
 PHE793  MET794  SER795  GLU796  ALA797  LYS798  CYS799  TRP800  GLU811  SER814 

> <Gold.Protein.RotatedAtoms>
  151.2460  135.0605  159.9043 H   0  0  0  0  0  0  0  0  0  0  0  0  # atno 6907 bound_to 6896
  152.5387  134.0384  159.8066 H   0  0  0  0  0  0  0  0  0  0  0  0  # atno 6908 bound_to 6896
  151.0584  133.5515  159.2667 H   0  0  0  0  0  0  0  0  0  0  0  0  # atno 6909 bound_to 6896
  145.5658  140.9474  143.1422 H   0  0  0  0  0  0  0  0  0  0  0  0  # atno 7974 bound_to 7965
  154.8586  140.2941  155.5553 H   0  0  0  0  0  0  0  0  0  0  0  0  # atno 8008 bound_to 7997
  156.3019  140.2482  156.3489 H   0  0  0  0  0  0  0  0  0  0  0  0  # atno 8009 bound_to 7997
  154.8943  140.0393  157.1845 H   0  0  0  0  0  0  0  0  0  0  0  0  # atno 8010 bound_to 7997
  140.7072  143.3232  151.2742 H   0  0  0  0  0  0  0  0  0  0  0  0  # atno 10167 bound_to 10162
  156.8790  130.9809  151.3064 H   0  0  0  0  0  0  0  0  0  0  0  0  # atno 10718 bound_to 10713
  154.4440  135.5934  153.6148 H   0  0  0  0  0  0  0  0  0  0  0  0  # atno 10763 bound_to 10752
  152.9808  135.6005  154.3687 H   0  0  0  0  0  0  0  0  0  0  0  0  # atno 10764 bound_to 10752
  154.3540  135.2841  155.2335 H   0  0  0  0  0  0  0  0  0  0  0  0  # atno 10765 bound_to 10752
  140.2982  134.7617  157.3895 H   0  0  0  0  0  0  0  0  0  0  0  0  # atno 11005 bound_to 11000
  144.7461  139.7317  143.7292 LP  0  0  0  0  0  0  0  0  0  0  0  0  # atno 17320 bound_to 7965
  146.1819  139.5015  142.9861 LP  0  0  0  0  0  0  0  0  0  0  0  0  # atno 17321 bound_to 7965
  139.6692  144.0050  152.2742 LP  0  0  0  0  0  0  0  0  0  0  0  0  # atno 17342 bound_to 10162
  139.9643  144.6537  150.8049 LP  0  0  0  0  0  0  0  0  0  0  0  0  # atno 17343 bound_to 10162
  157.6151  130.8612  149.9015 LP  0  0  0  0  0  0  0  0  0  0  0  0  # atno 17370 bound_to 10713
  156.0687  130.3688  150.0823 LP  0  0  0  0  0  0  0  0  0  0  0  0  # atno 17371 bound_to 10713
  140.1133  134.5317  155.8247 LP  0  0  0  0  0  0  0  0  0  0  0  0  # atno 17394 bound_to 11000
  141.2133  133.6731  156.6729 LP  0  0  0  0  0  0  0  0  0  0  0  0  # atno 17395 bound_to 11000

$$$$
