AV-unprocessed.smi:1395|AV-procd|sdf|5672|dock6
  -GOLD-   22720 5293D 1   1.00000     0.00000
 Structure written by MMmdl.
 42 43  0  0  0  0  0  0  0  0  3 V2000
  149.2299  138.8002  154.0679 C   0  0  0  0  0  0  0  0  0  0  0  0
  150.4594  138.3902  154.8624 C   0  0  0  0  0  0  0  0  0  0  0  0
  151.2186  139.3814  155.5200 C   0  0  0  0  0  0  0  0  0  0  0  0
  152.3537  139.0006  156.2559 C   0  0  0  0  0  0  0  0  0  0  0  0
  152.6837  137.6354  156.3035 C   0  0  0  0  0  0  0  0  0  0  0  0
  151.9642  136.6816  155.6779 N   0  0  0  0  0  0  0  0  0  0  0  0
  150.8658  137.0325  154.9629 C   0  0  0  0  0  0  0  0  0  0  0  0
  150.0568  136.0790  154.2824 N   0  0  0  0  0  0  0  0  0  0  0  0
  149.6678  134.8618  154.7016 C   0  0  0  0  0  0  0  0  0  0  0  0
  149.9853  134.3388  155.7703 O   0  0  0  0  0  0  0  0  0  0  0  0
  148.8730  134.2687  153.7986 N   0  0  0  0  0  0  0  0  0  0  0  0
  148.2658  132.9500  153.9532 C   0  0  2  0  0  0  0  0  0  0  0  0
  149.3465  131.8620  153.8443 C   0  0  0  0  0  0  0  0  0  0  0  0
  148.7301  130.4544  153.9057 C   0  0  0  0  0  0  0  0  0  0  0  0
  147.7015  130.2759  152.8505 N   0  3  1  0  0  0  0  0  0  0  0  0
  147.1981  128.8803  152.7764 C   0  0  0  0  0  0  0  0  0  0  0  0
  148.3473  127.8758  152.9208 C   0  0  0  0  0  0  0  0  0  0  0  0
  149.1817  127.8925  151.8616 N   0  5  0  0  0  0  0  0  0  0  0  0
  148.4186  127.1743  153.9271 O   0  0  0  0  0  0  0  0  0  0  0  0
  146.6187  131.2888  152.9641 C   0  0  0  0  0  0  0  0  0  0  0  0
  147.1867  132.7144  152.8798 C   0  0  0  0  0  0  0  0  0  0  0  0
  149.0911  139.8818  154.0807 H   0  0  0  0  0  0  0  0  0  0  0  0
  148.3344  138.3422  154.4895 H   0  0  0  0  0  0  0  0  0  0  0  0
  149.3237  138.4871  153.0276 H   0  0  0  0  0  0  0  0  0  0  0  0
  150.9368  140.4226  155.4642 H   0  0  0  0  0  0  0  0  0  0  0  0
  152.9552  139.7353  156.7705 H   0  0  0  0  0  0  0  0  0  0  0  0
  153.5474  137.2991  156.8576 H   0  0  0  0  0  0  0  0  0  0  0  0
  149.7266  136.3656  153.3730 H   0  0  0  0  0  0  0  0  0  0  0  0
  148.6648  134.7689  152.9466 H   0  0  0  0  0  0  0  0  0  0  0  0
  147.8081  132.8817  154.9422 H   0  0  0  0  0  0  0  0  0  0  0  0
  149.8933  131.9741  152.9065 H   0  0  0  0  0  0  0  0  0  0  0  0
  150.0786  131.9783  154.6444 H   0  0  0  0  0  0  0  0  0  0  0  0
  149.5200  129.7132  153.7787 H   0  0  0  0  0  0  0  0  0  0  0  0
  148.2822  130.2788  154.8851 H   0  0  0  0  0  0  0  0  0  0  0  0
  146.4871  128.6894  153.5820 H   0  0  0  0  0  0  0  0  0  0  0  0
  146.6596  128.7196  151.8408 H   0  0  0  0  0  0  0  0  0  0  0  0
  150.1897  127.9960  152.0309 H   0  0  0  0  0  0  0  0  0  0  0  0
  145.8869  131.1514  152.1676 H   0  0  0  0  0  0  0  0  0  0  0  0
  146.0872  131.1510  153.9070 H   0  0  0  0  0  0  0  0  0  0  0  0
  146.3760  133.4353  152.9922 H   0  0  0  0  0  0  0  0  0  0  0  0
  147.6086  132.8768  151.8867 H   0  0  0  0  0  0  0  0  0  0  0  0
  148.1650  130.4365  151.9666 H   0  0  0  0  0  0  0  0  0  0  0  0
  1  2  1  0  0  0  0
  1 22  1  0  0  0  0
  1 23  1  0  0  0  0
  1 24  1  0  0  0  0
  2  7  1  0  0  0  0
  2  3  2  0  0  0  0
  3  4  1  0  0  0  0
  3 25  1  0  0  0  0
  4  5  2  0  0  0  0
  4 26  1  0  0  0  0
  5  6  1  0  0  0  0
  5 27  1  0  0  0  0
  6  7  2  0  0  0  0
  7  8  1  0  0  0  0
  8  9  1  0  0  0  0
  8 28  1  0  0  0  0
  9 10  2  0  0  0  0
  9 11  1  0  0  0  0
 11 12  1  0  0  0  0
 11 29  1  0  0  0  0
 12 21  1  0  0  0  0
 12 13  1  0  0  0  0
 12 30  1  0  0  0  0
 13 14  1  0  0  0  0
 13 31  1  0  0  0  0
 13 32  1  0  0  0  0
 14 15  1  0  0  0  0
 14 33  1  0  0  0  0
 14 34  1  0  0  0  0
 15 16  1  0  0  0  0
 15 20  1  0  0  0  0
 15 42  1  0  0  0  0
 16 17  1  0  0  0  0
 16 35  1  0  0  0  0
 16 36  1  0  0  0  0
 17 18  1  0  0  0  0
 17 19  2  0  0  0  0
 18 37  1  0  0  0  0
 20 21  1  0  0  0  0
 20 38  1  0  0  0  0
 20 39  1  0  0  0  0
 21 40  1  0  0  0  0
 21 41  1  0  0  0  0
M  CHG  1  15   1
M  CHG  1  18  -1
M  END
> <s_m_source_file>
AV-unprocessed.smi

> <i_m_source_file_index>
1395

> <i_lp_mmshare_version>
43012

> <i_f3d_flags>
0

> <s_epik_input>
W0NIM11jMVtjSF1bY0hdW2NIXW5jMVtOSF1DKD1PKVtOSF1bQ0hdMltDSDJdW0NIMl1OKFtDSDJdW0NIMl0yKVtDSDJdQyg9TylbTkgyXQ==

> <s_epik_cmdline>
J2VwaWtfcHl0aG9uJywgJy1waCcsICc3LjAnLCAnLXRuJywgJzgnLCAnLW1hJywgJzIwMCcsICctbWV0YWxfYmluZGluZycsICctaW1hZScsICc8aW5maWxlLm1hZT4nLCAnLW9tYWUnLCAnPG91dGZpbGUubWFlPic=

> <r_epik_Ionization_Penalty>
5.72885

> <r_epik_Ionization_Penalty_Charging>
5.7288

> <r_epik_Ionization_Penalty_Neutral>
4.54304e-05

> <r_epik_State_Penalty>
6.54882

> <r_epik_Charging_Adjusted_Penalty>
12.2776

> <i_epik_Tot_Q>
0

> <i_epik_Tot_abs_Q>
2

> <r_epik_Metal_State_Penalty>
2.51297

> <b_epik_Metal_Only>
1

> <s_lp_Force_Field>
OPLS_2005

> <r_lp_Energy>
9.01588

> <b_lp_Chiralities_Consistent>
1

> <s_lp_Variant>
AV-unprocessed.smi:1395-4

> <Gold.Version>
5.8.1

> <Gold.Id.Protein>
6NUR|6NUR_protein|mol2

> <Gold.PLP.Fitness>
46.3432

> <Gold.PLP.PLP>
-32.5817

> <Gold.PLP.part.hbond>
-6.1878

> <Gold.PLP.part.metal>
0.0000

> <Gold.PLP.part.buried>
-0.0991

> <Gold.PLP.part.nonpolar>
-25.3146

> <Gold.PLP.part.repulsive>
0.1865

> <Gold.PLP.ligand.clash>
0.0000

> <Gold.PLP.ligand.torsion>
0.6193

> <Gold.PLP.Chemscore.Hbond>
4.9920

> <Gold.PLP.Chemscore.CHOScore>
0.0000

> <Gold.PLP.Chemscore.Metal>
0.0000

> <Gold.Chemscore.Hbonds>
donor molecule, donor type, donor heavy atom, donor atom, acceptor molecule, acceptor atom, score
      L1  H     8    28       P1  7948  1.00
      L1  H    11    29       P1  7948  0.99
      L1  H    15    42       P1 10747  1.00
      L1  H    18    37       P1 10737  1.00
      P1  H 10752 10763       L1     6  1.00

> <Gold.PLP.Chemscore.Internal.Correction>
0.0242

> <Gold.Rescore>
     Score         DG    S(hbond)    S(metal)    S(lipo)     H(rot)  DE(clash)    DE(int)     intcor
     18.95     -19.61       3.60        0.00      60.24       1.93       0.09       0.57       ----

> <Gold.Chemscore.Fitness>
18.9509

> <Gold.Chemscore.DG>
-19.6071

> <Gold.Chemscore.ZeroCoef>
-5.4800

> <Gold.Chemscore.Hbond>
3.6020

> <Gold.Chemscore.Metal>
0.0000

> <Gold.Chemscore.Lipo>
60.2354

> <Gold.Chemscore.Internal_Hbond>
0.0000

> <Gold.Chemscore.DEClash>
0.0876

> <Gold.Chemscore.DEInternal>
0.5686

> <Gold.Chemscore.Rot>
1.9341

> <Gold.Chemscore.Internal.Correction>
   9.000000E+99

> <Gold.Chemscore.Hbonds>
donor molecule, donor type, donor heavy atom, donor atom, acceptor molecule, acceptor atom, score
      L1  H     8    28       P1  7948  0.25
      L1  H    11    29       P1  7948  0.24
      L1  H    15    42       P1 10747  0.98
      L1  H    18    37       P1 10737  0.98
      P1  H 10752 10763       L1     6  0.62

> <Gold.Chemscore.Hbond.Weighted>
-12.0308

> <Gold.Chemscore.Metal.Weighted>
-0.0000

> <Gold.Chemscore.Lipo.Weighted>
-7.0475

> <Gold.Chemscore.Internal_Hbond.Weighted>
0.0000

> <Gold.Chemscore.DEClash.Weighted>
0.0876

> <Gold.Chemscore.DEInternal.Weighted>
0.5686

> <Gold.Chemscore.Rot.Weighted>
4.9512

> <Gold.Chemscore.Internal.Correction.Weighted>
   9.000000E+99

> <Gold.Protein.RotatedTorsions>
[ 6907 6896 6895 6894 ] final  146.53 input  -60.11 | X-H torsion
[ 7974 7965 7964 7962 ] final   70.87 input  175.53 | X-H torsion
[ 8008 7997 7996 7995 ] final  -72.29 input   59.86 | X-H torsion
[ 10167 10162 10161 10158 ] final -104.12 input  -65.29 | X-H torsion
[ 10718 10713 10712 10709 ] final  -11.28 input   66.30 | X-H torsion
[ 10763 10752 10751 10750 ] final   85.30 input  -60.55 | X-H torsion
[ 11005 11000 10999 10996 ] final   63.47 input  -57.11 | X-H torsion

> <Gold.Protein.ActiveResidues>
 VAL166  LYS551  ARG553  GLY616  TRP617  ASP618  TYR619  PRO620  LYS621  CYS622 
 ASP623  PHE694  ASN695  SER759  ASP760  ASP761  ALA762  ILE779  LEU786  VAL792 
 PHE793  MET794  SER795  GLU796  ALA797  LYS798  CYS799  TRP800  GLU811  SER814 

> <Gold.Protein.RotatedAtoms>
  152.1666  133.4616  159.4887 H   0  0  0  0  0  0  0  0  0  0  0  0  # atno 6907 bound_to 6896
  150.6914  134.2005  159.4329 H   0  0  0  0  0  0  0  0  0  0  0  0  # atno 6908 bound_to 6896
  151.9910  134.9979  160.0612 H   0  0  0  0  0  0  0  0  0  0  0  0  # atno 6909 bound_to 6896
  145.7729  139.2851  143.1311 H   0  0  0  0  0  0  0  0  0  0  0  0  # atno 7974 bound_to 7965
  154.5155  140.0800  156.8072 H   0  0  0  0  0  0  0  0  0  0  0  0  # atno 8008 bound_to 7997
  155.3691  140.3422  155.4224 H   0  0  0  0  0  0  0  0  0  0  0  0  # atno 8009 bound_to 7997
  156.1622  140.1592  156.8580 H   0  0  0  0  0  0  0  0  0  0  0  0  # atno 8010 bound_to 7997
  140.2126  143.3735  152.1037 H   0  0  0  0  0  0  0  0  0  0  0  0  # atno 10167 bound_to 10162
  156.6613  130.4982  149.6030 H   0  0  0  0  0  0  0  0  0  0  0  0  # atno 10718 bound_to 10713
  153.1462  135.4622  154.9570 H   0  0  0  0  0  0  0  0  0  0  0  0  # atno 10763 bound_to 10752
  154.7788  135.3182  154.8036 H   0  0  0  0  0  0  0  0  0  0  0  0  # atno 10764 bound_to 10752
  153.8550  135.6918  153.4842 H   0  0  0  0  0  0  0  0  0  0  0  0  # atno 10765 bound_to 10752
  140.0022  134.6424  155.9912 H   0  0  0  0  0  0  0  0  0  0  0  0  # atno 11005 bound_to 11000
  146.0152  140.8399  142.9951 LP  0  0  0  0  0  0  0  0  0  0  0  0  # atno 17320 bound_to 7965
  144.6809  140.2548  143.7327 LP  0  0  0  0  0  0  0  0  0  0  0  0  # atno 17321 bound_to 7965
  139.5174  144.6991  151.5545 LP  0  0  0  0  0  0  0  0  0  0  0  0  # atno 17342 bound_to 10162
  140.6312  143.9072  150.6607 LP  0  0  0  0  0  0  0  0  0  0  0  0  # atno 17343 bound_to 10162
  156.2009  130.6619  151.1166 LP  0  0  0  0  0  0  0  0  0  0  0  0  # atno 17370 bound_to 10713
  157.7109  131.0734  150.6505 LP  0  0  0  0  0  0  0  0  0  0  0  0  # atno 17371 bound_to 10713
  141.1651  133.6537  156.4450 LP  0  0  0  0  0  0  0  0  0  0  0  0  # atno 17394 bound_to 11000
  140.4706  134.6757  157.5127 LP  0  0  0  0  0  0  0  0  0  0  0  0  # atno 17395 bound_to 11000

$$$$
