AV-unprocessed.smi:2718|AV-procd|sdf|10489|dock8
  -GOLD-   2272014533D 1   1.00000     0.00000
 Structure written by MMmdl.
 47 48  0  0  0  0  0  0  0  0  1 V2000
  152.2367  138.4667  153.6900 C   0  0  0  0  0  0  0  0  0  0  0  0
  151.7703  139.3351  154.8417 C   0  0  0  0  0  0  0  0  0  0  0  0
  152.8754  140.1030  155.5456 C   0  0  0  0  0  0  0  0  0  0  0  0
  150.4731  139.4021  155.1970 C   0  0  0  0  0  0  0  0  0  0  0  0
  149.8958  140.2042  156.3075 C   0  0  1  0  0  0  0  0  0  0  0  0
  150.2283  141.6778  156.4471 C   0  0  2  0  0  0  0  0  0  0  0  0
  150.4670  142.2358  157.8153 C   0  0  0  0  0  0  0  0  0  0  0  0
  150.9145  141.5771  158.7545 O   0  0  0  0  0  0  0  0  0  0  0  0
  150.1717  143.5397  157.9187 N   0  0  0  0  0  0  0  0  0  0  0  0
  150.3642  144.3574  159.1129 C   0  0  0  0  0  0  0  0  0  0  0  0
  151.8535  144.6426  159.4110 C   0  0  2  0  0  0  0  0  0  0  0  0
  152.5759  145.2315  158.1904 C   0  0  0  0  0  0  0  0  0  0  0  0
  152.5765  143.4395  159.9575 C   0  0  0  0  0  0  0  0  0  0  0  0
  153.1860  142.5308  159.1840 N   0  0  0  0  0  0  0  0  0  0  0  0
  153.7025  141.5877  160.0491 N   0  0  0  0  0  0  0  0  0  0  0  0
  153.3539  142.0186  161.2604 C   0  0  0  0  0  0  0  0  0  0  0  0
  152.6535  143.1625  161.2772 N   0  0  0  0  0  0  0  0  0  0  0  0
  152.1315  143.8789  162.4245 C   0  0  0  0  0  0  0  0  0  0  0  0
  148.8202  141.2481  156.0511 C   0  0  0  0  0  0  0  0  0  0  0  0
  148.3616  141.5871  154.6406 C   0  0  0  0  0  0  0  0  0  0  0  0
  147.6277  141.3140  156.9981 C   0  0  0  0  0  0  0  0  0  0  0  0
  152.7229  139.0770  152.9285 H   0  0  0  0  0  0  0  0  0  0  0  0
  151.4050  137.9394  153.2216 H   0  0  0  0  0  0  0  0  0  0  0  0
  152.9527  137.7244  154.0433 H   0  0  0  0  0  0  0  0  0  0  0  0
  153.5888  139.4092  155.9905 H   0  0  0  0  0  0  0  0  0  0  0  0
  152.4968  140.7485  156.3373 H   0  0  0  0  0  0  0  0  0  0  0  0
  153.4097  140.7303  154.8320 H   0  0  0  0  0  0  0  0  0  0  0  0
  149.7561  138.8247  154.6315 H   0  0  0  0  0  0  0  0  0  0  0  0
  149.8214  139.6211  157.2240 H   0  0  0  0  0  0  0  0  0  0  0  0
  150.8305  142.1212  155.6547 H   0  0  0  0  0  0  0  0  0  0  0  0
  149.8122  144.0092  157.1000 H   0  0  0  0  0  0  0  0  0  0  0  0
  149.8387  145.2978  158.9446 H   0  0  0  0  0  0  0  0  0  0  0  0
  149.8827  143.8867  159.9716 H   0  0  0  0  0  0  0  0  0  0  0  0
  151.8742  145.4206  160.1734 H   0  0  0  0  0  0  0  0  0  0  0  0
  153.6025  145.5038  158.4372 H   0  0  0  0  0  0  0  0  0  0  0  0
  152.0728  146.1303  157.8328 H   0  0  0  0  0  0  0  0  0  0  0  0
  152.6089  144.5194  157.3650 H   0  0  0  0  0  0  0  0  0  0  0  0
  153.6163  141.4826  162.1606 H   0  0  0  0  0  0  0  0  0  0  0  0
  152.4360  143.3832  163.3466 H   0  0  0  0  0  0  0  0  0  0  0  0
  151.0427  143.9038  162.3808 H   0  0  0  0  0  0  0  0  0  0  0  0
  152.5162  144.8989  162.4296 H   0  0  0  0  0  0  0  0  0  0  0  0
  147.9076  142.5783  154.6190 H   0  0  0  0  0  0  0  0  0  0  0  0
  147.6276  140.8598  154.2929 H   0  0  0  0  0  0  0  0  0  0  0  0
  149.2000  141.5844  153.9435 H   0  0  0  0  0  0  0  0  0  0  0  0
  147.3254  142.3498  157.1537 H   0  0  0  0  0  0  0  0  0  0  0  0
  147.8568  140.8690  157.9656 H   0  0  0  0  0  0  0  0  0  0  0  0
  146.7819  140.7658  156.5821 H   0  0  0  0  0  0  0  0  0  0  0  0
  1  2  1  0  0  0  0
  1 22  1  0  0  0  0
  1 23  1  0  0  0  0
  1 24  1  0  0  0  0
  2  3  1  0  0  0  0
  2  4  2  0  0  0  0
  3 25  1  0  0  0  0
  3 26  1  0  0  0  0
  3 27  1  0  0  0  0
  4  5  1  0  0  0  0
  4 28  1  0  0  0  0
  5 19  1  0  0  0  0
  5  6  1  0  0  0  0
  5 29  1  0  0  0  0
  6  7  1  0  0  0  0
  6 19  1  0  0  0  0
  6 30  1  0  0  0  0
  7  8  2  0  0  0  0
  7  9  1  0  0  0  0
  9 10  1  0  0  0  0
  9 31  1  0  0  0  0
 10 11  1  0  0  0  0
 10 32  1  0  0  0  0
 10 33  1  0  0  0  0
 11 12  1  0  0  0  0
 11 13  1  0  0  0  0
 11 34  1  0  0  0  0
 12 35  1  0  0  0  0
 12 36  1  0  0  0  0
 12 37  1  0  0  0  0
 13 17  1  0  0  0  0
 13 14  2  0  0  0  0
 14 15  1  0  0  0  0
 15 16  2  0  0  0  0
 16 17  1  0  0  0  0
 16 38  1  0  0  0  0
 17 18  1  0  0  0  0
 18 39  1  0  0  0  0
 18 40  1  0  0  0  0
 18 41  1  0  0  0  0
 19 20  1  0  0  0  0
 19 21  1  0  0  0  0
 20 42  1  0  0  0  0
 20 43  1  0  0  0  0
 20 44  1  0  0  0  0
 21 45  1  0  0  0  0
 21 46  1  0  0  0  0
 21 47  1  0  0  0  0
M  END
> <s_m_source_file>
AV-unprocessed.smi

> <i_m_source_file_index>
2718

> <i_lp_mmshare_version>
43012

> <i_f3d_flags>
0

> <s_epik_input>
W0NIM11DKFtDSDNdKT1bQ0hdW0NAQEhdKEMxKFtDSDNdKVtDSDNdKVtDQEhdMUMoPU8pW05IXVtDSDJdW0NASF0oW0NIM10pYzJubltjSF1uMltDSDNd

> <s_epik_cmdline>
J2VwaWtfcHl0aG9uJywgJy1waCcsICc3LjAnLCAnLXRuJywgJzgnLCAnLW1hJywgJzIwMCcsICctbWV0YWxfYmluZGluZycsICctaW1hZScsICc8aW5maWxlLm1hZT4nLCAnLW9tYWUnLCAnPG91dGZpbGUubWFlPic=

> <r_lp_tautomer_probability>
1

> <r_epik_Ionization_Penalty>
0.000449586

> <r_epik_Ionization_Penalty_Charging>
0

> <r_epik_Ionization_Penalty_Neutral>
0.000449586

> <r_epik_State_Penalty>
0.000243372

> <r_epik_Charging_Adjusted_Penalty>
0.000243372

> <i_epik_Tot_Q>
0

> <i_epik_Tot_abs_Q>
0

> <r_epik_Metal_State_Penalty>
-0

> <b_epik_Metal_Only>
0

> <s_lp_Force_Field>
OPLS_2005

> <r_lp_Energy>
15.8619

> <b_lp_Chiralities_Consistent>
1

> <s_lp_Variant>
AV-unprocessed.smi:2718-4

> <Gold.Version>
5.8.1

> <Gold.Id.Protein>
6NUR|6NUR_protein|mol2

> <Gold.PLP.Fitness>
46.9553

> <Gold.PLP.PLP>
-46.7978

> <Gold.PLP.part.hbond>
-1.3227

> <Gold.PLP.part.metal>
0.0000

> <Gold.PLP.part.buried>
-5.1563

> <Gold.PLP.part.nonpolar>
-39.3366

> <Gold.PLP.part.repulsive>
0.0350

> <Gold.PLP.ligand.clash>
0.0000

> <Gold.PLP.ligand.torsion>
1.5456

> <Gold.PLP.Chemscore.Hbond>
1.0000

> <Gold.PLP.Chemscore.CHOScore>
0.0000

> <Gold.PLP.Chemscore.Metal>
0.0000

> <Gold.Chemscore.Hbonds>
donor molecule, donor type, donor heavy atom, donor atom, acceptor molecule, acceptor atom, score
      L1  H     9    31       P1  8028  1.00

> <Gold.PLP.Chemscore.Internal.Correction>
0.2486

> <Gold.Rescore>
     Score         DG    S(hbond)    S(metal)    S(lipo)     H(rot)  DE(clash)    DE(int)     intcor
     11.19     -15.04       0.97        0.00      96.92       1.95       0.89       2.96       ----

> <Gold.Chemscore.Fitness>
11.1871

> <Gold.Chemscore.DG>
-15.0441

> <Gold.Chemscore.ZeroCoef>
-5.4800

> <Gold.Chemscore.Hbond>
0.9656

> <Gold.Chemscore.Metal>
0.0000

> <Gold.Chemscore.Lipo>
96.9199

> <Gold.Chemscore.Internal_Hbond>
0.0000

> <Gold.Chemscore.DEClash>
0.8939

> <Gold.Chemscore.DEInternal>
2.9632

> <Gold.Chemscore.Rot>
1.9533

> <Gold.Chemscore.Internal.Correction>
   9.000000E+99

> <Gold.Chemscore.Hbonds>
donor molecule, donor type, donor heavy atom, donor atom, acceptor molecule, acceptor atom, score
      L1  H     9    31       P1  8028  0.82

> <Gold.Chemscore.Hbond.Weighted>
-3.2251

> <Gold.Chemscore.Metal.Weighted>
-0.0000

> <Gold.Chemscore.Lipo.Weighted>
-11.3396

> <Gold.Chemscore.Internal_Hbond.Weighted>
0.0000

> <Gold.Chemscore.DEClash.Weighted>
0.8939

> <Gold.Chemscore.DEInternal.Weighted>
2.9632

> <Gold.Chemscore.Rot.Weighted>
5.0005

> <Gold.Chemscore.Internal.Correction.Weighted>
   9.000000E+99

> <Gold.Protein.RotatedTorsions>
[ 6907 6896 6895 6894 ] final   -5.51 input  -60.11 | X-H torsion
[ 7974 7965 7964 7962 ] final  -50.35 input  175.53 | X-H torsion
[ 8008 7997 7996 7995 ] final  171.23 input   59.86 | X-H torsion
[ 10167 10162 10161 10158 ] final -112.19 input  -65.29 | X-H torsion
[ 10718 10713 10712 10709 ] final  -30.06 input   66.30 | X-H torsion
[ 10763 10752 10751 10750 ] final  -41.60 input  -60.55 | X-H torsion
[ 11005 11000 10999 10996 ] final -169.96 input  -57.11 | X-H torsion

> <Gold.Protein.ActiveResidues>
 VAL166  LYS551  ARG553  GLY616  TRP617  ASP618  TYR619  PRO620  LYS621  CYS622 
 ASP623  PHE694  ASN695  SER759  ASP760  ASP761  ALA762  ILE779  LEU786  VAL792 
 PHE793  MET794  SER795  GLU796  ALA797  LYS798  CYS799  TRP800  GLU811  SER814 

> <Gold.Protein.RotatedAtoms>
  151.4805  135.1052  159.9776 H   0  0  0  0  0  0  0  0  0  0  0  0  # atno 6907 bound_to 6896
  152.4781  133.8183  159.7050 H   0  0  0  0  0  0  0  0  0  0  0  0  # atno 6908 bound_to 6896
  150.8833  133.7281  159.2952 H   0  0  0  0  0  0  0  0  0  0  0  0  # atno 6909 bound_to 6896
  145.9308  140.7751  142.9600 H   0  0  0  0  0  0  0  0  0  0  0  0  # atno 7974 bound_to 7965
  156.1291  140.1517  156.9093 H   0  0  0  0  0  0  0  0  0  0  0  0  # atno 8008 bound_to 7997
  154.4894  140.0855  156.7601 H   0  0  0  0  0  0  0  0  0  0  0  0  # atno 8009 bound_to 7997
  155.4290  140.3426  155.4280 H   0  0  0  0  0  0  0  0  0  0  0  0  # atno 8010 bound_to 7997
  140.1254  143.4407  152.1663 H   0  0  0  0  0  0  0  0  0  0  0  0  # atno 10167 bound_to 10162
  156.4046  130.4396  149.7297 H   0  0  0  0  0  0  0  0  0  0  0  0  # atno 10718 bound_to 10713
  153.9652  135.6735  153.4746 H   0  0  0  0  0  0  0  0  0  0  0  0  # atno 10763 bound_to 10752
  153.0819  135.4919  154.8517 H   0  0  0  0  0  0  0  0  0  0  0  0  # atno 10764 bound_to 10752
  154.7250  135.3125  154.8945 H   0  0  0  0  0  0  0  0  0  0  0  0  # atno 10765 bound_to 10752
  140.5248  134.5674  157.5058 H   0  0  0  0  0  0  0  0  0  0  0  0  # atno 11005 bound_to 11000
  144.6764  140.2124  143.7375 LP  0  0  0  0  0  0  0  0  0  0  0  0  # atno 17320 bound_to 7965
  145.8429  139.2138  143.1817 LP  0  0  0  0  0  0  0  0  0  0  0  0  # atno 17321 bound_to 7965
  139.5547  144.7364  151.4330 LP  0  0  0  0  0  0  0  0  0  0  0  0  # atno 17342 bound_to 10162
  140.6848  143.7999  150.7171 LP  0  0  0  0  0  0  0  0  0  0  0  0  # atno 17343 bound_to 10162
  156.4300  130.7810  151.2830 LP  0  0  0  0  0  0  0  0  0  0  0  0  # atno 17370 bound_to 10713
  157.7505  131.0157  150.3514 LP  0  0  0  0  0  0  0  0  0  0  0  0  # atno 17371 bound_to 10713
  139.9586  134.7492  156.0287 LP  0  0  0  0  0  0  0  0  0  0  0  0  # atno 17394 bound_to 11000
  141.1314  133.6585  156.3475 LP  0  0  0  0  0  0  0  0  0  0  0  0  # atno 17395 bound_to 11000

$$$$
