AV-unprocessed.smi:2100|AV-procd|sdf|8577|dock7
  -GOLD-   2272011303D 1   1.00000     0.00000
 Structure written by MMmdl.
 40 41  0  0  0  0  0  0  0  0  2 V2000
  153.6119  141.7029  161.3526 C   0  0  0  0  0  0  0  0  0  0  0  0
  153.2993  142.0606  159.8954 C   0  0  1  0  0  0  0  0  0  0  0  0
  152.5592  140.9236  159.1675 C   0  0  0  0  0  0  0  0  0  0  0  0
  152.1423  141.3413  157.8182 N   0  0  0  0  0  0  0  0  0  0  0  0
  151.6349  140.1154  156.6981 S   0  0  0  0  0  0  0  0  0  0  0  0
  151.1197  140.8234  155.5145 O   0  0  0  0  0  0  0  0  0  0  0  0
  152.7889  139.2200  156.5152 O   0  0  0  0  0  0  0  0  0  0  0  0
  150.4663  139.4763  157.6223 N   0  5  0  0  0  0  0  0  0  0  0  0
  149.1492  139.2644  157.0484 C   0  0  0  0  0  0  0  0  0  0  0  0
  148.2467  140.4797  157.3521 C   0  0  0  0  0  0  0  0  0  0  0  0
  147.6845  141.1696  156.1131 C   0  0  0  0  0  0  0  0  0  0  0  0
  146.6890  142.1661  156.2354 C   0  0  0  0  0  0  0  0  0  0  0  0
  146.1873  142.7667  155.0648 C   0  0  0  0  0  0  0  0  0  0  0  0
  146.6916  142.3499  153.8183 C   0  0  0  0  0  0  0  0  0  0  0  0
  147.6794  141.3456  153.7979 C   0  0  0  0  0  0  0  0  0  0  0  0
  148.1673  140.7624  154.9134 N   0  0  0  0  0  0  0  0  0  0  0  0
  151.4595  142.6457  157.7826 C   0  0  0  0  0  0  0  0  0  0  0  0
  152.2506  143.7053  158.5710 C   0  0  1  0  0  0  0  0  0  0  0  0
  151.4919  145.0333  158.6719 C   0  0  0  0  0  0  0  0  0  0  0  0
  152.4978  143.2343  159.8889 O   0  0  0  0  0  0  0  0  0  0  0  0
  154.2377  140.8122  161.4121 H   0  0  0  0  0  0  0  0  0  0  0  0
  152.6988  141.5090  161.9160 H   0  0  0  0  0  0  0  0  0  0  0  0
  154.1429  142.5159  161.8481 H   0  0  0  0  0  0  0  0  0  0  0  0
  154.2410  142.2677  159.3834 H   0  0  0  0  0  0  0  0  0  0  0  0
  153.2033  140.0470  159.0999 H   0  0  0  0  0  0  0  0  0  0  0  0
  151.6742  140.6269  159.7319 H   0  0  0  0  0  0  0  0  0  0  0  0
  149.2041  139.1252  155.9681 H   0  0  0  0  0  0  0  0  0  0  0  0
  148.6808  138.3626  157.4438 H   0  0  0  0  0  0  0  0  0  0  0  0
  147.4132  140.1705  157.9847 H   0  0  0  0  0  0  0  0  0  0  0  0
  148.8055  141.2163  157.9313 H   0  0  0  0  0  0  0  0  0  0  0  0
  146.3216  142.4653  157.2060 H   0  0  0  0  0  0  0  0  0  0  0  0
  145.4285  143.5330  155.1224 H   0  0  0  0  0  0  0  0  0  0  0  0
  146.3294  142.7882  152.9002 H   0  0  0  0  0  0  0  0  0  0  0  0
  148.0871  140.9998  152.8594 H   0  0  0  0  0  0  0  0  0  0  0  0
  151.3367  142.9696  156.7492 H   0  0  0  0  0  0  0  0  0  0  0  0
  150.4596  142.5299  158.2025 H   0  0  0  0  0  0  0  0  0  0  0  0
  153.2039  143.8924  158.0733 H   0  0  0  0  0  0  0  0  0  0  0  0
  151.2878  145.4444  157.6830 H   0  0  0  0  0  0  0  0  0  0  0  0
  152.0716  145.7720  159.2258 H   0  0  0  0  0  0  0  0  0  0  0  0
  150.5383  144.9051  159.1849 H   0  0  0  0  0  0  0  0  0  0  0  0
  1  2  1  0  0  0  0
  1 21  1  0  0  0  0
  1 22  1  0  0  0  0
  1 23  1  0  0  0  0
  2 20  1  0  0  0  0
  2  3  1  0  0  0  0
  2 24  1  0  0  0  0
  3  4  1  0  0  0  0
  3 25  1  0  0  0  0
  3 26  1  0  0  0  0
  4  5  1  0  0  0  0
  4 17  1  0  0  0  0
  5  6  2  0  0  0  0
  5  7  2  0  0  0  0
  5  8  1  0  0  0  0
  8  9  1  0  0  0  0
  9 10  1  0  0  0  0
  9 27  1  0  0  0  0
  9 28  1  0  0  0  0
 10 11  1  0  0  0  0
 10 29  1  0  0  0  0
 10 30  1  0  0  0  0
 11 16  1  0  0  0  0
 11 12  2  0  0  0  0
 12 13  1  0  0  0  0
 12 31  1  0  0  0  0
 13 14  2  0  0  0  0
 13 32  1  0  0  0  0
 14 15  1  0  0  0  0
 14 33  1  0  0  0  0
 15 16  2  0  0  0  0
 15 34  1  0  0  0  0
 17 18  1  0  0  0  0
 17 35  1  0  0  0  0
 17 36  1  0  0  0  0
 18 19  1  0  0  0  0
 18 20  1  0  0  0  0
 18 37  1  0  0  0  0
 19 38  1  0  0  0  0
 19 39  1  0  0  0  0
 19 40  1  0  0  0  0
M  CHG  1   8  -1
M  END
> <s_m_source_file>
AV-unprocessed.smi

> <i_m_source_file_index>
2100

> <i_lp_mmshare_version>
43012

> <i_f3d_flags>
0

> <s_epik_input>
W0NIM11bQ0BASF0xW0NIMl1OKFtDSDJdW0NASF0oTzEpW0NIM10pUyg9TykoPU8pW05IXVtDSDJdW0NIMl1jMltjSF1bY0hdW2NIXVtjSF1uMg==

> <s_epik_cmdline>
J2VwaWtfcHl0aG9uJywgJy1waCcsICc3LjAnLCAnLXRuJywgJzgnLCAnLW1hJywgJzIwMCcsICctbWV0YWxfYmluZGluZycsICctaW1hZScsICc8aW5maWxlLm1hZT4nLCAnLW9tYWUnLCAnPG91dGZpbGUubWFlPic=

> <r_epik_Ionization_Penalty>
1.27779

> <r_epik_Ionization_Penalty_Charging>
1.20871

> <r_epik_Ionization_Penalty_Neutral>
0.0690773

> <r_epik_State_Penalty>
1.64557

> <r_epik_Charging_Adjusted_Penalty>
2.85428

> <i_epik_Tot_Q>
-1

> <i_epik_Tot_abs_Q>
1

> <r_epik_Metal_State_Penalty>
0.643506

> <b_epik_Metal_Only>
0

> <s_lp_Force_Field>
OPLS_2005

> <r_lp_Energy>
4.91885

> <b_lp_Chiralities_Consistent>
1

> <s_lp_Variant>
AV-unprocessed.smi:2100-5

> <Gold.Version>
5.8.1

> <Gold.Id.Protein>
6NUR|6NUR_protein|mol2

> <Gold.PLP.Fitness>
45.5332

> <Gold.PLP.PLP>
-38.8192

> <Gold.PLP.part.hbond>
-2.0000

> <Gold.PLP.part.metal>
0.0000

> <Gold.PLP.part.buried>
-6.8233

> <Gold.PLP.part.nonpolar>
-29.0367

> <Gold.PLP.part.repulsive>
0.1338

> <Gold.PLP.ligand.clash>
0.0000

> <Gold.PLP.ligand.torsion>
2.2549

> <Gold.PLP.Chemscore.Hbond>
1.7088

> <Gold.PLP.Chemscore.CHOScore>
1.0000

> <Gold.PLP.Chemscore.Metal>
0.0000

> <Gold.Chemscore.Hbonds>
donor molecule, donor type, donor heavy atom, donor atom, acceptor molecule, acceptor atom, score
      P1  H  7989  7998       L1     6  0.67
      P1  H  7997  8008       L1     7  1.00
      L1  C    15    34       P1  7957  1.00

> <Gold.PLP.Chemscore.Internal.Correction>
3.0975

> <Gold.Rescore>
     Score         DG    S(hbond)    S(metal)    S(lipo)     H(rot)  DE(clash)    DE(int)     intcor
     16.07     -18.36       1.70        0.00      90.15       1.30       0.09       2.19       ----

> <Gold.Chemscore.Fitness>
16.0704

> <Gold.Chemscore.DG>
-18.3562

> <Gold.Chemscore.ZeroCoef>
-5.4800

> <Gold.Chemscore.Hbond>
1.6966

> <Gold.Chemscore.Metal>
0.0000

> <Gold.Chemscore.Lipo>
90.1505

> <Gold.Chemscore.Internal_Hbond>
0.0000

> <Gold.Chemscore.DEClash>
0.0933

> <Gold.Chemscore.DEInternal>
2.1924

> <Gold.Chemscore.Rot>
1.3039

> <Gold.Chemscore.Internal.Correction>
   9.000000E+99

> <Gold.Chemscore.Hbonds>
donor molecule, donor type, donor heavy atom, donor atom, acceptor molecule, acceptor atom, score
      P1  H  7989  7998       L1     6  0.66
      P1  H  7997  8008       L1     7  0.85

> <Gold.Chemscore.Hbond.Weighted>
-5.6665

> <Gold.Chemscore.Metal.Weighted>
-0.0000

> <Gold.Chemscore.Lipo.Weighted>
-10.5476

> <Gold.Chemscore.Internal_Hbond.Weighted>
0.0000

> <Gold.Chemscore.DEClash.Weighted>
0.0933

> <Gold.Chemscore.DEInternal.Weighted>
2.1924

> <Gold.Chemscore.Rot.Weighted>
3.3379

> <Gold.Chemscore.Internal.Correction.Weighted>
   9.000000E+99

> <Gold.Protein.RotatedTorsions>
[ 6907 6896 6895 6894 ] final   -3.95 input  -60.11 | X-H torsion
[ 7974 7965 7964 7962 ] final   -9.79 input  175.53 | X-H torsion
[ 8008 7997 7996 7995 ] final  -46.02 input   59.86 | X-H torsion
[ 10167 10162 10161 10158 ] final -138.10 input  -65.29 | X-H torsion
[ 10718 10713 10712 10709 ] final  135.36 input   66.30 | X-H torsion
[ 10763 10752 10751 10750 ] final  -92.61 input  -60.55 | X-H torsion
[ 11005 11000 10999 10996 ] final  -26.85 input  -57.11 | X-H torsion

> <Gold.Protein.ActiveResidues>
 VAL166  LYS551  ARG553  GLY616  TRP617  ASP618  TYR619  PRO620  LYS621  CYS622 
 ASP623  PHE694  ASN695  SER759  ASP760  ASP761  ALA762  ILE779  LEU786  VAL792 
 PHE793  MET794  SER795  GLU796  ALA797  LYS798  CYS799  TRP800  GLU811  SER814 

> <Gold.Protein.RotatedAtoms>
  151.5056  135.1063  159.9840 H   0  0  0  0  0  0  0  0  0  0  0  0  # atno 6907 bound_to 6896
  152.4683  133.7969  159.6942 H   0  0  0  0  0  0  0  0  0  0  0  0  # atno 6908 bound_to 6896
  150.8679  133.7485  159.2996 H   0  0  0  0  0  0  0  0  0  0  0  0  # atno 6909 bound_to 6896
  146.2241  140.2669  142.8354 H   0  0  0  0  0  0  0  0  0  0  0  0  # atno 7974 bound_to 7965
  154.4004  140.1382  156.3943 H   0  0  0  0  0  0  0  0  0  0  0  0  # atno 8008 bound_to 7997
  155.7885  140.3479  155.5315 H   0  0  0  0  0  0  0  0  0  0  0  0  # atno 8009 bound_to 7997
  155.8603  140.0955  157.1608 H   0  0  0  0  0  0  0  0  0  0  0  0  # atno 8010 bound_to 7997
  139.8511  143.7197  152.2658 H   0  0  0  0  0  0  0  0  0  0  0  0  # atno 10167 bound_to 10162
  157.4578  131.1071  150.9956 H   0  0  0  0  0  0  0  0  0  0  0  0  # atno 10718 bound_to 10713
  154.6878  135.5225  153.8350 H   0  0  0  0  0  0  0  0  0  0  0  0  # atno 10763 bound_to 10752
  153.0610  135.6568  154.0473 H   0  0  0  0  0  0  0  0  0  0  0  0  # atno 10764 bound_to 10752
  154.0351  135.2982  155.3343 H   0  0  0  0  0  0  0  0  0  0  0  0  # atno 10765 bound_to 10752
  140.9066  133.7488  156.0614 H   0  0  0  0  0  0  0  0  0  0  0  0  # atno 11005 bound_to 11000
  144.9297  140.7961  143.5697 LP  0  0  0  0  0  0  0  0  0  0  0  0  # atno 17320 bound_to 7965
  145.2611  139.1992  143.4891 LP  0  0  0  0  0  0  0  0  0  0  0  0  # atno 17321 bound_to 7965
  139.7464  144.7546  151.0573 LP  0  0  0  0  0  0  0  0  0  0  0  0  # atno 17342 bound_to 10162
  140.7787  143.4911  150.9892 LP  0  0  0  0  0  0  0  0  0  0  0  0  # atno 17343 bound_to 10162
  157.0764  130.5885  149.5412 LP  0  0  0  0  0  0  0  0  0  0  0  0  # atno 17370 bound_to 10713
  156.0015  130.5095  150.7679 LP  0  0  0  0  0  0  0  0  0  0  0  0  # atno 17371 bound_to 10713
  140.8163  134.3341  157.5396 LP  0  0  0  0  0  0  0  0  0  0  0  0  # atno 17394 bound_to 11000
  139.8750  134.9283  156.3448 LP  0  0  0  0  0  0  0  0  0  0  0  0  # atno 17395 bound_to 11000

$$$$
