AV-unprocessed.smi:729|AV-procd|sdf|3521|dock4
  -GOLD-   22720 0513D 1   1.00000     0.00000
 Structure written by MMmdl.
 21 21  0  0  0  0  0  0  0  0  2 V2000
  152.9361  140.1769  159.4143 C   0  0  0  0  0  0  0  0  0  0  0  0
  152.3768  141.4530  158.7988 C   0  0  0  0  0  0  0  0  0  0  0  0
  152.6725  142.6484  159.3600 C   0  0  0  0  0  0  0  0  0  0  0  0
  152.1453  143.9013  158.7921 C   0  0  0  0  0  0  0  0  0  0  0  0
  152.4031  144.9994  159.2816 O   0  0  0  0  0  0  0  0  0  0  0  0
  151.2936  143.7575  157.6033 C   0  0  0  0  0  0  0  0  0  0  0  0
  151.0560  142.5257  157.1130 C   0  0  0  0  0  0  0  0  0  0  0  0
  150.2863  142.3442  156.0293 O   0  0  0  0  0  0  0  0  0  0  0  0
  151.5630  141.3268  157.6513 N   0  0  0  0  0  0  0  0  0  0  0  0
  151.2296  140.0139  157.0735 C   0  0  0  0  0  0  0  0  0  0  0  0
  151.7861  139.7647  155.6678 C   0  0  0  0  0  0  0  0  0  0  0  0
  150.9645  139.7521  154.7251 O   0  0  0  0  0  0  0  0  0  0  0  0
  153.0184  139.5814  155.5577 O   0  5  0  0  0  0  0  0  0  0  0  0
  153.4186  140.3819  160.3703 H   0  0  0  0  0  0  0  0  0  0  0  0
  153.6833  139.7300  158.7584 H   0  0  0  0  0  0  0  0  0  0  0  0
  152.1506  139.4468  159.6059 H   0  0  0  0  0  0  0  0  0  0  0  0
  153.2991  142.7139  160.2375 H   0  0  0  0  0  0  0  0  0  0  0  0
  150.8760  144.6431  157.1469 H   0  0  0  0  0  0  0  0  0  0  0  0
  151.5775  139.2093  157.7209 H   0  0  0  0  0  0  0  0  0  0  0  0
  150.1494  139.8752  157.0531 H   0  0  0  0  0  0  0  0  0  0  0  0
  149.8542  143.1640  155.8461 H   0  0  0  0  0  0  0  0  0  0  0  0
  1  2  1  0  0  0  0
  1 14  1  0  0  0  0
  1 15  1  0  0  0  0
  1 16  1  0  0  0  0
  2  9  1  0  0  0  0
  2  3  2  0  0  0  0
  3  4  1  0  0  0  0
  3 17  1  0  0  0  0
  4  5  2  0  0  0  0
  4  6  1  0  0  0  0
  6  7  2  0  0  0  0
  6 18  1  0  0  0  0
  7  8  1  0  0  0  0
  7  9  1  0  0  0  0
  8 21  1  0  0  0  0
  9 10  1  0  0  0  0
 10 11  1  0  0  0  0
 10 19  1  0  0  0  0
 10 20  1  0  0  0  0
 11 12  2  0  0  0  0
 11 13  1  0  0  0  0
M  CHG  1  13  -1
M  END
> <s_m_source_file>
AV-unprocessed.smi

> <i_m_source_file_index>
729

> <i_lp_mmshare_version>
43012

> <i_f3d_flags>
0

> <s_epik_input>
W0NIM11jMVtjSF1jKFtPSF0pW2NIXWMoPU8pbjFbQ0gyXUMoPU8pW09IXQ==

> <s_epik_cmdline>
J2VwaWtfcHl0aG9uJywgJy1waCcsICc3LjAnLCAnLXRuJywgJzgnLCAnLW1hJywgJzIwMCcsICctbWV0YWxfYmluZGluZycsICctaW1hZScsICc8aW5maWxlLm1hZT4nLCAnLW9tYWUnLCAnPG91dGZpbGUubWFlPic=

> <r_epik_Ionization_Penalty>
0.00133656

> <r_epik_Ionization_Penalty_Charging>
0.00133656

> <r_epik_Ionization_Penalty_Neutral>
0

> <r_epik_State_Penalty>
1.59842

> <r_epik_Charging_Adjusted_Penalty>
1.59975

> <i_epik_Tot_Q>
-1

> <i_epik_Tot_abs_Q>
1

> <r_epik_Metal_State_Penalty>
1.59842

> <b_epik_Metal_Only>
0

> <s_lp_Force_Field>
OPLS_2005

> <r_lp_Energy>
2.46832

> <b_lp_Chiralities_Consistent>
1

> <s_lp_Variant>
AV-unprocessed.smi:729-3

> <Gold.Version>
5.8.1

> <Gold.Id.Protein>
6NUR|6NUR_protein|mol2

> <Gold.PLP.Fitness>
40.6476

> <Gold.PLP.PLP>
-28.9451

> <Gold.PLP.part.hbond>
-3.0000

> <Gold.PLP.part.metal>
0.0000

> <Gold.PLP.part.buried>
-2.6013

> <Gold.PLP.part.nonpolar>
-22.9694

> <Gold.PLP.part.repulsive>
0.1023

> <Gold.PLP.ligand.clash>
0.0000

> <Gold.PLP.ligand.torsion>
0.1498

> <Gold.PLP.Chemscore.Hbond>
4.0000

> <Gold.PLP.Chemscore.CHOScore>
0.0000

> <Gold.PLP.Chemscore.Metal>
0.0000

> <Gold.Chemscore.Hbonds>
donor molecule, donor type, donor heavy atom, donor atom, acceptor molecule, acceptor atom, score
      L1  H     8    21       P1  8028  1.00
      P1  H  7989  7998       L1    12  1.00
      P1  H  7997  8009       L1    13  2.00

> <Gold.PLP.Chemscore.Internal.Correction>
0.0022

> <Gold.Rescore>
     Score         DG    S(hbond)    S(metal)    S(lipo)     H(rot)  DE(clash)    DE(int)     intcor
     14.46     -14.82       2.96        0.00      43.38       2.20       0.00       0.36       ----

> <Gold.Chemscore.Fitness>
14.4631

> <Gold.Chemscore.DG>
-14.8236

> <Gold.Chemscore.ZeroCoef>
-5.4800

> <Gold.Chemscore.Hbond>
2.9645

> <Gold.Chemscore.Metal>
0.0000

> <Gold.Chemscore.Lipo>
43.3819

> <Gold.Chemscore.Internal_Hbond>
0.0000

> <Gold.Chemscore.DEClash>
0.0009

> <Gold.Chemscore.DEInternal>
0.3596

> <Gold.Chemscore.Rot>
2.2006

> <Gold.Chemscore.Internal.Correction>
   9.000000E+99

> <Gold.Chemscore.Hbonds>
donor molecule, donor type, donor heavy atom, donor atom, acceptor molecule, acceptor atom, score
      L1  H     8    21       P1  8028  1.00
      P1  H  7989  7998       L1    12  0.50
      P1  H  7997  8009       L1    13  0.97

> <Gold.Chemscore.Hbond.Weighted>
-9.9014

> <Gold.Chemscore.Metal.Weighted>
-0.0000

> <Gold.Chemscore.Lipo.Weighted>
-5.0757

> <Gold.Chemscore.Internal_Hbond.Weighted>
0.0000

> <Gold.Chemscore.DEClash.Weighted>
0.0009

> <Gold.Chemscore.DEInternal.Weighted>
0.3596

> <Gold.Chemscore.Rot.Weighted>
5.6335

> <Gold.Chemscore.Internal.Correction.Weighted>
   9.000000E+99

> <Gold.Protein.RotatedTorsions>
[ 6907 6896 6895 6894 ] final   -4.71 input  -60.11 | X-H torsion
[ 7974 7965 7964 7962 ] final -133.98 input  175.53 | X-H torsion
[ 8008 7997 7996 7995 ] final -143.40 input   59.86 | X-H torsion
[ 10167 10162 10161 10158 ] final  -42.11 input  -65.29 | X-H torsion
[ 10718 10713 10712 10709 ] final  -73.61 input   66.30 | X-H torsion
[ 10763 10752 10751 10750 ] final  -19.03 input  -60.55 | X-H torsion
[ 11005 11000 10999 10996 ] final -159.43 input  -57.11 | X-H torsion

> <Gold.Protein.ActiveResidues>
 VAL166  LYS551  ARG553  GLY616  TRP617  ASP618  TYR619  PRO620  LYS621  CYS622 
 ASP623  PHE694  ASN695  SER759  ASP760  ASP761  ALA762  ILE779  LEU786  VAL792 
 PHE793  MET794  SER795  GLU796  ALA797  LYS798  CYS799  TRP800  GLU811  SER814 

> <Gold.Protein.RotatedAtoms>
  151.4932  135.1058  159.9808 H   0  0  0  0  0  0  0  0  0  0  0  0  # atno 6907 bound_to 6896
  152.4732  133.8074  159.6995 H   0  0  0  0  0  0  0  0  0  0  0  0  # atno 6908 bound_to 6896
  150.8754  133.7384  159.2974 H   0  0  0  0  0  0  0  0  0  0  0  0  # atno 6909 bound_to 6896
  144.9143  140.6935  143.5005 H   0  0  0  0  0  0  0  0  0  0  0  0  # atno 7974 bound_to 7965
  155.5099  140.0582  157.2925 H   0  0  0  0  0  0  0  0  0  0  0  0  # atno 8008 bound_to 7997
  154.4556  140.1971  156.0339 H   0  0  0  0  0  0  0  0  0  0  0  0  # atno 8009 bound_to 7997
  156.0791  140.3249  155.7675 H   0  0  0  0  0  0  0  0  0  0  0  0  # atno 8010 bound_to 7997
  140.6980  143.3056  151.3162 H   0  0  0  0  0  0  0  0  0  0  0  0  # atno 10167 bound_to 10162
  156.0274  130.4398  150.2767 H   0  0  0  0  0  0  0  0  0  0  0  0  # atno 10718 bound_to 10713
  153.5985  135.7000  153.5394 H   0  0  0  0  0  0  0  0  0  0  0  0  # atno 10763 bound_to 10752
  153.3117  135.4099  155.1341 H   0  0  0  0  0  0  0  0  0  0  0  0  # atno 10764 bound_to 10752
  154.8587  135.3674  154.5520 H   0  0  0  0  0  0  0  0  0  0  0  0  # atno 10765 bound_to 10752
  140.6426  134.4535  157.5233 H   0  0  0  0  0  0  0  0  0  0  0  0  # atno 11005 bound_to 11000
  145.3401  139.1734  143.4490 LP  0  0  0  0  0  0  0  0  0  0  0  0  # atno 17320 bound_to 7965
  146.3174  140.3441  142.8650 LP  0  0  0  0  0  0  0  0  0  0  0  0  # atno 17321 bound_to 7965
  139.6461  144.0449  152.2591 LP  0  0  0  0  0  0  0  0  0  0  0  0  # atno 17342 bound_to 10162
  139.9970  144.6321  150.7763 LP  0  0  0  0  0  0  0  0  0  0  0  0  # atno 17343 bound_to 10162
  157.0871  131.0159  151.3135 LP  0  0  0  0  0  0  0  0  0  0  0  0  # atno 17370 bound_to 10713
  157.4883  130.7806  149.7482 LP  0  0  0  0  0  0  0  0  0  0  0  0  # atno 17371 bound_to 10713
  139.9074  134.8418  156.1653 LP  0  0  0  0  0  0  0  0  0  0  0  0  # atno 17394 bound_to 11000
  141.0595  133.6848  156.1926 LP  0  0  0  0  0  0  0  0  0  0  0  0  # atno 17395 bound_to 11000

$$$$
