AV-unprocessed.smi:3085|AV-procd|sdf|11752|dock6
  -GOLD-   2272017143D 1   1.00000     0.00000
 Structure written by MMmdl.
 28 29  0  0  0  0  0  0  0  0  2 V2000
  144.1503  134.4709  156.3882 C   0  0  0  0  0  0  0  0  0  0  0  0
  145.5620  133.9526  156.0917 C   0  0  0  0  0  0  0  0  0  0  0  0
  145.9552  134.1688  154.6678 C   0  0  0  0  0  0  0  0  0  0  0  0
  145.2416  133.6611  153.6178 N   0  0  0  0  0  0  0  0  0  0  0  0
  145.9416  134.1491  152.5980 C   0  0  0  0  0  0  0  0  0  0  0  0
  145.6296  133.9361  151.1503 C   0  0  2  0  0  0  0  0  0  0  0  0
  144.2371  134.4712  150.7638 C   0  0  0  0  0  0  0  0  0  0  0  0
  143.9449  134.1455  149.3543 N   0  3  0  0  0  0  0  0  0  0  0  0
  144.0812  132.6985  149.0954 C   0  0  0  0  0  0  0  0  0  0  0  0
  145.4722  132.2106  149.5373 C   0  0  0  0  0  0  0  0  0  0  0  0
  145.6811  132.5320  150.9088 O   0  0  0  0  0  0  0  0  0  0  0  0
  146.9726  134.8958  153.0003 N   0  0  0  0  0  0  0  0  0  0  0  0
  146.9999  134.9316  154.3490 N   0  0  0  0  0  0  0  0  0  0  0  0
  147.6458  135.3799  152.4236 H   0  0  0  0  0  0  0  0  0  0  0  0
  143.8880  134.3083  157.4337 H   0  0  0  0  0  0  0  0  0  0  0  0
  143.4074  133.9609  155.7744 H   0  0  0  0  0  0  0  0  0  0  0  0
  144.0738  135.5401  156.1880 H   0  0  0  0  0  0  0  0  0  0  0  0
  146.2829  134.4483  156.7431 H   0  0  0  0  0  0  0  0  0  0  0  0
  145.6209  132.8878  156.3198 H   0  0  0  0  0  0  0  0  0  0  0  0
  146.3997  134.4307  150.5545 H   0  0  0  0  0  0  0  0  0  0  0  0
  143.4675  134.0268  151.3967 H   0  0  0  0  0  0  0  0  0  0  0  0
  144.1853  135.5513  150.9042 H   0  0  0  0  0  0  0  0  0  0  0  0
  143.0054  134.4406  149.1282 H   0  0  0  0  0  0  0  0  0  0  0  0
  143.3036  132.1620  149.6405 H   0  0  0  0  0  0  0  0  0  0  0  0
  143.9235  132.5032  148.0344 H   0  0  0  0  0  0  0  0  0  0  0  0
  145.5502  131.1305  149.4111 H   0  0  0  0  0  0  0  0  0  0  0  0
  146.2550  132.6602  148.9245 H   0  0  0  0  0  0  0  0  0  0  0  0
  144.5971  134.6426  148.7647 H   0  0  0  0  0  0  0  0  0  0  0  0
  1  2  1  0  0  0  0
  1 15  1  0  0  0  0
  1 16  1  0  0  0  0
  1 17  1  0  0  0  0
  2 18  1  0  0  0  0
  2 19  1  0  0  0  0
  2  3  1  0  0  0  0
  3  4  1  0  0  0  0
  3 13  2  0  0  0  0
  4  5  2  0  0  0  0
  5  6  1  0  0  0  0
  5 12  1  0  0  0  0
  6 11  1  0  0  0  0
  6  7  1  0  0  0  0
  6 20  1  0  0  0  0
  7  8  1  0  0  0  0
  7 21  1  0  0  0  0
  7 22  1  0  0  0  0
  8  9  1  0  0  0  0
  8 23  1  0  0  0  0
  8 28  1  0  0  0  0
  9 10  1  0  0  0  0
  9 24  1  0  0  0  0
  9 25  1  0  0  0  0
 10 11  1  0  0  0  0
 10 26  1  0  0  0  0
 10 27  1  0  0  0  0
 12 13  1  0  0  0  0
 12 14  1  0  0  0  0
M  CHG  1   8   1
M  END
> <s_m_source_file>
AV-unprocessed.smi

> <i_m_source_file_index>
3085

> <i_lp_mmshare_version>
43012

> <i_f3d_flags>
0

> <s_epik_input>
W0NIM11bQ0gyXWMxbmMobltuSF0xKVtDQEBIXTJbQ0gyXVtOSF1bQ0gyXVtDSDJdTzI=

> <s_epik_cmdline>
J2VwaWtfcHl0aG9uJywgJy1waCcsICc3LjAnLCAnLXRuJywgJzgnLCAnLW1hJywgJzIwMCcsICctbWV0YWxfYmluZGluZycsICctaW1hZScsICc8aW5maWxlLm1hZT4nLCAnLW9tYWUnLCAnPG91dGZpbGUubWFlPic=

> <r_epik_Ionization_Penalty>
0.162344

> <r_epik_Ionization_Penalty_Charging>
0.125708

> <r_epik_Ionization_Penalty_Neutral>
0.0366364

> <r_epik_State_Penalty>
0.637958

> <r_epik_Charging_Adjusted_Penalty>
0.763666

> <i_epik_Tot_Q>
1

> <i_epik_Tot_abs_Q>
1

> <r_epik_Metal_State_Penalty>
0.860091

> <b_epik_Metal_Only>
0

> <s_lp_Force_Field>
OPLS_2005

> <r_lp_Energy>
9.17309

> <b_lp_Chiralities_Consistent>
1

> <s_lp_Variant>
AV-unprocessed.smi:3085-3

> <Gold.Version>
5.8.1

> <Gold.Id.Protein>
6NUR|6NUR_protein|mol2

> <Gold.PLP.Fitness>
30.7315

> <Gold.PLP.PLP>
-18.7326

> <Gold.PLP.part.hbond>
-3.0000

> <Gold.PLP.part.metal>
0.0000

> <Gold.PLP.part.buried>
-4.1412

> <Gold.PLP.part.nonpolar>
-12.2692

> <Gold.PLP.part.repulsive>
0.4069

> <Gold.PLP.ligand.clash>
0.0000

> <Gold.PLP.ligand.torsion>
0.0043

> <Gold.PLP.Chemscore.Hbond>
4.0000

> <Gold.PLP.Chemscore.CHOScore>
0.0000

> <Gold.PLP.Chemscore.Metal>
0.0000

> <Gold.Chemscore.Hbonds>
donor molecule, donor type, donor heavy atom, donor atom, acceptor molecule, acceptor atom, score
      L1  H     8    23       P1 10186  2.00
      L1  H     8    28       P1  7921  1.00
      L1  H    12    14       P1  7948  1.00

> <Gold.PLP.Chemscore.Internal.Correction>
0.0075

> <Gold.Rescore>
     Score         DG    S(hbond)    S(metal)    S(lipo)     H(rot)  DE(clash)    DE(int)     intcor
     16.54     -16.55       2.91        0.00      39.86       1.30       0.00       0.01       ----

> <Gold.Chemscore.Fitness>
16.5406

> <Gold.Chemscore.DG>
-16.5456

> <Gold.Chemscore.ZeroCoef>
-5.4800

> <Gold.Chemscore.Hbond>
2.9139

> <Gold.Chemscore.Metal>
0.0000

> <Gold.Chemscore.Lipo>
39.8632

> <Gold.Chemscore.Internal_Hbond>
0.0000

> <Gold.Chemscore.DEClash>
0.0000

> <Gold.Chemscore.DEInternal>
0.0051

> <Gold.Chemscore.Rot>
1.3011

> <Gold.Chemscore.Internal.Correction>
   9.000000E+99

> <Gold.Chemscore.Hbonds>
donor molecule, donor type, donor heavy atom, donor atom, acceptor molecule, acceptor atom, score
      L1  H     8    23       P1 10186  0.88
      L1  H     8    28       P1  7921  0.98
      L1  H    12    14       P1  7948  0.99

> <Gold.Chemscore.Hbond.Weighted>
-9.7325

> <Gold.Chemscore.Metal.Weighted>
-0.0000

> <Gold.Chemscore.Lipo.Weighted>
-4.6640

> <Gold.Chemscore.Internal_Hbond.Weighted>
0.0000

> <Gold.Chemscore.DEClash.Weighted>
0.0000

> <Gold.Chemscore.DEInternal.Weighted>
0.0051

> <Gold.Chemscore.Rot.Weighted>
3.3308

> <Gold.Chemscore.Internal.Correction.Weighted>
   9.000000E+99

> <Gold.Protein.RotatedTorsions>
[ 6907 6896 6895 6894 ] final  100.92 input  -60.11 | X-H torsion
[ 7974 7965 7964 7962 ] final -124.90 input  175.53 | X-H torsion
[ 8008 7997 7996 7995 ] final -161.22 input   59.86 | X-H torsion
[ 10167 10162 10161 10158 ] final -110.77 input  -65.29 | X-H torsion
[ 10718 10713 10712 10709 ] final   93.22 input   66.30 | X-H torsion
[ 10763 10752 10751 10750 ] final   -9.27 input  -60.55 | X-H torsion
[ 11005 11000 10999 10996 ] final  -94.33 input  -57.11 | X-H torsion

> <Gold.Protein.ActiveResidues>
 VAL166  LYS551  ARG553  GLY616  TRP617  ASP618  TYR619  PRO620  LYS621  CYS622 
 ASP623  PHE694  ASN695  SER759  ASP760  ASP761  ALA762  ILE779  LEU786  VAL792 
 PHE793  MET794  SER795  GLU796  ALA797  LYS798  CYS799  TRP800  GLU811  SER814 

> <Gold.Protein.RotatedAtoms>
  152.5361  134.0203  159.7978 H   0  0  0  0  0  0  0  0  0  0  0  0  # atno 6907 bound_to 6896
  151.0391  133.5714  159.2660 H   0  0  0  0  0  0  0  0  0  0  0  0  # atno 6908 bound_to 6896
  151.2691  135.0686  159.9181 H   0  0  0  0  0  0  0  0  0  0  0  0  # atno 6909 bound_to 6896
  145.0032  140.7839  143.4483 H   0  0  0  0  0  0  0  0  0  0  0  0  # atno 7974 bound_to 7965
  155.7890  140.0875  157.2019 H   0  0  0  0  0  0  0  0  0  0  0  0  # atno 8008 bound_to 7997
  154.3986  140.1493  156.3199 H   0  0  0  0  0  0  0  0  0  0  0  0  # atno 8009 bound_to 7997
  155.8577  140.3431  155.5738 H   0  0  0  0  0  0  0  0  0  0  0  0  # atno 8010 bound_to 7997
  140.1408  143.4281  152.1563 H   0  0  0  0  0  0  0  0  0  0  0  0  # atno 10167 bound_to 10162
  157.6955  131.0470  150.4000 H   0  0  0  0  0  0  0  0  0  0  0  0  # atno 10718 bound_to 10713
  153.4524  135.7015  153.6101 H   0  0  0  0  0  0  0  0  0  0  0  0  # atno 10763 bound_to 10752
  153.4430  135.3776  155.2239 H   0  0  0  0  0  0  0  0  0  0  0  0  # atno 10764 bound_to 10752
  154.8728  135.3978  154.3938 H   0  0  0  0  0  0  0  0  0  0  0  0  # atno 10765 bound_to 10752
  141.1473  133.7949  157.0283 H   0  0  0  0  0  0  0  0  0  0  0  0  # atno 11005 bound_to 11000
  145.2124  139.2198  143.5136 LP  0  0  0  0  0  0  0  0  0  0  0  0  # atno 17320 bound_to 7965
  146.3456  140.1965  142.8589 LP  0  0  0  0  0  0  0  0  0  0  0  0  # atno 17321 bound_to 7965
  139.5473  144.7309  151.4544 LP  0  0  0  0  0  0  0  0  0  0  0  0  # atno 17342 bound_to 10162
  140.6761  143.8186  150.7061 LP  0  0  0  0  0  0  0  0  0  0  0  0  # atno 17343 bound_to 10162
  156.4395  130.3988  149.6707 LP  0  0  0  0  0  0  0  0  0  0  0  0  # atno 17370 bound_to 10713
  156.3896  130.7620  151.2620 LP  0  0  0  0  0  0  0  0  0  0  0  0  # atno 17371 bound_to 10713
  140.0771  134.9670  157.1563 LP  0  0  0  0  0  0  0  0  0  0  0  0  # atno 17394 bound_to 11000
  140.3629  134.2474  155.7185 LP  0  0  0  0  0  0  0  0  0  0  0  0  # atno 17395 bound_to 11000

$$$$
