AV-unprocessed.smi:227|AV-procd|sdf|1731|dock9
  -GOLD-   2262020223D 1   1.00000     0.00000
 Structure written by MMmdl.
 54 58  0  0  0  0  0  0  0  0  1 V2000
  148.8924  142.2387  154.1311 O   0  0  0  0  0  0  0  0  0  0  0  0
  147.8633  141.3139  153.8408 C   0  0  0  0  0  0  0  0  0  0  0  0
  148.0536  139.9756  154.6025 C   0  0  2  0  0  0  0  0  0  0  0  0
  149.5416  139.5385  154.6724 C   0  0  0  0  0  0  0  0  0  0  0  0
  150.2590  140.0843  155.8099 N   0  0  0  0  0  0  0  0  0  0  0  0
  151.5728  139.8489  156.1402 C   0  0  0  0  0  0  0  0  0  0  0  0
  151.9833  140.4371  157.2299 N   0  0  0  0  0  0  0  0  0  0  0  0
  150.8679  141.1278  157.6908 C   0  0  0  0  0  0  0  0  0  0  0  0
  150.5964  141.9417  158.8293 C   0  0  0  0  0  0  0  0  0  0  0  0
  151.5028  142.2001  159.8110 N   0  0  0  0  0  0  0  0  0  0  0  0
  152.9308  142.0561  159.5716 C   0  0  2  0  0  0  0  0  0  0  0  0
  153.5158  142.2211  160.9847 C   0  0  0  0  0  0  0  0  0  0  0  0
  152.5522  143.2558  161.5894 C   0  0  0  0  0  0  0  0  0  0  0  0
  151.6131  143.5275  160.4001 C   0  0  1  0  0  0  0  0  0  0  0  0
  152.3818  144.3740  159.3533 C   0  0  2  0  0  0  0  0  0  0  0  0
  151.4777  145.1050  158.3410 C   0  0  0  0  0  0  0  0  0  0  0  0
  150.3528  145.6497  158.9973 O   0  0  0  0  0  0  0  0  0  0  0  0
  153.2899  143.2963  158.7264 C   0  0  0  0  0  0  0  0  0  0  0  0
  149.3544  142.4876  158.9208 N   0  0  0  0  0  0  0  0  0  0  0  0
  148.4291  142.2303  157.9928 C   0  0  0  0  0  0  0  0  0  0  0  0
  148.5310  141.4677  156.9037 N   0  0  0  0  0  0  0  0  0  0  0  0
  149.7808  140.9349  156.7908 C   0  0  0  0  0  0  0  0  0  0  0  0
  147.1937  138.8454  153.9774 C   0  0  2  0  0  0  0  0  0  0  0  0
  146.4370  139.2310  152.7160 C   0  0  0  0  0  0  0  0  0  0  0  0
  145.3681  138.1471  152.6280 C   0  0  0  0  0  0  0  0  0  0  0  0
  145.0774  137.7800  153.9711 O   0  0  0  0  0  0  0  0  0  0  0  0
  146.0281  138.3677  154.8522 C   0  0  0  0  0  0  0  0  0  0  0  0
  148.5557  142.8845  154.7338 H   0  0  0  0  0  0  0  0  0  0  0  0
  146.9322  141.8034  154.1198 H   0  0  0  0  0  0  0  0  0  0  0  0
  147.8145  141.1438  152.7647 H   0  0  0  0  0  0  0  0  0  0  0  0
  147.6981  140.1208  155.6241 H   0  0  0  0  0  0  0  0  0  0  0  0
  149.6221  138.4532  154.7311 H   0  0  0  0  0  0  0  0  0  0  0  0
  150.0614  139.8348  153.7607 H   0  0  0  0  0  0  0  0  0  0  0  0
  152.2168  139.2136  155.5497 H   0  0  0  0  0  0  0  0  0  0  0  0
  153.2268  141.1151  159.1064 H   0  0  0  0  0  0  0  0  0  0  0  0
  153.4697  141.2834  161.5397 H   0  0  0  0  0  0  0  0  0  0  0  0
  154.5522  142.5606  160.9737 H   0  0  0  0  0  0  0  0  0  0  0  0
  152.0018  142.8214  162.4251 H   0  0  0  0  0  0  0  0  0  0  0  0
  153.0591  144.1514  161.9500 H   0  0  0  0  0  0  0  0  0  0  0  0
  150.6799  143.9836  160.7250 H   0  0  0  0  0  0  0  0  0  0  0  0
  152.9838  145.1253  159.8675 H   0  0  0  0  0  0  0  0  0  0  0  0
  152.0055  145.9098  157.8307 H   0  0  0  0  0  0  0  0  0  0  0  0
  151.1296  144.4122  157.5744 H   0  0  0  0  0  0  0  0  0  0  0  0
  149.6134  145.6096  158.4102 H   0  0  0  0  0  0  0  0  0  0  0  0
  154.3485  143.5522  158.7829 H   0  0  0  0  0  0  0  0  0  0  0  0
  153.0452  143.1319  157.6760 H   0  0  0  0  0  0  0  0  0  0  0  0
  147.4682  142.6977  158.1487 H   0  0  0  0  0  0  0  0  0  0  0  0
  147.8305  137.9884  153.7510 H   0  0  0  0  0  0  0  0  0  0  0  0
  145.9678  140.2086  152.8364 H   0  0  0  0  0  0  0  0  0  0  0  0
  147.0609  139.2592  151.8227 H   0  0  0  0  0  0  0  0  0  0  0  0
  144.4745  138.4863  152.1039 H   0  0  0  0  0  0  0  0  0  0  0  0
  145.7562  137.2717  152.1062 H   0  0  0  0  0  0  0  0  0  0  0  0
  146.3412  137.6543  155.6149 H   0  0  0  0  0  0  0  0  0  0  0  0
  145.5507  139.2104  155.3546 H   0  0  0  0  0  0  0  0  0  0  0  0
  1  2  1  0  0  0  0
  1 28  1  0  0  0  0
  2  3  1  0  0  0  0
  2 29  1  0  0  0  0
  2 30  1  0  0  0  0
  3  4  1  0  0  0  0
  3 23  1  0  0  0  0
  3 31  1  0  0  0  0
  4  5  1  0  0  0  0
  4 32  1  0  0  0  0
  4 33  1  0  0  0  0
  5 22  1  0  0  0  0
  5  6  1  0  0  0  0
  6  7  2  0  0  0  0
  6 34  1  0  0  0  0
  7  8  1  0  0  0  0
  8 22  2  0  0  0  0
  8  9  1  0  0  0  0
  9 10  1  0  0  0  0
  9 19  2  0  0  0  0
 10 14  1  0  0  0  0
 10 11  1  0  0  0  0
 11 18  1  0  0  0  0
 11 12  1  0  0  0  0
 11 35  1  0  0  0  0
 12 13  1  0  0  0  0
 12 36  1  0  0  0  0
 12 37  1  0  0  0  0
 13 14  1  0  0  0  0
 13 38  1  0  0  0  0
 13 39  1  0  0  0  0
 14 15  1  0  0  0  0
 14 40  1  0  0  0  0
 15 16  1  0  0  0  0
 15 18  1  0  0  0  0
 15 41  1  0  0  0  0
 16 17  1  0  0  0  0
 16 42  1  0  0  0  0
 16 43  1  0  0  0  0
 17 44  1  0  0  0  0
 18 45  1  0  0  0  0
 18 46  1  0  0  0  0
 19 20  1  0  0  0  0
 20 21  2  0  0  0  0
 20 47  1  0  0  0  0
 21 22  1  0  0  0  0
 23 27  1  0  0  0  0
 23 24  1  0  0  0  0
 23 48  1  0  0  0  0
 24 25  1  0  0  0  0
 24 49  1  0  0  0  0
 24 50  1  0  0  0  0
 25 26  1  0  0  0  0
 25 51  1  0  0  0  0
 25 52  1  0  0  0  0
 26 27  1  0  0  0  0
 27 53  1  0  0  0  0
 27 54  1  0  0  0  0
M  END
> <s_m_source_file>
AV-unprocessed.smi

> <i_m_source_file_index>
227

> <i_lp_mmshare_version>
43012

> <i_f3d_flags>
0

> <s_epik_input>
W0NIMl0xT1tDSDJdW0NIMl1bQ0BIXTFbQ0BIXShbQ0gyXVtPSF0pW0NIMl1uKFtjSF1uMiljKGMyMyluW2NIXW5jM04oW0NASF00NSlbQ0BASF0oW0NIMl1bQ0gyXTQpW0NASF0oW0NIMl01KVtDSDJdW09IXQ==

> <s_epik_cmdline>
J2VwaWtfcHl0aG9uJywgJy1waCcsICc3LjAnLCAnLXRuJywgJzgnLCAnLW1hJywgJzIwMCcsICctbWV0YWxfYmluZGluZycsICctaW1hZScsICc8aW5maWxlLm1hZT4nLCAnLW9tYWUnLCAnPG91dGZpbGUubWFlPic=

> <r_lp_tautomer_probability>
1

> <r_epik_Ionization_Penalty>
0.0055791

> <r_epik_Ionization_Penalty_Charging>
0

> <r_epik_Ionization_Penalty_Neutral>
0.0055791

> <r_epik_State_Penalty>
0.00401299

> <r_epik_Charging_Adjusted_Penalty>
0.00401299

> <i_epik_Tot_Q>
0

> <i_epik_Tot_abs_Q>
0

> <r_epik_Metal_State_Penalty>
-0

> <b_epik_Metal_Only>
0

> <s_lp_Force_Field>
OPLS_2005

> <r_lp_Energy>
88.0051

> <b_lp_Chiralities_Consistent>
1

> <s_lp_Variant>
AV-unprocessed.smi:227-5

> <Gold.Version>
5.8.1

> <Gold.Id.Protein>
6NUR|6NUR_protein|mol2

> <Gold.PLP.Fitness>
53.6497

> <Gold.PLP.PLP>
-53.2025

> <Gold.PLP.part.hbond>
-6.1264

> <Gold.PLP.part.metal>
0.0000

> <Gold.PLP.part.buried>
-2.2348

> <Gold.PLP.part.nonpolar>
-45.3989

> <Gold.PLP.part.repulsive>
0.3025

> <Gold.PLP.ligand.clash>
0.0000

> <Gold.PLP.ligand.torsion>
2.8047

> <Gold.PLP.Chemscore.Hbond>
1.9539

> <Gold.PLP.Chemscore.CHOScore>
0.0000

> <Gold.PLP.Chemscore.Metal>
0.0000

> <Gold.Chemscore.Hbonds>
donor molecule, donor type, donor heavy atom, donor atom, acceptor molecule, acceptor atom, score
      L1  H     1    28       P1  8028  0.86
      L1  H    17    44       P1  8029  0.89
      P1  H  8011  8017       L1     1  0.27

> <Gold.PLP.Chemscore.Internal.Correction>
0.1949

> <Gold.Rescore>
     Score         DG    S(hbond)    S(metal)    S(lipo)     H(rot)  DE(clash)    DE(int)     intcor
     10.13     -15.83       1.39        0.00     127.73       3.61       0.41       5.29       ----

> <Gold.Chemscore.Fitness>
10.1324

> <Gold.Chemscore.DG>
-15.8319

> <Gold.Chemscore.ZeroCoef>
-5.4800

> <Gold.Chemscore.Hbond>
1.3897

> <Gold.Chemscore.Metal>
0.0000

> <Gold.Chemscore.Lipo>
127.7295

> <Gold.Chemscore.Internal_Hbond>
0.0000

> <Gold.Chemscore.DEClash>
0.4103

> <Gold.Chemscore.DEInternal>
5.2892

> <Gold.Chemscore.Rot>
3.6071

> <Gold.Chemscore.Internal.Correction>
   9.000000E+99

> <Gold.Chemscore.Hbonds>
donor molecule, donor type, donor heavy atom, donor atom, acceptor molecule, acceptor atom, score
      L1  H     1    28       P1  8028  0.79
      L1  H    17    44       P1  8029  0.68
      P1  H  8011  8017       L1     1  0.09

> <Gold.Chemscore.Hbond.Weighted>
-4.6417

> <Gold.Chemscore.Metal.Weighted>
-0.0000

> <Gold.Chemscore.Lipo.Weighted>
-14.9444

> <Gold.Chemscore.Internal_Hbond.Weighted>
0.0000

> <Gold.Chemscore.DEClash.Weighted>
0.4103

> <Gold.Chemscore.DEInternal.Weighted>
5.2892

> <Gold.Chemscore.Rot.Weighted>
9.2342

> <Gold.Chemscore.Internal.Correction.Weighted>
   9.000000E+99

> <Gold.Protein.RotatedTorsions>
[ 6907 6896 6895 6894 ] final   48.20 input  -60.11 | X-H torsion
[ 7974 7965 7964 7962 ] final  156.12 input  175.53 | X-H torsion
[ 8008 7997 7996 7995 ] final   68.46 input   59.86 | X-H torsion
[ 10167 10162 10161 10158 ] final    1.24 input  -65.29 | X-H torsion
[ 10718 10713 10712 10709 ] final  -71.25 input   66.30 | X-H torsion
[ 10763 10752 10751 10750 ] final   46.67 input  -60.55 | X-H torsion
[ 11005 11000 10999 10996 ] final  114.99 input  -57.11 | X-H torsion

> <Gold.Protein.ActiveResidues>
 VAL166  LYS551  ARG553  GLY616  TRP617  ASP618  TYR619  PRO620  LYS621  CYS622 
 ASP623  PHE694  ASN695  SER759  ASP760  ASP761  ALA762  ILE779  LEU786  VAL792 
 PHE793  MET794  SER795  GLU796  ALA797  LYS798  CYS799  TRP800  GLU811  SER814 

> <Gold.Protein.RotatedAtoms>
  152.2768  134.7872  160.0403 H   0  0  0  0  0  0  0  0  0  0  0  0  # atno 6907 bound_to 6896
  151.8466  133.3427  159.3668 H   0  0  0  0  0  0  0  0  0  0  0  0  # atno 6908 bound_to 6896
  150.7173  134.5268  159.5725 H   0  0  0  0  0  0  0  0  0  0  0  0  # atno 6909 bound_to 6896
  144.7982  139.7161  143.6193 H   0  0  0  0  0  0  0  0  0  0  0  0  # atno 7974 bound_to 7965
  155.7087  140.3494  155.4964 H   0  0  0  0  0  0  0  0  0  0  0  0  # atno 8008 bound_to 7997
  155.9375  140.1095  157.1104 H   0  0  0  0  0  0  0  0  0  0  0  0  # atno 8009 bound_to 7997
  154.4096  140.1219  156.4870 H   0  0  0  0  0  0  0  0  0  0  0  0  # atno 8010 bound_to 7997
  140.6692  143.7097  150.7887 H   0  0  0  0  0  0  0  0  0  0  0  0  # atno 10167 bound_to 10162
  156.0371  130.4347  150.2416 H   0  0  0  0  0  0  0  0  0  0  0  0  # atno 10718 bound_to 10713
  152.9808  135.6001  154.3637 H   0  0  0  0  0  0  0  0  0  0  0  0  # atno 10763 bound_to 10752
  154.3316  135.2768  155.2470 H   0  0  0  0  0  0  0  0  0  0  0  0  # atno 10764 bound_to 10752
  154.4592  135.5970  153.6299 H   0  0  0  0  0  0  0  0  0  0  0  0  # atno 10765 bound_to 10752
  139.8996  134.9577  156.6976 H   0  0  0  0  0  0  0  0  0  0  0  0  # atno 11005 bound_to 11000
  146.2256  139.5717  142.9589 LP  0  0  0  0  0  0  0  0  0  0  0  0  # atno 17320 bound_to 7965
  145.5619  141.0403  143.2221 LP  0  0  0  0  0  0  0  0  0  0  0  0  # atno 17321 bound_to 7965
  140.0779  143.4997  152.2545 LP  0  0  0  0  0  0  0  0  0  0  0  0  # atno 17342 bound_to 10162
  139.5952  144.7564  151.3303 LP  0  0  0  0  0  0  0  0  0  0  0  0  # atno 17343 bound_to 10162
  157.0514  131.0064  151.3252 LP  0  0  0  0  0  0  0  0  0  0  0  0  # atno 17370 bound_to 10713
  157.5137  130.7954  149.7733 LP  0  0  0  0  0  0  0  0  0  0  0  0  # atno 17371 bound_to 10713
  140.7176  133.9169  155.8125 LP  0  0  0  0  0  0  0  0  0  0  0  0  # atno 17394 bound_to 11000
  141.0252  134.0833  157.4076 LP  0  0  0  0  0  0  0  0  0  0  0  0  # atno 17395 bound_to 11000

$$$$
