AV-unprocessed.smi:1487|AV-procd|sdf|6010|dock4
  -GOLD-   22720 6113D 1   1.00000     0.00000
 Structure written by MMmdl.
 48 50  0  0  0  0  0  0  0  0  2 V2000
  152.6125  143.2551  161.0130 C   0  0  0  0  0  0  0  0  0  0  0  0
  152.2281  142.6078  159.6941 C   0  0  0  0  0  0  0  0  0  0  0  0
  152.8079  141.3678  159.3436 C   0  0  0  0  0  0  0  0  0  0  0  0
  152.4766  140.7315  158.1275 C   0  0  0  0  0  0  0  0  0  0  0  0
  152.9171  139.5342  157.5901 N   0  0  0  0  0  0  0  0  0  0  0  0
  152.2455  139.4911  156.4436 C   0  0  0  0  0  0  0  0  0  0  0  0
  151.4245  140.5239  156.1710 N   0  0  0  0  0  0  0  0  0  0  0  0
  150.5969  140.6974  154.9907 C   0  0  0  0  0  0  0  0  0  0  0  0
  149.6425  139.5104  154.7581 C   0  0  1  0  0  0  0  0  0  0  0  0
  148.7790  139.8089  153.6779 O   0  0  0  0  0  0  0  0  0  0  0  0
  150.4161  138.2186  154.4284 C   0  0  0  0  0  0  0  0  0  0  0  0
  149.5901  136.9956  154.5981 N   0  3  2  0  0  0  0  0  0  0  0  0
  148.5231  137.1411  155.6234 C   0  0  0  0  0  0  0  0  0  0  0  0
  147.6014  135.9116  155.6364 C   0  0  0  0  0  0  0  0  0  0  0  0
  148.4031  134.6245  155.8761 C   0  0  0  0  0  0  0  0  0  0  0  0
  149.5636  134.5026  154.8745 C   0  0  1  0  0  0  0  0  0  0  0  0
  149.0722  134.2189  153.5793 O   0  0  0  0  0  0  0  0  0  0  0  0
  150.4194  135.7839  154.8333 C   0  0  0  0  0  0  0  0  0  0  0  0
  151.5414  141.3748  157.2647 C   0  0  0  0  0  0  0  0  0  0  0  0
  150.9571  142.6083  157.6026 C   0  0  0  0  0  0  0  0  0  0  0  0
  151.2997  143.2304  158.8214 C   0  0  0  0  0  0  0  0  0  0  0  0
  150.6650  144.5631  159.1780 C   0  0  0  0  0  0  0  0  0  0  0  0
  153.3736  142.6741  161.5347 H   0  0  0  0  0  0  0  0  0  0  0  0
  151.7433  143.3320  161.6665 H   0  0  0  0  0  0  0  0  0  0  0  0
  153.0123  144.2559  160.8482 H   0  0  0  0  0  0  0  0  0  0  0  0
  153.5141  140.8925  160.0083 H   0  0  0  0  0  0  0  0  0  0  0  0
  152.3598  138.6628  155.7595 H   0  0  0  0  0  0  0  0  0  0  0  0
  150.0338  141.6264  155.0937 H   0  0  0  0  0  0  0  0  0  0  0  0
  151.2552  140.8261  154.1307 H   0  0  0  0  0  0  0  0  0  0  0  0
  149.0339  139.3749  155.6516 H   0  0  0  0  0  0  0  0  0  0  0  0
  149.2811  139.7861  152.8767 H   0  0  0  0  0  0  0  0  0  0  0  0
  150.7691  138.2859  153.3979 H   0  0  0  0  0  0  0  0  0  0  0  0
  151.3100  138.1368  155.0489 H   0  0  0  0  0  0  0  0  0  0  0  0
  148.9769  137.2812  156.6059 H   0  0  0  0  0  0  0  0  0  0  0  0
  147.9222  138.0280  155.4265 H   0  0  0  0  0  0  0  0  0  0  0  0
  146.8415  136.0242  156.4104 H   0  0  0  0  0  0  0  0  0  0  0  0
  147.0671  135.8441  154.6879 H   0  0  0  0  0  0  0  0  0  0  0  0
  148.8060  134.6404  156.8896 H   0  0  0  0  0  0  0  0  0  0  0  0
  147.7509  133.7520  155.8188 H   0  0  0  0  0  0  0  0  0  0  0  0
  150.1959  133.6622  155.1629 H   0  0  0  0  0  0  0  0  0  0  0  0
  149.0309  135.0261  153.0885 H   0  0  0  0  0  0  0  0  0  0  0  0
  151.1769  135.6904  154.0534 H   0  0  0  0  0  0  0  0  0  0  0  0
  150.9551  135.9001  155.7770 H   0  0  0  0  0  0  0  0  0  0  0  0
  150.2509  143.0713  156.9296 H   0  0  0  0  0  0  0  0  0  0  0  0
  149.9517  144.8810  158.4173 H   0  0  0  0  0  0  0  0  0  0  0  0
  151.4280  145.3369  159.2660 H   0  0  0  0  0  0  0  0  0  0  0  0
  150.1322  144.4920  160.1266 H   0  0  0  0  0  0  0  0  0  0  0  0
  149.1291  136.8438  153.7115 H   0  0  0  0  0  0  0  0  0  0  0  0
  1  2  1  0  0  0  0
  1 23  1  0  0  0  0
  1 24  1  0  0  0  0
  1 25  1  0  0  0  0
  2 21  1  0  0  0  0
  2  3  2  0  0  0  0
  3  4  1  0  0  0  0
  3 26  1  0  0  0  0
  4 19  2  0  0  0  0
  4  5  1  0  0  0  0
  5  6  2  0  0  0  0
  6  7  1  0  0  0  0
  6 27  1  0  0  0  0
  7  8  1  0  0  0  0
  7 19  1  0  0  0  0
  8  9  1  0  0  0  0
  8 28  1  0  0  0  0
  8 29  1  0  0  0  0
  9 10  1  0  0  0  0
  9 11  1  0  0  0  0
  9 30  1  0  0  0  0
 10 31  1  0  0  0  0
 11 12  1  0  0  0  0
 11 32  1  0  0  0  0
 11 33  1  0  0  0  0
 12 18  1  0  0  0  0
 12 13  1  0  0  0  0
 12 48  1  0  0  0  0
 13 14  1  0  0  0  0
 13 34  1  0  0  0  0
 13 35  1  0  0  0  0
 14 15  1  0  0  0  0
 14 36  1  0  0  0  0
 14 37  1  0  0  0  0
 15 16  1  0  0  0  0
 15 38  1  0  0  0  0
 15 39  1  0  0  0  0
 16 17  1  0  0  0  0
 16 18  1  0  0  0  0
 16 40  1  0  0  0  0
 17 41  1  0  0  0  0
 18 42  1  0  0  0  0
 18 43  1  0  0  0  0
 19 20  1  0  0  0  0
 20 21  2  0  0  0  0
 20 44  1  0  0  0  0
 21 22  1  0  0  0  0
 22 45  1  0  0  0  0
 22 46  1  0  0  0  0
 22 47  1  0  0  0  0
M  CHG  1  12   1
M  END
> <s_m_source_file>
AV-unprocessed.smi

> <i_m_source_file_index>
1487

> <i_lp_mmshare_version>
43012

> <i_f3d_flags>
0

> <s_epik_input>
W0NIM11jKFtjSF0xKWMoW0NIM10pW2NIXWMoYzEyKW4oW2NIXW4yKVtDSDJdW0NASF0oW09IXSlbQ0gyXU4zW0NIMl1bQ0gyXVtDSDJdW0NAQEhdKFtPSF0pW0NIMl0z

> <s_epik_cmdline>
J2VwaWtfcHl0aG9uJywgJy1waCcsICc3LjAnLCAnLXRuJywgJzgnLCAnLW1hJywgJzIwMCcsICctbWV0YWxfYmluZGluZycsICctaW1hZScsICc8aW5maWxlLm1hZT4nLCAnLW9tYWUnLCAnPG91dGZpbGUubWFlPic=

> <r_epik_Ionization_Penalty>
0.0940186

> <r_epik_Ionization_Penalty_Charging>
0.00679686

> <r_epik_Ionization_Penalty_Neutral>
0.0872218

> <r_epik_State_Penalty>
0.0799311

> <r_epik_Charging_Adjusted_Penalty>
0.086728

> <i_epik_Tot_Q>
1

> <i_epik_Tot_abs_Q>
1

> <r_epik_Metal_State_Penalty>
7.95545e-05

> <b_epik_Metal_Only>
0

> <s_lp_Force_Field>
OPLS_2005

> <r_lp_Energy>
21.7982

> <b_lp_Chiralities_Consistent>
1

> <s_lp_Variant>
AV-unprocessed.smi:1487-4

> <Gold.Version>
5.8.1

> <Gold.Id.Protein>
6NUR|6NUR_protein|mol2

> <Gold.PLP.Fitness>
53.2941

> <Gold.PLP.PLP>
-39.2467

> <Gold.PLP.part.hbond>
-4.0000

> <Gold.PLP.part.metal>
0.0000

> <Gold.PLP.part.buried>
-2.0403

> <Gold.PLP.part.nonpolar>
-31.9446

> <Gold.PLP.part.repulsive>
0.0133

> <Gold.PLP.ligand.clash>
0.0000

> <Gold.PLP.ligand.torsion>
0.4971

> <Gold.PLP.Chemscore.Hbond>
5.0000

> <Gold.PLP.Chemscore.CHOScore>
0.0000

> <Gold.PLP.Chemscore.Metal>
0.0000

> <Gold.Chemscore.Hbonds>
donor molecule, donor type, donor heavy atom, donor atom, acceptor molecule, acceptor atom, score
      L1  H    10    31       P1  7957  1.00
      L1  H    12    48       P1  7948  2.00
      L1  H    17    41       P1  7948  0.85
      P1  H  7997  8009       L1     5  1.00

> <Gold.PLP.Chemscore.Internal.Correction>
0.0415

> <Gold.Rescore>
     Score         DG    S(hbond)    S(metal)    S(lipo)     H(rot)  DE(clash)    DE(int)     intcor
     18.74     -20.62       2.67        0.00     111.75       2.67       1.44       0.44       ----

> <Gold.Chemscore.Fitness>
18.7441

> <Gold.Chemscore.DG>
-20.6236

> <Gold.Chemscore.ZeroCoef>
-5.4800

> <Gold.Chemscore.Hbond>
2.6669

> <Gold.Chemscore.Metal>
0.0000

> <Gold.Chemscore.Lipo>
111.7468

> <Gold.Chemscore.Internal_Hbond>
0.0000

> <Gold.Chemscore.DEClash>
1.4409

> <Gold.Chemscore.DEInternal>
0.4386

> <Gold.Chemscore.Rot>
2.6712

> <Gold.Chemscore.Internal.Correction>
   9.000000E+99

> <Gold.Chemscore.Hbonds>
donor molecule, donor type, donor heavy atom, donor atom, acceptor molecule, acceptor atom, score
      L1  H    10    31       P1  7957  0.99
      L1  H    12    48       P1  7948  0.97
      L1  H    17    41       P1  7948  0.15
      P1  H  7997  8009       L1     5  0.09

> <Gold.Chemscore.Hbond.Weighted>
-8.9075

> <Gold.Chemscore.Metal.Weighted>
-0.0000

> <Gold.Chemscore.Lipo.Weighted>
-13.0744

> <Gold.Chemscore.Internal_Hbond.Weighted>
0.0000

> <Gold.Chemscore.DEClash.Weighted>
1.4409

> <Gold.Chemscore.DEInternal.Weighted>
0.4386

> <Gold.Chemscore.Rot.Weighted>
6.8383

> <Gold.Chemscore.Internal.Correction.Weighted>
   9.000000E+99

> <Gold.Protein.RotatedTorsions>
[ 6907 6896 6895 6894 ] final  174.73 input  -60.11 | X-H torsion
[ 7974 7965 7964 7962 ] final -167.63 input  175.53 | X-H torsion
[ 8008 7997 7996 7995 ] final  152.08 input   59.86 | X-H torsion
[ 10167 10162 10161 10158 ] final  124.34 input  -65.29 | X-H torsion
[ 10718 10713 10712 10709 ] final  -79.09 input   66.30 | X-H torsion
[ 10763 10752 10751 10750 ] final  -64.90 input  -60.55 | X-H torsion
[ 11005 11000 10999 10996 ] final  112.74 input  -57.11 | X-H torsion

> <Gold.Protein.ActiveResidues>
 VAL166  LYS551  ARG553  GLY616  TRP617  ASP618  TYR619  PRO620  LYS621  CYS622 
 ASP623  PHE694  ASN695  SER759  ASP760  ASP761  ALA762  ILE779  LEU786  VAL792 
 PHE793  MET794  SER795  GLU796  ALA797  LYS798  CYS799  TRP800  GLU811  SER814 

> <Gold.Protein.RotatedAtoms>
  151.7476  133.3325  159.3382 H   0  0  0  0  0  0  0  0  0  0  0  0  # atno 6907 bound_to 6896
  150.7548  134.6221  159.6151 H   0  0  0  0  0  0  0  0  0  0  0  0  # atno 6908 bound_to 6896
  152.3489  134.7034  160.0293 H   0  0  0  0  0  0  0  0  0  0  0  0  # atno 6909 bound_to 6896
  144.7219  140.2489  143.6281 H   0  0  0  0  0  0  0  0  0  0  0  0  # atno 7974 bound_to 7965
  156.2645  140.2030  156.6277 H   0  0  0  0  0  0  0  0  0  0  0  0  # atno 8008 bound_to 7997
  154.6707  140.0550  157.0187 H   0  0  0  0  0  0  0  0  0  0  0  0  # atno 8009 bound_to 7997
  155.1141  140.3218  155.4517 H   0  0  0  0  0  0  0  0  0  0  0  0  # atno 8010 bound_to 7997
  139.5747  144.6957  151.3685 H   0  0  0  0  0  0  0  0  0  0  0  0  # atno 10167 bound_to 10162
  156.0101  130.4536  150.3596 H   0  0  0  0  0  0  0  0  0  0  0  0  # atno 10718 bound_to 10713
  154.3370  135.6164  153.5578 H   0  0  0  0  0  0  0  0  0  0  0  0  # atno 10763 bound_to 10752
  152.9807  135.5760  154.4896 H   0  0  0  0  0  0  0  0  0  0  0  0  # atno 10764 bound_to 10752
  154.4593  135.2855  155.1701 H   0  0  0  0  0  0  0  0  0  0  0  0  # atno 10765 bound_to 10752
  139.8935  134.9536  156.6632 H   0  0  0  0  0  0  0  0  0  0  0  0  # atno 11005 bound_to 11000
  145.8247  139.2059  143.1917 LP  0  0  0  0  0  0  0  0  0  0  0  0  # atno 17320 bound_to 7965
  146.0483  140.8095  142.9794 LP  0  0  0  0  0  0  0  0  0  0  0  0  # atno 17321 bound_to 7965
  140.7030  143.7584  150.7435 LP  0  0  0  0  0  0  0  0  0  0  0  0  # atno 17342 bound_to 10162
  140.1100  143.4708  152.2375 LP  0  0  0  0  0  0  0  0  0  0  0  0  # atno 17343 bound_to 10162
  157.1685  131.0363  151.2807 LP  0  0  0  0  0  0  0  0  0  0  0  0  # atno 17370 bound_to 10713
  157.4250  130.7458  149.6943 LP  0  0  0  0  0  0  0  0  0  0  0  0  # atno 17371 bound_to 10713
  140.7431  133.8961  155.8292 LP  0  0  0  0  0  0  0  0  0  0  0  0  # atno 17394 bound_to 11000
  141.0062  134.1083  157.4268 LP  0  0  0  0  0  0  0  0  0  0  0  0  # atno 17395 bound_to 11000

$$$$
