AV-unprocessed.smi:1703|AV-procd|sdf|6860|dock9
  -GOLD-   22720 8 53D 1   1.00000     0.00000
 Structure written by MMmdl.
 49 51  0  0  0  0  0  0  0  0  2 V2000
  154.8004  134.9540  163.2739 C   0  0  0  0  0  0  0  0  0  0  0  0
  155.7520  136.0784  163.6960 C   0  0  1  0  0  0  0  0  0  0  0  0
  155.0143  137.4200  163.8879 C   0  0  0  0  0  0  0  0  0  0  0  0
  155.9331  138.4761  164.3772 N   0  3  2  0  0  0  0  0  0  0  0  0
  156.8108  139.0384  163.3167 C   0  0  0  0  0  0  0  0  0  0  0  0
  156.0127  139.5024  162.0766 C   0  0  2  0  0  0  0  0  0  0  0  0
  156.7369  140.5228  161.4208 O   0  0  0  0  0  0  0  0  0  0  0  0
  154.6052  140.0399  162.4054 C   0  0  0  0  0  0  0  0  0  0  0  0
  153.9376  140.5935  161.2332 N   0  0  0  0  0  0  0  0  0  0  0  0
  153.8302  140.0609  159.9885 C   0  0  0  0  0  0  0  0  0  0  0  0
  154.4160  138.7294  159.6297 C   0  0  0  0  0  0  0  0  0  0  0  0
  154.2587  138.4148  158.2629 O   0  0  0  0  0  0  0  0  0  0  0  0
  153.1818  140.8061  159.0934 N   0  0  0  0  0  0  0  0  0  0  0  0
  152.8244  141.9208  159.8254 C   0  0  0  0  0  0  0  0  0  0  0  0
  152.1197  143.0840  159.4417 C   0  0  0  0  0  0  0  0  0  0  0  0
  151.8710  144.1093  160.3775 C   0  0  0  0  0  0  0  0  0  0  0  0
  152.3206  143.9857  161.7078 C   0  0  0  0  0  0  0  0  0  0  0  0
  153.0259  142.8355  162.1106 C   0  0  0  0  0  0  0  0  0  0  0  0
  153.2754  141.8163  161.1716 C   0  0  0  0  0  0  0  0  0  0  0  0
  156.6512  138.0121  165.5938 C   0  0  0  0  0  0  0  0  0  0  0  0
  157.3335  136.6447  165.3707 C   0  0  1  0  0  0  0  0  0  0  0  0
  157.9731  136.1069  166.6552 C   0  0  0  0  0  0  0  0  0  0  0  0
  156.3603  135.7047  164.9281 O   0  0  0  0  0  0  0  0  0  0  0  0
  154.3138  135.1866  162.3264 H   0  0  0  0  0  0  0  0  0  0  0  0
  154.0213  134.7941  164.0200 H   0  0  0  0  0  0  0  0  0  0  0  0
  155.3387  134.0142  163.1483 H   0  0  0  0  0  0  0  0  0  0  0  0
  156.5228  136.1801  162.9301 H   0  0  0  0  0  0  0  0  0  0  0  0
  154.5289  137.7354  162.9633 H   0  0  0  0  0  0  0  0  0  0  0  0
  154.2176  137.2953  164.6226 H   0  0  0  0  0  0  0  0  0  0  0  0
  157.3911  139.8546  163.7422 H   0  0  0  0  0  0  0  0  0  0  0  0
  157.5447  138.2961  162.9995 H   0  0  0  0  0  0  0  0  0  0  0  0
  155.9017  138.6837  161.3683 H   0  0  0  0  0  0  0  0  0  0  0  0
  157.3495  140.1245  160.8211 H   0  0  0  0  0  0  0  0  0  0  0  0
  153.9927  139.2527  162.8435 H   0  0  0  0  0  0  0  0  0  0  0  0
  154.6711  140.8266  163.1583 H   0  0  0  0  0  0  0  0  0  0  0  0
  155.4809  138.7276  159.8656 H   0  0  0  0  0  0  0  0  0  0  0  0
  153.9591  137.9505  160.2404 H   0  0  0  0  0  0  0  0  0  0  0  0
  154.3685  137.4826  158.1536 H   0  0  0  0  0  0  0  0  0  0  0  0
  151.7689  143.1874  158.4254 H   0  0  0  0  0  0  0  0  0  0  0  0
  151.3298  144.9935  160.0737 H   0  0  0  0  0  0  0  0  0  0  0  0
  152.1223  144.7739  162.4194 H   0  0  0  0  0  0  0  0  0  0  0  0
  153.3683  142.7392  163.1300 H   0  0  0  0  0  0  0  0  0  0  0  0
  157.3805  138.7478  165.9306 H   0  0  0  0  0  0  0  0  0  0  0  0
  155.9201  137.9226  166.3986 H   0  0  0  0  0  0  0  0  0  0  0  0
  158.1183  136.7281  164.6178 H   0  0  0  0  0  0  0  0  0  0  0  0
  158.7383  136.7891  167.0268 H   0  0  0  0  0  0  0  0  0  0  0  0
  158.4477  135.1414  166.4793 H   0  0  0  0  0  0  0  0  0  0  0  0
  157.2306  135.9748  167.4427 H   0  0  0  0  0  0  0  0  0  0  0  0
  155.3437  139.2458  164.6622 H   0  0  0  0  0  0  0  0  0  0  0  0
  1  2  1  0  0  0  0
  1 24  1  0  0  0  0
  1 25  1  0  0  0  0
  1 26  1  0  0  0  0
  2 23  1  0  0  0  0
  2  3  1  0  0  0  0
  2 27  1  0  0  0  0
  3  4  1  0  0  0  0
  3 28  1  0  0  0  0
  3 29  1  0  0  0  0
  4  5  1  0  0  0  0
  4 20  1  0  0  0  0
  4 49  1  0  0  0  0
  5  6  1  0  0  0  0
  5 30  1  0  0  0  0
  5 31  1  0  0  0  0
  6  7  1  0  0  0  0
  6  8  1  0  0  0  0
  6 32  1  0  0  0  0
  7 33  1  0  0  0  0
  8  9  1  0  0  0  0
  8 34  1  0  0  0  0
  8 35  1  0  0  0  0
  9 19  1  0  0  0  0
  9 10  1  0  0  0  0
 10 11  1  0  0  0  0
 10 13  2  0  0  0  0
 11 12  1  0  0  0  0
 11 36  1  0  0  0  0
 11 37  1  0  0  0  0
 12 38  1  0  0  0  0
 13 14  1  0  0  0  0
 14 19  2  0  0  0  0
 14 15  1  0  0  0  0
 15 16  2  0  0  0  0
 15 39  1  0  0  0  0
 16 17  1  0  0  0  0
 16 40  1  0  0  0  0
 17 18  2  0  0  0  0
 17 41  1  0  0  0  0
 18 19  1  0  0  0  0
 18 42  1  0  0  0  0
 20 21  1  0  0  0  0
 20 43  1  0  0  0  0
 20 44  1  0  0  0  0
 21 22  1  0  0  0  0
 21 23  1  0  0  0  0
 21 45  1  0  0  0  0
 22 46  1  0  0  0  0
 22 47  1  0  0  0  0
 22 48  1  0  0  0  0
M  CHG  1   4   1
M  END
> <s_m_source_file>
AV-unprocessed.smi

> <i_m_source_file_index>
1703

> <i_lp_mmshare_version>
43012

> <i_f3d_flags>
0

> <s_epik_input>
W0NIM11bQ0BASF0xW0NIMl1OKFtDSDJdW0NASF0oTzEpW0NIM10pW0NIMl1bQ0BIXShbT0hdKVtDSDJdbihjKG4yKVtDSDJdW09IXSljKGMyMylbY0hdW2NIXVtjSF1bY0hdMw==

> <s_epik_cmdline>
J2VwaWtfcHl0aG9uJywgJy1waCcsICc3LjAnLCAnLXRuJywgJzgnLCAnLW1hJywgJzIwMCcsICctbWV0YWxfYmluZGluZycsICctaW1hZScsICc8aW5maWxlLm1hZT4nLCAnLW9tYWUnLCAnPG91dGZpbGUubWFlPic=

> <r_epik_Ionization_Penalty>
0.655661

> <r_epik_Ionization_Penalty_Charging>
0.608065

> <r_epik_Ionization_Penalty_Neutral>
0.0475963

> <r_epik_State_Penalty>
0.695267

> <r_epik_Charging_Adjusted_Penalty>
1.30333

> <i_epik_Tot_Q>
1

> <i_epik_Tot_abs_Q>
1

> <r_epik_Metal_State_Penalty>
0.653591

> <b_epik_Metal_Only>
0

> <s_lp_Force_Field>
OPLS_2005

> <r_lp_Energy>
23.3655

> <b_lp_Chiralities_Consistent>
1

> <s_lp_Variant>
AV-unprocessed.smi:1703-8

> <Gold.Version>
5.8.1

> <Gold.Id.Protein>
6NUR|6NUR_protein|mol2

> <Gold.PLP.Fitness>
44.2870

> <Gold.PLP.PLP>
-42.2306

> <Gold.PLP.part.hbond>
-2.0000

> <Gold.PLP.part.metal>
0.0000

> <Gold.PLP.part.buried>
-5.1930

> <Gold.PLP.part.nonpolar>
-33.8294

> <Gold.PLP.part.repulsive>
0.0976

> <Gold.PLP.ligand.clash>
0.0000

> <Gold.PLP.ligand.torsion>
0.5156

> <Gold.PLP.Chemscore.Hbond>
1.0000

> <Gold.PLP.Chemscore.CHOScore>
0.0000

> <Gold.PLP.Chemscore.Metal>
0.0000

> <Gold.Chemscore.Hbonds>
donor molecule, donor type, donor heavy atom, donor atom, acceptor molecule, acceptor atom, score
      P1  H  7997  8008       L1    12  1.00

> <Gold.PLP.Chemscore.Internal.Correction>
0.0875

> <Gold.Rescore>
     Score         DG    S(hbond)    S(metal)    S(lipo)     H(rot)  DE(clash)    DE(int)     intcor
     12.47     -15.38       0.98        0.00     121.46       2.96       1.57       1.33       ----

> <Gold.Chemscore.Fitness>
12.4715

> <Gold.Chemscore.DG>
-15.3767

> <Gold.Chemscore.ZeroCoef>
-5.4800

> <Gold.Chemscore.Hbond>
0.9779

> <Gold.Chemscore.Metal>
0.0000

> <Gold.Chemscore.Lipo>
121.4600

> <Gold.Chemscore.Internal_Hbond>
0.0000

> <Gold.Chemscore.DEClash>
1.5722

> <Gold.Chemscore.DEInternal>
1.3330

> <Gold.Chemscore.Rot>
2.9611

> <Gold.Chemscore.Internal.Correction>
   9.000000E+99

> <Gold.Chemscore.Hbonds>
donor molecule, donor type, donor heavy atom, donor atom, acceptor molecule, acceptor atom, score
      P1  H  7997  8008       L1    12  0.66

> <Gold.Chemscore.Hbond.Weighted>
-3.2662

> <Gold.Chemscore.Metal.Weighted>
-0.0000

> <Gold.Chemscore.Lipo.Weighted>
-14.2108

> <Gold.Chemscore.Internal_Hbond.Weighted>
0.0000

> <Gold.Chemscore.DEClash.Weighted>
1.5722

> <Gold.Chemscore.DEInternal.Weighted>
1.3330

> <Gold.Chemscore.Rot.Weighted>
7.5803

> <Gold.Chemscore.Internal.Correction.Weighted>
   9.000000E+99

> <Gold.Protein.RotatedTorsions>
[ 6907 6896 6895 6894 ] final -142.65 input  -60.11 | X-H torsion
[ 7974 7965 7964 7962 ] final   30.34 input  175.53 | X-H torsion
[ 8008 7997 7996 7995 ] final  -98.97 input   59.86 | X-H torsion
[ 10167 10162 10161 10158 ] final  -26.08 input  -65.29 | X-H torsion
[ 10718 10713 10712 10709 ] final  -64.96 input   66.30 | X-H torsion
[ 10763 10752 10751 10750 ] final  179.45 input  -60.55 | X-H torsion
[ 11005 11000 10999 10996 ] final    5.11 input  -57.11 | X-H torsion

> <Gold.Protein.ActiveResidues>
 VAL166  LYS551  ARG553  GLY616  TRP617  ASP618  TYR619  PRO620  LYS621  CYS622 
 ASP623  PHE694  ASN695  SER759  ASP760  ASP761  ALA762  ILE779  LEU786  VAL792 
 PHE793  MET794  SER795  GLU796  ALA797  LYS798  CYS799  TRP800  GLU811  SER814 

> <Gold.Protein.RotatedAtoms>
  151.0899  133.5324  159.2615 H   0  0  0  0  0  0  0  0  0  0  0  0  # atno 6907 bound_to 6896
  151.2195  135.0512  159.8954 H   0  0  0  0  0  0  0  0  0  0  0  0  # atno 6908 bound_to 6896
  152.5433  134.0703  159.8245 H   0  0  0  0  0  0  0  0  0  0  0  0  # atno 6909 bound_to 6896
  146.1618  139.6802  142.9028 H   0  0  0  0  0  0  0  0  0  0  0  0  # atno 7974 bound_to 7965
  154.8084  140.0451  157.1325 H   0  0  0  0  0  0  0  0  0  0  0  0  # atno 8008 bound_to 7997
  154.9396  140.3051  155.5107 H   0  0  0  0  0  0  0  0  0  0  0  0  # atno 8009 bound_to 7997
  156.2969  140.2308  156.4464 H   0  0  0  0  0  0  0  0  0  0  0  0  # atno 8010 bound_to 7997
  140.7284  143.4209  151.0953 H   0  0  0  0  0  0  0  0  0  0  0  0  # atno 10167 bound_to 10162
  156.0697  130.4240  150.1496 H   0  0  0  0  0  0  0  0  0  0  0  0  # atno 10718 bound_to 10713
  154.5208  135.2794  155.1264 H   0  0  0  0  0  0  0  0  0  0  0  0  # atno 10763 bound_to 10752
  154.2822  135.6283  153.5355 H   0  0  0  0  0  0  0  0  0  0  0  0  # atno 10764 bound_to 10752
  152.9936  135.5654  154.5696 H   0  0  0  0  0  0  0  0  0  0  0  0  # atno 10765 bound_to 10752
  140.5744  134.0072  155.8022 H   0  0  0  0  0  0  0  0  0  0  0  0  # atno 11005 bound_to 11000
  145.4569  141.0431  143.2773 LP  0  0  0  0  0  0  0  0  0  0  0  0  # atno 17320 bound_to 7965
  144.8037  139.6092  143.7060 LP  0  0  0  0  0  0  0  0  0  0  0  0  # atno 17321 bound_to 7965
  139.7854  143.8294  152.3144 LP  0  0  0  0  0  0  0  0  0  0  0  0  # atno 17342 bound_to 10162
  139.8260  144.7275  150.9511 LP  0  0  0  0  0  0  0  0  0  0  0  0  # atno 17343 bound_to 10162
  156.9549  130.9786  151.3491 LP  0  0  0  0  0  0  0  0  0  0  0  0  # atno 17370 bound_to 10713
  157.5761  130.8344  149.8458 LP  0  0  0  0  0  0  0  0  0  0  0  0  # atno 17371 bound_to 10713
  141.1036  133.9729  157.3036 LP  0  0  0  0  0  0  0  0  0  0  0  0  # atno 17394 bound_to 11000
  139.9346  135.0197  156.8515 LP  0  0  0  0  0  0  0  0  0  0  0  0  # atno 17395 bound_to 11000

$$$$
