AV-unprocessed.smi:1731|AV-procd|sdf|6974|dock7
  -GOLD-   22720 8183D 1   1.00000     0.00000
 Structure written by MMmdl.
 41 42  0  0  0  0  0  0  0  0  1 V2000
  136.2897  141.2313  153.8501 C   0  0  0  0  0  0  0  0  0  0  0  0
  137.6684  140.7308  153.3970 C   0  0  2  0  0  0  0  0  0  0  0  0
  137.7258  139.1918  153.3617 C   0  0  0  0  0  0  0  0  0  0  0  0
  139.1046  138.6863  152.9085 C   0  0  0  0  0  0  0  0  0  0  0  0
  140.2335  139.2499  153.7947 C   0  0  1  0  0  0  0  0  0  0  0  0
  141.5373  138.8227  153.2954 N   0  0  0  0  0  0  0  0  0  0  0  0
  141.9218  137.5498  153.1231 C   0  0  0  0  0  0  0  0  0  0  0  0
  141.2099  136.5806  153.3875 O   0  0  0  0  0  0  0  0  0  0  0  0
  143.1667  137.4797  152.6236 N   0  0  0  0  0  0  0  0  0  0  0  0
  143.8974  136.3096  152.2966 C   0  0  0  0  0  0  0  0  0  0  0  0
  145.1370  136.2947  151.6063 C   0  0  0  0  0  0  0  0  0  0  0  0
  145.5804  135.0574  151.4446 N   0  0  0  0  0  0  0  0  0  0  0  0
  144.6412  134.2672  152.0226 N   0  0  0  0  0  0  0  0  0  0  0  0
  144.8165  132.8255  152.0266 C   0  0  0  0  0  0  0  0  0  0  0  0
  146.2696  132.4452  151.7356 C   0  0  0  0  0  0  0  0  0  0  0  0
  146.5078  131.7545  150.6176 N   0  0  0  0  0  0  0  0  0  0  0  0
  147.1670  132.7746  152.5081 O   0  0  0  0  0  0  0  0  0  0  0  0
  143.6005  135.0019  152.5575 C   0  0  0  0  0  0  0  0  0  0  0  0
  140.1749  140.7879  153.8375 C   0  0  0  0  0  0  0  0  0  0  0  0
  138.7933  141.2871  154.2905 C   0  0  0  0  0  0  0  0  0  0  0  0
  136.0560  140.8911  154.8593 H   0  0  0  0  0  0  0  0  0  0  0  0
  135.5038  140.8698  153.1863 H   0  0  0  0  0  0  0  0  0  0  0  0
  136.2472  142.3207  153.8476 H   0  0  0  0  0  0  0  0  0  0  0  0
  137.8328  141.0970  152.3824 H   0  0  0  0  0  0  0  0  0  0  0  0
  137.5006  138.7911  154.3511 H   0  0  0  0  0  0  0  0  0  0  0  0
  136.9580  138.8050  152.6906 H   0  0  0  0  0  0  0  0  0  0  0  0
  139.1170  137.5960  152.9303 H   0  0  0  0  0  0  0  0  0  0  0  0
  139.2704  138.9752  151.8696 H   0  0  0  0  0  0  0  0  0  0  0  0
  140.1023  138.8788  154.8131 H   0  0  0  0  0  0  0  0  0  0  0  0
  142.1904  139.5528  153.0517 H   0  0  0  0  0  0  0  0  0  0  0  0
  143.6352  138.3554  152.4435 H   0  0  0  0  0  0  0  0  0  0  0  0
  145.7171  137.1214  151.2237 H   0  0  0  0  0  0  0  0  0  0  0  0
  144.5212  132.4226  152.9967 H   0  0  0  0  0  0  0  0  0  0  0  0
  144.1479  132.3899  151.2827 H   0  0  0  0  0  0  0  0  0  0  0  0
  147.4505  131.4789  150.3842 H   0  0  0  0  0  0  0  0  0  0  0  0
  145.7405  131.5080  150.0092 H   0  0  0  0  0  0  0  0  0  0  0  0
  142.7669  134.5331  153.0591 H   0  0  0  0  0  0  0  0  0  0  0  0
  140.9415  141.1721  154.5116 H   0  0  0  0  0  0  0  0  0  0  0  0
  140.3993  141.1956  152.8507 H   0  0  0  0  0  0  0  0  0  0  0  0
  138.7768  142.3773  154.2756 H   0  0  0  0  0  0  0  0  0  0  0  0
  138.6223  140.9906  155.3266 H   0  0  0  0  0  0  0  0  0  0  0  0
  1  2  1  0  0  0  0
  1 21  1  0  0  0  0
  1 22  1  0  0  0  0
  1 23  1  0  0  0  0
  2 20  1  0  0  0  0
  2  3  1  0  0  0  0
  2 24  1  0  0  0  0
  3  4  1  0  0  0  0
  3 25  1  0  0  0  0
  3 26  1  0  0  0  0
  4  5  1  0  0  0  0
  4 27  1  0  0  0  0
  4 28  1  0  0  0  0
  5  6  1  0  0  0  0
  5 19  1  0  0  0  0
  5 29  1  0  0  0  0
  6  7  1  0  0  0  0
  6 30  1  0  0  0  0
  7  8  2  0  0  0  0
  7  9  1  0  0  0  0
  9 10  1  0  0  0  0
  9 31  1  0  0  0  0
 10 18  2  0  0  0  0
 10 11  1  0  0  0  0
 11 12  2  0  0  0  0
 11 32  1  0  0  0  0
 12 13  1  0  0  0  0
 13 14  1  0  0  0  0
 13 18  1  0  0  0  0
 14 15  1  0  0  0  0
 14 33  1  0  0  0  0
 14 34  1  0  0  0  0
 15 16  1  0  0  0  0
 15 17  2  0  0  0  0
 16 35  1  0  0  0  0
 16 36  1  0  0  0  0
 18 37  1  0  0  0  0
 19 20  1  0  0  0  0
 19 38  1  0  0  0  0
 19 39  1  0  0  0  0
 20 40  1  0  0  0  0
 20 41  1  0  0  0  0
M  END
> <s_m_source_file>
AV-unprocessed.smi

> <i_m_source_file_index>
1731

> <i_lp_mmshare_version>
43012

> <i_f3d_flags>
0

> <s_epik_input>
W0NIM11bQ0BASF0xW0NIMl1bQ0gyXVtDQEhdKFtDSDJdW0NIMl0xKVtOSF1DKD1PKVtOSF1jMltjSF1ubihbY0hdMilbQ0gyXUMoPU8pW05IMl0=

> <s_epik_cmdline>
J2VwaWtfcHl0aG9uJywgJy1waCcsICc3LjAnLCAnLXRuJywgJzgnLCAnLW1hJywgJzIwMCcsICctbWV0YWxfYmluZGluZycsICctaW1hZScsICc8aW5maWxlLm1hZT4nLCAnLW9tYWUnLCAnPG91dGZpbGUubWFlPic=

> <r_lp_tautomer_probability>
1

> <r_epik_Ionization_Penalty>
4.81284e-05

> <r_epik_Ionization_Penalty_Charging>
0

> <r_epik_Ionization_Penalty_Neutral>
4.81284e-05

> <r_epik_State_Penalty>
-0

> <r_epik_Charging_Adjusted_Penalty>
0

> <i_epik_Tot_Q>
0

> <i_epik_Tot_abs_Q>
0

> <r_epik_Metal_State_Penalty>
-0

> <b_epik_Metal_Only>
0

> <s_lp_Force_Field>
OPLS_2005

> <r_lp_Energy>
12.4361

> <b_lp_Chiralities_Consistent>
1

> <s_lp_Variant>
AV-unprocessed.smi:1731-1

> <Gold.Version>
5.8.1

> <Gold.Id.Protein>
6NUR|6NUR_protein|mol2

> <Gold.PLP.Fitness>
41.2763

> <Gold.PLP.PLP>
-31.5038

> <Gold.PLP.part.hbond>
-4.2855

> <Gold.PLP.part.metal>
0.0000

> <Gold.PLP.part.buried>
-4.4787

> <Gold.PLP.part.nonpolar>
-24.1231

> <Gold.PLP.part.repulsive>
0.6779

> <Gold.PLP.ligand.clash>
0.0000

> <Gold.PLP.ligand.torsion>
0.2725

> <Gold.PLP.Chemscore.Hbond>
2.9516

> <Gold.PLP.Chemscore.CHOScore>
0.4861

> <Gold.PLP.Chemscore.Metal>
0.0000

> <Gold.Chemscore.Hbonds>
donor molecule, donor type, donor heavy atom, donor atom, acceptor molecule, acceptor atom, score
      L1  H     6    30       P1 10175  1.00
      L1  H     9    31       P1 10175  0.89
      L1  H    16    35       P1 10747  1.00
      L1  C    11    32       P1 10171  0.22

> <Gold.PLP.Chemscore.Internal.Correction>
0.0045

> <Gold.Rescore>
     Score         DG    S(hbond)    S(metal)    S(lipo)     H(rot)  DE(clash)    DE(int)     intcor
     14.99     -17.10       2.83        0.00      60.14       1.90       0.00       2.12       ----

> <Gold.Chemscore.Fitness>
14.9870

> <Gold.Chemscore.DG>
-17.1023

> <Gold.Chemscore.ZeroCoef>
-5.4800

> <Gold.Chemscore.Hbond>
2.8314

> <Gold.Chemscore.Metal>
0.0000

> <Gold.Chemscore.Lipo>
60.1438

> <Gold.Chemscore.Internal_Hbond>
0.0000

> <Gold.Chemscore.DEClash>
0.0000

> <Gold.Chemscore.DEInternal>
2.1152

> <Gold.Chemscore.Rot>
1.9029

> <Gold.Chemscore.Internal.Correction>
   9.000000E+99

> <Gold.Chemscore.Hbonds>
donor molecule, donor type, donor heavy atom, donor atom, acceptor molecule, acceptor atom, score
      L1  H     6    30       P1 10175  0.88
      L1  H     9    31       P1 10175  0.81
      L1  H    16    35       P1 10747  1.00

> <Gold.Chemscore.Hbond.Weighted>
-9.4569

> <Gold.Chemscore.Metal.Weighted>
-0.0000

> <Gold.Chemscore.Lipo.Weighted>
-7.0368

> <Gold.Chemscore.Internal_Hbond.Weighted>
0.0000

> <Gold.Chemscore.DEClash.Weighted>
0.0000

> <Gold.Chemscore.DEInternal.Weighted>
2.1152

> <Gold.Chemscore.Rot.Weighted>
4.8714

> <Gold.Chemscore.Internal.Correction.Weighted>
   9.000000E+99

> <Gold.Protein.RotatedTorsions>
[ 6907 6896 6895 6894 ] final   33.67 input  -60.11 | X-H torsion
[ 7974 7965 7964 7962 ] final   -2.01 input  175.53 | X-H torsion
[ 8008 7997 7996 7995 ] final   20.03 input   59.86 | X-H torsion
[ 10167 10162 10161 10158 ] final   95.92 input  -65.29 | X-H torsion
[ 10718 10713 10712 10709 ] final    2.50 input   66.30 | X-H torsion
[ 10763 10752 10751 10750 ] final -173.71 input  -60.55 | X-H torsion
[ 11005 11000 10999 10996 ] final  -18.85 input  -57.11 | X-H torsion

> <Gold.Protein.ActiveResidues>
 VAL166  LYS551  ARG553  GLY616  TRP617  ASP618  TYR619  PRO620  LYS621  CYS622 
 ASP623  PHE694  ASN695  SER759  ASP760  ASP761  ALA762  ILE779  LEU786  VAL792 
 PHE793  MET794  SER795  GLU796  ALA797  LYS798  CYS799  TRP800  GLU811  SER814 

> <Gold.Protein.RotatedAtoms>
  152.0918  134.9402  160.0571 H   0  0  0  0  0  0  0  0  0  0  0  0  # atno 6907 bound_to 6896
  152.0651  133.4075  159.4443 H   0  0  0  0  0  0  0  0  0  0  0  0  # atno 6908 bound_to 6896
  150.6837  134.3076  159.4776 H   0  0  0  0  0  0  0  0  0  0  0  0  # atno 6909 bound_to 6896
  146.2410  140.1506  142.8334 H   0  0  0  0  0  0  0  0  0  0  0  0  # atno 7974 bound_to 7965
  154.9296  140.3038  155.5174 H   0  0  0  0  0  0  0  0  0  0  0  0  # atno 8008 bound_to 7997
  156.3004  140.2356  156.4291 H   0  0  0  0  0  0  0  0  0  0  0  0  # atno 8009 bound_to 7997
  154.8251  140.0421  157.1426 H   0  0  0  0  0  0  0  0  0  0  0  0  # atno 8010 bound_to 7997
  139.7943  144.6839  150.9850 H   0  0  0  0  0  0  0  0  0  0  0  0  # atno 10167 bound_to 10162
  156.8640  130.5596  149.5661 H   0  0  0  0  0  0  0  0  0  0  0  0  # atno 10718 bound_to 10713
  154.6047  135.2858  155.0498 H   0  0  0  0  0  0  0  0  0  0  0  0  # atno 10763 bound_to 10752
  154.1750  135.6466  153.5023 H   0  0  0  0  0  0  0  0  0  0  0  0  # atno 10764 bound_to 10752
  153.0170  135.5410  154.6778 H   0  0  0  0  0  0  0  0  0  0  0  0  # atno 10765 bound_to 10752
  140.8309  133.7998  155.9757 H   0  0  0  0  0  0  0  0  0  0  0  0  # atno 11005 bound_to 11000
  145.0171  140.8762  143.5189 LP  0  0  0  0  0  0  0  0  0  0  0  0  # atno 17320 bound_to 7965
  145.1549  139.2492  143.5422 LP  0  0  0  0  0  0  0  0  0  0  0  0  # atno 17321 bound_to 7965
  140.7820  143.4347  151.0641 LP  0  0  0  0  0  0  0  0  0  0  0  0  # atno 17342 bound_to 10162
  139.8022  143.8067  152.3164 LP  0  0  0  0  0  0  0  0  0  0  0  0  # atno 17343 bound_to 10162
  156.0762  130.5783  150.9477 LP  0  0  0  0  0  0  0  0  0  0  0  0  # atno 17370 bound_to 10713
  157.6234  131.0928  150.8579 LP  0  0  0  0  0  0  0  0  0  0  0  0  # atno 17371 bound_to 10713
  140.8999  134.2391  157.5047 LP  0  0  0  0  0  0  0  0  0  0  0  0  # atno 17394 bound_to 11000
  139.8705  134.9701  156.4691 LP  0  0  0  0  0  0  0  0  0  0  0  0  # atno 17395 bound_to 11000

$$$$
