AV-unprocessed.smi:3232|AV-procd|sdf|12346|dock5
  -GOLD-   2272018213D 1   1.00000     0.00000
 Structure written by MMmdl.
 40 41  0  0  0  0  0  0  0  0  2 V2000
  147.1987  143.3481  159.1986 C   0  0  0  0  0  0  0  0  0  0  0  0
  148.0946  142.4705  158.3143 C   0  0  0  0  0  0  0  0  0  0  0  0
  149.3923  143.1210  158.0123 N   0  3  1  0  0  0  0  0  0  0  0  0
  149.8646  144.0694  159.0437 C   0  0  0  0  0  0  0  0  0  0  0  0
  151.3739  144.1416  158.8527 C   0  0  0  0  0  0  0  0  0  0  0  0
  151.7341  142.7093  158.4784 C   0  0  0  0  0  0  0  0  0  0  0  0
  150.5000  142.1741  157.7249 C   0  0  2  0  0  0  0  0  0  0  0  0
  150.7101  142.0501  156.2011 C   0  0  0  0  0  0  0  0  0  0  0  0
  149.4545  142.0747  155.4590 N   0  0  0  0  0  0  0  0  0  0  0  0
  149.1143  141.2140  154.4872 C   0  0  0  0  0  0  0  0  0  0  0  0
  149.8465  140.2951  154.1178 O   0  0  0  0  0  0  0  0  0  0  0  0
  147.7371  141.4296  153.8426 C   0  0  1  0  0  0  0  0  0  0  0  0
  147.2310  140.1838  153.0925 C   0  0  0  0  0  0  0  0  0  0  0  0
  146.7771  141.8670  154.8458 N   0  0  0  0  0  0  0  0  0  0  0  0
  145.9162  142.8887  154.8488 C   0  0  0  0  0  0  0  0  0  0  0  0
  145.1785  142.9660  155.9472 N   0  0  0  0  0  0  0  0  0  0  0  0
  145.6673  141.8864  156.6265 C   0  0  0  0  0  0  0  0  0  0  0  0
  146.6231  141.1914  156.0098 N   0  0  0  0  0  0  0  0  0  0  0  0
  146.2339  142.8686  159.3649 H   0  0  0  0  0  0  0  0  0  0  0  0
  147.0112  144.3157  158.7327 H   0  0  0  0  0  0  0  0  0  0  0  0
  147.6469  143.5261  160.1760 H   0  0  0  0  0  0  0  0  0  0  0  0
  148.2626  141.5009  158.7852 H   0  0  0  0  0  0  0  0  0  0  0  0
  147.5736  142.2763  157.3759 H   0  0  0  0  0  0  0  0  0  0  0  0
  149.3871  145.0449  158.9466 H   0  0  0  0  0  0  0  0  0  0  0  0
  149.6409  143.6795  160.0382 H   0  0  0  0  0  0  0  0  0  0  0  0
  151.6137  144.8135  158.0272 H   0  0  0  0  0  0  0  0  0  0  0  0
  151.8991  144.4946  159.7408 H   0  0  0  0  0  0  0  0  0  0  0  0
  152.6601  142.6545  157.9054 H   0  0  0  0  0  0  0  0  0  0  0  0
  151.8830  142.1260  159.3883 H   0  0  0  0  0  0  0  0  0  0  0  0
  150.2536  141.1927  158.1347 H   0  0  0  0  0  0  0  0  0  0  0  0
  151.3592  142.8500  155.8402 H   0  0  0  0  0  0  0  0  0  0  0  0
  151.2193  141.1139  155.9696 H   0  0  0  0  0  0  0  0  0  0  0  0
  148.7903  142.7946  155.7061 H   0  0  0  0  0  0  0  0  0  0  0  0
  147.8429  142.2290  153.1062 H   0  0  0  0  0  0  0  0  0  0  0  0
  147.9513  139.8547  152.3426 H   0  0  0  0  0  0  0  0  0  0  0  0
  146.2959  140.3980  152.5743 H   0  0  0  0  0  0  0  0  0  0  0  0
  147.0483  139.3475  153.7687 H   0  0  0  0  0  0  0  0  0  0  0  0
  145.8255  143.5878  154.0301 H   0  0  0  0  0  0  0  0  0  0  0  0
  145.3059  141.6023  157.6037 H   0  0  0  0  0  0  0  0  0  0  0  0
  149.2688  143.6603  157.1672 H   0  0  0  0  0  0  0  0  0  0  0  0
  1  2  1  0  0  0  0
  1 19  1  0  0  0  0
  1 20  1  0  0  0  0
  1 21  1  0  0  0  0
  2  3  1  0  0  0  0
  2 22  1  0  0  0  0
  2 23  1  0  0  0  0
  3  7  1  0  0  0  0
  3  4  1  0  0  0  0
  3 40  1  0  0  0  0
  4  5  1  0  0  0  0
  4 24  1  0  0  0  0
  4 25  1  0  0  0  0
  5  6  1  0  0  0  0
  5 26  1  0  0  0  0
  5 27  1  0  0  0  0
  6  7  1  0  0  0  0
  6 28  1  0  0  0  0
  6 29  1  0  0  0  0
  7  8  1  0  0  0  0
  7 30  1  0  0  0  0
  8  9  1  0  0  0  0
  8 31  1  0  0  0  0
  8 32  1  0  0  0  0
  9 10  1  0  0  0  0
  9 33  1  0  0  0  0
 10 11  2  0  0  0  0
 10 12  1  0  0  0  0
 12 13  1  0  0  0  0
 12 14  1  0  0  0  0
 12 34  1  0  0  0  0
 13 35  1  0  0  0  0
 13 36  1  0  0  0  0
 13 37  1  0  0  0  0
 14 18  1  0  0  0  0
 14 15  1  0  0  0  0
 15 16  2  0  0  0  0
 15 38  1  0  0  0  0
 16 17  1  0  0  0  0
 17 18  2  0  0  0  0
 17 39  1  0  0  0  0
M  CHG  1   3   1
M  END
> <s_m_source_file>
AV-unprocessed.smi

> <i_m_source_file_index>
3232

> <i_lp_mmshare_version>
43012

> <i_f3d_flags>
0

> <s_epik_input>
W0NIM11bQ0gyXU4xW0NIMl1bQ0gyXVtDSDJdW0NASF0xW0NIMl1bTkhdQyg9TylbQ0BIXShbQ0gzXSluMltjSF1uW2NIXW4y

> <s_epik_cmdline>
J2VwaWtfcHl0aG9uJywgJy1waCcsICc3LjAnLCAnLXRuJywgJzgnLCAnLW1hJywgJzIwMCcsICctbWV0YWxfYmluZGluZycsICctaW1hZScsICc8aW5maWxlLm1hZT4nLCAnLW9tYWUnLCAnPG91dGZpbGUubWFlPic=

> <r_lp_tautomer_probability>
1

> <r_epik_Ionization_Penalty>
0.00177695

> <r_epik_Ionization_Penalty_Charging>
0.00176881

> <r_epik_Ionization_Penalty_Neutral>
8.13528e-06

> <r_epik_State_Penalty>
0.00119827

> <r_epik_Charging_Adjusted_Penalty>
0.00296709

> <i_epik_Tot_Q>
1

> <i_epik_Tot_abs_Q>
1

> <r_epik_Metal_State_Penalty>
-0

> <b_epik_Metal_Only>
0

> <s_lp_Force_Field>
OPLS_2005

> <r_lp_Energy>
32.5075

> <b_lp_Chiralities_Consistent>
1

> <s_lp_Variant>
AV-unprocessed.smi:3232-8

> <Gold.Version>
5.8.1

> <Gold.Id.Protein>
6NUR|6NUR_protein|mol2

> <Gold.PLP.Fitness>
41.1642

> <Gold.PLP.PLP>
-33.5469

> <Gold.PLP.part.hbond>
-3.2880

> <Gold.PLP.part.metal>
0.0000

> <Gold.PLP.part.buried>
-4.6277

> <Gold.PLP.part.nonpolar>
-26.3254

> <Gold.PLP.part.repulsive>
1.6540

> <Gold.PLP.ligand.clash>
0.0000

> <Gold.PLP.ligand.torsion>
1.5279

> <Gold.PLP.Chemscore.Hbond>
3.5040

> <Gold.PLP.Chemscore.CHOScore>
0.0000

> <Gold.PLP.Chemscore.Metal>
0.0000

> <Gold.Chemscore.Hbonds>
donor molecule, donor type, donor heavy atom, donor atom, acceptor molecule, acceptor atom, score
      L1  H     3    40       P1  8028  2.00
      L1  H     9    33       P1  8028  0.66
      P1  H  7989  7998       L1    11  0.82

> <Gold.PLP.Chemscore.Internal.Correction>
0.1611

> <Gold.Rescore>
     Score         DG    S(hbond)    S(metal)    S(lipo)     H(rot)  DE(clash)    DE(int)     intcor
     12.33     -13.98       2.15        0.00      65.75       2.49       0.39       1.26       ----

> <Gold.Chemscore.Fitness>
12.3299

> <Gold.Chemscore.DG>
-13.9826

> <Gold.Chemscore.ZeroCoef>
-5.4800

> <Gold.Chemscore.Hbond>
2.1496

> <Gold.Chemscore.Metal>
0.0000

> <Gold.Chemscore.Lipo>
65.7486

> <Gold.Chemscore.Internal_Hbond>
0.0000

> <Gold.Chemscore.DEClash>
0.3894

> <Gold.Chemscore.DEInternal>
1.2633

> <Gold.Chemscore.Rot>
2.4882

> <Gold.Chemscore.Internal.Correction>
   9.000000E+99

> <Gold.Chemscore.Hbonds>
donor molecule, donor type, donor heavy atom, donor atom, acceptor molecule, acceptor atom, score
      L1  H     3    40       P1  8028  0.60
      L1  H     9    33       P1  8028  0.66
      P1  H  7989  7998       L1    11  0.69

> <Gold.Chemscore.Hbond.Weighted>
-7.1798

> <Gold.Chemscore.Metal.Weighted>
-0.0000

> <Gold.Chemscore.Lipo.Weighted>
-7.6926

> <Gold.Chemscore.Internal_Hbond.Weighted>
0.0000

> <Gold.Chemscore.DEClash.Weighted>
0.3894

> <Gold.Chemscore.DEInternal.Weighted>
1.2633

> <Gold.Chemscore.Rot.Weighted>
6.3697

> <Gold.Chemscore.Internal.Correction.Weighted>
   9.000000E+99

> <Gold.Protein.RotatedTorsions>
[ 6907 6896 6895 6894 ] final  144.36 input  -60.11 | X-H torsion
[ 7974 7965 7964 7962 ] final  -59.44 input  175.53 | X-H torsion
[ 8008 7997 7996 7995 ] final -112.52 input   59.86 | X-H torsion
[ 10167 10162 10161 10158 ] final  153.39 input  -65.29 | X-H torsion
[ 10718 10713 10712 10709 ] final   87.61 input   66.30 | X-H torsion
[ 10763 10752 10751 10750 ] final -117.09 input  -60.55 | X-H torsion
[ 11005 11000 10999 10996 ] final  125.50 input  -57.11 | X-H torsion

> <Gold.Protein.ActiveResidues>
 VAL166  LYS551  ARG553  GLY616  TRP617  ASP618  TYR619  PRO620  LYS621  CYS622 
 ASP623  PHE694  ASN695  SER759  ASP760  ASP761  ALA762  ILE779  LEU786  VAL792 
 PHE793  MET794  SER795  GLU796  ALA797  LYS798  CYS799  TRP800  GLU811  SER814 

> <Gold.Protein.RotatedAtoms>
  152.1946  133.4797  159.5025 H   0  0  0  0  0  0  0  0  0  0  0  0  # atno 6907 bound_to 6896
  150.6957  134.1668  159.4206 H   0  0  0  0  0  0  0  0  0  0  0  0  # atno 6908 bound_to 6896
  151.9584  135.0135  160.0597 H   0  0  0  0  0  0  0  0  0  0  0  0  # atno 6909 bound_to 6896
  145.8274  140.8501  143.0101 H   0  0  0  0  0  0  0  0  0  0  0  0  # atno 7974 bound_to 7965
  155.0065  140.0394  157.2382 H   0  0  0  0  0  0  0  0  0  0  0  0  # atno 8008 bound_to 7997
  154.7498  140.2764  155.6279 H   0  0  0  0  0  0  0  0  0  0  0  0  # atno 8009 bound_to 7997
  156.2882  140.2649  156.2248 H   0  0  0  0  0  0  0  0  0  0  0  0  # atno 8010 bound_to 7997
  139.4827  144.5277  151.7774 H   0  0  0  0  0  0  0  0  0  0  0  0  # atno 10167 bound_to 10162
  157.6942  131.0262  150.3149 H   0  0  0  0  0  0  0  0  0  0  0  0  # atno 10718 bound_to 10713
  154.8543  135.4322  154.1925 H   0  0  0  0  0  0  0  0  0  0  0  0  # atno 10763 bound_to 10752
  153.2990  135.6967  153.7227 H   0  0  0  0  0  0  0  0  0  0  0  0  # atno 10764 bound_to 10752
  153.6364  135.3475  155.3032 H   0  0  0  0  0  0  0  0  0  0  0  0  # atno 10765 bound_to 10752
  139.9410  134.9635  156.8568 H   0  0  0  0  0  0  0  0  0  0  0  0  # atno 11005 bound_to 11000
  144.6742  140.0622  143.7475 LP  0  0  0  0  0  0  0  0  0  0  0  0  # atno 17320 bound_to 7965
  145.9608  139.2799  143.1156 LP  0  0  0  0  0  0  0  0  0  0  0  0  # atno 17321 bound_to 7965
  140.4799  144.1465  150.5931 LP  0  0  0  0  0  0  0  0  0  0  0  0  # atno 17342 bound_to 10162
  140.4290  143.2577  151.9620 LP  0  0  0  0  0  0  0  0  0  0  0  0  # atno 17343 bound_to 10162
  156.3645  130.3852  149.7225 LP  0  0  0  0  0  0  0  0  0  0  0  0  # atno 17370 bound_to 10713
  156.4660  130.7974  151.2993 LP  0  0  0  0  0  0  0  0  0  0  0  0  # atno 17371 bound_to 10713
  140.5953  134.0223  155.7515 LP  0  0  0  0  0  0  0  0  0  0  0  0  # atno 17394 bound_to 11000
  141.1044  133.9717  157.3023 LP  0  0  0  0  0  0  0  0  0  0  0  0  # atno 17395 bound_to 11000

$$$$
