AV-unprocessed.smi:1486|AV-procd|sdf|6006|dock9
  -GOLD-   22720 6103D 1   1.00000     0.00000
 Structure written by MMmdl.
 39 40  0  0  0  0  0  0  0  0  1 V2000
  154.6865  144.0984  165.2416 C   0  0  0  0  0  0  0  0  0  0  0  0
  154.7826  142.7941  165.7862 O   0  0  0  0  0  0  0  0  0  0  0  0
  156.1186  142.3179  165.8227 C   0  0  0  0  0  0  0  0  0  0  0  0
  156.1325  140.8730  166.3440 C   0  0  1  0  0  0  0  0  0  0  0  0
  155.3490  140.7410  167.6598 C   0  0  0  0  0  0  0  0  0  0  0  0
  155.5681  139.9811  165.3346 N   0  0  0  0  0  0  0  0  0  0  0  0
  156.1851  139.5978  164.2058 C   0  0  0  0  0  0  0  0  0  0  0  0
  157.3163  139.9672  163.8905 O   0  0  0  0  0  0  0  0  0  0  0  0
  155.4102  138.6473  163.2925 C   0  0  0  0  0  0  0  0  0  0  0  0
  155.0121  139.3511  162.0272 C   0  0  0  0  0  0  0  0  0  0  0  0
  155.3107  138.9683  160.7419 C   0  0  0  0  0  0  0  0  0  0  0  0
  154.6588  140.0714  159.5622 S   0  0  0  0  0  0  0  0  0  0  0  0
  153.9971  141.0396  160.8829 C   0  0  0  0  0  0  0  0  0  0  0  0
  153.2535  142.2507  160.7534 N   0  0  0  0  0  0  0  0  0  0  0  0
  152.9316  142.8195  159.4479 C   0  0  0  0  0  0  0  0  0  0  0  0
  151.9410  143.9571  159.7176 C   0  0  0  0  0  0  0  0  0  0  0  0
  152.0456  144.2357  161.2155 C   0  0  0  0  0  0  0  0  0  0  0  0
  152.7858  143.0213  161.7517 C   0  0  0  0  0  0  0  0  0  0  0  0
  152.9105  142.8278  162.9601 O   0  0  0  0  0  0  0  0  0  0  0  0
  154.2657  140.5329  162.0916 N   0  0  0  0  0  0  0  0  0  0  0  0
  153.6441  144.4169  165.2341 H   0  0  0  0  0  0  0  0  0  0  0  0
  155.0535  144.1251  164.2148 H   0  0  0  0  0  0  0  0  0  0  0  0
  155.2542  144.8164  165.8349 H   0  0  0  0  0  0  0  0  0  0  0  0
  156.5403  142.3516  164.8166 H   0  0  0  0  0  0  0  0  0  0  0  0
  156.7340  142.9592  166.4561 H   0  0  0  0  0  0  0  0  0  0  0  0
  157.1711  140.5947  166.5324 H   0  0  0  0  0  0  0  0  0  0  0  0
  155.7628  141.3937  168.4288 H   0  0  0  0  0  0  0  0  0  0  0  0
  155.3866  139.7207  168.0430 H   0  0  0  0  0  0  0  0  0  0  0  0
  154.3001  141.0079  167.5256 H   0  0  0  0  0  0  0  0  0  0  0  0
  154.6372  139.6300  165.5079 H   0  0  0  0  0  0  0  0  0  0  0  0
  156.0218  137.7692  163.0797 H   0  0  0  0  0  0  0  0  0  0  0  0
  154.5271  138.2849  163.8199 H   0  0  0  0  0  0  0  0  0  0  0  0
  155.8706  138.1025  160.4201 H   0  0  0  0  0  0  0  0  0  0  0  0
  153.8450  143.2028  158.9907 H   0  0  0  0  0  0  0  0  0  0  0  0
  152.5029  142.0735  158.7773 H   0  0  0  0  0  0  0  0  0  0  0  0
  152.1631  144.8405  159.1181 H   0  0  0  0  0  0  0  0  0  0  0  0
  150.9272  143.6381  159.4714 H   0  0  0  0  0  0  0  0  0  0  0  0
  152.6333  145.1328  161.4129 H   0  0  0  0  0  0  0  0  0  0  0  0
  151.0671  144.3474  161.6835 H   0  0  0  0  0  0  0  0  0  0  0  0
  1  2  1  0  0  0  0
  1 21  1  0  0  0  0
  1 22  1  0  0  0  0
  1 23  1  0  0  0  0
  2  3  1  0  0  0  0
  3  4  1  0  0  0  0
  3 24  1  0  0  0  0
  3 25  1  0  0  0  0
  4  5  1  0  0  0  0
  4  6  1  0  0  0  0
  4 26  1  0  0  0  0
  5 27  1  0  0  0  0
  5 28  1  0  0  0  0
  5 29  1  0  0  0  0
  6  7  1  0  0  0  0
  6 30  1  0  0  0  0
  7  8  2  0  0  0  0
  7  9  1  0  0  0  0
  9 10  1  0  0  0  0
  9 31  1  0  0  0  0
  9 32  1  0  0  0  0
 10 20  1  0  0  0  0
 10 11  2  0  0  0  0
 11 12  1  0  0  0  0
 11 33  1  0  0  0  0
 12 13  1  0  0  0  0
 13 14  1  0  0  0  0
 13 20  2  0  0  0  0
 14 18  1  0  0  0  0
 14 15  1  0  0  0  0
 15 16  1  0  0  0  0
 15 34  1  0  0  0  0
 15 35  1  0  0  0  0
 16 17  1  0  0  0  0
 16 36  1  0  0  0  0
 16 37  1  0  0  0  0
 17 18  1  0  0  0  0
 17 38  1  0  0  0  0
 17 39  1  0  0  0  0
 18 19  2  0  0  0  0
M  END
> <s_m_source_file>
AV-unprocessed.smi

> <i_m_source_file_index>
1486

> <i_lp_mmshare_version>
43012

> <i_f3d_flags>
0

> <s_epik_input>
W0NIM11PW0NIMl1bQ0BIXShbQ0gzXSlbTkhdQyg9TylbQ0gyXWMxW2NIXXNjKG4xKU4yW0NIMl1bQ0gyXVtDSDJdQzI9Tw==

> <s_epik_cmdline>
J2VwaWtfcHl0aG9uJywgJy1waCcsICc3LjAnLCAnLXRuJywgJzgnLCAnLW1hJywgJzIwMCcsICctbWV0YWxfYmluZGluZycsICctaW1hZScsICc8aW5maWxlLm1hZT4nLCAnLW9tYWUnLCAnPG91dGZpbGUubWFlPic=

> <r_lp_tautomer_probability>
1

> <r_epik_Ionization_Penalty>
3.00988e-05

> <r_epik_Ionization_Penalty_Charging>
0

> <r_epik_Ionization_Penalty_Neutral>
3.00988e-05

> <r_epik_State_Penalty>
-0

> <r_epik_Charging_Adjusted_Penalty>
0

> <i_epik_Tot_Q>
0

> <i_epik_Tot_abs_Q>
0

> <r_epik_Metal_State_Penalty>
-0

> <b_epik_Metal_Only>
0

> <s_lp_Force_Field>
OPLS_2005

> <r_lp_Energy>
17.9426

> <b_lp_Chiralities_Consistent>
1

> <s_lp_Variant>
AV-unprocessed.smi:1486-2

> <Gold.Version>
5.8.1

> <Gold.Id.Protein>
6NUR|6NUR_protein|mol2

> <Gold.PLP.Fitness>
40.6550

> <Gold.PLP.PLP>
-41.3121

> <Gold.PLP.part.hbond>
0.0000

> <Gold.PLP.part.metal>
0.0000

> <Gold.PLP.part.buried>
-6.6214

> <Gold.PLP.part.nonpolar>
-33.8472

> <Gold.PLP.part.repulsive>
0.1902

> <Gold.PLP.ligand.clash>
0.0000

> <Gold.PLP.ligand.torsion>
0.3560

> <Gold.PLP.Chemscore.Hbond>
0.0000

> <Gold.PLP.Chemscore.CHOScore>
0.0000

> <Gold.PLP.Chemscore.Metal>
0.0000

> <Gold.PLP.Chemscore.Internal.Correction>
0.0548

> <Gold.Rescore>
     Score         DG    S(hbond)    S(metal)    S(lipo)     H(rot)  DE(clash)    DE(int)     intcor
      9.47     -11.19       0.00        0.00      91.20       1.94       0.06       1.66       ----

> <Gold.Chemscore.Fitness>
9.4712

> <Gold.Chemscore.DG>
-11.1910

> <Gold.Chemscore.ZeroCoef>
-5.4800

> <Gold.Chemscore.Hbond>
0.0000

> <Gold.Chemscore.Metal>
0.0000

> <Gold.Chemscore.Lipo>
91.2002

> <Gold.Chemscore.Internal_Hbond>
0.0000

> <Gold.Chemscore.DEClash>
0.0630

> <Gold.Chemscore.DEInternal>
1.6568

> <Gold.Chemscore.Rot>
1.9373

> <Gold.Chemscore.Internal.Correction>
   9.000000E+99

> <Gold.Chemscore.Hbond.Weighted>
-0.0000

> <Gold.Chemscore.Metal.Weighted>
-0.0000

> <Gold.Chemscore.Lipo.Weighted>
-10.6704

> <Gold.Chemscore.Internal_Hbond.Weighted>
0.0000

> <Gold.Chemscore.DEClash.Weighted>
0.0630

> <Gold.Chemscore.DEInternal.Weighted>
1.6568

> <Gold.Chemscore.Rot.Weighted>
4.9594

> <Gold.Chemscore.Internal.Correction.Weighted>
   9.000000E+99

> <Gold.Protein.RotatedTorsions>
[ 6907 6896 6895 6894 ] final  102.62 input  -60.11 | X-H torsion
[ 7974 7965 7964 7962 ] final  135.43 input  175.53 | X-H torsion
[ 8008 7997 7996 7995 ] final  -32.97 input   59.86 | X-H torsion
[ 10167 10162 10161 10158 ] final  169.99 input  -65.29 | X-H torsion
[ 10718 10713 10712 10709 ] final  -41.91 input   66.30 | X-H torsion
[ 10763 10752 10751 10750 ] final  149.43 input  -60.55 | X-H torsion
[ 11005 11000 10999 10996 ] final  -29.01 input  -57.11 | X-H torsion

> <Gold.Protein.ActiveResidues>
 VAL166  LYS551  ARG553  GLY616  TRP617  ASP618  TYR619  PRO620  LYS621  CYS622 
 ASP623  PHE694  ASN695  SER759  ASP760  ASP761  ALA762  ILE779  LEU786  VAL792 
 PHE793  MET794  SER795  GLU796  ALA797  LYS798  CYS799  TRP800  GLU811  SER814 

> <Gold.Protein.RotatedAtoms>
  152.5318  133.9948  159.7867 H   0  0  0  0  0  0  0  0  0  0  0  0  # atno 6907 bound_to 6896
  151.0177  133.5898  159.2682 H   0  0  0  0  0  0  0  0  0  0  0  0  # atno 6908 bound_to 6896
  151.2949  135.0759  159.9271 H   0  0  0  0  0  0  0  0  0  0  0  0  # atno 6909 bound_to 6896
  144.9664  139.4653  143.5454 H   0  0  0  0  0  0  0  0  0  0  0  0  # atno 7974 bound_to 7965
  154.4163  140.1723  156.1813 H   0  0  0  0  0  0  0  0  0  0  0  0  # atno 8008 bound_to 7997
  155.9680  140.3388  155.6526 H   0  0  0  0  0  0  0  0  0  0  0  0  # atno 8009 bound_to 7997
  155.6663  140.0706  157.2527 H   0  0  0  0  0  0  0  0  0  0  0  0  # atno 8010 bound_to 7997
  139.5006  144.3646  151.9789 H   0  0  0  0  0  0  0  0  0  0  0  0  # atno 10167 bound_to 10162
  156.2652  130.4201  149.8498 H   0  0  0  0  0  0  0  0  0  0  0  0  # atno 10718 bound_to 10713
  154.0709  135.2866  155.3308 H   0  0  0  0  0  0  0  0  0  0  0  0  # atno 10763 bound_to 10752
  154.6747  135.5286  153.8187 H   0  0  0  0  0  0  0  0  0  0  0  0  # atno 10764 bound_to 10752
  153.0485  135.6566  154.0891 H   0  0  0  0  0  0  0  0  0  0  0  0  # atno 10765 bound_to 10752
  140.9259  133.7369  156.0867 H   0  0  0  0  0  0  0  0  0  0  0  0  # atno 11005 bound_to 11000
  146.3369  139.8847  142.8818 LP  0  0  0  0  0  0  0  0  0  0  0  0  # atno 17320 bound_to 7965
  145.2624  141.0081  143.3819 LP  0  0  0  0  0  0  0  0  0  0  0  0  # atno 17321 bound_to 7965
  140.3082  144.3568  150.6041 LP  0  0  0  0  0  0  0  0  0  0  0  0  # atno 17342 bound_to 10162
  140.5820  143.2172  151.7412 LP  0  0  0  0  0  0  0  0  0  0  0  0  # atno 17343 bound_to 10162
  156.5999  130.8542  151.3429 LP  0  0  0  0  0  0  0  0  0  0  0  0  # atno 17370 bound_to 10713
  157.7265  130.9630  150.1658 LP  0  0  0  0  0  0  0  0  0  0  0  0  # atno 17371 bound_to 10713
  140.7927  134.3599  157.5460 LP  0  0  0  0  0  0  0  0  0  0  0  0  # atno 17394 bound_to 11000
  139.8785  134.9150  156.3120 LP  0  0  0  0  0  0  0  0  0  0  0  0  # atno 17395 bound_to 11000

$$$$
