AV-unprocessed.smi:2061|AV-procd|sdf|8393|dock4
  -GOLD-   2272011 73D 1   1.00000     0.00000
 Structure written by MMmdl.
 45 46  0  0  0  0  0  0  0  0  3 V2000
  152.9305  142.6582  161.0780 C   0  0  0  0  0  0  0  0  0  0  0  0
  152.8373  141.8085  159.8567 C   0  0  0  0  0  0  0  0  0  0  0  0
  152.0760  141.8928  158.7253 C   0  0  0  0  0  0  0  0  0  0  0  0
  152.4887  140.7597  157.9751 C   0  0  0  0  0  0  0  0  0  0  0  0
  151.9289  140.4933  156.6979 N   0  0  0  0  0  0  0  0  0  0  0  0
  151.7875  139.3103  156.0743 C   0  0  0  0  0  0  0  0  0  0  0  0
  152.0661  138.2581  156.6613 O   0  0  0  0  0  0  0  0  0  0  0  0
  151.3369  139.4495  154.7971 N   0  5  0  0  0  0  0  0  0  0  0  0
  150.6314  138.4111  154.0396 C   0  0  0  0  0  0  0  0  0  0  0  0
  149.2273  138.1248  154.6385 C   0  0  1  0  0  0  0  0  0  0  0  0
  148.1079  139.0509  154.0994 C   0  0  0  0  0  0  0  0  0  0  0  0
  148.8996  136.6618  154.5926 N   0  3  1  0  0  0  0  0  0  0  0  0
  149.9688  135.7912  155.1362 C   0  0  0  0  0  0  0  0  0  0  0  0
  149.6594  134.3142  154.8324 C   0  0  1  0  0  0  0  0  0  0  0  0
  150.6969  133.3714  155.4516 C   0  0  0  0  0  0  0  0  0  0  0  0
  148.3829  133.9713  155.3665 O   0  0  0  0  0  0  0  0  0  0  0  0
  147.2985  134.7648  154.8844 C   0  0  2  0  0  0  0  0  0  0  0  0
  146.9394  134.4410  153.4238 C   0  0  0  0  0  0  0  0  0  0  0  0
  147.5780  136.2571  155.1454 C   0  0  0  0  0  0  0  0  0  0  0  0
  153.4246  140.0520  158.5907 N   0  0  0  0  0  0  0  0  0  0  0  0
  153.6502  140.7185  159.8006 O   0  0  0  0  0  0  0  0  0  0  0  0
  153.2409  143.6708  160.8201 H   0  0  0  0  0  0  0  0  0  0  0  0
  153.6546  142.2535  161.7855 H   0  0  0  0  0  0  0  0  0  0  0  0
  151.9650  142.7176  161.5806 H   0  0  0  0  0  0  0  0  0  0  0  0
  151.3418  142.6445  158.4764 H   0  0  0  0  0  0  0  0  0  0  0  0
  151.6368  141.3039  156.1723 H   0  0  0  0  0  0  0  0  0  0  0  0
  150.5114  138.6767  152.9883 H   0  0  0  0  0  0  0  0  0  0  0  0
  151.2027  137.4828  154.0293 H   0  0  0  0  0  0  0  0  0  0  0  0
  149.3264  138.3964  155.6905 H   0  0  0  0  0  0  0  0  0  0  0  0
  148.3393  140.1043  154.2679 H   0  0  0  0  0  0  0  0  0  0  0  0
  147.1651  138.8574  154.6118 H   0  0  0  0  0  0  0  0  0  0  0  0
  147.9334  138.9275  153.0293 H   0  0  0  0  0  0  0  0  0  0  0  0
  150.9270  136.0547  154.6863 H   0  0  0  0  0  0  0  0  0  0  0  0
  150.0598  135.9543  156.2113 H   0  0  0  0  0  0  0  0  0  0  0  0
  149.6626  134.1560  153.7538 H   0  0  0  0  0  0  0  0  0  0  0  0
  151.6959  133.5801  155.0684 H   0  0  0  0  0  0  0  0  0  0  0  0
  150.4644  132.3315  155.2205 H   0  0  0  0  0  0  0  0  0  0  0  0
  150.7257  133.4729  156.5369 H   0  0  0  0  0  0  0  0  0  0  0  0
  146.4325  134.4852  155.4851 H   0  0  0  0  0  0  0  0  0  0  0  0
  146.0478  134.9873  153.1150 H   0  0  0  0  0  0  0  0  0  0  0  0
  146.7318  133.3779  153.3012 H   0  0  0  0  0  0  0  0  0  0  0  0
  147.7366  134.7059  152.7310 H   0  0  0  0  0  0  0  0  0  0  0  0
  147.5650  136.4303  156.2220 H   0  0  0  0  0  0  0  0  0  0  0  0
  146.7776  136.8602  154.7160 H   0  0  0  0  0  0  0  0  0  0  0  0
  148.8566  136.4507  153.6048 H   0  0  0  0  0  0  0  0  0  0  0  0
  1  2  1  0  0  0  0
  1 22  1  0  0  0  0
  1 23  1  0  0  0  0
  1 24  1  0  0  0  0
  2 21  1  0  0  0  0
  2  3  2  0  0  0  0
  3  4  1  0  0  0  0
  3 25  1  0  0  0  0
  4  5  1  0  0  0  0
  4 20  2  0  0  0  0
  5  6  1  0  0  0  0
  5 26  1  0  0  0  0
  6  7  2  0  0  0  0
  6  8  1  0  0  0  0
  8  9  1  0  0  0  0
  9 10  1  0  0  0  0
  9 27  1  0  0  0  0
  9 28  1  0  0  0  0
 10 11  1  0  0  0  0
 10 12  1  0  0  0  0
 10 29  1  0  0  0  0
 11 30  1  0  0  0  0
 11 31  1  0  0  0  0
 11 32  1  0  0  0  0
 12 19  1  0  0  0  0
 12 13  1  0  0  0  0
 12 45  1  0  0  0  0
 13 14  1  0  0  0  0
 13 33  1  0  0  0  0
 13 34  1  0  0  0  0
 14 15  1  0  0  0  0
 14 16  1  0  0  0  0
 14 35  1  0  0  0  0
 15 36  1  0  0  0  0
 15 37  1  0  0  0  0
 15 38  1  0  0  0  0
 16 17  1  0  0  0  0
 17 18  1  0  0  0  0
 17 19  1  0  0  0  0
 17 39  1  0  0  0  0
 18 40  1  0  0  0  0
 18 41  1  0  0  0  0
 18 42  1  0  0  0  0
 19 43  1  0  0  0  0
 19 44  1  0  0  0  0
 20 21  1  0  0  0  0
M  CHG  1   8  -1
M  CHG  1  12   1
M  END
> <s_m_source_file>
AV-unprocessed.smi

> <i_m_source_file_index>
2061

> <i_lp_mmshare_version>
43012

> <i_f3d_flags>
0

> <s_epik_input>
W0NIM11jMVtjSF1jKG5vMSlbTkhdQyg9TylbTkhdW0NIMl1bQ0BIXShbQ0gzXSlOMltDSDJdW0NAQEhdKFtDSDNdKU9bQ0BASF0oW0NIM10pW0NIMl0y

> <s_epik_cmdline>
J2VwaWtfcHl0aG9uJywgJy1waCcsICc3LjAnLCAnLXRuJywgJzgnLCAnLW1hJywgJzIwMCcsICctbWV0YWxfYmluZGluZycsICctaW1hZScsICc8aW5maWxlLm1hZT4nLCAnLW9tYWUnLCAnPG91dGZpbGUubWFlPic=

> <r_epik_Ionization_Penalty>
6.8073

> <r_epik_Ionization_Penalty_Charging>
6.80729

> <r_epik_Ionization_Penalty_Neutral>
5.65391e-06

> <r_epik_State_Penalty>
7.47323

> <r_epik_Charging_Adjusted_Penalty>
14.2805

> <i_epik_Tot_Q>
0

> <i_epik_Tot_abs_Q>
2

> <r_epik_Metal_State_Penalty>
3.40035

> <b_epik_Metal_Only>
1

> <s_lp_Force_Field>
OPLS_2005

> <r_lp_Energy>
16.8806

> <b_lp_Chiralities_Consistent>
1

> <s_lp_Variant>
AV-unprocessed.smi:2061-34

> <Gold.Version>
5.8.1

> <Gold.Id.Protein>
6NUR|6NUR_protein|mol2

> <Gold.PLP.Fitness>
39.9801

> <Gold.PLP.PLP>
-29.6248

> <Gold.PLP.part.hbond>
-3.0000

> <Gold.PLP.part.metal>
0.0000

> <Gold.PLP.part.buried>
-3.4004

> <Gold.PLP.part.nonpolar>
-22.0064

> <Gold.PLP.part.repulsive>
0.2349

> <Gold.PLP.ligand.clash>
0.0000

> <Gold.PLP.ligand.torsion>
0.7987

> <Gold.PLP.Chemscore.Hbond>
3.8800

> <Gold.PLP.Chemscore.CHOScore>
0.0000

> <Gold.PLP.Chemscore.Metal>
0.0000

> <Gold.Chemscore.Hbonds>
donor molecule, donor type, donor heavy atom, donor atom, acceptor molecule, acceptor atom, score
      L1  H    12    45       P1  7948  2.00
      P1  H  7989  7998       L1     8  1.00
      P1  H  7997  8008       L1    20  0.86

> <Gold.PLP.Chemscore.Internal.Correction>
0.3128

> <Gold.Rescore>
     Score         DG    S(hbond)    S(metal)    S(lipo)     H(rot)  DE(clash)    DE(int)     intcor
     15.39     -17.62       2.32        0.00      71.67       1.56       0.38       1.85       ----

> <Gold.Chemscore.Fitness>
15.3937

> <Gold.Chemscore.DG>
-17.6227

> <Gold.Chemscore.ZeroCoef>
-5.4800

> <Gold.Chemscore.Hbond>
2.3170

> <Gold.Chemscore.Metal>
0.0000

> <Gold.Chemscore.Lipo>
71.6659

> <Gold.Chemscore.Internal_Hbond>
0.0000

> <Gold.Chemscore.DEClash>
0.3790

> <Gold.Chemscore.DEInternal>
1.8499

> <Gold.Chemscore.Rot>
1.5550

> <Gold.Chemscore.Internal.Correction>
   9.000000E+99

> <Gold.Chemscore.Hbonds>
donor molecule, donor type, donor heavy atom, donor atom, acceptor molecule, acceptor atom, score
      L1  H    12    45       P1  7948  1.00
      P1  H  7989  7998       L1     8  0.44
      P1  H  7997  8008       L1    20  0.31

> <Gold.Chemscore.Hbond.Weighted>
-7.7387

> <Gold.Chemscore.Metal.Weighted>
-0.0000

> <Gold.Chemscore.Lipo.Weighted>
-8.3849

> <Gold.Chemscore.Internal_Hbond.Weighted>
0.0000

> <Gold.Chemscore.DEClash.Weighted>
0.3790

> <Gold.Chemscore.DEInternal.Weighted>
1.8499

> <Gold.Chemscore.Rot.Weighted>
3.9809

> <Gold.Chemscore.Internal.Correction.Weighted>
   9.000000E+99

> <Gold.Protein.RotatedTorsions>
[ 6907 6896 6895 6894 ] final  118.57 input  -60.11 | X-H torsion
[ 7974 7965 7964 7962 ] final   59.69 input  175.53 | X-H torsion
[ 8008 7997 7996 7995 ] final -109.67 input   59.86 | X-H torsion
[ 10167 10162 10161 10158 ] final -140.22 input  -65.29 | X-H torsion
[ 10718 10713 10712 10709 ] final  -57.43 input   66.30 | X-H torsion
[ 10763 10752 10751 10750 ] final -179.88 input  -60.55 | X-H torsion
[ 11005 11000 10999 10996 ] final -102.41 input  -57.11 | X-H torsion

> <Gold.Protein.ActiveResidues>
 VAL166  LYS551  ARG553  GLY616  TRP617  ASP618  TYR619  PRO620  LYS621  CYS622 
 ASP623  PHE694  ASN695  SER759  ASP760  ASP761  ALA762  ILE779  LEU786  VAL792 
 PHE793  MET794  SER795  GLU796  ALA797  LYS798  CYS799  TRP800  GLU811  SER814 

> <Gold.Protein.RotatedAtoms>
  152.4533  133.7673  159.6779 H   0  0  0  0  0  0  0  0  0  0  0  0  # atno 6907 bound_to 6896
  150.8452  133.7863  159.3052 H   0  0  0  0  0  0  0  0  0  0  0  0  # atno 6908 bound_to 6896
  151.5476  135.1070  159.9993 H   0  0  0  0  0  0  0  0  0  0  0  0  # atno 6909 bound_to 6896
  145.9043  139.3605  143.0573 H   0  0  0  0  0  0  0  0  0  0  0  0  # atno 7974 bound_to 7965
  154.9629  140.0399  157.2198 H   0  0  0  0  0  0  0  0  0  0  0  0  # atno 8008 bound_to 7997
  154.7873  140.2829  155.5996 H   0  0  0  0  0  0  0  0  0  0  0  0  # atno 8009 bound_to 7997
  156.2945  140.2580  156.2712 H   0  0  0  0  0  0  0  0  0  0  0  0  # atno 8010 bound_to 7997
  139.8303  143.7456  152.2666 H   0  0  0  0  0  0  0  0  0  0  0  0  # atno 10167 bound_to 10162
  156.1211  130.4166  150.0440 H   0  0  0  0  0  0  0  0  0  0  0  0  # atno 10718 bound_to 10713
  154.5294  135.2799  155.1193 H   0  0  0  0  0  0  0  0  0  0  0  0  # atno 10763 bound_to 10752
  154.2719  135.6302  153.5317 H   0  0  0  0  0  0  0  0  0  0  0  0  # atno 10764 bound_to 10752
  152.9953  135.5630  154.5804 H   0  0  0  0  0  0  0  0  0  0  0  0  # atno 10765 bound_to 10752
  141.1190  133.8556  157.1356 H   0  0  0  0  0  0  0  0  0  0  0  0  # atno 11005 bound_to 11000
  145.8751  140.9396  143.0630 LP  0  0  0  0  0  0  0  0  0  0  0  0  # atno 17320 bound_to 7965
  144.6738  140.0706  143.7473 LP  0  0  0  0  0  0  0  0  0  0  0  0  # atno 17321 bound_to 7965
  139.7661  144.7491  151.0292 LP  0  0  0  0  0  0  0  0  0  0  0  0  # atno 17342 bound_to 10162
  140.7807  143.4696  151.0164 LP  0  0  0  0  0  0  0  0  0  0  0  0  # atno 17343 bound_to 10162
  156.8378  130.9415  151.3633 LP  0  0  0  0  0  0  0  0  0  0  0  0  # atno 17370 bound_to 10713
  157.6394  130.8793  149.9420 LP  0  0  0  0  0  0  0  0  0  0  0  0  # atno 17371 bound_to 10713
  140.0133  134.9978  157.0441 LP  0  0  0  0  0  0  0  0  0  0  0  0  # atno 17394 bound_to 11000
  140.4562  134.1531  155.7186 LP  0  0  0  0  0  0  0  0  0  0  0  0  # atno 17395 bound_to 11000

$$$$
