AV-unprocessed.smi:103|AV-procd|sdf|978|dock9
  -GOLD-   2262017533D 1   1.00000     0.00000
 Structure written by MMmdl.
 53 55  0  0  0  0  0  0  0  0  1 V2000
  147.3033  141.9453  153.9698 C   0  0  0  0  0  0  0  0  0  0  0  0
  148.3870  140.9148  154.2599 C   0  0  0  0  0  0  0  0  0  0  0  0
  149.5051  141.0004  153.7516 O   0  0  0  0  0  0  0  0  0  0  0  0
  147.9737  139.9555  155.1068 O   0  0  0  0  0  0  0  0  0  0  0  0
  148.8269  138.8680  155.4392 C   0  0  0  0  0  0  0  0  0  0  0  0
  149.2313  138.9091  156.9282 C   0  0  1  0  0  0  0  0  0  0  0  0
  148.1467  138.3781  157.6942 O   0  0  0  0  0  0  0  0  0  0  0  0
  148.5335  137.2189  158.3668 C   0  0  1  0  0  0  0  0  0  0  0  0
  147.4092  136.2257  158.3511 N   0  0  0  0  0  0  0  0  0  0  0  0
  146.7674  135.6264  159.4159 C   0  0  0  0  0  0  0  0  0  0  0  0
  147.0544  135.9569  161.1499 S   0  0  0  0  0  0  0  0  0  0  0  0
  147.3383  134.2647  161.8098 C   0  0  0  0  0  0  0  0  0  0  0  0
  148.3016  136.7326  161.2387 O   0  0  0  0  0  0  0  0  0  0  0  0
  145.8018  136.4878  161.7086 O   0  0  0  0  0  0  0  0  0  0  0  0
  145.7826  134.8194  159.1301 N   0  0  0  0  0  0  0  0  0  0  0  0
  145.7856  134.8009  157.7429 C   0  0  0  0  0  0  0  0  0  0  0  0
  145.0166  134.1189  156.7668 C   0  0  0  0  0  0  0  0  0  0  0  0
  144.0314  133.2657  157.0779 N   0  0  0  0  0  0  0  0  0  0  0  0
  145.2898  134.3357  155.4593 N   0  0  0  0  0  0  0  0  0  0  0  0
  146.2687  135.1809  155.1232 C   0  0  0  0  0  0  0  0  0  0  0  0
  147.0699  135.8893  155.9221 N   0  0  0  0  0  0  0  0  0  0  0  0
  146.7956  135.6721  157.2421 C   0  0  0  0  0  0  0  0  0  0  0  0
  149.8014  136.7018  157.6779 C   0  0  1  0  0  0  0  0  0  0  0  0
  149.4944  135.9015  156.5365 O   0  0  0  0  0  0  0  0  0  0  0  0
  150.4657  135.2601  155.8631 C   0  0  0  0  0  0  0  0  0  0  0  0
  149.9243  134.4777  154.6745 C   0  0  0  0  0  0  0  0  0  0  0  0
  151.6642  135.2582  156.1424 O   0  0  0  0  0  0  0  0  0  0  0  0
  150.4373  138.0227  157.2794 C   0  0  1  0  0  0  0  0  0  0  0  0
  151.3918  137.8941  156.2300 O   0  0  0  0  0  0  0  0  0  0  0  0
  152.2526  138.8941  155.9717 C   0  0  0  0  0  0  0  0  0  0  0  0
  152.9554  138.7238  154.6317 C   0  0  0  0  0  0  0  0  0  0  0  0
  152.4874  139.8555  156.7039 O   0  0  0  0  0  0  0  0  0  0  0  0
  146.3155  141.5456  154.2009 H   0  0  0  0  0  0  0  0  0  0  0  0
  147.3220  142.2282  152.9170 H   0  0  0  0  0  0  0  0  0  0  0  0
  147.4641  142.8404  154.5707 H   0  0  0  0  0  0  0  0  0  0  0  0
  148.3055  137.9391  155.2124 H   0  0  0  0  0  0  0  0  0  0  0  0
  149.7098  138.8862  154.7988 H   0  0  0  0  0  0  0  0  0  0  0  0
  149.4341  139.9361  157.2330 H   0  0  0  0  0  0  0  0  0  0  0  0
  148.6895  137.4701  159.4156 H   0  0  0  0  0  0  0  0  0  0  0  0
  147.5304  134.3206  162.8809 H   0  0  0  0  0  0  0  0  0  0  0  0
  148.1993  133.8210  161.3100 H   0  0  0  0  0  0  0  0  0  0  0  0
  146.4574  133.6492  161.6294 H   0  0  0  0  0  0  0  0  0  0  0  0
  143.8098  133.0857  158.0466 H   0  0  0  0  0  0  0  0  0  0  0  0
  143.5167  132.8004  156.3445 H   0  0  0  0  0  0  0  0  0  0  0  0
  146.4328  135.3102  154.0635 H   0  0  0  0  0  0  0  0  0  0  0  0
  150.4277  136.1661  158.3917 H   0  0  0  0  0  0  0  0  0  0  0  0
  148.9303  134.0869  154.8944 H   0  0  0  0  0  0  0  0  0  0  0  0
  150.5802  133.6388  154.4401 H   0  0  0  0  0  0  0  0  0  0  0  0
  149.8586  135.1224  153.7979 H   0  0  0  0  0  0  0  0  0  0  0  0
  150.9158  138.4547  158.1602 H   0  0  0  0  0  0  0  0  0  0  0  0
  153.3195  137.7022  154.5208 H   0  0  0  0  0  0  0  0  0  0  0  0
  153.8051  139.4027  154.5567 H   0  0  0  0  0  0  0  0  0  0  0  0
  152.2675  138.9388  153.8141 H   0  0  0  0  0  0  0  0  0  0  0  0
  1  2  1  0  0  0  0
  1 33  1  0  0  0  0
  1 34  1  0  0  0  0
  1 35  1  0  0  0  0
  2  3  2  0  0  0  0
  2  4  1  0  0  0  0
  4  5  1  0  0  0  0
  5  6  1  0  0  0  0
  5 36  1  0  0  0  0
  5 37  1  0  0  0  0
  6 28  1  0  0  0  0
  6  7  1  0  0  0  0
  6 38  1  0  0  0  0
  7  8  1  0  0  0  0
  8  9  1  0  0  0  0
  8 23  1  0  0  0  0
  8 39  1  0  0  0  0
  9 22  1  0  0  0  0
  9 10  1  0  0  0  0
 10 11  1  0  0  0  0
 10 15  2  0  0  0  0
 11 12  1  0  0  0  0
 11 13  2  0  0  0  0
 11 14  2  0  0  0  0
 12 40  1  0  0  0  0
 12 41  1  0  0  0  0
 12 42  1  0  0  0  0
 15 16  1  0  0  0  0
 16 22  2  0  0  0  0
 16 17  1  0  0  0  0
 17 18  1  0  0  0  0
 17 19  2  0  0  0  0
 18 43  1  0  0  0  0
 18 44  1  0  0  0  0
 19 20  1  0  0  0  0
 20 21  2  0  0  0  0
 20 45  1  0  0  0  0
 21 22  1  0  0  0  0
 23 24  1  0  0  0  0
 23 28  1  0  0  0  0
 23 46  1  0  0  0  0
 24 25  1  0  0  0  0
 25 26  1  0  0  0  0
 25 27  2  0  0  0  0
 26 47  1  0  0  0  0
 26 48  1  0  0  0  0
 26 49  1  0  0  0  0
 28 29  1  0  0  0  0
 28 50  1  0  0  0  0
 29 30  1  0  0  0  0
 30 31  1  0  0  0  0
 30 32  2  0  0  0  0
 31 51  1  0  0  0  0
 31 52  1  0  0  0  0
 31 53  1  0  0  0  0
M  END
> <s_m_source_file>
AV-unprocessed.smi

> <i_m_source_file_index>
103

> <i_lp_mmshare_version>
43012

> <i_f3d_flags>
0

> <s_epik_input>
W0NIM11DKD1PKU9bQ0gyXVtDQEBIXTFPW0NASF0oW0NAQEhdKE9DKD1PKVtDSDNdKVtDQEhdMU9DKD1PKVtDSDNdKW4oYyhuMilTKD1PKSg9TylbQ0gzXSljKGMyMyluW2NIXW5jM1tOSDJd

> <s_epik_cmdline>
J2VwaWtfcHl0aG9uJywgJy1waCcsICc3LjAnLCAnLXRuJywgJzgnLCAnLW1hJywgJzIwMCcsICctbWV0YWxfYmluZGluZycsICctaW1hZScsICc8aW5maWxlLm1hZT4nLCAnLW9tYWUnLCAnPG91dGZpbGUubWFlPic=

> <r_lp_tautomer_probability>
1

> <r_epik_Ionization_Penalty>
1.51338e-05

> <r_epik_Ionization_Penalty_Charging>
0

> <r_epik_Ionization_Penalty_Neutral>
1.51338e-05

> <r_epik_State_Penalty>
-0

> <r_epik_Charging_Adjusted_Penalty>
0

> <i_epik_Tot_Q>
0

> <i_epik_Tot_abs_Q>
0

> <r_epik_Metal_State_Penalty>
-0

> <b_epik_Metal_Only>
0

> <s_epik_Chemistry_Notes>
This compound has an ester and may undergo hydrolysis at high or low pH. This compound contains an acetal/aminal-like group ( X-CH(R)-Y where X, Y are N, S, or O) that may be acid/base labile, releasing an aldehyde.

> <s_lp_Force_Field>
OPLS_2005

> <r_lp_Energy>
15.224

> <b_lp_Chiralities_Consistent>
1

> <s_lp_Variant>
AV-unprocessed.smi:103-2

> <Gold.Version>
5.8.1

> <Gold.Id.Protein>
6NUR|6NUR_protein|mol2

> <Gold.PLP.Fitness>
46.3119

> <Gold.PLP.PLP>
-32.2451

> <Gold.PLP.part.hbond>
-5.9643

> <Gold.PLP.part.metal>
0.0000

> <Gold.PLP.part.buried>
-6.2251

> <Gold.PLP.part.nonpolar>
-21.2542

> <Gold.PLP.part.repulsive>
1.9507

> <Gold.PLP.ligand.clash>
0.0000

> <Gold.PLP.ligand.torsion>
1.9777

> <Gold.PLP.Chemscore.Hbond>
5.1698

> <Gold.PLP.Chemscore.CHOScore>
0.0000

> <Gold.PLP.Chemscore.Metal>
0.0000

> <Gold.Chemscore.Hbonds>
donor molecule, donor type, donor heavy atom, donor atom, acceptor molecule, acceptor atom, score
      L1  H    18    44       P1 10957  1.00
      P1  H  6931  6943       L1    13  1.00
      P1  H  7989  7998       L1     3  0.28
      P1  H  7997  8009       L1    32  1.00
      P1  H  8011  8017       L1     3  0.98
      P1  H 10752 10765       L1    27  1.00

> <Gold.PLP.Chemscore.Internal.Correction>
2.5128

> <Gold.Rescore>
     Score         DG    S(hbond)    S(metal)    S(lipo)     H(rot)  DE(clash)    DE(int)     intcor
      5.77     -15.59       4.88        0.00      40.10       4.25       0.30       9.52       ----

> <Gold.Chemscore.Fitness>
5.7650

> <Gold.Chemscore.DG>
-15.5906

> <Gold.Chemscore.ZeroCoef>
-5.4800

> <Gold.Chemscore.Hbond>
4.8766

> <Gold.Chemscore.Metal>
0.0000

> <Gold.Chemscore.Lipo>
40.0983

> <Gold.Chemscore.Internal_Hbond>
0.0000

> <Gold.Chemscore.DEClash>
0.3015

> <Gold.Chemscore.DEInternal>
9.5240

> <Gold.Chemscore.Rot>
4.2456

> <Gold.Chemscore.Internal.Correction>
   9.000000E+99

> <Gold.Chemscore.Hbonds>
donor molecule, donor type, donor heavy atom, donor atom, acceptor molecule, acceptor atom, score
      L1  H    18    44       P1 10957  0.94
      P1  H  6931  6943       L1    13  1.00
      P1  H  7989  7998       L1     3  0.28
      P1  H  7997  8009       L1    32  0.54
      P1  H  8011  8017       L1     3  0.84
      P1  H 10752 10765       L1    27  0.98

> <Gold.Chemscore.Hbond.Weighted>
-16.2877

> <Gold.Chemscore.Metal.Weighted>
-0.0000

> <Gold.Chemscore.Lipo.Weighted>
-4.6915

> <Gold.Chemscore.Internal_Hbond.Weighted>
0.0000

> <Gold.Chemscore.DEClash.Weighted>
0.3015

> <Gold.Chemscore.DEInternal.Weighted>
9.5240

> <Gold.Chemscore.Rot.Weighted>
10.8687

> <Gold.Chemscore.Internal.Correction.Weighted>
   9.000000E+99

> <Gold.Protein.RotatedTorsions>
[ 6907 6896 6895 6894 ] final  117.05 input  -60.11 | X-H torsion
[ 7974 7965 7964 7962 ] final -125.90 input  175.53 | X-H torsion
[ 8008 7997 7996 7995 ] final  177.51 input   59.86 | X-H torsion
[ 10167 10162 10161 10158 ] final -115.12 input  -65.29 | X-H torsion
[ 10718 10713 10712 10709 ] final -118.53 input   66.30 | X-H torsion
[ 10763 10752 10751 10750 ] final -157.79 input  -60.55 | X-H torsion
[ 11005 11000 10999 10996 ] final -141.50 input  -57.11 | X-H torsion

> <Gold.Protein.ActiveResidues>
 VAL166  LYS551  ARG553  GLY616  TRP617  ASP618  TYR619  PRO620  LYS621  CYS622 
 ASP623  PHE694  ASN695  SER759  ASP760  ASP761  ALA762  ILE779  LEU786  VAL792 
 PHE793  MET794  SER795  GLU796  ALA797  LYS798  CYS799  TRP800  GLU811  SER814 

> <Gold.Protein.RotatedAtoms>
  152.4637  133.7878  159.6885 H   0  0  0  0  0  0  0  0  0  0  0  0  # atno 6907 bound_to 6896
  150.8593  133.7658  159.3004 H   0  0  0  0  0  0  0  0  0  0  0  0  # atno 6908 bound_to 6896
  151.5229  135.1070  159.9935 H   0  0  0  0  0  0  0  0  0  0  0  0  # atno 6909 bound_to 6896
  144.9928  140.7748  143.4543 H   0  0  0  0  0  0  0  0  0  0  0  0  # atno 7974 bound_to 7965
  156.0649  140.1356  156.9898 H   0  0  0  0  0  0  0  0  0  0  0  0  # atno 8008 bound_to 7997
  154.4501  140.0984  156.6643 H   0  0  0  0  0  0  0  0  0  0  0  0  # atno 8009 bound_to 7997
  155.5320  140.3459  155.4430 H   0  0  0  0  0  0  0  0  0  0  0  0  # atno 8010 bound_to 7997
  140.0935  143.4678  152.1855 H   0  0  0  0  0  0  0  0  0  0  0  0  # atno 10167 bound_to 10162
  156.1113  130.6251  150.9303 H   0  0  0  0  0  0  0  0  0  0  0  0  # atno 10718 bound_to 10713
  154.7608  135.3117  154.8381 H   0  0  0  0  0  0  0  0  0  0  0  0  # atno 10763 bound_to 10752
  153.9143  135.6802  153.4754 H   0  0  0  0  0  0  0  0  0  0  0  0  # atno 10764 bound_to 10752
  153.1209  135.4823  154.9125 H   0  0  0  0  0  0  0  0  0  0  0  0  # atno 10765 bound_to 10752
  140.8318  134.2508  157.4853 H   0  0  0  0  0  0  0  0  0  0  0  0  # atno 11005 bound_to 11000
  145.2261  139.2136  143.5067 LP  0  0  0  0  0  0  0  0  0  0  0  0  # atno 17320 bound_to 7965
  146.3435  140.2129  142.8590 LP  0  0  0  0  0  0  0  0  0  0  0  0  # atno 17321 bound_to 7965
  139.5711  144.7463  151.3888 LP  0  0  0  0  0  0  0  0  0  0  0  0  # atno 17342 bound_to 10162
  140.7016  143.7618  150.7412 LP  0  0  0  0  0  0  0  0  0  0  0  0  # atno 17343 bound_to 10162
  157.6295  131.0922  150.8469 LP  0  0  0  0  0  0  0  0  0  0  0  0  # atno 17370 bound_to 10713
  156.8580  130.5103  149.5306 LP  0  0  0  0  0  0  0  0  0  0  0  0  # atno 17371 bound_to 10713
  139.8705  134.9590  156.4318 LP  0  0  0  0  0  0  0  0  0  0  0  0  # atno 17394 bound_to 11000
  140.8990  133.7793  155.9658 LP  0  0  0  0  0  0  0  0  0  0  0  0  # atno 17395 bound_to 11000

$$$$
