AV-unprocessed.smi:2831|AV-procd|sdf|10910|dock5
  -GOLD-   2272015353D 1   1.00000     0.00000
 Structure written by MMmdl.
 29 30  0  0  0  0  0  0  0  0  2 V2000
  145.9995  134.7338  162.3467 C   0  0  0  0  0  0  0  0  0  0  0  0
  147.0151  135.4648  161.5372 C   0  0  0  0  0  0  0  0  0  0  0  0
  147.2358  136.7753  161.6665 N   0  0  0  0  0  0  0  0  0  0  0  0
  148.2254  137.2261  160.8047 N   0  0  0  0  0  0  0  0  0  0  0  0
  148.7297  136.2553  160.0297 C   0  0  0  0  0  0  0  0  0  0  0  0
  149.6991  136.4827  159.1277 N   0  5  0  0  0  0  0  0  0  0  0  0
  149.9232  137.7385  158.6784 C   0  0  0  0  0  0  0  0  0  0  0  0
  149.2257  138.7277  158.9113 O   0  0  0  0  0  0  0  0  0  0  0  0
  151.0219  137.8430  157.9112 N   0  0  0  0  0  0  0  0  0  0  0  0
  151.5896  139.0260  157.2485 C   0  0  1  0  0  0  0  0  0  0  0  0
  151.9638  140.0349  158.3505 C   0  0  0  0  0  0  0  0  0  0  0  0
  152.8175  138.7043  156.3779 C   0  0  0  0  0  0  0  0  0  0  0  0
  152.3866  139.0852  154.9626 C   0  0  0  0  0  0  0  0  0  0  0  0
  151.4215  140.1009  155.1739 O   0  0  0  0  0  0  0  0  0  0  0  0
  150.6030  139.6659  156.2485 C   0  0  0  0  0  0  0  0  0  0  0  0
  148.0164  134.6716  160.3335 S   0  0  0  0  0  0  0  0  0  0  0  0
  145.0065  134.8864  161.9238 H   0  0  0  0  0  0  0  0  0  0  0  0
  146.0040  135.0949  163.3754 H   0  0  0  0  0  0  0  0  0  0  0  0
  146.2183  133.6658  162.3525 H   0  0  0  0  0  0  0  0  0  0  0  0
  151.5345  136.9847  157.7713 H   0  0  0  0  0  0  0  0  0  0  0  0
  152.3675  140.9554  157.9274 H   0  0  0  0  0  0  0  0  0  0  0  0
  152.7159  139.6231  159.0248 H   0  0  0  0  0  0  0  0  0  0  0  0
  151.0951  140.3049  158.9521 H   0  0  0  0  0  0  0  0  0  0  0  0
  153.6699  139.3195  156.6691 H   0  0  0  0  0  0  0  0  0  0  0  0
  153.1476  137.6666  156.4367 H   0  0  0  0  0  0  0  0  0  0  0  0
  153.2164  139.4393  154.3511 H   0  0  0  0  0  0  0  0  0  0  0  0
  151.9217  138.2406  154.4518 H   0  0  0  0  0  0  0  0  0  0  0  0
  149.8763  138.9521  155.8587 H   0  0  0  0  0  0  0  0  0  0  0  0
  150.0412  140.4977  156.6745 H   0  0  0  0  0  0  0  0  0  0  0  0
  1  2  1  0  0  0  0
  1 17  1  0  0  0  0
  1 18  1  0  0  0  0
  1 19  1  0  0  0  0
  2 16  1  0  0  0  0
  2  3  2  0  0  0  0
  3  4  1  0  0  0  0
  4  5  2  0  0  0  0
  5  6  1  0  0  0  0
  5 16  1  0  0  0  0
  6  7  1  0  0  0  0
  7  8  2  0  0  0  0
  7  9  1  0  0  0  0
  9 10  1  0  0  0  0
  9 20  1  0  0  0  0
 10 15  1  0  0  0  0
 10 11  1  0  0  0  0
 10 12  1  0  0  0  0
 11 21  1  0  0  0  0
 11 22  1  0  0  0  0
 11 23  1  0  0  0  0
 12 13  1  0  0  0  0
 12 24  1  0  0  0  0
 12 25  1  0  0  0  0
 13 14  1  0  0  0  0
 13 26  1  0  0  0  0
 13 27  1  0  0  0  0
 14 15  1  0  0  0  0
 15 28  1  0  0  0  0
 15 29  1  0  0  0  0
M  CHG  1   6  -1
M  END
> <s_m_source_file>
AV-unprocessed.smi

> <i_m_source_file_index>
2831

> <i_lp_mmshare_version>
43012

> <i_f3d_flags>
0

> <s_epik_input>
W0NIM11jMW5uYyhzMSlbTkhdQyg9TylbTkhdW0NAQF0yKFtDSDNdKVtDSDJdW0NIMl1PW0NIMl0y

> <s_epik_cmdline>
J2VwaWtfcHl0aG9uJywgJy1waCcsICc3LjAnLCAnLXRuJywgJzgnLCAnLW1hJywgJzIwMCcsICctbWV0YWxfYmluZGluZycsICctaW1hZScsICc8aW5maWxlLm1hZT4nLCAnLW9tYWUnLCAnPG91dGZpbGUubWFlPic=

> <r_lp_tautomer_probability>
1

> <r_epik_Ionization_Penalty>
3.33648

> <r_epik_Ionization_Penalty_Charging>
3.18522

> <r_epik_Ionization_Penalty_Neutral>
0.151254

> <r_epik_State_Penalty>
3.18248

> <r_epik_Charging_Adjusted_Penalty>
6.3677

> <i_epik_Tot_Q>
-1

> <i_epik_Tot_abs_Q>
1

> <r_epik_Metal_State_Penalty>
0.469716

> <b_epik_Metal_Only>
1

> <s_lp_Force_Field>
OPLS_2005

> <r_lp_Energy>
14.581

> <b_lp_Chiralities_Consistent>
1

> <s_lp_Variant>
AV-unprocessed.smi:2831-3

> <Gold.Version>
5.8.1

> <Gold.Id.Protein>
6NUR|6NUR_protein|mol2

> <Gold.PLP.Fitness>
36.4475

> <Gold.PLP.PLP>
-25.5406

> <Gold.PLP.part.hbond>
-6.5516

> <Gold.PLP.part.metal>
0.0000

> <Gold.PLP.part.buried>
-2.1736

> <Gold.PLP.part.nonpolar>
-17.4828

> <Gold.PLP.part.repulsive>
0.0934

> <Gold.PLP.ligand.clash>
0.0000

> <Gold.PLP.ligand.torsion>
0.1059

> <Gold.PLP.Chemscore.Hbond>
3.7037

> <Gold.PLP.Chemscore.CHOScore>
0.0000

> <Gold.PLP.Chemscore.Metal>
0.0000

> <Gold.Chemscore.Hbonds>
donor molecule, donor type, donor heavy atom, donor atom, acceptor molecule, acceptor atom, score
      P1  H  6896  6908       L1     6  1.35
      P1  H  6931  6943       L1     4  0.78
      P1  H  6934  6947       L1     4  0.11
      P1  H  7989  7998       L1    14  0.75

> <Gold.PLP.Chemscore.Internal.Correction>
0.0077

> <Gold.Rescore>
     Score         DG    S(hbond)    S(metal)    S(lipo)     H(rot)  DE(clash)    DE(int)     intcor
     12.47     -14.30       1.62        0.00      50.95       1.00       0.07       1.76       ----

> <Gold.Chemscore.Fitness>
12.4678

> <Gold.Chemscore.DG>
-14.3015

> <Gold.Chemscore.ZeroCoef>
-5.4800

> <Gold.Chemscore.Hbond>
1.6230

> <Gold.Chemscore.Metal>
0.0000

> <Gold.Chemscore.Lipo>
50.9467

> <Gold.Chemscore.Internal_Hbond>
0.0000

> <Gold.Chemscore.DEClash>
0.0727

> <Gold.Chemscore.DEInternal>
1.7609

> <Gold.Chemscore.Rot>
1.0000

> <Gold.Chemscore.Internal.Correction>
   9.000000E+99

> <Gold.Chemscore.Hbonds>
donor molecule, donor type, donor heavy atom, donor atom, acceptor molecule, acceptor atom, score
      P1  H  6896  6908       L1     6  0.13
      P1  H  6931  6943       L1     4  0.15
      P1  H  7989  7998       L1    14  0.09

> <Gold.Chemscore.Hbond.Weighted>
-5.4207

> <Gold.Chemscore.Metal.Weighted>
-0.0000

> <Gold.Chemscore.Lipo.Weighted>
-5.9608

> <Gold.Chemscore.Internal_Hbond.Weighted>
0.0000

> <Gold.Chemscore.DEClash.Weighted>
0.0727

> <Gold.Chemscore.DEInternal.Weighted>
1.7609

> <Gold.Chemscore.Rot.Weighted>
2.5600

> <Gold.Chemscore.Internal.Correction.Weighted>
   9.000000E+99

> <Gold.Protein.RotatedTorsions>
[ 6907 6896 6895 6894 ] final -145.77 input  -60.11 | X-H torsion
[ 7974 7965 7964 7962 ] final   -2.77 input  175.53 | X-H torsion
[ 8008 7997 7996 7995 ] final  -29.78 input   59.86 | X-H torsion
[ 10167 10162 10161 10158 ] final  -26.98 input  -65.29 | X-H torsion
[ 10718 10713 10712 10709 ] final   58.95 input   66.30 | X-H torsion
[ 10763 10752 10751 10750 ] final   99.14 input  -60.55 | X-H torsion
[ 11005 11000 10999 10996 ] final   97.42 input  -57.11 | X-H torsion

> <Gold.Protein.ActiveResidues>
 VAL166  LYS551  ARG553  GLY616  TRP617  ASP618  TYR619  PRO620  LYS621  CYS622 
 ASP623  PHE694  ASN695  SER759  ASP760  ASP761  ALA762  ILE779  LEU786  VAL792 
 PHE793  MET794  SER795  GLU796  ALA797  LYS798  CYS799  TRP800  GLU811  SER814 

> <Gold.Protein.RotatedAtoms>
  151.1324  133.5028  159.2598 H   0  0  0  0  0  0  0  0  0  0  0  0  # atno 6907 bound_to 6896
  151.1743  135.0332  159.8775 H   0  0  0  0  0  0  0  0  0  0  0  0  # atno 6908 bound_to 6896
  152.5460  134.1183  159.8441 H   0  0  0  0  0  0  0  0  0  0  0  0  # atno 6909 bound_to 6896
  146.2400  140.1620  142.8332 H   0  0  0  0  0  0  0  0  0  0  0  0  # atno 7974 bound_to 7965
  154.4276  140.1809  156.1303 H   0  0  0  0  0  0  0  0  0  0  0  0  # atno 8008 bound_to 7997
  156.0073  140.3354  155.6880 H   0  0  0  0  0  0  0  0  0  0  0  0  # atno 8009 bound_to 7997
  155.6160  140.0655  157.2683 H   0  0  0  0  0  0  0  0  0  0  0  0  # atno 8010 bound_to 7997
  140.7280  143.4132  151.1071 H   0  0  0  0  0  0  0  0  0  0  0  0  # atno 10167 bound_to 10162
  157.5637  130.8855  149.9152 H   0  0  0  0  0  0  0  0  0  0  0  0  # atno 10718 bound_to 10713
  153.2977  135.4124  155.1225 H   0  0  0  0  0  0  0  0  0  0  0  0  # atno 10763 bound_to 10752
  154.8540  135.3534  154.5894 H   0  0  0  0  0  0  0  0  0  0  0  0  # atno 10764 bound_to 10752
  153.6318  135.7060  153.5331 H   0  0  0  0  0  0  0  0  0  0  0  0  # atno 10765 bound_to 10752
  139.8776  134.9000  156.4305 H   0  0  0  0  0  0  0  0  0  0  0  0  # atno 11005 bound_to 11000
  145.0081  140.8690  143.5241 LP  0  0  0  0  0  0  0  0  0  0  0  0  # atno 17320 bound_to 7965
  145.1650  139.2437  143.5372 LP  0  0  0  0  0  0  0  0  0  0  0  0  # atno 17321 bound_to 7965
  139.7768  143.8413  152.3131 LP  0  0  0  0  0  0  0  0  0  0  0  0  # atno 17342 bound_to 10162
  139.8351  144.7236  150.9402 LP  0  0  0  0  0  0  0  0  0  0  0  0  # atno 17343 bound_to 10162
  156.0687  130.3688  150.0823 LP  0  0  0  0  0  0  0  0  0  0  0  0  # atno 17370 bound_to 10713
  156.8984  130.9612  151.3579 LP  0  0  0  0  0  0  0  0  0  0  0  0  # atno 17371 bound_to 10713
  140.9070  133.7738  155.9747 LP  0  0  0  0  0  0  0  0  0  0  0  0  # atno 17394 bound_to 11000
  140.8588  134.2865  157.5243 LP  0  0  0  0  0  0  0  0  0  0  0  0  # atno 17395 bound_to 11000

$$$$
