AV-unprocessed.smi:1251|AV-procd|sdf|5259|dock8
  -GOLD-   22720 4373D 1   1.00000     0.00000
 Structure written by MMmdl.
 39 40  0  0  0  0  0  0  0  0  1 V2000
  150.8696  140.4656  158.2283 C   0  0  0  0  0  0  0  0  0  0  0  0
  151.4803  141.5334  157.3146 C   0  0  0  0  0  0  0  0  0  0  0  0
  150.5378  141.9407  156.1734 C   0  0  0  0  0  0  0  0  0  0  0  0
  150.0729  140.7725  155.3694 C   0  0  0  0  0  0  0  0  0  0  0  0
  150.9170  139.9580  154.7233 N   0  0  0  0  0  0  0  0  0  0  0  0
  150.2590  138.9278  154.0654 N   0  0  0  0  0  0  0  0  0  0  0  0
  148.9368  138.9845  154.2464 C   0  0  0  0  0  0  0  0  0  0  0  0
  148.1366  137.9897  153.6311 N   0  0  0  0  0  0  0  0  0  0  0  0
  146.9181  137.5640  154.0006 C   0  0  0  0  0  0  0  0  0  0  0  0
  146.2817  137.9817  154.9677 O   0  0  0  0  0  0  0  0  0  0  0  0
  146.4723  136.6054  153.1752 N   0  0  0  0  0  0  0  0  0  0  0  0
  145.1867  135.9161  153.2749 C   0  0  1  0  0  0  0  0  0  0  0  0
  144.0759  136.9647  153.4337 C   0  0  0  0  0  0  0  0  0  0  0  0
  144.9573  135.0206  152.0398 C   0  0  1  0  0  0  0  0  0  0  0  0
  146.0087  133.9301  151.8245 C   0  0  0  0  0  0  0  0  0  0  0  0
  145.2491  132.9401  150.9723 C   0  0  0  0  0  0  0  0  0  0  0  0
  143.8527  133.0054  151.5846 C   0  0  0  0  0  0  0  0  0  0  0  0
  143.7306  134.3041  152.1601 O   0  0  0  0  0  0  0  0  0  0  0  0
  148.3767  140.3201  155.2529 S   0  0  0  0  0  0  0  0  0  0  0  0
  151.5611  140.1966  159.0272 H   0  0  0  0  0  0  0  0  0  0  0  0
  150.6350  139.5578  157.6718 H   0  0  0  0  0  0  0  0  0  0  0  0
  149.9494  140.8231  158.6911 H   0  0  0  0  0  0  0  0  0  0  0  0
  151.7337  142.4115  157.9099 H   0  0  0  0  0  0  0  0  0  0  0  0
  152.4175  141.1599  156.9000 H   0  0  0  0  0  0  0  0  0  0  0  0
  149.6642  142.4557  156.5746 H   0  0  0  0  0  0  0  0  0  0  0  0
  151.0378  142.6465  155.5086 H   0  0  0  0  0  0  0  0  0  0  0  0
  148.5387  137.5546  152.8141 H   0  0  0  0  0  0  0  0  0  0  0  0
  147.0717  136.3259  152.4125 H   0  0  0  0  0  0  0  0  0  0  0  0
  145.1718  135.2855  154.1658 H   0  0  0  0  0  0  0  0  0  0  0  0
  143.1007  136.4913  153.5499 H   0  0  0  0  0  0  0  0  0  0  0  0
  144.0241  137.6236  152.5663 H   0  0  0  0  0  0  0  0  0  0  0  0
  144.2437  137.5850  154.3149 H   0  0  0  0  0  0  0  0  0  0  0  0
  144.8953  135.6333  151.1386 H   0  0  0  0  0  0  0  0  0  0  0  0
  146.9156  134.2985  151.3441 H   0  0  0  0  0  0  0  0  0  0  0  0
  146.2860  133.4692  152.7737 H   0  0  0  0  0  0  0  0  0  0  0  0
  145.2230  133.2825  149.9368 H   0  0  0  0  0  0  0  0  0  0  0  0
  145.6777  131.9378  150.9909 H   0  0  0  0  0  0  0  0  0  0  0  0
  143.0709  132.8237  150.8467 H   0  0  0  0  0  0  0  0  0  0  0  0
  143.7475  132.2652  152.3787 H   0  0  0  0  0  0  0  0  0  0  0  0
  1  2  1  0  0  0  0
  1 20  1  0  0  0  0
  1 21  1  0  0  0  0
  1 22  1  0  0  0  0
  2  3  1  0  0  0  0
  2 23  1  0  0  0  0
  2 24  1  0  0  0  0
  3  4  1  0  0  0  0
  3 25  1  0  0  0  0
  3 26  1  0  0  0  0
  4 19  1  0  0  0  0
  4  5  2  0  0  0  0
  5  6  1  0  0  0  0
  6  7  2  0  0  0  0
  7  8  1  0  0  0  0
  7 19  1  0  0  0  0
  8  9  1  0  0  0  0
  8 27  1  0  0  0  0
  9 10  2  0  0  0  0
  9 11  1  0  0  0  0
 11 12  1  0  0  0  0
 11 28  1  0  0  0  0
 12 13  1  0  0  0  0
 12 14  1  0  0  0  0
 12 29  1  0  0  0  0
 13 30  1  0  0  0  0
 13 31  1  0  0  0  0
 13 32  1  0  0  0  0
 14 18  1  0  0  0  0
 14 15  1  0  0  0  0
 14 33  1  0  0  0  0
 15 16  1  0  0  0  0
 15 34  1  0  0  0  0
 15 35  1  0  0  0  0
 16 17  1  0  0  0  0
 16 36  1  0  0  0  0
 16 37  1  0  0  0  0
 17 18  1  0  0  0  0
 17 38  1  0  0  0  0
 17 39  1  0  0  0  0
M  END
> <s_m_source_file>
AV-unprocessed.smi

> <i_m_source_file_index>
1251

> <i_lp_mmshare_version>
43012

> <i_f3d_flags>
0

> <s_epik_input>
W0NIM11bQ0gyXVtDSDJdYzFubmMoczEpW05IXUMoPU8pW05IXVtDQEhdKFtDSDNdKVtDQEBIXTJbQ0gyXVtDSDJdW0NIMl1PMg==

> <s_epik_cmdline>
J2VwaWtfcHl0aG9uJywgJy1waCcsICc3LjAnLCAnLXRuJywgJzgnLCAnLW1hJywgJzIwMCcsICctbWV0YWxfYmluZGluZycsICctaW1hZScsICc8aW5maWxlLm1hZT4nLCAnLW9tYWUnLCAnPG91dGZpbGUubWFlPic=

> <r_lp_tautomer_probability>
1

> <r_epik_Ionization_Penalty>
0.000503621

> <r_epik_Ionization_Penalty_Charging>
0

> <r_epik_Ionization_Penalty_Neutral>
0.000503621

> <r_epik_State_Penalty>
-0

> <r_epik_Charging_Adjusted_Penalty>
0

> <i_epik_Tot_Q>
0

> <i_epik_Tot_abs_Q>
0

> <r_epik_Metal_State_Penalty>
0.219912

> <b_epik_Metal_Only>
0

> <s_lp_Force_Field>
OPLS_2005

> <r_lp_Energy>
11.0911

> <b_lp_Chiralities_Consistent>
1

> <s_lp_Variant>
AV-unprocessed.smi:1251-4

> <Gold.Version>
5.8.1

> <Gold.Id.Protein>
6NUR|6NUR_protein|mol2

> <Gold.PLP.Fitness>
36.3411

> <Gold.PLP.PLP>
-28.0731

> <Gold.PLP.part.hbond>
-3.0000

> <Gold.PLP.part.metal>
0.0000

> <Gold.PLP.part.buried>
-4.4243

> <Gold.PLP.part.nonpolar>
-21.2680

> <Gold.PLP.part.repulsive>
0.5795

> <Gold.PLP.ligand.clash>
0.0000

> <Gold.PLP.ligand.torsion>
0.2218

> <Gold.PLP.Chemscore.Hbond>
2.8960

> <Gold.PLP.Chemscore.CHOScore>
0.0000

> <Gold.PLP.Chemscore.Metal>
0.0000

> <Gold.Chemscore.Hbonds>
donor molecule, donor type, donor heavy atom, donor atom, acceptor molecule, acceptor atom, score
      L1  H     8    27       P1  7948  1.00
      L1  H    11    28       P1  7948  0.88
      P1  H  7989  7998       L1     5  1.00

> <Gold.PLP.Chemscore.Internal.Correction>
0.0236

> <Gold.Rescore>
     Score         DG    S(hbond)    S(metal)    S(lipo)     H(rot)  DE(clash)    DE(int)     intcor
     14.77     -15.13       2.11        0.00      56.93       1.58       0.11       0.26       ----

> <Gold.Chemscore.Fitness>
14.7672

> <Gold.Chemscore.DG>
-15.1347

> <Gold.Chemscore.ZeroCoef>
-5.4800

> <Gold.Chemscore.Hbond>
2.1106

> <Gold.Chemscore.Metal>
0.0000

> <Gold.Chemscore.Lipo>
56.9316

> <Gold.Chemscore.Internal_Hbond>
0.0000

> <Gold.Chemscore.DEClash>
0.1120

> <Gold.Chemscore.DEInternal>
0.2555

> <Gold.Chemscore.Rot>
1.5843

> <Gold.Chemscore.Internal.Correction>
   9.000000E+99

> <Gold.Chemscore.Hbonds>
donor molecule, donor type, donor heavy atom, donor atom, acceptor molecule, acceptor atom, score
      L1  H     8    27       P1  7948  0.98
      L1  H    11    28       P1  7948  0.86
      P1  H  7989  7998       L1     5  0.30

> <Gold.Chemscore.Hbond.Weighted>
-7.0495

> <Gold.Chemscore.Metal.Weighted>
-0.0000

> <Gold.Chemscore.Lipo.Weighted>
-6.6610

> <Gold.Chemscore.Internal_Hbond.Weighted>
0.0000

> <Gold.Chemscore.DEClash.Weighted>
0.1120

> <Gold.Chemscore.DEInternal.Weighted>
0.2555

> <Gold.Chemscore.Rot.Weighted>
4.0558

> <Gold.Chemscore.Internal.Correction.Weighted>
   9.000000E+99

> <Gold.Protein.RotatedTorsions>
[ 6907 6896 6895 6894 ] final  150.06 input  -60.11 | X-H torsion
[ 7974 7965 7964 7962 ] final -142.28 input  175.53 | X-H torsion
[ 8008 7997 7996 7995 ] final  106.45 input   59.86 | X-H torsion
[ 10167 10162 10161 10158 ] final -153.26 input  -65.29 | X-H torsion
[ 10718 10713 10712 10709 ] final -164.66 input   66.30 | X-H torsion
[ 10763 10752 10751 10750 ] final   50.25 input  -60.55 | X-H torsion
[ 11005 11000 10999 10996 ] final   19.34 input  -57.11 | X-H torsion

> <Gold.Protein.ActiveResidues>
 VAL166  LYS551  ARG553  GLY616  TRP617  ASP618  TYR619  PRO620  LYS621  CYS622 
 ASP623  PHE694  ASN695  SER759  ASP760  ASP761  ALA762  ILE779  LEU786  VAL792 
 PHE793  MET794  SER795  GLU796  ALA797  LYS798  CYS799  TRP800  GLU811  SER814 

> <Gold.Protein.RotatedAtoms>
  152.1196  133.4346  159.4668 H   0  0  0  0  0  0  0  0  0  0  0  0  # atno 6907 bound_to 6896
  150.6871  134.2551  159.4535 H   0  0  0  0  0  0  0  0  0  0  0  0  # atno 6908 bound_to 6896
  152.0426  134.9701  160.0624 H   0  0  0  0  0  0  0  0  0  0  0  0  # atno 6909 bound_to 6896
  144.8455  140.5977  143.5424 H   0  0  0  0  0  0  0  0  0  0  0  0  # atno 7974 bound_to 7965
  156.1744  140.3112  155.9032 H   0  0  0  0  0  0  0  0  0  0  0  0  # atno 8008 bound_to 7997
  155.3518  140.0471  157.3063 H   0  0  0  0  0  0  0  0  0  0  0  0  # atno 8009 bound_to 7997
  154.5275  140.2219  155.8874 H   0  0  0  0  0  0  0  0  0  0  0  0  # atno 8010 bound_to 7997
  139.7112  143.9106  152.2468 H   0  0  0  0  0  0  0  0  0  0  0  0  # atno 10167 bound_to 10162
  156.6422  130.8973  151.2998 H   0  0  0  0  0  0  0  0  0  0  0  0  # atno 10718 bound_to 10713
  152.9785  135.5885  154.4221 H   0  0  0  0  0  0  0  0  0  0  0  0  # atno 10763 bound_to 10752
  154.3844  135.2767  155.2194 H   0  0  0  0  0  0  0  0  0  0  0  0  # atno 10764 bound_to 10752
  154.4093  135.6085  153.5998 H   0  0  0  0  0  0  0  0  0  0  0  0  # atno 10765 bound_to 10752
  140.4148  134.1580  155.7669 H   0  0  0  0  0  0  0  0  0  0  0  0  # atno 11005 bound_to 11000
  145.4606  139.1513  143.3868 LP  0  0  0  0  0  0  0  0  0  0  0  0  # atno 17320 bound_to 7965
  146.2740  140.4736  142.8803 LP  0  0  0  0  0  0  0  0  0  0  0  0  # atno 17321 bound_to 7965
  139.8976  144.6930  150.8701 LP  0  0  0  0  0  0  0  0  0  0  0  0  # atno 17342 bound_to 10162
  140.7733  143.3538  151.1961 LP  0  0  0  0  0  0  0  0  0  0  0  0  # atno 17343 bound_to 10162
  157.7167  130.9507  150.1284 LP  0  0  0  0  0  0  0  0  0  0  0  0  # atno 17370 bound_to 10713
  156.2150  130.3669  149.8624 LP  0  0  0  0  0  0  0  0  0  0  0  0  # atno 17371 bound_to 10713
  141.1807  133.8420  157.1268 LP  0  0  0  0  0  0  0  0  0  0  0  0  # atno 17394 bound_to 11000
  140.0241  134.9932  157.0652 LP  0  0  0  0  0  0  0  0  0  0  0  0  # atno 17395 bound_to 11000

$$$$
