AV-unprocessed.smi:2|AV-procd|sdf|26|dock4
  -GOLD-   2262015133D 1   1.00000     0.00000
 Structure written by MMmdl.
 52 54  0  0  0  0  0  0  0  0  3 V2000
  143.2006  146.7871  155.0418 C   0  0  0  0  0  0  0  0  0  0  0  0
  142.2968  145.9247  155.9372 C   0  0  0  0  0  0  0  0  0  0  0  0
  143.0216  145.3021  157.1410 C   0  0  0  0  0  0  0  0  0  0  0  0
  142.6834  145.6102  158.2848 O   0  0  0  0  0  0  0  0  0  0  0  0
  144.1225  144.3372  156.8545 C   0  0  0  0  0  0  0  0  0  0  0  0
  144.7562  143.6680  157.9255 C   0  0  0  0  0  0  0  0  0  0  0  0
  145.8026  142.7576  157.6841 C   0  0  0  0  0  0  0  0  0  0  0  0
  146.2456  142.4944  156.3734 C   0  0  0  0  0  0  0  0  0  0  0  0
  147.2872  141.5994  156.2347 O   0  0  0  0  0  0  0  0  0  0  0  0
  147.7902  141.2983  154.9354 C   0  0  0  0  0  0  0  0  0  0  0  0
  149.2964  140.9600  154.9748 C   0  0  1  0  0  0  0  0  0  0  0  0
  149.8131  141.0931  153.6652 O   0  0  0  0  0  0  0  0  0  0  0  0
  150.0652  141.8807  155.9510 C   0  0  0  0  0  0  0  0  0  0  0  0
  151.0461  141.1629  156.7745 N   0  0  0  0  0  0  0  0  0  0  0  0
  151.4725  139.8736  156.6092 C   0  0  0  0  0  0  0  0  0  0  0  0
  151.0656  138.9375  155.5686 N   0  3  0  0  0  0  0  0  0  0  0  0
  150.4784  137.9080  155.8768 O   0  0  0  0  0  0  0  0  0  0  0  0
  151.3680  139.2187  154.4128 O   0  5  0  0  0  0  0  0  0  0  0  0
  152.3256  139.4587  157.5465 N   0  0  0  0  0  0  0  0  0  0  0  0
  152.4590  140.5516  158.3786 C   0  0  0  0  0  0  0  0  0  0  0  0
  153.2209  140.6809  159.6366 C   0  0  0  0  0  0  0  0  0  0  0  0
  153.9328  139.7627  160.0461 O   0  0  0  0  0  0  0  0  0  0  0  0
  153.0293  141.8723  160.2847 N   0  0  0  0  0  0  0  0  0  0  0  0
  153.6749  142.0613  161.5981 C   0  0  0  0  0  0  0  0  0  0  0  0
  152.2936  142.9365  159.7953 C   0  0  0  0  0  0  0  0  0  0  0  0
  152.1630  143.9674  160.4618 O   0  0  0  0  0  0  0  0  0  0  0  0
  151.7338  142.8280  158.5426 N   0  0  0  0  0  0  0  0  0  0  0  0
  151.2461  144.0421  157.8764 C   0  0  0  0  0  0  0  0  0  0  0  0
  151.7468  141.6115  157.9168 C   0  0  0  0  0  0  0  0  0  0  0  0
  145.6024  143.1541  155.2977 C   0  0  0  0  0  0  0  0  0  0  0  0
  144.5569  144.0665  155.5361 C   0  0  0  0  0  0  0  0  0  0  0  0
  142.6350  147.1885  154.2009 H   0  0  0  0  0  0  0  0  0  0  0  0
  144.0295  146.2075  154.6332 H   0  0  0  0  0  0  0  0  0  0  0  0
  143.6161  147.6323  155.5920 H   0  0  0  0  0  0  0  0  0  0  0  0
  141.4703  146.5335  156.3048 H   0  0  0  0  0  0  0  0  0  0  0  0
  141.8622  145.1220  155.3408 H   0  0  0  0  0  0  0  0  0  0  0  0
  144.4494  143.8470  158.9460 H   0  0  0  0  0  0  0  0  0  0  0  0
  146.2763  142.2606  158.5180 H   0  0  0  0  0  0  0  0  0  0  0  0
  147.2282  140.4526  154.5366 H   0  0  0  0  0  0  0  0  0  0  0  0
  147.5758  142.1154  154.2469 H   0  0  0  0  0  0  0  0  0  0  0  0
  149.4442  139.9230  155.2713 H   0  0  0  0  0  0  0  0  0  0  0  0
  149.5392  140.3465  153.1548 H   0  0  0  0  0  0  0  0  0  0  0  0
  150.5573  142.6826  155.4068 H   0  0  0  0  0  0  0  0  0  0  0  0
  149.3743  142.4278  156.5820 H   0  0  0  0  0  0  0  0  0  0  0  0
  152.9418  142.3565  162.3507 H   0  0  0  0  0  0  0  0  0  0  0  0
  154.4281  142.8485  161.5380 H   0  0  0  0  0  0  0  0  0  0  0  0
  154.1735  141.1765  161.9953 H   0  0  0  0  0  0  0  0  0  0  0  0
  151.6952  144.1361  156.8883 H   0  0  0  0  0  0  0  0  0  0  0  0
  151.5024  144.9710  158.3868 H   0  0  0  0  0  0  0  0  0  0  0  0
  150.1638  144.0294  157.7924 H   0  0  0  0  0  0  0  0  0  0  0  0
  145.8933  142.9848  154.2732 H   0  0  0  0  0  0  0  0  0  0  0  0
  144.1024  144.5494  154.6842 H   0  0  0  0  0  0  0  0  0  0  0  0
  1  2  1  0  0  0  0
  1 32  1  0  0  0  0
  1 33  1  0  0  0  0
  1 34  1  0  0  0  0
  2  3  1  0  0  0  0
  2 35  1  0  0  0  0
  2 36  1  0  0  0  0
  3  4  2  0  0  0  0
  3  5  1  0  0  0  0
  5 31  1  0  0  0  0
  5  6  2  0  0  0  0
  6  7  1  0  0  0  0
  6 37  1  0  0  0  0
  7  8  2  0  0  0  0
  7 38  1  0  0  0  0
  8  9  1  0  0  0  0
  8 30  1  0  0  0  0
  9 10  1  0  0  0  0
 10 11  1  0  0  0  0
 10 39  1  0  0  0  0
 10 40  1  0  0  0  0
 11 12  1  0  0  0  0
 11 13  1  0  0  0  0
 11 41  1  0  0  0  0
 12 42  1  0  0  0  0
 13 14  1  0  0  0  0
 13 43  1  0  0  0  0
 13 44  1  0  0  0  0
 14 29  1  0  0  0  0
 14 15  1  0  0  0  0
 15 16  1  0  0  0  0
 15 19  2  0  0  0  0
 16 17  2  0  0  0  0
 16 18  1  0  0  0  0
 19 20  1  0  0  0  0
 20 29  2  0  0  0  0
 20 21  1  0  0  0  0
 21 22  2  0  0  0  0
 21 23  1  0  0  0  0
 23 24  1  0  0  0  0
 23 25  1  0  0  0  0
 24 45  1  0  0  0  0
 24 46  1  0  0  0  0
 24 47  1  0  0  0  0
 25 26  2  0  0  0  0
 25 27  1  0  0  0  0
 27 28  1  0  0  0  0
 27 29  1  0  0  0  0
 28 48  1  0  0  0  0
 28 49  1  0  0  0  0
 28 50  1  0  0  0  0
 30 31  2  0  0  0  0
 30 51  1  0  0  0  0
 31 52  1  0  0  0  0
M  CHG  1  16   1
M  CHG  1  18  -1
M  END
> <s_m_source_file>
AV-unprocessed.smi

> <i_m_source_file_index>
2

> <i_lp_mmshare_version>
43012

> <i_f3d_flags>
0

> <s_epik_input>
W0NIM11bQ0gyXUMoPU8pYzFbY0hdW2NIXWMoW2NIXVtjSF0xKU9bQ0gyXVtDQEhdKFtPSF0pW0NIMl1uKGMobjIpW04rXSg9TylbTy1dKWMoYzIzKW4oW0NIM10pYyg9TyluKGMzPU8pW0NIM10=

> <s_epik_cmdline>
J2VwaWtfcHl0aG9uJywgJy1waCcsICc3LjAnLCAnLXRuJywgJzgnLCAnLW1hJywgJzIwMCcsICctbWV0YWxfYmluZGluZycsICctaW1hZScsICc8aW5maWxlLm1hZT4nLCAnLW9tYWUnLCAnPG91dGZpbGUubWFlPic=

> <r_lp_tautomer_probability>
1

> <r_epik_Ionization_Penalty>
1.02275e-06

> <r_epik_Ionization_Penalty_Charging>
4.46226e-11

> <r_epik_Ionization_Penalty_Neutral>
1.02271e-06

> <r_epik_State_Penalty>
-0

> <r_epik_Charging_Adjusted_Penalty>
4.46226e-11

> <i_epik_Tot_Q>
0

> <i_epik_Tot_abs_Q>
2

> <r_epik_Metal_State_Penalty>
-0

> <b_epik_Metal_Only>
0

> <s_lp_Force_Field>
OPLS_2005

> <r_lp_Energy>
60.3612

> <b_lp_Chiralities_Consistent>
1

> <s_lp_Variant>
AV-unprocessed.smi:2-2

> <Gold.Version>
5.8.1

> <Gold.Id.Protein>
6NUR|6NUR_protein|mol2

> <Gold.PLP.Fitness>
55.1658

> <Gold.PLP.PLP>
-51.7474

> <Gold.PLP.part.hbond>
-3.6611

> <Gold.PLP.part.metal>
0.0000

> <Gold.PLP.part.buried>
-3.2366

> <Gold.PLP.part.nonpolar>
-44.2622

> <Gold.PLP.part.repulsive>
0.3320

> <Gold.PLP.ligand.clash>
0.0000

> <Gold.PLP.ligand.torsion>
2.3082

> <Gold.PLP.Chemscore.Hbond>
2.5200

> <Gold.PLP.Chemscore.CHOScore>
0.0000

> <Gold.PLP.Chemscore.Metal>
0.0000

> <Gold.Chemscore.Hbonds>
donor molecule, donor type, donor heavy atom, donor atom, acceptor molecule, acceptor atom, score
      L1  H    12    42       P1  7957  0.59
      P1  H  7989  7998       L1    18  1.00
      P1  H  8011  8017       L1    12  0.93

> <Gold.PLP.Chemscore.Internal.Correction>
0.4749

> <Gold.Rescore>
     Score         DG    S(hbond)    S(metal)    S(lipo)     H(rot)  DE(clash)    DE(int)     intcor
      6.83     -14.00       2.20        0.00      79.17       3.16       0.38       6.79       ----

> <Gold.Chemscore.Fitness>
6.8309

> <Gold.Chemscore.DG>
-13.9994

> <Gold.Chemscore.ZeroCoef>
-5.4800

> <Gold.Chemscore.Hbond>
2.1991

> <Gold.Chemscore.Metal>
0.0000

> <Gold.Chemscore.Lipo>
79.1726

> <Gold.Chemscore.Internal_Hbond>
0.0000

> <Gold.Chemscore.DEClash>
0.3759

> <Gold.Chemscore.DEInternal>
6.7926

> <Gold.Chemscore.Rot>
3.1597

> <Gold.Chemscore.Internal.Correction>
   9.000000E+99

> <Gold.Chemscore.Hbonds>
donor molecule, donor type, donor heavy atom, donor atom, acceptor molecule, acceptor atom, score
      L1  H    12    42       P1  7957  0.57
      P1  H  7989  7998       L1    18  0.99
      P1  H  8011  8017       L1    12  0.23

> <Gold.Chemscore.Hbond.Weighted>
-7.3450

> <Gold.Chemscore.Metal.Weighted>
-0.0000

> <Gold.Chemscore.Lipo.Weighted>
-9.2632

> <Gold.Chemscore.Internal_Hbond.Weighted>
0.0000

> <Gold.Chemscore.DEClash.Weighted>
0.3759

> <Gold.Chemscore.DEInternal.Weighted>
6.7926

> <Gold.Chemscore.Rot.Weighted>
8.0888

> <Gold.Chemscore.Internal.Correction.Weighted>
   9.000000E+99

> <Gold.Protein.RotatedTorsions>
[ 6907 6896 6895 6894 ] final  119.80 input  -60.11 | X-H torsion
[ 7974 7965 7964 7962 ] final   93.88 input  175.53 | X-H torsion
[ 8008 7997 7996 7995 ] final   92.88 input   59.86 | X-H torsion
[ 10167 10162 10161 10158 ] final   76.47 input  -65.29 | X-H torsion
[ 10718 10713 10712 10709 ] final  -62.14 input   66.30 | X-H torsion
[ 10763 10752 10751 10750 ] final   39.75 input  -60.55 | X-H torsion
[ 11005 11000 10999 10996 ] final -120.45 input  -57.11 | X-H torsion

> <Gold.Protein.ActiveResidues>
 VAL166  LYS551  ARG553  GLY616  TRP617  ASP618  TYR619  PRO620  LYS621  CYS622 
 ASP623  PHE694  ASN695  SER759  ASP760  ASP761  ALA762  ILE779  LEU786  VAL792 
 PHE793  MET794  SER795  GLU796  ALA797  LYS798  CYS799  TRP800  GLU811  SER814 

> <Gold.Protein.RotatedAtoms>
  152.4445  133.7511  159.6693 H   0  0  0  0  0  0  0  0  0  0  0  0  # atno 6907 bound_to 6896
  150.8342  133.8030  159.3092 H   0  0  0  0  0  0  0  0  0  0  0  0  # atno 6908 bound_to 6896
  151.5674  135.1066  160.0039 H   0  0  0  0  0  0  0  0  0  0  0  0  # atno 6909 bound_to 6896
  145.4729  139.2281  143.2925 H   0  0  0  0  0  0  0  0  0  0  0  0  # atno 7974 bound_to 7965
  156.0404  140.3320  155.7238 H   0  0  0  0  0  0  0  0  0  0  0  0  # atno 8008 bound_to 7997
  155.5752  140.0631  157.2814 H   0  0  0  0  0  0  0  0  0  0  0  0  # atno 8009 bound_to 7997
  154.4391  140.1853  156.0908 H   0  0  0  0  0  0  0  0  0  0  0  0  # atno 8010 bound_to 7997
  139.9919  144.5750  150.7810 H   0  0  0  0  0  0  0  0  0  0  0  0  # atno 10167 bound_to 10162
  156.0875  130.4206  150.1093 H   0  0  0  0  0  0  0  0  0  0  0  0  # atno 10718 bound_to 10713
  152.9957  135.6211  154.2515 H   0  0  0  0  0  0  0  0  0  0  0  0  # atno 10763 bound_to 10752
  154.2253  135.2794  155.2911 H   0  0  0  0  0  0  0  0  0  0  0  0  # atno 10764 bound_to 10752
  154.5494  135.5737  153.6967 H   0  0  0  0  0  0  0  0  0  0  0  0  # atno 10765 bound_to 10752
  141.0143  134.0219  157.3372 H   0  0  0  0  0  0  0  0  0  0  0  0  # atno 11005 bound_to 11000
  146.2386  140.5509  142.8944 LP  0  0  0  0  0  0  0  0  0  0  0  0  # atno 17320 bound_to 7965
  144.7934  140.6076  143.6526 LP  0  0  0  0  0  0  0  0  0  0  0  0  # atno 17321 bound_to 7965
  140.7451  143.2871  151.3433 LP  0  0  0  0  0  0  0  0  0  0  0  0  # atno 17342 bound_to 10162
  139.6334  144.0678  152.2495 LP  0  0  0  0  0  0  0  0  0  0  0  0  # atno 17343 bound_to 10162
  156.9111  130.9652  151.3563 LP  0  0  0  0  0  0  0  0  0  0  0  0  # atno 17370 bound_to 10713
  157.6014  130.8515  149.8807 LP  0  0  0  0  0  0  0  0  0  0  0  0  # atno 17371 bound_to 10713
  139.9107  135.0189  156.7681 LP  0  0  0  0  0  0  0  0  0  0  0  0  # atno 17394 bound_to 11000
  140.6682  133.9584  155.7842 LP  0  0  0  0  0  0  0  0  0  0  0  0  # atno 17395 bound_to 11000

$$$$
