AV-unprocessed.smi:3284|AV-procd|sdf|12572|dock8
  -GOLD-   2272018493D 1   1.00000     0.00000
 Structure written by MMmdl.
 44 45  0  0  0  0  0  0  0  0  2 V2000
  157.1399  139.7429  163.0309 C   0  0  0  0  0  0  0  0  0  0  0  0
  156.0794  138.6537  163.0326 C   0  0  0  0  0  0  0  0  0  0  0  0
  155.7121  138.0506  164.1807 C   0  0  0  0  0  0  0  0  0  0  0  0
  154.7119  136.9120  164.2807 C   0  0  0  0  0  0  0  0  0  0  0  0
  154.0044  136.6081  162.9496 C   0  0  0  0  0  0  0  0  0  0  0  0
  154.9546  136.7822  161.7517 C   0  0  1  0  0  0  0  0  0  0  0  0
  154.3345  136.2655  160.4420 C   0  0  0  0  0  0  0  0  0  0  0  0
  155.4948  138.2386  161.6758 C   0  0  1  0  0  0  0  0  0  0  0  0
  154.4366  139.2471  161.1551 C   0  0  0  0  0  0  0  0  0  0  0  0
  154.9288  140.6382  161.1243 N   0  3  0  0  0  0  0  0  0  0  0  0
  154.3698  141.4505  160.0268 C   0  0  0  0  0  0  0  0  0  0  0  0
  152.8415  141.5368  160.1264 C   0  0  0  0  0  0  0  0  0  0  0  0
  152.3124  142.8422  159.6196 C   0  0  0  0  0  0  0  0  0  0  0  0
  152.6534  144.0203  160.1324 N   0  0  0  0  0  0  0  0  0  0  0  0
  151.9653  144.9542  159.3650 C   0  0  0  0  0  0  0  0  0  0  0  0
  151.2325  144.3020  158.4031 C   0  0  0  0  0  0  0  0  0  0  0  0
  151.4698  142.9444  158.5733 N   0  0  0  0  0  0  0  0  0  0  0  0
  150.9101  141.8753  157.7694 C   0  0  0  0  0  0  0  0  0  0  0  0
  157.8942  139.5414  162.2700 H   0  0  0  0  0  0  0  0  0  0  0  0
  157.6491  139.7946  163.9938 H   0  0  0  0  0  0  0  0  0  0  0  0
  156.7074  140.7240  162.8429 H   0  0  0  0  0  0  0  0  0  0  0  0
  156.1673  138.3540  165.1125 H   0  0  0  0  0  0  0  0  0  0  0  0
  155.2580  136.0291  164.6143 H   0  0  0  0  0  0  0  0  0  0  0  0
  153.9775  137.1385  165.0542 H   0  0  0  0  0  0  0  0  0  0  0  0
  153.6060  135.5932  162.9776 H   0  0  0  0  0  0  0  0  0  0  0  0
  153.1419  137.2651  162.8348 H   0  0  0  0  0  0  0  0  0  0  0  0
  155.8177  136.1407  161.9396 H   0  0  0  0  0  0  0  0  0  0  0  0
  153.3738  136.7353  160.2313 H   0  0  0  0  0  0  0  0  0  0  0  0
  154.1599  135.1904  160.4960 H   0  0  0  0  0  0  0  0  0  0  0  0
  154.9952  136.4465  159.5938 H   0  0  0  0  0  0  0  0  0  0  0  0
  156.3205  138.2258  160.9628 H   0  0  0  0  0  0  0  0  0  0  0  0
  154.1355  138.9974  160.1385 H   0  0  0  0  0  0  0  0  0  0  0  0
  153.5389  139.2049  161.7727 H   0  0  0  0  0  0  0  0  0  0  0  0
  154.6914  141.0777  162.0022 H   0  0  0  0  0  0  0  0  0  0  0  0
  154.8041  142.4505  160.0653 H   0  0  0  0  0  0  0  0  0  0  0  0
  154.6555  141.0105  159.0703 H   0  0  0  0  0  0  0  0  0  0  0  0
  152.3778  140.7156  159.5790 H   0  0  0  0  0  0  0  0  0  0  0  0
  152.5311  141.4220  161.1658 H   0  0  0  0  0  0  0  0  0  0  0  0
  152.0510  146.0129  159.5611 H   0  0  0  0  0  0  0  0  0  0  0  0
  150.5815  144.6832  157.6299 H   0  0  0  0  0  0  0  0  0  0  0  0
  150.3561  142.2892  156.9261 H   0  0  0  0  0  0  0  0  0  0  0  0
  150.2315  141.2744  158.3755 H   0  0  0  0  0  0  0  0  0  0  0  0
  151.7091  141.2403  157.3860 H   0  0  0  0  0  0  0  0  0  0  0  0
  155.9347  140.6212  161.0325 H   0  0  0  0  0  0  0  0  0  0  0  0
  1  2  1  0  0  0  0
  1 19  1  0  0  0  0
  1 20  1  0  0  0  0
  1 21  1  0  0  0  0
  2  8  1  0  0  0  0
  2  3  2  0  0  0  0
  3  4  1  0  0  0  0
  3 22  1  0  0  0  0
  4  5  1  0  0  0  0
  4 23  1  0  0  0  0
  4 24  1  0  0  0  0
  5  6  1  0  0  0  0
  5 25  1  0  0  0  0
  5 26  1  0  0  0  0
  6  7  1  0  0  0  0
  6  8  1  0  0  0  0
  6 27  1  0  0  0  0
  7 28  1  0  0  0  0
  7 29  1  0  0  0  0
  7 30  1  0  0  0  0
  8  9  1  0  0  0  0
  8 31  1  0  0  0  0
  9 10  1  0  0  0  0
  9 32  1  0  0  0  0
  9 33  1  0  0  0  0
 10 11  1  0  0  0  0
 10 34  1  0  0  0  0
 10 44  1  0  0  0  0
 11 12  1  0  0  0  0
 11 35  1  0  0  0  0
 11 36  1  0  0  0  0
 12 13  1  0  0  0  0
 12 37  1  0  0  0  0
 12 38  1  0  0  0  0
 13 17  1  0  0  0  0
 13 14  2  0  0  0  0
 14 15  1  0  0  0  0
 15 16  2  0  0  0  0
 15 39  1  0  0  0  0
 16 17  1  0  0  0  0
 16 40  1  0  0  0  0
 17 18  1  0  0  0  0
 18 41  1  0  0  0  0
 18 42  1  0  0  0  0
 18 43  1  0  0  0  0
M  CHG  1  10   1
M  END
> <s_m_source_file>
AV-unprocessed.smi

> <i_m_source_file_index>
3284

> <i_lp_mmshare_version>
43012

> <i_f3d_flags>
0

> <s_epik_input>
W0NIM11DMT1bQ0hdW0NIMl1bQ0gyXVtDQEBIXShbQ0gzXSlbQ0BIXTFbQ0gyXVtOSF1bQ0gyXVtDSDJdYzJuW2NIXVtjSF1uMltDSDNd

> <s_epik_cmdline>
J2VwaWtfcHl0aG9uJywgJy1waCcsICc3LjAnLCAnLXRuJywgJzgnLCAnLW1hJywgJzIwMCcsICctbWV0YWxfYmluZGluZycsICctaW1hZScsICc8aW5maWxlLm1hZT4nLCAnLW9tYWUnLCAnPG91dGZpbGUubWFlPic=

> <r_lp_tautomer_probability>
1

> <r_epik_Ionization_Penalty>
0.150779

> <r_epik_Ionization_Penalty_Charging>
0.150779

> <r_epik_Ionization_Penalty_Neutral>
1.39452e-13

> <r_epik_State_Penalty>
0.349447

> <r_epik_Charging_Adjusted_Penalty>
0.500226

> <i_epik_Tot_Q>
1

> <i_epik_Tot_abs_Q>
1

> <r_epik_Metal_State_Penalty>
0.000470967

> <b_epik_Metal_Only>
0

> <s_lp_Force_Field>
OPLS_2005

> <r_lp_Energy>
13.2562

> <b_lp_Chiralities_Consistent>
1

> <s_lp_Variant>
AV-unprocessed.smi:3284-1

> <Gold.Version>
5.8.1

> <Gold.Id.Protein>
6NUR|6NUR_protein|mol2

> <Gold.PLP.Fitness>
44.6028

> <Gold.PLP.PLP>
-42.4366

> <Gold.PLP.part.hbond>
-0.6325

> <Gold.PLP.part.metal>
0.0000

> <Gold.PLP.part.buried>
-4.4261

> <Gold.PLP.part.nonpolar>
-37.5146

> <Gold.PLP.part.repulsive>
0.0143

> <Gold.PLP.ligand.clash>
0.0000

> <Gold.PLP.ligand.torsion>
0.4412

> <Gold.PLP.Chemscore.Hbond>
0.0000

> <Gold.PLP.Chemscore.CHOScore>
1.0000

> <Gold.PLP.Chemscore.Metal>
0.0000

> <Gold.Chemscore.Hbonds>
donor molecule, donor type, donor heavy atom, donor atom, acceptor molecule, acceptor atom, score
      L1  C    16    40       P1  8028  0.93

> <Gold.PLP.Chemscore.Internal.Correction>
0.0485

> <Gold.Rescore>
     Score         DG    S(hbond)    S(metal)    S(lipo)     H(rot)  DE(clash)    DE(int)     intcor
     13.91     -14.36       0.00        0.00     111.13       1.61       0.12       0.32       ----

> <Gold.Chemscore.Fitness>
13.9142

> <Gold.Chemscore.DG>
-14.3590

> <Gold.Chemscore.ZeroCoef>
-5.4800

> <Gold.Chemscore.Hbond>
0.0000

> <Gold.Chemscore.Metal>
0.0000

> <Gold.Chemscore.Lipo>
111.1285

> <Gold.Chemscore.Internal_Hbond>
0.0000

> <Gold.Chemscore.DEClash>
0.1199

> <Gold.Chemscore.DEInternal>
0.3249

> <Gold.Chemscore.Rot>
1.6105

> <Gold.Chemscore.Internal.Correction>
   9.000000E+99

> <Gold.Chemscore.Hbond.Weighted>
-0.0000

> <Gold.Chemscore.Metal.Weighted>
-0.0000

> <Gold.Chemscore.Lipo.Weighted>
-13.0020

> <Gold.Chemscore.Internal_Hbond.Weighted>
0.0000

> <Gold.Chemscore.DEClash.Weighted>
0.1199

> <Gold.Chemscore.DEInternal.Weighted>
0.3249

> <Gold.Chemscore.Rot.Weighted>
4.1230

> <Gold.Chemscore.Internal.Correction.Weighted>
   9.000000E+99

> <Gold.Protein.RotatedTorsions>
[ 6907 6896 6895 6894 ] final  160.39 input  -60.11 | X-H torsion
[ 7974 7965 7964 7962 ] final  129.21 input  175.53 | X-H torsion
[ 8008 7997 7996 7995 ] final  -34.29 input   59.86 | X-H torsion
[ 10167 10162 10161 10158 ] final   60.71 input  -65.29 | X-H torsion
[ 10718 10713 10712 10709 ] final   34.65 input   66.30 | X-H torsion
[ 10763 10752 10751 10750 ] final  120.32 input  -60.55 | X-H torsion
[ 11005 11000 10999 10996 ] final -167.43 input  -57.11 | X-H torsion

> <Gold.Protein.ActiveResidues>
 VAL166  LYS551  ARG553  GLY616  TRP617  ASP618  TYR619  PRO620  LYS621  CYS622 
 ASP623  PHE694  ASN695  SER759  ASP760  ASP761  ALA762  ILE779  LEU786  VAL792 
 PHE793  MET794  SER795  GLU796  ALA797  LYS798  CYS799  TRP800  GLU811  SER814 

> <Gold.Protein.RotatedAtoms>
  151.9713  133.3727  159.4071 H   0  0  0  0  0  0  0  0  0  0  0  0  # atno 6907 bound_to 6896
  150.6948  134.4137  159.5182 H   0  0  0  0  0  0  0  0  0  0  0  0  # atno 6908 bound_to 6896
  152.1841  134.8728  160.0574 H   0  0  0  0  0  0  0  0  0  0  0  0  # atno 6909 bound_to 6896
  145.0311  139.4045  143.5149 H   0  0  0  0  0  0  0  0  0  0  0  0  # atno 7974 bound_to 7965
  154.4125  140.1688  156.2026 H   0  0  0  0  0  0  0  0  0  0  0  0  # atno 8008 bound_to 7997
  155.9511  140.3401  155.6385 H   0  0  0  0  0  0  0  0  0  0  0  0  # atno 8009 bound_to 7997
  155.6868  140.0729  157.2454 H   0  0  0  0  0  0  0  0  0  0  0  0  # atno 8010 bound_to 7997
  140.1626  144.4355  150.6701 H   0  0  0  0  0  0  0  0  0  0  0  0  # atno 10167 bound_to 10162
  157.3130  130.7409  149.6737 H   0  0  0  0  0  0  0  0  0  0  0  0  # atno 10718 bound_to 10713
  153.5966  135.3456  155.2930 H   0  0  0  0  0  0  0  0  0  0  0  0  # atno 10763 bound_to 10752
  154.8643  135.4217  154.2458 H   0  0  0  0  0  0  0  0  0  0  0  0  # atno 10764 bound_to 10752
  153.3277  135.7042  153.7046 H   0  0  0  0  0  0  0  0  0  0  0  0  # atno 10765 bound_to 10752
  140.5533  134.5406  157.5127 H   0  0  0  0  0  0  0  0  0  0  0  0  # atno 11005 bound_to 11000
  146.3498  139.9862  142.8690 LP  0  0  0  0  0  0  0  0  0  0  0  0  # atno 17320 bound_to 7965
  145.1769  140.9748  143.4289 LP  0  0  0  0  0  0  0  0  0  0  0  0  # atno 17321 bound_to 7965
  140.6633  143.2259  151.5803 LP  0  0  0  0  0  0  0  0  0  0  0  0  # atno 17342 bound_to 10162
  139.5374  144.2742  152.1280 LP  0  0  0  0  0  0  0  0  0  0  0  0  # atno 17343 bound_to 10162
  155.9679  130.4246  150.4614 LP  0  0  0  0  0  0  0  0  0  0  0  0  # atno 17370 bound_to 10713
  157.2616  131.0568  151.2317 LP  0  0  0  0  0  0  0  0  0  0  0  0  # atno 17371 bound_to 10713
  139.9444  134.7729  156.0598 LP  0  0  0  0  0  0  0  0  0  0  0  0  # atno 17394 bound_to 11000
  141.1158  133.6628  156.3091 LP  0  0  0  0  0  0  0  0  0  0  0  0  # atno 17395 bound_to 11000

$$$$
