AV-unprocessed.smi:1741|AV-procd|sdf|7017|dock4
  -GOLD-   22720 8233D 1   1.00000     0.00000
 Structure written by MMmdl.
 38 39  0  0  0  0  0  0  0  0  1 V2000
  143.9233  132.4699  149.6723 C   0  0  0  0  0  0  0  0  0  0  0  0
  143.5073  132.7516  151.1205 C   0  0  0  0  0  0  0  0  0  0  0  0
  144.0683  133.9977  151.6044 N   0  0  0  0  0  0  0  0  0  0  0  0
  145.3997  134.3346  151.7460 C   0  0  0  0  0  0  0  0  0  0  0  0
  145.4074  135.6062  152.2452 C   0  0  0  0  0  0  0  0  0  0  0  0
  146.5082  136.4358  152.5773 N   0  0  0  0  0  0  0  0  0  0  0  0
  146.4995  137.5296  153.3564 C   0  0  0  0  0  0  0  0  0  0  0  0
  145.5032  137.9926  153.9120 O   0  0  0  0  0  0  0  0  0  0  0  0
  147.7253  138.0640  153.4526 N   0  0  0  0  0  0  0  0  0  0  0  0
  148.0768  139.2748  154.1914 C   0  0  1  0  0  0  0  0  0  0  0  0
  147.5998  139.1232  155.6444 C   0  0  0  0  0  0  0  0  0  0  0  0
  149.5966  139.5104  154.0882 C   0  0  2  0  0  0  0  0  0  0  0  0
  150.4572  138.3026  154.4623 C   0  0  0  0  0  0  0  0  0  0  0  0
  151.7582  138.9631  154.8549 C   0  0  0  0  0  0  0  0  0  0  0  0
  151.2661  140.2125  155.5780 C   0  0  0  0  0  0  0  0  0  0  0  0
  150.0055  140.5332  154.9953 O   0  0  0  0  0  0  0  0  0  0  0  0
  144.0447  135.9776  152.3803 C   0  0  0  0  0  0  0  0  0  0  0  0
  143.2405  134.9987  151.9936 N   0  0  0  0  0  0  0  0  0  0  0  0
  143.4903  131.5336  149.3201 H   0  0  0  0  0  0  0  0  0  0  0  0
  145.0071  132.3908  149.5820 H   0  0  0  0  0  0  0  0  0  0  0  0
  143.5880  133.2639  149.0043 H   0  0  0  0  0  0  0  0  0  0  0  0
  142.4206  132.8069  151.1973 H   0  0  0  0  0  0  0  0  0  0  0  0
  143.8295  131.9393  151.7737 H   0  0  0  0  0  0  0  0  0  0  0  0
  146.1949  133.6519  151.4854 H   0  0  0  0  0  0  0  0  0  0  0  0
  147.3951  136.1718  152.1736 H   0  0  0  0  0  0  0  0  0  0  0  0
  148.4763  137.6094  152.9544 H   0  0  0  0  0  0  0  0  0  0  0  0
  147.5673  140.1401  153.7636 H   0  0  0  0  0  0  0  0  0  0  0  0
  147.7914  140.0274  156.2222 H   0  0  0  0  0  0  0  0  0  0  0  0
  148.1035  138.2951  156.1443 H   0  0  0  0  0  0  0  0  0  0  0  0
  146.5265  138.9350  155.6863 H   0  0  0  0  0  0  0  0  0  0  0  0
  149.8614  139.8372  153.0809 H   0  0  0  0  0  0  0  0  0  0  0  0
  150.0334  137.7762  155.3188 H   0  0  0  0  0  0  0  0  0  0  0  0
  150.5715  137.5909  153.6442 H   0  0  0  0  0  0  0  0  0  0  0  0
  152.3919  138.3311  155.4776 H   0  0  0  0  0  0  0  0  0  0  0  0
  152.3207  139.2404  153.9623 H   0  0  0  0  0  0  0  0  0  0  0  0
  151.1130  140.0049  156.6377 H   0  0  0  0  0  0  0  0  0  0  0  0
  151.9667  141.0435  155.4933 H   0  0  0  0  0  0  0  0  0  0  0  0
  143.6208  136.9034  152.7405 H   0  0  0  0  0  0  0  0  0  0  0  0
  1  2  1  0  0  0  0
  1 19  1  0  0  0  0
  1 20  1  0  0  0  0
  1 21  1  0  0  0  0
  2  3  1  0  0  0  0
  2 22  1  0  0  0  0
  2 23  1  0  0  0  0
  3 18  1  0  0  0  0
  3  4  1  0  0  0  0
  4  5  2  0  0  0  0
  4 24  1  0  0  0  0
  5  6  1  0  0  0  0
  5 17  1  0  0  0  0
  6  7  1  0  0  0  0
  6 25  1  0  0  0  0
  7  8  2  0  0  0  0
  7  9  1  0  0  0  0
  9 10  1  0  0  0  0
  9 26  1  0  0  0  0
 10 11  1  0  0  0  0
 10 12  1  0  0  0  0
 10 27  1  0  0  0  0
 11 28  1  0  0  0  0
 11 29  1  0  0  0  0
 11 30  1  0  0  0  0
 12 16  1  0  0  0  0
 12 13  1  0  0  0  0
 12 31  1  0  0  0  0
 13 14  1  0  0  0  0
 13 32  1  0  0  0  0
 13 33  1  0  0  0  0
 14 15  1  0  0  0  0
 14 34  1  0  0  0  0
 14 35  1  0  0  0  0
 15 16  1  0  0  0  0
 15 36  1  0  0  0  0
 15 37  1  0  0  0  0
 17 18  2  0  0  0  0
 17 38  1  0  0  0  0
M  END
> <s_m_source_file>
AV-unprocessed.smi

> <i_m_source_file_index>
1741

> <i_lp_mmshare_version>
43012

> <i_f3d_flags>
0

> <s_epik_input>
W0NIM11bQ0gyXW4xW2NIXWMoW2NIXW4xKVtOSF1DKD1PKVtOSF1bQ0BIXShbQ0gzXSlbQ0BASF0yW0NIMl1bQ0gyXVtDSDJdTzI=

> <s_epik_cmdline>
J2VwaWtfcHl0aG9uJywgJy1waCcsICc3LjAnLCAnLXRuJywgJzgnLCAnLW1hJywgJzIwMCcsICctbWV0YWxfYmluZGluZycsICctaW1hZScsICc8aW5maWxlLm1hZT4nLCAnLW9tYWUnLCAnPG91dGZpbGUubWFlPic=

> <r_lp_tautomer_probability>
1

> <r_epik_Ionization_Penalty>
0.000179292

> <r_epik_Ionization_Penalty_Charging>
0

> <r_epik_Ionization_Penalty_Neutral>
0.000179292

> <r_epik_State_Penalty>
-0

> <r_epik_Charging_Adjusted_Penalty>
0

> <i_epik_Tot_Q>
0

> <i_epik_Tot_abs_Q>
0

> <r_epik_Metal_State_Penalty>
-0

> <b_epik_Metal_Only>
0

> <s_lp_Force_Field>
OPLS_2005

> <r_lp_Energy>
22.1754

> <b_lp_Chiralities_Consistent>
1

> <s_lp_Variant>
AV-unprocessed.smi:1741-2

> <Gold.Version>
5.8.1

> <Gold.Id.Protein>
6NUR|6NUR_protein|mol2

> <Gold.PLP.Fitness>
35.5260

> <Gold.PLP.PLP>
-30.0628

> <Gold.PLP.part.hbond>
-2.6667

> <Gold.PLP.part.metal>
0.0000

> <Gold.PLP.part.buried>
-2.6396

> <Gold.PLP.part.nonpolar>
-25.4383

> <Gold.PLP.part.repulsive>
0.4879

> <Gold.PLP.ligand.clash>
0.0000

> <Gold.PLP.ligand.torsion>
0.1932

> <Gold.PLP.Chemscore.Hbond>
1.9440

> <Gold.PLP.Chemscore.CHOScore>
0.0000

> <Gold.PLP.Chemscore.Metal>
0.0000

> <Gold.Chemscore.Hbonds>
donor molecule, donor type, donor heavy atom, donor atom, acceptor molecule, acceptor atom, score
      L1  H     6    25       P1  7948  1.00
      L1  H     9    26       P1  7948  0.94

> <Gold.PLP.Chemscore.Internal.Correction>
0.0177

> <Gold.Rescore>
     Score         DG    S(hbond)    S(metal)    S(lipo)     H(rot)  DE(clash)    DE(int)     intcor
     13.50     -16.11       1.83        0.00      68.94       1.38       0.30       2.31       ----

> <Gold.Chemscore.Fitness>
13.5046

> <Gold.Chemscore.DG>
-16.1147

> <Gold.Chemscore.ZeroCoef>
-5.4800

> <Gold.Chemscore.Hbond>
1.8259

> <Gold.Chemscore.Metal>
0.0000

> <Gold.Chemscore.Lipo>
68.9422

> <Gold.Chemscore.Internal_Hbond>
0.0000

> <Gold.Chemscore.DEClash>
0.3000

> <Gold.Chemscore.DEInternal>
2.3100

> <Gold.Chemscore.Rot>
1.3790

> <Gold.Chemscore.Internal.Correction>
   9.000000E+99

> <Gold.Chemscore.Hbonds>
donor molecule, donor type, donor heavy atom, donor atom, acceptor molecule, acceptor atom, score
      L1  H     6    25       P1  7948  0.97
      L1  H     9    26       P1  7948  0.91

> <Gold.Chemscore.Hbond.Weighted>
-6.0986

> <Gold.Chemscore.Metal.Weighted>
-0.0000

> <Gold.Chemscore.Lipo.Weighted>
-8.0662

> <Gold.Chemscore.Internal_Hbond.Weighted>
0.0000

> <Gold.Chemscore.DEClash.Weighted>
0.3000

> <Gold.Chemscore.DEInternal.Weighted>
2.3100

> <Gold.Chemscore.Rot.Weighted>
3.5302

> <Gold.Chemscore.Internal.Correction.Weighted>
   9.000000E+99

> <Gold.Protein.RotatedTorsions>
[ 6907 6896 6895 6894 ] final  -29.24 input  -60.11 | X-H torsion
[ 7974 7965 7964 7962 ] final -175.74 input  175.53 | X-H torsion
[ 8008 7997 7996 7995 ] final -157.95 input   59.86 | X-H torsion
[ 10167 10162 10161 10158 ] final  112.54 input  -65.29 | X-H torsion
[ 10718 10713 10712 10709 ] final -142.40 input   66.30 | X-H torsion
[ 10763 10752 10751 10750 ] final -172.10 input  -60.55 | X-H torsion
[ 11005 11000 10999 10996 ] final  -85.98 input  -57.11 | X-H torsion

> <Gold.Protein.ActiveResidues>
 VAL166  LYS551  ARG553  GLY616  TRP617  ASP618  TYR619  PRO620  LYS621  CYS622 
 ASP623  PHE694  ASN695  SER759  ASP760  ASP761  ALA762  ILE779  LEU786  VAL792 
 PHE793  MET794  SER795  GLU796  ALA797  LYS798  CYS799  TRP800  GLU811  SER814 

> <Gold.Protein.RotatedAtoms>
  151.1219  135.0084  159.8542 H   0  0  0  0  0  0  0  0  0  0  0  0  # atno 6907 bound_to 6896
  152.5448  134.1712  159.8607 H   0  0  0  0  0  0  0  0  0  0  0  0  # atno 6908 bound_to 6896
  151.1771  133.4703  159.2627 H   0  0  0  0  0  0  0  0  0  0  0  0  # atno 6909 bound_to 6896
  144.7127  140.1276  143.6401 H   0  0  0  0  0  0  0  0  0  0  0  0  # atno 7974 bound_to 7965
  155.7402  140.0813  157.2249 H   0  0  0  0  0  0  0  0  0  0  0  0  # atno 8008 bound_to 7997
  154.4023  140.1579  156.2662 H   0  0  0  0  0  0  0  0  0  0  0  0  # atno 8009 bound_to 7997
  155.9028  140.3408  155.6042 H   0  0  0  0  0  0  0  0  0  0  0  0  # atno 8010 bound_to 7997
  139.6528  144.7128  151.2015 H   0  0  0  0  0  0  0  0  0  0  0  0  # atno 10167 bound_to 10162
  156.3455  130.7660  151.1804 H   0  0  0  0  0  0  0  0  0  0  0  0  # atno 10718 bound_to 10713
  154.6231  135.2877  155.0303 H   0  0  0  0  0  0  0  0  0  0  0  0  # atno 10763 bound_to 10752
  154.1491  135.6506  153.4963 H   0  0  0  0  0  0  0  0  0  0  0  0  # atno 10764 bound_to 10752
  153.0245  135.5351  154.7028 H   0  0  0  0  0  0  0  0  0  0  0  0  # atno 10765 bound_to 10752
  141.1635  133.7429  156.9094 H   0  0  0  0  0  0  0  0  0  0  0  0  # atno 11005 bound_to 11000
  145.9316  139.2610  143.1322 LP  0  0  0  0  0  0  0  0  0  0  0  0  # atno 17320 bound_to 7965
  145.9517  140.8903  143.0256 LP  0  0  0  0  0  0  0  0  0  0  0  0  # atno 17321 bound_to 7965
  140.7545  143.6122  150.8595 LP  0  0  0  0  0  0  0  0  0  0  0  0  # atno 17342 bound_to 10162
  139.9771  143.5992  152.2955 LP  0  0  0  0  0  0  0  0  0  0  0  0  # atno 17343 bound_to 10162
  157.7453  131.0442  150.4783 LP  0  0  0  0  0  0  0  0  0  0  0  0  # atno 17370 bound_to 10713
  156.4970  130.4108  149.6374 LP  0  0  0  0  0  0  0  0  0  0  0  0  # atno 17371 bound_to 10713
  140.1527  134.9219  157.2613 LP  0  0  0  0  0  0  0  0  0  0  0  0  # atno 17394 bound_to 11000
  140.2704  134.3467  155.7375 LP  0  0  0  0  0  0  0  0  0  0  0  0  # atno 17395 bound_to 11000

$$$$
