AV-unprocessed.smi:1007|AV-procd|sdf|4405|dock8
  -GOLD-   22720 2343D 1   1.00000     0.00000
 Structure written by MMmdl.
 57 59  0  0  0  0  0  0  0  0  3 V2000
  144.2968  146.4406  156.4103 C   0  0  0  0  0  0  0  0  0  0  0  0
  143.8071  145.3314  155.6771 O   0  0  0  0  0  0  0  0  0  0  0  0
  144.7065  144.2351  155.6819 C   0  0  0  0  0  0  0  0  0  0  0  0
  144.0621  143.0618  154.9283 C   0  0  0  0  0  0  0  0  0  0  0  0
  145.0294  141.9730  154.6403 N   0  3  0  0  0  0  0  0  0  0  0  0
  145.5829  141.3644  155.8755 C   0  0  0  0  0  0  0  0  0  0  0  0
  146.5008  140.1802  155.5158 C   0  0  0  0  0  0  0  0  0  0  0  0
  147.6172  140.5565  154.6476 N   0  0  0  0  0  0  0  0  0  0  0  0
  148.6305  141.3622  155.3457 C   0  0  0  0  0  0  0  0  0  0  0  0
  150.0125  140.7035  155.5517 C   0  0  1  0  0  0  0  0  0  0  0  0
  150.3298  139.9234  154.4164 O   0  0  0  0  0  0  0  0  0  0  0  0
  151.1806  141.6465  155.9008 C   0  0  0  0  0  0  0  0  0  0  0  0
  151.8112  141.3022  157.1817 N   0  0  0  0  0  0  0  0  0  0  0  0
  152.2683  140.1041  157.6373 C   0  0  0  0  0  0  0  0  0  0  0  0
  152.7555  140.3015  158.8936 N   0  3  0  0  0  0  0  0  0  0  0  0
  152.6066  141.6448  159.2454 C   0  0  0  0  0  0  0  0  0  0  0  0
  152.9439  142.3245  160.4098 C   0  0  0  0  0  0  0  0  0  0  0  0
  152.6528  143.7066  160.4570 C   0  0  0  0  0  0  0  0  0  0  0  0
  153.0037  144.4788  161.7175 C   0  0  0  0  0  0  0  0  0  0  0  0
  152.0445  144.3629  159.3555 C   0  0  0  0  0  0  0  0  0  0  0  0
  151.7357  145.8493  159.4176 C   0  0  0  0  0  0  0  0  0  0  0  0
  151.7110  143.6543  158.1790 C   0  0  0  0  0  0  0  0  0  0  0  0
  152.0025  142.2928  158.1507 C   0  0  0  0  0  0  0  0  0  0  0  0
  147.0612  141.1766  153.4384 C   0  0  0  0  0  0  0  0  0  0  0  0
  146.1278  142.3740  153.7220 C   0  0  0  0  0  0  0  0  0  0  0  0
  143.5720  147.2538  156.3726 H   0  0  0  0  0  0  0  0  0  0  0  0
  145.2351  146.8071  155.9915 H   0  0  0  0  0  0  0  0  0  0  0  0
  144.4580  146.1814  157.4575 H   0  0  0  0  0  0  0  0  0  0  0  0
  145.6629  144.5176  155.2416 H   0  0  0  0  0  0  0  0  0  0  0  0
  144.9066  143.9349  156.7117 H   0  0  0  0  0  0  0  0  0  0  0  0
  143.2173  142.6631  155.4921 H   0  0  0  0  0  0  0  0  0  0  0  0
  143.6528  143.4453  153.9925 H   0  0  0  0  0  0  0  0  0  0  0  0
  146.1236  142.1160  156.4530 H   0  0  0  0  0  0  0  0  0  0  0  0
  144.7669  141.0072  156.5050 H   0  0  0  0  0  0  0  0  0  0  0  0
  146.8788  139.7138  156.4264 H   0  0  0  0  0  0  0  0  0  0  0  0
  145.9069  139.4117  155.0187 H   0  0  0  0  0  0  0  0  0  0  0  0
  148.7574  142.3263  154.8548 H   0  0  0  0  0  0  0  0  0  0  0  0
  148.2606  141.6051  156.3430 H   0  0  0  0  0  0  0  0  0  0  0  0
  149.8977  139.9997  156.3767 H   0  0  0  0  0  0  0  0  0  0  0  0
  150.2157  139.0119  154.6395 H   0  0  0  0  0  0  0  0  0  0  0  0
  151.9618  141.5865  155.1433 H   0  0  0  0  0  0  0  0  0  0  0  0
  150.8524  142.6855  155.9445 H   0  0  0  0  0  0  0  0  0  0  0  0
  152.2428  139.1658  157.1021 H   0  0  0  0  0  0  0  0  0  0  0  0
  153.4058  141.8179  161.2446 H   0  0  0  0  0  0  0  0  0  0  0  0
  153.6983  145.2880  161.4911 H   0  0  0  0  0  0  0  0  0  0  0  0
  153.4733  143.8354  162.4623 H   0  0  0  0  0  0  0  0  0  0  0  0
  152.1066  144.9066  162.1660 H   0  0  0  0  0  0  0  0  0  0  0  0
  151.2573  146.1968  158.5015 H   0  0  0  0  0  0  0  0  0  0  0  0
  152.6516  146.4248  159.5539 H   0  0  0  0  0  0  0  0  0  0  0  0
  151.0626  146.0666  160.2472 H   0  0  0  0  0  0  0  0  0  0  0  0
  151.2460  144.1527  157.3414 H   0  0  0  0  0  0  0  0  0  0  0  0
  147.8506  141.4944  152.7631 H   0  0  0  0  0  0  0  0  0  0  0  0
  146.4975  140.4224  152.8876 H   0  0  0  0  0  0  0  0  0  0  0  0
  145.7152  142.7263  152.7775 H   0  0  0  0  0  0  0  0  0  0  0  0
  146.6829  143.2105  154.1474 H   0  0  0  0  0  0  0  0  0  0  0  0
  144.5081  141.2415  154.1776 H   0  0  0  0  0  0  0  0  0  0  0  0
  153.1553  139.5702  159.4678 H   0  0  0  0  0  0  0  0  0  0  0  0
  1  2  1  0  0  0  0
  1 26  1  0  0  0  0
  1 27  1  0  0  0  0
  1 28  1  0  0  0  0
  2  3  1  0  0  0  0
  3  4  1  0  0  0  0
  3 29  1  0  0  0  0
  3 30  1  0  0  0  0
  4  5  1  0  0  0  0
  4 31  1  0  0  0  0
  4 32  1  0  0  0  0
  5 25  1  0  0  0  0
  5  6  1  0  0  0  0
  5 56  1  0  0  0  0
  6  7  1  0  0  0  0
  6 33  1  0  0  0  0
  6 34  1  0  0  0  0
  7  8  1  0  0  0  0
  7 35  1  0  0  0  0
  7 36  1  0  0  0  0
  8  9  1  0  0  0  0
  8 24  1  0  0  0  0
  9 10  1  0  0  0  0
  9 37  1  0  0  0  0
  9 38  1  0  0  0  0
 10 11  1  0  0  0  0
 10 12  1  0  0  0  0
 10 39  1  0  0  0  0
 11 40  1  0  0  0  0
 12 13  1  0  0  0  0
 12 41  1  0  0  0  0
 12 42  1  0  0  0  0
 13 23  1  0  0  0  0
 13 14  1  0  0  0  0
 14 15  2  0  0  0  0
 14 43  1  0  0  0  0
 15 16  1  0  0  0  0
 15 57  1  0  0  0  0
 16 23  2  0  0  0  0
 16 17  1  0  0  0  0
 17 18  2  0  0  0  0
 17 44  1  0  0  0  0
 18 19  1  0  0  0  0
 18 20  1  0  0  0  0
 19 45  1  0  0  0  0
 19 46  1  0  0  0  0
 19 47  1  0  0  0  0
 20 21  1  0  0  0  0
 20 22  2  0  0  0  0
 21 48  1  0  0  0  0
 21 49  1  0  0  0  0
 21 50  1  0  0  0  0
 22 23  1  0  0  0  0
 22 51  1  0  0  0  0
 24 25  1  0  0  0  0
 24 52  1  0  0  0  0
 24 53  1  0  0  0  0
 25 54  1  0  0  0  0
 25 55  1  0  0  0  0
M  CHG  1   5   1
M  CHG  1  15   1
M  END
> <s_m_source_file>
AV-unprocessed.smi

> <i_m_source_file_index>
1007

> <i_lp_mmshare_version>
43012

> <i_f3d_flags>
0

> <s_epik_input>
W0NIM11PW0NIMl1bQ0gyXU4xW0NIMl1bQ0gyXU4oW0NIMl1bQ0gyXTEpW0NIMl1bQ0BIXShbT0hdKVtDSDJdbihbY0hdbjIpYyhjMjMpW2NIXWMoW0NIM10pYyhbY0hdMylbQ0gzXQ==

> <s_epik_cmdline>
J2VwaWtfcHl0aG9uJywgJy1waCcsICc3LjAnLCAnLXRuJywgJzgnLCAnLW1hJywgJzIwMCcsICctbWV0YWxfYmluZGluZycsICctaW1hZScsICc8aW5maWxlLm1hZT4nLCAnLW9tYWUnLCAnPG91dGZpbGUubWFlPic=

> <r_epik_Ionization_Penalty>
1.34507

> <r_epik_Ionization_Penalty_Charging>
1.29906

> <r_epik_Ionization_Penalty_Neutral>
0.0460038

> <r_epik_State_Penalty>
2.55679

> <r_epik_Charging_Adjusted_Penalty>
3.85586

> <i_epik_Tot_Q>
2

> <i_epik_Tot_abs_Q>
2

> <r_epik_Metal_State_Penalty>
6.56928

> <b_epik_Metal_Only>
0

> <s_lp_Force_Field>
OPLS_2005

> <r_lp_Energy>
47.3521

> <b_lp_Chiralities_Consistent>
1

> <s_lp_Variant>
AV-unprocessed.smi:1007-8

> <Gold.Version>
5.8.1

> <Gold.Id.Protein>
6NUR|6NUR_protein|mol2

> <Gold.PLP.Fitness>
55.5187

> <Gold.PLP.PLP>
-49.9213

> <Gold.PLP.part.hbond>
-2.2639

> <Gold.PLP.part.metal>
0.0000

> <Gold.PLP.part.buried>
-9.1404

> <Gold.PLP.part.nonpolar>
-37.5379

> <Gold.PLP.part.repulsive>
0.2586

> <Gold.PLP.ligand.clash>
0.0000

> <Gold.PLP.ligand.torsion>
1.7905

> <Gold.PLP.Chemscore.Hbond>
3.0000

> <Gold.PLP.Chemscore.CHOScore>
0.0000

> <Gold.PLP.Chemscore.Metal>
0.0000

> <Gold.Chemscore.Hbonds>
donor molecule, donor type, donor heavy atom, donor atom, acceptor molecule, acceptor atom, score
      L1  H     5    56       P1 10175  1.95
      P1  H  7989  7998       L1    11  1.00

> <Gold.PLP.Chemscore.Internal.Correction>
0.1785

> <Gold.Rescore>
     Score         DG    S(hbond)    S(metal)    S(lipo)     H(rot)  DE(clash)    DE(int)     intcor
     17.38     -19.72       1.71        0.00     130.65       2.64       0.45       1.88       ----

> <Gold.Chemscore.Fitness>
17.3832

> <Gold.Chemscore.DG>
-19.7159

> <Gold.Chemscore.ZeroCoef>
-5.4800

> <Gold.Chemscore.Hbond>
1.7115

> <Gold.Chemscore.Metal>
0.0000

> <Gold.Chemscore.Lipo>
130.6504

> <Gold.Chemscore.Internal_Hbond>
0.0000

> <Gold.Chemscore.DEClash>
0.4479

> <Gold.Chemscore.DEInternal>
1.8847

> <Gold.Chemscore.Rot>
2.6432

> <Gold.Chemscore.Internal.Correction>
   9.000000E+99

> <Gold.Chemscore.Hbonds>
donor molecule, donor type, donor heavy atom, donor atom, acceptor molecule, acceptor atom, score
      L1  H     5    56       P1 10175  0.58
      P1  H  7989  7998       L1    11  0.55

> <Gold.Chemscore.Hbond.Weighted>
-5.7163

> <Gold.Chemscore.Metal.Weighted>
-0.0000

> <Gold.Chemscore.Lipo.Weighted>
-15.2861

> <Gold.Chemscore.Internal_Hbond.Weighted>
0.0000

> <Gold.Chemscore.DEClash.Weighted>
0.4479

> <Gold.Chemscore.DEInternal.Weighted>
1.8847

> <Gold.Chemscore.Rot.Weighted>
6.7665

> <Gold.Chemscore.Internal.Correction.Weighted>
   9.000000E+99

> <Gold.Protein.RotatedTorsions>
[ 6907 6896 6895 6894 ] final -159.45 input  -60.11 | X-H torsion
[ 7974 7965 7964 7962 ] final -131.31 input  175.53 | X-H torsion
[ 8008 7997 7996 7995 ] final   45.94 input   59.86 | X-H torsion
[ 10167 10162 10161 10158 ] final  100.77 input  -65.29 | X-H torsion
[ 10718 10713 10712 10709 ] final  -65.92 input   66.30 | X-H torsion
[ 10763 10752 10751 10750 ] final -148.18 input  -60.55 | X-H torsion
[ 11005 11000 10999 10996 ] final -100.57 input  -57.11 | X-H torsion

> <Gold.Protein.ActiveResidues>
 VAL166  LYS551  ARG553  GLY616  TRP617  ASP618  TYR619  PRO620  LYS621  CYS622 
 ASP623  PHE694  ASN695  SER759  ASP760  ASP761  ALA762  ILE779  LEU786  VAL792 
 PHE793  MET794  SER795  GLU796  ALA797  LYS798  CYS799  TRP800  GLU811  SER814 

> <Gold.Protein.RotatedAtoms>
  151.3338  133.3990  159.2664 H   0  0  0  0  0  0  0  0  0  0  0  0  # atno 6907 bound_to 6896
  150.9934  134.9264  159.7923 H   0  0  0  0  0  0  0  0  0  0  0  0  # atno 6908 bound_to 6896
  152.5254  134.3303  159.9233 H   0  0  0  0  0  0  0  0  0  0  0  0  # atno 6909 bound_to 6896
  144.9391  140.7218  143.4857 H   0  0  0  0  0  0  0  0  0  0  0  0  # atno 7974 bound_to 7965
  155.3442  140.3410  155.4239 H   0  0  0  0  0  0  0  0  0  0  0  0  # atno 8008 bound_to 7997
  156.1797  140.1660  156.8332 H   0  0  0  0  0  0  0  0  0  0  0  0  # atno 8009 bound_to 7997
  154.5320  140.0743  156.8345 H   0  0  0  0  0  0  0  0  0  0  0  0  # atno 8010 bound_to 7997
  139.7497  144.6987  151.0450 H   0  0  0  0  0  0  0  0  0  0  0  0  # atno 10167 bound_to 10162
  156.0642  130.4254  150.1633 H   0  0  0  0  0  0  0  0  0  0  0  0  # atno 10718 bound_to 10713
  154.8246  135.3341  154.6934 H   0  0  0  0  0  0  0  0  0  0  0  0  # atno 10763 bound_to 10752
  153.7562  135.6936  153.4939 H   0  0  0  0  0  0  0  0  0  0  0  0  # atno 10764 bound_to 10752
  153.2142  135.4471  155.0365 H   0  0  0  0  0  0  0  0  0  0  0  0  # atno 10765 bound_to 10752
  141.1265  133.8409  157.1119 H   0  0  0  0  0  0  0  0  0  0  0  0  # atno 11005 bound_to 11000
  145.3019  139.1847  143.4685 LP  0  0  0  0  0  0  0  0  0  0  0  0  # atno 17320 bound_to 7965
  146.3279  140.3011  142.8621 LP  0  0  0  0  0  0  0  0  0  0  0  0  # atno 17321 bound_to 7965
  140.7796  143.4824  151.0001 LP  0  0  0  0  0  0  0  0  0  0  0  0  # atno 17342 bound_to 10162
  139.8511  143.7437  152.3178 LP  0  0  0  0  0  0  0  0  0  0  0  0  # atno 17343 bound_to 10162
  156.9696  130.9830  151.3462 LP  0  0  0  0  0  0  0  0  0  0  0  0  # atno 17370 bound_to 10713
  157.5672  130.8286  149.8343 LP  0  0  0  0  0  0  0  0  0  0  0  0  # atno 17371 bound_to 10713
  140.0270  134.9919  157.0705 LP  0  0  0  0  0  0  0  0  0  0  0  0  # atno 17394 bound_to 11000
  140.4347  134.1744  155.7170 LP  0  0  0  0  0  0  0  0  0  0  0  0  # atno 17395 bound_to 11000

$$$$
