AV-unprocessed.smi:1045|AV-procd|sdf|4545|dock3
  -GOLD-   22720 2573D 1   1.00000     0.00000
 Structure written by MMmdl.
 42 43  0  0  0  0  0  0  0  0  1 V2000
  146.4623  132.8575  151.3381 C   0  0  0  0  0  0  0  0  0  0  0  0
  147.0098  133.3942  152.5293 O   0  0  0  0  0  0  0  0  0  0  0  0
  148.1468  132.6727  152.9785 C   0  0  0  0  0  0  0  0  0  0  0  0
  148.6790  133.2842  154.2845 C   0  0  1  0  0  0  0  0  0  0  0  0
  149.8594  132.4897  154.8660 C   0  0  0  0  0  0  0  0  0  0  0  0
  149.0558  134.6774  154.0591 N   0  0  0  0  0  0  0  0  0  0  0  0
  149.4993  135.5272  154.9959 C   0  0  0  0  0  0  0  0  0  0  0  0
  149.6329  135.2217  156.1803 O   0  0  0  0  0  0  0  0  0  0  0  0
  149.7570  136.7359  154.4670 N   0  0  0  0  0  0  0  0  0  0  0  0
  150.2312  137.9102  155.1131 C   0  0  0  0  0  0  0  0  0  0  0  0
  150.5572  137.8224  156.4804 C   0  0  0  0  0  0  0  0  0  0  0  0
  151.0196  138.9677  157.1553 C   0  0  0  0  0  0  0  0  0  0  0  0
  151.1428  140.1827  156.4411 C   0  0  0  0  0  0  0  0  0  0  0  0
  151.6026  141.3537  157.0758 N   0  0  0  0  0  0  0  0  0  0  0  0
  152.1611  141.3258  158.4189 C   0  0  0  0  0  0  0  0  0  0  0  0
  152.3804  142.7946  158.7774 C   0  0  0  0  0  0  0  0  0  0  0  0
  151.2446  143.5039  158.0399 C   0  0  0  0  0  0  0  0  0  0  0  0
  151.0343  142.6613  156.7765 C   0  0  0  0  0  0  0  0  0  0  0  0
  150.8102  140.2740  155.1317 N   0  0  0  0  0  0  0  0  0  0  0  0
  150.3673  139.1729  154.4883 C   0  0  0  0  0  0  0  0  0  0  0  0
  145.5914  133.4410  151.0399 H   0  0  0  0  0  0  0  0  0  0  0  0
  146.1419  131.8247  151.4815 H   0  0  0  0  0  0  0  0  0  0  0  0
  147.1853  132.8903  150.5221 H   0  0  0  0  0  0  0  0  0  0  0  0
  147.8819  131.6263  153.1407 H   0  0  0  0  0  0  0  0  0  0  0  0
  148.9260  132.6924  152.2146 H   0  0  0  0  0  0  0  0  0  0  0  0
  147.8627  133.2506  155.0084 H   0  0  0  0  0  0  0  0  0  0  0  0
  149.5803  131.4515  155.0470 H   0  0  0  0  0  0  0  0  0  0  0  0
  150.1880  132.9112  155.8165 H   0  0  0  0  0  0  0  0  0  0  0  0
  150.7144  132.4914  154.1891 H   0  0  0  0  0  0  0  0  0  0  0  0
  148.9736  135.0162  153.1116 H   0  0  0  0  0  0  0  0  0  0  0  0
  149.5390  136.8426  153.4872 H   0  0  0  0  0  0  0  0  0  0  0  0
  150.4572  136.8867  157.0111 H   0  0  0  0  0  0  0  0  0  0  0  0
  151.2656  138.8994  158.2043 H   0  0  0  0  0  0  0  0  0  0  0  0
  151.4456  140.8654  159.1019 H   0  0  0  0  0  0  0  0  0  0  0  0
  153.0914  140.7581  158.4576 H   0  0  0  0  0  0  0  0  0  0  0  0
  152.3719  142.9751  159.8527 H   0  0  0  0  0  0  0  0  0  0  0  0
  153.3409  143.1316  158.3851 H   0  0  0  0  0  0  0  0  0  0  0  0
  150.3415  143.4765  158.6510 H   0  0  0  0  0  0  0  0  0  0  0  0
  151.4669  144.5482  157.8190 H   0  0  0  0  0  0  0  0  0  0  0  0
  151.5705  143.0925  155.9304 H   0  0  0  0  0  0  0  0  0  0  0  0
  149.9760  142.6038  156.5203 H   0  0  0  0  0  0  0  0  0  0  0  0
  150.1054  139.3361  153.4551 H   0  0  0  0  0  0  0  0  0  0  0  0
  1  2  1  0  0  0  0
  1 21  1  0  0  0  0
  1 22  1  0  0  0  0
  1 23  1  0  0  0  0
  2  3  1  0  0  0  0
  3  4  1  0  0  0  0
  3 24  1  0  0  0  0
  3 25  1  0  0  0  0
  4  5  1  0  0  0  0
  4  6  1  0  0  0  0
  4 26  1  0  0  0  0
  5 27  1  0  0  0  0
  5 28  1  0  0  0  0
  5 29  1  0  0  0  0
  6  7  1  0  0  0  0
  6 30  1  0  0  0  0
  7  8  2  0  0  0  0
  7  9  1  0  0  0  0
  9 10  1  0  0  0  0
  9 31  1  0  0  0  0
 10 20  1  0  0  0  0
 10 11  2  0  0  0  0
 11 12  1  0  0  0  0
 11 32  1  0  0  0  0
 12 13  2  0  0  0  0
 12 33  1  0  0  0  0
 13 14  1  0  0  0  0
 13 19  1  0  0  0  0
 14 18  1  0  0  0  0
 14 15  1  0  0  0  0
 15 16  1  0  0  0  0
 15 34  1  0  0  0  0
 15 35  1  0  0  0  0
 16 17  1  0  0  0  0
 16 36  1  0  0  0  0
 16 37  1  0  0  0  0
 17 18  1  0  0  0  0
 17 38  1  0  0  0  0
 17 39  1  0  0  0  0
 18 40  1  0  0  0  0
 18 41  1  0  0  0  0
 19 20  2  0  0  0  0
 20 42  1  0  0  0  0
M  END
> <s_m_source_file>
AV-unprocessed.smi

> <i_m_source_file_index>
1045

> <i_lp_mmshare_version>
43012

> <i_f3d_flags>
0

> <s_epik_input>
W0NIM11PW0NIMl1bQ0BIXShbQ0gzXSlbTkhdQyg9TylbTkhdYzFbY0hdW2NIXWMobltjSF0xKU4yW0NIMl1bQ0gyXVtDSDJdW0NIMl0y

> <s_epik_cmdline>
J2VwaWtfcHl0aG9uJywgJy1waCcsICc3LjAnLCAnLXRuJywgJzgnLCAnLW1hJywgJzIwMCcsICctbWV0YWxfYmluZGluZycsICctaW1hZScsICc8aW5maWxlLm1hZT4nLCAnLW9tYWUnLCAnPG91dGZpbGUubWFlPic=

> <r_lp_tautomer_probability>
1

> <r_epik_Ionization_Penalty>
0.10064

> <r_epik_Ionization_Penalty_Charging>
0

> <r_epik_Ionization_Penalty_Neutral>
0.10064

> <r_epik_State_Penalty>
0.0900987

> <r_epik_Charging_Adjusted_Penalty>
0.0900987

> <i_epik_Tot_Q>
0

> <i_epik_Tot_abs_Q>
0

> <r_epik_Metal_State_Penalty>
0.076945

> <b_epik_Metal_Only>
0

> <s_lp_Force_Field>
OPLS_2005

> <r_lp_Energy>
29.4827

> <b_lp_Chiralities_Consistent>
1

> <s_lp_Variant>
AV-unprocessed.smi:1045-2

> <Gold.Version>
5.8.1

> <Gold.Id.Protein>
6NUR|6NUR_protein|mol2

> <Gold.PLP.Fitness>
43.4086

> <Gold.PLP.PLP>
-33.3106

> <Gold.PLP.part.hbond>
-3.0000

> <Gold.PLP.part.metal>
0.0000

> <Gold.PLP.part.buried>
-3.9997

> <Gold.PLP.part.nonpolar>
-26.7372

> <Gold.PLP.part.repulsive>
0.2422

> <Gold.PLP.ligand.clash>
0.0000

> <Gold.PLP.ligand.torsion>
0.3204

> <Gold.PLP.Chemscore.Hbond>
2.5000

> <Gold.PLP.Chemscore.CHOScore>
1.0000

> <Gold.PLP.Chemscore.Metal>
0.0000

> <Gold.Chemscore.Hbonds>
donor molecule, donor type, donor heavy atom, donor atom, acceptor molecule, acceptor atom, score
      L1  H     6    30       P1  7948  0.90
      L1  H     9    31       P1  7948  1.00
      P1  H  7989  7998       L1    19  0.50
      L1  C    20    42       P1  7957  1.00

> <Gold.PLP.Chemscore.Internal.Correction>
0.2388

> <Gold.Rescore>
     Score         DG    S(hbond)    S(metal)    S(lipo)     H(rot)  DE(clash)    DE(int)     intcor
     15.39     -17.31       1.93        0.00      76.80       1.41       0.19       1.73       ----

> <Gold.Chemscore.Fitness>
15.3869

> <Gold.Chemscore.DG>
-17.3076

> <Gold.Chemscore.ZeroCoef>
-5.4800

> <Gold.Chemscore.Hbond>
1.9305

> <Gold.Chemscore.Metal>
0.0000

> <Gold.Chemscore.Lipo>
76.8025

> <Gold.Chemscore.Internal_Hbond>
0.0000

> <Gold.Chemscore.DEClash>
0.1923

> <Gold.Chemscore.DEInternal>
1.7283

> <Gold.Chemscore.Rot>
1.4086

> <Gold.Chemscore.Internal.Correction>
   9.000000E+99

> <Gold.Chemscore.Hbonds>
donor molecule, donor type, donor heavy atom, donor atom, acceptor molecule, acceptor atom, score
      L1  H     6    30       P1  7948  0.18
      L1  H     9    31       P1  7948  0.77
      P1  H  7989  7998       L1    19  0.02

> <Gold.Chemscore.Hbond.Weighted>
-6.4477

> <Gold.Chemscore.Metal.Weighted>
-0.0000

> <Gold.Chemscore.Lipo.Weighted>
-8.9859

> <Gold.Chemscore.Internal_Hbond.Weighted>
0.0000

> <Gold.Chemscore.DEClash.Weighted>
0.1923

> <Gold.Chemscore.DEInternal.Weighted>
1.7283

> <Gold.Chemscore.Rot.Weighted>
3.6060

> <Gold.Chemscore.Internal.Correction.Weighted>
   9.000000E+99

> <Gold.Protein.RotatedTorsions>
[ 6907 6896 6895 6894 ] final   18.48 input  -60.11 | X-H torsion
[ 7974 7965 7964 7962 ] final  -50.26 input  175.53 | X-H torsion
[ 8008 7997 7996 7995 ] final  -75.85 input   59.86 | X-H torsion
[ 10167 10162 10161 10158 ] final -170.05 input  -65.29 | X-H torsion
[ 10718 10713 10712 10709 ] final   66.59 input   66.30 | X-H torsion
[ 10763 10752 10751 10750 ] final -171.84 input  -60.55 | X-H torsion
[ 11005 11000 10999 10996 ] final  -98.39 input  -57.11 | X-H torsion

> <Gold.Protein.ActiveResidues>
 VAL166  LYS551  ARG553  GLY616  TRP617  ASP618  TYR619  PRO620  LYS621  CYS622 
 ASP623  PHE694  ASN695  SER759  ASP760  ASP761  ALA762  ILE779  LEU786  VAL792 
 PHE793  MET794  SER795  GLU796  ALA797  LYS798  CYS799  TRP800  GLU811  SER814 

> <Gold.Protein.RotatedAtoms>
  151.8659  135.0507  160.0473 H   0  0  0  0  0  0  0  0  0  0  0  0  # atno 6907 bound_to 6896
  152.2626  133.5306  159.5399 H   0  0  0  0  0  0  0  0  0  0  0  0  # atno 6908 bound_to 6896
  150.7122  134.0725  159.3911 H   0  0  0  0  0  0  0  0  0  0  0  0  # atno 6909 bound_to 6896
  145.9318  140.7743  142.9596 H   0  0  0  0  0  0  0  0  0  0  0  0  # atno 7974 bound_to 7965
  154.5453  140.0737  156.8578 H   0  0  0  0  0  0  0  0  0  0  0  0  # atno 8008 bound_to 7997
  155.3100  140.3389  155.4226 H   0  0  0  0  0  0  0  0  0  0  0  0  # atno 8009 bound_to 7997
  156.1912  140.1687  156.8074 H   0  0  0  0  0  0  0  0  0  0  0  0  # atno 8010 bound_to 7997
  139.5885  144.1265  152.1605 H   0  0  0  0  0  0  0  0  0  0  0  0  # atno 10167 bound_to 10162
  157.6179  130.9276  150.0130 H   0  0  0  0  0  0  0  0  0  0  0  0  # atno 10718 bound_to 10713
  154.6260  135.2881  155.0271 H   0  0  0  0  0  0  0  0  0  0  0  0  # atno 10763 bound_to 10752
  154.1449  135.6512  153.4954 H   0  0  0  0  0  0  0  0  0  0  0  0  # atno 10764 bound_to 10752
  153.0257  135.5342  154.7069 H   0  0  0  0  0  0  0  0  0  0  0  0  # atno 10765 bound_to 10752
  141.1346  133.8242  157.0833 H   0  0  0  0  0  0  0  0  0  0  0  0  # atno 11005 bound_to 11000
  144.6766  140.2139  143.7374 LP  0  0  0  0  0  0  0  0  0  0  0  0  # atno 17320 bound_to 7965
  145.8416  139.2133  143.1824 LP  0  0  0  0  0  0  0  0  0  0  0  0  # atno 17321 bound_to 7965
  140.0834  144.5681  150.7106 LP  0  0  0  0  0  0  0  0  0  0  0  0  # atno 17342 bound_to 10162
  140.7152  143.2539  151.4455 LP  0  0  0  0  0  0  0  0  0  0  0  0  # atno 17343 bound_to 10162
  156.1309  130.3643  149.9733 LP  0  0  0  0  0  0  0  0  0  0  0  0  # atno 17370 bound_to 10713
  156.7794  130.9215  151.3646 LP  0  0  0  0  0  0  0  0  0  0  0  0  # atno 17371 bound_to 10713
  140.0438  134.9841  157.1011 LP  0  0  0  0  0  0  0  0  0  0  0  0  # atno 17394 bound_to 11000
  140.4095  134.1997  155.7163 LP  0  0  0  0  0  0  0  0  0  0  0  0  # atno 17395 bound_to 11000

$$$$
