AV-unprocessed.smi:707|AV-procd|sdf|3456|dock8
  -GOLD-   22720 0443D 1   1.00000     0.00000
 Structure written by MMmdl.
 44 45  0  0  0  0  0  0  0  0  1 V2000
  152.0303  138.5352  154.7437 C   0  0  0  0  0  0  0  0  0  0  0  0
  151.1028  137.4834  155.2603 C   0  0  0  0  0  0  0  0  0  0  0  0
  151.5126  136.3423  155.8272 N   0  0  0  0  0  0  0  0  0  0  0  0
  150.3596  135.6583  156.1593 N   0  0  0  0  0  0  0  0  0  0  0  0
  149.3695  136.4557  155.7597 C   0  0  0  0  0  0  0  0  0  0  0  0
  149.7617  137.6067  155.1927 N   0  0  0  0  0  0  0  0  0  0  0  0
  148.9401  138.6749  154.6556 C   0  0  0  0  0  0  0  0  0  0  0  0
  148.3682  139.5620  155.7740 C   0  0  0  0  0  0  0  0  0  0  0  0
  149.2599  140.6712  156.0897 N   0  0  0  0  0  0  0  0  0  0  0  0
  149.7057  140.9760  157.3180 C   0  0  0  0  0  0  0  0  0  0  0  0
  149.4072  140.3375  158.3270 O   0  0  0  0  0  0  0  0  0  0  0  0
  150.6373  142.1804  157.4215 C   0  0  0  0  0  0  0  0  0  0  0  0
  151.2242  142.1839  158.7149 O   0  0  0  0  0  0  0  0  0  0  0  0
  152.2989  143.1024  158.8841 C   0  0  1  0  0  0  0  0  0  0  0  0
  151.6977  144.5186  158.9198 C   0  0  0  0  0  0  0  0  0  0  0  0
  150.8495  144.7467  160.1824 C   0  0  0  0  0  0  0  0  0  0  0  0
  151.6546  144.4561  161.4592 C   0  0  0  0  0  0  0  0  0  0  0  0
  152.2486  143.0346  161.4428 C   0  0  2  0  0  0  0  0  0  0  0  0
  153.0583  142.7493  162.7157 C   0  0  0  0  0  0  0  0  0  0  0  0
  153.1002  142.8239  160.1751 C   0  0  0  0  0  0  0  0  0  0  0  0
  153.0673  138.2150  154.8490 H   0  0  0  0  0  0  0  0  0  0  0  0
  151.8966  139.4612  155.3028 H   0  0  0  0  0  0  0  0  0  0  0  0
  151.8331  138.7272  153.6890 H   0  0  0  0  0  0  0  0  0  0  0  0
  148.3290  136.1922  155.8825 H   0  0  0  0  0  0  0  0  0  0  0  0
  149.5527  139.2639  153.9720 H   0  0  0  0  0  0  0  0  0  0  0  0
  148.1368  138.2401  154.0602 H   0  0  0  0  0  0  0  0  0  0  0  0
  147.4081  139.9781  155.4665 H   0  0  0  0  0  0  0  0  0  0  0  0
  148.1763  138.9721  156.6720 H   0  0  0  0  0  0  0  0  0  0  0  0
  149.5550  141.2556  155.3209 H   0  0  0  0  0  0  0  0  0  0  0  0
  151.3961  142.1151  156.6420 H   0  0  0  0  0  0  0  0  0  0  0  0
  150.0643  143.0937  157.2550 H   0  0  0  0  0  0  0  0  0  0  0  0
  152.9623  143.0364  158.0202 H   0  0  0  0  0  0  0  0  0  0  0  0
  152.5033  145.2534  158.8915 H   0  0  0  0  0  0  0  0  0  0  0  0
  151.0940  144.6916  158.0285 H   0  0  0  0  0  0  0  0  0  0  0  0
  150.4818  145.7728  160.2013 H   0  0  0  0  0  0  0  0  0  0  0  0
  149.9677  144.1055  160.1529 H   0  0  0  0  0  0  0  0  0  0  0  0
  152.4563  145.1895  161.5570 H   0  0  0  0  0  0  0  0  0  0  0  0
  151.0129  144.5829  162.3319 H   0  0  0  0  0  0  0  0  0  0  0  0
  151.4216  142.3234  161.4163 H   0  0  0  0  0  0  0  0  0  0  0  0
  153.9071  143.4276  162.8066 H   0  0  0  0  0  0  0  0  0  0  0  0
  153.4451  141.7297  162.7134 H   0  0  0  0  0  0  0  0  0  0  0  0
  152.4419  142.8651  163.6075 H   0  0  0  0  0  0  0  0  0  0  0  0
  153.5170  141.8175  160.1638 H   0  0  0  0  0  0  0  0  0  0  0  0
  153.9594  143.4954  160.2068 H   0  0  0  0  0  0  0  0  0  0  0  0
  1  2  1  0  0  0  0
  1 21  1  0  0  0  0
  1 22  1  0  0  0  0
  1 23  1  0  0  0  0
  2  6  1  0  0  0  0
  2  3  2  0  0  0  0
  3  4  1  0  0  0  0
  4  5  2  0  0  0  0
  5  6  1  0  0  0  0
  5 24  1  0  0  0  0
  6  7  1  0  0  0  0
  7  8  1  0  0  0  0
  7 25  1  0  0  0  0
  7 26  1  0  0  0  0
  8  9  1  0  0  0  0
  8 27  1  0  0  0  0
  8 28  1  0  0  0  0
  9 10  1  0  0  0  0
  9 29  1  0  0  0  0
 10 11  2  0  0  0  0
 10 12  1  0  0  0  0
 12 13  1  0  0  0  0
 12 30  1  0  0  0  0
 12 31  1  0  0  0  0
 13 14  1  0  0  0  0
 14 20  1  0  0  0  0
 14 15  1  0  0  0  0
 14 32  1  0  0  0  0
 15 16  1  0  0  0  0
 15 33  1  0  0  0  0
 15 34  1  0  0  0  0
 16 17  1  0  0  0  0
 16 35  1  0  0  0  0
 16 36  1  0  0  0  0
 17 18  1  0  0  0  0
 17 37  1  0  0  0  0
 17 38  1  0  0  0  0
 18 19  1  0  0  0  0
 18 20  1  0  0  0  0
 18 39  1  0  0  0  0
 19 40  1  0  0  0  0
 19 41  1  0  0  0  0
 19 42  1  0  0  0  0
 20 43  1  0  0  0  0
 20 44  1  0  0  0  0
M  END
> <s_m_source_file>
AV-unprocessed.smi

> <i_m_source_file_index>
707

> <i_lp_mmshare_version>
43012

> <i_f3d_flags>
0

> <s_epik_input>
W0NIM11jMW5uW2NIXW4xW0NIMl1bQ0gyXVtOSF1DKD1PKVtDSDJdT1tDQEBIXTJbQ0gyXVtDSDJdW0NIMl1bQ0BASF0oW0NIM10pW0NIMl0y

> <s_epik_cmdline>
J2VwaWtfcHl0aG9uJywgJy1waCcsICc3LjAnLCAnLXRuJywgJzgnLCAnLW1hJywgJzIwMCcsICctbWV0YWxfYmluZGluZycsICctaW1hZScsICc8aW5maWxlLm1hZT4nLCAnLW9tYWUnLCAnPG91dGZpbGUubWFlPic=

> <r_lp_tautomer_probability>
1

> <r_epik_Ionization_Penalty>
0.000271783

> <r_epik_Ionization_Penalty_Charging>
0

> <r_epik_Ionization_Penalty_Neutral>
0.000271783

> <r_epik_State_Penalty>
-0

> <r_epik_Charging_Adjusted_Penalty>
0

> <i_epik_Tot_Q>
0

> <i_epik_Tot_abs_Q>
0

> <r_epik_Metal_State_Penalty>
-0

> <b_epik_Metal_Only>
0

> <s_lp_Force_Field>
OPLS_2005

> <r_lp_Energy>
13.3948

> <b_lp_Chiralities_Consistent>
1

> <s_lp_Variant>
AV-unprocessed.smi:707-4

> <Gold.Version>
5.8.1

> <Gold.Id.Protein>
6NUR|6NUR_protein|mol2

> <Gold.PLP.Fitness>
47.9130

> <Gold.PLP.PLP>
-46.2850

> <Gold.PLP.part.hbond>
-1.0000

> <Gold.PLP.part.metal>
0.0000

> <Gold.PLP.part.buried>
-5.1638

> <Gold.PLP.part.nonpolar>
-41.1449

> <Gold.PLP.part.repulsive>
0.2861

> <Gold.PLP.ligand.clash>
0.0000

> <Gold.PLP.ligand.torsion>
0.7004

> <Gold.PLP.Chemscore.Hbond>
1.0000

> <Gold.PLP.Chemscore.CHOScore>
0.0000

> <Gold.PLP.Chemscore.Metal>
0.0000

> <Gold.Chemscore.Hbonds>
donor molecule, donor type, donor heavy atom, donor atom, acceptor molecule, acceptor atom, score
      P1  H 10752 10763       L1     3  1.00

> <Gold.PLP.Chemscore.Internal.Correction>
0.0288

> <Gold.Rescore>
     Score         DG    S(hbond)    S(metal)    S(lipo)     H(rot)  DE(clash)    DE(int)     intcor
     14.75     -15.57       0.97        0.00     111.62       2.42       0.09       0.73       ----

> <Gold.Chemscore.Fitness>
14.7510

> <Gold.Chemscore.DG>
-15.5748

> <Gold.Chemscore.ZeroCoef>
-5.4800

> <Gold.Chemscore.Hbond>
0.9665

> <Gold.Chemscore.Metal>
0.0000

> <Gold.Chemscore.Lipo>
111.6216

> <Gold.Chemscore.Internal_Hbond>
0.0000

> <Gold.Chemscore.DEClash>
0.0891

> <Gold.Chemscore.DEInternal>
0.7347

> <Gold.Chemscore.Rot>
2.4191

> <Gold.Chemscore.Internal.Correction>
   9.000000E+99

> <Gold.Chemscore.Hbonds>
donor molecule, donor type, donor heavy atom, donor atom, acceptor molecule, acceptor atom, score
      P1  H 10752 10763       L1     3  0.86

> <Gold.Chemscore.Hbond.Weighted>
-3.2280

> <Gold.Chemscore.Metal.Weighted>
-0.0000

> <Gold.Chemscore.Lipo.Weighted>
-13.0597

> <Gold.Chemscore.Internal_Hbond.Weighted>
0.0000

> <Gold.Chemscore.DEClash.Weighted>
0.0891

> <Gold.Chemscore.DEInternal.Weighted>
0.7347

> <Gold.Chemscore.Rot.Weighted>
6.1929

> <Gold.Chemscore.Internal.Correction.Weighted>
   9.000000E+99

> <Gold.Protein.RotatedTorsions>
[ 6907 6896 6895 6894 ] final   95.96 input  -60.11 | X-H torsion
[ 7974 7965 7964 7962 ] final  -50.86 input  175.53 | X-H torsion
[ 8008 7997 7996 7995 ] final -120.00 input   59.86 | X-H torsion
[ 10167 10162 10161 10158 ] final  119.92 input  -65.29 | X-H torsion
[ 10718 10713 10712 10709 ] final   71.31 input   66.30 | X-H torsion
[ 10763 10752 10751 10750 ] final   80.79 input  -60.55 | X-H torsion
[ 11005 11000 10999 10996 ] final   15.96 input  -57.11 | X-H torsion

> <Gold.Protein.ActiveResidues>
 VAL166  LYS551  ARG553  GLY616  TRP617  ASP618  TYR619  PRO620  LYS621  CYS622 
 ASP623  PHE694  ASN695  SER759  ASP760  ASP761  ALA762  ILE779  LEU786  VAL792 
 PHE793  MET794  SER795  GLU796  ALA797  LYS798  CYS799  TRP800  GLU811  SER814 

> <Gold.Protein.RotatedAtoms>
  152.5439  134.0959  159.8296 H   0  0  0  0  0  0  0  0  0  0  0  0  # atno 6907 bound_to 6896
  151.1043  133.5213  159.2616 H   0  0  0  0  0  0  0  0  0  0  0  0  # atno 6908 bound_to 6896
  151.1956  135.0430  159.8905 H   0  0  0  0  0  0  0  0  0  0  0  0  # atno 6909 bound_to 6896
  145.9253  140.7798  142.9627 H   0  0  0  0  0  0  0  0  0  0  0  0  # atno 7974 bound_to 7965
  155.1247  140.0399  157.2759 H   0  0  0  0  0  0  0  0  0  0  0  0  # atno 8008 bound_to 7997
  154.6587  140.2586  155.7107 H   0  0  0  0  0  0  0  0  0  0  0  0  # atno 8009 bound_to 7997
  156.2610  140.2821  156.1051 H   0  0  0  0  0  0  0  0  0  0  0  0  # atno 8010 bound_to 7997
  139.6015  144.7058  151.3052 H   0  0  0  0  0  0  0  0  0  0  0  0  # atno 10167 bound_to 10162
  157.6445  130.9522  150.0772 H   0  0  0  0  0  0  0  0  0  0  0  0  # atno 10718 bound_to 10713
  153.1063  135.4789  154.8956 H   0  0  0  0  0  0  0  0  0  0  0  0  # atno 10763 bound_to 10752
  154.7433  135.3087  154.8692 H   0  0  0  0  0  0  0  0  0  0  0  0  # atno 10764 bound_to 10752
  153.9294  135.6846  153.4799 H   0  0  0  0  0  0  0  0  0  0  0  0  # atno 10765 bound_to 10752
  140.4525  134.1210  155.7704 H   0  0  0  0  0  0  0  0  0  0  0  0  # atno 11005 bound_to 11000
  144.6758  140.2040  143.7384 LP  0  0  0  0  0  0  0  0  0  0  0  0  # atno 17320 bound_to 7965
  145.8497  139.2169  143.1779 LP  0  0  0  0  0  0  0  0  0  0  0  0  # atno 17321 bound_to 7965
  140.7253  143.7021  150.7836 LP  0  0  0  0  0  0  0  0  0  0  0  0  # atno 17342 bound_to 10162
  140.0599  143.5165  152.2633 LP  0  0  0  0  0  0  0  0  0  0  0  0  # atno 17343 bound_to 10162
  156.1759  130.3648  149.9101 LP  0  0  0  0  0  0  0  0  0  0  0  0  # atno 17370 bound_to 10713
  156.7065  130.8953  151.3605 LP  0  0  0  0  0  0  0  0  0  0  0  0  # atno 17371 bound_to 10713
  141.1658  133.8706  157.1719 LP  0  0  0  0  0  0  0  0  0  0  0  0  # atno 17394 bound_to 11000
  139.9997  135.0032  157.0163 LP  0  0  0  0  0  0  0  0  0  0  0  0  # atno 17395 bound_to 11000

$$$$
