AV-unprocessed.smi:37|AV-procd|sdf|326|dock5
  -GOLD-   2262016153D 1   1.00000     0.00000
 Structure written by MMmdl.
 43 44  0  0  0  0  0  0  0  0  2 V2000
  141.8098  130.4530  158.9478 C   0  0  0  0  0  0  0  0  0  0  0  0
  142.1741  131.9334  159.1226 C   0  0  0  0  0  0  0  0  0  0  0  0
  143.2511  132.3811  158.1374 C   0  0  0  0  0  0  0  0  0  0  0  0
  143.1365  133.4224  157.4904 O   0  0  0  0  0  0  0  0  0  0  0  0
  144.2817  131.5245  158.0745 O   0  0  0  0  0  0  0  0  0  0  0  0
  145.3356  131.7612  157.1567 C   0  0  0  0  0  0  0  0  0  0  0  0
  146.0496  133.0651  157.5352 C   0  0  1  0  0  0  0  0  0  0  0  0
  146.6675  132.9620  158.8128 O   0  0  0  0  0  0  0  0  0  0  0  0
  147.7538  133.8402  158.8898 C   0  0  2  0  0  0  0  0  0  0  0  0
  147.4912  134.8895  159.9468 N   0  0  0  0  0  0  0  0  0  0  0  0
  146.3662  134.8350  160.7536 C   0  0  0  0  0  0  0  0  0  0  0  0
  146.1388  135.7714  161.6971 C   0  0  0  0  0  0  0  0  0  0  0  0
  145.0360  135.6964  162.4620 F   0  0  0  0  0  0  0  0  0  0  0  0
  147.0938  136.8633  161.8782 C   0  0  0  0  0  0  0  0  0  0  0  0
  146.8837  137.7109  162.7446 O   0  0  0  0  0  0  0  0  0  0  0  0
  148.1903  136.8932  161.0665 N   0  5  0  0  0  0  0  0  0  0  0  0
  148.4225  135.9508  160.1066 C   0  0  0  0  0  0  0  0  0  0  0  0
  149.4012  135.9744  159.3599 O   0  0  0  0  0  0  0  0  0  0  0  0
  147.9720  134.4370  157.4820 C   0  0  2  0  0  0  0  0  0  0  0  0
  147.1595  136.2488  157.2436 Br  0  0  0  0  0  0  0  0  0  0  0  0
  147.2031  133.4597  156.6097 C   0  0  1  0  0  0  0  0  0  0  0  0
  147.9974  132.3172  156.3061 O   0  0  0  0  0  0  0  0  0  0  0  0
  149.1908  132.4571  155.7013 C   0  0  0  0  0  0  0  0  0  0  0  0
  149.8832  133.4750  155.6961 O   0  0  0  0  0  0  0  0  0  0  0  0
  149.6464  131.1808  154.9971 C   0  0  0  0  0  0  0  0  0  0  0  0
  148.6801  130.7554  153.8828 C   0  0  0  0  0  0  0  0  0  0  0  0
  141.0577  130.1549  159.6781 H   0  0  0  0  0  0  0  0  0  0  0  0
  142.6804  129.8118  159.0906 H   0  0  0  0  0  0  0  0  0  0  0  0
  141.4027  130.2542  157.9556 H   0  0  0  0  0  0  0  0  0  0  0  0
  141.2895  132.5553  158.9838 H   0  0  0  0  0  0  0  0  0  0  0  0
  142.5290  132.1101  160.1383 H   0  0  0  0  0  0  0  0  0  0  0  0
  146.0374  130.9257  157.1500 H   0  0  0  0  0  0  0  0  0  0  0  0
  144.9151  131.8472  156.1537 H   0  0  0  0  0  0  0  0  0  0  0  0
  145.3291  133.8844  157.5633 H   0  0  0  0  0  0  0  0  0  0  0  0
  148.6069  133.2611  159.2475 H   0  0  0  0  0  0  0  0  0  0  0  0
  145.6462  134.0401  160.6309 H   0  0  0  0  0  0  0  0  0  0  0  0
  149.0342  134.5099  157.2462 H   0  0  0  0  0  0  0  0  0  0  0  0
  146.8347  133.9213  155.6919 H   0  0  0  0  0  0  0  0  0  0  0  0
  150.6406  131.3448  154.5803 H   0  0  0  0  0  0  0  0  0  0  0  0
  149.7405  130.3845  155.7359 H   0  0  0  0  0  0  0  0  0  0  0  0
  149.0560  129.8728  153.3653 H   0  0  0  0  0  0  0  0  0  0  0  0
  148.5570  131.5456  153.1413 H   0  0  0  0  0  0  0  0  0  0  0  0
  147.6944  130.5094  154.2797 H   0  0  0  0  0  0  0  0  0  0  0  0
  1  2  1  0  0  0  0
  1 27  1  0  0  0  0
  1 28  1  0  0  0  0
  1 29  1  0  0  0  0
  2  3  1  0  0  0  0
  2 30  1  0  0  0  0
  2 31  1  0  0  0  0
  3  4  2  0  0  0  0
  3  5  1  0  0  0  0
  5  6  1  0  0  0  0
  6  7  1  0  0  0  0
  6 32  1  0  0  0  0
  6 33  1  0  0  0  0
  7 21  1  0  0  0  0
  7  8  1  0  0  0  0
  7 34  1  0  0  0  0
  8  9  1  0  0  0  0
  9 10  1  0  0  0  0
  9 19  1  0  0  0  0
  9 35  1  0  0  0  0
 10 17  1  0  0  0  0
 10 11  1  0  0  0  0
 11 12  2  0  0  0  0
 11 36  1  0  0  0  0
 12 13  1  0  0  0  0
 12 14  1  0  0  0  0
 14 15  2  0  0  0  0
 14 16  1  0  0  0  0
 16 17  1  0  0  0  0
 17 18  2  0  0  0  0
 19 20  1  0  0  0  0
 19 21  1  0  0  0  0
 19 37  1  0  0  0  0
 21 22  1  0  0  0  0
 21 38  1  0  0  0  0
 22 23  1  0  0  0  0
 23 24  2  0  0  0  0
 23 25  1  0  0  0  0
 25 26  1  0  0  0  0
 25 39  1  0  0  0  0
 25 40  1  0  0  0  0
 26 41  1  0  0  0  0
 26 42  1  0  0  0  0
 26 43  1  0  0  0  0
M  CHG  1  16  -1
M  END
> <s_m_source_file>
AV-unprocessed.smi

> <i_m_source_file_index>
37

> <i_lp_mmshare_version>
43012

> <i_f3d_flags>
0

> <s_epik_input>
W0NIM11bQ0gyXUMoPU8pT1tDSDJdW0NAQEhdMU9bQ0BASF0objJbY0hdYyhGKWMoPU8pW25IXWMyPU8pW0NAQEhdKEJyKVtDQEhdMU9DKD1PKVtDSDJdW0NIM10=

> <s_epik_cmdline>
J2VwaWtfcHl0aG9uJywgJy1waCcsICc3LjAnLCAnLXRuJywgJzgnLCAnLW1hJywgJzIwMCcsICctbWV0YWxfYmluZGluZycsICctaW1hZScsICc8aW5maWxlLm1hZT4nLCAnLW9tYWUnLCAnPG91dGZpbGUubWFlPic=

> <r_epik_Ionization_Penalty>
1.08158

> <r_epik_Ionization_Penalty_Charging>
9.05154e-09

> <r_epik_Ionization_Penalty_Neutral>
1.08158

> <r_epik_State_Penalty>
1.13706

> <r_epik_Charging_Adjusted_Penalty>
1.13706

> <i_epik_Tot_Q>
-1

> <i_epik_Tot_abs_Q>
1

> <r_epik_Metal_State_Penalty>
0.00343535

> <b_epik_Metal_Only>
0

> <s_epik_Chemistry_Notes>
This compound has an ester and may undergo hydrolysis at high or low pH. This compound contains an acetal/aminal-like group ( X-CH(R)-Y where X, Y are N, S, or O) that may be acid/base labile, releasing an aldehyde.

> <s_lp_Force_Field>
OPLS_2005

> <r_lp_Energy>
32.8467

> <b_lp_Chiralities_Consistent>
1

> <s_lp_Variant>
AV-unprocessed.smi:37-24

> <Gold.Version>
5.8.1

> <Gold.Id.Protein>
6NUR|6NUR_protein|mol2

> <Gold.PLP.Fitness>
40.2844

> <Gold.PLP.PLP>
-29.2249

> <Gold.PLP.part.hbond>
-5.7791

> <Gold.PLP.part.metal>
0.0000

> <Gold.PLP.part.buried>
-4.6511

> <Gold.PLP.part.nonpolar>
-19.6244

> <Gold.PLP.part.repulsive>
0.2496

> <Gold.PLP.ligand.clash>
0.0000

> <Gold.PLP.ligand.torsion>
0.5703

> <Gold.PLP.Chemscore.Hbond>
4.0000

> <Gold.PLP.Chemscore.CHOScore>
0.0000

> <Gold.PLP.Chemscore.Metal>
0.0000

> <Gold.Chemscore.Hbonds>
donor molecule, donor type, donor heavy atom, donor atom, acceptor molecule, acceptor atom, score
      P1  H  6896  6908       L1    18  1.00
      P1  H  6931  6943       L1    16  1.70
      P1  H  6934  6947       L1    15  0.01
      P1  H 11000 11005       L1     4  1.00

> <Gold.PLP.Chemscore.Internal.Correction>
0.2002

> <Gold.Rescore>
     Score         DG    S(hbond)    S(metal)    S(lipo)     H(rot)  DE(clash)    DE(int)     intcor
      6.16     -10.56       2.75        0.00      36.43       3.27       0.00       4.40       ----

> <Gold.Chemscore.Fitness>
6.1579

> <Gold.Chemscore.DG>
-10.5637

> <Gold.Chemscore.ZeroCoef>
-5.4800

> <Gold.Chemscore.Hbond>
2.7500

> <Gold.Chemscore.Metal>
0.0000

> <Gold.Chemscore.Lipo>
36.4285

> <Gold.Chemscore.Internal_Hbond>
0.0000

> <Gold.Chemscore.DEClash>
0.0021

> <Gold.Chemscore.DEInternal>
4.4036

> <Gold.Chemscore.Rot>
3.2669

> <Gold.Chemscore.Internal.Correction>
   9.000000E+99

> <Gold.Chemscore.Hbonds>
donor molecule, donor type, donor heavy atom, donor atom, acceptor molecule, acceptor atom, score
      P1  H  6896  6908       L1    18  0.93
      P1  H  6931  6943       L1    16  0.14
      P1  H 11000 11005       L1     4  0.73

> <Gold.Chemscore.Hbond.Weighted>
-9.1849

> <Gold.Chemscore.Metal.Weighted>
-0.0000

> <Gold.Chemscore.Lipo.Weighted>
-4.2621

> <Gold.Chemscore.Internal_Hbond.Weighted>
0.0000

> <Gold.Chemscore.DEClash.Weighted>
0.0021

> <Gold.Chemscore.DEInternal.Weighted>
4.4036

> <Gold.Chemscore.Rot.Weighted>
8.3634

> <Gold.Chemscore.Internal.Correction.Weighted>
   9.000000E+99

> <Gold.Protein.RotatedTorsions>
[ 6907 6896 6895 6894 ] final  170.28 input  -60.11 | X-H torsion
[ 7974 7965 7964 7962 ] final -108.16 input  175.53 | X-H torsion
[ 8008 7997 7996 7995 ] final -113.58 input   59.86 | X-H torsion
[ 10167 10162 10161 10158 ] final   25.55 input  -65.29 | X-H torsion
[ 10718 10713 10712 10709 ] final -151.22 input   66.30 | X-H torsion
[ 10763 10752 10751 10750 ] final -146.09 input  -60.55 | X-H torsion
[ 11005 11000 10999 10996 ] final -102.55 input  -57.11 | X-H torsion

> <Gold.Protein.ActiveResidues>
 VAL166  LYS551  ARG553  GLY616  TRP617  ASP618  TYR619  PRO620  LYS621  CYS622 
 ASP623  PHE694  ASN695  SER759  ASP760  ASP761  ALA762  ILE779  LEU786  VAL792 
 PHE793  MET794  SER795  GLU796  ALA797  LYS798  CYS799  TRP800  GLU811  SER814 

> <Gold.Protein.RotatedAtoms>
  151.8186  133.3391  159.3576 H   0  0  0  0  0  0  0  0  0  0  0  0  # atno 6907 bound_to 6896
  150.7302  134.5595  159.5844 H   0  0  0  0  0  0  0  0  0  0  0  0  # atno 6908 bound_to 6896
  152.3022  134.7598  160.0406 H   0  0  0  0  0  0  0  0  0  0  0  0  # atno 6909 bound_to 6896
  145.1963  140.9037  143.3395 H   0  0  0  0  0  0  0  0  0  0  0  0  # atno 7974 bound_to 7965
  155.0230  140.0393  157.2445 H   0  0  0  0  0  0  0  0  0  0  0  0  # atno 8008 bound_to 7997
  154.7361  140.2740  155.6390 H   0  0  0  0  0  0  0  0  0  0  0  0  # atno 8009 bound_to 7997
  156.2853  140.2674  156.2076 H   0  0  0  0  0  0  0  0  0  0  0  0  # atno 8010 bound_to 7997
  140.5097  144.0181  150.6367 H   0  0  0  0  0  0  0  0  0  0  0  0  # atno 10167 bound_to 10162
  156.4563  130.8192  151.2423 H   0  0  0  0  0  0  0  0  0  0  0  0  # atno 10718 bound_to 10713
  154.8353  135.3396  154.6607 H   0  0  0  0  0  0  0  0  0  0  0  0  # atno 10763 bound_to 10752
  153.7222  135.6957  153.5014 H   0  0  0  0  0  0  0  0  0  0  0  0  # atno 10764 bound_to 10752
  153.2373  135.4396  155.0613 H   0  0  0  0  0  0  0  0  0  0  0  0  # atno 10765 bound_to 10752
  141.1184  133.8568  157.1374 H   0  0  0  0  0  0  0  0  0  0  0  0  # atno 11005 bound_to 11000
  144.9991  139.3615  143.6176 LP  0  0  0  0  0  0  0  0  0  0  0  0  # atno 17320 bound_to 7965
  146.3426  139.9207  142.8767 LP  0  0  0  0  0  0  0  0  0  0  0  0  # atno 17321 bound_to 7965
  140.3500  143.2969  152.0497 LP  0  0  0  0  0  0  0  0  0  0  0  0  # atno 17342 bound_to 10162
  139.4893  144.6381  151.6934 LP  0  0  0  0  0  0  0  0  0  0  0  0  # atno 17343 bound_to 10162
  157.7500  131.0121  150.3373 LP  0  0  0  0  0  0  0  0  0  0  0  0  # atno 17370 bound_to 10713
  156.3763  130.3872  149.7136 LP  0  0  0  0  0  0  0  0  0  0  0  0  # atno 17371 bound_to 10713
  140.0123  134.9983  157.0420 LP  0  0  0  0  0  0  0  0  0  0  0  0  # atno 17394 bound_to 11000
  140.4579  134.1515  155.7188 LP  0  0  0  0  0  0  0  0  0  0  0  0  # atno 17395 bound_to 11000

$$$$
