AV-unprocessed.smi:2061|AV-procd|sdf|8379|dock6
  -GOLD-   2272011 53D 1   1.00000     0.00000
 Structure written by MMmdl.
 44 45  0  0  0  0  0  0  0  0  2 V2000
  144.4886  132.4758  150.3908 C   0  0  0  0  0  0  0  0  0  0  0  0
  144.6766  133.8723  150.8767 C   0  0  0  0  0  0  0  0  0  0  0  0
  145.7362  134.7333  150.8363 C   0  0  0  0  0  0  0  0  0  0  0  0
  145.2311  135.9000  151.4728 C   0  0  0  0  0  0  0  0  0  0  0  0
  145.9112  137.0364  151.6893 N   0  5  0  0  0  0  0  0  0  0  0  0
  145.7218  137.7365  152.8317 C   0  0  0  0  0  0  0  0  0  0  0  0
  145.0772  137.3668  153.8155 O   0  0  0  0  0  0  0  0  0  0  0  0
  146.3095  138.9422  152.8258 N   0  0  0  0  0  0  0  0  0  0  0  0
  146.2883  139.9276  153.9059 C   0  0  0  0  0  0  0  0  0  0  0  0
  147.4667  140.9406  153.8316 C   0  0  1  0  0  0  0  0  0  0  0  0
  146.9308  142.3642  154.1305 C   0  0  0  0  0  0  0  0  0  0  0  0
  148.6138  140.5705  154.6958 N   0  0  0  0  0  0  0  0  0  0  0  0
  149.5009  141.7074  154.9695 C   0  0  0  0  0  0  0  0  0  0  0  0
  150.7175  141.3484  155.8459 C   0  0  1  0  0  0  0  0  0  0  0  0
  150.3581  141.1232  157.3248 C   0  0  0  0  0  0  0  0  0  0  0  0
  151.4178  140.2368  155.2927 O   0  0  0  0  0  0  0  0  0  0  0  0
  150.6095  139.0941  155.0352 C   0  0  2  0  0  0  0  0  0  0  0  0
  151.4949  138.0236  154.3883 C   0  0  0  0  0  0  0  0  0  0  0  0
  149.4278  139.4898  154.1316 C   0  0  0  0  0  0  0  0  0  0  0  0
  143.9816  135.7532  151.8802 N   0  0  0  0  0  0  0  0  0  0  0  0
  143.6163  134.4574  151.4961 O   0  0  0  0  0  0  0  0  0  0  0  0
  145.0520  131.7750  151.0067 H   0  0  0  0  0  0  0  0  0  0  0  0
  144.8344  132.3762  149.3619 H   0  0  0  0  0  0  0  0  0  0  0  0
  143.4381  132.1860  150.4227 H   0  0  0  0  0  0  0  0  0  0  0  0
  146.7151  134.5601  150.4151 H   0  0  0  0  0  0  0  0  0  0  0  0
  146.8218  139.1963  151.9942 H   0  0  0  0  0  0  0  0  0  0  0  0
  145.3372  140.4606  153.9498 H   0  0  0  0  0  0  0  0  0  0  0  0
  146.3422  139.3268  154.8114 H   0  0  0  0  0  0  0  0  0  0  0  0
  147.8141  140.9438  152.7973 H   0  0  0  0  0  0  0  0  0  0  0  0
  146.0722  142.6232  153.5129 H   0  0  0  0  0  0  0  0  0  0  0  0
  147.6655  143.1398  153.9219 H   0  0  0  0  0  0  0  0  0  0  0  0
  146.6245  142.4586  155.1728 H   0  0  0  0  0  0  0  0  0  0  0  0
  149.8567  142.1214  154.0247 H   0  0  0  0  0  0  0  0  0  0  0  0
  148.9647  142.5070  155.4768 H   0  0  0  0  0  0  0  0  0  0  0  0
  151.4106  142.1893  155.8141 H   0  0  0  0  0  0  0  0  0  0  0  0
  149.9451  142.0311  157.7648 H   0  0  0  0  0  0  0  0  0  0  0  0
  151.2408  140.8482  157.9022 H   0  0  0  0  0  0  0  0  0  0  0  0
  149.6157  140.3354  157.4513 H   0  0  0  0  0  0  0  0  0  0  0  0
  150.2294  138.6975  155.9770 H   0  0  0  0  0  0  0  0  0  0  0  0
  150.9264  137.1166  154.1810 H   0  0  0  0  0  0  0  0  0  0  0  0
  152.3225  137.7537  155.0449 H   0  0  0  0  0  0  0  0  0  0  0  0
  151.9176  138.3765  153.4471 H   0  0  0  0  0  0  0  0  0  0  0  0
  148.8305  138.5911  153.9937 H   0  0  0  0  0  0  0  0  0  0  0  0
  149.7970  139.7815  153.1473 H   0  0  0  0  0  0  0  0  0  0  0  0
  1  2  1  0  0  0  0
  1 22  1  0  0  0  0
  1 23  1  0  0  0  0
  1 24  1  0  0  0  0
  2 21  1  0  0  0  0
  2  3  2  0  0  0  0
  3  4  1  0  0  0  0
  3 25  1  0  0  0  0
  4  5  1  0  0  0  0
  4 20  2  0  0  0  0
  5  6  1  0  0  0  0
  6  7  2  0  0  0  0
  6  8  1  0  0  0  0
  8  9  1  0  0  0  0
  8 26  1  0  0  0  0
  9 10  1  0  0  0  0
  9 27  1  0  0  0  0
  9 28  1  0  0  0  0
 10 11  1  0  0  0  0
 10 12  1  0  0  0  0
 10 29  1  0  0  0  0
 11 30  1  0  0  0  0
 11 31  1  0  0  0  0
 11 32  1  0  0  0  0
 12 19  1  0  0  0  0
 12 13  1  0  0  0  0
 13 14  1  0  0  0  0
 13 33  1  0  0  0  0
 13 34  1  0  0  0  0
 14 15  1  0  0  0  0
 14 16  1  0  0  0  0
 14 35  1  0  0  0  0
 15 36  1  0  0  0  0
 15 37  1  0  0  0  0
 15 38  1  0  0  0  0
 16 17  1  0  0  0  0
 17 18  1  0  0  0  0
 17 19  1  0  0  0  0
 17 39  1  0  0  0  0
 18 40  1  0  0  0  0
 18 41  1  0  0  0  0
 18 42  1  0  0  0  0
 19 43  1  0  0  0  0
 19 44  1  0  0  0  0
 20 21  1  0  0  0  0
M  CHG  1   5  -1
M  END
> <s_m_source_file>
AV-unprocessed.smi

> <i_m_source_file_index>
2061

> <i_lp_mmshare_version>
43012

> <i_f3d_flags>
0

> <s_epik_input>
W0NIM11jMVtjSF1jKG5vMSlbTkhdQyg9TylbTkhdW0NIMl1bQ0BIXShbQ0gzXSlOMltDSDJdW0NAQEhdKFtDSDNdKU9bQ0BASF0oW0NIM10pW0NIMl0y

> <s_epik_cmdline>
J2VwaWtfcHl0aG9uJywgJy1waCcsICc3LjAnLCAnLXRuJywgJzgnLCAnLW1hJywgJzIwMCcsICctbWV0YWxfYmluZGluZycsICctaW1hZScsICc8aW5maWxlLm1hZT4nLCAnLW9tYWUnLCAnPG91dGZpbGUubWFlPic=

> <r_epik_Ionization_Penalty>
6.88367

> <r_epik_Ionization_Penalty_Charging>
6.57198

> <r_epik_Ionization_Penalty_Neutral>
0.311681

> <r_epik_State_Penalty>
6.77619

> <r_epik_Charging_Adjusted_Penalty>
13.3482

> <i_epik_Tot_Q>
-1

> <i_epik_Tot_abs_Q>
1

> <r_epik_Metal_State_Penalty>
2.70524

> <b_epik_Metal_Only>
1

> <s_lp_Force_Field>
OPLS_2005

> <r_lp_Energy>
24.642

> <b_lp_Chiralities_Consistent>
1

> <s_lp_Variant>
AV-unprocessed.smi:2061-20

> <Gold.Version>
5.8.1

> <Gold.Id.Protein>
6NUR|6NUR_protein|mol2

> <Gold.PLP.Fitness>
36.2629

> <Gold.PLP.PLP>
-35.9261

> <Gold.PLP.part.hbond>
-1.9696

> <Gold.PLP.part.metal>
0.0000

> <Gold.PLP.part.buried>
-3.7143

> <Gold.PLP.part.nonpolar>
-31.3914

> <Gold.PLP.part.repulsive>
0.9095

> <Gold.PLP.ligand.clash>
0.0000

> <Gold.PLP.ligand.torsion>
1.3760

> <Gold.PLP.Chemscore.Hbond>
0.9920

> <Gold.PLP.Chemscore.CHOScore>
0.0000

> <Gold.PLP.Chemscore.Metal>
0.0000

> <Gold.Chemscore.Hbonds>
donor molecule, donor type, donor heavy atom, donor atom, acceptor molecule, acceptor atom, score
      P1  H  7989  7998       L1    16  0.94

> <Gold.PLP.Chemscore.Internal.Correction>
0.1128

> <Gold.Rescore>
     Score         DG    S(hbond)    S(metal)    S(lipo)     H(rot)  DE(clash)    DE(int)     intcor
      8.35     -11.28       0.04        0.00      81.66       1.52       0.18       2.75       ----

> <Gold.Chemscore.Fitness>
8.3489

> <Gold.Chemscore.DG>
-11.2801

> <Gold.Chemscore.ZeroCoef>
-5.4800

> <Gold.Chemscore.Hbond>
0.0404

> <Gold.Chemscore.Metal>
0.0000

> <Gold.Chemscore.Lipo>
81.6568

> <Gold.Chemscore.Internal_Hbond>
0.0000

> <Gold.Chemscore.DEClash>
0.1785

> <Gold.Chemscore.DEInternal>
2.7527

> <Gold.Chemscore.Rot>
1.5190

> <Gold.Chemscore.Internal.Correction>
   9.000000E+99

> <Gold.Chemscore.Hbonds>
donor molecule, donor type, donor heavy atom, donor atom, acceptor molecule, acceptor atom, score
      P1  H  7989  7998       L1    16  0.05

> <Gold.Chemscore.Hbond.Weighted>
-0.1349

> <Gold.Chemscore.Metal.Weighted>
-0.0000

> <Gold.Chemscore.Lipo.Weighted>
-9.5538

> <Gold.Chemscore.Internal_Hbond.Weighted>
0.0000

> <Gold.Chemscore.DEClash.Weighted>
0.1785

> <Gold.Chemscore.DEInternal.Weighted>
2.7527

> <Gold.Chemscore.Rot.Weighted>
3.8886

> <Gold.Chemscore.Internal.Correction.Weighted>
   9.000000E+99

> <Gold.Protein.RotatedTorsions>
[ 6907 6896 6895 6894 ] final   59.23 input  -60.11 | X-H torsion
[ 7974 7965 7964 7962 ] final -133.60 input  175.53 | X-H torsion
[ 8008 7997 7996 7995 ] final  150.09 input   59.86 | X-H torsion
[ 10167 10162 10161 10158 ] final -142.08 input  -65.29 | X-H torsion
[ 10718 10713 10712 10709 ] final -116.76 input   66.30 | X-H torsion
[ 10763 10752 10751 10750 ] final   83.89 input  -60.55 | X-H torsion
[ 11005 11000 10999 10996 ] final -149.99 input  -57.11 | X-H torsion

> <Gold.Protein.ActiveResidues>
 VAL166  LYS551  ARG553  GLY616  TRP617  ASP618  TYR619  PRO620  LYS621  CYS622 
 ASP623  PHE694  ASN695  SER759  ASP760  ASP761  ALA762  ILE779  LEU786  VAL792 
 PHE793  MET794  SER795  GLU796  ALA797  LYS798  CYS799  TRP800  GLU811  SER814 

> <Gold.Protein.RotatedAtoms>
  152.3896  134.6462  160.0112 H   0  0  0  0  0  0  0  0  0  0  0  0  # atno 6907 bound_to 6896
  151.6700  133.3308  159.3202 H   0  0  0  0  0  0  0  0  0  0  0  0  # atno 6908 bound_to 6896
  150.7815  134.6807  159.6487 H   0  0  0  0  0  0  0  0  0  0  0  0  # atno 6909 bound_to 6896
  144.9179  140.6977  143.4984 H   0  0  0  0  0  0  0  0  0  0  0  0  # atno 7974 bound_to 7965
  156.2729  140.2084  156.5962 H   0  0  0  0  0  0  0  0  0  0  0  0  # atno 8008 bound_to 7997
  154.6943  140.0527  157.0418 H   0  0  0  0  0  0  0  0  0  0  0  0  # atno 8009 bound_to 7997
  155.0823  140.3188  155.4601 H   0  0  0  0  0  0  0  0  0  0  0  0  # atno 8010 bound_to 7997
  139.8123  143.7686  152.2664 H   0  0  0  0  0  0  0  0  0  0  0  0  # atno 10167 bound_to 10162
  156.0986  130.6153  150.9077 H   0  0  0  0  0  0  0  0  0  0  0  0  # atno 10718 bound_to 10713
  153.1332  135.4674  154.9381 H   0  0  0  0  0  0  0  0  0  0  0  0  # atno 10763 bound_to 10752
  154.7682  135.3151  154.8245 H   0  0  0  0  0  0  0  0  0  0  0  0  # atno 10764 bound_to 10752
  153.8783  135.6897  153.4823 H   0  0  0  0  0  0  0  0  0  0  0  0  # atno 10765 bound_to 10752
  140.7449  134.3472  157.5139 H   0  0  0  0  0  0  0  0  0  0  0  0  # atno 11005 bound_to 11000
  145.3346  139.1750  143.4519 LP  0  0  0  0  0  0  0  0  0  0  0  0  # atno 17320 bound_to 7965
  146.3190  140.3379  142.8645 LP  0  0  0  0  0  0  0  0  0  0  0  0  # atno 17321 bound_to 7965
  139.7839  144.7435  151.0050 LP  0  0  0  0  0  0  0  0  0  0  0  0  # atno 17342 bound_to 10162
  140.7817  143.4513  151.0409 LP  0  0  0  0  0  0  0  0  0  0  0  0  # atno 17343 bound_to 10162
  157.6151  131.0934  150.8724 LP  0  0  0  0  0  0  0  0  0  0  0  0  # atno 17370 bound_to 10713
  156.8857  130.5195  149.5288 LP  0  0  0  0  0  0  0  0  0  0  0  0  # atno 17371 bound_to 10713
  139.8798  134.9105  156.3015 LP  0  0  0  0  0  0  0  0  0  0  0  0  # atno 17394 bound_to 11000
  140.9803  133.7271  156.0662 LP  0  0  0  0  0  0  0  0  0  0  0  0  # atno 17395 bound_to 11000

$$$$
