AV-unprocessed.smi:2204|AV-procd|sdf|8939|dock5
  -GOLD-   2272012153D 1   1.00000     0.00000
 Structure written by MMmdl.
 39 40  0  0  0  0  0  0  0  0  1 V2000
  153.9296  141.3835  161.1927 C   0  0  0  0  0  0  0  0  0  0  0  0
  153.0877  142.4531  160.5624 C   0  0  0  0  0  0  0  0  0  0  0  0
  152.5204  143.6036  161.1772 C   0  0  0  0  0  0  0  0  0  0  0  0
  151.8354  144.2219  160.1696 C   0  0  0  0  0  0  0  0  0  0  0  0
  151.0115  145.4670  160.1924 C   0  0  0  0  0  0  0  0  0  0  0  0
  152.0160  143.4557  159.0309 N   0  0  0  0  0  0  0  0  0  0  0  0
  151.4757  143.6520  157.6908 C   0  0  0  0  0  0  0  0  0  0  0  0
  150.9871  142.3348  157.0795 C   0  0  0  0  0  0  0  0  0  0  0  0
  151.0215  141.2990  157.7428 O   0  0  0  0  0  0  0  0  0  0  0  0
  150.5218  142.3964  155.8219 N   0  0  0  0  0  0  0  0  0  0  0  0
  149.8410  141.3279  155.0970 C   0  0  2  0  0  0  0  0  0  0  0  0
  148.3553  141.2976  155.4830 C   0  0  0  0  0  0  0  0  0  0  0  0
  150.5462  139.9828  155.3682 C   0  0  1  0  0  0  0  0  0  0  0  0
  149.8601  138.7554  154.7523 C   0  0  0  0  0  0  0  0  0  0  0  0
  151.0279  137.8277  154.5083 C   0  0  0  0  0  0  0  0  0  0  0  0
  152.1090  138.8110  154.0781 C   0  0  0  0  0  0  0  0  0  0  0  0
  151.8756  139.9875  154.8449 O   0  0  0  0  0  0  0  0  0  0  0  0
  152.7882  142.3741  159.2766 N   0  0  0  0  0  0  0  0  0  0  0  0
  154.2808  141.6892  162.1784 H   0  0  0  0  0  0  0  0  0  0  0  0
  154.8058  141.1583  160.5840 H   0  0  0  0  0  0  0  0  0  0  0  0
  153.3606  140.4615  161.3147 H   0  0  0  0  0  0  0  0  0  0  0  0
  152.5946  143.9204  162.2070 H   0  0  0  0  0  0  0  0  0  0  0  0
  150.9816  145.8956  161.1946 H   0  0  0  0  0  0  0  0  0  0  0  0
  149.9856  145.2597  159.8868 H   0  0  0  0  0  0  0  0  0  0  0  0
  151.4235  146.2187  159.5189 H   0  0  0  0  0  0  0  0  0  0  0  0
  150.6516  144.3646  157.7266 H   0  0  0  0  0  0  0  0  0  0  0  0
  152.2495  144.0931  157.0604 H   0  0  0  0  0  0  0  0  0  0  0  0
  150.5516  143.2939  155.3602 H   0  0  0  0  0  0  0  0  0  0  0  0
  149.8981  141.5140  154.0233 H   0  0  0  0  0  0  0  0  0  0  0  0
  147.8261  140.5148  154.9392 H   0  0  0  0  0  0  0  0  0  0  0  0
  147.8706  142.2459  155.2488 H   0  0  0  0  0  0  0  0  0  0  0  0
  148.2231  141.1100  156.5492 H   0  0  0  0  0  0  0  0  0  0  0  0
  150.6285  139.8246  156.4445 H   0  0  0  0  0  0  0  0  0  0  0  0
  149.1013  138.3235  155.4051 H   0  0  0  0  0  0  0  0  0  0  0  0
  149.3852  138.9935  153.8002 H   0  0  0  0  0  0  0  0  0  0  0  0
  151.3158  137.3308  155.4356 H   0  0  0  0  0  0  0  0  0  0  0  0
  150.8211  137.0654  153.7567 H   0  0  0  0  0  0  0  0  0  0  0  0
  153.1161  138.4240  154.2333 H   0  0  0  0  0  0  0  0  0  0  0  0
  151.9990  139.0572  153.0218 H   0  0  0  0  0  0  0  0  0  0  0  0
  1  2  1  0  0  0  0
  1 19  1  0  0  0  0
  1 20  1  0  0  0  0
  1 21  1  0  0  0  0
  2 18  2  0  0  0  0
  2  3  1  0  0  0  0
  3  4  2  0  0  0  0
  3 22  1  0  0  0  0
  4  5  1  0  0  0  0
  4  6  1  0  0  0  0
  5 23  1  0  0  0  0
  5 24  1  0  0  0  0
  5 25  1  0  0  0  0
  6  7  1  0  0  0  0
  6 18  1  0  0  0  0
  7  8  1  0  0  0  0
  7 26  1  0  0  0  0
  7 27  1  0  0  0  0
  8  9  2  0  0  0  0
  8 10  1  0  0  0  0
 10 11  1  0  0  0  0
 10 28  1  0  0  0  0
 11 12  1  0  0  0  0
 11 13  1  0  0  0  0
 11 29  1  0  0  0  0
 12 30  1  0  0  0  0
 12 31  1  0  0  0  0
 12 32  1  0  0  0  0
 13 17  1  0  0  0  0
 13 14  1  0  0  0  0
 13 33  1  0  0  0  0
 14 15  1  0  0  0  0
 14 34  1  0  0  0  0
 14 35  1  0  0  0  0
 15 16  1  0  0  0  0
 15 36  1  0  0  0  0
 15 37  1  0  0  0  0
 16 17  1  0  0  0  0
 16 38  1  0  0  0  0
 16 39  1  0  0  0  0
M  END
> <s_m_source_file>
AV-unprocessed.smi

> <i_m_source_file_index>
2204

> <i_lp_mmshare_version>
43012

> <i_f3d_flags>
0

> <s_epik_input>
W0NIM11jMVtjSF1jKFtDSDNdKW4objEpW0NIMl1DKD1PKVtOSF1bQ0BIXShbQ0gzXSlbQ0BASF0yW0NIMl1bQ0gyXVtDSDJdTzI=

> <s_epik_cmdline>
J2VwaWtfcHl0aG9uJywgJy1waCcsICc3LjAnLCAnLXRuJywgJzgnLCAnLW1hJywgJzIwMCcsICctbWV0YWxfYmluZGluZycsICctaW1hZScsICc8aW5maWxlLm1hZT4nLCAnLW9tYWUnLCAnPG91dGZpbGUubWFlPic=

> <r_lp_tautomer_probability>
1

> <r_epik_Ionization_Penalty>
0.000433354

> <r_epik_Ionization_Penalty_Charging>
0

> <r_epik_Ionization_Penalty_Neutral>
0.000433354

> <r_epik_State_Penalty>
-0

> <r_epik_Charging_Adjusted_Penalty>
0

> <i_epik_Tot_Q>
0

> <i_epik_Tot_abs_Q>
0

> <r_epik_Metal_State_Penalty>
-0

> <b_epik_Metal_Only>
0

> <s_lp_Force_Field>
OPLS_2005

> <r_lp_Energy>
16.4317

> <b_lp_Chiralities_Consistent>
1

> <s_lp_Variant>
AV-unprocessed.smi:2204-3

> <Gold.Version>
5.8.1

> <Gold.Id.Protein>
6NUR|6NUR_protein|mol2

> <Gold.PLP.Fitness>
46.0347

> <Gold.PLP.PLP>
-44.3649

> <Gold.PLP.part.hbond>
-2.0000

> <Gold.PLP.part.metal>
0.0000

> <Gold.PLP.part.buried>
-5.6996

> <Gold.PLP.part.nonpolar>
-37.1820

> <Gold.PLP.part.repulsive>
0.2125

> <Gold.PLP.ligand.clash>
0.0000

> <Gold.PLP.ligand.torsion>
0.5778

> <Gold.PLP.Chemscore.Hbond>
0.9309

> <Gold.PLP.Chemscore.CHOScore>
0.0000

> <Gold.PLP.Chemscore.Metal>
0.0000

> <Gold.Chemscore.Hbonds>
donor molecule, donor type, donor heavy atom, donor atom, acceptor molecule, acceptor atom, score
      L1  H    10    28       P1  8028  0.23
      P1  H  7989  7998       L1    17  0.51

> <Gold.PLP.Chemscore.Internal.Correction>
0.0325

> <Gold.Rescore>
     Score         DG    S(hbond)    S(metal)    S(lipo)     H(rot)  DE(clash)    DE(int)     intcor
     12.16     -15.56       0.66        0.00     100.24       1.50       0.02       3.39       ----

> <Gold.Chemscore.Fitness>
12.1587

> <Gold.Chemscore.DG>
-15.5629

> <Gold.Chemscore.ZeroCoef>
-5.4800

> <Gold.Chemscore.Hbond>
0.6576

> <Gold.Chemscore.Metal>
0.0000

> <Gold.Chemscore.Lipo>
100.2360

> <Gold.Chemscore.Internal_Hbond>
0.0000

> <Gold.Chemscore.DEClash>
0.0170

> <Gold.Chemscore.DEInternal>
3.3872

> <Gold.Chemscore.Rot>
1.5005

> <Gold.Chemscore.Internal.Correction>
   9.000000E+99

> <Gold.Chemscore.Hbonds>
donor molecule, donor type, donor heavy atom, donor atom, acceptor molecule, acceptor atom, score
      L1  H    10    28       P1  8028  0.23
      P1  H  7989  7998       L1    17  0.01

> <Gold.Chemscore.Hbond.Weighted>
-2.1965

> <Gold.Chemscore.Metal.Weighted>
-0.0000

> <Gold.Chemscore.Lipo.Weighted>
-11.7276

> <Gold.Chemscore.Internal_Hbond.Weighted>
0.0000

> <Gold.Chemscore.DEClash.Weighted>
0.0170

> <Gold.Chemscore.DEInternal.Weighted>
3.3872

> <Gold.Chemscore.Rot.Weighted>
3.8412

> <Gold.Chemscore.Internal.Correction.Weighted>
   9.000000E+99

> <Gold.Protein.RotatedTorsions>
[ 6907 6896 6895 6894 ] final  -10.85 input  -60.11 | X-H torsion
[ 7974 7965 7964 7962 ] final -112.38 input  175.53 | X-H torsion
[ 8008 7997 7996 7995 ] final -113.50 input   59.86 | X-H torsion
[ 10167 10162 10161 10158 ] final   22.21 input  -65.29 | X-H torsion
[ 10718 10713 10712 10709 ] final -136.51 input   66.30 | X-H torsion
[ 10763 10752 10751 10750 ] final   79.23 input  -60.55 | X-H torsion
[ 11005 11000 10999 10996 ] final  156.04 input  -57.11 | X-H torsion

> <Gold.Protein.ActiveResidues>
 VAL166  LYS551  ARG553  GLY616  TRP617  ASP618  TYR619  PRO620  LYS621  CYS622 
 ASP623  PHE694  ASN695  SER759  ASP760  ASP761  ALA762  ILE779  LEU786  VAL792 
 PHE793  MET794  SER795  GLU796  ALA797  LYS798  CYS799  TRP800  GLU811  SER814 

> <Gold.Protein.RotatedAtoms>
  151.3954  135.0962  159.9538 H   0  0  0  0  0  0  0  0  0  0  0  0  # atno 6907 bound_to 6896
  152.5067  133.8939  159.7418 H   0  0  0  0  0  0  0  0  0  0  0  0  # atno 6908 bound_to 6896
  150.9402  133.6609  159.2821 H   0  0  0  0  0  0  0  0  0  0  0  0  # atno 6909 bound_to 6896
  145.1447  140.8797  143.3681 H   0  0  0  0  0  0  0  0  0  0  0  0  # atno 7974 bound_to 7965
  155.0218  140.0393  157.2440 H   0  0  0  0  0  0  0  0  0  0  0  0  # atno 8008 bound_to 7997
  154.7372  140.2742  155.6381 H   0  0  0  0  0  0  0  0  0  0  0  0  # atno 8009 bound_to 7997
  156.2855  140.2672  156.2088 H   0  0  0  0  0  0  0  0  0  0  0  0  # atno 8010 bound_to 7997
  140.5366  143.9750  150.6495 H   0  0  0  0  0  0  0  0  0  0  0  0  # atno 10167 bound_to 10162
  156.2779  130.7303  151.1291 H   0  0  0  0  0  0  0  0  0  0  0  0  # atno 10718 bound_to 10713
  153.0936  135.4847  154.8737 H   0  0  0  0  0  0  0  0  0  0  0  0  # atno 10763 bound_to 10752
  154.7298  135.3057  154.8912 H   0  0  0  0  0  0  0  0  0  0  0  0  # atno 10764 bound_to 10752
  153.9551  135.6819  153.4798 H   0  0  0  0  0  0  0  0  0  0  0  0  # atno 10765 bound_to 10752
  140.1638  134.8591  157.2607 H   0  0  0  0  0  0  0  0  0  0  0  0  # atno 11005 bound_to 11000
  145.0495  139.3193  143.5936 LP  0  0  0  0  0  0  0  0  0  0  0  0  # atno 17320 bound_to 7965
  146.3501  139.9897  142.8687 LP  0  0  0  0  0  0  0  0  0  0  0  0  # atno 17321 bound_to 7965
  140.3139  143.3180  152.0851 LP  0  0  0  0  0  0  0  0  0  0  0  0  # atno 17342 bound_to 10162
  139.4973  144.6618  151.6447 LP  0  0  0  0  0  0  0  0  0  0  0  0  # atno 17343 bound_to 10162
  157.7305  131.0616  150.5723 LP  0  0  0  0  0  0  0  0  0  0  0  0  # atno 17370 bound_to 10713
  156.5826  130.4308  149.5971 LP  0  0  0  0  0  0  0  0  0  0  0  0  # atno 17371 bound_to 10713
  140.2458  134.3741  155.7462 LP  0  0  0  0  0  0  0  0  0  0  0  0  # atno 17394 bound_to 11000
  141.2212  133.7290  156.8860 LP  0  0  0  0  0  0  0  0  0  0  0  0  # atno 17395 bound_to 11000

$$$$
