AV-unprocessed.smi:937|AV-procd|sdf|4212|dock6
  -GOLD-   22720 2123D 1   1.00000     0.00000
 Structure written by MMmdl.
 45 46  0  0  0  0  0  0  0  0  1 V2000
  145.7283  130.6460  151.3678 C   0  0  0  0  0  0  0  0  0  0  0  0
  145.3594  132.1102  151.4843 C   0  0  0  0  0  0  0  0  0  0  0  0
  144.0106  132.5230  151.4493 C   0  0  0  0  0  0  0  0  0  0  0  0
  143.7275  133.8984  151.5556 C   0  0  0  0  0  0  0  0  0  0  0  0
  144.7989  134.8047  151.6936 C   0  0  0  0  0  0  0  0  0  0  0  0
  144.5524  136.2966  151.8010 C   0  0  0  0  0  0  0  0  0  0  0  0
  145.8618  137.0962  151.8179 C   0  0  0  0  0  0  0  0  0  0  0  0
  145.6577  138.4026  152.4276 N   0  0  0  0  0  0  0  0  0  0  0  0
  146.5416  139.0145  153.2319 C   0  0  0  0  0  0  0  0  0  0  0  0
  147.6315  138.5308  153.5315 O   0  0  0  0  0  0  0  0  0  0  0  0
  146.1420  140.2081  153.7066 N   0  0  0  0  0  0  0  0  0  0  0  0
  146.8583  141.1255  154.5988 C   0  0  1  0  0  0  0  0  0  0  0  0
  147.1982  142.4597  153.8994 C   0  0  0  0  0  0  0  0  0  0  0  0
  145.9448  143.3084  153.6322 C   0  0  0  0  0  0  0  0  0  0  0  0
  145.1512  143.5526  154.9248 C   0  0  0  0  0  0  0  0  0  0  0  0
  144.7659  142.2281  155.6166 C   0  0  2  0  0  0  0  0  0  0  0  0
  143.9567  142.4648  156.9086 C   0  0  0  0  0  0  0  0  0  0  0  0
  144.6617  143.1790  157.7866 F   0  0  0  0  0  0  0  0  0  0  0  0
  142.8288  143.1177  156.6287 F   0  0  0  0  0  0  0  0  0  0  0  0
  143.6336  141.2967  157.4639 F   0  0  0  0  0  0  0  0  0  0  0  0
  146.0288  141.3736  155.8751 C   0  0  0  0  0  0  0  0  0  0  0  0
  146.1114  134.2876  151.7204 C   0  0  0  0  0  0  0  0  0  0  0  0
  146.3926  132.9708  151.6179 N   0  0  0  0  0  0  0  0  0  0  0  0
  144.8402  130.0193  151.2817 H   0  0  0  0  0  0  0  0  0  0  0  0
  146.2876  130.3238  152.2466 H   0  0  0  0  0  0  0  0  0  0  0  0
  146.3472  130.4810  150.4854 H   0  0  0  0  0  0  0  0  0  0  0  0
  143.2104  131.8055  151.3413 H   0  0  0  0  0  0  0  0  0  0  0  0
  142.7059  134.2483  151.5289 H   0  0  0  0  0  0  0  0  0  0  0  0
  143.9256  136.6183  150.9681 H   0  0  0  0  0  0  0  0  0  0  0  0
  143.9821  136.4925  152.7100 H   0  0  0  0  0  0  0  0  0  0  0  0
  146.6239  136.5454  152.3719 H   0  0  0  0  0  0  0  0  0  0  0  0
  146.2360  137.2323  150.8024 H   0  0  0  0  0  0  0  0  0  0  0  0
  144.7838  138.8698  152.2345 H   0  0  0  0  0  0  0  0  0  0  0  0
  145.2148  140.5033  153.4369 H   0  0  0  0  0  0  0  0  0  0  0  0
  147.7889  140.6454  154.9068 H   0  0  0  0  0  0  0  0  0  0  0  0
  147.8806  143.0279  154.5327 H   0  0  0  0  0  0  0  0  0  0  0  0
  147.7342  142.2849  152.9660 H   0  0  0  0  0  0  0  0  0  0  0  0
  146.2325  144.2626  153.1901 H   0  0  0  0  0  0  0  0  0  0  0  0
  145.3097  142.8105  152.8984 H   0  0  0  0  0  0  0  0  0  0  0  0
  145.7447  144.1658  155.6040 H   0  0  0  0  0  0  0  0  0  0  0  0
  144.2555  144.1297  154.6934 H   0  0  0  0  0  0  0  0  0  0  0  0
  144.1209  141.6753  154.9318 H   0  0  0  0  0  0  0  0  0  0  0  0
  145.7515  140.4185  156.3230 H   0  0  0  0  0  0  0  0  0  0  0  0
  146.6572  141.8776  156.6106 H   0  0  0  0  0  0  0  0  0  0  0  0
  146.9597  134.9483  151.8221 H   0  0  0  0  0  0  0  0  0  0  0  0
  1  2  1  0  0  0  0
  1 24  1  0  0  0  0
  1 25  1  0  0  0  0
  1 26  1  0  0  0  0
  2 23  1  0  0  0  0
  2  3  2  0  0  0  0
  3  4  1  0  0  0  0
  3 27  1  0  0  0  0
  4  5  2  0  0  0  0
  4 28  1  0  0  0  0
  5  6  1  0  0  0  0
  5 22  1  0  0  0  0
  6  7  1  0  0  0  0
  6 29  1  0  0  0  0
  6 30  1  0  0  0  0
  7  8  1  0  0  0  0
  7 31  1  0  0  0  0
  7 32  1  0  0  0  0
  8  9  1  0  0  0  0
  8 33  1  0  0  0  0
  9 10  2  0  0  0  0
  9 11  1  0  0  0  0
 11 12  1  0  0  0  0
 11 34  1  0  0  0  0
 12 21  1  0  0  0  0
 12 13  1  0  0  0  0
 12 35  1  0  0  0  0
 13 14  1  0  0  0  0
 13 36  1  0  0  0  0
 13 37  1  0  0  0  0
 14 15  1  0  0  0  0
 14 38  1  0  0  0  0
 14 39  1  0  0  0  0
 15 16  1  0  0  0  0
 15 40  1  0  0  0  0
 15 41  1  0  0  0  0
 16 17  1  0  0  0  0
 16 21  1  0  0  0  0
 16 42  1  0  0  0  0
 17 18  1  0  0  0  0
 17 19  1  0  0  0  0
 17 20  1  0  0  0  0
 21 43  1  0  0  0  0
 21 44  1  0  0  0  0
 22 23  2  0  0  0  0
 22 45  1  0  0  0  0
M  END
> <s_m_source_file>
AV-unprocessed.smi

> <i_m_source_file_index>
937

> <i_lp_mmshare_version>
43012

> <i_f3d_flags>
0

> <s_epik_input>
W0NIM11jMVtjSF1bY0hdYyhbY0hdbjEpW0NIMl1bQ0gyXVtOSF1DKD1PKVtOSF1bQ0BASF0yW0NIMl1bQ0gyXVtDSDJdW0NAQEhdKEMoRikoRilGKVtDSDJdMg==

> <s_epik_cmdline>
J2VwaWtfcHl0aG9uJywgJy1waCcsICc3LjAnLCAnLXRuJywgJzgnLCAnLW1hJywgJzIwMCcsICctbWV0YWxfYmluZGluZycsICctaW1hZScsICc8aW5maWxlLm1hZT4nLCAnLW9tYWUnLCAnPG91dGZpbGUubWFlPic=

> <r_epik_Ionization_Penalty>
0.0563445

> <r_epik_Ionization_Penalty_Charging>
0

> <r_epik_Ionization_Penalty_Neutral>
0.0563445

> <r_epik_State_Penalty>
0.0485409

> <r_epik_Charging_Adjusted_Penalty>
0.0485409

> <i_epik_Tot_Q>
0

> <i_epik_Tot_abs_Q>
0

> <r_epik_Metal_State_Penalty>
0.0443056

> <b_epik_Metal_Only>
0

> <s_lp_Force_Field>
OPLS_2005

> <r_lp_Energy>
18.524

> <b_lp_Chiralities_Consistent>
1

> <s_lp_Variant>
AV-unprocessed.smi:937-4

> <Gold.Version>
5.8.1

> <Gold.Id.Protein>
6NUR|6NUR_protein|mol2

> <Gold.PLP.Fitness>
43.2247

> <Gold.PLP.PLP>
-34.8867

> <Gold.PLP.part.hbond>
-2.5217

> <Gold.PLP.part.metal>
0.0000

> <Gold.PLP.part.buried>
-4.3656

> <Gold.PLP.part.nonpolar>
-28.9785

> <Gold.PLP.part.repulsive>
0.4629

> <Gold.PLP.ligand.clash>
0.0000

> <Gold.PLP.ligand.torsion>
0.3188

> <Gold.PLP.Chemscore.Hbond>
1.9760

> <Gold.PLP.Chemscore.CHOScore>
1.0000

> <Gold.PLP.Chemscore.Metal>
0.0000

> <Gold.Chemscore.Hbonds>
donor molecule, donor type, donor heavy atom, donor atom, acceptor molecule, acceptor atom, score
      L1  H     8    33       P1 10175  0.98
      L1  H    11    34       P1 10175  1.00
      L1  C    22    45       P1  7948  1.00

> <Gold.PLP.Chemscore.Internal.Correction>
0.0476

> <Gold.Rescore>
     Score         DG    S(hbond)    S(metal)    S(lipo)     H(rot)  DE(clash)    DE(int)     intcor
     16.75     -17.62       1.90        0.00      84.11       1.58       0.59       0.29       ----

> <Gold.Chemscore.Fitness>
16.7479

> <Gold.Chemscore.DG>
-17.6242

> <Gold.Chemscore.ZeroCoef>
-5.4800

> <Gold.Chemscore.Hbond>
1.9042

> <Gold.Chemscore.Metal>
0.0000

> <Gold.Chemscore.Lipo>
84.1149

> <Gold.Chemscore.Internal_Hbond>
0.0000

> <Gold.Chemscore.DEClash>
0.5909

> <Gold.Chemscore.DEInternal>
0.2854

> <Gold.Chemscore.Rot>
1.5849

> <Gold.Chemscore.Internal.Correction>
   9.000000E+99

> <Gold.Chemscore.Hbonds>
donor molecule, donor type, donor heavy atom, donor atom, acceptor molecule, acceptor atom, score
      L1  H     8    33       P1 10175  0.93
      L1  H    11    34       P1 10175  0.97

> <Gold.Chemscore.Hbond.Weighted>
-6.3602

> <Gold.Chemscore.Metal.Weighted>
-0.0000

> <Gold.Chemscore.Lipo.Weighted>
-9.8414

> <Gold.Chemscore.Internal_Hbond.Weighted>
0.0000

> <Gold.Chemscore.DEClash.Weighted>
0.5909

> <Gold.Chemscore.DEInternal.Weighted>
0.2854

> <Gold.Chemscore.Rot.Weighted>
4.0574

> <Gold.Chemscore.Internal.Correction.Weighted>
   9.000000E+99

> <Gold.Protein.RotatedTorsions>
[ 6907 6896 6895 6894 ] final  143.08 input  -60.11 | X-H torsion
[ 7974 7965 7964 7962 ] final  -69.33 input  175.53 | X-H torsion
[ 8008 7997 7996 7995 ] final    5.83 input   59.86 | X-H torsion
[ 10167 10162 10161 10158 ] final -152.38 input  -65.29 | X-H torsion
[ 10718 10713 10712 10709 ] final -142.12 input   66.30 | X-H torsion
[ 10763 10752 10751 10750 ] final   56.71 input  -60.55 | X-H torsion
[ 11005 11000 10999 10996 ] final  141.61 input  -57.11 | X-H torsion

> <Gold.Protein.ActiveResidues>
 VAL166  LYS551  ARG553  GLY616  TRP617  ASP618  TYR619  PRO620  LYS621  CYS622 
 ASP623  PHE694  ASN695  SER759  ASP760  ASP761  ALA762  ILE779  LEU786  VAL792 
 PHE793  MET794  SER795  GLU796  ALA797  LYS798  CYS799  TRP800  GLU811  SER814 

> <Gold.Protein.RotatedAtoms>
  152.2108  133.4910  159.5108 H   0  0  0  0  0  0  0  0  0  0  0  0  # atno 6907 bound_to 6896
  150.6990  134.1469  159.4135 H   0  0  0  0  0  0  0  0  0  0  0  0  # atno 6908 bound_to 6896
  151.9389  135.0222  160.0585 H   0  0  0  0  0  0  0  0  0  0  0  0  # atno 6909 bound_to 6896
  145.7051  140.9101  143.0710 H   0  0  0  0  0  0  0  0  0  0  0  0  # atno 7974 bound_to 7965
  154.7333  140.2734  155.6437 H   0  0  0  0  0  0  0  0  0  0  0  0  # atno 8008 bound_to 7997
  156.2855  140.2711  156.1964 H   0  0  0  0  0  0  0  0  0  0  0  0  # atno 8009 bound_to 7997
  155.0354  140.0371  157.2479 H   0  0  0  0  0  0  0  0  0  0  0  0  # atno 8010 bound_to 7997
  139.7186  143.8993  152.2495 H   0  0  0  0  0  0  0  0  0  0  0  0  # atno 10167 bound_to 10162
  156.3422  130.7643  151.1781 H   0  0  0  0  0  0  0  0  0  0  0  0  # atno 10718 bound_to 10713
  152.9837  135.5667  154.5274 H   0  0  0  0  0  0  0  0  0  0  0  0  # atno 10763 bound_to 10752
  154.4751  135.2786  155.1615 H   0  0  0  0  0  0  0  0  0  0  0  0  # atno 10764 bound_to 10752
  154.3147  135.6281  153.5534 H   0  0  0  0  0  0  0  0  0  0  0  0  # atno 10765 bound_to 10752
  140.0414  134.9303  157.0850 H   0  0  0  0  0  0  0  0  0  0  0  0  # atno 11005 bound_to 11000
  144.6957  139.8999  143.7458 LP  0  0  0  0  0  0  0  0  0  0  0  0  # atno 17320 bound_to 7965
  146.0763  139.3751  143.0492 LP  0  0  0  0  0  0  0  0  0  0  0  0  # atno 17321 bound_to 7965
  139.8882  144.6980  150.8800 LP  0  0  0  0  0  0  0  0  0  0  0  0  # atno 17342 bound_to 10162
  140.7749  143.3607  151.1834 LP  0  0  0  0  0  0  0  0  0  0  0  0  # atno 17343 bound_to 10162
  157.7448  131.0451  150.4828 LP  0  0  0  0  0  0  0  0  0  0  0  0  # atno 17370 bound_to 10713
  156.5010  130.4117  149.6353 LP  0  0  0  0  0  0  0  0  0  0  0  0  # atno 17371 bound_to 10713
  140.4063  134.2029  155.7163 LP  0  0  0  0  0  0  0  0  0  0  0  0  # atno 17394 bound_to 11000
  141.1885  133.8259  157.0993 LP  0  0  0  0  0  0  0  0  0  0  0  0  # atno 17395 bound_to 11000

$$$$
