AV-unprocessed.smi:3349|AV-procd|sdf|12934|dock3
  -GOLD-   2272019363D 1   1.00000     0.00000
 Structure written by MMmdl.
 40 41  0  0  0  0  0  0  0  0  1 V2000
  152.0159  143.9316  158.2278 C   0  0  0  0  0  0  0  0  0  0  0  0
  151.2977  142.6741  158.7820 C   0  0  1  0  0  0  0  0  0  0  0  0
  151.2392  141.5935  157.6667 C   0  0  0  0  0  0  0  0  0  0  0  0
  149.9517  141.5619  156.9823 N   0  0  0  0  0  0  0  0  0  0  0  0
  149.7446  141.0194  155.7735 C   0  0  0  0  0  0  0  0  0  0  0  0
  150.6335  140.4675  155.1236 O   0  0  0  0  0  0  0  0  0  0  0  0
  148.3139  141.1164  155.2217 C   0  0  1  0  0  0  0  0  0  0  0  0
  148.2311  141.9524  153.9313 C   0  0  0  0  0  0  0  0  0  0  0  0
  147.7558  139.7872  155.0169 N   0  0  0  0  0  0  0  0  0  0  0  0
  148.0915  138.8169  154.1616 C   0  0  0  0  0  0  0  0  0  0  0  0
  147.3355  137.7321  154.2565 N   0  0  0  0  0  0  0  0  0  0  0  0
  146.4914  138.1294  155.2545 C   0  0  0  0  0  0  0  0  0  0  0  0
  146.6975  139.3528  155.7424 N   0  0  0  0  0  0  0  0  0  0  0  0
  151.9027  142.1793  160.0410 N   0  0  0  0  0  0  0  0  0  0  0  0
  152.2449  143.2604  160.9727 C   0  0  0  0  0  0  0  0  0  0  0  0
  152.8965  142.7485  162.2694 C   0  0  0  0  0  0  0  0  0  0  0  0
  154.0543  141.9865  161.9567 O   0  0  0  0  0  0  0  0  0  0  0  0
  153.7531  140.8800  161.1179 C   0  0  0  0  0  0  0  0  0  0  0  0
  153.1125  141.3806  159.8118 C   0  0  0  0  0  0  0  0  0  0  0  0
  151.6004  144.2677  157.2784 H   0  0  0  0  0  0  0  0  0  0  0  0
  153.0779  143.7406  158.0702 H   0  0  0  0  0  0  0  0  0  0  0  0
  151.9223  144.7887  158.8930 H   0  0  0  0  0  0  0  0  0  0  0  0
  150.2681  142.9654  158.9963 H   0  0  0  0  0  0  0  0  0  0  0  0
  152.0362  141.7655  156.9411 H   0  0  0  0  0  0  0  0  0  0  0  0
  151.3835  140.5934  158.0732 H   0  0  0  0  0  0  0  0  0  0  0  0
  149.1692  141.9909  157.4551 H   0  0  0  0  0  0  0  0  0  0  0  0
  147.7096  141.6237  155.9767 H   0  0  0  0  0  0  0  0  0  0  0  0
  148.6521  142.9478  154.0768 H   0  0  0  0  0  0  0  0  0  0  0  0
  147.1946  142.0792  153.6178 H   0  0  0  0  0  0  0  0  0  0  0  0
  148.7681  141.4804  153.1077 H   0  0  0  0  0  0  0  0  0  0  0  0
  148.9043  138.9069  153.4553 H   0  0  0  0  0  0  0  0  0  0  0  0
  145.6996  137.4990  155.6318 H   0  0  0  0  0  0  0  0  0  0  0  0
  152.9153  143.9703  160.4861 H   0  0  0  0  0  0  0  0  0  0  0  0
  151.3550  143.8135  161.2661 H   0  0  0  0  0  0  0  0  0  0  0  0
  153.1840  143.5865  162.9047 H   0  0  0  0  0  0  0  0  0  0  0  0
  152.1935  142.1402  162.8408 H   0  0  0  0  0  0  0  0  0  0  0  0
  154.6728  140.3352  160.9038 H   0  0  0  0  0  0  0  0  0  0  0  0
  153.0854  140.1901  161.6366 H   0  0  0  0  0  0  0  0  0  0  0  0
  152.8852  140.5007  159.2127 H   0  0  0  0  0  0  0  0  0  0  0  0
  153.8426  141.9668  159.2518 H   0  0  0  0  0  0  0  0  0  0  0  0
  1  2  1  0  0  0  0
  1 20  1  0  0  0  0
  1 21  1  0  0  0  0
  1 22  1  0  0  0  0
  2  3  1  0  0  0  0
  2 14  1  0  0  0  0
  2 23  1  0  0  0  0
  3  4  1  0  0  0  0
  3 24  1  0  0  0  0
  3 25  1  0  0  0  0
  4  5  1  0  0  0  0
  4 26  1  0  0  0  0
  5  6  2  0  0  0  0
  5  7  1  0  0  0  0
  7  8  1  0  0  0  0
  7  9  1  0  0  0  0
  7 27  1  0  0  0  0
  8 28  1  0  0  0  0
  8 29  1  0  0  0  0
  8 30  1  0  0  0  0
  9 13  1  0  0  0  0
  9 10  1  0  0  0  0
 10 11  2  0  0  0  0
 10 31  1  0  0  0  0
 11 12  1  0  0  0  0
 12 13  2  0  0  0  0
 12 32  1  0  0  0  0
 14 19  1  0  0  0  0
 14 15  1  0  0  0  0
 15 16  1  0  0  0  0
 15 33  1  0  0  0  0
 15 34  1  0  0  0  0
 16 17  1  0  0  0  0
 16 35  1  0  0  0  0
 16 36  1  0  0  0  0
 17 18  1  0  0  0  0
 18 19  1  0  0  0  0
 18 37  1  0  0  0  0
 18 38  1  0  0  0  0
 19 39  1  0  0  0  0
 19 40  1  0  0  0  0
M  END
> <s_m_source_file>
AV-unprocessed.smi

> <i_m_source_file_index>
3349

> <i_lp_mmshare_version>
43012

> <i_f3d_flags>
0

> <s_epik_input>
W0NIMl0xW0NIMl1PW0NIMl1bQ0gyXU4xW0NASF0oW0NIM10pW0NIMl1bTkhdQyg9TylbQ0BIXShbQ0gzXSluMltjSF1uW2NIXW4y

> <s_epik_cmdline>
J2VwaWtfcHl0aG9uJywgJy1waCcsICc3LjAnLCAnLXRuJywgJzgnLCAnLW1hJywgJzIwMCcsICctbWV0YWxfYmluZGluZycsICctaW1hZScsICc8aW5maWxlLm1hZT4nLCAnLW9tYWUnLCAnPG91dGZpbGUubWFlPic=

> <r_lp_tautomer_probability>
1

> <r_epik_Ionization_Penalty>
0.211373

> <r_epik_Ionization_Penalty_Charging>
0

> <r_epik_Ionization_Penalty_Neutral>
0.211373

> <r_epik_State_Penalty>
0.201459

> <r_epik_Charging_Adjusted_Penalty>
0.201459

> <i_epik_Tot_Q>
0

> <i_epik_Tot_abs_Q>
0

> <r_epik_Metal_State_Penalty>
0.201458

> <b_epik_Metal_Only>
0

> <s_lp_Force_Field>
OPLS_2005

> <r_lp_Energy>
35.0343

> <b_lp_Chiralities_Consistent>
1

> <s_lp_Variant>
AV-unprocessed.smi:3349-4

> <Gold.Version>
5.8.1

> <Gold.Id.Protein>
6NUR|6NUR_protein|mol2

> <Gold.PLP.Fitness>
37.6259

> <Gold.PLP.PLP>
-33.6659

> <Gold.PLP.part.hbond>
-2.1632

> <Gold.PLP.part.metal>
0.0000

> <Gold.PLP.part.buried>
-2.7926

> <Gold.PLP.part.nonpolar>
-28.5507

> <Gold.PLP.part.repulsive>
0.2786

> <Gold.PLP.ligand.clash>
0.0000

> <Gold.PLP.ligand.torsion>
1.0558

> <Gold.PLP.Chemscore.Hbond>
0.9920

> <Gold.PLP.Chemscore.CHOScore>
1.0000

> <Gold.PLP.Chemscore.Metal>
0.0000

> <Gold.Chemscore.Hbonds>
donor molecule, donor type, donor heavy atom, donor atom, acceptor molecule, acceptor atom, score
      P1  H  7989  7998       L1     6  1.00
      L1  C    10    31       P1  7957  0.70

> <Gold.PLP.Chemscore.Internal.Correction>
0.0956

> <Gold.Rescore>
     Score         DG    S(hbond)    S(metal)    S(lipo)     H(rot)  DE(clash)    DE(int)     intcor
     10.86     -11.99       0.96        0.00      84.29       2.56       0.03       1.11       ----

> <Gold.Chemscore.Fitness>
10.8552

> <Gold.Chemscore.DG>
-11.9949

> <Gold.Chemscore.ZeroCoef>
-5.4800

> <Gold.Chemscore.Hbond>
0.9576

> <Gold.Chemscore.Metal>
0.0000

> <Gold.Chemscore.Lipo>
84.2946

> <Gold.Chemscore.Internal_Hbond>
0.0000

> <Gold.Chemscore.DEClash>
0.0344

> <Gold.Chemscore.DEInternal>
1.1053

> <Gold.Chemscore.Rot>
2.5570

> <Gold.Chemscore.Internal.Correction>
   9.000000E+99

> <Gold.Chemscore.Hbonds>
donor molecule, donor type, donor heavy atom, donor atom, acceptor molecule, acceptor atom, score
      P1  H  7989  7998       L1     6  0.94

> <Gold.Chemscore.Hbond.Weighted>
-3.1983

> <Gold.Chemscore.Metal.Weighted>
-0.0000

> <Gold.Chemscore.Lipo.Weighted>
-9.8625

> <Gold.Chemscore.Internal_Hbond.Weighted>
0.0000

> <Gold.Chemscore.DEClash.Weighted>
0.0344

> <Gold.Chemscore.DEInternal.Weighted>
1.1053

> <Gold.Chemscore.Rot.Weighted>
6.5459

> <Gold.Chemscore.Internal.Correction.Weighted>
   9.000000E+99

> <Gold.Protein.RotatedTorsions>
[ 6907 6896 6895 6894 ] final   51.23 input  -60.11 | X-H torsion
[ 7974 7965 7964 7962 ] final   76.10 input  175.53 | X-H torsion
[ 8008 7997 7996 7995 ] final  -19.27 input   59.86 | X-H torsion
[ 10167 10162 10161 10158 ] final   47.44 input  -65.29 | X-H torsion
[ 10718 10713 10712 10709 ] final -121.66 input   66.30 | X-H torsion
[ 10763 10752 10751 10750 ] final  -37.70 input  -60.55 | X-H torsion
[ 11005 11000 10999 10996 ] final   -0.80 input  -57.11 | X-H torsion

> <Gold.Protein.ActiveResidues>
 VAL166  LYS551  ARG553  GLY616  TRP617  ASP618  TYR619  PRO620  LYS621  CYS622 
 ASP623  PHE694  ASN695  SER759  ASP760  ASP761  ALA762  ILE779  LEU786  VAL792 
 PHE793  MET794  SER795  GLU796  ALA797  LYS798  CYS799  TRP800  GLU811  SER814 

> <Gold.Protein.RotatedAtoms>
  152.3104  134.7504  160.0337 H   0  0  0  0  0  0  0  0  0  0  0  0  # atno 6907 bound_to 6896
  151.7987  133.3362  159.3528 H   0  0  0  0  0  0  0  0  0  0  0  0  # atno 6908 bound_to 6896
  150.7317  134.5704  159.5932 H   0  0  0  0  0  0  0  0  0  0  0  0  # atno 6909 bound_to 6896
  145.7071  139.2602  143.1672 H   0  0  0  0  0  0  0  0  0  0  0  0  # atno 7974 bound_to 7965
  154.4848  140.2093  155.9681 H   0  0  0  0  0  0  0  0  0  0  0  0  # atno 8008 bound_to 7997
  156.1219  140.3212  155.8190 H   0  0  0  0  0  0  0  0  0  0  0  0  # atno 8009 bound_to 7997
  155.4452  140.0513  157.2997 H   0  0  0  0  0  0  0  0  0  0  0  0  # atno 8010 bound_to 7997
  140.3036  144.2904  150.6214 H   0  0  0  0  0  0  0  0  0  0  0  0  # atno 10167 bound_to 10162
  156.1355  130.6427  150.9689 H   0  0  0  0  0  0  0  0  0  0  0  0  # atno 10718 bound_to 10713
  153.9006  135.6803  153.4755 H   0  0  0  0  0  0  0  0  0  0  0  0  # atno 10763 bound_to 10752
  153.1131  135.4774  154.9067 H   0  0  0  0  0  0  0  0  0  0  0  0  # atno 10764 bound_to 10752
  154.7577  135.3202  154.8392 H   0  0  0  0  0  0  0  0  0  0  0  0  # atno 10765 bound_to 10752
  140.6403  133.9495  155.8322 H   0  0  0  0  0  0  0  0  0  0  0  0  # atno 11005 bound_to 11000
  146.0745  140.7832  142.9671 LP  0  0  0  0  0  0  0  0  0  0  0  0  # atno 17320 bound_to 7965
  144.6952  140.3394  143.7202 LP  0  0  0  0  0  0  0  0  0  0  0  0  # atno 17321 bound_to 7965
  140.5629  143.2190  151.7734 LP  0  0  0  0  0  0  0  0  0  0  0  0  # atno 17342 bound_to 10162
  139.4909  144.4323  151.9858 LP  0  0  0  0  0  0  0  0  0  0  0  0  # atno 17343 bound_to 10162
  157.6528  131.0894  150.8013 LP  0  0  0  0  0  0  0  0  0  0  0  0  # atno 17370 bound_to 10713
  156.8094  130.4947  149.5358 LP  0  0  0  0  0  0  0  0  0  0  0  0  # atno 17371 bound_to 10713
  141.0611  134.0344  157.3656 LP  0  0  0  0  0  0  0  0  0  0  0  0  # atno 17394 bound_to 11000
  139.9083  135.0184  156.7581 LP  0  0  0  0  0  0  0  0  0  0  0  0  # atno 17395 bound_to 11000

$$$$
