AV-unprocessed.smi:21|AV-procd|sdf|142|dock1
  -GOLD-   2262015343D 1   1.00000     0.00000
 Structure written by MMmdl.
 62 65  0  0  0  0  0  0  0  0  2 V2000
  145.9218  133.7758  152.0466 C   0  0  0  0  0  0  0  0  0  0  0  0
  146.4834  132.5305  151.6624 O   0  0  0  0  0  0  0  0  0  0  0  0
  145.8309  131.4048  152.2359 C   0  0  2  0  0  0  0  0  0  0  0  0
  146.4405  131.1273  153.6034 C   0  0  0  0  0  0  0  0  0  0  0  0
  147.7223  130.3480  153.2846 C   0  0  1  0  0  0  0  0  0  0  0  0
  148.2616  129.5039  154.4656 C   0  0  0  0  0  0  0  0  0  0  0  0
  149.6495  129.8299  154.7996 N   0  0  0  0  0  0  0  0  0  0  0  0
  150.7074  129.2977  153.9502 C   0  0  0  0  0  0  0  0  0  0  0  0
  149.9155  130.8694  155.6388 C   0  0  0  0  0  0  0  0  0  0  0  0
  150.4439  130.5862  156.8590 N   0  0  0  0  0  0  0  0  0  0  0  0
  150.7278  131.5624  157.7246 C   0  0  0  0  0  0  0  0  0  0  0  0
  150.5611  132.8767  157.5807 N   0  0  0  0  0  0  0  0  0  0  0  0
  150.0254  133.1763  156.3638 C   0  0  0  0  0  0  0  0  0  0  0  0
  149.6756  132.2463  155.3412 C   0  0  0  0  0  0  0  0  0  0  0  0
  149.1430  132.9344  154.2552 N   0  0  0  0  0  0  0  0  0  0  0  0
  149.1855  134.1889  154.6089 C   0  0  0  0  0  0  0  0  0  0  0  0
  149.7093  134.4250  155.8577 N   0  0  0  0  0  0  0  0  0  0  0  0
  149.8724  135.7211  156.4940 C   0  0  0  0  0  0  0  0  0  0  0  0
  151.1852  136.4369  156.0915 C   0  0  1  0  0  0  0  0  0  0  0  0
  150.9885  137.2291  154.7779 C   0  0  0  0  0  0  0  0  0  0  0  0
  152.1586  137.1784  153.9882 O   0  0  0  0  0  0  0  0  0  0  0  0
  151.7782  137.2886  157.2494 C   0  0  2  0  0  0  0  0  0  0  0  0
  150.9333  138.4678  157.7157 C   0  0  0  0  0  0  0  0  0  0  0  0
  151.9839  139.3949  158.3087 C   0  0  0  0  0  0  0  0  0  0  0  0
  153.0566  139.2796  157.3882 O   0  0  0  0  0  0  0  0  0  0  0  0
  153.1545  137.9204  156.9746 C   0  0  0  0  0  0  0  0  0  0  0  0
  147.4309  129.5992  152.0278 N   0  3  1  0  0  0  0  0  0  0  0  0
  147.4704  128.1185  152.0875 C   0  0  0  0  0  0  0  0  0  0  0  0
  146.1616  130.1212  151.4660 C   0  0  0  0  0  0  0  0  0  0  0  0
  144.7567  131.5804  152.3163 H   0  0  0  0  0  0  0  0  0  0  0  0
  148.4883  131.0737  153.0074 H   0  0  0  0  0  0  0  0  0  0  0  0
  146.4778  134.5857  151.5746 H   0  0  0  0  0  0  0  0  0  0  0  0
  145.9800  133.9175  153.1265 H   0  0  0  0  0  0  0  0  0  0  0  0
  144.8799  133.8641  151.7393 H   0  0  0  0  0  0  0  0  0  0  0  0
  146.6249  132.0365  154.1770 H   0  0  0  0  0  0  0  0  0  0  0  0
  145.7594  130.5018  154.1822 H   0  0  0  0  0  0  0  0  0  0  0  0
  147.6101  129.5977  155.3340 H   0  0  0  0  0  0  0  0  0  0  0  0
  148.2414  128.4475  154.1968 H   0  0  0  0  0  0  0  0  0  0  0  0
  151.6322  129.1672  154.5131 H   0  0  0  0  0  0  0  0  0  0  0  0
  150.8973  129.9634  153.1078 H   0  0  0  0  0  0  0  0  0  0  0  0
  150.4261  128.3232  153.5506 H   0  0  0  0  0  0  0  0  0  0  0  0
  151.1498  131.2454  158.6669 H   0  0  0  0  0  0  0  0  0  0  0  0
  148.8369  134.9828  153.9640 H   0  0  0  0  0  0  0  0  0  0  0  0
  149.0081  136.3290  156.2245 H   0  0  0  0  0  0  0  0  0  0  0  0
  149.8294  135.5920  157.5758 H   0  0  0  0  0  0  0  0  0  0  0  0
  151.9246  135.6606  155.8864 H   0  0  0  0  0  0  0  0  0  0  0  0
  150.1575  136.8288  154.1970 H   0  0  0  0  0  0  0  0  0  0  0  0
  150.7661  138.2779  154.9691 H   0  0  0  0  0  0  0  0  0  0  0  0
  151.9060  137.1243  153.0791 H   0  0  0  0  0  0  0  0  0  0  0  0
  151.9265  136.6433  158.1158 H   0  0  0  0  0  0  0  0  0  0  0  0
  150.4453  138.9695  156.8810 H   0  0  0  0  0  0  0  0  0  0  0  0
  150.1656  138.1855  158.4360 H   0  0  0  0  0  0  0  0  0  0  0  0
  151.6378  140.4247  158.3990 H   0  0  0  0  0  0  0  0  0  0  0  0
  152.3033  139.0470  159.2927 H   0  0  0  0  0  0  0  0  0  0  0  0
  153.9277  137.4178  157.5572 H   0  0  0  0  0  0  0  0  0  0  0  0
  153.4563  137.8738  155.9288 H   0  0  0  0  0  0  0  0  0  0  0  0
  146.7427  127.7291  152.8007 H   0  0  0  0  0  0  0  0  0  0  0  0
  148.4616  127.7592  152.3633 H   0  0  0  0  0  0  0  0  0  0  0  0
  147.2380  127.6988  151.1081 H   0  0  0  0  0  0  0  0  0  0  0  0
  145.3625  129.3987  151.6409 H   0  0  0  0  0  0  0  0  0  0  0  0
  146.2364  130.2647  150.3885 H   0  0  0  0  0  0  0  0  0  0  0  0
  148.1589  129.8705  151.3821 H   0  0  0  0  0  0  0  0  0  0  0  0
  1  2  1  0  0  0  0
  1 32  1  0  0  0  0
  1 33  1  0  0  0  0
  1 34  1  0  0  0  0
  2  3  1  0  0  0  0
  3 30  1  0  0  0  0
  3 29  1  0  0  0  0
  3  4  1  0  0  0  0
  4  5  1  0  0  0  0
  4 35  1  0  0  0  0
  4 36  1  0  0  0  0
  5 31  1  0  0  0  0
  5  6  1  0  0  0  0
  5 27  1  0  0  0  0
  6  7  1  0  0  0  0
  6 37  1  0  0  0  0
  6 38  1  0  0  0  0
  7  8  1  0  0  0  0
  7  9  1  0  0  0  0
  8 39  1  0  0  0  0
  8 40  1  0  0  0  0
  8 41  1  0  0  0  0
  9 14  1  0  0  0  0
  9 10  2  0  0  0  0
 10 11  1  0  0  0  0
 11 12  2  0  0  0  0
 11 42  1  0  0  0  0
 12 13  1  0  0  0  0
 13 17  1  0  0  0  0
 13 14  2  0  0  0  0
 14 15  1  0  0  0  0
 15 16  2  0  0  0  0
 16 17  1  0  0  0  0
 16 43  1  0  0  0  0
 17 18  1  0  0  0  0
 18 19  1  0  0  0  0
 18 44  1  0  0  0  0
 18 45  1  0  0  0  0
 19 20  1  0  0  0  0
 19 22  1  0  0  0  0
 19 46  1  0  0  0  0
 20 21  1  0  0  0  0
 20 47  1  0  0  0  0
 20 48  1  0  0  0  0
 21 49  1  0  0  0  0
 22 26  1  0  0  0  0
 22 23  1  0  0  0  0
 22 50  1  0  0  0  0
 23 24  1  0  0  0  0
 23 51  1  0  0  0  0
 23 52  1  0  0  0  0
 24 25  1  0  0  0  0
 24 53  1  0  0  0  0
 24 54  1  0  0  0  0
 25 26  1  0  0  0  0
 26 55  1  0  0  0  0
 26 56  1  0  0  0  0
 27 28  1  0  0  0  0
 27 29  1  0  0  0  0
 27 62  1  0  0  0  0
 28 57  1  0  0  0  0
 28 58  1  0  0  0  0
 28 59  1  0  0  0  0
 29 60  1  0  0  0  0
 29 61  1  0  0  0  0
M  CHG  1  27   1
M  END
> <s_m_source_file>
AV-unprocessed.smi

> <i_m_source_file_index>
21

> <i_lp_mmshare_version>
43012

> <i_f3d_flags>
0

> <s_epik_input>
W0NIM11PW0NASF0xW0NIMl1bQ0BIXShOKFtDSDNdKVtDSDJdMSlbQ0gyXU4oW0NIM10pYyhuW2NIXW4yKWMoYzIzKW5bY0hdbjNbQ0gyXVtDQEhdKFtDSDJdW09IXSlbQ0BASF00W0NIMl1bQ0gyXU9bQ0gyXTQ=

> <s_epik_cmdline>
J2VwaWtfcHl0aG9uJywgJy1waCcsICc3LjAnLCAnLXRuJywgJzgnLCAnLW1hJywgJzIwMCcsICctbWV0YWxfYmluZGluZycsICctaW1hZScsICc8aW5maWxlLm1hZT4nLCAnLW9tYWUnLCAnPG91dGZpbGUubWFlPic=

> <r_lp_tautomer_probability>
1

> <r_epik_Ionization_Penalty>
0.0157465

> <r_epik_Ionization_Penalty_Charging>
0.015354

> <r_epik_Ionization_Penalty_Neutral>
0.000392529

> <r_epik_State_Penalty>
0.0120612

> <r_epik_Charging_Adjusted_Penalty>
0.0274152

> <i_epik_Tot_Q>
1

> <i_epik_Tot_abs_Q>
1

> <r_epik_Metal_State_Penalty>
0.0121253

> <b_epik_Metal_Only>
0

> <s_lp_Force_Field>
OPLS_2005

> <r_lp_Energy>
62.7223

> <b_lp_Chiralities_Consistent>
1

> <s_lp_Variant>
AV-unprocessed.smi:21-22

> <Gold.Version>
5.8.1

> <Gold.Id.Protein>
6NUR|6NUR_protein|mol2

> <Gold.PLP.Fitness>
50.1721

> <Gold.PLP.PLP>
-39.0697

> <Gold.PLP.part.hbond>
-5.0000

> <Gold.PLP.part.metal>
0.0000

> <Gold.PLP.part.buried>
-4.3399

> <Gold.PLP.part.nonpolar>
-29.7603

> <Gold.PLP.part.repulsive>
0.2874

> <Gold.PLP.ligand.clash>
0.0000

> <Gold.PLP.ligand.torsion>
3.7835

> <Gold.PLP.Chemscore.Hbond>
4.9600

> <Gold.PLP.Chemscore.CHOScore>
1.0000

> <Gold.PLP.Chemscore.Metal>
0.0000

> <Gold.Chemscore.Hbonds>
donor molecule, donor type, donor heavy atom, donor atom, acceptor molecule, acceptor atom, score
      L1  H    21    49       P1  7949  0.87
      L1  H    27    62       P1 10747  1.00
      P1  H  6896  6909       L1    12  1.00
      P1  H  7997  8009       L1    25  1.00
      P1  H 10752 10764       L1    21  0.71
      L1  C    16    43       P1  7948  1.00

> <Gold.PLP.Chemscore.Internal.Correction>
0.7894

> <Gold.Rescore>
     Score         DG    S(hbond)    S(metal)    S(lipo)     H(rot)  DE(clash)    DE(int)     intcor
     16.93     -21.93       4.26        0.00      86.37       3.08       1.09       3.91       ----

> <Gold.Chemscore.Fitness>
16.9278

> <Gold.Chemscore.DG>
-21.9270

> <Gold.Chemscore.ZeroCoef>
-5.4800

> <Gold.Chemscore.Hbond>
4.2561

> <Gold.Chemscore.Metal>
0.0000

> <Gold.Chemscore.Lipo>
86.3746

> <Gold.Chemscore.Internal_Hbond>
0.0000

> <Gold.Chemscore.DEClash>
1.0924

> <Gold.Chemscore.DEInternal>
3.9068

> <Gold.Chemscore.Rot>
3.0758

> <Gold.Chemscore.Internal.Correction>
   9.000000E+99

> <Gold.Chemscore.Hbonds>
donor molecule, donor type, donor heavy atom, donor atom, acceptor molecule, acceptor atom, score
      L1  H    21    49       P1  7949  0.80
      L1  H    27    62       P1 10747  0.85
      P1  H  6896  6909       L1    12  0.58
      P1  H  7997  8009       L1    25  0.43
      P1  H 10752 10764       L1    21  0.08

> <Gold.Chemscore.Hbond.Weighted>
-14.2153

> <Gold.Chemscore.Metal.Weighted>
-0.0000

> <Gold.Chemscore.Lipo.Weighted>
-10.1058

> <Gold.Chemscore.Internal_Hbond.Weighted>
0.0000

> <Gold.Chemscore.DEClash.Weighted>
1.0924

> <Gold.Chemscore.DEInternal.Weighted>
3.9068

> <Gold.Chemscore.Rot.Weighted>
7.8741

> <Gold.Chemscore.Internal.Correction.Weighted>
   9.000000E+99

> <Gold.Protein.RotatedTorsions>
[ 6907 6896 6895 6894 ] final  -10.33 input  -60.11 | X-H torsion
[ 7974 7965 7964 7962 ] final  152.28 input  175.53 | X-H torsion
[ 8008 7997 7996 7995 ] final -170.32 input   59.86 | X-H torsion
[ 10167 10162 10161 10158 ] final  -34.33 input  -65.29 | X-H torsion
[ 10718 10713 10712 10709 ] final -147.64 input   66.30 | X-H torsion
[ 10763 10752 10751 10750 ] final  -96.42 input  -60.55 | X-H torsion
[ 11005 11000 10999 10996 ] final  -52.35 input  -57.11 | X-H torsion

> <Gold.Protein.ActiveResidues>
 VAL166  LYS551  ARG553  GLY616  TRP617  ASP618  TYR619  PRO620  LYS621  CYS622 
 ASP623  PHE694  ASN695  SER759  ASP760  ASP761  ALA762  ILE779  LEU786  VAL792 
 PHE793  MET794  SER795  GLU796  ALA797  LYS798  CYS799  TRP800  GLU811  SER814 

> <Gold.Protein.RotatedAtoms>
  151.4036  135.0975  159.9563 H   0  0  0  0  0  0  0  0  0  0  0  0  # atno 6907 bound_to 6896
  152.5042  133.8864  159.7382 H   0  0  0  0  0  0  0  0  0  0  0  0  # atno 6908 bound_to 6896
  150.9344  133.6673  159.2832 H   0  0  0  0  0  0  0  0  0  0  0  0  # atno 6909 bound_to 6896
  144.8233  139.6648  143.6091 H   0  0  0  0  0  0  0  0  0  0  0  0  # atno 7974 bound_to 7965
  155.9167  140.1067  157.1238 H   0  0  0  0  0  0  0  0  0  0  0  0  # atno 8008 bound_to 7997
  154.4048  140.1264  156.4692 H   0  0  0  0  0  0  0  0  0  0  0  0  # atno 8009 bound_to 7997
  155.7245  140.3469  155.5033 H   0  0  0  0  0  0  0  0  0  0  0  0  # atno 8010 bound_to 7997
  140.7188  143.3556  151.2067 H   0  0  0  0  0  0  0  0  0  0  0  0  # atno 10167 bound_to 10162
  156.4101  130.7977  151.2194 H   0  0  0  0  0  0  0  0  0  0  0  0  # atno 10718 bound_to 10713
  154.7238  135.5084  153.8853 H   0  0  0  0  0  0  0  0  0  0  0  0  # atno 10763 bound_to 10752
  153.0886  135.6652  153.9908 H   0  0  0  0  0  0  0  0  0  0  0  0  # atno 10764 bound_to 10752
  153.9725  135.3037  155.3405 H   0  0  0  0  0  0  0  0  0  0  0  0  # atno 10765 bound_to 10752
  141.0920  133.6631  156.4012 H   0  0  0  0  0  0  0  0  0  0  0  0  # atno 11005 bound_to 11000
  146.2538  139.6258  142.9408 LP  0  0  0  0  0  0  0  0  0  0  0  0  # atno 17320 bound_to 7965
  145.5056  141.0436  143.2516 LP  0  0  0  0  0  0  0  0  0  0  0  0  # atno 17321 bound_to 7965
  139.7096  143.9398  152.2942 LP  0  0  0  0  0  0  0  0  0  0  0  0  # atno 17342 bound_to 10162
  139.9118  144.6852  150.8554 LP  0  0  0  0  0  0  0  0  0  0  0  0  # atno 17343 bound_to 10162
  157.7507  131.0260  150.3944 LP  0  0  0  0  0  0  0  0  0  0  0  0  # atno 17370 bound_to 10713
  156.4241  130.3958  149.6805 LP  0  0  0  0  0  0  0  0  0  0  0  0  # atno 17371 bound_to 10713
  140.5230  134.6286  157.5324 LP  0  0  0  0  0  0  0  0  0  0  0  0  # atno 17394 bound_to 11000
  139.9748  134.7234  155.9972 LP  0  0  0  0  0  0  0  0  0  0  0  0  # atno 17395 bound_to 11000

$$$$
