AV-unprocessed.smi:1347|AV-procd|sdf|5516|dock3
  -GOLD-   22720 5103D 1   1.00000     0.00000
 Structure written by MMmdl.
 38 39  0  0  0  0  0  0  0  0  1 V2000
  151.8673  144.5639  159.9686 C   0  0  0  0  0  0  0  0  0  0  0  0
  150.5610  144.0194  160.0318 O   0  0  0  0  0  0  0  0  0  0  0  0
  149.9466  143.9406  158.7560 C   0  0  0  0  0  0  0  0  0  0  0  0
  150.6350  142.8496  157.9373 C   0  0  0  0  0  0  0  0  0  0  0  0
  151.5372  142.1760  158.4347 O   0  0  0  0  0  0  0  0  0  0  0  0
  150.1902  142.6776  156.6839 N   0  0  0  0  0  0  0  0  0  0  0  0
  150.6641  141.6562  155.7562 C   0  0  0  0  0  0  0  0  0  0  0  0
  149.5477  140.9814  154.9654 C   0  0  0  0  0  0  0  0  0  0  0  0
  148.5512  141.7746  154.3580 C   0  0  0  0  0  0  0  0  0  0  0  0
  147.5249  141.1485  153.6276 C   0  0  0  0  0  0  0  0  0  0  0  0
  147.5334  139.7448  153.5336 C   0  0  0  0  0  0  0  0  0  0  0  0
  148.4770  138.9713  154.1099 N   0  0  0  0  0  0  0  0  0  0  0  0
  149.4676  139.5725  154.8125 C   0  0  0  0  0  0  0  0  0  0  0  0
  150.4359  138.7421  155.3983 N   0  0  0  0  0  0  0  0  0  0  0  0
  150.0939  137.3266  155.3940 C   0  0  0  0  0  0  0  0  0  0  0  0
  151.1335  136.5391  156.2107 C   0  0  0  0  0  0  0  0  0  0  0  0
  152.4390  136.7905  155.6965 O   0  0  0  0  0  0  0  0  0  0  0  0
  152.7892  138.1705  155.7663 C   0  0  0  0  0  0  0  0  0  0  0  0
  151.7937  138.9963  154.9347 C   0  0  0  0  0  0  0  0  0  0  0  0
  152.2947  144.6088  160.9703 H   0  0  0  0  0  0  0  0  0  0  0  0
  151.8532  145.5764  159.5630 H   0  0  0  0  0  0  0  0  0  0  0  0
  152.5216  143.9477  159.3506 H   0  0  0  0  0  0  0  0  0  0  0  0
  148.8891  143.6914  158.8556 H   0  0  0  0  0  0  0  0  0  0  0  0
  150.0165  144.9012  158.2422 H   0  0  0  0  0  0  0  0  0  0  0  0
  149.4475  143.2787  156.3579 H   0  0  0  0  0  0  0  0  0  0  0  0
  151.3509  142.1265  155.0521 H   0  0  0  0  0  0  0  0  0  0  0  0
  151.2480  140.9120  156.2999 H   0  0  0  0  0  0  0  0  0  0  0  0
  148.5729  142.8509  154.4453 H   0  0  0  0  0  0  0  0  0  0  0  0
  146.7510  141.7307  153.1499 H   0  0  0  0  0  0  0  0  0  0  0  0
  146.7615  139.2293  152.9817 H   0  0  0  0  0  0  0  0  0  0  0  0
  149.0984  137.1849  155.8162 H   0  0  0  0  0  0  0  0  0  0  0  0
  150.0679  136.9562  154.3683 H   0  0  0  0  0  0  0  0  0  0  0  0
  151.0886  136.8150  157.2655 H   0  0  0  0  0  0  0  0  0  0  0  0
  150.9277  135.4702  156.1518 H   0  0  0  0  0  0  0  0  0  0  0  0
  152.7962  138.5035  156.8056 H   0  0  0  0  0  0  0  0  0  0  0  0
  153.8010  138.3016  155.3822 H   0  0  0  0  0  0  0  0  0  0  0  0
  151.8804  138.7299  153.8805 H   0  0  0  0  0  0  0  0  0  0  0  0
  152.0225  140.0593  155.0209 H   0  0  0  0  0  0  0  0  0  0  0  0
  1  2  1  0  0  0  0
  1 20  1  0  0  0  0
  1 21  1  0  0  0  0
  1 22  1  0  0  0  0
  2  3  1  0  0  0  0
  3  4  1  0  0  0  0
  3 23  1  0  0  0  0
  3 24  1  0  0  0  0
  4  5  2  0  0  0  0
  4  6  1  0  0  0  0
  6  7  1  0  0  0  0
  6 25  1  0  0  0  0
  7  8  1  0  0  0  0
  7 26  1  0  0  0  0
  7 27  1  0  0  0  0
  8 13  1  0  0  0  0
  8  9  2  0  0  0  0
  9 10  1  0  0  0  0
  9 28  1  0  0  0  0
 10 11  2  0  0  0  0
 10 29  1  0  0  0  0
 11 12  1  0  0  0  0
 11 30  1  0  0  0  0
 12 13  2  0  0  0  0
 13 14  1  0  0  0  0
 14 19  1  0  0  0  0
 14 15  1  0  0  0  0
 15 16  1  0  0  0  0
 15 31  1  0  0  0  0
 15 32  1  0  0  0  0
 16 17  1  0  0  0  0
 16 33  1  0  0  0  0
 16 34  1  0  0  0  0
 17 18  1  0  0  0  0
 18 19  1  0  0  0  0
 18 35  1  0  0  0  0
 18 36  1  0  0  0  0
 19 37  1  0  0  0  0
 19 38  1  0  0  0  0
M  END
> <s_m_source_file>
AV-unprocessed.smi

> <i_m_source_file_index>
1347

> <i_lp_mmshare_version>
43012

> <i_f3d_flags>
0

> <s_epik_input>
W0NIM11PW0NIMl1DKD1PKVtOSF1bQ0gyXWMxW2NIXVtjSF1bY0hdbmMxTjJbQ0gyXVtDSDJdT1tDSDJdW0NIMl0y

> <s_epik_cmdline>
J2VwaWtfcHl0aG9uJywgJy1waCcsICc3LjAnLCAnLXRuJywgJzgnLCAnLW1hJywgJzIwMCcsICctbWV0YWxfYmluZGluZycsICctaW1hZScsICc8aW5maWxlLm1hZT4nLCAnLW9tYWUnLCAnPG91dGZpbGUubWFlPic=

> <r_lp_tautomer_probability>
1

> <r_epik_Ionization_Penalty>
0.00422298

> <r_epik_Ionization_Penalty_Charging>
0

> <r_epik_Ionization_Penalty_Neutral>
0.00422298

> <r_epik_State_Penalty>
0.00303469

> <r_epik_Charging_Adjusted_Penalty>
0.00303469

> <i_epik_Tot_Q>
0

> <i_epik_Tot_abs_Q>
0

> <r_epik_Metal_State_Penalty>
-0

> <b_epik_Metal_Only>
0

> <s_lp_Force_Field>
OPLS_2005

> <r_lp_Energy>
19.5871

> <b_lp_Chiralities_Consistent>
1

> <s_lp_Variant>
AV-unprocessed.smi:1347-1

> <Gold.Version>
5.8.1

> <Gold.Id.Protein>
6NUR|6NUR_protein|mol2

> <Gold.PLP.Fitness>
38.5261

> <Gold.PLP.PLP>
-33.5387

> <Gold.PLP.part.hbond>
-2.5138

> <Gold.PLP.part.metal>
0.0000

> <Gold.PLP.part.buried>
-4.1540

> <Gold.PLP.part.nonpolar>
-27.4923

> <Gold.PLP.part.repulsive>
0.4297

> <Gold.PLP.ligand.clash>
0.0000

> <Gold.PLP.ligand.torsion>
0.4301

> <Gold.PLP.Chemscore.Hbond>
1.8960

> <Gold.PLP.Chemscore.CHOScore>
0.0000

> <Gold.PLP.Chemscore.Metal>
0.0000

> <Gold.Chemscore.Hbonds>
donor molecule, donor type, donor heavy atom, donor atom, acceptor molecule, acceptor atom, score
      L1  H     6    25       P1  8028  1.00
      P1  H 10752 10765       L1    17  0.90

> <Gold.PLP.Chemscore.Internal.Correction>
0.1596

> <Gold.Rescore>
     Score         DG    S(hbond)    S(metal)    S(lipo)     H(rot)  DE(clash)    DE(int)     intcor
     13.46     -16.06       1.87        0.00      79.37       1.94       0.03       2.57       ----

> <Gold.Chemscore.Fitness>
13.4553

> <Gold.Chemscore.DG>
-16.0568

> <Gold.Chemscore.ZeroCoef>
-5.4800

> <Gold.Chemscore.Hbond>
1.8723

> <Gold.Chemscore.Metal>
0.0000

> <Gold.Chemscore.Lipo>
79.3663

> <Gold.Chemscore.Internal_Hbond>
0.0000

> <Gold.Chemscore.DEClash>
0.0283

> <Gold.Chemscore.DEInternal>
2.5732

> <Gold.Chemscore.Rot>
1.9385

> <Gold.Chemscore.Internal.Correction>
   9.000000E+99

> <Gold.Chemscore.Hbonds>
donor molecule, donor type, donor heavy atom, donor atom, acceptor molecule, acceptor atom, score
      L1  H     6    25       P1  8028  0.96
      P1  H 10752 10765       L1    17  0.73

> <Gold.Chemscore.Hbond.Weighted>
-6.2536

> <Gold.Chemscore.Metal.Weighted>
-0.0000

> <Gold.Chemscore.Lipo.Weighted>
-9.2859

> <Gold.Chemscore.Internal_Hbond.Weighted>
0.0000

> <Gold.Chemscore.DEClash.Weighted>
0.0283

> <Gold.Chemscore.DEInternal.Weighted>
2.5732

> <Gold.Chemscore.Rot.Weighted>
4.9627

> <Gold.Chemscore.Internal.Correction.Weighted>
   9.000000E+99

> <Gold.Protein.RotatedTorsions>
[ 6907 6896 6895 6894 ] final  -51.63 input  -60.11 | X-H torsion
[ 7974 7965 7964 7962 ] final  -64.19 input  175.53 | X-H torsion
[ 8008 7997 7996 7995 ] final -155.44 input   59.86 | X-H torsion
[ 10167 10162 10161 10158 ] final  -15.02 input  -65.29 | X-H torsion
[ 10718 10713 10712 10709 ] final   43.22 input   66.30 | X-H torsion
[ 10763 10752 10751 10750 ] final -163.76 input  -60.55 | X-H torsion
[ 11005 11000 10999 10996 ] final  -79.00 input  -57.11 | X-H torsion

> <Gold.Protein.ActiveResidues>
 VAL166  LYS551  ARG553  GLY616  TRP617  ASP618  TYR619  PRO620  LYS621  CYS622 
 ASP623  PHE694  ASN695  SER759  ASP760  ASP761  ALA762  ILE779  LEU786  VAL792 
 PHE793  MET794  SER795  GLU796  ALA797  LYS798  CYS799  TRP800  GLU811  SER814 

> <Gold.Protein.RotatedAtoms>
  150.8593  134.7941  159.7069 H   0  0  0  0  0  0  0  0  0  0  0  0  # atno 6907 bound_to 6896
  152.4635  134.5126  159.9768 H   0  0  0  0  0  0  0  0  0  0  0  0  # atno 6908 bound_to 6896
  151.5233  133.3424  159.2941 H   0  0  0  0  0  0  0  0  0  0  0  0  # atno 6909 bound_to 6896
  145.7697  140.8819  143.0386 H   0  0  0  0  0  0  0  0  0  0  0  0  # atno 7974 bound_to 7965
  155.7018  140.0767  157.2407 H   0  0  0  0  0  0  0  0  0  0  0  0  # atno 8008 bound_to 7997
  154.4072  140.1646  156.2252 H   0  0  0  0  0  0  0  0  0  0  0  0  # atno 8009 bound_to 7997
  155.9361  140.3388  155.6292 H   0  0  0  0  0  0  0  0  0  0  0  0  # atno 8010 bound_to 7997
  140.7211  143.5262  150.9574 H   0  0  0  0  0  0  0  0  0  0  0  0  # atno 10167 bound_to 10162
  157.4135  130.7928  149.7451 H   0  0  0  0  0  0  0  0  0  0  0  0  # atno 10718 bound_to 10713
  154.7093  135.3003  154.9222 H   0  0  0  0  0  0  0  0  0  0  0  0  # atno 10763 bound_to 10752
  154.0129  135.6692  153.4770 H   0  0  0  0  0  0  0  0  0  0  0  0  # atno 10764 bound_to 10752
  153.0742  135.5044  154.8281 H   0  0  0  0  0  0  0  0  0  0  0  0  # atno 10765 bound_to 10752
  141.1666  133.7087  156.8056 H   0  0  0  0  0  0  0  0  0  0  0  0  # atno 11005 bound_to 11000
  144.6815  139.9838  143.7483 LP  0  0  0  0  0  0  0  0  0  0  0  0  # atno 17320 bound_to 7965
  146.0182  139.3228  143.0829 LP  0  0  0  0  0  0  0  0  0  0  0  0  # atno 17321 bound_to 7965
  139.8980  143.6870  152.3135 LP  0  0  0  0  0  0  0  0  0  0  0  0  # atno 17342 bound_to 10162
  139.7210  144.7602  151.0955 LP  0  0  0  0  0  0  0  0  0  0  0  0  # atno 17343 bound_to 10162
  155.9858  130.3980  150.3245 LP  0  0  0  0  0  0  0  0  0  0  0  0  # atno 17370 bound_to 10713
  157.1386  131.0290  151.2938 LP  0  0  0  0  0  0  0  0  0  0  0  0  # atno 17371 bound_to 10713
  140.2224  134.8747  157.3391 LP  0  0  0  0  0  0  0  0  0  0  0  0  # atno 17394 bound_to 11000
  140.1974  134.4297  155.7682 LP  0  0  0  0  0  0  0  0  0  0  0  0  # atno 17395 bound_to 11000

$$$$
