AV-unprocessed.smi:1218|AV-procd|sdf|5110|dock4
  -GOLD-   22720 4163D 1   1.00000     0.00000
 Structure written by MMmdl.
 44 45  0  0  0  0  0  0  0  0  1 V2000
  152.6733  139.2388  155.8165 C   0  0  0  0  0  0  0  0  0  0  0  0
  151.3143  139.8843  155.5034 C   0  0  0  0  0  0  0  0  0  0  0  0
  150.7318  140.5194  156.7777 C   0  0  0  0  0  0  0  0  0  0  0  0
  150.3433  138.8558  154.8770 C   0  0  0  0  0  0  0  0  0  0  0  0
  148.9985  139.3536  154.5834 N   0  0  0  0  0  0  0  0  0  0  0  0
  149.0309  140.7747  154.2548 C   0  0  0  0  0  0  0  0  0  0  0  0
  147.6311  141.3249  153.9381 C   0  0  0  0  0  0  0  0  0  0  0  0
  147.0571  140.5690  152.8784 O   0  0  0  0  0  0  0  0  0  0  0  0
  146.9439  139.1806  153.1817 C   0  0  1  0  0  0  0  0  0  0  0  0
  146.2984  138.4569  151.9879 C   0  0  0  0  0  0  0  0  0  0  0  0
  146.5259  137.0166  152.0463 N   0  0  0  0  0  0  0  0  0  0  0  0
  145.5792  136.0874  152.2474 C   0  0  0  0  0  0  0  0  0  0  0  0
  144.3864  136.3605  152.3919 O   0  0  0  0  0  0  0  0  0  0  0  0
  146.0746  134.6360  152.2909 C   0  0  0  0  0  0  0  0  0  0  0  0
  145.5505  133.8237  151.2045 N   0  0  0  0  0  0  0  0  0  0  0  0
  146.1998  132.8534  150.4695 C   0  0  0  0  0  0  0  0  0  0  0  0
  145.3063  132.3660  149.5595 C   0  0  0  0  0  0  0  0  0  0  0  0
  144.1204  133.1081  149.8198 C   0  0  0  0  0  0  0  0  0  0  0  0
  144.2686  133.9777  150.8062 N   0  0  0  0  0  0  0  0  0  0  0  0
  148.3501  138.6294  153.4930 C   0  0  0  0  0  0  0  0  0  0  0  0
  152.5698  138.4216  156.5314 H   0  0  0  0  0  0  0  0  0  0  0  0
  153.3669  139.9659  156.2400 H   0  0  0  0  0  0  0  0  0  0  0  0
  153.1343  138.8362  154.9139 H   0  0  0  0  0  0  0  0  0  0  0  0
  151.5034  140.6789  154.7800 H   0  0  0  0  0  0  0  0  0  0  0  0
  150.5723  139.7707  157.5542 H   0  0  0  0  0  0  0  0  0  0  0  0
  149.7753  141.0054  156.5895 H   0  0  0  0  0  0  0  0  0  0  0  0
  151.4060  141.2754  157.1814 H   0  0  0  0  0  0  0  0  0  0  0  0
  150.7798  138.5110  153.9384 H   0  0  0  0  0  0  0  0  0  0  0  0
  150.2845  137.9651  155.5047 H   0  0  0  0  0  0  0  0  0  0  0  0
  149.4585  141.3379  155.0850 H   0  0  0  0  0  0  0  0  0  0  0  0
  149.6836  140.9408  153.3962 H   0  0  0  0  0  0  0  0  0  0  0  0
  146.9876  141.2813  154.8181 H   0  0  0  0  0  0  0  0  0  0  0  0
  147.6931  142.3706  153.6368 H   0  0  0  0  0  0  0  0  0  0  0  0
  146.3072  139.0572  154.0601 H   0  0  0  0  0  0  0  0  0  0  0  0
  145.2331  138.6861  151.9280 H   0  0  0  0  0  0  0  0  0  0  0  0
  146.7415  138.8178  151.0594 H   0  0  0  0  0  0  0  0  0  0  0  0
  147.4800  136.7033  151.9400 H   0  0  0  0  0  0  0  0  0  0  0  0
  147.1637  134.6213  152.2351 H   0  0  0  0  0  0  0  0  0  0  0  0
  145.7953  134.1867  153.2452 H   0  0  0  0  0  0  0  0  0  0  0  0
  147.2328  132.5967  150.6522 H   0  0  0  0  0  0  0  0  0  0  0  0
  145.4742  131.5976  148.8198 H   0  0  0  0  0  0  0  0  0  0  0  0
  143.1630  133.0406  149.3249 H   0  0  0  0  0  0  0  0  0  0  0  0
  148.9693  138.6806  152.5960 H   0  0  0  0  0  0  0  0  0  0  0  0
  148.2561  137.5753  153.7514 H   0  0  0  0  0  0  0  0  0  0  0  0
  1  2  1  0  0  0  0
  1 21  1  0  0  0  0
  1 22  1  0  0  0  0
  1 23  1  0  0  0  0
  2  3  1  0  0  0  0
  2  4  1  0  0  0  0
  2 24  1  0  0  0  0
  3 25  1  0  0  0  0
  3 26  1  0  0  0  0
  3 27  1  0  0  0  0
  4  5  1  0  0  0  0
  4 28  1  0  0  0  0
  4 29  1  0  0  0  0
  5 20  1  0  0  0  0
  5  6  1  0  0  0  0
  6  7  1  0  0  0  0
  6 30  1  0  0  0  0
  6 31  1  0  0  0  0
  7  8  1  0  0  0  0
  7 32  1  0  0  0  0
  7 33  1  0  0  0  0
  8  9  1  0  0  0  0
  9 10  1  0  0  0  0
  9 20  1  0  0  0  0
  9 34  1  0  0  0  0
 10 11  1  0  0  0  0
 10 35  1  0  0  0  0
 10 36  1  0  0  0  0
 11 12  1  0  0  0  0
 11 37  1  0  0  0  0
 12 13  2  0  0  0  0
 12 14  1  0  0  0  0
 14 15  1  0  0  0  0
 14 38  1  0  0  0  0
 14 39  1  0  0  0  0
 15 19  1  0  0  0  0
 15 16  1  0  0  0  0
 16 17  2  0  0  0  0
 16 40  1  0  0  0  0
 17 18  1  0  0  0  0
 17 41  1  0  0  0  0
 18 19  2  0  0  0  0
 18 42  1  0  0  0  0
 20 43  1  0  0  0  0
 20 44  1  0  0  0  0
M  END
> <s_m_source_file>
AV-unprocessed.smi

> <i_m_source_file_index>
1218

> <i_lp_mmshare_version>
43012

> <i_f3d_flags>
0

> <s_epik_input>
W0NIM11bQ0hdKFtDSDNdKVtDSDJdTjFbQ0gyXVtDSDJdT1tDQEhdKFtDSDJdMSlbQ0gyXVtOSF1DKD1PKVtDSDJdbjJbY0hdW2NIXVtjSF1uMg==

> <s_epik_cmdline>
J2VwaWtfcHl0aG9uJywgJy1waCcsICc3LjAnLCAnLXRuJywgJzgnLCAnLW1hJywgJzIwMCcsICctbWV0YWxfYmluZGluZycsICctaW1hZScsICc8aW5maWxlLm1hZT4nLCAnLW9tYWUnLCAnPG91dGZpbGUubWFlPic=

> <r_lp_tautomer_probability>
1

> <r_epik_Ionization_Penalty>
1.10621

> <r_epik_Ionization_Penalty_Charging>
0

> <r_epik_Ionization_Penalty_Neutral>
1.10621

> <r_epik_State_Penalty>
1.16377

> <r_epik_Charging_Adjusted_Penalty>
1.16377

> <i_epik_Tot_Q>
0

> <i_epik_Tot_abs_Q>
0

> <r_epik_Metal_State_Penalty>
1.16377

> <b_epik_Metal_Only>
0

> <s_lp_Force_Field>
OPLS_2005

> <r_lp_Energy>
27.1639

> <b_lp_Chiralities_Consistent>
1

> <s_lp_Variant>
AV-unprocessed.smi:1218-5

> <Gold.Version>
5.8.1

> <Gold.Id.Protein>
6NUR|6NUR_protein|mol2

> <Gold.PLP.Fitness>
41.6080

> <Gold.PLP.PLP>
-34.1729

> <Gold.PLP.part.hbond>
-1.0000

> <Gold.PLP.part.metal>
0.0000

> <Gold.PLP.part.buried>
-0.4428

> <Gold.PLP.part.nonpolar>
-35.0223

> <Gold.PLP.part.repulsive>
1.0840

> <Gold.PLP.ligand.clash>
0.0000

> <Gold.PLP.ligand.torsion>
0.8307

> <Gold.PLP.Chemscore.Hbond>
1.0000

> <Gold.PLP.Chemscore.CHOScore>
1.9861

> <Gold.PLP.Chemscore.Metal>
0.0000

> <Gold.Chemscore.Hbonds>
donor molecule, donor type, donor heavy atom, donor atom, acceptor molecule, acceptor atom, score
      L1  H    11    37       P1  7948  0.99
      L1  C    16    40       P1 10747  1.00
      L1  C    18    42       P1 10186  0.91

> <Gold.PLP.Chemscore.Internal.Correction>
0.1381

> <Gold.Rescore>
     Score         DG    S(hbond)    S(metal)    S(lipo)     H(rot)  DE(clash)    DE(int)     intcor
     12.24     -14.63       0.98        0.00      91.59       1.90       0.30       2.09       ----

> <Gold.Chemscore.Fitness>
12.2413

> <Gold.Chemscore.DG>
-14.6266

> <Gold.Chemscore.ZeroCoef>
-5.4800

> <Gold.Chemscore.Hbond>
0.9842

> <Gold.Chemscore.Metal>
0.0000

> <Gold.Chemscore.Lipo>
91.5880

> <Gold.Chemscore.Internal_Hbond>
0.0000

> <Gold.Chemscore.DEClash>
0.2975

> <Gold.Chemscore.DEInternal>
2.0878

> <Gold.Chemscore.Rot>
1.8970

> <Gold.Chemscore.Internal.Correction>
   9.000000E+99

> <Gold.Chemscore.Hbonds>
donor molecule, donor type, donor heavy atom, donor atom, acceptor molecule, acceptor atom, score
      L1  H    11    37       P1  7948  0.92

> <Gold.Chemscore.Hbond.Weighted>
-3.2872

> <Gold.Chemscore.Metal.Weighted>
-0.0000

> <Gold.Chemscore.Lipo.Weighted>
-10.7158

> <Gold.Chemscore.Internal_Hbond.Weighted>
0.0000

> <Gold.Chemscore.DEClash.Weighted>
0.2975

> <Gold.Chemscore.DEInternal.Weighted>
2.0878

> <Gold.Chemscore.Rot.Weighted>
4.8564

> <Gold.Chemscore.Internal.Correction.Weighted>
   9.000000E+99

> <Gold.Protein.RotatedTorsions>
[ 6907 6896 6895 6894 ] final -148.51 input  -60.11 | X-H torsion
[ 7974 7965 7964 7962 ] final  -21.40 input  175.53 | X-H torsion
[ 8008 7997 7996 7995 ] final -108.98 input   59.86 | X-H torsion
[ 10167 10162 10161 10158 ] final   37.44 input  -65.29 | X-H torsion
[ 10718 10713 10712 10709 ] final   63.14 input   66.30 | X-H torsion
[ 10763 10752 10751 10750 ] final  172.63 input  -60.55 | X-H torsion
[ 11005 11000 10999 10996 ] final   36.60 input  -57.11 | X-H torsion

> <Gold.Protein.ActiveResidues>
 VAL166  LYS551  ARG553  GLY616  TRP617  ASP618  TYR619  PRO620  LYS621  CYS622 
 ASP623  PHE694  ASN695  SER759  ASP760  ASP761  ALA762  ILE779  LEU786  VAL792 
 PHE793  MET794  SER795  GLU796  ALA797  LYS798  CYS799  TRP800  GLU811  SER814 

> <Gold.Protein.RotatedAtoms>
  151.1709  133.4785  159.2593 H   0  0  0  0  0  0  0  0  0  0  0  0  # atno 6907 bound_to 6896
  151.1357  135.0153  159.8613 H   0  0  0  0  0  0  0  0  0  0  0  0  # atno 6908 bound_to 6896
  152.5461  134.1607  159.8610 H   0  0  0  0  0  0  0  0  0  0  0  0  # atno 6909 bound_to 6896
  146.1735  140.4336  142.8523 H   0  0  0  0  0  0  0  0  0  0  0  0  # atno 7974 bound_to 7965
  154.9524  140.0400  157.2150 H   0  0  0  0  0  0  0  0  0  0  0  0  # atno 8008 bound_to 7997
  154.7966  140.2844  155.5930 H   0  0  0  0  0  0  0  0  0  0  0  0  # atno 8009 bound_to 7997
  156.2956  140.2563  156.2825 H   0  0  0  0  0  0  0  0  0  0  0  0  # atno 8010 bound_to 7997
  140.4032  144.1695  150.6135 H   0  0  0  0  0  0  0  0  0  0  0  0  # atno 10167 bound_to 10162
  157.5951  130.9089  149.9678 H   0  0  0  0  0  0  0  0  0  0  0  0  # atno 10718 bound_to 10713
  154.4288  135.2759  155.1926 H   0  0  0  0  0  0  0  0  0  0  0  0  # atno 10763 bound_to 10752
  154.3841  135.6081  153.5811 H   0  0  0  0  0  0  0  0  0  0  0  0  # atno 10764 bound_to 10752
  152.9835  135.5887  154.4595 H   0  0  0  0  0  0  0  0  0  0  0  0  # atno 10765 bound_to 10752
  140.2310  134.3528  155.7964 H   0  0  0  0  0  0  0  0  0  0  0  0  # atno 11005 bound_to 11000
  144.8199  140.6532  143.6360 LP  0  0  0  0  0  0  0  0  0  0  0  0  # atno 17320 bound_to 7965
  145.4277  139.1554  143.4039 LP  0  0  0  0  0  0  0  0  0  0  0  0  # atno 17321 bound_to 7965
  140.4717  143.2410  151.9079 LP  0  0  0  0  0  0  0  0  0  0  0  0  # atno 17342 bound_to 10162
  139.4784  144.5362  151.8595 LP  0  0  0  0  0  0  0  0  0  0  0  0  # atno 17343 bound_to 10162
  156.1012  130.3655  150.0215 LP  0  0  0  0  0  0  0  0  0  0  0  0  # atno 17370 bound_to 10713
  156.8330  130.9399  151.3636 LP  0  0  0  0  0  0  0  0  0  0  0  0  # atno 17371 bound_to 10713
  141.2218  133.7245  156.8731 LP  0  0  0  0  0  0  0  0  0  0  0  0  # atno 17394 bound_to 11000
  140.1751  134.9073  157.2881 LP  0  0  0  0  0  0  0  0  0  0  0  0  # atno 17395 bound_to 11000

$$$$
