AV-unprocessed.smi:431|AV-procd|sdf|2548|dock1
  -GOLD-   2262022513D 1   1.00000     0.00000
 Structure written by MMmdl.
 43 44  0  0  0  0  0  0  0  0  1 V2000
  150.2249  135.8625  155.9858 C   0  0  0  0  0  0  0  0  0  0  0  0
  150.1037  135.3573  154.5396 C   0  0  0  0  0  0  0  0  0  0  0  0
  151.4050  135.4749  153.7155 C   0  0  1  0  0  0  0  0  0  0  0  0
  151.2173  134.8930  152.3039 C   0  0  0  0  0  0  0  0  0  0  0  0
  151.8975  136.9269  153.6207 C   0  0  0  0  0  0  0  0  0  0  0  0
  152.9970  137.2392  154.0788 O   0  0  0  0  0  0  0  0  0  0  0  0
  151.0690  137.8023  153.0300 N   0  0  0  0  0  0  0  0  0  0  0  0
  151.3151  139.2319  152.8689 C   0  0  0  0  0  0  0  0  0  0  0  0
  151.4568  139.9586  154.1958 C   0  0  0  0  0  0  0  0  0  0  0  0
  150.3262  140.4669  154.8643 C   0  0  0  0  0  0  0  0  0  0  0  0
  150.4991  141.1274  156.0957 C   0  0  0  0  0  0  0  0  0  0  0  0
  151.8037  141.2702  156.6269 C   0  0  0  0  0  0  0  0  0  0  0  0
  152.0030  141.9257  157.8619 N   0  0  0  0  0  0  0  0  0  0  0  0
  150.8863  142.6827  158.4259 C   0  0  0  0  0  0  0  0  0  0  0  0
  151.3684  143.5613  159.5924 C   0  0  0  0  0  0  0  0  0  0  0  0
  152.0288  142.7531  160.5605 O   0  0  0  0  0  0  0  0  0  0  0  0
  153.1789  142.1125  160.0187 C   0  0  0  0  0  0  0  0  0  0  0  0
  152.7640  141.1836  158.8646 C   0  0  0  0  0  0  0  0  0  0  0  0
  152.8889  140.7792  155.9784 N   0  0  0  0  0  0  0  0  0  0  0  0
  152.7177  140.1467  154.7987 C   0  0  0  0  0  0  0  0  0  0  0  0
  149.2951  135.6978  156.5304 H   0  0  0  0  0  0  0  0  0  0  0  0
  150.4414  136.9302  156.0244 H   0  0  0  0  0  0  0  0  0  0  0  0
  151.0183  135.3387  156.5193 H   0  0  0  0  0  0  0  0  0  0  0  0
  149.7979  134.3110  154.5691 H   0  0  0  0  0  0  0  0  0  0  0  0
  149.2930  135.8884  154.0385 H   0  0  0  0  0  0  0  0  0  0  0  0
  152.1741  134.8817  154.2134 H   0  0  0  0  0  0  0  0  0  0  0  0
  152.1316  134.9765  151.7145 H   0  0  0  0  0  0  0  0  0  0  0  0
  150.4227  135.4061  151.7604 H   0  0  0  0  0  0  0  0  0  0  0  0
  150.9557  133.8356  152.3492 H   0  0  0  0  0  0  0  0  0  0  0  0
  150.1884  137.4530  152.6807 H   0  0  0  0  0  0  0  0  0  0  0  0
  152.2072  139.4139  152.2674 H   0  0  0  0  0  0  0  0  0  0  0  0
  150.4812  139.6538  152.3070 H   0  0  0  0  0  0  0  0  0  0  0  0
  149.3368  140.3472  154.4479 H   0  0  0  0  0  0  0  0  0  0  0  0
  149.6324  141.4986  156.6213 H   0  0  0  0  0  0  0  0  0  0  0  0
  150.4330  143.3162  157.6623 H   0  0  0  0  0  0  0  0  0  0  0  0
  150.1193  141.9888  158.7726 H   0  0  0  0  0  0  0  0  0  0  0  0
  152.0398  144.3449  159.2373 H   0  0  0  0  0  0  0  0  0  0  0  0
  150.5204  144.0585  160.0636 H   0  0  0  0  0  0  0  0  0  0  0  0
  153.8977  142.8591  159.6770 H   0  0  0  0  0  0  0  0  0  0  0  0
  153.6677  141.5377  160.8053 H   0  0  0  0  0  0  0  0  0  0  0  0
  152.1438  140.3712  159.2452 H   0  0  0  0  0  0  0  0  0  0  0  0
  153.6576  140.7278  158.4415 H   0  0  0  0  0  0  0  0  0  0  0  0
  153.6167  139.7808  154.3256 H   0  0  0  0  0  0  0  0  0  0  0  0
  1  2  1  0  0  0  0
  1 21  1  0  0  0  0
  1 22  1  0  0  0  0
  1 23  1  0  0  0  0
  2  3  1  0  0  0  0
  2 24  1  0  0  0  0
  2 25  1  0  0  0  0
  3  4  1  0  0  0  0
  3  5  1  0  0  0  0
  3 26  1  0  0  0  0
  4 27  1  0  0  0  0
  4 28  1  0  0  0  0
  4 29  1  0  0  0  0
  5  6  2  0  0  0  0
  5  7  1  0  0  0  0
  7  8  1  0  0  0  0
  7 30  1  0  0  0  0
  8  9  1  0  0  0  0
  8 31  1  0  0  0  0
  8 32  1  0  0  0  0
  9 20  1  0  0  0  0
  9 10  2  0  0  0  0
 10 11  1  0  0  0  0
 10 33  1  0  0  0  0
 11 12  2  0  0  0  0
 11 34  1  0  0  0  0
 12 13  1  0  0  0  0
 12 19  1  0  0  0  0
 13 18  1  0  0  0  0
 13 14  1  0  0  0  0
 14 15  1  0  0  0  0
 14 35  1  0  0  0  0
 14 36  1  0  0  0  0
 15 16  1  0  0  0  0
 15 37  1  0  0  0  0
 15 38  1  0  0  0  0
 16 17  1  0  0  0  0
 17 18  1  0  0  0  0
 17 39  1  0  0  0  0
 17 40  1  0  0  0  0
 18 41  1  0  0  0  0
 18 42  1  0  0  0  0
 19 20  2  0  0  0  0
 20 43  1  0  0  0  0
M  END
> <s_m_source_file>
AV-unprocessed.smi

> <i_m_source_file_index>
431

> <i_lp_mmshare_version>
43012

> <i_f3d_flags>
0

> <s_epik_input>
W0NIM11bQ0gyXVtDQEhdKFtDSDNdKUMoPU8pW05IXVtDSDJdYzFbY0hdW2NIXWMobltjSF0xKU4yW0NIMl1bQ0gyXU9bQ0gyXVtDSDJdMg==

> <s_epik_cmdline>
J2VwaWtfcHl0aG9uJywgJy1waCcsICc3LjAnLCAnLXRuJywgJzgnLCAnLW1hJywgJzIwMCcsICctbWV0YWxfYmluZGluZycsICctaW1hZScsICc8aW5maWxlLm1hZT4nLCAnLW9tYWUnLCAnPG91dGZpbGUubWFlPic=

> <r_lp_tautomer_probability>
1

> <r_epik_Ionization_Penalty>
0.00513882

> <r_epik_Ionization_Penalty_Charging>
0

> <r_epik_Ionization_Penalty_Neutral>
0.00513882

> <r_epik_State_Penalty>
0.00374265

> <r_epik_Charging_Adjusted_Penalty>
0.00374265

> <i_epik_Tot_Q>
0

> <i_epik_Tot_abs_Q>
0

> <r_epik_Metal_State_Penalty>
-0

> <b_epik_Metal_Only>
0

> <s_lp_Force_Field>
OPLS_2005

> <r_lp_Energy>
17.352

> <b_lp_Chiralities_Consistent>
1

> <s_lp_Variant>
AV-unprocessed.smi:431-2

> <Gold.Version>
5.8.1

> <Gold.Id.Protein>
6NUR|6NUR_protein|mol2

> <Gold.PLP.Fitness>
44.6507

> <Gold.PLP.PLP>
-36.6231

> <Gold.PLP.part.hbond>
-4.0000

> <Gold.PLP.part.metal>
0.0000

> <Gold.PLP.part.buried>
-2.2111

> <Gold.PLP.part.nonpolar>
-30.5261

> <Gold.PLP.part.repulsive>
0.1476

> <Gold.PLP.ligand.clash>
0.0000

> <Gold.PLP.ligand.torsion>
0.5637

> <Gold.PLP.Chemscore.Hbond>
2.9120

> <Gold.PLP.Chemscore.CHOScore>
0.0000

> <Gold.PLP.Chemscore.Metal>
0.0000

> <Gold.Chemscore.Hbonds>
donor molecule, donor type, donor heavy atom, donor atom, acceptor molecule, acceptor atom, score
      L1  H     7    30       P1  7948  0.45
      P1  H  7997  8010       L1    19  0.14
      P1  H 10752 10763       L1     6  0.06

> <Gold.PLP.Chemscore.Internal.Correction>
0.4190

> <Gold.Rescore>
     Score         DG    S(hbond)    S(metal)    S(lipo)     H(rot)  DE(clash)    DE(int)     intcor
     14.34     -15.49       1.31        0.00      84.01       1.64       0.50       0.65       ----

> <Gold.Chemscore.Fitness>
14.3404

> <Gold.Chemscore.DG>
-15.4931

> <Gold.Chemscore.ZeroCoef>
-5.4800

> <Gold.Chemscore.Hbond>
1.3126

> <Gold.Chemscore.Metal>
0.0000

> <Gold.Chemscore.Lipo>
84.0108

> <Gold.Chemscore.Internal_Hbond>
0.0000

> <Gold.Chemscore.DEClash>
0.5024

> <Gold.Chemscore.DEInternal>
0.6503

> <Gold.Chemscore.Rot>
1.6407

> <Gold.Chemscore.Internal.Correction>
   9.000000E+99

> <Gold.Chemscore.Hbonds>
donor molecule, donor type, donor heavy atom, donor atom, acceptor molecule, acceptor atom, score
      L1  H     7    30       P1  7948  0.02
      P1  H  7997  8010       L1    19  0.11

> <Gold.Chemscore.Hbond.Weighted>
-4.3840

> <Gold.Chemscore.Metal.Weighted>
-0.0000

> <Gold.Chemscore.Lipo.Weighted>
-9.8293

> <Gold.Chemscore.Internal_Hbond.Weighted>
0.0000

> <Gold.Chemscore.DEClash.Weighted>
0.5024

> <Gold.Chemscore.DEInternal.Weighted>
0.6503

> <Gold.Chemscore.Rot.Weighted>
4.2001

> <Gold.Chemscore.Internal.Correction.Weighted>
   9.000000E+99

> <Gold.Protein.RotatedTorsions>
[ 6907 6896 6895 6894 ] final -113.41 input  -60.11 | X-H torsion
[ 7974 7965 7964 7962 ] final -162.11 input  175.53 | X-H torsion
[ 8008 7997 7996 7995 ] final   44.28 input   59.86 | X-H torsion
[ 10167 10162 10161 10158 ] final   20.05 input  -65.29 | X-H torsion
[ 10718 10713 10712 10709 ] final  122.18 input   66.30 | X-H torsion
[ 10763 10752 10751 10750 ] final  -22.91 input  -60.55 | X-H torsion
[ 11005 11000 10999 10996 ] final -121.64 input  -57.11 | X-H torsion

> <Gold.Protein.ActiveResidues>
 VAL166  LYS551  ARG553  GLY616  TRP617  ASP618  TYR619  PRO620  LYS621  CYS622 
 ASP623  PHE694  ASN695  SER759  ASP760  ASP761  ALA762  ILE779  LEU786  VAL792 
 PHE793  MET794  SER795  GLU796  ALA797  LYS798  CYS799  TRP800  GLU811  SER814 

> <Gold.Protein.RotatedAtoms>
  150.7827  133.8948  159.3323 H   0  0  0  0  0  0  0  0  0  0  0  0  # atno 6907 bound_to 6896
  151.6806  135.0960  160.0225 H   0  0  0  0  0  0  0  0  0  0  0  0  # atno 6908 bound_to 6896
  152.3883  133.6604  159.6252 H   0  0  0  0  0  0  0  0  0  0  0  0  # atno 6909 bound_to 6896
  144.7368  140.3301  143.6155 H   0  0  0  0  0  0  0  0  0  0  0  0  # atno 7974 bound_to 7965
  155.3167  140.3394  155.4242 H   0  0  0  0  0  0  0  0  0  0  0  0  # atno 8008 bound_to 7997
  156.1929  140.1704  156.8093 H   0  0  0  0  0  0  0  0  0  0  0  0  # atno 8009 bound_to 7997
  154.5464  140.0714  156.8579 H   0  0  0  0  0  0  0  0  0  0  0  0  # atno 8010 bound_to 7997
  140.5533  143.9470  150.6592 H   0  0  0  0  0  0  0  0  0  0  0  0  # atno 10167 bound_to 10162
  157.5762  131.1079  150.8274 H   0  0  0  0  0  0  0  0  0  0  0  0  # atno 10718 bound_to 10713
  153.6595  135.6977  153.5182 H   0  0  0  0  0  0  0  0  0  0  0  0  # atno 10763 bound_to 10752
  153.2643  135.4235  155.0924 H   0  0  0  0  0  0  0  0  0  0  0  0  # atno 10764 bound_to 10752
  154.8456  135.3562  154.6140 H   0  0  0  0  0  0  0  0  0  0  0  0  # atno 10765 bound_to 10752
  141.0055  134.0341  157.3483 H   0  0  0  0  0  0  0  0  0  0  0  0  # atno 11005 bound_to 11000
  145.7481  139.1785  143.2337 LP  0  0  0  0  0  0  0  0  0  0  0  0  # atno 17320 bound_to 7965
  146.1082  140.7461  142.9516 LP  0  0  0  0  0  0  0  0  0  0  0  0  # atno 17321 bound_to 7965
  140.2902  143.3330  152.1070 LP  0  0  0  0  0  0  0  0  0  0  0  0  # atno 17342 bound_to 10162
  139.5037  144.6760  151.6127 LP  0  0  0  0  0  0  0  0  0  0  0  0  # atno 17343 bound_to 10162
  156.8733  130.5153  149.5295 LP  0  0  0  0  0  0  0  0  0  0  0  0  # atno 17370 bound_to 10713
  156.0807  130.5818  150.9557 LP  0  0  0  0  0  0  0  0  0  0  0  0  # atno 17371 bound_to 10713
  139.9061  135.0179  156.7491 LP  0  0  0  0  0  0  0  0  0  0  0  0  # atno 17394 bound_to 11000
  140.6820  133.9466  155.7916 LP  0  0  0  0  0  0  0  0  0  0  0  0  # atno 17395 bound_to 11000

$$$$
