AV-unprocessed.smi:3031|AV-procd|sdf|11549|dock1
  -GOLD-   2272016503D 1   1.00000     0.00000
 Structure written by MMmdl.
 48 49  0  0  0  0  0  0  0  0  3 V2000
  151.4564  142.7372  158.1996 C   0  0  0  0  0  0  0  0  0  0  0  0
  151.0476  141.6748  157.2202 C   0  0  0  0  0  0  0  0  0  0  0  0
  151.6299  140.3894  157.0331 C   0  0  0  0  0  0  0  0  0  0  0  0
  151.0352  139.6903  156.0802 N   0  0  0  0  0  0  0  0  0  0  0  0
  150.0506  140.4978  155.6309 N   0  0  0  0  0  0  0  0  0  0  0  0
  149.1853  140.0603  154.5472 C   0  0  0  0  0  0  0  0  0  0  0  0
  148.3028  141.1921  153.9808 C   0  0  2  0  0  0  0  0  0  0  0  0
  147.2289  141.6096  154.9983 C   0  0  0  0  0  0  0  0  0  0  0  0
  147.6866  140.7656  152.7035 N   0  3  0  0  0  0  0  0  0  0  0  0
  146.5060  139.8848  152.8350 C   0  0  0  0  0  0  0  0  0  0  0  0
  146.7861  138.4871  152.2558 C   0  0  2  0  0  0  0  0  0  0  0  0
  146.6210  138.5445  150.8513 O   0  0  0  0  0  0  0  0  0  0  0  0
  145.8168  137.4264  152.8193 C   0  0  0  0  0  0  0  0  0  0  0  0
  146.1456  136.0477  152.3720 N   0  3  0  0  0  0  0  0  0  0  0  0
  145.8517  135.0042  153.3865 C   0  0  0  0  0  0  0  0  0  0  0  0
  146.2512  133.6144  152.8608 C   0  0  0  0  0  0  0  0  0  0  0  0
  145.5726  133.3530  151.6392 O   0  0  0  0  0  0  0  0  0  0  0  0
  145.9152  134.2933  150.6293 C   0  0  0  0  0  0  0  0  0  0  0  0
  145.5041  135.7055  151.0797 C   0  0  0  0  0  0  0  0  0  0  0  0
  150.0440  141.7071  156.2939 C   0  0  0  0  0  0  0  0  0  0  0  0
  152.2168  143.3968  157.7812 H   0  0  0  0  0  0  0  0  0  0  0  0
  151.8701  142.3075  159.1122 H   0  0  0  0  0  0  0  0  0  0  0  0
  150.6137  143.3631  158.4940 H   0  0  0  0  0  0  0  0  0  0  0  0
  152.4642  139.9472  157.5574 H   0  0  0  0  0  0  0  0  0  0  0  0
  149.8073  139.6348  153.7582 H   0  0  0  0  0  0  0  0  0  0  0  0
  148.5615  139.2487  154.9242 H   0  0  0  0  0  0  0  0  0  0  0  0
  148.9410  142.0555  153.7867 H   0  0  0  0  0  0  0  0  0  0  0  0
  147.6839  141.9042  155.9445 H   0  0  0  0  0  0  0  0  0  0  0  0
  146.5375  140.7920  155.2049 H   0  0  0  0  0  0  0  0  0  0  0  0
  146.6456  142.4598  154.6450 H   0  0  0  0  0  0  0  0  0  0  0  0
  147.3760  141.6018  152.2287 H   0  0  0  0  0  0  0  0  0  0  0  0
  146.2502  139.7974  153.8911 H   0  0  0  0  0  0  0  0  0  0  0  0
  145.6475  140.3361  152.3350 H   0  0  0  0  0  0  0  0  0  0  0  0
  147.8180  138.2152  152.4778 H   0  0  0  0  0  0  0  0  0  0  0  0
  145.6992  138.4865  150.6475 H   0  0  0  0  0  0  0  0  0  0  0  0
  145.8097  137.4541  153.9101 H   0  0  0  0  0  0  0  0  0  0  0  0
  144.8030  137.6812  152.5048 H   0  0  0  0  0  0  0  0  0  0  0  0
  146.3904  135.2049  154.3118 H   0  0  0  0  0  0  0  0  0  0  0  0
  144.7875  135.0161  153.6276 H   0  0  0  0  0  0  0  0  0  0  0  0
  147.3304  133.5472  152.7141 H   0  0  0  0  0  0  0  0  0  0  0  0
  145.9801  132.8469  153.5859 H   0  0  0  0  0  0  0  0  0  0  0  0
  146.9849  134.2468  150.4183 H   0  0  0  0  0  0  0  0  0  0  0  0
  145.3972  134.0270  149.7077 H   0  0  0  0  0  0  0  0  0  0  0  0
  144.4192  135.7648  151.1819 H   0  0  0  0  0  0  0  0  0  0  0  0
  145.7954  136.4296  150.3174 H   0  0  0  0  0  0  0  0  0  0  0  0
  149.3321  142.4841  156.0563 H   0  0  0  0  0  0  0  0  0  0  0  0
  148.3864  140.3156  152.1310 H   0  0  0  0  0  0  0  0  0  0  0  0
  147.1421  136.0286  152.2051 H   0  0  0  0  0  0  0  0  0  0  0  0
  1  2  1  0  0  0  0
  1 21  1  0  0  0  0
  1 22  1  0  0  0  0
  1 23  1  0  0  0  0
  2 20  2  0  0  0  0
  2  3  1  0  0  0  0
  3  4  2  0  0  0  0
  3 24  1  0  0  0  0
  4  5  1  0  0  0  0
  5  6  1  0  0  0  0
  5 20  1  0  0  0  0
  6  7  1  0  0  0  0
  6 25  1  0  0  0  0
  6 26  1  0  0  0  0
  7  8  1  0  0  0  0
  7  9  1  0  0  0  0
  7 27  1  0  0  0  0
  8 28  1  0  0  0  0
  8 29  1  0  0  0  0
  8 30  1  0  0  0  0
  9 10  1  0  0  0  0
  9 31  1  0  0  0  0
  9 47  1  0  0  0  0
 10 11  1  0  0  0  0
 10 32  1  0  0  0  0
 10 33  1  0  0  0  0
 11 12  1  0  0  0  0
 11 13  1  0  0  0  0
 11 34  1  0  0  0  0
 12 35  1  0  0  0  0
 13 14  1  0  0  0  0
 13 36  1  0  0  0  0
 13 37  1  0  0  0  0
 14 19  1  0  0  0  0
 14 15  1  0  0  0  0
 14 48  1  0  0  0  0
 15 16  1  0  0  0  0
 15 38  1  0  0  0  0
 15 39  1  0  0  0  0
 16 17  1  0  0  0  0
 16 40  1  0  0  0  0
 16 41  1  0  0  0  0
 17 18  1  0  0  0  0
 18 19  1  0  0  0  0
 18 42  1  0  0  0  0
 18 43  1  0  0  0  0
 19 44  1  0  0  0  0
 19 45  1  0  0  0  0
 20 46  1  0  0  0  0
M  CHG  1   9   1
M  CHG  1  14   1
M  END
> <s_m_source_file>
AV-unprocessed.smi

> <i_m_source_file_index>
3031

> <i_lp_mmshare_version>
43012

> <i_f3d_flags>
0

> <s_epik_input>
W0NIM11jMVtjSF1ubihbY0hdMSlbQ0gyXVtDQEhdKFtDSDNdKVtOSF1bQ0gyXVtDQEhdKFtPSF0pW0NIMl1OMltDSDJdW0NIMl1PW0NIMl1bQ0gyXTI=

> <s_epik_cmdline>
J2VwaWtfcHl0aG9uJywgJy1waCcsICc3LjAnLCAnLXRuJywgJzgnLCAnLW1hJywgJzIwMCcsICctbWV0YWxfYmluZGluZycsICctaW1hZScsICc8aW5maWxlLm1hZT4nLCAnLW9tYWUnLCAnPG91dGZpbGUubWFlPic=

> <r_lp_tautomer_probability>
1

> <r_epik_Ionization_Penalty>
1.76542

> <r_epik_Ionization_Penalty_Charging>
1.76348

> <r_epik_Ionization_Penalty_Neutral>
0.00194017

> <r_epik_State_Penalty>
1.49348

> <r_epik_Charging_Adjusted_Penalty>
3.25696

> <i_epik_Tot_Q>
2

> <i_epik_Tot_abs_Q>
2

> <r_epik_Metal_State_Penalty>
1.49349

> <b_epik_Metal_Only>
0

> <s_lp_Force_Field>
OPLS_2005

> <r_lp_Energy>
27.3319

> <b_lp_Chiralities_Consistent>
1

> <s_lp_Variant>
AV-unprocessed.smi:3031-9

> <Gold.Version>
5.8.1

> <Gold.Id.Protein>
6NUR|6NUR_protein|mol2

> <Gold.PLP.Fitness>
50.3111

> <Gold.PLP.PLP>
-34.6150

> <Gold.PLP.part.hbond>
-3.9206

> <Gold.PLP.part.metal>
0.0000

> <Gold.PLP.part.buried>
-1.3808

> <Gold.PLP.part.nonpolar>
-29.8301

> <Gold.PLP.part.repulsive>
0.2527

> <Gold.PLP.ligand.clash>
0.0000

> <Gold.PLP.ligand.torsion>
1.2892

> <Gold.PLP.Chemscore.Hbond>
4.9913

> <Gold.PLP.Chemscore.CHOScore>
1.0000

> <Gold.PLP.Chemscore.Metal>
0.0000

> <Gold.Chemscore.Hbonds>
donor molecule, donor type, donor heavy atom, donor atom, acceptor molecule, acceptor atom, score
      L1  H     9    47       P1  7957  1.00
      L1  H    12    35       P1 10171  1.00
      L1  H    14    48       P1  7948  2.00
      P1  H  7954  7966       L1    12  0.94
      L1  C    20    46       P1  8028  1.00

> <Gold.PLP.Chemscore.Internal.Correction>
0.3009

> <Gold.Rescore>
     Score         DG    S(hbond)    S(metal)    S(lipo)     H(rot)  DE(clash)    DE(int)     intcor
     18.13     -20.99       3.70        0.00      86.96       2.74       1.30       1.56       ----

> <Gold.Chemscore.Fitness>
18.1261

> <Gold.Chemscore.DG>
-20.9885

> <Gold.Chemscore.ZeroCoef>
-5.4800

> <Gold.Chemscore.Hbond>
3.6997

> <Gold.Chemscore.Metal>
0.0000

> <Gold.Chemscore.Lipo>
86.9639

> <Gold.Chemscore.Internal_Hbond>
0.0000

> <Gold.Chemscore.DEClash>
1.3012

> <Gold.Chemscore.DEInternal>
1.5612

> <Gold.Chemscore.Rot>
2.7434

> <Gold.Chemscore.Internal.Correction>
   9.000000E+99

> <Gold.Chemscore.Hbonds>
donor molecule, donor type, donor heavy atom, donor atom, acceptor molecule, acceptor atom, score
      L1  H     9    47       P1  7957  0.97
      L1  H    12    35       P1 10171  0.97
      L1  H    14    48       P1  7948  1.00
      P1  H  7954  7966       L1    12  0.77

> <Gold.Chemscore.Hbond.Weighted>
-12.3569

> <Gold.Chemscore.Metal.Weighted>
-0.0000

> <Gold.Chemscore.Lipo.Weighted>
-10.1748

> <Gold.Chemscore.Internal_Hbond.Weighted>
0.0000

> <Gold.Chemscore.DEClash.Weighted>
1.3012

> <Gold.Chemscore.DEInternal.Weighted>
1.5612

> <Gold.Chemscore.Rot.Weighted>
7.0231

> <Gold.Chemscore.Internal.Correction.Weighted>
   9.000000E+99

> <Gold.Protein.RotatedTorsions>
[ 6907 6896 6895 6894 ] final  148.93 input  -60.11 | X-H torsion
[ 7974 7965 7964 7962 ] final -135.05 input  175.53 | X-H torsion
[ 8008 7997 7996 7995 ] final  -23.48 input   59.86 | X-H torsion
[ 10167 10162 10161 10158 ] final   -7.53 input  -65.29 | X-H torsion
[ 10718 10713 10712 10709 ] final  -64.85 input   66.30 | X-H torsion
[ 10763 10752 10751 10750 ] final  -56.40 input  -60.55 | X-H torsion
[ 11005 11000 10999 10996 ] final   91.82 input  -57.11 | X-H torsion

> <Gold.Protein.ActiveResidues>
 VAL166  LYS551  ARG553  GLY616  TRP617  ASP618  TYR619  PRO620  LYS621  CYS622 
 ASP623  PHE694  ASN695  SER759  ASP760  ASP761  ALA762  ILE779  LEU786  VAL792 
 PHE793  MET794  SER795  GLU796  ALA797  LYS798  CYS799  TRP800  GLU811  SER814 

> <Gold.Protein.RotatedAtoms>
  152.1349  133.4429  159.4738 H   0  0  0  0  0  0  0  0  0  0  0  0  # atno 6907 bound_to 6896
  150.6881  134.2375  159.4468 H   0  0  0  0  0  0  0  0  0  0  0  0  # atno 6908 bound_to 6896
  152.0262  134.9794  160.0622 H   0  0  0  0  0  0  0  0  0  0  0  0  # atno 6909 bound_to 6896
  144.9048  140.6819  143.5062 H   0  0  0  0  0  0  0  0  0  0  0  0  # atno 7974 bound_to 7965
  154.4583  140.1979  156.0317 H   0  0  0  0  0  0  0  0  0  0  0  0  # atno 8008 bound_to 7997
  156.0789  140.3274  155.7641 H   0  0  0  0  0  0  0  0  0  0  0  0  # atno 8009 bound_to 7997
  155.5143  140.0564  157.2909 H   0  0  0  0  0  0  0  0  0  0  0  0  # atno 8010 bound_to 7997
  140.7031  143.6070  150.8741 H   0  0  0  0  0  0  0  0  0  0  0  0  # atno 10167 bound_to 10162
  156.0704  130.4239  150.1480 H   0  0  0  0  0  0  0  0  0  0  0  0  # atno 10718 bound_to 10713
  154.2061  135.6402  153.5101 H   0  0  0  0  0  0  0  0  0  0  0  0  # atno 10763 bound_to 10752
  153.0000  135.5463  154.6265 H   0  0  0  0  0  0  0  0  0  0  0  0  # atno 10764 bound_to 10752
  154.5690  135.2915  155.0819 H   0  0  0  0  0  0  0  0  0  0  0  0  # atno 10765 bound_to 10752
  139.8833  134.8696  156.3483 H   0  0  0  0  0  0  0  0  0  0  0  0  # atno 11005 bound_to 11000
  145.3554  139.1695  143.4412 LP  0  0  0  0  0  0  0  0  0  0  0  0  # atno 17320 bound_to 7965
  146.3128  140.3611  142.8665 LP  0  0  0  0  0  0  0  0  0  0  0  0  # atno 17321 bound_to 7965
  139.9794  143.5968  152.2948 LP  0  0  0  0  0  0  0  0  0  0  0  0  # atno 17342 bound_to 10162
  139.6583  144.7662  151.2011 LP  0  0  0  0  0  0  0  0  0  0  0  0  # atno 17343 bound_to 10162
  156.9532  130.9781  151.3494 LP  0  0  0  0  0  0  0  0  0  0  0  0  # atno 17370 bound_to 10713
  157.5771  130.8351  149.8471 LP  0  0  0  0  0  0  0  0  0  0  0  0  # atno 17371 bound_to 10713
  140.9612  133.7387  156.0403 LP  0  0  0  0  0  0  0  0  0  0  0  0  # atno 17394 bound_to 11000
  140.7987  134.3533  157.5445 LP  0  0  0  0  0  0  0  0  0  0  0  0  # atno 17395 bound_to 11000

$$$$
