AV-unprocessed.smi:1995|AV-procd|sdf|8077|dock3
  -GOLD-   2272010293D 1   1.00000     0.00000
 Structure written by MMmdl.
 42 43  0  0  0  0  0  0  0  0  1 V2000
  146.7165  142.1231  153.8996 C   0  0  0  0  0  0  0  0  0  0  0  0
  146.4756  140.7937  154.6368 C   0  0  0  0  0  0  0  0  0  0  0  0
  147.3234  139.5826  154.1281 C   0  0  2  0  0  0  0  0  0  0  0  0
  147.3574  139.6800  152.5798 C   0  0  0  0  0  0  0  0  0  0  0  0
  146.5802  138.2592  154.5158 C   0  0  0  0  0  0  0  0  0  0  0  0
  146.7870  137.1436  153.5902 N   0  0  0  0  0  0  0  0  0  0  0  0
  145.8367  136.3203  153.1231 C   0  0  0  0  0  0  0  0  0  0  0  0
  144.6467  136.4128  153.4253 O   0  0  0  0  0  0  0  0  0  0  0  0
  146.3592  135.3933  152.3008 N   0  0  0  0  0  0  0  0  0  0  0  0
  145.6892  134.3345  151.6329 C   0  0  0  0  0  0  0  0  0  0  0  0
  144.3802  134.3253  151.3540 N   0  0  0  0  0  0  0  0  0  0  0  0
  143.9924  133.1554  150.6957 C   0  0  0  0  0  0  0  0  0  0  0  0
  145.0261  132.2786  150.4797 C   0  0  0  0  0  0  0  0  0  0  0  0
  146.5373  132.8915  151.0966 S   0  0  0  0  0  0  0  0  0  0  0  0
  148.6961  139.6004  154.7197 N   0  0  0  0  0  0  0  0  0  0  0  0
  149.2872  140.9351  154.8954 C   0  0  0  0  0  0  0  0  0  0  0  0
  150.6415  140.8841  155.6224 C   0  0  0  0  0  0  0  0  0  0  0  0
  151.5350  140.0401  154.9087 O   0  0  0  0  0  0  0  0  0  0  0  0
  151.0329  138.7169  154.7751 C   0  0  0  0  0  0  0  0  0  0  0  0
  149.6797  138.7434  154.0434 C   0  0  0  0  0  0  0  0  0  0  0  0
  146.0632  142.9016  154.2935 H   0  0  0  0  0  0  0  0  0  0  0  0
  146.5125  142.0354  152.8324 H   0  0  0  0  0  0  0  0  0  0  0  0
  147.7419  142.4720  154.0178 H   0  0  0  0  0  0  0  0  0  0  0  0
  146.6503  140.9600  155.7000 H   0  0  0  0  0  0  0  0  0  0  0  0
  145.4127  140.5587  154.5963 H   0  0  0  0  0  0  0  0  0  0  0  0
  146.3536  139.7268  152.1582 H   0  0  0  0  0  0  0  0  0  0  0  0
  147.8479  138.8190  152.1263 H   0  0  0  0  0  0  0  0  0  0  0  0
  147.8705  140.5753  152.2314 H   0  0  0  0  0  0  0  0  0  0  0  0
  146.8645  137.9299  155.5152 H   0  0  0  0  0  0  0  0  0  0  0  0
  145.5060  138.4390  154.5663 H   0  0  0  0  0  0  0  0  0  0  0  0
  147.7369  136.9854  153.2878 H   0  0  0  0  0  0  0  0  0  0  0  0
  147.3548  135.4430  152.1430 H   0  0  0  0  0  0  0  0  0  0  0  0
  142.9565  133.0283  150.4173 H   0  0  0  0  0  0  0  0  0  0  0  0
  144.9897  131.3131  149.9972 H   0  0  0  0  0  0  0  0  0  0  0  0
  149.4319  141.4161  153.9283 H   0  0  0  0  0  0  0  0  0  0  0  0
  148.6338  141.5810  155.4775 H   0  0  0  0  0  0  0  0  0  0  0  0
  151.0729  141.8829  155.6887 H   0  0  0  0  0  0  0  0  0  0  0  0
  150.5193  140.5195  156.6436 H   0  0  0  0  0  0  0  0  0  0  0  0
  151.7532  138.1185  154.2175 H   0  0  0  0  0  0  0  0  0  0  0  0
  150.9303  138.2580  155.7597 H   0  0  0  0  0  0  0  0  0  0  0  0
  149.3301  137.7151  153.9846 H   0  0  0  0  0  0  0  0  0  0  0  0
  149.8386  139.0854  153.0206 H   0  0  0  0  0  0  0  0  0  0  0  0
  1  2  1  0  0  0  0
  1 21  1  0  0  0  0
  1 22  1  0  0  0  0
  1 23  1  0  0  0  0
  2  3  1  0  0  0  0
  2 24  1  0  0  0  0
  2 25  1  0  0  0  0
  3  4  1  0  0  0  0
  3  5  1  0  0  0  0
  3 15  1  0  0  0  0
  4 26  1  0  0  0  0
  4 27  1  0  0  0  0
  4 28  1  0  0  0  0
  5  6  1  0  0  0  0
  5 29  1  0  0  0  0
  5 30  1  0  0  0  0
  6  7  1  0  0  0  0
  6 31  1  0  0  0  0
  7  8  2  0  0  0  0
  7  9  1  0  0  0  0
  9 10  1  0  0  0  0
  9 32  1  0  0  0  0
 10 14  1  0  0  0  0
 10 11  2  0  0  0  0
 11 12  1  0  0  0  0
 12 13  2  0  0  0  0
 12 33  1  0  0  0  0
 13 14  1  0  0  0  0
 13 34  1  0  0  0  0
 15 20  1  0  0  0  0
 15 16  1  0  0  0  0
 16 17  1  0  0  0  0
 16 35  1  0  0  0  0
 16 36  1  0  0  0  0
 17 18  1  0  0  0  0
 17 37  1  0  0  0  0
 17 38  1  0  0  0  0
 18 19  1  0  0  0  0
 19 20  1  0  0  0  0
 19 39  1  0  0  0  0
 19 40  1  0  0  0  0
 20 41  1  0  0  0  0
 20 42  1  0  0  0  0
M  END
> <s_m_source_file>
AV-unprocessed.smi

> <i_m_source_file_index>
1995

> <i_lp_mmshare_version>
43012

> <i_f3d_flags>
0

> <s_epik_input>
W0NIMl0xW0NIMl1PW0NIMl1bQ0gyXU4xW0NAQF0oW0NIM10pKFtDSDJdW0NIM10pW0NIMl1bTkhdQyg9TylbTkhdYzJuW2NIXVtjSF1zMg==

> <s_epik_cmdline>
J2VwaWtfcHl0aG9uJywgJy1waCcsICc3LjAnLCAnLXRuJywgJzgnLCAnLW1hJywgJzIwMCcsICctbWV0YWxfYmluZGluZycsICctaW1hZScsICc8aW5maWxlLm1hZT4nLCAnLW9tYWUnLCAnPG91dGZpbGUubWFlPic=

> <r_lp_tautomer_probability>
0.999

> <r_epik_Ionization_Penalty>
0.295852

> <r_epik_Ionization_Penalty_Charging>
0

> <r_epik_Ionization_Penalty_Neutral>
0.295852

> <r_epik_State_Penalty>
0.288723

> <r_epik_Charging_Adjusted_Penalty>
0.288723

> <i_epik_Tot_Q>
0

> <i_epik_Tot_abs_Q>
0

> <r_epik_Metal_State_Penalty>
0.29791

> <b_epik_Metal_Only>
0

> <s_lp_Force_Field>
OPLS_2005

> <r_lp_Energy>
41.4857

> <b_lp_Chiralities_Consistent>
1

> <s_lp_Variant>
AV-unprocessed.smi:1995-2

> <Gold.Version>
5.8.1

> <Gold.Id.Protein>
6NUR|6NUR_protein|mol2

> <Gold.PLP.Fitness>
40.6652

> <Gold.PLP.PLP>
-31.9782

> <Gold.PLP.part.hbond>
-3.0000

> <Gold.PLP.part.metal>
0.0000

> <Gold.PLP.part.buried>
-1.8641

> <Gold.PLP.part.nonpolar>
-27.8920

> <Gold.PLP.part.repulsive>
0.4050

> <Gold.PLP.ligand.clash>
0.0000

> <Gold.PLP.ligand.torsion>
1.6053

> <Gold.PLP.Chemscore.Hbond>
2.9440

> <Gold.PLP.Chemscore.CHOScore>
0.9979

> <Gold.PLP.Chemscore.Metal>
0.0000

> <Gold.Chemscore.Hbonds>
donor molecule, donor type, donor heavy atom, donor atom, acceptor molecule, acceptor atom, score
      L1  H     6    31       P1  7948  0.94
      L1  H     9    32       P1  7948  1.00
      P1  H  7989  7998       L1    18  1.00
      L1  C    12    33       P1 10186  0.96

> <Gold.PLP.Chemscore.Internal.Correction>
0.0719

> <Gold.Rescore>
     Score         DG    S(hbond)    S(metal)    S(lipo)     H(rot)  DE(clash)    DE(int)     intcor
     14.30     -19.19       2.65        0.00      79.67       1.74       1.01       3.89       ----

> <Gold.Chemscore.Fitness>
14.2996

> <Gold.Chemscore.DG>
-19.1947

> <Gold.Chemscore.ZeroCoef>
-5.4800

> <Gold.Chemscore.Hbond>
2.6498

> <Gold.Chemscore.Metal>
0.0000

> <Gold.Chemscore.Lipo>
79.6667

> <Gold.Chemscore.Internal_Hbond>
0.0000

> <Gold.Chemscore.DEClash>
1.0090

> <Gold.Chemscore.DEInternal>
3.8862

> <Gold.Chemscore.Rot>
1.7408

> <Gold.Chemscore.Internal.Correction>
   9.000000E+99

> <Gold.Chemscore.Hbonds>
donor molecule, donor type, donor heavy atom, donor atom, acceptor molecule, acceptor atom, score
      L1  H     6    31       P1  7948  0.86
      L1  H     9    32       P1  7948  0.99
      P1  H  7989  7998       L1    18  0.23

> <Gold.Chemscore.Hbond.Weighted>
-8.8503

> <Gold.Chemscore.Metal.Weighted>
-0.0000

> <Gold.Chemscore.Lipo.Weighted>
-9.3210

> <Gold.Chemscore.Internal_Hbond.Weighted>
0.0000

> <Gold.Chemscore.DEClash.Weighted>
1.0090

> <Gold.Chemscore.DEInternal.Weighted>
3.8862

> <Gold.Chemscore.Rot.Weighted>
4.4565

> <Gold.Chemscore.Internal.Correction.Weighted>
   9.000000E+99

> <Gold.Protein.RotatedTorsions>
[ 6907 6896 6895 6894 ] final  138.94 input  -60.11 | X-H torsion
[ 7974 7965 7964 7962 ] final  127.04 input  175.53 | X-H torsion
[ 8008 7997 7996 7995 ] final  138.45 input   59.86 | X-H torsion
[ 10167 10162 10161 10158 ] final   63.48 input  -65.29 | X-H torsion
[ 10718 10713 10712 10709 ] final  -83.75 input   66.30 | X-H torsion
[ 10763 10752 10751 10750 ] final -102.59 input  -60.55 | X-H torsion
[ 11005 11000 10999 10996 ] final  -13.55 input  -57.11 | X-H torsion

> <Gold.Protein.ActiveResidues>
 VAL166  LYS551  ARG553  GLY616  TRP617  ASP618  TYR619  PRO620  LYS621  CYS622 
 ASP623  PHE694  ASN695  SER759  ASP760  ASP761  ALA762  ILE779  LEU786  VAL792 
 PHE793  MET794  SER795  GLU796  ALA797  LYS798  CYS799  TRP800  GLU811  SER814 

> <Gold.Protein.RotatedAtoms>
  152.2607  133.5295  159.5379 H   0  0  0  0  0  0  0  0  0  0  0  0  # atno 6907 bound_to 6896
  150.7124  134.0834  159.3915 H   0  0  0  0  0  0  0  0  0  0  0  0  # atno 6908 bound_to 6896
  151.8751  135.0475  160.0534 H   0  0  0  0  0  0  0  0  0  0  0  0  # atno 6909 bound_to 6896
  145.0550  139.3852  143.5035 H   0  0  0  0  0  0  0  0  0  0  0  0  # atno 7974 bound_to 7965
  156.2997  140.2393  156.4075 H   0  0  0  0  0  0  0  0  0  0  0  0  # atno 8008 bound_to 7997
  154.8471  140.0425  157.1600 H   0  0  0  0  0  0  0  0  0  0  0  0  # atno 8009 bound_to 7997
  154.9039  140.2981  155.5306 H   0  0  0  0  0  0  0  0  0  0  0  0  # atno 8010 bound_to 7997
  140.1325  144.4629  150.6856 H   0  0  0  0  0  0  0  0  0  0  0  0  # atno 10167 bound_to 10162
  156.0014  130.4675  150.4305 H   0  0  0  0  0  0  0  0  0  0  0  0  # atno 10718 bound_to 10713
  154.7745  135.4855  153.9715 H   0  0  0  0  0  0  0  0  0  0  0  0  # atno 10763 bound_to 10752
  153.1410  135.6772  153.9034 H   0  0  0  0  0  0  0  0  0  0  0  0  # atno 10764 bound_to 10752
  153.8709  135.3144  155.3420 H   0  0  0  0  0  0  0  0  0  0  0  0  # atno 10765 bound_to 10752
  140.7772  133.8391  155.9259 H   0  0  0  0  0  0  0  0  0  0  0  0  # atno 11005 bound_to 11000
  146.3520  140.0219  142.8658 LP  0  0  0  0  0  0  0  0  0  0  0  0  # atno 17320 bound_to 7965
  145.1480  140.9607  143.4450 LP  0  0  0  0  0  0  0  0  0  0  0  0  # atno 17321 bound_to 7965
  140.6808  143.2326  151.5388 LP  0  0  0  0  0  0  0  0  0  0  0  0  # atno 17342 bound_to 10162
  139.5512  144.2390  152.1534 LP  0  0  0  0  0  0  0  0  0  0  0  0  # atno 17343 bound_to 10162
  157.2354  131.0513  151.2468 LP  0  0  0  0  0  0  0  0  0  0  0  0  # atno 17370 bound_to 10713
  157.3671  130.7162  149.6540 LP  0  0  0  0  0  0  0  0  0  0  0  0  # atno 17371 bound_to 10713
  140.9517  134.1770  157.4722 LP  0  0  0  0  0  0  0  0  0  0  0  0  # atno 17394 bound_to 11000
  139.8747  134.9911  156.5536 LP  0  0  0  0  0  0  0  0  0  0  0  0  # atno 17395 bound_to 11000

$$$$
