AV-unprocessed.smi:3328|AV-procd|sdf|12793|dock8
  -GOLD-   2272019143D 1   1.00000     0.00000
 Structure written by MMmdl.
 40 41  0  0  0  0  0  0  0  0  1 V2000
  154.6034  140.8341  162.5322 C   0  0  0  0  0  0  0  0  0  0  0  0
  153.9055  141.4444  161.3511 C   0  0  0  0  0  0  0  0  0  0  0  0
  153.7974  140.9208  160.0313 C   0  0  0  0  0  0  0  0  0  0  0  0
  153.1094  141.7073  159.2201 N   0  0  0  0  0  0  0  0  0  0  0  0
  152.7597  142.7609  159.9885 N   0  0  0  0  0  0  0  0  0  0  0  0
  151.9806  143.8478  159.4204 C   0  0  0  0  0  0  0  0  0  0  0  0
  151.7472  143.6769  157.9058 C   0  0  2  0  0  0  0  0  0  0  0  0
  151.9834  145.0023  157.1601 C   0  0  0  0  0  0  0  0  0  0  0  0
  150.3801  143.2164  157.6858 N   0  0  0  0  0  0  0  0  0  0  0  0
  150.3211  141.8133  157.3067 C   0  0  0  0  0  0  0  0  0  0  0  0
  150.2851  141.7015  155.7754 C   0  0  0  0  0  0  0  0  0  0  0  0
  150.5557  140.3360  155.3360 N   0  0  0  0  0  0  0  0  0  0  0  0
  149.6717  139.6706  154.3943 C   0  0  0  0  0  0  0  0  0  0  0  0
  150.1660  138.2176  154.3425 C   0  0  0  0  0  0  0  0  0  0  0  0
  151.5465  138.2230  155.0082 C   0  0  0  0  0  0  0  0  0  0  0  0
  151.6061  139.5828  155.6831 C   0  0  0  0  0  0  0  0  0  0  0  0
  152.5166  139.9119  156.4417 O   0  0  0  0  0  0  0  0  0  0  0  0
  153.2235  142.6261  161.2797 C   0  0  0  0  0  0  0  0  0  0  0  0
  155.2254  139.9869  162.2425 H   0  0  0  0  0  0  0  0  0  0  0  0
  153.8926  140.4719  163.2749 H   0  0  0  0  0  0  0  0  0  0  0  0
  155.2533  141.5531  163.0313 H   0  0  0  0  0  0  0  0  0  0  0  0
  154.1958  139.9955  159.6418 H   0  0  0  0  0  0  0  0  0  0  0  0
  151.0321  143.9331  159.9540 H   0  0  0  0  0  0  0  0  0  0  0  0
  152.5253  144.7735  159.6101 H   0  0  0  0  0  0  0  0  0  0  0  0
  152.4469  142.9270  157.5341 H   0  0  0  0  0  0  0  0  0  0  0  0
  152.9876  145.3807  157.3522 H   0  0  0  0  0  0  0  0  0  0  0  0
  151.2764  145.7695  157.4779 H   0  0  0  0  0  0  0  0  0  0  0  0
  151.8889  144.8875  156.0806 H   0  0  0  0  0  0  0  0  0  0  0  0
  149.9239  143.7927  156.9929 H   0  0  0  0  0  0  0  0  0  0  0  0
  151.1855  141.2792  157.6999 H   0  0  0  0  0  0  0  0  0  0  0  0
  149.4285  141.3557  157.7353 H   0  0  0  0  0  0  0  0  0  0  0  0
  149.3094  142.0141  155.4001 H   0  0  0  0  0  0  0  0  0  0  0  0
  151.0185  142.3747  155.3283 H   0  0  0  0  0  0  0  0  0  0  0  0
  148.6306  139.7333  154.7138 H   0  0  0  0  0  0  0  0  0  0  0  0
  149.7599  140.1491  153.4181 H   0  0  0  0  0  0  0  0  0  0  0  0
  149.4883  137.5715  154.9022 H   0  0  0  0  0  0  0  0  0  0  0  0
  150.2074  137.8417  153.3196 H   0  0  0  0  0  0  0  0  0  0  0  0
  151.6596  137.4137  155.7303 H   0  0  0  0  0  0  0  0  0  0  0  0
  152.3455  138.1493  154.2699 H   0  0  0  0  0  0  0  0  0  0  0  0
  153.0332  143.3764  162.0329 H   0  0  0  0  0  0  0  0  0  0  0  0
  1  2  1  0  0  0  0
  1 19  1  0  0  0  0
  1 20  1  0  0  0  0
  1 21  1  0  0  0  0
  2 18  2  0  0  0  0
  2  3  1  0  0  0  0
  3  4  2  0  0  0  0
  3 22  1  0  0  0  0
  4  5  1  0  0  0  0
  5  6  1  0  0  0  0
  5 18  1  0  0  0  0
  6  7  1  0  0  0  0
  6 23  1  0  0  0  0
  6 24  1  0  0  0  0
  7  8  1  0  0  0  0
  7  9  1  0  0  0  0
  7 25  1  0  0  0  0
  8 26  1  0  0  0  0
  8 27  1  0  0  0  0
  8 28  1  0  0  0  0
  9 10  1  0  0  0  0
  9 29  1  0  0  0  0
 10 11  1  0  0  0  0
 10 30  1  0  0  0  0
 10 31  1  0  0  0  0
 11 12  1  0  0  0  0
 11 32  1  0  0  0  0
 11 33  1  0  0  0  0
 12 16  1  0  0  0  0
 12 13  1  0  0  0  0
 13 14  1  0  0  0  0
 13 34  1  0  0  0  0
 13 35  1  0  0  0  0
 14 15  1  0  0  0  0
 14 36  1  0  0  0  0
 14 37  1  0  0  0  0
 15 16  1  0  0  0  0
 15 38  1  0  0  0  0
 15 39  1  0  0  0  0
 16 17  2  0  0  0  0
 18 40  1  0  0  0  0
M  END
> <s_m_source_file>
AV-unprocessed.smi

> <i_m_source_file_index>
3328

> <i_lp_mmshare_version>
43012

> <i_f3d_flags>
0

> <s_epik_input>
W0NIM11jMVtjSF1ubihbY0hdMSlbQ0gyXVtDQEhdKFtDSDNdKVtOSF1bQ0gyXVtDSDJdTjJbQ0gyXVtDSDJdW0NIMl1DMj1P

> <s_epik_cmdline>
J2VwaWtfcHl0aG9uJywgJy1waCcsICc3LjAnLCAnLXRuJywgJzgnLCAnLW1hJywgJzIwMCcsICctbWV0YWxfYmluZGluZycsICctaW1hZScsICc8aW5maWxlLm1hZT4nLCAnLW9tYWUnLCAnPG91dGZpbGUubWFlPic=

> <r_lp_tautomer_probability>
1

> <r_epik_Ionization_Penalty>
2.53591

> <r_epik_Ionization_Penalty_Charging>
0

> <r_epik_Ionization_Penalty_Neutral>
2.53591

> <r_epik_State_Penalty>
2.70334

> <r_epik_Charging_Adjusted_Penalty>
2.70334

> <i_epik_Tot_Q>
0

> <i_epik_Tot_abs_Q>
0

> <r_epik_Metal_State_Penalty>
2.70327

> <b_epik_Metal_Only>
0

> <s_lp_Force_Field>
OPLS_2005

> <r_lp_Energy>
20.4488

> <b_lp_Chiralities_Consistent>
1

> <s_lp_Variant>
AV-unprocessed.smi:3328-3

> <Gold.Version>
5.8.1

> <Gold.Id.Protein>
6NUR|6NUR_protein|mol2

> <Gold.PLP.Fitness>
48.3266

> <Gold.PLP.PLP>
-45.5794

> <Gold.PLP.part.hbond>
-2.0000

> <Gold.PLP.part.metal>
0.0000

> <Gold.PLP.part.buried>
-2.8429

> <Gold.PLP.part.nonpolar>
-40.2032

> <Gold.PLP.part.repulsive>
0.0000

> <Gold.PLP.ligand.clash>
0.0000

> <Gold.PLP.ligand.torsion>
1.6577

> <Gold.PLP.Chemscore.Hbond>
2.0000

> <Gold.PLP.Chemscore.CHOScore>
0.0000

> <Gold.PLP.Chemscore.Metal>
0.0000

> <Gold.Chemscore.Hbonds>
donor molecule, donor type, donor heavy atom, donor atom, acceptor molecule, acceptor atom, score
      L1  H     9    29       P1  8028  1.00
      P1  H  7997  8009       L1    17  1.00

> <Gold.PLP.Chemscore.Internal.Correction>
0.0627

> <Gold.Rescore>
     Score         DG    S(hbond)    S(metal)    S(lipo)     H(rot)  DE(clash)    DE(int)     intcor
     17.76     -20.69       2.00        0.00     114.36       1.89       1.48       1.45       ----

> <Gold.Chemscore.Fitness>
17.7573

> <Gold.Chemscore.DG>
-20.6866

> <Gold.Chemscore.ZeroCoef>
-5.4800

> <Gold.Chemscore.Hbond>
1.9970

> <Gold.Chemscore.Metal>
0.0000

> <Gold.Chemscore.Lipo>
114.3606

> <Gold.Chemscore.Internal_Hbond>
0.0000

> <Gold.Chemscore.DEClash>
1.4752

> <Gold.Chemscore.DEInternal>
1.4541

> <Gold.Chemscore.Rot>
1.8920

> <Gold.Chemscore.Internal.Correction>
   9.000000E+99

> <Gold.Chemscore.Hbonds>
donor molecule, donor type, donor heavy atom, donor atom, acceptor molecule, acceptor atom, score
      L1  H     9    29       P1  8028  0.97
      P1  H  7997  8009       L1    17  0.97

> <Gold.Chemscore.Hbond.Weighted>
-6.6699

> <Gold.Chemscore.Metal.Weighted>
-0.0000

> <Gold.Chemscore.Lipo.Weighted>
-13.3802

> <Gold.Chemscore.Internal_Hbond.Weighted>
0.0000

> <Gold.Chemscore.DEClash.Weighted>
1.4752

> <Gold.Chemscore.DEInternal.Weighted>
1.4541

> <Gold.Chemscore.Rot.Weighted>
4.8435

> <Gold.Chemscore.Internal.Correction.Weighted>
   9.000000E+99

> <Gold.Protein.RotatedTorsions>
[ 6907 6896 6895 6894 ] final -129.65 input  -60.11 | X-H torsion
[ 7974 7965 7964 7962 ] final  132.20 input  175.53 | X-H torsion
[ 8008 7997 7996 7995 ] final  178.84 input   59.86 | X-H torsion
[ 10167 10162 10161 10158 ] final  -74.16 input  -65.29 | X-H torsion
[ 10718 10713 10712 10709 ] final -171.85 input   66.30 | X-H torsion
[ 10763 10752 10751 10750 ] final  150.66 input  -60.55 | X-H torsion
[ 11005 11000 10999 10996 ] final  124.87 input  -57.11 | X-H torsion

> <Gold.Protein.ActiveResidues>
 VAL166  LYS551  ARG553  GLY616  TRP617  ASP618  TYR619  PRO620  LYS621  CYS622 
 ASP623  PHE694  ASN695  SER759  ASP760  ASP761  ALA762  ILE779  LEU786  VAL792 
 PHE793  MET794  SER795  GLU796  ALA797  LYS798  CYS799  TRP800  GLU811  SER814 

> <Gold.Protein.RotatedAtoms>
  150.9310  133.6767  159.2810 H   0  0  0  0  0  0  0  0  0  0  0  0  # atno 6907 bound_to 6896
  151.4189  135.0994  159.9617 H   0  0  0  0  0  0  0  0  0  0  0  0  # atno 6908 bound_to 6896
  152.5026  133.8766  159.7380 H   0  0  0  0  0  0  0  0  0  0  0  0  # atno 6909 bound_to 6896
  144.9993  139.4328  143.5300 H   0  0  0  0  0  0  0  0  0  0  0  0  # atno 7974 bound_to 7965
  156.0501  140.1323  157.0059 H   0  0  0  0  0  0  0  0  0  0  0  0  # atno 8008 bound_to 7997
  154.4431  140.1012  156.6434 H   0  0  0  0  0  0  0  0  0  0  0  0  # atno 8009 bound_to 7997
  155.5536  140.3463  155.4476 H   0  0  0  0  0  0  0  0  0  0  0  0  # atno 8010 bound_to 7997
  140.5050  143.2354  151.7689 H   0  0  0  0  0  0  0  0  0  0  0  0  # atno 10167 bound_to 10162
  156.7469  130.9363  151.3113 H   0  0  0  0  0  0  0  0  0  0  0  0  # atno 10718 bound_to 10713
  154.0912  135.2852  155.3271 H   0  0  0  0  0  0  0  0  0  0  0  0  # atno 10763 bound_to 10752
  154.6619  135.5331  153.8032 H   0  0  0  0  0  0  0  0  0  0  0  0  # atno 10764 bound_to 10752
  153.0413  135.6536  154.1081 H   0  0  0  0  0  0  0  0  0  0  0  0  # atno 10765 bound_to 10752
  139.9379  134.9638  156.8473 H   0  0  0  0  0  0  0  0  0  0  0  0  # atno 11005 bound_to 11000
  146.3448  139.9372  142.8745 LP  0  0  0  0  0  0  0  0  0  0  0  0  # atno 17320 bound_to 7965
  145.2175  140.9921  143.4065 LP  0  0  0  0  0  0  0  0  0  0  0  0  # atno 17321 bound_to 7965
  139.4881  144.4470  151.9699 LP  0  0  0  0  0  0  0  0  0  0  0  0  # atno 17342 bound_to 10162
  140.3560  144.3031  150.5941 LP  0  0  0  0  0  0  0  0  0  0  0  0  # atno 17343 bound_to 10162
  157.6794  130.9125  150.0230 LP  0  0  0  0  0  0  0  0  0  0  0  0  # atno 17370 bound_to 10713
  156.1427  130.3642  149.9557 LP  0  0  0  0  0  0  0  0  0  0  0  0  # atno 17371 bound_to 10713
  140.6028  134.0156  155.7544 LP  0  0  0  0  0  0  0  0  0  0  0  0  # atno 17394 bound_to 11000
  141.1001  133.9782  157.3093 LP  0  0  0  0  0  0  0  0  0  0  0  0  # atno 17395 bound_to 11000

$$$$
