AV-unprocessed.smi:1395|AV-procd|sdf|5671|dock1
  -GOLD-   22720 5293D 1   1.00000     0.00000
 Structure written by MMmdl.
 43 44  0  0  0  0  0  0  0  0  2 V2000
  151.3088  144.7539  158.0528 C   0  0  0  0  0  0  0  0  0  0  0  0
  151.7633  143.3625  158.4631 C   0  0  0  0  0  0  0  0  0  0  0  0
  152.7277  143.2248  159.4841 C   0  0  0  0  0  0  0  0  0  0  0  0
  153.1476  141.9380  159.8621 C   0  0  0  0  0  0  0  0  0  0  0  0
  152.5813  140.8361  159.1987 C   0  0  0  0  0  0  0  0  0  0  0  0
  151.6592  140.9586  158.2222 N   0  0  0  0  0  0  0  0  0  0  0  0
  151.2425  142.1936  157.8459 C   0  0  0  0  0  0  0  0  0  0  0  0
  150.2747  142.3982  156.8219 N   0  0  0  0  0  0  0  0  0  0  0  0
  149.7654  141.4993  155.9609 C   0  0  0  0  0  0  0  0  0  0  0  0
  150.0489  140.3016  155.9269 O   0  0  0  0  0  0  0  0  0  0  0  0
  148.8911  142.0733  155.1209 N   0  0  0  0  0  0  0  0  0  0  0  0
  148.1499  141.3778  154.0687 C   0  0  2  0  0  0  0  0  0  0  0  0
  147.1502  142.3105  153.3554 C   0  0  0  0  0  0  0  0  0  0  0  0
  145.9608  142.6807  154.2588 C   0  0  0  0  0  0  0  0  0  0  0  0
  145.2716  141.4647  154.7609 N   0  3  2  0  0  0  0  0  0  0  0  0
  144.0355  141.7887  155.5209 C   0  0  0  0  0  0  0  0  0  0  0  0
  143.1849  140.5724  155.9175 C   0  0  0  0  0  0  0  0  0  0  0  0
  142.7279  139.7564  154.9609 N   0  0  0  0  0  0  0  0  0  0  0  0
  142.9422  140.3687  157.1039 O   0  0  0  0  0  0  0  0  0  0  0  0
  146.2031  140.5850  155.5171 C   0  0  0  0  0  0  0  0  0  0  0  0
  147.4023  140.1640  154.6480 C   0  0  0  0  0  0  0  0  0  0  0  0
  151.8105  145.5243  158.6393 H   0  0  0  0  0  0  0  0  0  0  0  0
  150.2346  144.8651  158.2031 H   0  0  0  0  0  0  0  0  0  0  0  0
  151.5336  144.9340  157.0011 H   0  0  0  0  0  0  0  0  0  0  0  0
  153.1434  144.0931  159.9739 H   0  0  0  0  0  0  0  0  0  0  0  0
  153.8841  141.7993  160.6396 H   0  0  0  0  0  0  0  0  0  0  0  0
  152.8759  139.8299  159.4577 H   0  0  0  0  0  0  0  0  0  0  0  0
  149.9355  143.3444  156.7349 H   0  0  0  0  0  0  0  0  0  0  0  0
  148.7141  143.0614  155.2273 H   0  0  0  0  0  0  0  0  0  0  0  0
  148.8732  141.0117  153.3378 H   0  0  0  0  0  0  0  0  0  0  0  0
  147.6479  143.2147  153.0035 H   0  0  0  0  0  0  0  0  0  0  0  0
  146.7734  141.8114  152.4616 H   0  0  0  0  0  0  0  0  0  0  0  0
  146.2957  143.2876  155.1014 H   0  0  0  0  0  0  0  0  0  0  0  0
  145.2602  143.2916  153.6881 H   0  0  0  0  0  0  0  0  0  0  0  0
  144.2851  142.3723  156.4086 H   0  0  0  0  0  0  0  0  0  0  0  0
  143.3899  142.4218  154.9106 H   0  0  0  0  0  0  0  0  0  0  0  0
  142.1750  138.9446  155.1916 H   0  0  0  0  0  0  0  0  0  0  0  0
  142.9507  139.9553  153.9953 H   0  0  0  0  0  0  0  0  0  0  0  0
  146.5496  141.1046  156.4119 H   0  0  0  0  0  0  0  0  0  0  0  0
  145.6810  139.6916  155.8600 H   0  0  0  0  0  0  0  0  0  0  0  0
  147.0440  139.5401  153.8278 H   0  0  0  0  0  0  0  0  0  0  0  0
  148.0844  139.5395  155.2264 H   0  0  0  0  0  0  0  0  0  0  0  0
  144.9762  140.9540  153.9416 H   0  0  0  0  0  0  0  0  0  0  0  0
  1  2  1  0  0  0  0
  1 22  1  0  0  0  0
  1 23  1  0  0  0  0
  1 24  1  0  0  0  0
  2  7  1  0  0  0  0
  2  3  2  0  0  0  0
  3  4  1  0  0  0  0
  3 25  1  0  0  0  0
  4  5  2  0  0  0  0
  4 26  1  0  0  0  0
  5  6  1  0  0  0  0
  5 27  1  0  0  0  0
  6  7  2  0  0  0  0
  7  8  1  0  0  0  0
  8  9  1  0  0  0  0
  8 28  1  0  0  0  0
  9 10  2  0  0  0  0
  9 11  1  0  0  0  0
 11 12  1  0  0  0  0
 11 29  1  0  0  0  0
 12 21  1  0  0  0  0
 12 13  1  0  0  0  0
 12 30  1  0  0  0  0
 13 14  1  0  0  0  0
 13 31  1  0  0  0  0
 13 32  1  0  0  0  0
 14 15  1  0  0  0  0
 14 33  1  0  0  0  0
 14 34  1  0  0  0  0
 15 16  1  0  0  0  0
 15 20  1  0  0  0  0
 15 43  1  0  0  0  0
 16 17  1  0  0  0  0
 16 35  1  0  0  0  0
 16 36  1  0  0  0  0
 17 18  1  0  0  0  0
 17 19  2  0  0  0  0
 18 37  1  0  0  0  0
 18 38  1  0  0  0  0
 20 21  1  0  0  0  0
 20 39  1  0  0  0  0
 20 40  1  0  0  0  0
 21 41  1  0  0  0  0
 21 42  1  0  0  0  0
M  CHG  1  15   1
M  END
> <s_m_source_file>
AV-unprocessed.smi

> <i_m_source_file_index>
1395

> <i_lp_mmshare_version>
43012

> <i_f3d_flags>
0

> <s_epik_input>
W0NIM11jMVtjSF1bY0hdW2NIXW5jMVtOSF1DKD1PKVtOSF1bQ0hdMltDSDJdW0NIMl1OKFtDSDJdW0NIMl0yKVtDSDJdQyg9TylbTkgyXQ==

> <s_epik_cmdline>
J2VwaWtfcHl0aG9uJywgJy1waCcsICc3LjAnLCAnLXRuJywgJzgnLCAnLW1hJywgJzIwMCcsICctbWV0YWxfYmluZGluZycsICctaW1hZScsICc8aW5maWxlLm1hZT4nLCAnLW9tYWUnLCAnPG91dGZpbGUubWFlPic=

> <r_epik_Ionization_Penalty>
0.83893

> <r_epik_Ionization_Penalty_Charging>
0.838844

> <r_epik_Ionization_Penalty_Neutral>
8.62421e-05

> <r_epik_State_Penalty>
0.8734

> <r_epik_Charging_Adjusted_Penalty>
1.71224

> <i_epik_Tot_Q>
1

> <i_epik_Tot_abs_Q>
1

> <r_epik_Metal_State_Penalty>
0.890705

> <b_epik_Metal_Only>
0

> <s_lp_Force_Field>
OPLS_2005

> <r_lp_Energy>
18.2774

> <b_lp_Chiralities_Consistent>
1

> <s_lp_Variant>
AV-unprocessed.smi:1395-3

> <Gold.Version>
5.8.1

> <Gold.Id.Protein>
6NUR|6NUR_protein|mol2

> <Gold.PLP.Fitness>
50.3752

> <Gold.PLP.PLP>
-35.5121

> <Gold.PLP.part.hbond>
-4.0000

> <Gold.PLP.part.metal>
0.0000

> <Gold.PLP.part.buried>
-6.9326

> <Gold.PLP.part.nonpolar>
-25.4923

> <Gold.PLP.part.repulsive>
0.2686

> <Gold.PLP.ligand.clash>
0.0000

> <Gold.PLP.ligand.torsion>
0.0708

> <Gold.PLP.Chemscore.Hbond>
4.9920

> <Gold.PLP.Chemscore.CHOScore>
0.0000

> <Gold.PLP.Chemscore.Metal>
0.0000

> <Gold.Chemscore.Hbonds>
donor molecule, donor type, donor heavy atom, donor atom, acceptor molecule, acceptor atom, score
      L1  H     8    28       P1  8028  0.98
      L1  H    11    29       P1  8028  1.00
      L1  H    15    43       P1 10175  2.00
      L1  H    18    38       P1 10175  1.00

> <Gold.PLP.Chemscore.Internal.Correction>
0.0286

> <Gold.Rescore>
     Score         DG    S(hbond)    S(metal)    S(lipo)     H(rot)  DE(clash)    DE(int)     intcor
     19.78     -23.27       3.78        0.00      86.97       1.96       1.42       2.06       ----

> <Gold.Chemscore.Fitness>
19.7847

> <Gold.Chemscore.DG>
-23.2720

> <Gold.Chemscore.ZeroCoef>
-5.4800

> <Gold.Chemscore.Hbond>
3.7842

> <Gold.Chemscore.Metal>
0.0000

> <Gold.Chemscore.Lipo>
86.9738

> <Gold.Chemscore.Internal_Hbond>
0.0000

> <Gold.Chemscore.DEClash>
1.4235

> <Gold.Chemscore.DEInternal>
2.0637

> <Gold.Chemscore.Rot>
1.9622

> <Gold.Chemscore.Internal.Correction>
   9.000000E+99

> <Gold.Chemscore.Hbonds>
donor molecule, donor type, donor heavy atom, donor atom, acceptor molecule, acceptor atom, score
      L1  H     8    28       P1  8028  0.86
      L1  H    11    29       P1  8028  1.00
      L1  H    15    43       P1 10175  0.82
      L1  H    18    38       P1 10175  1.00

> <Gold.Chemscore.Hbond.Weighted>
-12.6393

> <Gold.Chemscore.Metal.Weighted>
-0.0000

> <Gold.Chemscore.Lipo.Weighted>
-10.1759

> <Gold.Chemscore.Internal_Hbond.Weighted>
0.0000

> <Gold.Chemscore.DEClash.Weighted>
1.4235

> <Gold.Chemscore.DEInternal.Weighted>
2.0637

> <Gold.Chemscore.Rot.Weighted>
5.0232

> <Gold.Chemscore.Internal.Correction.Weighted>
   9.000000E+99

> <Gold.Protein.RotatedTorsions>
[ 6907 6896 6895 6894 ] final  154.91 input  -60.11 | X-H torsion
[ 7974 7965 7964 7962 ] final -160.03 input  175.53 | X-H torsion
[ 8008 7997 7996 7995 ] final   64.92 input   59.86 | X-H torsion
[ 10167 10162 10161 10158 ] final  -79.13 input  -65.29 | X-H torsion
[ 10718 10713 10712 10709 ] final  128.75 input   66.30 | X-H torsion
[ 10763 10752 10751 10750 ] final  -48.01 input  -60.55 | X-H torsion
[ 11005 11000 10999 10996 ] final  -88.60 input  -57.11 | X-H torsion

> <Gold.Protein.ActiveResidues>
 VAL166  LYS551  ARG553  GLY616  TRP617  ASP618  TYR619  PRO620  LYS621  CYS622 
 ASP623  PHE694  ASN695  SER759  ASP760  ASP761  ALA762  ILE779  LEU786  VAL792 
 PHE793  MET794  SER795  GLU796  ALA797  LYS798  CYS799  TRP800  GLU811  SER814 

> <Gold.Protein.RotatedAtoms>
  152.0517  133.4022  159.4379 H   0  0  0  0  0  0  0  0  0  0  0  0  # atno 6907 bound_to 6896
  150.6870  134.3300  159.4832 H   0  0  0  0  0  0  0  0  0  0  0  0  # atno 6908 bound_to 6896
  152.1111  134.9273  160.0617 H   0  0  0  0  0  0  0  0  0  0  0  0  # atno 6909 bound_to 6896
  144.7442  140.3599  143.6098 H   0  0  0  0  0  0  0  0  0  0  0  0  # atno 7974 bound_to 7965
  155.6537  140.3497  155.4757 H   0  0  0  0  0  0  0  0  0  0  0  0  # atno 8008 bound_to 7997
  155.9827  140.1177  157.0735 H   0  0  0  0  0  0  0  0  0  0  0  0  # atno 8009 bound_to 7997
  154.4196  140.1135  156.5443 H   0  0  0  0  0  0  0  0  0  0  0  0  # atno 8010 bound_to 7997
  140.4620  143.2451  151.8334 H   0  0  0  0  0  0  0  0  0  0  0  0  # atno 10167 bound_to 10162
  157.5216  131.1098  150.9145 H   0  0  0  0  0  0  0  0  0  0  0  0  # atno 10718 bound_to 10713
  154.0708  135.6605  153.4824 H   0  0  0  0  0  0  0  0  0  0  0  0  # atno 10763 bound_to 10752
  153.0391  135.5157  154.7569 H   0  0  0  0  0  0  0  0  0  0  0  0  # atno 10764 bound_to 10752
  154.6634  135.3018  154.9804 H   0  0  0  0  0  0  0  0  0  0  0  0  # atno 10765 bound_to 10752
  141.1599  133.7580  156.9475 H   0  0  0  0  0  0  0  0  0  0  0  0  # atno 11005 bound_to 11000
  145.7188  139.1704  143.2497 LP  0  0  0  0  0  0  0  0  0  0  0  0  # atno 17320 bound_to 7965
  146.1293  140.7207  142.9420 LP  0  0  0  0  0  0  0  0  0  0  0  0  # atno 17321 bound_to 7965
  139.4807  144.4996  151.9078 LP  0  0  0  0  0  0  0  0  0  0  0  0  # atno 17342 bound_to 10162
  140.4081  144.2405  150.5890 LP  0  0  0  0  0  0  0  0  0  0  0  0  # atno 17343 bound_to 10162
  156.9754  130.5506  149.5293 LP  0  0  0  0  0  0  0  0  0  0  0  0  # atno 17370 bound_to 10713
  156.0357  130.5445  150.8648 LP  0  0  0  0  0  0  0  0  0  0  0  0  # atno 17371 bound_to 10713
  140.1280  134.9374  157.2297 LP  0  0  0  0  0  0  0  0  0  0  0  0  # atno 17394 bound_to 11000
  140.2989  134.3155  155.7295 LP  0  0  0  0  0  0  0  0  0  0  0  0  # atno 17395 bound_to 11000

$$$$
