AV-unprocessed.smi:698|AV-procd|sdf|3398|dock1
  -GOLD-   22720 0383D 1   1.00000     0.00000
 Structure written by MMmdl.
 33 34  0  0  0  0  0  0  0  0  1 V2000
  154.8365  141.0799  160.1949 C   0  0  0  0  0  0  0  0  0  0  0  0
  153.7691  141.2792  161.2734 C   0  0  0  0  0  0  0  0  0  0  0  0
  153.2374  142.5956  161.1544 O   0  0  0  0  0  0  0  0  0  0  0  0
  152.6053  142.9451  159.9786 C   0  0  0  0  0  0  0  0  0  0  0  0
  152.1542  144.2692  159.8213 C   0  0  0  0  0  0  0  0  0  0  0  0
  151.5111  144.6207  158.6212 C   0  0  0  0  0  0  0  0  0  0  0  0
  151.3418  143.6381  157.6271 C   0  0  0  0  0  0  0  0  0  0  0  0
  151.8193  142.3291  157.8580 C   0  0  0  0  0  0  0  0  0  0  0  0
  151.5994  141.4101  156.7979 N   0  0  0  0  0  0  0  0  0  0  0  0
  152.1376  140.1877  156.6284 C   0  0  0  0  0  0  0  0  0  0  0  0
  152.9234  139.6544  157.4131 O   0  0  0  0  0  0  0  0  0  0  0  0
  151.6914  139.4418  155.3651 C   0  0  1  0  0  0  0  0  0  0  0  0
  150.9726  138.1047  155.6310 C   0  0  0  0  0  0  0  0  0  0  0  0
  149.5421  138.3739  155.2053 C   0  0  0  0  0  0  0  0  0  0  0  0
  149.7288  139.4377  154.1332 C   0  0  0  0  0  0  0  0  0  0  0  0
  150.7482  140.2607  154.6767 O   0  0  0  0  0  0  0  0  0  0  0  0
  152.4405  142.0029  159.0178 N   0  0  0  0  0  0  0  0  0  0  0  0
  155.2593  140.0763  160.2470 H   0  0  0  0  0  0  0  0  0  0  0  0
  155.6520  141.7934  160.3149 H   0  0  0  0  0  0  0  0  0  0  0  0
  154.4159  141.2145  159.1981 H   0  0  0  0  0  0  0  0  0  0  0  0
  152.9782  140.5378  161.1470 H   0  0  0  0  0  0  0  0  0  0  0  0
  154.2135  141.1337  162.2594 H   0  0  0  0  0  0  0  0  0  0  0  0
  152.2989  144.9990  160.6041 H   0  0  0  0  0  0  0  0  0  0  0  0
  151.1526  145.6273  158.4649 H   0  0  0  0  0  0  0  0  0  0  0  0
  150.8486  143.8915  156.6998 H   0  0  0  0  0  0  0  0  0  0  0  0
  150.9533  141.7144  156.0847 H   0  0  0  0  0  0  0  0  0  0  0  0
  152.5493  139.2674  154.7131 H   0  0  0  0  0  0  0  0  0  0  0  0
  151.4073  137.3259  155.0032 H   0  0  0  0  0  0  0  0  0  0  0  0
  151.0332  137.7571  156.6631 H   0  0  0  0  0  0  0  0  0  0  0  0
  149.0274  137.4847  154.8408 H   0  0  0  0  0  0  0  0  0  0  0  0
  148.9727  138.7824  156.0413 H   0  0  0  0  0  0  0  0  0  0  0  0
  150.0747  138.9944  153.1982 H   0  0  0  0  0  0  0  0  0  0  0  0
  148.8183  140.0029  153.9340 H   0  0  0  0  0  0  0  0  0  0  0  0
  1  2  1  0  0  0  0
  1 18  1  0  0  0  0
  1 19  1  0  0  0  0
  1 20  1  0  0  0  0
  2  3  1  0  0  0  0
  2 21  1  0  0  0  0
  2 22  1  0  0  0  0
  3  4  1  0  0  0  0
  4 17  1  0  0  0  0
  4  5  2  0  0  0  0
  5  6  1  0  0  0  0
  5 23  1  0  0  0  0
  6  7  2  0  0  0  0
  6 24  1  0  0  0  0
  7  8  1  0  0  0  0
  7 25  1  0  0  0  0
  8  9  1  0  0  0  0
  8 17  2  0  0  0  0
  9 10  1  0  0  0  0
  9 26  1  0  0  0  0
 10 11  2  0  0  0  0
 10 12  1  0  0  0  0
 12 16  1  0  0  0  0
 12 13  1  0  0  0  0
 12 27  1  0  0  0  0
 13 14  1  0  0  0  0
 13 28  1  0  0  0  0
 13 29  1  0  0  0  0
 14 15  1  0  0  0  0
 14 30  1  0  0  0  0
 14 31  1  0  0  0  0
 15 16  1  0  0  0  0
 15 32  1  0  0  0  0
 15 33  1  0  0  0  0
M  END
> <s_m_source_file>
AV-unprocessed.smi

> <i_m_source_file_index>
698

> <i_lp_mmshare_version>
43012

> <i_f3d_flags>
0

> <s_epik_input>
W0NIM11bQ0gyXU9jMVtjSF1bY0hdW2NIXWMobjEpW05IXUMoPU8pW0NAQEhdMltDSDJdW0NIMl1bQ0gyXU8y

> <s_epik_cmdline>
J2VwaWtfcHl0aG9uJywgJy1waCcsICc3LjAnLCAnLXRuJywgJzgnLCAnLW1hJywgJzIwMCcsICctbWV0YWxfYmluZGluZycsICctaW1hZScsICc8aW5maWxlLm1hZT4nLCAnLW9tYWUnLCAnPG91dGZpbGUubWFlPic=

> <r_lp_tautomer_probability>
1

> <r_epik_Ionization_Penalty>
3.42089e-05

> <r_epik_Ionization_Penalty_Charging>
0

> <r_epik_Ionization_Penalty_Neutral>
3.42089e-05

> <r_epik_State_Penalty>
-0

> <r_epik_Charging_Adjusted_Penalty>
0

> <i_epik_Tot_Q>
0

> <i_epik_Tot_abs_Q>
0

> <r_epik_Metal_State_Penalty>
-0

> <b_epik_Metal_Only>
0

> <s_lp_Force_Field>
OPLS_2005

> <r_lp_Energy>
20.5333

> <b_lp_Chiralities_Consistent>
1

> <s_lp_Variant>
AV-unprocessed.smi:698-2

> <Gold.Version>
5.8.1

> <Gold.Id.Protein>
6NUR|6NUR_protein|mol2

> <Gold.PLP.Fitness>
40.6930

> <Gold.PLP.PLP>
-34.7998

> <Gold.PLP.part.hbond>
-2.0000

> <Gold.PLP.part.metal>
0.0000

> <Gold.PLP.part.buried>
-3.5768

> <Gold.PLP.part.nonpolar>
-29.6666

> <Gold.PLP.part.repulsive>
0.1993

> <Gold.PLP.ligand.clash>
0.0000

> <Gold.PLP.ligand.torsion>
0.0597

> <Gold.PLP.Chemscore.Hbond>
2.0000

> <Gold.PLP.Chemscore.CHOScore>
0.0000

> <Gold.PLP.Chemscore.Metal>
0.0000

> <Gold.Chemscore.Hbonds>
donor molecule, donor type, donor heavy atom, donor atom, acceptor molecule, acceptor atom, score
      P1  H  7989  7998       L1    16  1.00
      P1  H  7997  8008       L1    11  1.00

> <Gold.PLP.Chemscore.Internal.Correction>
0.0127

> <Gold.Rescore>
     Score         DG    S(hbond)    S(metal)    S(lipo)     H(rot)  DE(clash)    DE(int)     intcor
     13.74     -16.59       1.75        0.00      76.10       1.42       0.09       2.76       ----

> <Gold.Chemscore.Fitness>
13.7360

> <Gold.Chemscore.DG>
-16.5874

> <Gold.Chemscore.ZeroCoef>
-5.4800

> <Gold.Chemscore.Hbond>
1.7469

> <Gold.Chemscore.Metal>
0.0000

> <Gold.Chemscore.Lipo>
76.1042

> <Gold.Chemscore.Internal_Hbond>
0.0000

> <Gold.Chemscore.DEClash>
0.0902

> <Gold.Chemscore.DEInternal>
2.7612

> <Gold.Chemscore.Rot>
1.4185

> <Gold.Chemscore.Internal.Correction>
   9.000000E+99

> <Gold.Chemscore.Hbonds>
donor molecule, donor type, donor heavy atom, donor atom, acceptor molecule, acceptor atom, score
      P1  H  7989  7998       L1    16  0.25
      P1  H  7997  8008       L1    11  0.74

> <Gold.Chemscore.Hbond.Weighted>
-5.8345

> <Gold.Chemscore.Metal.Weighted>
-0.0000

> <Gold.Chemscore.Lipo.Weighted>
-8.9042

> <Gold.Chemscore.Internal_Hbond.Weighted>
0.0000

> <Gold.Chemscore.DEClash.Weighted>
0.0902

> <Gold.Chemscore.DEInternal.Weighted>
2.7612

> <Gold.Chemscore.Rot.Weighted>
3.6313

> <Gold.Chemscore.Internal.Correction.Weighted>
   9.000000E+99

> <Gold.Protein.RotatedTorsions>
[ 6907 6896 6895 6894 ] final  -51.97 input  -60.11 | X-H torsion
[ 7974 7965 7964 7962 ] final  -89.62 input  175.53 | X-H torsion
[ 8008 7997 7996 7995 ] final  -86.76 input   59.86 | X-H torsion
[ 10167 10162 10161 10158 ] final -149.48 input  -65.29 | X-H torsion
[ 10718 10713 10712 10709 ] final   98.76 input   66.30 | X-H torsion
[ 10763 10752 10751 10750 ] final  163.94 input  -60.55 | X-H torsion
[ 11005 11000 10999 10996 ] final  -70.23 input  -57.11 | X-H torsion

> <Gold.Protein.ActiveResidues>
 VAL166  LYS551  ARG553  GLY616  TRP617  ASP618  TYR619  PRO620  LYS621  CYS622 
 ASP623  PHE694  ASN695  SER759  ASP760  ASP761  ALA762  ILE779  LEU786  VAL792 
 PHE793  MET794  SER795  GLU796  ALA797  LYS798  CYS799  TRP800  GLU811  SER814 

> <Gold.Protein.RotatedAtoms>
  150.8561  134.7900  159.7046 H   0  0  0  0  0  0  0  0  0  0  0  0  # atno 6907 bound_to 6896
  152.4612  134.5176  159.9782 H   0  0  0  0  0  0  0  0  0  0  0  0  # atno 6908 bound_to 6896
  151.5288  133.3414  159.2950 H   0  0  0  0  0  0  0  0  0  0  0  0  # atno 6909 bound_to 6896
  145.4374  140.9558  143.2094 H   0  0  0  0  0  0  0  0  0  0  0  0  # atno 7974 bound_to 7965
  154.6556  140.0574  157.0004 H   0  0  0  0  0  0  0  0  0  0  0  0  # atno 8008 bound_to 7997
  155.1306  140.3256  155.4456 H   0  0  0  0  0  0  0  0  0  0  0  0  # atno 8009 bound_to 7997
  156.2595  140.1981  156.6425 H   0  0  0  0  0  0  0  0  0  0  0  0  # atno 8010 bound_to 7997
  139.7439  143.8621  152.2569 H   0  0  0  0  0  0  0  0  0  0  0  0  # atno 10167 bound_to 10162
  157.6889  131.0649  150.4845 H   0  0  0  0  0  0  0  0  0  0  0  0  # atno 10718 bound_to 10713
  154.3014  135.2759  155.2609 H   0  0  0  0  0  0  0  0  0  0  0  0  # atno 10763 bound_to 10752
  154.5044  135.5799  153.6559 H   0  0  0  0  0  0  0  0  0  0  0  0  # atno 10764 bound_to 10752
  152.9900  135.6166  154.3185 H   0  0  0  0  0  0  0  0  0  0  0  0  # atno 10765 bound_to 10752
  141.1570  133.6784  156.6721 H   0  0  0  0  0  0  0  0  0  0  0  0  # atno 11005 bound_to 11000
  144.8143  139.5904  143.7015 LP  0  0  0  0  0  0  0  0  0  0  0  0  # atno 17320 bound_to 7965
  146.2575  139.6334  142.9385 LP  0  0  0  0  0  0  0  0  0  0  0  0  # atno 17321 bound_to 7965
  139.8579  144.7132  150.9135 LP  0  0  0  0  0  0  0  0  0  0  0  0  # atno 17342 bound_to 10162
  140.7789  143.3843  151.1422 LP  0  0  0  0  0  0  0  0  0  0  0  0  # atno 17343 bound_to 10162
  156.5175  130.4154  149.6268 LP  0  0  0  0  0  0  0  0  0  0  0  0  # atno 17370 bound_to 10713
  156.3184  130.7267  151.2174 LP  0  0  0  0  0  0  0  0  0  0  0  0  # atno 17371 bound_to 10713
  140.3167  134.8042  157.4220 LP  0  0  0  0  0  0  0  0  0  0  0  0  # atno 17394 bound_to 11000
  140.1132  134.5318  155.8248 LP  0  0  0  0  0  0  0  0  0  0  0  0  # atno 17395 bound_to 11000

$$$$
