AV-unprocessed.smi:1952|AV-procd|sdf|7887|dock3
  -GOLD-   2272010 43D 1   1.00000     0.00000
 Structure written by MMmdl.
 38 39  0  0  0  0  0  0  0  0  2 V2000
  146.1288  134.3167  162.4970 C   0  0  0  0  0  0  0  0  0  0  0  0
  147.0371  135.0854  161.5993 C   0  0  0  0  0  0  0  0  0  0  0  0
  147.9143  134.7065  160.6231 C   0  0  0  0  0  0  0  0  0  0  0  0
  148.4563  135.9422  160.1752 C   0  0  0  0  0  0  0  0  0  0  0  0
  149.3674  136.0975  159.2024 N   0  5  0  0  0  0  0  0  0  0  0  0
  149.6854  137.3358  158.7589 C   0  0  0  0  0  0  0  0  0  0  0  0
  149.0025  138.3548  158.8868 O   0  0  0  0  0  0  0  0  0  0  0  0
  150.8686  137.3964  158.1305 N   0  0  0  0  0  0  0  0  0  0  0  0
  151.4898  138.5950  157.5685 C   0  0  2  0  0  0  0  0  0  0  0  0
  151.6682  138.4310  156.0518 C   0  0  0  0  0  0  0  0  0  0  0  0
  152.8396  138.8647  158.2655 C   0  0  0  0  0  0  0  0  0  0  0  0
  152.8024  139.8207  159.3739 N   0  0  0  0  0  0  0  0  0  0  0  0
  152.4861  141.1801  158.9418 C   0  0  0  0  0  0  0  0  0  0  0  0
  152.4722  142.1675  160.1218 C   0  0  0  0  0  0  0  0  0  0  0  0
  153.7240  142.1244  160.7995 O   0  0  0  0  0  0  0  0  0  0  0  0
  154.0423  140.8219  161.2783 C   0  0  0  0  0  0  0  0  0  0  0  0
  154.0672  139.8335  160.1000 C   0  0  0  0  0  0  0  0  0  0  0  0
  147.9401  136.9806  160.8112 N   0  0  0  0  0  0  0  0  0  0  0  0
  147.0345  136.4392  161.7316 O   0  0  0  0  0  0  0  0  0  0  0  0
  145.4385  133.7061  161.9148 H   0  0  0  0  0  0  0  0  0  0  0  0
  145.5401  134.9837  163.1274 H   0  0  0  0  0  0  0  0  0  0  0  0
  146.7003  133.6546  163.1474 H   0  0  0  0  0  0  0  0  0  0  0  0
  148.1381  133.7058  160.2861 H   0  0  0  0  0  0  0  0  0  0  0  0
  151.3936  136.5378  158.0540 H   0  0  0  0  0  0  0  0  0  0  0  0
  150.8387  139.4548  157.7293 H   0  0  0  0  0  0  0  0  0  0  0  0
  152.1249  139.3188  155.6137 H   0  0  0  0  0  0  0  0  0  0  0  0
  150.7087  138.2772  155.5565 H   0  0  0  0  0  0  0  0  0  0  0  0
  152.3046  137.5775  155.8162 H   0  0  0  0  0  0  0  0  0  0  0  0
  153.2154  137.9117  158.6409 H   0  0  0  0  0  0  0  0  0  0  0  0
  153.5664  139.1977  157.5230 H   0  0  0  0  0  0  0  0  0  0  0  0
  153.2138  141.5116  158.1996 H   0  0  0  0  0  0  0  0  0  0  0  0
  151.5095  141.2070  158.4593 H   0  0  0  0  0  0  0  0  0  0  0  0
  152.2932  143.1819  159.7656 H   0  0  0  0  0  0  0  0  0  0  0  0
  151.6665  141.9249  160.8165 H   0  0  0  0  0  0  0  0  0  0  0  0
  155.0142  140.8496  161.7710 H   0  0  0  0  0  0  0  0  0  0  0  0
  153.3112  140.5125  162.0269 H   0  0  0  0  0  0  0  0  0  0  0  0
  154.2893  138.8336  160.4742 H   0  0  0  0  0  0  0  0  0  0  0  0
  154.8799  140.1011  159.4229 H   0  0  0  0  0  0  0  0  0  0  0  0
  1  2  1  0  0  0  0
  1 20  1  0  0  0  0
  1 21  1  0  0  0  0
  1 22  1  0  0  0  0
  2 19  1  0  0  0  0
  2  3  2  0  0  0  0
  3  4  1  0  0  0  0
  3 23  1  0  0  0  0
  4  5  1  0  0  0  0
  4 18  2  0  0  0  0
  5  6  1  0  0  0  0
  6  7  2  0  0  0  0
  6  8  1  0  0  0  0
  8  9  1  0  0  0  0
  8 24  1  0  0  0  0
  9 10  1  0  0  0  0
  9 11  1  0  0  0  0
  9 25  1  0  0  0  0
 10 26  1  0  0  0  0
 10 27  1  0  0  0  0
 10 28  1  0  0  0  0
 11 12  1  0  0  0  0
 11 29  1  0  0  0  0
 11 30  1  0  0  0  0
 12 17  1  0  0  0  0
 12 13  1  0  0  0  0
 13 14  1  0  0  0  0
 13 31  1  0  0  0  0
 13 32  1  0  0  0  0
 14 15  1  0  0  0  0
 14 33  1  0  0  0  0
 14 34  1  0  0  0  0
 15 16  1  0  0  0  0
 16 17  1  0  0  0  0
 16 35  1  0  0  0  0
 16 36  1  0  0  0  0
 17 37  1  0  0  0  0
 17 38  1  0  0  0  0
 18 19  1  0  0  0  0
M  CHG  1   5  -1
M  END
> <s_m_source_file>
AV-unprocessed.smi

> <i_m_source_file_index>
1952

> <i_lp_mmshare_version>
43012

> <i_f3d_flags>
0

> <s_epik_input>
W0NIM11jMVtjSF1jKG5vMSlbTkhdQyg9TylbTkhdW0NASF0oW0NIM10pW0NIMl1OMltDSDJdW0NIMl1PW0NIMl1bQ0gyXTI=

> <s_epik_cmdline>
J2VwaWtfcHl0aG9uJywgJy1waCcsICc3LjAnLCAnLXRuJywgJzgnLCAnLW1hJywgJzIwMCcsICctbWV0YWxfYmluZGluZycsICctaW1hZScsICc8aW5maWxlLm1hZT4nLCAnLW9tYWUnLCAnPG91dGZpbGUubWFlPic=

> <r_epik_Ionization_Penalty>
6.81701

> <r_epik_Ionization_Penalty_Charging>
6.50532

> <r_epik_Ionization_Penalty_Neutral>
0.311686

> <r_epik_State_Penalty>
6.70952

> <r_epik_Charging_Adjusted_Penalty>
13.2148

> <i_epik_Tot_Q>
-1

> <i_epik_Tot_abs_Q>
1

> <r_epik_Metal_State_Penalty>
2.64135

> <b_epik_Metal_Only>
1

> <s_lp_Force_Field>
OPLS_2005

> <r_lp_Energy>
18.9741

> <b_lp_Chiralities_Consistent>
1

> <s_lp_Variant>
AV-unprocessed.smi:1952-5

> <Gold.Version>
5.8.1

> <Gold.Id.Protein>
6NUR|6NUR_protein|mol2

> <Gold.PLP.Fitness>
40.7221

> <Gold.PLP.PLP>
-31.6829

> <Gold.PLP.part.hbond>
-4.4659

> <Gold.PLP.part.metal>
0.0000

> <Gold.PLP.part.buried>
-4.4987

> <Gold.PLP.part.nonpolar>
-22.8851

> <Gold.PLP.part.repulsive>
0.0930

> <Gold.PLP.ligand.clash>
0.0000

> <Gold.PLP.ligand.torsion>
0.6456

> <Gold.PLP.Chemscore.Hbond>
3.4249

> <Gold.PLP.Chemscore.CHOScore>
0.0000

> <Gold.PLP.Chemscore.Metal>
0.0000

> <Gold.Chemscore.Hbonds>
donor molecule, donor type, donor heavy atom, donor atom, acceptor molecule, acceptor atom, score
      P1  H  6896  6909       L1     5  2.00
      P1  H  6931  6943       L1    18  0.96
      P1  H  6934  6947       L1    18  0.41

> <Gold.PLP.Chemscore.Internal.Correction>
0.0559

> <Gold.Rescore>
     Score         DG    S(hbond)    S(metal)    S(lipo)     H(rot)  DE(clash)    DE(int)     intcor
     14.34     -16.46       1.96        0.00      71.45       1.53       0.01       2.12       ----

> <Gold.Chemscore.Fitness>
14.3362

> <Gold.Chemscore.DG>
-16.4595

> <Gold.Chemscore.ZeroCoef>
-5.4800

> <Gold.Chemscore.Hbond>
1.9584

> <Gold.Chemscore.Metal>
0.0000

> <Gold.Chemscore.Lipo>
71.4491

> <Gold.Chemscore.Internal_Hbond>
0.0000

> <Gold.Chemscore.DEClash>
0.0058

> <Gold.Chemscore.DEInternal>
2.1175

> <Gold.Chemscore.Rot>
1.5317

> <Gold.Chemscore.Internal.Correction>
   9.000000E+99

> <Gold.Chemscore.Hbonds>
donor molecule, donor type, donor heavy atom, donor atom, acceptor molecule, acceptor atom, score
      P1  H  6896  6909       L1     5  0.38
      P1  H  6931  6943       L1    18  0.39
      P1  H  6934  6947       L1    18  0.06

> <Gold.Chemscore.Hbond.Weighted>
-6.5411

> <Gold.Chemscore.Metal.Weighted>
-0.0000

> <Gold.Chemscore.Lipo.Weighted>
-8.3595

> <Gold.Chemscore.Internal_Hbond.Weighted>
0.0000

> <Gold.Chemscore.DEClash.Weighted>
0.0058

> <Gold.Chemscore.DEInternal.Weighted>
2.1175

> <Gold.Chemscore.Rot.Weighted>
3.9211

> <Gold.Chemscore.Internal.Correction.Weighted>
   9.000000E+99

> <Gold.Protein.RotatedTorsions>
[ 6907 6896 6895 6894 ] final   51.71 input  -60.11 | X-H torsion
[ 7974 7965 7964 7962 ] final -108.84 input  175.53 | X-H torsion
[ 8008 7997 7996 7995 ] final  106.53 input   59.86 | X-H torsion
[ 10167 10162 10161 10158 ] final   61.91 input  -65.29 | X-H torsion
[ 10718 10713 10712 10709 ] final   16.76 input   66.30 | X-H torsion
[ 10763 10752 10751 10750 ] final -170.71 input  -60.55 | X-H torsion
[ 11005 11000 10999 10996 ] final   -0.66 input  -57.11 | X-H torsion

> <Gold.Protein.ActiveResidues>
 VAL166  LYS551  ARG553  GLY616  TRP617  ASP618  TYR619  PRO620  LYS621  CYS622 
 ASP623  PHE694  ASN695  SER759  ASP760  ASP761  ALA762  ILE779  LEU786  VAL792 
 PHE793  MET794  SER795  GLU796  ALA797  LYS798  CYS799  TRP800  GLU811  SER814 

> <Gold.Protein.RotatedAtoms>
  152.3156  134.7444  160.0325 H   0  0  0  0  0  0  0  0  0  0  0  0  # atno 6907 bound_to 6896
  151.7910  133.3354  159.3507 H   0  0  0  0  0  0  0  0  0  0  0  0  # atno 6908 bound_to 6896
  150.7342  134.5773  159.5965 H   0  0  0  0  0  0  0  0  0  0  0  0  # atno 6909 bound_to 6896
  145.1878  140.9001  143.3442 H   0  0  0  0  0  0  0  0  0  0  0  0  # atno 7974 bound_to 7965
  156.1750  140.3111  155.9043 H   0  0  0  0  0  0  0  0  0  0  0  0  # atno 8008 bound_to 7997
  155.3506  140.0471  157.3063 H   0  0  0  0  0  0  0  0  0  0  0  0  # atno 8009 bound_to 7997
  154.5281  140.2221  155.8864 H   0  0  0  0  0  0  0  0  0  0  0  0  # atno 8010 bound_to 7997
  140.1496  144.4475  150.6766 H   0  0  0  0  0  0  0  0  0  0  0  0  # atno 10167 bound_to 10162
  157.0724  130.6354  149.5808 H   0  0  0  0  0  0  0  0  0  0  0  0  # atno 10718 bound_to 10713
  154.6385  135.2895  155.0132 H   0  0  0  0  0  0  0  0  0  0  0  0  # atno 10763 bound_to 10752
  154.1266  135.6540  153.4917 H   0  0  0  0  0  0  0  0  0  0  0  0  # atno 10764 bound_to 10752
  153.0315  135.5300  154.7242 H   0  0  0  0  0  0  0  0  0  0  0  0  # atno 10765 bound_to 10752
  140.6387  133.9509  155.8314 H   0  0  0  0  0  0  0  0  0  0  0  0  # atno 11005 bound_to 11000
  145.0071  139.3544  143.6138 LP  0  0  0  0  0  0  0  0  0  0  0  0  # atno 17320 bound_to 7965
  146.3441  139.9318  142.8752 LP  0  0  0  0  0  0  0  0  0  0  0  0  # atno 17321 bound_to 7965
  140.6710  143.2286  151.5624 LP  0  0  0  0  0  0  0  0  0  0  0  0  # atno 17342 bound_to 10162
  139.5432  144.2591  152.1392 LP  0  0  0  0  0  0  0  0  0  0  0  0  # atno 17343 bound_to 10162
  155.9946  130.5011  150.7428 LP  0  0  0  0  0  0  0  0  0  0  0  0  # atno 17370 bound_to 10713
  157.4867  131.0907  151.0474 LP  0  0  0  0  0  0  0  0  0  0  0  0  # atno 17371 bound_to 10713
  141.0623  134.0329  157.3642 LP  0  0  0  0  0  0  0  0  0  0  0  0  # atno 17394 bound_to 11000
  139.9088  135.0186  156.7604 LP  0  0  0  0  0  0  0  0  0  0  0  0  # atno 17395 bound_to 11000

$$$$
