AV-unprocessed.smi:1291|AV-procd|sdf|5392|dock6
  -GOLD-   22720 4543D 1   1.00000     0.00000
 Structure written by MMmdl.
 43 45  0  0  0  0  0  0  0  0  1 V2000
  151.5815  140.0767  154.8532 O   0  0  0  0  0  0  0  0  0  0  0  0
  150.6495  140.3421  155.8824 C   0  0  0  0  0  0  0  0  0  0  0  0
  151.2658  140.8872  157.1399 C   0  0  0  0  0  0  0  0  0  0  0  0
  150.9800  142.0978  157.6258 N   0  0  0  0  0  0  0  0  0  0  0  0
  151.7521  142.1601  158.7687 C   0  0  0  0  0  0  0  0  0  0  0  0
  151.8930  143.1895  159.7269 C   0  0  0  0  0  0  0  0  0  0  0  0
  152.7547  143.0238  160.8311 C   0  0  0  0  0  0  0  0  0  0  0  0
  153.4852  141.8288  160.9931 C   0  0  0  0  0  0  0  0  0  0  0  0
  153.3578  140.7902  160.0508 C   0  0  0  0  0  0  0  0  0  0  0  0
  152.4974  140.9612  158.9495 C   0  0  0  0  0  0  0  0  0  0  0  0
  152.1523  140.1595  157.8651 N   0  0  0  0  0  0  0  0  0  0  0  0
  152.6492  138.8165  157.5917 C   0  0  0  0  0  0  0  0  0  0  0  0
  152.0559  137.7474  158.5329 C   0  0  1  0  0  0  0  0  0  0  0  0
  152.6319  137.8817  159.8178 O   0  0  0  0  0  0  0  0  0  0  0  0
  150.5315  137.8924  158.6671 C   0  0  0  0  0  0  0  0  0  0  0  0
  150.0146  136.7647  159.3541 O   0  0  0  0  0  0  0  0  0  0  0  0
  148.6072  136.6356  159.2233 C   0  0  0  0  0  0  0  0  0  0  0  0
  147.9848  135.7977  160.3279 C   0  0  0  0  0  0  0  0  0  0  0  0
  147.9096  136.2830  161.6529 C   0  0  0  0  0  0  0  0  0  0  0  0
  147.3383  135.4912  162.6678 C   0  0  0  0  0  0  0  0  0  0  0  0
  146.8436  134.2080  162.3670 C   0  0  0  0  0  0  0  0  0  0  0  0
  146.9235  133.7158  161.0505 C   0  0  0  0  0  0  0  0  0  0  0  0
  147.4944  134.5063  160.0339 C   0  0  0  0  0  0  0  0  0  0  0  0
  147.5701  134.0185  158.7722 F   0  0  0  0  0  0  0  0  0  0  0  0
  151.7383  139.1456  154.8214 H   0  0  0  0  0  0  0  0  0  0  0  0
  149.9156  141.0560  155.5082 H   0  0  0  0  0  0  0  0  0  0  0  0
  150.1208  139.4171  156.1103 H   0  0  0  0  0  0  0  0  0  0  0  0
  151.3373  144.1081  159.6112 H   0  0  0  0  0  0  0  0  0  0  0  0
  152.8558  143.8173  161.5567 H   0  0  0  0  0  0  0  0  0  0  0  0
  154.1441  141.7102  161.8409 H   0  0  0  0  0  0  0  0  0  0  0  0
  153.9172  139.8747  160.1721 H   0  0  0  0  0  0  0  0  0  0  0  0
  152.4225  138.5704  156.5535 H   0  0  0  0  0  0  0  0  0  0  0  0
  153.7369  138.8234  157.6658 H   0  0  0  0  0  0  0  0  0  0  0  0
  152.2951  136.7565  158.1465 H   0  0  0  0  0  0  0  0  0  0  0  0
  153.5723  137.8913  159.7271 H   0  0  0  0  0  0  0  0  0  0  0  0
  150.2676  138.8235  159.1722 H   0  0  0  0  0  0  0  0  0  0  0  0
  150.0773  137.9238  157.6755 H   0  0  0  0  0  0  0  0  0  0  0  0
  148.1512  137.6269  159.2352 H   0  0  0  0  0  0  0  0  0  0  0  0
  148.3636  136.1750  158.2647 H   0  0  0  0  0  0  0  0  0  0  0  0
  148.2873  137.2635  161.9026 H   0  0  0  0  0  0  0  0  0  0  0  0
  147.2803  135.8689  163.6780 H   0  0  0  0  0  0  0  0  0  0  0  0
  146.4054  133.6012  163.1455 H   0  0  0  0  0  0  0  0  0  0  0  0
  146.5471  132.7301  160.8200 H   0  0  0  0  0  0  0  0  0  0  0  0
  1  2  1  0  0  0  0
  1 25  1  0  0  0  0
  2  3  1  0  0  0  0
  2 26  1  0  0  0  0
  2 27  1  0  0  0  0
  3 11  1  0  0  0  0
  3  4  2  0  0  0  0
  4  5  1  0  0  0  0
  5 10  2  0  0  0  0
  5  6  1  0  0  0  0
  6  7  2  0  0  0  0
  6 28  1  0  0  0  0
  7  8  1  0  0  0  0
  7 29  1  0  0  0  0
  8  9  2  0  0  0  0
  8 30  1  0  0  0  0
  9 10  1  0  0  0  0
  9 31  1  0  0  0  0
 10 11  1  0  0  0  0
 11 12  1  0  0  0  0
 12 13  1  0  0  0  0
 12 32  1  0  0  0  0
 12 33  1  0  0  0  0
 13 14  1  0  0  0  0
 13 15  1  0  0  0  0
 13 34  1  0  0  0  0
 14 35  1  0  0  0  0
 15 16  1  0  0  0  0
 15 36  1  0  0  0  0
 15 37  1  0  0  0  0
 16 17  1  0  0  0  0
 17 18  1  0  0  0  0
 17 38  1  0  0  0  0
 17 39  1  0  0  0  0
 18 23  1  0  0  0  0
 18 19  2  0  0  0  0
 19 20  1  0  0  0  0
 19 40  1  0  0  0  0
 20 21  2  0  0  0  0
 20 41  1  0  0  0  0
 21 22  1  0  0  0  0
 21 42  1  0  0  0  0
 22 23  2  0  0  0  0
 22 43  1  0  0  0  0
 23 24  1  0  0  0  0
M  END
> <s_m_source_file>
AV-unprocessed.smi

> <i_m_source_file_index>
1291

> <i_lp_mmshare_version>
43012

> <i_f3d_flags>
0

> <s_epik_input>
W2NIXTFbY0hdW2NIXVtjSF1jKGMxMiluKGMobjIpW0NIMl1bT0hdKVtDSDJdW0NASF0oW09IXSlbQ0gyXU9bQ0gyXWMzW2NIXVtjSF1bY0hdW2NIXWMzRg==

> <s_epik_cmdline>
J2VwaWtfcHl0aG9uJywgJy1waCcsICc3LjAnLCAnLXRuJywgJzgnLCAnLW1hJywgJzIwMCcsICctbWV0YWxfYmluZGluZycsICctaW1hZScsICc8aW5maWxlLm1hZT4nLCAnLW9tYWUnLCAnPG91dGZpbGUubWFlPic=

> <r_epik_Ionization_Penalty>
0.0649918

> <r_epik_Ionization_Penalty_Charging>
0

> <r_epik_Ionization_Penalty_Neutral>
0.0649918

> <r_epik_State_Penalty>
0.0565791

> <r_epik_Charging_Adjusted_Penalty>
0.0565791

> <i_epik_Tot_Q>
0

> <i_epik_Tot_abs_Q>
0

> <r_epik_Metal_State_Penalty>
5.93658e-05

> <b_epik_Metal_Only>
0

> <s_lp_Force_Field>
OPLS_2005

> <r_lp_Energy>
17.1818

> <b_lp_Chiralities_Consistent>
1

> <s_lp_Variant>
AV-unprocessed.smi:1291-2

> <Gold.Version>
5.8.1

> <Gold.Id.Protein>
6NUR|6NUR_protein|mol2

> <Gold.PLP.Fitness>
57.4334

> <Gold.PLP.PLP>
-52.4011

> <Gold.PLP.part.hbond>
-2.0000

> <Gold.PLP.part.metal>
0.0000

> <Gold.PLP.part.buried>
-7.0696

> <Gold.PLP.part.nonpolar>
-43.3468

> <Gold.PLP.part.repulsive>
0.0511

> <Gold.PLP.ligand.clash>
0.0000

> <Gold.PLP.ligand.torsion>
0.5715

> <Gold.PLP.Chemscore.Hbond>
1.9920

> <Gold.PLP.Chemscore.CHOScore>
0.0000

> <Gold.PLP.Chemscore.Metal>
0.0000

> <Gold.Chemscore.Hbonds>
donor molecule, donor type, donor heavy atom, donor atom, acceptor molecule, acceptor atom, score
      P1  H  6896  6909       L1    16  0.83
      P1  H  7989  7998       L1     1  1.00

> <Gold.PLP.Chemscore.Internal.Correction>
0.1993

> <Gold.Rescore>
     Score         DG    S(hbond)    S(metal)    S(lipo)     H(rot)  DE(clash)    DE(int)     intcor
     18.18     -18.99       1.91        0.00     133.97       3.33       0.11       0.70       ----

> <Gold.Chemscore.Fitness>
18.1759

> <Gold.Chemscore.DG>
-18.9911

> <Gold.Chemscore.ZeroCoef>
-5.4800

> <Gold.Chemscore.Hbond>
1.9057

> <Gold.Chemscore.Metal>
0.0000

> <Gold.Chemscore.Lipo>
133.9735

> <Gold.Chemscore.Internal_Hbond>
0.0000

> <Gold.Chemscore.DEClash>
0.1132

> <Gold.Chemscore.DEInternal>
0.7020

> <Gold.Chemscore.Rot>
3.3316

> <Gold.Chemscore.Internal.Correction>
   9.000000E+99

> <Gold.Chemscore.Hbonds>
donor molecule, donor type, donor heavy atom, donor atom, acceptor molecule, acceptor atom, score
      P1  H  6896  6909       L1    16  0.57
      P1  H  7989  7998       L1     1  0.90

> <Gold.Chemscore.Hbond.Weighted>
-6.3650

> <Gold.Chemscore.Metal.Weighted>
-0.0000

> <Gold.Chemscore.Lipo.Weighted>
-15.6749

> <Gold.Chemscore.Internal_Hbond.Weighted>
0.0000

> <Gold.Chemscore.DEClash.Weighted>
0.1132

> <Gold.Chemscore.DEInternal.Weighted>
0.7020

> <Gold.Chemscore.Rot.Weighted>
8.5288

> <Gold.Chemscore.Internal.Correction.Weighted>
   9.000000E+99

> <Gold.Protein.RotatedTorsions>
[ 6907 6896 6895 6894 ] final   68.98 input  -60.11 | X-H torsion
[ 7974 7965 7964 7962 ] final   68.00 input  175.53 | X-H torsion
[ 8008 7997 7996 7995 ] final   -1.52 input   59.86 | X-H torsion
[ 10167 10162 10161 10158 ] final  -63.54 input  -65.29 | X-H torsion
[ 10718 10713 10712 10709 ] final    5.87 input   66.30 | X-H torsion
[ 10763 10752 10751 10750 ] final -159.59 input  -60.55 | X-H torsion
[ 11005 11000 10999 10996 ] final   61.15 input  -57.11 | X-H torsion

> <Gold.Protein.ActiveResidues>
 VAL166  LYS551  ARG553  GLY616  TRP617  ASP618  TYR619  PRO620  LYS621  CYS622 
 ASP623  PHE694  ASN695  SER759  ASP760  ASP761  ALA762  ILE779  LEU786  VAL792 
 PHE793  MET794  SER795  GLU796  ALA797  LYS798  CYS799  TRP800  GLU811  SER814 

> <Gold.Protein.RotatedAtoms>
  152.4656  134.5082  159.9745 H   0  0  0  0  0  0  0  0  0  0  0  0  # atno 6907 bound_to 6896
  151.5121  133.3477  159.2894 H   0  0  0  0  0  0  0  0  0  0  0  0  # atno 6908 bound_to 6896
  150.8639  134.8027  159.7166 H   0  0  0  0  0  0  0  0  0  0  0  0  # atno 6909 bound_to 6896
  145.8079  139.3017  143.1116 H   0  0  0  0  0  0  0  0  0  0  0  0  # atno 7974 bound_to 7965
  154.6459  140.2557  155.7269 H   0  0  0  0  0  0  0  0  0  0  0  0  # atno 8008 bound_to 7997
  156.2551  140.2878  156.0792 H   0  0  0  0  0  0  0  0  0  0  0  0  # atno 8009 bound_to 7997
  155.1525  140.0382  157.2814 H   0  0  0  0  0  0  0  0  0  0  0  0  # atno 8010 bound_to 7997
  140.5863  143.2334  151.6235 H   0  0  0  0  0  0  0  0  0  0  0  0  # atno 10167 bound_to 10162
  156.9137  130.5765  149.5647 H   0  0  0  0  0  0  0  0  0  0  0  0  # atno 10718 bound_to 10713
  154.7462  135.3081  154.8640 H   0  0  0  0  0  0  0  0  0  0  0  0  # atno 10763 bound_to 10752
  153.9440  135.6771  153.4748 H   0  0  0  0  0  0  0  0  0  0  0  0  # atno 10764 bound_to 10752
  153.1059  135.4889  154.8876 H   0  0  0  0  0  0  0  0  0  0  0  0  # atno 10765 bound_to 10752
  140.0181  134.6194  155.9679 H   0  0  0  0  0  0  0  0  0  0  0  0  # atno 11005 bound_to 11000
  145.9808  140.8684  143.0115 LP  0  0  0  0  0  0  0  0  0  0  0  0  # atno 17320 bound_to 7965
  144.6761  140.2078  143.7380 LP  0  0  0  0  0  0  0  0  0  0  0  0  # atno 17321 bound_to 7965
  139.5200  144.3237  152.0888 LP  0  0  0  0  0  0  0  0  0  0  0  0  # atno 17342 bound_to 10162
  140.2394  144.4285  150.6266 LP  0  0  0  0  0  0  0  0  0  0  0  0  # atno 17343 bound_to 10162
  156.0523  130.5591  150.9017 LP  0  0  0  0  0  0  0  0  0  0  0  0  # atno 17370 bound_to 10713
  157.5951  131.0943  150.9054 LP  0  0  0  0  0  0  0  0  0  0  0  0  # atno 17371 bound_to 10713
  141.1756  133.6540  156.4817 LP  0  0  0  0  0  0  0  0  0  0  0  0  # atno 17394 bound_to 11000
  140.4435  134.6994  157.5004 LP  0  0  0  0  0  0  0  0  0  0  0  0  # atno 17395 bound_to 11000

$$$$
