AV-unprocessed.smi:2279|AV-procd|sdf|9187|dock1
  -GOLD-   2272012403D 1   1.00000     0.00000
 Structure written by MMmdl.
 57 59  0  0  0  0  0  0  0  0  2 V2000
  152.1394  145.9393  160.3957 C   0  0  0  0  0  0  0  0  0  0  0  0
  152.0408  144.5616  159.7746 C   0  0  0  0  0  0  0  0  0  0  0  0
  152.7857  143.4818  160.2865 C   0  0  0  0  0  0  0  0  0  0  0  0
  152.6485  142.2257  159.6637 C   0  0  0  0  0  0  0  0  0  0  0  0
  153.4151  141.0197  160.1636 C   0  0  0  0  0  0  0  0  0  0  0  0
  151.8414  142.0135  158.6023 N   0  0  0  0  0  0  0  0  0  0  0  0
  151.1203  143.0464  158.1000 C   0  0  0  0  0  0  0  0  0  0  0  0
  150.2441  142.9290  156.9885 N   0  0  0  0  0  0  0  0  0  0  0  0
  149.6853  141.8146  156.4843 C   0  0  0  0  0  0  0  0  0  0  0  0
  149.8495  140.6743  156.9198 O   0  0  0  0  0  0  0  0  0  0  0  0
  148.9132  142.0963  155.4247 N   0  0  0  0  0  0  0  0  0  0  0  0
  148.1803  141.1124  154.6333 C   0  0  0  0  0  0  0  0  0  0  0  0
  146.8753  140.7375  155.3394 C   0  0  0  0  0  0  0  0  0  0  0  0
  146.1355  139.6221  154.5806 C   0  0  0  0  0  0  0  0  0  0  0  0
  146.9524  138.4017  154.4605 N   0  0  0  0  0  0  0  0  0  0  0  0
  146.2085  137.3097  153.7914 C   0  0  2  0  0  0  0  0  0  0  0  0
  146.8129  135.9165  154.1195 C   0  0  0  0  0  0  0  0  0  0  0  0
  146.1434  134.7762  153.3362 C   0  0  0  0  0  0  0  0  0  0  0  0
  146.2188  135.0163  151.8785 N   0  3  1  0  0  0  0  0  0  0  0  0
  145.7093  133.8737  151.0903 C   0  0  0  0  0  0  0  0  0  0  0  0
  145.5643  136.2919  151.5143 C   0  0  0  0  0  0  0  0  0  0  0  0
  146.2145  137.4765  152.2466 C   0  0  0  0  0  0  0  0  0  0  0  0
  148.1789  138.7492  153.7213 C   0  0  0  0  0  0  0  0  0  0  0  0
  149.0011  139.8321  154.4409 C   0  0  0  0  0  0  0  0  0  0  0  0
  151.1969  144.3379  158.6682 C   0  0  0  0  0  0  0  0  0  0  0  0
  152.8158  145.9420  161.2508 H   0  0  0  0  0  0  0  0  0  0  0  0
  151.1584  146.2717  160.7359 H   0  0  0  0  0  0  0  0  0  0  0  0
  152.5114  146.6574  159.6645 H   0  0  0  0  0  0  0  0  0  0  0  0
  153.4439  143.6127  161.1332 H   0  0  0  0  0  0  0  0  0  0  0  0
  154.0279  141.2709  161.0298 H   0  0  0  0  0  0  0  0  0  0  0  0
  154.0714  140.6369  159.3816 H   0  0  0  0  0  0  0  0  0  0  0  0
  152.7255  140.2262  160.4532 H   0  0  0  0  0  0  0  0  0  0  0  0
  150.0234  143.7936  156.5175 H   0  0  0  0  0  0  0  0  0  0  0  0
  148.8319  143.0610  155.1382 H   0  0  0  0  0  0  0  0  0  0  0  0
  147.9390  141.5387  153.6575 H   0  0  0  0  0  0  0  0  0  0  0  0
  147.0802  140.4074  156.3591 H   0  0  0  0  0  0  0  0  0  0  0  0
  146.2317  141.6142  155.4217 H   0  0  0  0  0  0  0  0  0  0  0  0
  145.2246  139.4314  155.1426 H   0  0  0  0  0  0  0  0  0  0  0  0
  145.8361  139.9704  153.5908 H   0  0  0  0  0  0  0  0  0  0  0  0
  145.1743  137.3296  154.1397 H   0  0  0  0  0  0  0  0  0  0  0  0
  147.8842  135.9187  153.9118 H   0  0  0  0  0  0  0  0  0  0  0  0
  146.6967  135.6698  155.1734 H   0  0  0  0  0  0  0  0  0  0  0  0
  146.6360  133.8333  153.5769 H   0  0  0  0  0  0  0  0  0  0  0  0
  145.0997  134.6746  153.6389 H   0  0  0  0  0  0  0  0  0  0  0  0
  144.6501  133.7030  151.2878 H   0  0  0  0  0  0  0  0  0  0  0  0
  146.2551  132.9624  151.3365 H   0  0  0  0  0  0  0  0  0  0  0  0
  145.8336  134.0568  150.0224 H   0  0  0  0  0  0  0  0  0  0  0  0
  145.6405  136.4461  150.4373 H   0  0  0  0  0  0  0  0  0  0  0  0
  144.5005  136.2406  151.7528 H   0  0  0  0  0  0  0  0  0  0  0  0
  145.6630  138.3630  151.9387 H   0  0  0  0  0  0  0  0  0  0  0  0
  147.2384  137.6037  151.8917 H   0  0  0  0  0  0  0  0  0  0  0  0
  148.8369  137.8890  153.6262 H   0  0  0  0  0  0  0  0  0  0  0  0
  147.9271  139.0745  152.7106 H   0  0  0  0  0  0  0  0  0  0  0  0
  149.9019  140.0471  153.8647 H   0  0  0  0  0  0  0  0  0  0  0  0
  149.3361  139.4518  155.4072 H   0  0  0  0  0  0  0  0  0  0  0  0
  150.6163  145.1526  158.2597 H   0  0  0  0  0  0  0  0  0  0  0  0
  147.1976  135.1134  151.6482 H   0  0  0  0  0  0  0  0  0  0  0  0
  1  2  1  0  0  0  0
  1 26  1  0  0  0  0
  1 27  1  0  0  0  0
  1 28  1  0  0  0  0
  2 25  1  0  0  0  0
  2  3  2  0  0  0  0
  3  4  1  0  0  0  0
  3 29  1  0  0  0  0
  4  5  1  0  0  0  0
  4  6  2  0  0  0  0
  5 30  1  0  0  0  0
  5 31  1  0  0  0  0
  5 32  1  0  0  0  0
  6  7  1  0  0  0  0
  7  8  1  0  0  0  0
  7 25  2  0  0  0  0
  8  9  1  0  0  0  0
  8 33  1  0  0  0  0
  9 10  2  0  0  0  0
  9 11  1  0  0  0  0
 11 12  1  0  0  0  0
 11 34  1  0  0  0  0
 12 24  1  0  0  0  0
 12 13  1  0  0  0  0
 12 35  1  0  0  0  0
 13 14  1  0  0  0  0
 13 36  1  0  0  0  0
 13 37  1  0  0  0  0
 14 15  1  0  0  0  0
 14 38  1  0  0  0  0
 14 39  1  0  0  0  0
 15 16  1  0  0  0  0
 15 23  1  0  0  0  0
 16 22  1  0  0  0  0
 16 17  1  0  0  0  0
 16 40  1  0  0  0  0
 17 18  1  0  0  0  0
 17 41  1  0  0  0  0
 17 42  1  0  0  0  0
 18 19  1  0  0  0  0
 18 43  1  0  0  0  0
 18 44  1  0  0  0  0
 19 20  1  0  0  0  0
 19 21  1  0  0  0  0
 19 57  1  0  0  0  0
 20 45  1  0  0  0  0
 20 46  1  0  0  0  0
 20 47  1  0  0  0  0
 21 22  1  0  0  0  0
 21 48  1  0  0  0  0
 21 49  1  0  0  0  0
 22 50  1  0  0  0  0
 22 51  1  0  0  0  0
 23 24  1  0  0  0  0
 23 52  1  0  0  0  0
 23 53  1  0  0  0  0
 24 54  1  0  0  0  0
 24 55  1  0  0  0  0
 25 56  1  0  0  0  0
M  CHG  1  19   1
M  END
> <s_m_source_file>
AV-unprocessed.smi

> <i_m_source_file_index>
2279

> <i_lp_mmshare_version>
43012

> <i_f3d_flags>
0

> <s_epik_input>
W0NIM11jMVtjSF1jKFtDSDNdKW5jKFtjSF0xKVtOSF1DKD1PKVtOSF1bQ0hdMltDSDJdW0NIMl1OKFtDSDJdW0NIMl0yKVtDSF0zW0NIMl1bQ0gyXU4oW0NIM10pW0NIMl1bQ0gyXTM=

> <s_epik_cmdline>
J2VwaWtfcHl0aG9uJywgJy1waCcsICc3LjAnLCAnLXRuJywgJzgnLCAnLW1hJywgJzIwMCcsICctbWV0YWxfYmluZGluZycsICctaW1hZScsICc8aW5maWxlLm1hZT4nLCAnLW9tYWUnLCAnPG91dGZpbGUubWFlPic=

> <r_epik_Ionization_Penalty>
1.01001

> <r_epik_Ionization_Penalty_Charging>
0.000974969

> <r_epik_Ionization_Penalty_Neutral>
1.00904

> <r_epik_State_Penalty>
1.10286

> <r_epik_Charging_Adjusted_Penalty>
1.10383

> <i_epik_Tot_Q>
1

> <i_epik_Tot_abs_Q>
1

> <r_epik_Metal_State_Penalty>
1.10279

> <b_epik_Metal_Only>
0

> <s_lp_Force_Field>
OPLS_2005

> <r_lp_Energy>
34.0365

> <b_lp_Chiralities_Consistent>
1

> <s_lp_Variant>
AV-unprocessed.smi:2279-5

> <Gold.Version>
5.8.1

> <Gold.Id.Protein>
6NUR|6NUR_protein|mol2

> <Gold.PLP.Fitness>
51.8832

> <Gold.PLP.PLP>
-41.8220

> <Gold.PLP.part.hbond>
-3.0000

> <Gold.PLP.part.metal>
0.0000

> <Gold.PLP.part.buried>
-1.6076

> <Gold.PLP.part.nonpolar>
-38.0747

> <Gold.PLP.part.repulsive>
0.3645

> <Gold.PLP.ligand.clash>
0.0000

> <Gold.PLP.ligand.torsion>
0.7778

> <Gold.PLP.Chemscore.Hbond>
3.8720

> <Gold.PLP.Chemscore.CHOScore>
0.0000

> <Gold.PLP.Chemscore.Metal>
0.0000

> <Gold.Chemscore.Hbonds>
donor molecule, donor type, donor heavy atom, donor atom, acceptor molecule, acceptor atom, score
      L1  H     8    33       P1  8028  0.99
      L1  H    11    34       P1  8028  0.93
      L1  H    19    57       P1  7948  1.87

> <Gold.PLP.Chemscore.Internal.Correction>
0.0007

> <Gold.Rescore>
     Score         DG    S(hbond)    S(metal)    S(lipo)     H(rot)  DE(clash)    DE(int)     intcor
     20.56     -24.95       2.62        0.00     117.69       1.20       0.83       3.56       ----

> <Gold.Chemscore.Fitness>
20.5571

> <Gold.Chemscore.DG>
-24.9475

> <Gold.Chemscore.ZeroCoef>
-5.4800

> <Gold.Chemscore.Hbond>
2.6244

> <Gold.Chemscore.Metal>
0.0000

> <Gold.Chemscore.Lipo>
117.6853

> <Gold.Chemscore.Internal_Hbond>
0.0000

> <Gold.Chemscore.DEClash>
0.8332

> <Gold.Chemscore.DEInternal>
3.5571

> <Gold.Chemscore.Rot>
1.1981

> <Gold.Chemscore.Internal.Correction>
   9.000000E+99

> <Gold.Chemscore.Hbonds>
donor molecule, donor type, donor heavy atom, donor atom, acceptor molecule, acceptor atom, score
      L1  H     8    33       P1  8028  0.93
      L1  H    11    34       P1  8028  0.91
      L1  H    19    57       P1  7948  0.77

> <Gold.Chemscore.Hbond.Weighted>
-8.7656

> <Gold.Chemscore.Metal.Weighted>
-0.0000

> <Gold.Chemscore.Lipo.Weighted>
-13.7692

> <Gold.Chemscore.Internal_Hbond.Weighted>
0.0000

> <Gold.Chemscore.DEClash.Weighted>
0.8332

> <Gold.Chemscore.DEInternal.Weighted>
3.5571

> <Gold.Chemscore.Rot.Weighted>
3.0673

> <Gold.Chemscore.Internal.Correction.Weighted>
   9.000000E+99

> <Gold.Protein.RotatedTorsions>
[ 6907 6896 6895 6894 ] final  157.01 input  -60.11 | X-H torsion
[ 7974 7965 7964 7962 ] final   28.07 input  175.53 | X-H torsion
[ 8008 7997 7996 7995 ] final   33.83 input   59.86 | X-H torsion
[ 10167 10162 10161 10158 ] final   24.31 input  -65.29 | X-H torsion
[ 10718 10713 10712 10709 ] final  -98.78 input   66.30 | X-H torsion
[ 10763 10752 10751 10750 ] final   70.76 input  -60.55 | X-H torsion
[ 11005 11000 10999 10996 ] final  -94.00 input  -57.11 | X-H torsion

> <Gold.Protein.ActiveResidues>
 VAL166  LYS551  ARG553  GLY616  TRP617  ASP618  TYR619  PRO620  LYS621  CYS622 
 ASP623  PHE694  ASN695  SER759  ASP760  ASP761  ALA762  ILE779  LEU786  VAL792 
 PHE793  MET794  SER795  GLU796  ALA797  LYS798  CYS799  TRP800  GLU811  SER814 

> <Gold.Protein.RotatedAtoms>
  152.0214  133.3900  159.4259 H   0  0  0  0  0  0  0  0  0  0  0  0  # atno 6907 bound_to 6896
  150.6890  134.3622  159.4964 H   0  0  0  0  0  0  0  0  0  0  0  0  # atno 6908 bound_to 6896
  152.1396  134.9072  160.0605 H   0  0  0  0  0  0  0  0  0  0  0  0  # atno 6909 bound_to 6896
  146.1749  139.7105  142.8941 H   0  0  0  0  0  0  0  0  0  0  0  0  # atno 7974 bound_to 7965
  155.1450  140.3269  155.4443 H   0  0  0  0  0  0  0  0  0  0  0  0  # atno 8008 bound_to 7997
  156.2592  140.1987  156.6514 H   0  0  0  0  0  0  0  0  0  0  0  0  # atno 8009 bound_to 7997
  154.6514  140.0558  156.9947 H   0  0  0  0  0  0  0  0  0  0  0  0  # atno 8010 bound_to 7997
  140.5198  144.0021  150.6411 H   0  0  0  0  0  0  0  0  0  0  0  0  # atno 10167 bound_to 10162
  156.0116  130.5253  150.6573 H   0  0  0  0  0  0  0  0  0  0  0  0  # atno 10718 bound_to 10713
  153.0360  135.5162  154.7490 H   0  0  0  0  0  0  0  0  0  0  0  0  # atno 10763 bound_to 10752
  154.6466  135.2919  155.0041 H   0  0  0  0  0  0  0  0  0  0  0  0  # atno 10764 bound_to 10752
  154.0939  135.6646  153.4909 H   0  0  0  0  0  0  0  0  0  0  0  0  # atno 10765 bound_to 10752
  141.1482  133.7926  157.0237 H   0  0  0  0  0  0  0  0  0  0  0  0  # atno 11005 bound_to 11000
  145.4239  141.0409  143.2948 LP  0  0  0  0  0  0  0  0  0  0  0  0  # atno 17320 bound_to 7965
  144.8221  139.5774  143.6982 LP  0  0  0  0  0  0  0  0  0  0  0  0  # atno 17321 bound_to 7965
  140.3367  143.3044  152.0631 LP  0  0  0  0  0  0  0  0  0  0  0  0  # atno 17342 bound_to 10162
  139.4920  144.6471  151.6754 LP  0  0  0  0  0  0  0  0  0  0  0  0  # atno 17343 bound_to 10162
  157.4322  131.0851  151.1027 LP  0  0  0  0  0  0  0  0  0  0  0  0  # atno 17370 bound_to 10713
  157.1596  130.6220  149.5607 LP  0  0  0  0  0  0  0  0  0  0  0  0  # atno 17371 bound_to 10713
  140.0799  134.9654  157.1607 LP  0  0  0  0  0  0  0  0  0  0  0  0  # atno 17394 bound_to 11000
  140.3591  134.2513  155.7189 LP  0  0  0  0  0  0  0  0  0  0  0  0  # atno 17395 bound_to 11000

$$$$
