AV-unprocessed.smi:2089|AV-procd|sdf|8528|dock7
  -GOLD-   2272011243D 1   1.00000     0.00000
 Structure written by MMmdl.
 39 40  0  0  0  0  0  0  0  0  1 V2000
  154.5943  137.4333  157.1015 C   0  0  0  0  0  0  0  0  0  0  0  0
  153.2317  136.3567  157.7055 S   0  0  0  0  0  0  0  0  0  0  0  0
  153.4518  134.9990  157.1841 O   0  0  0  0  0  0  0  0  0  0  0  0
  153.0535  136.5669  159.1504 O   0  0  0  0  0  0  0  0  0  0  0  0
  151.8435  137.0062  156.9011 N   0  0  0  0  0  0  0  0  0  0  0  0
  150.6334  136.1775  156.8025 C   0  0  0  0  0  0  0  0  0  0  0  0
  149.8892  136.6749  155.5654 C   0  0  0  0  0  0  0  0  0  0  0  0
  151.0132  137.1705  154.6665 C   0  0  0  0  0  0  0  0  0  0  0  0
  152.0423  137.7560  155.6495 C   0  0  1  0  0  0  0  0  0  0  0  0
  151.9171  139.2745  155.8452 C   0  0  0  0  0  0  0  0  0  0  0  0
  152.0241  140.0478  154.8925 O   0  0  0  0  0  0  0  0  0  0  0  0
  151.6779  139.6887  157.0974 N   0  0  0  0  0  0  0  0  0  0  0  0
  151.5108  141.0808  157.4889 C   0  0  0  0  0  0  0  0  0  0  0  0
  152.1234  141.3306  158.8737 C   0  0  0  0  0  0  0  0  0  0  0  0
  151.9162  142.7583  159.3434 C   0  0  0  0  0  0  0  0  0  0  0  0
  151.5935  143.7790  158.4238 C   0  0  0  0  0  0  0  0  0  0  0  0
  151.3991  145.0855  158.9125 C   0  0  0  0  0  0  0  0  0  0  0  0
  151.5334  145.3201  160.2945 C   0  0  0  0  0  0  0  0  0  0  0  0
  151.8571  144.2324  161.1302 C   0  0  0  0  0  0  0  0  0  0  0  0
  152.0450  142.9758  160.6719 N   0  0  0  0  0  0  0  0  0  0  0  0
  155.5407  137.0842  157.5139 H   0  0  0  0  0  0  0  0  0  0  0  0
  154.4200  138.4606  157.4201 H   0  0  0  0  0  0  0  0  0  0  0  0
  154.6360  137.3915  156.0133 H   0  0  0  0  0  0  0  0  0  0  0  0
  150.9172  135.1327  156.6715 H   0  0  0  0  0  0  0  0  0  0  0  0
  150.0340  136.2570  157.7095 H   0  0  0  0  0  0  0  0  0  0  0  0
  149.2817  135.9002  155.0972 H   0  0  0  0  0  0  0  0  0  0  0  0
  149.2318  137.5031  155.8332 H   0  0  0  0  0  0  0  0  0  0  0  0
  151.4566  136.3291  154.1322 H   0  0  0  0  0  0  0  0  0  0  0  0
  150.6621  137.8793  153.9152 H   0  0  0  0  0  0  0  0  0  0  0  0
  153.0406  137.5508  155.2587 H   0  0  0  0  0  0  0  0  0  0  0  0
  151.5876  138.9906  157.8219 H   0  0  0  0  0  0  0  0  0  0  0  0
  151.9868  141.7262  156.7489 H   0  0  0  0  0  0  0  0  0  0  0  0
  150.4475  141.3262  157.4973 H   0  0  0  0  0  0  0  0  0  0  0  0
  151.6852  140.6497  159.6053 H   0  0  0  0  0  0  0  0  0  0  0  0
  153.1920  141.1122  158.8540 H   0  0  0  0  0  0  0  0  0  0  0  0
  151.4935  143.5676  157.3693 H   0  0  0  0  0  0  0  0  0  0  0  0
  151.1498  145.8928  158.2396 H   0  0  0  0  0  0  0  0  0  0  0  0
  151.3910  146.3089  160.7042 H   0  0  0  0  0  0  0  0  0  0  0  0
  151.9671  144.3755  162.1949 H   0  0  0  0  0  0  0  0  0  0  0  0
  1  2  1  0  0  0  0
  1 21  1  0  0  0  0
  1 22  1  0  0  0  0
  1 23  1  0  0  0  0
  2  3  2  0  0  0  0
  2  4  2  0  0  0  0
  2  5  1  0  0  0  0
  5  9  1  0  0  0  0
  5  6  1  0  0  0  0
  6  7  1  0  0  0  0
  6 24  1  0  0  0  0
  6 25  1  0  0  0  0
  7  8  1  0  0  0  0
  7 26  1  0  0  0  0
  7 27  1  0  0  0  0
  8  9  1  0  0  0  0
  8 28  1  0  0  0  0
  8 29  1  0  0  0  0
  9 10  1  0  0  0  0
  9 30  1  0  0  0  0
 10 11  2  0  0  0  0
 10 12  1  0  0  0  0
 12 13  1  0  0  0  0
 12 31  1  0  0  0  0
 13 14  1  0  0  0  0
 13 32  1  0  0  0  0
 13 33  1  0  0  0  0
 14 15  1  0  0  0  0
 14 34  1  0  0  0  0
 14 35  1  0  0  0  0
 15 20  1  0  0  0  0
 15 16  2  0  0  0  0
 16 17  1  0  0  0  0
 16 36  1  0  0  0  0
 17 18  2  0  0  0  0
 17 37  1  0  0  0  0
 18 19  1  0  0  0  0
 18 38  1  0  0  0  0
 19 20  2  0  0  0  0
 19 39  1  0  0  0  0
M  END
> <s_m_source_file>
AV-unprocessed.smi

> <i_m_source_file_index>
2089

> <i_lp_mmshare_version>
43012

> <i_f3d_flags>
0

> <s_epik_input>
W0NIM11TKD1PKSg9TylOMVtDSDJdW0NIMl1bQ0gyXVtDQEhdMUMoPU8pW05IXVtDSDJdW0NIMl1jMltjSF1bY0hdW2NIXVtjSF1uMg==

> <s_epik_cmdline>
J2VwaWtfcHl0aG9uJywgJy1waCcsICc3LjAnLCAnLXRuJywgJzgnLCAnLW1hJywgJzIwMCcsICctbWV0YWxfYmluZGluZycsICctaW1hZScsICc8aW5maWxlLm1hZT4nLCAnLW9tYWUnLCAnPG91dGZpbGUubWFlPic=

> <r_epik_Ionization_Penalty>
0.0244371

> <r_epik_Ionization_Penalty_Charging>
0

> <r_epik_Ionization_Penalty_Neutral>
0.0244371

> <r_epik_State_Penalty>
0.0198365

> <r_epik_Charging_Adjusted_Penalty>
0.0198365

> <i_epik_Tot_Q>
0

> <i_epik_Tot_abs_Q>
0

> <r_epik_Metal_State_Penalty>
0.0190441

> <b_epik_Metal_Only>
0

> <s_lp_Force_Field>
OPLS_2005

> <r_lp_Energy>
6.09758

> <b_lp_Chiralities_Consistent>
1

> <s_lp_Variant>
AV-unprocessed.smi:2089-1

> <Gold.Version>
5.8.1

> <Gold.Id.Protein>
6NUR|6NUR_protein|mol2

> <Gold.PLP.Fitness>
44.3529

> <Gold.PLP.PLP>
-38.0323

> <Gold.PLP.part.hbond>
-3.1084

> <Gold.PLP.part.metal>
0.0000

> <Gold.PLP.part.buried>
-6.5711

> <Gold.PLP.part.nonpolar>
-29.1241

> <Gold.PLP.part.repulsive>
0.1827

> <Gold.PLP.ligand.clash>
0.0000

> <Gold.PLP.ligand.torsion>
1.2887

> <Gold.PLP.Chemscore.Hbond>
2.7840

> <Gold.PLP.Chemscore.CHOScore>
0.0000

> <Gold.PLP.Chemscore.Metal>
0.0000

> <Gold.Chemscore.Hbonds>
donor molecule, donor type, donor heavy atom, donor atom, acceptor molecule, acceptor atom, score
      P1  H  6896  6907       L1     4  0.98
      P1  H  7989  7998       L1    11  0.82
      P1  H 10752 10764       L1     3  1.00

> <Gold.PLP.Chemscore.Internal.Correction>
0.5458

> <Gold.Rescore>
     Score         DG    S(hbond)    S(metal)    S(lipo)     H(rot)  DE(clash)    DE(int)     intcor
     19.90     -21.01       2.72        0.00      96.53       1.90       0.04       1.07       ----

> <Gold.Chemscore.Fitness>
19.9009

> <Gold.Chemscore.DG>
-21.0075

> <Gold.Chemscore.ZeroCoef>
-5.4800

> <Gold.Chemscore.Hbond>
2.7231

> <Gold.Chemscore.Metal>
0.0000

> <Gold.Chemscore.Lipo>
96.5281

> <Gold.Chemscore.Internal_Hbond>
0.0000

> <Gold.Chemscore.DEClash>
0.0358

> <Gold.Chemscore.DEInternal>
1.0708

> <Gold.Chemscore.Rot>
1.8990

> <Gold.Chemscore.Internal.Correction>
   9.000000E+99

> <Gold.Chemscore.Hbonds>
donor molecule, donor type, donor heavy atom, donor atom, acceptor molecule, acceptor atom, score
      P1  H  6896  6907       L1     4  0.72
      P1  H  7989  7998       L1    11  0.81
      P1  H 10752 10764       L1     3  0.44

> <Gold.Chemscore.Hbond.Weighted>
-9.0950

> <Gold.Chemscore.Metal.Weighted>
-0.0000

> <Gold.Chemscore.Lipo.Weighted>
-11.2938

> <Gold.Chemscore.Internal_Hbond.Weighted>
0.0000

> <Gold.Chemscore.DEClash.Weighted>
0.0358

> <Gold.Chemscore.DEInternal.Weighted>
1.0708

> <Gold.Chemscore.Rot.Weighted>
4.8613

> <Gold.Chemscore.Internal.Correction.Weighted>
   9.000000E+99

> <Gold.Protein.RotatedTorsions>
[ 6907 6896 6895 6894 ] final   29.71 input  -60.11 | X-H torsion
[ 7974 7965 7964 7962 ] final  -77.42 input  175.53 | X-H torsion
[ 8008 7997 7996 7995 ] final   46.93 input   59.86 | X-H torsion
[ 10167 10162 10161 10158 ] final  122.45 input  -65.29 | X-H torsion
[ 10718 10713 10712 10709 ] final   29.35 input   66.30 | X-H torsion
[ 10763 10752 10751 10750 ] final   23.70 input  -60.55 | X-H torsion
[ 11005 11000 10999 10996 ] final   92.28 input  -57.11 | X-H torsion

> <Gold.Protein.ActiveResidues>
 VAL166  LYS551  ARG553  GLY616  TRP617  ASP618  TYR619  PRO620  LYS621  CYS622 
 ASP623  PHE694  ASN695  SER759  ASP760  ASP761  ALA762  ILE779  LEU786  VAL792 
 PHE793  MET794  SER795  GLU796  ALA797  LYS798  CYS799  TRP800  GLU811  SER814 

> <Gold.Protein.RotatedAtoms>
  152.0355  134.9742  160.0572 H   0  0  0  0  0  0  0  0  0  0  0  0  # atno 6907 bound_to 6896
  152.1202  133.4344  159.4680 H   0  0  0  0  0  0  0  0  0  0  0  0  # atno 6908 bound_to 6896
  150.6848  134.2463  159.4536 H   0  0  0  0  0  0  0  0  0  0  0  0  # atno 6909 bound_to 6896
  145.6000  140.9411  143.1246 H   0  0  0  0  0  0  0  0  0  0  0  0  # atno 7974 bound_to 7965
  155.3606  140.3418  155.4240 H   0  0  0  0  0  0  0  0  0  0  0  0  # atno 8008 bound_to 7997
  156.1716  140.1633  156.8472 H   0  0  0  0  0  0  0  0  0  0  0  0  # atno 8009 bound_to 7997
  154.5239  140.0760  156.8204 H   0  0  0  0  0  0  0  0  0  0  0  0  # atno 8010 bound_to 7997
  139.5858  144.7006  151.3413 H   0  0  0  0  0  0  0  0  0  0  0  0  # atno 10167 bound_to 10162
  157.2454  130.7089  149.6379 H   0  0  0  0  0  0  0  0  0  0  0  0  # atno 10718 bound_to 10713
  153.0818  135.6621  154.0029 H   0  0  0  0  0  0  0  0  0  0  0  0  # atno 10763 bound_to 10752
  153.9649  135.2970  155.3432 H   0  0  0  0  0  0  0  0  0  0  0  0  # atno 10764 bound_to 10752
  154.7219  135.5161  153.8897 H   0  0  0  0  0  0  0  0  0  0  0  0  # atno 10765 bound_to 10752
  139.8826  134.8723  156.3549 H   0  0  0  0  0  0  0  0  0  0  0  0  # atno 11005 bound_to 11000
  144.7314  139.7714  143.7346 LP  0  0  0  0  0  0  0  0  0  0  0  0  # atno 17320 bound_to 7965
  146.1583  139.4689  143.0004 LP  0  0  0  0  0  0  0  0  0  0  0  0  # atno 17321 bound_to 7965
  140.7130  143.7341  150.7602 LP  0  0  0  0  0  0  0  0  0  0  0  0  # atno 17342 bound_to 10162
  140.0885  143.4900  152.2492 LP  0  0  0  0  0  0  0  0  0  0  0  0  # atno 17343 bound_to 10162
  155.9668  130.4445  150.5462 LP  0  0  0  0  0  0  0  0  0  0  0  0  # atno 17370 bound_to 10713
  157.3335  131.0704  151.1843 LP  0  0  0  0  0  0  0  0  0  0  0  0  # atno 17371 bound_to 10713
  140.9569  133.7414  156.0347 LP  0  0  0  0  0  0  0  0  0  0  0  0  # atno 17394 bound_to 11000
  140.8038  134.3478  157.5432 LP  0  0  0  0  0  0  0  0  0  0  0  0  # atno 17395 bound_to 11000

$$$$
