AV-unprocessed.smi:1915|AV-procd|sdf|7760|dock2
  -GOLD-   22720 9503D 1   1.00000     0.00000
 Structure written by MMmdl.
 44 45  0  0  0  0  0  0  0  0  1 V2000
  148.9992  141.3716  157.7686 C   0  0  0  0  0  0  0  0  0  0  0  0
  150.5189  141.6110  157.7804 C   0  0  0  0  0  0  0  0  0  0  0  0
  150.8369  143.0123  158.3230 C   0  0  0  0  0  0  0  0  0  0  0  0
  151.1823  141.4031  156.4005 C   0  0  0  0  0  0  0  0  0  0  0  0
  151.5300  140.0069  156.1397 N   0  0  0  0  0  0  0  0  0  0  0  0
  152.4343  139.2977  157.0292 C   0  0  0  0  0  0  0  0  0  0  0  0
  152.4339  137.8346  156.5396 C   0  0  1  0  0  0  0  0  0  0  0  0
  151.6758  136.9031  157.4984 C   0  0  0  0  0  0  0  0  0  0  0  0
  152.2908  136.1002  158.2015 O   0  0  0  0  0  0  0  0  0  0  0  0
  150.3408  137.0177  157.5115 N   0  0  0  0  0  0  0  0  0  0  0  0
  149.4482  136.2135  158.3374 C   0  0  0  0  0  0  0  0  0  0  0  0
  148.4914  137.0871  159.1672 C   0  0  0  0  0  0  0  0  0  0  0  0
  147.9115  136.3720  160.3767 C   0  0  0  0  0  0  0  0  0  0  0  0
  147.7105  134.9754  160.3526 C   0  0  0  0  0  0  0  0  0  0  0  0
  147.1584  134.3565  161.4907 C   0  0  0  0  0  0  0  0  0  0  0  0
  146.8291  135.1539  162.6037 C   0  0  0  0  0  0  0  0  0  0  0  0
  147.0674  136.5406  162.5286 C   0  0  0  0  0  0  0  0  0  0  0  0
  147.5952  137.1441  161.4417 N   0  0  0  0  0  0  0  0  0  0  0  0
  151.7713  137.8808  155.1483 C   0  0  0  0  0  0  0  0  0  0  0  0
  151.1938  139.2841  155.0647 C   0  0  0  0  0  0  0  0  0  0  0  0
  150.5032  139.6643  154.1204 O   0  0  0  0  0  0  0  0  0  0  0  0
  148.5032  142.0125  157.0392 H   0  0  0  0  0  0  0  0  0  0  0  0
  148.5619  141.5797  158.7455 H   0  0  0  0  0  0  0  0  0  0  0  0
  148.7577  140.3367  157.5260 H   0  0  0  0  0  0  0  0  0  0  0  0
  150.9569  140.8913  158.4735 H   0  0  0  0  0  0  0  0  0  0  0  0
  150.4292  143.7892  157.6753 H   0  0  0  0  0  0  0  0  0  0  0  0
  151.9133  143.1708  158.3970 H   0  0  0  0  0  0  0  0  0  0  0  0
  150.4166  143.1547  159.3190 H   0  0  0  0  0  0  0  0  0  0  0  0
  150.5271  141.7766  155.6115 H   0  0  0  0  0  0  0  0  0  0  0  0
  152.0935  141.9998  156.3370 H   0  0  0  0  0  0  0  0  0  0  0  0
  153.4325  139.7305  156.9505 H   0  0  0  0  0  0  0  0  0  0  0  0
  152.1126  139.4011  158.0670 H   0  0  0  0  0  0  0  0  0  0  0  0
  153.4630  137.4834  156.4443 H   0  0  0  0  0  0  0  0  0  0  0  0
  149.9110  137.6941  156.8966 H   0  0  0  0  0  0  0  0  0  0  0  0
  148.8670  135.5432  157.7016 H   0  0  0  0  0  0  0  0  0  0  0  0
  150.0458  135.5859  158.9995 H   0  0  0  0  0  0  0  0  0  0  0  0
  149.0162  137.9816  159.5043 H   0  0  0  0  0  0  0  0  0  0  0  0
  147.6734  137.4391  158.5366 H   0  0  0  0  0  0  0  0  0  0  0  0
  147.9704  134.3912  159.4821 H   0  0  0  0  0  0  0  0  0  0  0  0
  146.9901  133.2900  161.5090 H   0  0  0  0  0  0  0  0  0  0  0  0
  146.4043  134.7134  163.4936 H   0  0  0  0  0  0  0  0  0  0  0  0
  146.8276  137.1824  163.3634 H   0  0  0  0  0  0  0  0  0  0  0  0
  152.5090  137.7443  154.3571 H   0  0  0  0  0  0  0  0  0  0  0  0
  150.9871  137.1347  155.0090 H   0  0  0  0  0  0  0  0  0  0  0  0
  1  2  1  0  0  0  0
  1 22  1  0  0  0  0
  1 23  1  0  0  0  0
  1 24  1  0  0  0  0
  2  3  1  0  0  0  0
  2  4  1  0  0  0  0
  2 25  1  0  0  0  0
  3 26  1  0  0  0  0
  3 27  1  0  0  0  0
  3 28  1  0  0  0  0
  4  5  1  0  0  0  0
  4 29  1  0  0  0  0
  4 30  1  0  0  0  0
  5 20  1  0  0  0  0
  5  6  1  0  0  0  0
  6  7  1  0  0  0  0
  6 31  1  0  0  0  0
  6 32  1  0  0  0  0
  7  8  1  0  0  0  0
  7 19  1  0  0  0  0
  7 33  1  0  0  0  0
  8  9  2  0  0  0  0
  8 10  1  0  0  0  0
 10 11  1  0  0  0  0
 10 34  1  0  0  0  0
 11 12  1  0  0  0  0
 11 35  1  0  0  0  0
 11 36  1  0  0  0  0
 12 13  1  0  0  0  0
 12 37  1  0  0  0  0
 12 38  1  0  0  0  0
 13 18  1  0  0  0  0
 13 14  2  0  0  0  0
 14 15  1  0  0  0  0
 14 39  1  0  0  0  0
 15 16  2  0  0  0  0
 15 40  1  0  0  0  0
 16 17  1  0  0  0  0
 16 41  1  0  0  0  0
 17 18  2  0  0  0  0
 17 42  1  0  0  0  0
 19 20  1  0  0  0  0
 19 43  1  0  0  0  0
 19 44  1  0  0  0  0
 20 21  2  0  0  0  0
M  END
> <s_m_source_file>
AV-unprocessed.smi

> <i_m_source_file_index>
1915

> <i_lp_mmshare_version>
43012

> <i_f3d_flags>
0

> <s_epik_input>
W0NIM11bQ0hdKFtDSDNdKVtDSDJdTjFbQ0gyXVtDQEhdKFtDSDJdQzE9TylDKD1PKVtOSF1bQ0gyXVtDSDJdYzJbY0hdW2NIXVtjSF1bY0hdbjI=

> <s_epik_cmdline>
J2VwaWtfcHl0aG9uJywgJy1waCcsICc3LjAnLCAnLXRuJywgJzgnLCAnLW1hJywgJzIwMCcsICctbWV0YWxfYmluZGluZycsICctaW1hZScsICc8aW5maWxlLm1hZT4nLCAnLW9tYWUnLCAnPG91dGZpbGUubWFlPic=

> <r_epik_Ionization_Penalty>
0.0252359

> <r_epik_Ionization_Penalty_Charging>
0

> <r_epik_Ionization_Penalty_Neutral>
0.0252359

> <r_epik_State_Penalty>
0.020532

> <r_epik_Charging_Adjusted_Penalty>
0.020532

> <i_epik_Tot_Q>
0

> <i_epik_Tot_abs_Q>
0

> <r_epik_Metal_State_Penalty>
0.0196901

> <b_epik_Metal_Only>
0

> <s_lp_Force_Field>
OPLS_2005

> <r_lp_Energy>
14.3845

> <b_lp_Chiralities_Consistent>
1

> <s_lp_Variant>
AV-unprocessed.smi:1915-1

> <Gold.Version>
5.8.1

> <Gold.Id.Protein>
6NUR|6NUR_protein|mol2

> <Gold.PLP.Fitness>
45.9064

> <Gold.PLP.PLP>
-38.9485

> <Gold.PLP.part.hbond>
-4.0000

> <Gold.PLP.part.metal>
0.0000

> <Gold.PLP.part.buried>
-2.8030

> <Gold.PLP.part.nonpolar>
-32.1868

> <Gold.PLP.part.repulsive>
0.2301

> <Gold.PLP.ligand.clash>
0.0000

> <Gold.PLP.ligand.torsion>
1.1686

> <Gold.PLP.Chemscore.Hbond>
3.0291

> <Gold.PLP.Chemscore.CHOScore>
0.0000

> <Gold.PLP.Chemscore.Metal>
0.0000

> <Gold.Chemscore.Hbonds>
donor molecule, donor type, donor heavy atom, donor atom, acceptor molecule, acceptor atom, score
      P1  H  6896  6909       L1     9  0.28
      P1  H  6931  6943       L1    18  0.99
      P1  H  6934  6947       L1    18  0.85
      P1  H  7989  7998       L1    21  0.90

> <Gold.PLP.Chemscore.Internal.Correction>
0.2080

> <Gold.Rescore>
     Score         DG    S(hbond)    S(metal)    S(lipo)     H(rot)  DE(clash)    DE(int)     intcor
     18.42     -20.24       2.77        0.00      85.40       1.75       0.39       1.43       ----

> <Gold.Chemscore.Fitness>
18.4179

> <Gold.Chemscore.DG>
-20.2415

> <Gold.Chemscore.ZeroCoef>
-5.4800

> <Gold.Chemscore.Hbond>
2.7662

> <Gold.Chemscore.Metal>
0.0000

> <Gold.Chemscore.Lipo>
85.3959

> <Gold.Chemscore.Internal_Hbond>
0.0000

> <Gold.Chemscore.DEClash>
0.3900

> <Gold.Chemscore.DEInternal>
1.4336

> <Gold.Chemscore.Rot>
1.7456

> <Gold.Chemscore.Internal.Correction>
   9.000000E+99

> <Gold.Chemscore.Hbonds>
donor molecule, donor type, donor heavy atom, donor atom, acceptor molecule, acceptor atom, score
      P1  H  6896  6909       L1     9  0.28
      P1  H  6931  6943       L1    18  0.57
      P1  H  6934  6947       L1    18  0.69
      P1  H  7989  7998       L1    21  0.18

> <Gold.Chemscore.Hbond.Weighted>
-9.2390

> <Gold.Chemscore.Metal.Weighted>
-0.0000

> <Gold.Chemscore.Lipo.Weighted>
-9.9913

> <Gold.Chemscore.Internal_Hbond.Weighted>
0.0000

> <Gold.Chemscore.DEClash.Weighted>
0.3900

> <Gold.Chemscore.DEInternal.Weighted>
1.4336

> <Gold.Chemscore.Rot.Weighted>
4.4688

> <Gold.Chemscore.Internal.Correction.Weighted>
   9.000000E+99

> <Gold.Protein.RotatedTorsions>
[ 6907 6896 6895 6894 ] final  134.66 input  -60.11 | X-H torsion
[ 7974 7965 7964 7962 ] final -163.11 input  175.53 | X-H torsion
[ 8008 7997 7996 7995 ] final  -55.00 input   59.86 | X-H torsion
[ 10167 10162 10161 10158 ] final  127.03 input  -65.29 | X-H torsion
[ 10718 10713 10712 10709 ] final  -97.99 input   66.30 | X-H torsion
[ 10763 10752 10751 10750 ] final  169.38 input  -60.55 | X-H torsion
[ 11005 11000 10999 10996 ] final -127.57 input  -57.11 | X-H torsion

> <Gold.Protein.ActiveResidues>
 VAL166  LYS551  ARG553  GLY616  TRP617  ASP618  TYR619  PRO620  LYS621  CYS622 
 ASP623  PHE694  ASN695  SER759  ASP760  ASP761  ALA762  ILE779  LEU786  VAL792 
 PHE793  MET794  SER795  GLU796  ALA797  LYS798  CYS799  TRP800  GLU811  SER814 

> <Gold.Protein.RotatedAtoms>
  152.3089  133.5732  159.5667 H   0  0  0  0  0  0  0  0  0  0  0  0  # atno 6907 bound_to 6896
  150.7313  134.0182  159.3701 H   0  0  0  0  0  0  0  0  0  0  0  0  # atno 6908 bound_to 6896
  151.8076  135.0691  160.0459 H   0  0  0  0  0  0  0  0  0  0  0  0  # atno 6909 bound_to 6896
  144.7336  140.3154  143.6180 H   0  0  0  0  0  0  0  0  0  0  0  0  # atno 7974 bound_to 7965
  154.4180  140.1163  156.5406 H   0  0  0  0  0  0  0  0  0  0  0  0  # atno 8008 bound_to 7997
  155.6511  140.3496  155.4729 H   0  0  0  0  0  0  0  0  0  0  0  0  # atno 8009 bound_to 7997
  155.9791  140.1156  157.0732 H   0  0  0  0  0  0  0  0  0  0  0  0  # atno 8010 bound_to 7997
  139.5600  144.6875  151.4071 H   0  0  0  0  0  0  0  0  0  0  0  0  # atno 10167 bound_to 10162
  156.0096  130.5218  150.6456 H   0  0  0  0  0  0  0  0  0  0  0  0  # atno 10718 bound_to 10713
  154.3823  135.2753  155.2204 H   0  0  0  0  0  0  0  0  0  0  0  0  # atno 10763 bound_to 10752
  154.4306  135.5978  153.6070 H   0  0  0  0  0  0  0  0  0  0  0  0  # atno 10764 bound_to 10752
  152.9834  135.5994  154.4067 H   0  0  0  0  0  0  0  0  0  0  0  0  # atno 10765 bound_to 10752
  140.9588  134.0964  157.3989 H   0  0  0  0  0  0  0  0  0  0  0  0  # atno 11005 bound_to 11000
  145.7622  139.1828  143.2260 LP  0  0  0  0  0  0  0  0  0  0  0  0  # atno 17320 bound_to 7965
  146.0977  140.7581  142.9564 LP  0  0  0  0  0  0  0  0  0  0  0  0  # atno 17321 bound_to 7965
  140.6878  143.7932  150.7211 LP  0  0  0  0  0  0  0  0  0  0  0  0  # atno 17342 bound_to 10162
  140.1405  143.4445  152.2196 LP  0  0  0  0  0  0  0  0  0  0  0  0  # atno 17343 bound_to 10162
  157.4228  131.0839  151.1115 LP  0  0  0  0  0  0  0  0  0  0  0  0  # atno 17370 bound_to 10713
  157.1711  130.6268  149.5641 LP  0  0  0  0  0  0  0  0  0  0  0  0  # atno 17371 bound_to 10713
  139.8871  135.0087  156.6540 LP  0  0  0  0  0  0  0  0  0  0  0  0  # atno 17394 bound_to 11000
  140.7497  133.8908  155.8338 LP  0  0  0  0  0  0  0  0  0  0  0  0  # atno 17395 bound_to 11000

$$$$
