AV-unprocessed.smi:1979|AV-procd|sdf|8016|dock2
  -GOLD-   2272010203D 1   1.00000     0.00000
 Structure written by MMmdl.
 28 28  0  0  0  0  0  0  0  0  1 V2000
  154.1056  142.6153  163.9693 N   0  0  0  0  0  0  0  0  0  0  0  0
  153.6250  142.6113  162.9169 C   0  0  0  0  0  0  0  0  0  0  0  0
  153.0220  142.6063  161.5952 C   0  0  0  0  0  0  0  0  0  0  0  0
  152.2723  143.7079  161.1388 C   0  0  0  0  0  0  0  0  0  0  0  0
  151.7073  143.6578  159.8495 C   0  0  0  0  0  0  0  0  0  0  0  0
  151.9143  142.5011  159.0594 C   0  0  0  0  0  0  0  0  0  0  0  0
  151.3932  142.3665  157.7663 N   0  0  0  0  0  0  0  0  0  0  0  0
  151.3219  141.0609  157.1282 C   0  0  0  0  0  0  0  0  0  0  0  0
  150.6263  141.1370  155.7653 C   0  0  0  0  0  0  0  0  0  0  0  0
  150.2551  139.8294  155.3615 O   0  0  0  0  0  0  0  0  0  0  0  0
  151.3677  139.0301  154.9947 C   0  0  0  0  0  0  0  0  0  0  0  0
  150.8661  137.6607  154.5210 C   0  0  0  0  0  0  0  0  0  0  0  0
  151.9071  136.9589  153.8760 O   0  0  0  0  0  0  0  0  0  0  0  0
  152.6318  141.4441  159.4994 N   0  0  0  0  0  0  0  0  0  0  0  0
  153.1716  141.4990  160.7363 C   0  0  0  0  0  0  0  0  0  0  0  0
  152.1288  144.5795  161.7613 H   0  0  0  0  0  0  0  0  0  0  0  0
  151.1294  144.4971  159.4926 H   0  0  0  0  0  0  0  0  0  0  0  0
  150.8394  143.1185  157.3819 H   0  0  0  0  0  0  0  0  0  0  0  0
  152.3372  140.6875  156.9908 H   0  0  0  0  0  0  0  0  0  0  0  0
  150.8008  140.3550  157.7762 H   0  0  0  0  0  0  0  0  0  0  0  0
  149.7558  141.7936  155.8114 H   0  0  0  0  0  0  0  0  0  0  0  0
  151.3155  141.5590  155.0325 H   0  0  0  0  0  0  0  0  0  0  0  0
  151.8935  139.5213  154.1745 H   0  0  0  0  0  0  0  0  0  0  0  0
  152.0762  138.9272  155.8187 H   0  0  0  0  0  0  0  0  0  0  0  0
  150.4659  137.0758  155.3498 H   0  0  0  0  0  0  0  0  0  0  0  0
  150.0603  137.7915  153.7985 H   0  0  0  0  0  0  0  0  0  0  0  0
  151.6110  136.7069  153.0148 H   0  0  0  0  0  0  0  0  0  0  0  0
  153.7382  140.6319  161.0439 H   0  0  0  0  0  0  0  0  0  0  0  0
  1  2  3  0  0  0  0
  2  3  1  0  0  0  0
  3 15  1  0  0  0  0
  3  4  2  0  0  0  0
  4  5  1  0  0  0  0
  4 16  1  0  0  0  0
  5  6  2  0  0  0  0
  5 17  1  0  0  0  0
  6  7  1  0  0  0  0
  6 14  1  0  0  0  0
  7  8  1  0  0  0  0
  7 18  1  0  0  0  0
  8  9  1  0  0  0  0
  8 19  1  0  0  0  0
  8 20  1  0  0  0  0
  9 10  1  0  0  0  0
  9 21  1  0  0  0  0
  9 22  1  0  0  0  0
 10 11  1  0  0  0  0
 11 12  1  0  0  0  0
 11 23  1  0  0  0  0
 11 24  1  0  0  0  0
 12 13  1  0  0  0  0
 12 25  1  0  0  0  0
 12 26  1  0  0  0  0
 13 27  1  0  0  0  0
 14 15  2  0  0  0  0
 15 28  1  0  0  0  0
M  END
> <s_m_source_file>
AV-unprocessed.smi

> <i_m_source_file_index>
1979

> <i_lp_mmshare_version>
43012

> <i_f3d_flags>
0

> <s_epik_input>
TiNDYzFbY0hdW2NIXWMobltjSF0xKVtOSF1bQ0gyXVtDSDJdT1tDSDJdW0NIMl1bT0hd

> <s_epik_cmdline>
J2VwaWtfcHl0aG9uJywgJy1waCcsICc3LjAnLCAnLXRuJywgJzgnLCAnLW1hJywgJzIwMCcsICctbWV0YWxfYmluZGluZycsICctaW1hZScsICc8aW5maWxlLm1hZT4nLCAnLW9tYWUnLCAnPG91dGZpbGUubWFlPic=

> <r_lp_tautomer_probability>
1

> <r_epik_Ionization_Penalty>
1.11368e-05

> <r_epik_Ionization_Penalty_Charging>
0

> <r_epik_Ionization_Penalty_Neutral>
1.11368e-05

> <r_epik_State_Penalty>
-0

> <r_epik_Charging_Adjusted_Penalty>
0

> <i_epik_Tot_Q>
0

> <i_epik_Tot_abs_Q>
0

> <r_epik_Metal_State_Penalty>
-0

> <b_epik_Metal_Only>
0

> <s_lp_Force_Field>
OPLS_2005

> <r_lp_Energy>
5.28627

> <b_lp_Chiralities_Consistent>
1

> <s_lp_Variant>
AV-unprocessed.smi:1979-1

> <Gold.Version>
5.8.1

> <Gold.Id.Protein>
6NUR|6NUR_protein|mol2

> <Gold.PLP.Fitness>
42.6966

> <Gold.PLP.PLP>
-37.0200

> <Gold.PLP.part.hbond>
-2.4567

> <Gold.PLP.part.metal>
0.0000

> <Gold.PLP.part.buried>
-5.8872

> <Gold.PLP.part.nonpolar>
-28.4279

> <Gold.PLP.part.repulsive>
0.1208

> <Gold.PLP.ligand.clash>
0.0000

> <Gold.PLP.ligand.torsion>
0.2032

> <Gold.PLP.Chemscore.Hbond>
2.0000

> <Gold.PLP.Chemscore.CHOScore>
0.0000

> <Gold.PLP.Chemscore.Metal>
0.0000

> <Gold.Chemscore.Hbonds>
donor molecule, donor type, donor heavy atom, donor atom, acceptor molecule, acceptor atom, score
      L1  H    13    27       P1  7949  1.00
      P1  H 10752 10765       L1    13  1.00

> <Gold.PLP.Chemscore.Internal.Correction>
0.0830

> <Gold.Rescore>
     Score         DG    S(hbond)    S(metal)    S(lipo)     H(rot)  DE(clash)    DE(int)     intcor
     12.46     -12.66       1.77        0.00      73.90       2.88       0.00       0.20       ----

> <Gold.Chemscore.Fitness>
12.4603

> <Gold.Chemscore.DG>
-12.6590

> <Gold.Chemscore.ZeroCoef>
-5.4800

> <Gold.Chemscore.Hbond>
1.7673

> <Gold.Chemscore.Metal>
0.0000

> <Gold.Chemscore.Lipo>
73.8976

> <Gold.Chemscore.Internal_Hbond>
0.0000

> <Gold.Chemscore.DEClash>
0.0004

> <Gold.Chemscore.DEInternal>
0.1984

> <Gold.Chemscore.Rot>
2.8788

> <Gold.Chemscore.Internal.Correction>
   9.000000E+99

> <Gold.Chemscore.Hbonds>
donor molecule, donor type, donor heavy atom, donor atom, acceptor molecule, acceptor atom, score
      L1  H    13    27       P1  7949  0.97
      P1  H 10752 10765       L1    13  0.34

> <Gold.Chemscore.Hbond.Weighted>
-5.9029

> <Gold.Chemscore.Metal.Weighted>
-0.0000

> <Gold.Chemscore.Lipo.Weighted>
-8.6460

> <Gold.Chemscore.Internal_Hbond.Weighted>
0.0000

> <Gold.Chemscore.DEClash.Weighted>
0.0004

> <Gold.Chemscore.DEInternal.Weighted>
0.1984

> <Gold.Chemscore.Rot.Weighted>
7.3699

> <Gold.Chemscore.Internal.Correction.Weighted>
   9.000000E+99

> <Gold.Protein.RotatedTorsions>
[ 6907 6896 6895 6894 ] final -177.59 input  -60.11 | X-H torsion
[ 7974 7965 7964 7962 ] final -110.87 input  175.53 | X-H torsion
[ 8008 7997 7996 7995 ] final   78.20 input   59.86 | X-H torsion
[ 10167 10162 10161 10158 ] final   33.73 input  -65.29 | X-H torsion
[ 10718 10713 10712 10709 ] final  136.43 input   66.30 | X-H torsion
[ 10763 10752 10751 10750 ] final  163.45 input  -60.55 | X-H torsion
[ 11005 11000 10999 10996 ] final  -68.27 input  -57.11 | X-H torsion

> <Gold.Protein.ActiveResidues>
 VAL166  LYS551  ARG553  GLY616  TRP617  ASP618  TYR619  PRO620  LYS621  CYS622 
 ASP623  PHE694  ASN695  SER759  ASP760  ASP761  ALA762  ILE779  LEU786  VAL792 
 PHE793  MET794  SER795  GLU796  ALA797  LYS798  CYS799  TRP800  GLU811  SER814 

> <Gold.Protein.RotatedAtoms>
  151.6235  133.3337  159.3092 H   0  0  0  0  0  0  0  0  0  0  0  0  # atno 6907 bound_to 6896
  150.8093  134.7242  159.6685 H   0  0  0  0  0  0  0  0  0  0  0  0  # atno 6908 bound_to 6896
  152.4190  134.5995  160.0047 H   0  0  0  0  0  0  0  0  0  0  0  0  # atno 6909 bound_to 6896
  145.1629  140.8887  143.3580 H   0  0  0  0  0  0  0  0  0  0  0  0  # atno 7974 bound_to 7965
  155.8523  140.3457  155.5701 H   0  0  0  0  0  0  0  0  0  0  0  0  # atno 8008 bound_to 7997
  155.8024  140.0887  157.1969 H   0  0  0  0  0  0  0  0  0  0  0  0  # atno 8009 bound_to 7997
  154.4008  140.1463  156.3277 H   0  0  0  0  0  0  0  0  0  0  0  0  # atno 8010 bound_to 7997
  140.4381  144.1228  150.6169 H   0  0  0  0  0  0  0  0  0  0  0  0  # atno 10167 bound_to 10162
  157.4467  131.1062  151.0081 H   0  0  0  0  0  0  0  0  0  0  0  0  # atno 10718 bound_to 10713
  154.2939  135.2760  155.2642 H   0  0  0  0  0  0  0  0  0  0  0  0  # atno 10763 bound_to 10752
  154.5109  135.5782  153.6607 H   0  0  0  0  0  0  0  0  0  0  0  0  # atno 10764 bound_to 10752
  152.9910  135.6181  154.3105 H   0  0  0  0  0  0  0  0  0  0  0  0  # atno 10765 bound_to 10752
  141.1528  133.6737  156.6420 H   0  0  0  0  0  0  0  0  0  0  0  0  # atno 11005 bound_to 11000
  145.0312  139.3339  143.6024 LP  0  0  0  0  0  0  0  0  0  0  0  0  # atno 17320 bound_to 7965
  146.3480  139.9650  142.8713 LP  0  0  0  0  0  0  0  0  0  0  0  0  # atno 17321 bound_to 7965
  140.4350  143.2551  151.9546 LP  0  0  0  0  0  0  0  0  0  0  0  0  # atno 17342 bound_to 10162
  139.4788  144.5708  151.8091 LP  0  0  0  0  0  0  0  0  0  0  0  0  # atno 17343 bound_to 10162
  157.0925  130.5948  149.5442 LP  0  0  0  0  0  0  0  0  0  0  0  0  # atno 17370 bound_to 10713
  155.9970  130.5041  150.7519 LP  0  0  0  0  0  0  0  0  0  0  0  0  # atno 17371 bound_to 10713
  140.3386  134.7868  157.4380 LP  0  0  0  0  0  0  0  0  0  0  0  0  # atno 17394 bound_to 11000
  140.0957  134.5541  155.8401 LP  0  0  0  0  0  0  0  0  0  0  0  0  # atno 17395 bound_to 11000

$$$$
