AV-unprocessed.smi:2473|AV-procd|sdf|9746|dock2
  -GOLD-   2272013383D 1   1.00000     0.00000
 Structure written by MMmdl.
 48 49  0  0  0  0  0  0  0  0  2 V2000
  145.5646  138.2770  154.4557 C   0  0  0  0  0  0  0  0  0  0  0  0
  146.4081  139.5177  154.7823 C   0  0  1  0  0  0  0  0  0  0  0  0
  147.1940  139.9960  153.5448 C   0  0  0  0  0  0  0  0  0  0  0  0
  148.0354  141.2673  153.8022 C   0  0  2  0  0  0  0  0  0  0  0  0
  149.3732  141.0044  154.5195 C   0  0  0  0  0  0  0  0  0  0  0  0
  150.0526  140.0102  154.2626 O   0  0  0  0  0  0  0  0  0  0  0  0
  149.7619  141.9362  155.4024 N   0  0  0  0  0  0  0  0  0  0  0  0
  150.9952  141.8735  156.1736 C   0  0  0  0  0  0  0  0  0  0  0  0
  150.6944  141.9126  157.6770 C   0  0  0  0  0  0  0  0  0  0  0  0
  151.1362  143.1897  158.3210 C   0  0  0  0  0  0  0  0  0  0  0  0
  150.6809  144.4106  158.0158 N   0  3  0  0  0  0  0  0  0  0  0  0
  151.2827  145.3547  158.8025 C   0  0  0  0  0  0  0  0  0  0  0  0
  152.1399  144.6787  159.6311 C   0  0  0  0  0  0  0  0  0  0  0  0
  152.0260  143.3491  159.3149 N   0  0  0  0  0  0  0  0  0  0  0  0
  152.7490  142.2389  159.9392 C   0  0  0  0  0  0  0  0  0  0  0  0
  147.1818  142.3760  154.4693 C   0  0  0  0  0  0  0  0  0  0  0  0
  146.3207  141.9413  155.6871 C   0  0  0  0  0  0  0  0  0  0  0  0
  147.1713  141.7369  156.9603 C   0  0  0  0  0  0  0  0  0  0  0  0
  145.3132  143.0683  155.9931 C   0  0  0  0  0  0  0  0  0  0  0  0
  145.5299  140.6579  155.3344 C   0  0  0  0  0  0  0  0  0  0  0  0
  144.8288  138.4889  153.6792 H   0  0  0  0  0  0  0  0  0  0  0  0
  145.0267  137.9251  155.3366 H   0  0  0  0  0  0  0  0  0  0  0  0
  146.1925  137.4576  154.1053 H   0  0  0  0  0  0  0  0  0  0  0  0
  147.1138  139.2179  155.5555 H   0  0  0  0  0  0  0  0  0  0  0  0
  147.8319  139.1907  153.1770 H   0  0  0  0  0  0  0  0  0  0  0  0
  146.4906  140.2033  152.7371 H   0  0  0  0  0  0  0  0  0  0  0  0
  148.3254  141.6426  152.8195 H   0  0  0  0  0  0  0  0  0  0  0  0
  149.1599  142.7331  155.5524 H   0  0  0  0  0  0  0  0  0  0  0  0
  151.5299  140.9567  155.9200 H   0  0  0  0  0  0  0  0  0  0  0  0
  151.6398  142.7094  155.8982 H   0  0  0  0  0  0  0  0  0  0  0  0
  149.6272  141.7975  157.8698 H   0  0  0  0  0  0  0  0  0  0  0  0
  151.2059  141.1010  158.1965 H   0  0  0  0  0  0  0  0  0  0  0  0
  151.0604  146.4087  158.7174 H   0  0  0  0  0  0  0  0  0  0  0  0
  152.8045  145.0372  160.4040 H   0  0  0  0  0  0  0  0  0  0  0  0
  153.3459  142.6132  160.7714 H   0  0  0  0  0  0  0  0  0  0  0  0
  153.4073  141.7782  159.2027 H   0  0  0  0  0  0  0  0  0  0  0  0
  152.0365  141.5025  160.3117 H   0  0  0  0  0  0  0  0  0  0  0  0
  147.8101  143.2235  154.7472 H   0  0  0  0  0  0  0  0  0  0  0  0
  146.5142  142.7651  153.6989 H   0  0  0  0  0  0  0  0  0  0  0  0
  146.5394  141.5308  157.8248 H   0  0  0  0  0  0  0  0  0  0  0  0
  147.7575  142.6268  157.1912 H   0  0  0  0  0  0  0  0  0  0  0  0
  147.8652  140.9040  156.8800 H   0  0  0  0  0  0  0  0  0  0  0  0
  144.6700  142.8097  156.8351 H   0  0  0  0  0  0  0  0  0  0  0  0
  144.6642  143.2707  155.1405 H   0  0  0  0  0  0  0  0  0  0  0  0
  145.8223  143.9998  156.2433 H   0  0  0  0  0  0  0  0  0  0  0  0
  144.7703  140.8982  154.5886 H   0  0  0  0  0  0  0  0  0  0  0  0
  144.9839  140.3097  156.2123 H   0  0  0  0  0  0  0  0  0  0  0  0
  149.9885  144.6049  157.3033 H   0  0  0  0  0  0  0  0  0  0  0  0
  1  2  1  0  0  0  0
  1 21  1  0  0  0  0
  1 22  1  0  0  0  0
  1 23  1  0  0  0  0
  2 20  1  0  0  0  0
  2  3  1  0  0  0  0
  2 24  1  0  0  0  0
  3  4  1  0  0  0  0
  3 25  1  0  0  0  0
  3 26  1  0  0  0  0
  4  5  1  0  0  0  0
  4 16  1  0  0  0  0
  4 27  1  0  0  0  0
  5  6  2  0  0  0  0
  5  7  1  0  0  0  0
  7  8  1  0  0  0  0
  7 28  1  0  0  0  0
  8  9  1  0  0  0  0
  8 29  1  0  0  0  0
  8 30  1  0  0  0  0
  9 10  1  0  0  0  0
  9 31  1  0  0  0  0
  9 32  1  0  0  0  0
 10 14  1  0  0  0  0
 10 11  2  0  0  0  0
 11 12  1  0  0  0  0
 11 48  1  0  0  0  0
 12 13  2  0  0  0  0
 12 33  1  0  0  0  0
 13 14  1  0  0  0  0
 13 34  1  0  0  0  0
 14 15  1  0  0  0  0
 15 35  1  0  0  0  0
 15 36  1  0  0  0  0
 15 37  1  0  0  0  0
 16 17  1  0  0  0  0
 16 38  1  0  0  0  0
 16 39  1  0  0  0  0
 17 18  1  0  0  0  0
 17 19  1  0  0  0  0
 17 20  1  0  0  0  0
 18 40  1  0  0  0  0
 18 41  1  0  0  0  0
 18 42  1  0  0  0  0
 19 43  1  0  0  0  0
 19 44  1  0  0  0  0
 19 45  1  0  0  0  0
 20 46  1  0  0  0  0
 20 47  1  0  0  0  0
M  CHG  1  11   1
M  END
> <s_m_source_file>
AV-unprocessed.smi

> <i_m_source_file_index>
2473

> <i_lp_mmshare_version>
43012

> <i_f3d_flags>
0

> <s_epik_input>
W0NIM11bQ0BASF0oW0NIMl0xKVtDSDJdW0NASF0oW0NIMl1DMShbQ0gzXSlbQ0gzXSlDKD1PKVtOSF1bQ0gyXVtDSDJdYzJuW2NIXVtjSF1uMltDSDNd

> <s_epik_cmdline>
J2VwaWtfcHl0aG9uJywgJy1waCcsICc3LjAnLCAnLXRuJywgJzgnLCAnLW1hJywgJzIwMCcsICctbWV0YWxfYmluZGluZycsICctaW1hZScsICc8aW5maWxlLm1hZT4nLCAnLW9tYWUnLCAnPG91dGZpbGUubWFlPic=

> <r_lp_tautomer_probability>
1

> <r_epik_Ionization_Penalty>
0.0796112

> <r_epik_Ionization_Penalty_Charging>
0

> <r_epik_Ionization_Penalty_Neutral>
0.0796112

> <r_epik_State_Penalty>
0.0704541

> <r_epik_Charging_Adjusted_Penalty>
0.0704541

> <i_epik_Tot_Q>
1

> <i_epik_Tot_abs_Q>
1

> <r_epik_Metal_State_Penalty>
0.409899

> <b_epik_Metal_Only>
0

> <s_lp_Force_Field>
OPLS_2005

> <r_lp_Energy>
17.0115

> <b_lp_Chiralities_Consistent>
1

> <s_lp_Variant>
AV-unprocessed.smi:2473-4

> <Gold.Version>
5.8.1

> <Gold.Id.Protein>
6NUR|6NUR_protein|mol2

> <Gold.PLP.Fitness>
53.0682

> <Gold.PLP.PLP>
-42.6556

> <Gold.PLP.part.hbond>
-3.1559

> <Gold.PLP.part.metal>
0.0000

> <Gold.PLP.part.buried>
-5.1079

> <Gold.PLP.part.nonpolar>
-34.4841

> <Gold.PLP.part.repulsive>
0.4630

> <Gold.PLP.ligand.clash>
0.0000

> <Gold.PLP.ligand.torsion>
0.8431

> <Gold.PLP.Chemscore.Hbond>
4.0000

> <Gold.PLP.Chemscore.CHOScore>
0.0000

> <Gold.PLP.Chemscore.Metal>
0.0000

> <Gold.Chemscore.Hbonds>
donor molecule, donor type, donor heavy atom, donor atom, acceptor molecule, acceptor atom, score
      L1  H     7    28       P1  8028  1.00
      L1  H    11    48       P1  8028  2.00
      P1  H  7989  7998       L1     6  1.00

> <Gold.PLP.Chemscore.Internal.Correction>
0.0988

> <Gold.Rescore>
     Score         DG    S(hbond)    S(metal)    S(lipo)     H(rot)  DE(clash)    DE(int)     intcor
     14.80     -17.06       1.73        0.00      84.25       1.58       0.57       1.68       ----

> <Gold.Chemscore.Fitness>
14.8048

> <Gold.Chemscore.DG>
-17.0554

> <Gold.Chemscore.ZeroCoef>
-5.4800

> <Gold.Chemscore.Hbond>
1.7268

> <Gold.Chemscore.Metal>
0.0000

> <Gold.Chemscore.Lipo>
84.2514

> <Gold.Chemscore.Internal_Hbond>
0.0000

> <Gold.Chemscore.DEClash>
0.5663

> <Gold.Chemscore.DEInternal>
1.6842

> <Gold.Chemscore.Rot>
1.5818

> <Gold.Chemscore.Internal.Correction>
   9.000000E+99

> <Gold.Chemscore.Hbonds>
donor molecule, donor type, donor heavy atom, donor atom, acceptor molecule, acceptor atom, score
      L1  H     7    28       P1  8028  0.92
      L1  H    11    48       P1  8028  0.25
      P1  H  7989  7998       L1     6  0.24

> <Gold.Chemscore.Hbond.Weighted>
-5.7674

> <Gold.Chemscore.Metal.Weighted>
-0.0000

> <Gold.Chemscore.Lipo.Weighted>
-9.8574

> <Gold.Chemscore.Internal_Hbond.Weighted>
0.0000

> <Gold.Chemscore.DEClash.Weighted>
0.5663

> <Gold.Chemscore.DEInternal.Weighted>
1.6842

> <Gold.Chemscore.Rot.Weighted>
4.0495

> <Gold.Chemscore.Internal.Correction.Weighted>
   9.000000E+99

> <Gold.Protein.RotatedTorsions>
[ 6907 6896 6895 6894 ] final   47.11 input  -60.11 | X-H torsion
[ 7974 7965 7964 7962 ] final  -31.25 input  175.53 | X-H torsion
[ 8008 7997 7996 7995 ] final -159.22 input   59.86 | X-H torsion
[ 10167 10162 10161 10158 ] final   88.96 input  -65.29 | X-H torsion
[ 10718 10713 10712 10709 ] final  118.43 input   66.30 | X-H torsion
[ 10763 10752 10751 10750 ] final  176.75 input  -60.55 | X-H torsion
[ 11005 11000 10999 10996 ] final   44.34 input  -57.11 | X-H torsion

> <Gold.Protein.ActiveResidues>
 VAL166  LYS551  ARG553  GLY616  TRP617  ASP618  TYR619  PRO620  LYS621  CYS622 
 ASP623  PHE694  ASN695  SER759  ASP760  ASP761  ALA762  ILE779  LEU786  VAL792 
 PHE793  MET794  SER795  GLU796  ALA797  LYS798  CYS799  TRP800  GLU811  SER814 

> <Gold.Protein.RotatedAtoms>
  152.2642  134.8001  160.0425 H   0  0  0  0  0  0  0  0  0  0  0  0  # atno 6907 bound_to 6896
  151.8637  133.3457  159.3720 H   0  0  0  0  0  0  0  0  0  0  0  0  # atno 6908 bound_to 6896
  150.7128  134.5108  159.5651 H   0  0  0  0  0  0  0  0  0  0  0  0  # atno 6909 bound_to 6896
  146.1082  140.5643  142.8790 H   0  0  0  0  0  0  0  0  0  0  0  0  # atno 7974 bound_to 7965
  155.7593  140.0837  157.2163 H   0  0  0  0  0  0  0  0  0  0  0  0  # atno 8008 bound_to 7997
  154.4005  140.1546  156.2870 H   0  0  0  0  0  0  0  0  0  0  0  0  # atno 8009 bound_to 7997
  155.8855  140.3418  155.5921 H   0  0  0  0  0  0  0  0  0  0  0  0  # atno 8010 bound_to 7997
  139.8621  144.6538  150.9046 H   0  0  0  0  0  0  0  0  0  0  0  0  # atno 10167 bound_to 10162
  157.6031  131.1048  150.7754 H   0  0  0  0  0  0  0  0  0  0  0  0  # atno 10718 bound_to 10713
  154.4854  135.2776  155.1538 H   0  0  0  0  0  0  0  0  0  0  0  0  # atno 10763 bound_to 10752
  154.3232  135.6205  153.5521 H   0  0  0  0  0  0  0  0  0  0  0  0  # atno 10764 bound_to 10752
  152.9880  135.5747  154.5263 H   0  0  0  0  0  0  0  0  0  0  0  0  # atno 10765 bound_to 10752
  140.1561  134.4400  155.8349 H   0  0  0  0  0  0  0  0  0  0  0  0  # atno 11005 bound_to 11000
  144.7488  140.5138  143.6816 LP  0  0  0  0  0  0  0  0  0  0  0  0  # atno 17320 bound_to 7965
  145.5718  139.1484  143.3284 LP  0  0  0  0  0  0  0  0  0  0  0  0  # atno 17321 bound_to 7965
  140.7773  143.3735  151.1605 LP  0  0  0  0  0  0  0  0  0  0  0  0  # atno 17342 bound_to 10162
  139.7364  143.8992  152.3036 LP  0  0  0  0  0  0  0  0  0  0  0  0  # atno 17343 bound_to 10162
  156.8149  130.4964  149.5351 LP  0  0  0  0  0  0  0  0  0  0  0  0  # atno 17370 bound_to 10713
  156.1109  130.6040  151.0046 LP  0  0  0  0  0  0  0  0  0  0  0  0  # atno 17371 bound_to 10713
  141.2204  133.6893  156.7509 LP  0  0  0  0  0  0  0  0  0  0  0  0  # atno 17394 bound_to 11000
  140.2546  134.8514  157.3700 LP  0  0  0  0  0  0  0  0  0  0  0  0  # atno 17395 bound_to 11000

$$$$
