AV-unprocessed.smi:1824|AV-procd|sdf|7393|dock2
  -GOLD-   22720 9 63D 1   1.00000     0.00000
 Structure written by MMmdl.
 44 46  0  0  0  0  0  0  0  0  1 V2000
  151.2291  145.2696  159.7494 C   0  0  0  0  0  0  0  0  0  0  0  0
  152.2947  144.6282  158.8444 C   0  0  2  0  0  0  0  0  0  0  0  0
  151.7077  143.9703  157.5796 C   0  0  0  0  0  0  0  0  0  0  0  0
  151.0150  142.7177  157.8626 N   0  0  0  0  0  0  0  0  0  0  0  0
  150.4766  142.1288  156.6367 C   0  0  0  0  0  0  0  0  0  0  0  0
  150.3970  140.5873  156.6280 C   0  0  2  0  0  0  0  0  0  0  0  0
  151.0729  140.0941  155.4863 O   0  0  0  0  0  0  0  0  0  0  0  0
  148.9394  140.0867  156.5911 C   0  0  0  0  0  0  0  0  0  0  0  0
  148.1441  140.7622  155.5811 N   0  0  0  0  0  0  0  0  0  0  0  0
  148.1362  140.5229  154.2555 C   0  0  0  0  0  0  0  0  0  0  0  0
  147.3259  141.2664  153.5072 N   0  0  0  0  0  0  0  0  0  0  0  0
  146.7397  142.0848  154.4576 C   0  0  0  0  0  0  0  0  0  0  0  0
  145.7763  143.1091  154.3181 C   0  0  0  0  0  0  0  0  0  0  0  0
  145.3197  143.8199  155.4477 C   0  0  0  0  0  0  0  0  0  0  0  0
  144.3960  144.7985  155.2963 F   0  0  0  0  0  0  0  0  0  0  0  0
  145.8192  143.5174  156.7321 C   0  0  0  0  0  0  0  0  0  0  0  0
  145.3751  144.2040  157.8114 F   0  0  0  0  0  0  0  0  0  0  0  0
  146.7801  142.5013  156.8956 C   0  0  0  0  0  0  0  0  0  0  0  0
  147.2319  141.7950  155.7659 C   0  0  0  0  0  0  0  0  0  0  0  0
  151.9261  141.8196  158.5647 C   0  0  0  0  0  0  0  0  0  0  0  0
  152.4704  142.4488  159.8600 C   0  0  1  0  0  0  0  0  0  0  0  0
  153.4982  141.5461  160.5500 C   0  0  0  0  0  0  0  0  0  0  0  0
  153.1031  143.6910  159.5576 O   0  0  0  0  0  0  0  0  0  0  0  0
  150.6959  146.0596  159.2200 H   0  0  0  0  0  0  0  0  0  0  0  0
  151.6868  145.7148  160.6330 H   0  0  0  0  0  0  0  0  0  0  0  0
  150.4870  144.5459  160.0862 H   0  0  0  0  0  0  0  0  0  0  0  0
  152.9633  145.4283  158.5256 H   0  0  0  0  0  0  0  0  0  0  0  0
  151.0305  144.6693  157.0872 H   0  0  0  0  0  0  0  0  0  0  0  0
  152.5191  143.7822  156.8744 H   0  0  0  0  0  0  0  0  0  0  0  0
  149.4608  142.5072  156.5136 H   0  0  0  0  0  0  0  0  0  0  0  0
  151.0246  142.4899  155.7650 H   0  0  0  0  0  0  0  0  0  0  0  0
  150.8814  140.1876  157.5202 H   0  0  0  0  0  0  0  0  0  0  0  0
  150.9688  139.1554  155.4572 H   0  0  0  0  0  0  0  0  0  0  0  0
  148.9135  139.0173  156.3780 H   0  0  0  0  0  0  0  0  0  0  0  0
  148.4627  140.2228  157.5632 H   0  0  0  0  0  0  0  0  0  0  0  0
  148.7591  139.7578  153.8152 H   0  0  0  0  0  0  0  0  0  0  0  0
  145.3870  143.3494  153.3398 H   0  0  0  0  0  0  0  0  0  0  0  0
  147.1637  142.2664  157.8774 H   0  0  0  0  0  0  0  0  0  0  0  0
  151.4155  140.8911  158.8193 H   0  0  0  0  0  0  0  0  0  0  0  0
  152.7565  141.5510  157.9096 H   0  0  0  0  0  0  0  0  0  0  0  0
  151.6470  142.6220  160.5538 H   0  0  0  0  0  0  0  0  0  0  0  0
  153.0599  140.5836  160.8144 H   0  0  0  0  0  0  0  0  0  0  0  0
  153.8670  142.0064  161.4670 H   0  0  0  0  0  0  0  0  0  0  0  0
  154.3559  141.3576  159.9037 H   0  0  0  0  0  0  0  0  0  0  0  0
  1  2  1  0  0  0  0
  1 24  1  0  0  0  0
  1 25  1  0  0  0  0
  1 26  1  0  0  0  0
  2 23  1  0  0  0  0
  2  3  1  0  0  0  0
  2 27  1  0  0  0  0
  3  4  1  0  0  0  0
  3 28  1  0  0  0  0
  3 29  1  0  0  0  0
  4  5  1  0  0  0  0
  4 20  1  0  0  0  0
  5  6  1  0  0  0  0
  5 30  1  0  0  0  0
  5 31  1  0  0  0  0
  6  7  1  0  0  0  0
  6  8  1  0  0  0  0
  6 32  1  0  0  0  0
  7 33  1  0  0  0  0
  8  9  1  0  0  0  0
  8 34  1  0  0  0  0
  8 35  1  0  0  0  0
  9 19  1  0  0  0  0
  9 10  1  0  0  0  0
 10 11  2  0  0  0  0
 10 36  1  0  0  0  0
 11 12  1  0  0  0  0
 12 19  2  0  0  0  0
 12 13  1  0  0  0  0
 13 14  2  0  0  0  0
 13 37  1  0  0  0  0
 14 15  1  0  0  0  0
 14 16  1  0  0  0  0
 16 17  1  0  0  0  0
 16 18  2  0  0  0  0
 18 19  1  0  0  0  0
 18 38  1  0  0  0  0
 20 21  1  0  0  0  0
 20 39  1  0  0  0  0
 20 40  1  0  0  0  0
 21 22  1  0  0  0  0
 21 23  1  0  0  0  0
 21 41  1  0  0  0  0
 22 42  1  0  0  0  0
 22 43  1  0  0  0  0
 22 44  1  0  0  0  0
M  END
> <s_m_source_file>
AV-unprocessed.smi

> <i_m_source_file_index>
1824

> <i_lp_mmshare_version>
43012

> <i_f3d_flags>
0

> <s_epik_input>
W0NIM11bQ0BASF0xW0NIMl1OKFtDSDJdW0NASF0oTzEpW0NIM10pW0NIMl1bQ0BIXShbT0hdKVtDSDJdbihbY0hdbjIpYyhjMjMpW2NIXWMoRiljKEYpW2NIXTM=

> <s_epik_cmdline>
J2VwaWtfcHl0aG9uJywgJy1waCcsICc3LjAnLCAnLXRuJywgJzgnLCAnLW1hJywgJzIwMCcsICctbWV0YWxfYmluZGluZycsICctaW1hZScsICc8aW5maWxlLm1hZT4nLCAnLW9tYWUnLCAnPG91dGZpbGUubWFlPic=

> <r_epik_Ionization_Penalty>
0.273778

> <r_epik_Ionization_Penalty_Charging>
0

> <r_epik_Ionization_Penalty_Neutral>
0.273778

> <r_epik_State_Penalty>
0.246794

> <r_epik_Charging_Adjusted_Penalty>
0.246794

> <i_epik_Tot_Q>
0

> <i_epik_Tot_abs_Q>
0

> <r_epik_Metal_State_Penalty>
0.238234

> <b_epik_Metal_Only>
0

> <s_lp_Force_Field>
OPLS_2005

> <r_lp_Energy>
29.8683

> <b_lp_Chiralities_Consistent>
1

> <s_lp_Variant>
AV-unprocessed.smi:1824-1

> <Gold.Version>
5.8.1

> <Gold.Id.Protein>
6NUR|6NUR_protein|mol2

> <Gold.PLP.Fitness>
49.5912

> <Gold.PLP.PLP>
-47.3267

> <Gold.PLP.part.hbond>
-1.0000

> <Gold.PLP.part.metal>
0.0000

> <Gold.PLP.part.buried>
-6.0774

> <Gold.PLP.part.nonpolar>
-41.8839

> <Gold.PLP.part.repulsive>
0.5205

> <Gold.PLP.ligand.clash>
0.0000

> <Gold.PLP.ligand.torsion>
1.4734

> <Gold.PLP.Chemscore.Hbond>
0.9920

> <Gold.PLP.Chemscore.CHOScore>
0.7376

> <Gold.PLP.Chemscore.Metal>
0.0000

> <Gold.Chemscore.Hbonds>
donor molecule, donor type, donor heavy atom, donor atom, acceptor molecule, acceptor atom, score
      P1  H  7989  7998       L1     7  0.57
      L1  C    10    36       P1  7957  0.25

> <Gold.PLP.Chemscore.Internal.Correction>
0.0224

> <Gold.Rescore>
     Score         DG    S(hbond)    S(metal)    S(lipo)     H(rot)  DE(clash)    DE(int)     intcor
     13.60     -15.29       0.88        0.00     108.09       2.26       0.06       1.63       ----

> <Gold.Chemscore.Fitness>
13.5965

> <Gold.Chemscore.DG>
-15.2870

> <Gold.Chemscore.ZeroCoef>
-5.4800

> <Gold.Chemscore.Hbond>
0.8837

> <Gold.Chemscore.Metal>
0.0000

> <Gold.Chemscore.Lipo>
108.0858

> <Gold.Chemscore.Internal_Hbond>
0.0000

> <Gold.Chemscore.DEClash>
0.0633

> <Gold.Chemscore.DEInternal>
1.6272

> <Gold.Chemscore.Rot>
2.2619

> <Gold.Chemscore.Internal.Correction>
   9.000000E+99

> <Gold.Chemscore.Hbonds>
donor molecule, donor type, donor heavy atom, donor atom, acceptor molecule, acceptor atom, score
      P1  H  7989  7998       L1     7  0.43

> <Gold.Chemscore.Hbond.Weighted>
-2.9514

> <Gold.Chemscore.Metal.Weighted>
-0.0000

> <Gold.Chemscore.Lipo.Weighted>
-12.6460

> <Gold.Chemscore.Internal_Hbond.Weighted>
0.0000

> <Gold.Chemscore.DEClash.Weighted>
0.0633

> <Gold.Chemscore.DEInternal.Weighted>
1.6272

> <Gold.Chemscore.Rot.Weighted>
5.7904

> <Gold.Chemscore.Internal.Correction.Weighted>
   9.000000E+99

> <Gold.Protein.RotatedTorsions>
[ 6907 6896 6895 6894 ] final  142.70 input  -60.11 | X-H torsion
[ 7974 7965 7964 7962 ] final   12.55 input  175.53 | X-H torsion
[ 8008 7997 7996 7995 ] final  118.88 input   59.86 | X-H torsion
[ 10167 10162 10161 10158 ] final   58.74 input  -65.29 | X-H torsion
[ 10718 10713 10712 10709 ] final -159.89 input   66.30 | X-H torsion
[ 10763 10752 10751 10750 ] final  -16.83 input  -60.55 | X-H torsion
[ 11005 11000 10999 10996 ] final    0.40 input  -57.11 | X-H torsion

> <Gold.Protein.ActiveResidues>
 VAL166  LYS551  ARG553  GLY616  TRP617  ASP618  TYR619  PRO620  LYS621  CYS622 
 ASP623  PHE694  ASN695  SER759  ASP760  ASP761  ALA762  ILE779  LEU786  VAL792 
 PHE793  MET794  SER795  GLU796  ALA797  LYS798  CYS799  TRP800  GLU811  SER814 

> <Gold.Protein.RotatedAtoms>
  152.2154  133.4943  159.5132 H   0  0  0  0  0  0  0  0  0  0  0  0  # atno 6907 bound_to 6896
  150.7000  134.1412  159.4114 H   0  0  0  0  0  0  0  0  0  0  0  0  # atno 6908 bound_to 6896
  151.9332  135.0247  160.0581 H   0  0  0  0  0  0  0  0  0  0  0  0  # atno 6909 bound_to 6896
  146.2349  139.9320  142.8495 H   0  0  0  0  0  0  0  0  0  0  0  0  # atno 7974 bound_to 7965
  156.2568  140.2865  156.0904 H   0  0  0  0  0  0  0  0  0  0  0  0  # atno 8008 bound_to 7997
  155.1469  140.0396  157.2829 H   0  0  0  0  0  0  0  0  0  0  0  0  # atno 8009 bound_to 7997
  154.6489  140.2540  155.7243 H   0  0  0  0  0  0  0  0  0  0  0  0  # atno 8010 bound_to 7997
  140.1840  144.4153  150.6602 H   0  0  0  0  0  0  0  0  0  0  0  0  # atno 10167 bound_to 10162
  156.5744  130.8702  151.2847 H   0  0  0  0  0  0  0  0  0  0  0  0  # atno 10718 bound_to 10713
  153.5646  135.7009  153.5532 H   0  0  0  0  0  0  0  0  0  0  0  0  # atno 10763 bound_to 10752
  153.3399  135.4024  155.1563 H   0  0  0  0  0  0  0  0  0  0  0  0  # atno 10764 bound_to 10752
  154.8642  135.3739  154.5165 H   0  0  0  0  0  0  0  0  0  0  0  0  # atno 10765 bound_to 10752
  140.6269  133.9610  155.8254 H   0  0  0  0  0  0  0  0  0  0  0  0  # atno 11005 bound_to 11000
  145.2035  140.9865  143.4142 LP  0  0  0  0  0  0  0  0  0  0  0  0  # atno 17320 bound_to 7965
  144.9753  139.3838  143.6289 LP  0  0  0  0  0  0  0  0  0  0  0  0  # atno 17321 bound_to 7965
  140.6501  143.2223  151.6098 LP  0  0  0  0  0  0  0  0  0  0  0  0  # atno 17342 bound_to 10162
  139.5284  144.2990  152.1089 LP  0  0  0  0  0  0  0  0  0  0  0  0  # atno 17343 bound_to 10162
  157.7341  130.9740  150.2010 LP  0  0  0  0  0  0  0  0  0  0  0  0  # atno 17370 bound_to 10713
  156.2686  130.3719  149.8055 LP  0  0  0  0  0  0  0  0  0  0  0  0  # atno 17371 bound_to 10713
  141.0703  134.0216  157.3536 LP  0  0  0  0  0  0  0  0  0  0  0  0  # atno 17394 bound_to 11000
  139.9131  135.0193  156.7773 LP  0  0  0  0  0  0  0  0  0  0  0  0  # atno 17395 bound_to 11000

$$$$
