AV-unprocessed.smi:1800|AV-procd|sdf|7265|dock6
  -GOLD-   22720 8523D 1   1.00000     0.00000
 Structure written by MMmdl.
 35 36  0  0  0  0  0  0  0  0  2 V2000
  151.4339  141.9361  158.0081 C   0  0  0  0  0  0  0  0  0  0  0  0
  152.2678  140.8303  158.6698 C   0  0  2  0  0  0  0  0  0  0  0  0
  153.4905  141.4071  159.4286 C   0  0  0  0  0  0  0  0  0  0  0  0
  153.1496  142.2004  160.6067 N   0  0  0  0  0  0  0  0  0  0  0  0
  153.5412  142.0126  161.9193 C   0  0  0  0  0  0  0  0  0  0  0  0
  152.9633  142.9994  162.6653 C   0  0  0  0  0  0  0  0  0  0  0  0
  152.2160  143.7476  161.7138 C   0  0  0  0  0  0  0  0  0  0  0  0
  152.3152  143.2599  160.4885 N   0  0  0  0  0  0  0  0  0  0  0  0
  152.7094  139.8953  157.6439 N   0  5  0  0  0  0  0  0  0  0  0  0
  152.0152  138.4335  157.5345 S   0  0  0  0  0  0  0  0  0  0  0  0
  152.8640  137.3599  158.0778 O   0  0  0  0  0  0  0  0  0  0  0  0
  150.6106  138.4544  157.9739 O   0  0  0  0  0  0  0  0  0  0  0  0
  151.9893  138.2150  155.6893 C   0  0  0  0  0  0  0  0  0  0  0  0
  151.2377  139.3565  154.9973 C   0  0  0  0  0  0  0  0  0  0  0  0
  149.7605  138.9671  155.0852 C   0  0  0  0  0  0  0  0  0  0  0  0
  149.7333  137.4317  155.1005 C   0  0  0  0  0  0  0  0  0  0  0  0
  151.1882  136.9717  155.2803 C   0  0  0  0  0  0  0  0  0  0  0  0
  151.0711  142.6479  158.7497 H   0  0  0  0  0  0  0  0  0  0  0  0
  150.5630  141.5211  157.4990 H   0  0  0  0  0  0  0  0  0  0  0  0
  152.0177  142.4918  157.2731 H   0  0  0  0  0  0  0  0  0  0  0  0
  151.6226  140.3448  159.4035 H   0  0  0  0  0  0  0  0  0  0  0  0
  154.1666  140.6030  159.7257 H   0  0  0  0  0  0  0  0  0  0  0  0
  154.0630  142.0505  158.7596 H   0  0  0  0  0  0  0  0  0  0  0  0
  154.1998  141.2062  162.2060 H   0  0  0  0  0  0  0  0  0  0  0  0
  153.0620  143.1627  163.7280 H   0  0  0  0  0  0  0  0  0  0  0  0
  151.6035  144.6219  161.8770 H   0  0  0  0  0  0  0  0  0  0  0  0
  153.0239  138.1689  155.3488 H   0  0  0  0  0  0  0  0  0  0  0  0
  151.4390  140.3371  155.4284 H   0  0  0  0  0  0  0  0  0  0  0  0
  151.5367  139.3983  153.9493 H   0  0  0  0  0  0  0  0  0  0  0  0
  149.3353  139.3498  156.0140 H   0  0  0  0  0  0  0  0  0  0  0  0
  149.1773  139.3843  154.2641 H   0  0  0  0  0  0  0  0  0  0  0  0
  149.1066  137.0720  155.9172 H   0  0  0  0  0  0  0  0  0  0  0  0
  149.3189  137.0339  154.1738 H   0  0  0  0  0  0  0  0  0  0  0  0
  151.5664  136.6033  154.3262 H   0  0  0  0  0  0  0  0  0  0  0  0
  151.2832  136.1555  155.9971 H   0  0  0  0  0  0  0  0  0  0  0  0
  1  2  1  0  0  0  0
  1 18  1  0  0  0  0
  1 19  1  0  0  0  0
  1 20  1  0  0  0  0
  2  3  1  0  0  0  0
  2  9  1  0  0  0  0
  2 21  1  0  0  0  0
  3  4  1  0  0  0  0
  3 22  1  0  0  0  0
  3 23  1  0  0  0  0
  4  8  1  0  0  0  0
  4  5  1  0  0  0  0
  5  6  2  0  0  0  0
  5 24  1  0  0  0  0
  6  7  1  0  0  0  0
  6 25  1  0  0  0  0
  7  8  2  0  0  0  0
  7 26  1  0  0  0  0
  9 10  1  0  0  0  0
 10 11  2  0  0  0  0
 10 12  2  0  0  0  0
 10 13  1  0  0  0  0
 13 17  1  0  0  0  0
 13 14  1  0  0  0  0
 13 27  1  0  0  0  0
 14 15  1  0  0  0  0
 14 28  1  0  0  0  0
 14 29  1  0  0  0  0
 15 16  1  0  0  0  0
 15 30  1  0  0  0  0
 15 31  1  0  0  0  0
 16 17  1  0  0  0  0
 16 32  1  0  0  0  0
 16 33  1  0  0  0  0
 17 34  1  0  0  0  0
 17 35  1  0  0  0  0
M  CHG  1   9  -1
M  END
> <s_m_source_file>
AV-unprocessed.smi

> <i_m_source_file_index>
1800

> <i_lp_mmshare_version>
43012

> <i_f3d_flags>
0

> <s_epik_input>
bjFbY0hdW2NIXVtjSF1uMVtDSDJdW0NAQEhdKFtDSDNdKVtOSF1TKD1PKSg9TylbQ0hdMltDSDJdW0NIMl1bQ0gyXVtDSDJdMg==

> <s_epik_cmdline>
J2VwaWtfcHl0aG9uJywgJy1waCcsICc3LjAnLCAnLXRuJywgJzgnLCAnLW1hJywgJzIwMCcsICctbWV0YWxfYmluZGluZycsICctaW1hZScsICc8aW5maWxlLm1hZT4nLCAnLW9tYWUnLCAnPG91dGZpbGUubWFlPic=

> <r_lp_tautomer_probability>
1

> <r_epik_Ionization_Penalty>
6.58538

> <r_epik_Ionization_Penalty_Charging>
6.58536

> <r_epik_Ionization_Penalty_Neutral>
2.3841e-05

> <r_epik_State_Penalty>
6.58535

> <r_epik_Charging_Adjusted_Penalty>
13.1707

> <i_epik_Tot_Q>
-1

> <i_epik_Tot_abs_Q>
1

> <r_epik_Metal_State_Penalty>
2.50999

> <b_epik_Metal_Only>
1

> <s_lp_Force_Field>
OPLS_2005

> <r_lp_Energy>
15.5641

> <b_lp_Chiralities_Consistent>
1

> <s_lp_Variant>
AV-unprocessed.smi:1800-3

> <Gold.Version>
5.8.1

> <Gold.Id.Protein>
6NUR|6NUR_protein|mol2

> <Gold.PLP.Fitness>
40.8311

> <Gold.PLP.PLP>
-35.5037

> <Gold.PLP.part.hbond>
-1.0000

> <Gold.PLP.part.metal>
0.0000

> <Gold.PLP.part.buried>
-3.5827

> <Gold.PLP.part.nonpolar>
-31.0753

> <Gold.PLP.part.repulsive>
0.0333

> <Gold.PLP.ligand.clash>
0.0000

> <Gold.PLP.ligand.torsion>
0.8806

> <Gold.PLP.Chemscore.Hbond>
2.0000

> <Gold.PLP.Chemscore.CHOScore>
0.0000

> <Gold.PLP.Chemscore.Metal>
0.0000

> <Gold.Chemscore.Hbonds>
donor molecule, donor type, donor heavy atom, donor atom, acceptor molecule, acceptor atom, score
      P1  H  7997  8009       L1     9  2.00

> <Gold.PLP.Chemscore.Internal.Correction>
1.0886

> <Gold.Rescore>
     Score         DG    S(hbond)    S(metal)    S(lipo)     H(rot)  DE(clash)    DE(int)     intcor
     13.68     -15.40       0.95        0.00      90.78       1.51       0.02       1.70       ----

> <Gold.Chemscore.Fitness>
13.6838

> <Gold.Chemscore.DG>
-15.4045

> <Gold.Chemscore.ZeroCoef>
-5.4800

> <Gold.Chemscore.Hbond>
0.9523

> <Gold.Chemscore.Metal>
0.0000

> <Gold.Chemscore.Lipo>
90.7781

> <Gold.Chemscore.Internal_Hbond>
0.0000

> <Gold.Chemscore.DEClash>
0.0170

> <Gold.Chemscore.DEInternal>
1.7037

> <Gold.Chemscore.Rot>
1.5146

> <Gold.Chemscore.Internal.Correction>
   9.000000E+99

> <Gold.Chemscore.Hbonds>
donor molecule, donor type, donor heavy atom, donor atom, acceptor molecule, acceptor atom, score
      P1  H  7997  8009       L1     9  0.90

> <Gold.Chemscore.Hbond.Weighted>
-3.1808

> <Gold.Chemscore.Metal.Weighted>
-0.0000

> <Gold.Chemscore.Lipo.Weighted>
-10.6210

> <Gold.Chemscore.Internal_Hbond.Weighted>
0.0000

> <Gold.Chemscore.DEClash.Weighted>
0.0170

> <Gold.Chemscore.DEInternal.Weighted>
1.7037

> <Gold.Chemscore.Rot.Weighted>
3.8773

> <Gold.Chemscore.Internal.Correction.Weighted>
   9.000000E+99

> <Gold.Protein.RotatedTorsions>
[ 6907 6896 6895 6894 ] final -140.21 input  -60.11 | X-H torsion
[ 7974 7965 7964 7962 ] final -165.21 input  175.53 | X-H torsion
[ 8008 7997 7996 7995 ] final  170.58 input   59.86 | X-H torsion
[ 10167 10162 10161 10158 ] final   67.45 input  -65.29 | X-H torsion
[ 10718 10713 10712 10709 ] final  133.32 input   66.30 | X-H torsion
[ 10763 10752 10751 10750 ] final  -24.25 input  -60.55 | X-H torsion
[ 11005 11000 10999 10996 ] final  139.14 input  -57.11 | X-H torsion

> <Gold.Protein.ActiveResidues>
 VAL166  LYS551  ARG553  GLY616  TRP617  ASP618  TYR619  PRO620  LYS621  CYS622 
 ASP623  PHE694  ASN695  SER759  ASP760  ASP761  ALA762  ILE779  LEU786  VAL792 
 PHE793  MET794  SER795  GLU796  ALA797  LYS798  CYS799  TRP800  GLU811  SER814 

> <Gold.Protein.RotatedAtoms>
  151.0577  133.5570  159.2636 H   0  0  0  0  0  0  0  0  0  0  0  0  # atno 6907 bound_to 6896
  151.2557  135.0636  159.9089 H   0  0  0  0  0  0  0  0  0  0  0  0  # atno 6908 bound_to 6896
  152.5392  134.0331  159.8087 H   0  0  0  0  0  0  0  0  0  0  0  0  # atno 6909 bound_to 6896
  144.7276  140.2847  143.6230 H   0  0  0  0  0  0  0  0  0  0  0  0  # atno 7974 bound_to 7965
  156.1352  140.1534  156.9005 H   0  0  0  0  0  0  0  0  0  0  0  0  # atno 8008 bound_to 7997
  154.4942  140.0843  156.7699 H   0  0  0  0  0  0  0  0  0  0  0  0  # atno 8009 bound_to 7997
  155.4181  140.3422  155.4271 H   0  0  0  0  0  0  0  0  0  0  0  0  # atno 8010 bound_to 7997
  140.0894  144.5001  150.7109 H   0  0  0  0  0  0  0  0  0  0  0  0  # atno 10167 bound_to 10162
  157.4785  131.1084  150.9712 H   0  0  0  0  0  0  0  0  0  0  0  0  # atno 10718 bound_to 10713
  153.6809  135.6967  153.5118 H   0  0  0  0  0  0  0  0  0  0  0  0  # atno 10763 bound_to 10752
  153.2486  135.4282  155.0773 H   0  0  0  0  0  0  0  0  0  0  0  0  # atno 10764 bound_to 10752
  154.8400  135.3525  154.6352 H   0  0  0  0  0  0  0  0  0  0  0  0  # atno 10765 bound_to 10752
  140.0233  134.9386  157.0519 H   0  0  0  0  0  0  0  0  0  0  0  0  # atno 11005 bound_to 11000
  145.7914  139.1928  143.2100 LP  0  0  0  0  0  0  0  0  0  0  0  0  # atno 17320 bound_to 7965
  146.0752  140.7825  142.9668 LP  0  0  0  0  0  0  0  0  0  0  0  0  # atno 17321 bound_to 7965
  140.7036  143.2452  151.4791 LP  0  0  0  0  0  0  0  0  0  0  0  0  # atno 17342 bound_to 10162
  139.5733  144.1877  152.1868 LP  0  0  0  0  0  0  0  0  0  0  0  0  # atno 17343 bound_to 10162
  157.0454  130.5765  149.5362 LP  0  0  0  0  0  0  0  0  0  0  0  0  # atno 17370 bound_to 10713
  156.0109  130.5200  150.7985 LP  0  0  0  0  0  0  0  0  0  0  0  0  # atno 17371 bound_to 10713
  140.4349  134.1742  155.7170 LP  0  0  0  0  0  0  0  0  0  0  0  0  # atno 17394 bound_to 11000
  141.1787  133.8459  157.1332 LP  0  0  0  0  0  0  0  0  0  0  0  0  # atno 17395 bound_to 11000

$$$$
