AV-unprocessed.smi:1487|AV-procd|sdf|6010|dock5
  -GOLD-   22720 6113D 1   1.00000     0.00000
 Structure written by MMmdl.
 48 50  0  0  0  0  0  0  0  0  2 V2000
  152.7750  142.5913  160.9535 C   0  0  0  0  0  0  0  0  0  0  0  0
  152.0806  142.2461  159.6479 C   0  0  0  0  0  0  0  0  0  0  0  0
  152.5539  141.1536  158.8868 C   0  0  0  0  0  0  0  0  0  0  0  0
  151.9359  140.7983  157.6681 C   0  0  0  0  0  0  0  0  0  0  0  0
  152.2291  139.7829  156.7739 N   0  0  0  0  0  0  0  0  0  0  0  0
  151.2999  139.9695  155.8416 C   0  0  0  0  0  0  0  0  0  0  0  0
  150.4410  140.9914  156.0231 N   0  0  0  0  0  0  0  0  0  0  0  0
  149.3530  141.3877  155.1472 C   0  0  0  0  0  0  0  0  0  0  0  0
  148.3987  140.2218  154.8251 C   0  0  1  0  0  0  0  0  0  0  0  0
  147.1253  140.7386  154.4888 O   0  0  0  0  0  0  0  0  0  0  0  0
  148.9157  139.3773  153.6438 C   0  0  0  0  0  0  0  0  0  0  0  0
  147.9724  138.2981  153.2535 N   0  3  2  0  0  0  0  0  0  0  0  0
  146.9536  138.7340  152.2621 C   0  0  0  0  0  0  0  0  0  0  0  0
  146.1163  137.5418  151.7733 C   0  0  0  0  0  0  0  0  0  0  0  0
  145.4445  136.8207  152.9503 C   0  0  0  0  0  0  0  0  0  0  0  0
  146.4763  136.4381  154.0246 C   0  0  1  0  0  0  0  0  0  0  0  0
  147.3034  135.3874  153.5649 O   0  0  0  0  0  0  0  0  0  0  0  0
  147.3485  137.6415  154.4330 C   0  0  0  0  0  0  0  0  0  0  0  0
  150.8221  141.5719  157.2280 C   0  0  0  0  0  0  0  0  0  0  0  0
  150.3413  142.6607  157.9766 C   0  0  0  0  0  0  0  0  0  0  0  0
  150.9708  143.0022  159.1920 C   0  0  0  0  0  0  0  0  0  0  0  0
  150.4460  144.1804  159.9936 C   0  0  0  0  0  0  0  0  0  0  0  0
  153.6376  141.9475  161.1280 H   0  0  0  0  0  0  0  0  0  0  0  0
  152.0900  142.4682  161.7927 H   0  0  0  0  0  0  0  0  0  0  0  0
  153.1265  143.6232  160.9412 H   0  0  0  0  0  0  0  0  0  0  0  0
  153.3983  140.5767  159.2340 H   0  0  0  0  0  0  0  0  0  0  0  0
  151.2423  139.3288  154.9736 H   0  0  0  0  0  0  0  0  0  0  0  0
  148.8089  142.2087  155.6170 H   0  0  0  0  0  0  0  0  0  0  0  0
  149.7852  141.7861  154.2284 H   0  0  0  0  0  0  0  0  0  0  0  0
  148.2901  139.6062  155.7174 H   0  0  0  0  0  0  0  0  0  0  0  0
  146.6537  140.0807  153.9994 H   0  0  0  0  0  0  0  0  0  0  0  0
  149.0855  140.0437  152.7964 H   0  0  0  0  0  0  0  0  0  0  0  0
  149.8857  138.9374  153.8812 H   0  0  0  0  0  0  0  0  0  0  0  0
  146.3062  139.4891  152.7111 H   0  0  0  0  0  0  0  0  0  0  0  0
  147.4322  139.2023  151.4031 H   0  0  0  0  0  0  0  0  0  0  0  0
  145.3588  137.8835  151.0671 H   0  0  0  0  0  0  0  0  0  0  0  0
  146.7541  136.8453  151.2274 H   0  0  0  0  0  0  0  0  0  0  0  0
  144.6972  137.4813  153.3919 H   0  0  0  0  0  0  0  0  0  0  0  0
  144.9062  135.9386  152.6010 H   0  0  0  0  0  0  0  0  0  0  0  0
  145.9518  136.0645  154.9047 H   0  0  0  0  0  0  0  0  0  0  0  0
  147.9582  135.7495  152.9867 H   0  0  0  0  0  0  0  0  0  0  0  0
  148.1200  137.3114  155.1305 H   0  0  0  0  0  0  0  0  0  0  0  0
  146.7396  138.3748  154.9647 H   0  0  0  0  0  0  0  0  0  0  0  0
  149.4948  143.2277  157.6187 H   0  0  0  0  0  0  0  0  0  0  0  0
  149.5710  144.6263  159.5204 H   0  0  0  0  0  0  0  0  0  0  0  0
  151.2104  144.9530  160.0800 H   0  0  0  0  0  0  0  0  0  0  0  0
  150.1583  143.8636  160.9965 H   0  0  0  0  0  0  0  0  0  0  0  0
  148.5323  137.5845  152.8076 H   0  0  0  0  0  0  0  0  0  0  0  0
  1  2  1  0  0  0  0
  1 23  1  0  0  0  0
  1 24  1  0  0  0  0
  1 25  1  0  0  0  0
  2 21  1  0  0  0  0
  2  3  2  0  0  0  0
  3  4  1  0  0  0  0
  3 26  1  0  0  0  0
  4 19  2  0  0  0  0
  4  5  1  0  0  0  0
  5  6  2  0  0  0  0
  6  7  1  0  0  0  0
  6 27  1  0  0  0  0
  7  8  1  0  0  0  0
  7 19  1  0  0  0  0
  8  9  1  0  0  0  0
  8 28  1  0  0  0  0
  8 29  1  0  0  0  0
  9 10  1  0  0  0  0
  9 11  1  0  0  0  0
  9 30  1  0  0  0  0
 10 31  1  0  0  0  0
 11 12  1  0  0  0  0
 11 32  1  0  0  0  0
 11 33  1  0  0  0  0
 12 18  1  0  0  0  0
 12 13  1  0  0  0  0
 12 48  1  0  0  0  0
 13 14  1  0  0  0  0
 13 34  1  0  0  0  0
 13 35  1  0  0  0  0
 14 15  1  0  0  0  0
 14 36  1  0  0  0  0
 14 37  1  0  0  0  0
 15 16  1  0  0  0  0
 15 38  1  0  0  0  0
 15 39  1  0  0  0  0
 16 17  1  0  0  0  0
 16 18  1  0  0  0  0
 16 40  1  0  0  0  0
 17 41  1  0  0  0  0
 18 42  1  0  0  0  0
 18 43  1  0  0  0  0
 19 20  1  0  0  0  0
 20 21  2  0  0  0  0
 20 44  1  0  0  0  0
 21 22  1  0  0  0  0
 22 45  1  0  0  0  0
 22 46  1  0  0  0  0
 22 47  1  0  0  0  0
M  CHG  1  12   1
M  END
> <s_m_source_file>
AV-unprocessed.smi

> <i_m_source_file_index>
1487

> <i_lp_mmshare_version>
43012

> <i_f3d_flags>
0

> <s_epik_input>
W0NIM11jKFtjSF0xKWMoW0NIM10pW2NIXWMoYzEyKW4oW2NIXW4yKVtDSDJdW0NASF0oW09IXSlbQ0gyXU4zW0NIMl1bQ0gyXVtDSDJdW0NAQEhdKFtPSF0pW0NIMl0z

> <s_epik_cmdline>
J2VwaWtfcHl0aG9uJywgJy1waCcsICc3LjAnLCAnLXRuJywgJzgnLCAnLW1hJywgJzIwMCcsICctbWV0YWxfYmluZGluZycsICctaW1hZScsICc8aW5maWxlLm1hZT4nLCAnLW9tYWUnLCAnPG91dGZpbGUubWFlPic=

> <r_epik_Ionization_Penalty>
0.0940186

> <r_epik_Ionization_Penalty_Charging>
0.00679686

> <r_epik_Ionization_Penalty_Neutral>
0.0872218

> <r_epik_State_Penalty>
0.0799311

> <r_epik_Charging_Adjusted_Penalty>
0.086728

> <i_epik_Tot_Q>
1

> <i_epik_Tot_abs_Q>
1

> <r_epik_Metal_State_Penalty>
7.95545e-05

> <b_epik_Metal_Only>
0

> <s_lp_Force_Field>
OPLS_2005

> <r_lp_Energy>
21.7982

> <b_lp_Chiralities_Consistent>
1

> <s_lp_Variant>
AV-unprocessed.smi:1487-4

> <Gold.Version>
5.8.1

> <Gold.Id.Protein>
6NUR|6NUR_protein|mol2

> <Gold.PLP.Fitness>
52.0725

> <Gold.PLP.PLP>
-41.1878

> <Gold.PLP.part.hbond>
-4.0000

> <Gold.PLP.part.metal>
0.0000

> <Gold.PLP.part.buried>
4.1900

> <Gold.PLP.part.nonpolar>
-41.5869

> <Gold.PLP.part.repulsive>
0.0455

> <Gold.PLP.ligand.clash>
0.0000

> <Gold.PLP.ligand.torsion>
0.5784

> <Gold.PLP.Chemscore.Hbond>
4.0000

> <Gold.PLP.Chemscore.CHOScore>
0.0000

> <Gold.PLP.Chemscore.Metal>
0.0000

> <Gold.Chemscore.Hbonds>
donor molecule, donor type, donor heavy atom, donor atom, acceptor molecule, acceptor atom, score
      L1  H    12    48       P1  7948  2.00
      L1  H    17    41       P1  7948  1.00
      P1  H  7997  8008       L1     5  0.67

> <Gold.PLP.Chemscore.Internal.Correction>
0.0415

> <Gold.Rescore>
     Score         DG    S(hbond)    S(metal)    S(lipo)     H(rot)  DE(clash)    DE(int)     intcor
     17.56     -20.63       2.61        0.00     113.52       2.67       1.43       1.63       ----

> <Gold.Chemscore.Fitness>
17.5621

> <Gold.Chemscore.DG>
-20.6251

> <Gold.Chemscore.ZeroCoef>
-5.4800

> <Gold.Chemscore.Hbond>
2.6051

> <Gold.Chemscore.Metal>
0.0000

> <Gold.Chemscore.Lipo>
113.5238

> <Gold.Chemscore.Internal_Hbond>
0.0000

> <Gold.Chemscore.DEClash>
1.4332

> <Gold.Chemscore.DEInternal>
1.6297

> <Gold.Chemscore.Rot>
2.6712

> <Gold.Chemscore.Internal.Correction>
   9.000000E+99

> <Gold.Chemscore.Hbonds>
donor molecule, donor type, donor heavy atom, donor atom, acceptor molecule, acceptor atom, score
      L1  H    12    48       P1  7948  1.00
      L1  H    17    41       P1  7948  0.97
      P1  H  7997  8008       L1     5  0.23

> <Gold.Chemscore.Hbond.Weighted>
-8.7011

> <Gold.Chemscore.Metal.Weighted>
-0.0000

> <Gold.Chemscore.Lipo.Weighted>
-13.2823

> <Gold.Chemscore.Internal_Hbond.Weighted>
0.0000

> <Gold.Chemscore.DEClash.Weighted>
1.4332

> <Gold.Chemscore.DEInternal.Weighted>
1.6297

> <Gold.Chemscore.Rot.Weighted>
6.8383

> <Gold.Chemscore.Internal.Correction.Weighted>
   9.000000E+99

> <Gold.Protein.RotatedTorsions>
[ 6907 6896 6895 6894 ] final  -38.91 input  -60.11 | X-H torsion
[ 7974 7965 7964 7962 ] final  -50.13 input  175.53 | X-H torsion
[ 8008 7997 7996 7995 ] final  -45.70 input   59.86 | X-H torsion
[ 10167 10162 10161 10158 ] final   30.97 input  -65.29 | X-H torsion
[ 10718 10713 10712 10709 ] final  -85.24 input   66.30 | X-H torsion
[ 10763 10752 10751 10750 ] final  -43.83 input  -60.55 | X-H torsion
[ 11005 11000 10999 10996 ] final  178.05 input  -57.11 | X-H torsion

> <Gold.Protein.ActiveResidues>
 VAL166  LYS551  ARG553  GLY616  TRP617  ASP618  TYR619  PRO620  LYS621  CYS622 
 ASP623  PHE694  ASN695  SER759  ASP760  ASP761  ALA762  ILE779  LEU786  VAL792 
 PHE793  MET794  SER795  GLU796  ALA797  LYS798  CYS799  TRP800  GLU811  SER814 

> <Gold.Protein.RotatedAtoms>
  150.9967  134.9289  159.7930 H   0  0  0  0  0  0  0  0  0  0  0  0  # atno 6907 bound_to 6896
  152.5266  134.3209  159.9158 H   0  0  0  0  0  0  0  0  0  0  0  0  # atno 6908 bound_to 6896
  151.3215  133.3996  159.2689 H   0  0  0  0  0  0  0  0  0  0  0  0  # atno 6909 bound_to 6896
  145.9332  140.7731  142.9589 H   0  0  0  0  0  0  0  0  0  0  0  0  # atno 7974 bound_to 7965
  154.4002  140.1390  156.3890 H   0  0  0  0  0  0  0  0  0  0  0  0  # atno 8008 bound_to 7997
  155.7932  140.3478  155.5341 H   0  0  0  0  0  0  0  0  0  0  0  0  # atno 8009 bound_to 7997
  155.8558  140.0948  157.1636 H   0  0  0  0  0  0  0  0  0  0  0  0  # atno 8010 bound_to 7997
  140.4631  144.0877  150.6217 H   0  0  0  0  0  0  0  0  0  0  0  0  # atno 10167 bound_to 10162
  155.9998  130.4724  150.4532 H   0  0  0  0  0  0  0  0  0  0  0  0  # atno 10718 bound_to 10713
  154.0020  135.6692  153.4760 H   0  0  0  0  0  0  0  0  0  0  0  0  # atno 10763 bound_to 10752
  153.0658  135.5002  154.8193 H   0  0  0  0  0  0  0  0  0  0  0  0  # atno 10764 bound_to 10752
  154.7047  135.3085  154.9251 H   0  0  0  0  0  0  0  0  0  0  0  0  # atno 10765 bound_to 10752
  140.3909  134.6863  157.4507 H   0  0  0  0  0  0  0  0  0  0  0  0  # atno 11005 bound_to 11000
  144.6768  140.2160  143.7372 LP  0  0  0  0  0  0  0  0  0  0  0  0  # atno 17320 bound_to 7965
  145.8399  139.2125  143.1834 LP  0  0  0  0  0  0  0  0  0  0  0  0  # atno 17321 bound_to 7965
  140.4070  143.2675  151.9879 LP  0  0  0  0  0  0  0  0  0  0  0  0  # atno 17342 bound_to 10162
  139.4808  144.5949  151.7708 LP  0  0  0  0  0  0  0  0  0  0  0  0  # atno 17343 bound_to 10162
  157.2563  131.0557  151.2348 LP  0  0  0  0  0  0  0  0  0  0  0  0  # atno 17370 bound_to 10713
  157.3479  130.7067  149.6422 LP  0  0  0  0  0  0  0  0  0  0  0  0  # atno 17371 bound_to 10713
  140.0407  134.6271  155.8984 LP  0  0  0  0  0  0  0  0  0  0  0  0  # atno 17394 bound_to 11000
  141.1891  133.6564  156.5354 LP  0  0  0  0  0  0  0  0  0  0  0  0  # atno 17395 bound_to 11000

$$$$
