AV-unprocessed.smi:712|AV-procd|sdf|3469|dock1
  -GOLD-   22720 0453D 1   1.00000     0.00000
 Structure written by MMmdl.
 51 52  0  0  0  0  0  0  0  0  2 V2000
  151.0690  142.7457  158.2938 C   0  0  0  0  0  0  0  0  0  0  0  0
  151.1507  141.4842  157.4596 C   0  0  0  0  0  0  0  0  0  0  0  0
  151.5158  140.2200  158.0647 C   0  0  0  0  0  0  0  0  0  0  0  0
  151.5836  139.1220  157.2957 C   0  0  0  0  0  0  0  0  0  0  0  0
  151.3108  139.1631  155.9165 N   0  0  0  0  0  0  0  0  0  0  0  0
  151.4342  137.9040  155.1636 C   0  0  0  0  0  0  0  0  0  0  0  0
  150.5424  136.8060  155.7535 C   0  0  0  0  0  0  0  0  0  0  0  0
  150.6846  136.4544  156.9246 O   0  0  0  0  0  0  0  0  0  0  0  0
  149.6438  136.2596  154.9213 N   0  0  0  0  0  0  0  0  0  0  0  0
  148.8037  135.1054  155.2219 C   0  0  0  0  0  0  0  0  0  0  0  0
  147.6612  134.9583  154.1974 C   0  0  1  0  0  0  0  0  0  0  0  0
  147.0268  133.5451  154.1761 C   0  0  0  0  0  0  0  0  0  0  0  0
  145.8630  133.4723  153.2568 N   0  3  2  0  0  0  0  0  0  0  0  0
  146.2196  133.3452  151.8177 C   0  0  0  0  0  0  0  0  0  0  0  0
  145.1167  132.6494  150.9901 C   0  0  0  0  0  0  0  0  0  0  0  0
  145.6737  132.1630  149.6442 C   0  0  0  0  0  0  0  0  0  0  0  0
  143.9013  133.5647  150.7700 C   0  0  0  0  0  0  0  0  0  0  0  0
  144.9004  134.5627  153.5458 C   0  0  0  0  0  0  0  0  0  0  0  0
  145.6001  135.9326  153.5696 C   0  0  0  0  0  0  0  0  0  0  0  0
  146.6524  135.9073  154.5264 O   0  0  0  0  0  0  0  0  0  0  0  0
  150.9623  140.3250  155.2839 C   0  0  0  0  0  0  0  0  0  0  0  0
  150.7319  140.3702  154.0745 O   0  0  0  0  0  0  0  0  0  0  0  0
  150.8905  141.5183  156.1342 C   0  0  0  0  0  0  0  0  0  0  0  0
  151.0605  142.5114  159.3587 H   0  0  0  0  0  0  0  0  0  0  0  0
  150.1596  143.3015  158.0624 H   0  0  0  0  0  0  0  0  0  0  0  0
  151.9264  143.3882  158.0912 H   0  0  0  0  0  0  0  0  0  0  0  0
  151.7355  140.1575  159.1205 H   0  0  0  0  0  0  0  0  0  0  0  0
  151.8566  138.1516  157.6842 H   0  0  0  0  0  0  0  0  0  0  0  0
  151.1581  138.0430  154.1176 H   0  0  0  0  0  0  0  0  0  0  0  0
  152.4771  137.5812  155.1465 H   0  0  0  0  0  0  0  0  0  0  0  0
  149.5886  136.6271  153.9822 H   0  0  0  0  0  0  0  0  0  0  0  0
  149.3927  134.1888  155.2846 H   0  0  0  0  0  0  0  0  0  0  0  0
  148.3814  135.2655  156.2142 H   0  0  0  0  0  0  0  0  0  0  0  0
  148.0602  135.2078  153.2130 H   0  0  0  0  0  0  0  0  0  0  0  0
  147.7612  132.7894  153.9054 H   0  0  0  0  0  0  0  0  0  0  0  0
  146.6826  133.2890  155.1791 H   0  0  0  0  0  0  0  0  0  0  0  0
  146.3886  134.3357  151.3927 H   0  0  0  0  0  0  0  0  0  0  0  0
  147.1651  132.8126  151.7148 H   0  0  0  0  0  0  0  0  0  0  0  0
  144.7703  131.7653  151.5231 H   0  0  0  0  0  0  0  0  0  0  0  0
  146.0420  132.9946  149.0425 H   0  0  0  0  0  0  0  0  0  0  0  0
  144.9080  131.6463  149.0649 H   0  0  0  0  0  0  0  0  0  0  0  0
  146.4987  131.4649  149.7892 H   0  0  0  0  0  0  0  0  0  0  0  0
  144.1788  134.4718  150.2320 H   0  0  0  0  0  0  0  0  0  0  0  0
  143.4495  133.8630  151.7162 H   0  0  0  0  0  0  0  0  0  0  0  0
  143.1298  133.0578  150.1894 H   0  0  0  0  0  0  0  0  0  0  0  0
  144.0795  134.5557  152.8279 H   0  0  0  0  0  0  0  0  0  0  0  0
  144.4525  134.3723  154.5221 H   0  0  0  0  0  0  0  0  0  0  0  0
  145.9869  136.1977  152.5844 H   0  0  0  0  0  0  0  0  0  0  0  0
  144.8897  136.7103  153.8496 H   0  0  0  0  0  0  0  0  0  0  0  0
  150.6205  142.4589  155.6763 H   0  0  0  0  0  0  0  0  0  0  0  0
  145.3758  132.6153  153.4773 H   0  0  0  0  0  0  0  0  0  0  0  0
  1  2  1  0  0  0  0
  1 24  1  0  0  0  0
  1 25  1  0  0  0  0
  1 26  1  0  0  0  0
  2 23  2  0  0  0  0
  2  3  1  0  0  0  0
  3  4  2  0  0  0  0
  3 27  1  0  0  0  0
  4  5  1  0  0  0  0
  4 28  1  0  0  0  0
  5  6  1  0  0  0  0
  5 21  1  0  0  0  0
  6  7  1  0  0  0  0
  6 29  1  0  0  0  0
  6 30  1  0  0  0  0
  7  8  2  0  0  0  0
  7  9  1  0  0  0  0
  9 10  1  0  0  0  0
  9 31  1  0  0  0  0
 10 11  1  0  0  0  0
 10 32  1  0  0  0  0
 10 33  1  0  0  0  0
 11 20  1  0  0  0  0
 11 12  1  0  0  0  0
 11 34  1  0  0  0  0
 12 13  1  0  0  0  0
 12 35  1  0  0  0  0
 12 36  1  0  0  0  0
 13 14  1  0  0  0  0
 13 18  1  0  0  0  0
 13 51  1  0  0  0  0
 14 15  1  0  0  0  0
 14 37  1  0  0  0  0
 14 38  1  0  0  0  0
 15 16  1  0  0  0  0
 15 17  1  0  0  0  0
 15 39  1  0  0  0  0
 16 40  1  0  0  0  0
 16 41  1  0  0  0  0
 16 42  1  0  0  0  0
 17 43  1  0  0  0  0
 17 44  1  0  0  0  0
 17 45  1  0  0  0  0
 18 19  1  0  0  0  0
 18 46  1  0  0  0  0
 18 47  1  0  0  0  0
 19 20  1  0  0  0  0
 19 48  1  0  0  0  0
 19 49  1  0  0  0  0
 21 22  2  0  0  0  0
 21 23  1  0  0  0  0
 23 50  1  0  0  0  0
M  CHG  1  13   1
M  END
> <s_m_source_file>
AV-unprocessed.smi

> <i_m_source_file_index>
712

> <i_lp_mmshare_version>
43012

> <i_f3d_flags>
0

> <s_epik_input>
W0NIM11jMVtjSF1bY0hdbihjKD1PKVtjSF0xKVtDSDJdQyg9TylbTkhdW0NIMl1bQ0BASF0yW0NIMl1OKFtDSDJdW0NIMl1PMilbQ0gyXVtDSF0oW0NIM10pW0NIM10=

> <s_epik_cmdline>
J2VwaWtfcHl0aG9uJywgJy1waCcsICc3LjAnLCAnLXRuJywgJzgnLCAnLW1hJywgJzIwMCcsICctbWV0YWxfYmluZGluZycsICctaW1hZScsICc8aW5maWxlLm1hZT4nLCAnLW9tYWUnLCAnPG91dGZpbGUubWFlPic=

> <r_lp_tautomer_probability>
1

> <r_epik_Ionization_Penalty>
0.0975935

> <r_epik_Ionization_Penalty_Charging>
0.0975934

> <r_epik_Ionization_Penalty_Neutral>
6.27044e-08

> <r_epik_State_Penalty>
0.0877056

> <r_epik_Charging_Adjusted_Penalty>
0.185299

> <i_epik_Tot_Q>
1

> <i_epik_Tot_abs_Q>
1

> <r_epik_Metal_State_Penalty>
0.0877109

> <b_epik_Metal_Only>
0

> <s_lp_Force_Field>
OPLS_2005

> <r_lp_Energy>
28.3742

> <b_lp_Chiralities_Consistent>
1

> <s_lp_Variant>
AV-unprocessed.smi:712-2

> <Gold.Version>
5.8.1

> <Gold.Id.Protein>
6NUR|6NUR_protein|mol2

> <Gold.PLP.Fitness>
44.9183

> <Gold.PLP.PLP>
-38.9772

> <Gold.PLP.part.hbond>
-3.9135

> <Gold.PLP.part.metal>
0.0000

> <Gold.PLP.part.buried>
-0.1131

> <Gold.PLP.part.nonpolar>
-34.9371

> <Gold.PLP.part.repulsive>
0.2956

> <Gold.PLP.ligand.clash>
0.0000

> <Gold.PLP.ligand.torsion>
0.5959

> <Gold.PLP.Chemscore.Hbond>
2.3024

> <Gold.PLP.Chemscore.CHOScore>
0.0000

> <Gold.PLP.Chemscore.Metal>
0.0000

> <Gold.Chemscore.Hbonds>
donor molecule, donor type, donor heavy atom, donor atom, acceptor molecule, acceptor atom, score
      L1  H     9    31       P1  7948  0.48
      P1  H  7989  7998       L1    22  0.11

> <Gold.PLP.Chemscore.Internal.Correction>
0.2257

> <Gold.Rescore>
     Score         DG    S(hbond)    S(metal)    S(lipo)     H(rot)  DE(clash)    DE(int)     intcor
     12.80     -15.63       1.43        0.00      87.33       1.89       1.08       1.75       ----

> <Gold.Chemscore.Fitness>
12.8024

> <Gold.Chemscore.DG>
-15.6299

> <Gold.Chemscore.ZeroCoef>
-5.4800

> <Gold.Chemscore.Hbond>
1.4260

> <Gold.Chemscore.Metal>
0.0000

> <Gold.Chemscore.Lipo>
87.3316

> <Gold.Chemscore.Internal_Hbond>
0.0000

> <Gold.Chemscore.DEClash>
1.0813

> <Gold.Chemscore.DEInternal>
1.7461

> <Gold.Chemscore.Rot>
1.8871

> <Gold.Chemscore.Internal.Correction>
   9.000000E+99

> <Gold.Chemscore.Hbonds>
donor molecule, donor type, donor heavy atom, donor atom, acceptor molecule, acceptor atom, score
      L1  H     9    31       P1  7948  0.37
      P1  H  7989  7998       L1    22  0.11

> <Gold.Chemscore.Hbond.Weighted>
-4.7630

> <Gold.Chemscore.Metal.Weighted>
-0.0000

> <Gold.Chemscore.Lipo.Weighted>
-10.2178

> <Gold.Chemscore.Internal_Hbond.Weighted>
0.0000

> <Gold.Chemscore.DEClash.Weighted>
1.0813

> <Gold.Chemscore.DEInternal.Weighted>
1.7461

> <Gold.Chemscore.Rot.Weighted>
4.8309

> <Gold.Chemscore.Internal.Correction.Weighted>
   9.000000E+99

> <Gold.Protein.RotatedTorsions>
[ 6907 6896 6895 6894 ] final  -41.46 input  -60.11 | X-H torsion
[ 7974 7965 7964 7962 ] final   81.08 input  175.53 | X-H torsion
[ 8008 7997 7996 7995 ] final  164.43 input   59.86 | X-H torsion
[ 10167 10162 10161 10158 ] final -129.76 input  -65.29 | X-H torsion
[ 10718 10713 10712 10709 ] final   -3.74 input   66.30 | X-H torsion
[ 10763 10752 10751 10750 ] final -138.30 input  -60.55 | X-H torsion
[ 11005 11000 10999 10996 ] final -139.77 input  -57.11 | X-H torsion

> <Gold.Protein.ActiveResidues>
 VAL166  LYS551  ARG553  GLY616  TRP617  ASP618  TYR619  PRO620  LYS621  CYS622 
 ASP623  PHE694  ASN695  SER759  ASP760  ASP761  ALA762  ILE779  LEU786  VAL792 
 PHE793  MET794  SER795  GLU796  ALA797  LYS798  CYS799  TRP800  GLU811  SER814 

> <Gold.Protein.RotatedAtoms>
  150.9665  134.9045  159.7761 H   0  0  0  0  0  0  0  0  0  0  0  0  # atno 6907 bound_to 6896
  152.5175  134.3600  159.9291 H   0  0  0  0  0  0  0  0  0  0  0  0  # atno 6908 bound_to 6896
  151.3610  133.3849  159.2724 H   0  0  0  0  0  0  0  0  0  0  0  0  # atno 6909 bound_to 6896
  145.6429  139.2429  143.2020 H   0  0  0  0  0  0  0  0  0  0  0  0  # atno 7974 bound_to 7965
  156.1880  140.1697  156.8147 H   0  0  0  0  0  0  0  0  0  0  0  0  # atno 8008 bound_to 7997
  154.5437  140.0731  156.8585 H   0  0  0  0  0  0  0  0  0  0  0  0  # atno 8009 bound_to 7997
  155.3164  140.3370  155.4244 H   0  0  0  0  0  0  0  0  0  0  0  0  # atno 8010 bound_to 7997
  139.9364  143.6213  152.2516 H   0  0  0  0  0  0  0  0  0  0  0  0  # atno 10167 bound_to 10162
  156.7716  130.5302  149.5766 H   0  0  0  0  0  0  0  0  0  0  0  0  # atno 10718 bound_to 10713
  154.8640  135.3616  154.5362 H   0  0  0  0  0  0  0  0  0  0  0  0  # atno 10763 bound_to 10752
  153.5985  135.7013  153.5399 H   0  0  0  0  0  0  0  0  0  0  0  0  # atno 10764 bound_to 10752
  153.3311  135.4124  155.1457 H   0  0  0  0  0  0  0  0  0  0  0  0  # atno 10765 bound_to 10752
  140.8487  134.2312  157.4772 H   0  0  0  0  0  0  0  0  0  0  0  0  # atno 11005 bound_to 11000
  146.1266  140.7240  142.9432 LP  0  0  0  0  0  0  0  0  0  0  0  0  # atno 17320 bound_to 7965
  144.7151  140.4179  143.7051 LP  0  0  0  0  0  0  0  0  0  0  0  0  # atno 17321 bound_to 7965
  139.6740  144.7659  151.1730 LP  0  0  0  0  0  0  0  0  0  0  0  0  # atno 17342 bound_to 10162
  140.7623  143.5823  150.8882 LP  0  0  0  0  0  0  0  0  0  0  0  0  # atno 17343 bound_to 10162
  156.1274  130.6154  151.0284 LP  0  0  0  0  0  0  0  0  0  0  0  0  # atno 17370 bound_to 10713
  157.6688  131.0866  150.7663 LP  0  0  0  0  0  0  0  0  0  0  0  0  # atno 17371 bound_to 10713
  139.8704  134.9672  156.4590 LP  0  0  0  0  0  0  0  0  0  0  0  0  # atno 17394 bound_to 11000
  140.8814  133.7915  155.9471 LP  0  0  0  0  0  0  0  0  0  0  0  0  # atno 17395 bound_to 11000

$$$$
