AV-unprocessed.smi:2916|AV-procd|sdf|11189|dock2
  -GOLD-   2272016 83D 1   1.00000     0.00000
 Structure written by MMmdl.
 37 38  0  0  0  0  0  0  0  0  1 V2000
  150.0337  138.4053  153.6669 N   0  0  0  0  0  0  0  0  0  0  0  0
  150.3733  139.3111  154.5897 C   0  0  0  0  0  0  0  0  0  0  0  0
  151.5344  139.7002  154.7019 O   0  0  0  0  0  0  0  0  0  0  0  0
  149.2374  139.8715  155.4909 C   0  0  0  0  0  0  0  0  0  0  0  0
  149.5882  139.8011  156.9167 N   0  0  0  0  0  0  0  0  0  0  0  0
  150.7257  140.6015  157.3709 C   0  0  0  0  0  0  0  0  0  0  0  0
  150.2309  141.9599  157.8932 C   0  0  0  0  0  0  0  0  0  0  0  0
  151.3308  142.8455  158.2337 N   0  0  0  0  0  0  0  0  0  0  0  0
  151.6180  144.0901  157.7143 C   0  0  0  0  0  0  0  0  0  0  0  0
  152.7553  144.5334  158.3262 C   0  0  0  0  0  0  0  0  0  0  0  0
  153.0935  143.4767  159.2170 C   0  0  0  0  0  0  0  0  0  0  0  0
  152.2393  142.4676  159.1592 N   0  0  0  0  0  0  0  0  0  0  0  0
  148.9940  141.3801  155.2034 C   0  0  0  0  0  0  0  0  0  0  0  0
  148.3335  141.6433  153.8384 C   0  0  0  0  0  0  0  0  0  0  0  0
  146.9960  140.9004  153.7279 C   0  0  0  0  0  0  0  0  0  0  0  0
  147.1842  139.3961  153.9627 C   0  0  0  0  0  0  0  0  0  0  0  0
  147.8865  139.1119  155.3066 C   0  0  0  0  0  0  0  0  0  0  0  0
  150.7393  138.0205  153.0561 H   0  0  0  0  0  0  0  0  0  0  0  0
  149.0700  138.1163  153.5823 H   0  0  0  0  0  0  0  0  0  0  0  0
  149.7474  138.8343  157.1634 H   0  0  0  0  0  0  0  0  0  0  0  0
  151.2796  140.0934  158.1599 H   0  0  0  0  0  0  0  0  0  0  0  0
  151.4190  140.7638  156.5455 H   0  0  0  0  0  0  0  0  0  0  0  0
  149.6295  142.4512  157.1276 H   0  0  0  0  0  0  0  0  0  0  0  0
  149.5831  141.8317  158.7623 H   0  0  0  0  0  0  0  0  0  0  0  0
  150.9985  144.5489  156.9578 H   0  0  0  0  0  0  0  0  0  0  0  0
  153.2681  145.4693  158.1617 H   0  0  0  0  0  0  0  0  0  0  0  0
  153.9291  143.4130  159.8983 H   0  0  0  0  0  0  0  0  0  0  0  0
  148.3479  141.8002  155.9767 H   0  0  0  0  0  0  0  0  0  0  0  0
  149.9246  141.9456  155.2695 H   0  0  0  0  0  0  0  0  0  0  0  0
  148.1716  142.7137  153.7082 H   0  0  0  0  0  0  0  0  0  0  0  0
  148.9980  141.3338  153.0311 H   0  0  0  0  0  0  0  0  0  0  0  0
  146.2932  141.3002  154.4599 H   0  0  0  0  0  0  0  0  0  0  0  0
  146.5527  141.0718  152.7465 H   0  0  0  0  0  0  0  0  0  0  0  0
  146.2143  138.8985  153.9445 H   0  0  0  0  0  0  0  0  0  0  0  0
  147.7547  138.9695  153.1380 H   0  0  0  0  0  0  0  0  0  0  0  0
  148.0250  138.0349  155.4064 H   0  0  0  0  0  0  0  0  0  0  0  0
  147.2023  139.3925  156.1096 H   0  0  0  0  0  0  0  0  0  0  0  0
  1  2  1  0  0  0  0
  1 18  1  0  0  0  0
  1 19  1  0  0  0  0
  2  3  2  0  0  0  0
  2  4  1  0  0  0  0
  4 17  1  0  0  0  0
  4  5  1  0  0  0  0
  4 13  1  0  0  0  0
  5  6  1  0  0  0  0
  5 20  1  0  0  0  0
  6  7  1  0  0  0  0
  6 21  1  0  0  0  0
  6 22  1  0  0  0  0
  7  8  1  0  0  0  0
  7 23  1  0  0  0  0
  7 24  1  0  0  0  0
  8 12  1  0  0  0  0
  8  9  1  0  0  0  0
  9 10  2  0  0  0  0
  9 25  1  0  0  0  0
 10 11  1  0  0  0  0
 10 26  1  0  0  0  0
 11 12  2  0  0  0  0
 11 27  1  0  0  0  0
 13 14  1  0  0  0  0
 13 28  1  0  0  0  0
 13 29  1  0  0  0  0
 14 15  1  0  0  0  0
 14 30  1  0  0  0  0
 14 31  1  0  0  0  0
 15 16  1  0  0  0  0
 15 32  1  0  0  0  0
 15 33  1  0  0  0  0
 16 17  1  0  0  0  0
 16 34  1  0  0  0  0
 16 35  1  0  0  0  0
 17 36  1  0  0  0  0
 17 37  1  0  0  0  0
M  END
> <s_m_source_file>
AV-unprocessed.smi

> <i_m_source_file_index>
2916

> <i_lp_mmshare_version>
43012

> <i_f3d_flags>
0

> <s_epik_input>
W0NIMl0xW0NIMl1bQ0gyXVtDSDJdW0NIMl1DMShDKD1PKVtOSDJdKVtOSF1bQ0gyXVtDSDJdbjJbY0hdW2NIXVtjSF1uMg==

> <s_epik_cmdline>
J2VwaWtfcHl0aG9uJywgJy1waCcsICc3LjAnLCAnLXRuJywgJzgnLCAnLW1hJywgJzIwMCcsICctbWV0YWxfYmluZGluZycsICctaW1hZScsICc8aW5maWxlLm1hZT4nLCAnLW9tYWUnLCAnPG91dGZpbGUubWFlPic=

> <r_lp_tautomer_probability>
1

> <r_epik_Ionization_Penalty>
0.895772

> <r_epik_Ionization_Penalty_Charging>
0

> <r_epik_Ionization_Penalty_Neutral>
0.895772

> <r_epik_State_Penalty>
0.934109

> <r_epik_Charging_Adjusted_Penalty>
0.934109

> <i_epik_Tot_Q>
0

> <i_epik_Tot_abs_Q>
0

> <r_epik_Metal_State_Penalty>
0.933276

> <b_epik_Metal_Only>
0

> <s_lp_Force_Field>
OPLS_2005

> <r_lp_Energy>
12.2075

> <b_lp_Chiralities_Consistent>
1

> <s_lp_Variant>
AV-unprocessed.smi:2916-2

> <Gold.Version>
5.8.1

> <Gold.Id.Protein>
6NUR|6NUR_protein|mol2

> <Gold.PLP.Fitness>
40.3280

> <Gold.PLP.PLP>
-35.1790

> <Gold.PLP.part.hbond>
-3.0000

> <Gold.PLP.part.metal>
0.0000

> <Gold.PLP.part.buried>
-4.1334

> <Gold.PLP.part.nonpolar>
-29.2443

> <Gold.PLP.part.repulsive>
0.1453

> <Gold.PLP.ligand.clash>
0.0000

> <Gold.PLP.ligand.torsion>
0.4369

> <Gold.PLP.Chemscore.Hbond>
1.0000

> <Gold.PLP.Chemscore.CHOScore>
1.0000

> <Gold.PLP.Chemscore.Metal>
0.0000

> <Gold.Chemscore.Hbonds>
donor molecule, donor type, donor heavy atom, donor atom, acceptor molecule, acceptor atom, score
      P1  H  7989  7998       L1     3  1.00
      L1  C     9    25       P1  8028  1.00

> <Gold.PLP.Chemscore.Internal.Correction>
0.0228

> <Gold.Rescore>
     Score         DG    S(hbond)    S(metal)    S(lipo)     H(rot)  DE(clash)    DE(int)     intcor
     12.23     -12.83       1.00        0.00      82.45       2.20       0.07       0.53       ----

> <Gold.Chemscore.Fitness>
12.2307

> <Gold.Chemscore.DG>
-12.8252

> <Gold.Chemscore.ZeroCoef>
-5.4800

> <Gold.Chemscore.Hbond>
0.9981

> <Gold.Chemscore.Metal>
0.0000

> <Gold.Chemscore.Lipo>
82.4477

> <Gold.Chemscore.Internal_Hbond>
0.0000

> <Gold.Chemscore.DEClash>
0.0686

> <Gold.Chemscore.DEInternal>
0.5259

> <Gold.Chemscore.Rot>
2.2011

> <Gold.Chemscore.Internal.Correction>
   9.000000E+99

> <Gold.Chemscore.Hbonds>
donor molecule, donor type, donor heavy atom, donor atom, acceptor molecule, acceptor atom, score
      P1  H  7989  7998       L1     3  0.39

> <Gold.Chemscore.Hbond.Weighted>
-3.3336

> <Gold.Chemscore.Metal.Weighted>
-0.0000

> <Gold.Chemscore.Lipo.Weighted>
-9.6464

> <Gold.Chemscore.Internal_Hbond.Weighted>
0.0000

> <Gold.Chemscore.DEClash.Weighted>
0.0686

> <Gold.Chemscore.DEInternal.Weighted>
0.5259

> <Gold.Chemscore.Rot.Weighted>
5.6348

> <Gold.Chemscore.Internal.Correction.Weighted>
   9.000000E+99

> <Gold.Protein.RotatedTorsions>
[ 6907 6896 6895 6894 ] final   14.76 input  -60.11 | X-H torsion
[ 7974 7965 7964 7962 ] final   28.00 input  175.53 | X-H torsion
[ 8008 7997 7996 7995 ] final  -83.05 input   59.86 | X-H torsion
[ 10167 10162 10161 10158 ] final   76.93 input  -65.29 | X-H torsion
[ 10718 10713 10712 10709 ] final  140.04 input   66.30 | X-H torsion
[ 10763 10752 10751 10750 ] final -127.11 input  -60.55 | X-H torsion
[ 11005 11000 10999 10996 ] final  -57.20 input  -57.11 | X-H torsion

> <Gold.Protein.ActiveResidues>
 VAL166  LYS551  ARG553  GLY616  TRP617  ASP618  TYR619  PRO620  LYS621  CYS622 
 ASP623  PHE694  ASN695  SER759  ASP760  ASP761  ALA762  ILE779  LEU786  VAL792 
 PHE793  MET794  SER795  GLU796  ALA797  LYS798  CYS799  TRP800  GLU811  SER814 

> <Gold.Protein.RotatedAtoms>
  151.8073  135.0691  160.0407 H   0  0  0  0  0  0  0  0  0  0  0  0  # atno 6907 bound_to 6896
  152.3046  133.5685  159.5649 H   0  0  0  0  0  0  0  0  0  0  0  0  # atno 6908 bound_to 6896
  150.7290  134.0158  159.3727 H   0  0  0  0  0  0  0  0  0  0  0  0  # atno 6909 bound_to 6896
  146.1753  139.7116  142.8938 H   0  0  0  0  0  0  0  0  0  0  0  0  # atno 7974 bound_to 7965
  154.6150  140.0624  156.9543 H   0  0  0  0  0  0  0  0  0  0  0  0  # atno 8008 bound_to 7997
  155.1910  140.3307  155.4340 H   0  0  0  0  0  0  0  0  0  0  0  0  # atno 8009 bound_to 7997
  156.2399  140.1881  156.7000 H   0  0  0  0  0  0  0  0  0  0  0  0  # atno 8010 bound_to 7997
  139.9870  144.5785  150.7850 H   0  0  0  0  0  0  0  0  0  0  0  0  # atno 10167 bound_to 10162
  157.4077  131.1024  151.0486 H   0  0  0  0  0  0  0  0  0  0  0  0  # atno 10718 bound_to 10713
  154.8750  135.3973  154.3541 H   0  0  0  0  0  0  0  0  0  0  0  0  # atno 10763 bound_to 10752
  153.4322  135.7025  153.6228 H   0  0  0  0  0  0  0  0  0  0  0  0  # atno 10764 bound_to 10752
  153.4845  135.3762  155.2429 H   0  0  0  0  0  0  0  0  0  0  0  0  # atno 10765 bound_to 10752
  141.1154  133.6610  156.4734 H   0  0  0  0  0  0  0  0  0  0  0  0  # atno 11005 bound_to 11000
  145.4227  141.0408  143.2954 LP  0  0  0  0  0  0  0  0  0  0  0  0  # atno 17320 bound_to 7965
  144.8227  139.5764  143.6979 LP  0  0  0  0  0  0  0  0  0  0  0  0  # atno 17321 bound_to 7965
  140.7468  143.2897  151.3365 LP  0  0  0  0  0  0  0  0  0  0  0  0  # atno 17342 bound_to 10162
  139.6367  144.0616  152.2522 LP  0  0  0  0  0  0  0  0  0  0  0  0  # atno 17343 bound_to 10162
  157.1462  130.6164  149.5569 LP  0  0  0  0  0  0  0  0  0  0  0  0  # atno 17370 bound_to 10713
  155.9841  130.4865  150.6968 LP  0  0  0  0  0  0  0  0  0  0  0  0  # atno 17371 bound_to 10713
  140.4660  134.6797  157.5107 LP  0  0  0  0  0  0  0  0  0  0  0  0  # atno 17394 bound_to 11000
  140.0073  134.6744  155.9435 LP  0  0  0  0  0  0  0  0  0  0  0  0  # atno 17395 bound_to 11000

$$$$
