AV-unprocessed.smi:33|AV-procd|sdf|212|dock8
  -GOLD-   2262015513D 1   1.00000     0.00000
 Structure written by MMmdl.
 67 72  0  0  0  0  0  0  0  0  1 V2000
  144.0646  132.0111  150.3360 O   0  0  0  0  0  0  0  0  0  0  0  0
  145.1088  132.2446  150.9481 C   0  0  0  0  0  0  0  0  0  0  0  0
  145.5558  133.4874  151.2139 O   0  0  0  0  0  0  0  0  0  0  0  0
  144.6347  134.5512  151.3891 C   0  0  0  0  0  0  0  0  0  0  0  0
  144.3335  134.7154  152.8836 C   0  0  1  0  0  0  0  0  0  0  0  0
  145.5264  134.6534  153.6503 O   0  0  0  0  0  0  0  0  0  0  0  0
  145.2893  135.2426  154.8906 C   0  0  1  0  0  0  0  0  0  0  0  0
  146.5256  135.9701  155.3066 N   0  0  0  0  0  0  0  0  0  0  0  0
  147.7187  136.0523  154.6238 C   0  0  0  0  0  0  0  0  0  0  0  0
  148.6593  136.7346  155.2195 N   0  0  0  0  0  0  0  0  0  0  0  0
  148.0661  137.1619  156.4006 C   0  0  0  0  0  0  0  0  0  0  0  0
  148.5128  137.9315  157.5086 C   0  0  0  0  0  0  0  0  0  0  0  0
  149.7678  138.4320  157.5986 N   0  0  0  0  0  0  0  0  0  0  0  0
  150.6504  137.8489  158.6192 C   0  0  0  0  0  0  0  0  0  0  0  0
  150.4555  136.6946  159.0047 O   0  0  0  0  0  0  0  0  0  0  0  0
  151.8137  138.6331  159.1570 C   0  0  0  0  0  0  0  0  0  0  0  0
  152.8928  137.9639  159.7750 C   0  0  0  0  0  0  0  0  0  0  0  0
  153.9787  138.6958  160.2936 C   0  0  0  0  0  0  0  0  0  0  0  0
  153.9839  140.1015  160.2143 C   0  0  0  0  0  0  0  0  0  0  0  0
  152.8979  140.7765  159.6249 C   0  0  0  0  0  0  0  0  0  0  0  0
  151.8119  140.0455  159.1061 C   0  0  0  0  0  0  0  0  0  0  0  0
  150.1301  139.5138  156.6702 C   0  0  0  0  0  0  0  0  0  0  0  0
  151.3147  139.6934  156.3804 O   0  0  0  0  0  0  0  0  0  0  0  0
  149.0667  140.3608  156.0296 C   0  0  0  0  0  0  0  0  0  0  0  0
  147.9606  140.7992  156.7904 C   0  0  0  0  0  0  0  0  0  0  0  0
  146.9515  141.5790  156.1928 C   0  0  0  0  0  0  0  0  0  0  0  0
  147.0322  141.9100  154.8268 C   0  0  0  0  0  0  0  0  0  0  0  0
  148.1179  141.4531  154.0558 C   0  0  0  0  0  0  0  0  0  0  0  0
  149.1277  140.6738  154.6527 C   0  0  0  0  0  0  0  0  0  0  0  0
  147.6369  138.1591  158.5216 N   0  0  0  0  0  0  0  0  0  0  0  0
  146.3998  137.6591  158.4541 C   0  0  0  0  0  0  0  0  0  0  0  0
  145.8499  136.9200  157.4882 N   0  0  0  0  0  0  0  0  0  0  0  0
  146.7258  136.6911  156.4667 C   0  0  0  0  0  0  0  0  0  0  0  0
  144.1121  136.2214  154.7316 C   0  0  2  0  0  0  0  0  0  0  0  0
  143.0128  135.8595  155.5429 O   0  0  0  0  0  0  0  0  0  0  0  0
  143.7437  136.0752  153.2612 C   0  0  1  0  0  0  0  0  0  0  0  0
  144.3161  137.0559  152.5607 F   0  0  0  0  0  0  0  0  0  0  0  0
  146.0129  131.1792  151.4699 C   0  0  0  0  0  0  0  0  0  0  0  0
  146.8993  131.4808  152.5303 C   0  0  0  0  0  0  0  0  0  0  0  0
  147.7623  130.4945  153.0464 C   0  0  0  0  0  0  0  0  0  0  0  0
  147.7508  129.1949  152.5074 C   0  0  0  0  0  0  0  0  0  0  0  0
  146.8754  128.8827  151.4510 C   0  0  0  0  0  0  0  0  0  0  0  0
  146.0106  129.8674  150.9344 C   0  0  0  0  0  0  0  0  0  0  0  0
  145.0304  135.4810  150.9774 H   0  0  0  0  0  0  0  0  0  0  0  0
  143.7184  134.3128  150.8473 H   0  0  0  0  0  0  0  0  0  0  0  0
  143.6567  133.9293  153.2236 H   0  0  0  0  0  0  0  0  0  0  0  0
  145.1326  134.4833  155.6584 H   0  0  0  0  0  0  0  0  0  0  0  0
  147.8739  135.5779  153.6658 H   0  0  0  0  0  0  0  0  0  0  0  0
  152.8998  136.8854  159.8414 H   0  0  0  0  0  0  0  0  0  0  0  0
  154.8076  138.1781  160.7534 H   0  0  0  0  0  0  0  0  0  0  0  0
  154.8171  140.6622  160.6116 H   0  0  0  0  0  0  0  0  0  0  0  0
  152.8967  141.8551  159.5720 H   0  0  0  0  0  0  0  0  0  0  0  0
  150.9812  140.5747  158.6615 H   0  0  0  0  0  0  0  0  0  0  0  0
  147.8877  140.5508  157.8395 H   0  0  0  0  0  0  0  0  0  0  0  0
  146.1145  141.9220  156.7829 H   0  0  0  0  0  0  0  0  0  0  0  0
  146.2580  142.5080  154.3691 H   0  0  0  0  0  0  0  0  0  0  0  0
  148.1757  141.6989  153.0058 H   0  0  0  0  0  0  0  0  0  0  0  0
  149.9536  140.3247  154.0494 H   0  0  0  0  0  0  0  0  0  0  0  0
  145.7593  137.8803  159.2950 H   0  0  0  0  0  0  0  0  0  0  0  0
  144.4100  137.2426  154.9755 H   0  0  0  0  0  0  0  0  0  0  0  0
  142.6559  135.0465  155.2190 H   0  0  0  0  0  0  0  0  0  0  0  0
  142.6723  136.1395  153.0671 H   0  0  0  0  0  0  0  0  0  0  0  0
  146.9253  132.4714  152.9611 H   0  0  0  0  0  0  0  0  0  0  0  0
  148.4331  130.7359  153.8575 H   0  0  0  0  0  0  0  0  0  0  0  0
  148.4124  128.4386  152.9034 H   0  0  0  0  0  0  0  0  0  0  0  0
  146.8657  127.8856  151.0358 H   0  0  0  0  0  0  0  0  0  0  0  0
  145.3511  129.5939  150.1238 H   0  0  0  0  0  0  0  0  0  0  0  0
  1  2  2  0  0  0  0
  2  3  1  0  0  0  0
  2 38  1  0  0  0  0
  3  4  1  0  0  0  0
  4  5  1  0  0  0  0
  4 44  1  0  0  0  0
  4 45  1  0  0  0  0
  5 36  1  0  0  0  0
  5  6  1  0  0  0  0
  5 46  1  0  0  0  0
  6  7  1  0  0  0  0
  7  8  1  0  0  0  0
  7 34  1  0  0  0  0
  7 47  1  0  0  0  0
  8 33  1  0  0  0  0
  8  9  1  0  0  0  0
  9 10  2  0  0  0  0
  9 48  1  0  0  0  0
 10 11  1  0  0  0  0
 11 33  2  0  0  0  0
 11 12  1  0  0  0  0
 12 13  1  0  0  0  0
 12 30  2  0  0  0  0
 13 14  1  0  0  0  0
 13 22  1  0  0  0  0
 14 15  2  0  0  0  0
 14 16  1  0  0  0  0
 16 21  1  0  0  0  0
 16 17  2  0  0  0  0
 17 18  1  0  0  0  0
 17 49  1  0  0  0  0
 18 19  2  0  0  0  0
 18 50  1  0  0  0  0
 19 20  1  0  0  0  0
 19 51  1  0  0  0  0
 20 21  2  0  0  0  0
 20 52  1  0  0  0  0
 21 53  1  0  0  0  0
 22 23  2  0  0  0  0
 22 24  1  0  0  0  0
 24 29  1  0  0  0  0
 24 25  2  0  0  0  0
 25 26  1  0  0  0  0
 25 54  1  0  0  0  0
 26 27  2  0  0  0  0
 26 55  1  0  0  0  0
 27 28  1  0  0  0  0
 27 56  1  0  0  0  0
 28 29  2  0  0  0  0
 28 57  1  0  0  0  0
 29 58  1  0  0  0  0
 30 31  1  0  0  0  0
 31 32  2  0  0  0  0
 31 59  1  0  0  0  0
 32 33  1  0  0  0  0
 34 35  1  0  0  0  0
 34 36  1  0  0  0  0
 34 60  1  0  0  0  0
 35 61  1  0  0  0  0
 36 37  1  0  0  0  0
 36 62  1  0  0  0  0
 38 43  1  0  0  0  0
 38 39  2  0  0  0  0
 39 40  1  0  0  0  0
 39 63  1  0  0  0  0
 40 41  2  0  0  0  0
 40 64  1  0  0  0  0
 41 42  1  0  0  0  0
 41 65  1  0  0  0  0
 42 43  2  0  0  0  0
 42 66  1  0  0  0  0
 43 67  1  0  0  0  0
M  END
> <s_m_source_file>
AV-unprocessed.smi

> <i_m_source_file_index>
33

> <i_lp_mmshare_version>
43012

> <i_f3d_flags>
0

> <s_epik_input>
W2NIXTFbY0hdW2NIXVtjSF1bY0hdYzFDKD1PKU9bQ0gyXVtDQEBIXTJPW0NASF0oW0NAQEhdKFtPSF0pW0NAQEhdMkYpbihbY0hdbjMpYyhjMzQpbltjSF1uYzROKEMoPU8pYzVbY0hdW2NIXVtjSF1bY0hdW2NIXTUpQyg9TyljNltjSF1bY0hdW2NIXVtjSF1bY0hdNg==

> <s_epik_cmdline>
J2VwaWtfcHl0aG9uJywgJy1waCcsICc3LjAnLCAnLXRuJywgJzgnLCAnLW1hJywgJzIwMCcsICctbWV0YWxfYmluZGluZycsICctaW1hZScsICc8aW5maWxlLm1hZT4nLCAnLW9tYWUnLCAnPG91dGZpbGUubWFlPic=

> <r_lp_tautomer_probability>
1

> <r_epik_Ionization_Penalty>
0.00067664

> <r_epik_Ionization_Penalty_Charging>
0

> <r_epik_Ionization_Penalty_Neutral>
0.00067664

> <r_epik_State_Penalty>
0.000428095

> <r_epik_Charging_Adjusted_Penalty>
0.000428095

> <i_epik_Tot_Q>
0

> <i_epik_Tot_abs_Q>
0

> <r_epik_Metal_State_Penalty>
-0

> <b_epik_Metal_Only>
0

> <s_epik_Chemistry_Notes>
This compound has an ester and may undergo hydrolysis at high or low pH. This compound contains an acetal/aminal-like group ( X-CH(R)-Y where X, Y are N, S, or O) that may be acid/base labile, releasing an aldehyde.

> <s_lp_Force_Field>
OPLS_2005

> <r_lp_Energy>
68.7921

> <b_lp_Chiralities_Consistent>
1

> <s_lp_Variant>
AV-unprocessed.smi:33-14

> <Gold.Version>
5.8.1

> <Gold.Id.Protein>
6NUR|6NUR_protein|mol2

> <Gold.PLP.Fitness>
54.0972

> <Gold.PLP.PLP>
-51.2162

> <Gold.PLP.part.hbond>
-2.1755

> <Gold.PLP.part.metal>
0.0000

> <Gold.PLP.part.buried>
-10.9439

> <Gold.PLP.part.nonpolar>
-39.2638

> <Gold.PLP.part.repulsive>
0.4713

> <Gold.PLP.ligand.clash>
0.0000

> <Gold.PLP.ligand.torsion>
3.6273

> <Gold.PLP.Chemscore.Hbond>
1.0000

> <Gold.PLP.Chemscore.CHOScore>
1.0000

> <Gold.PLP.Chemscore.Metal>
0.0000

> <Gold.Chemscore.Hbonds>
donor molecule, donor type, donor heavy atom, donor atom, acceptor molecule, acceptor atom, score
      P1  H  6896  6907       L1    15  1.00
      L1  C     9    48       P1  7948  1.00

> <Gold.PLP.Chemscore.Internal.Correction>
4.1355

> <Gold.Rescore>
     Score         DG    S(hbond)    S(metal)    S(lipo)     H(rot)  DE(clash)    DE(int)     intcor
     10.83     -17.05       0.98        0.00     126.12       2.52       0.03       6.19       ----

> <Gold.Chemscore.Fitness>
10.8281

> <Gold.Chemscore.DG>
-17.0525

> <Gold.Chemscore.ZeroCoef>
-5.4800

> <Gold.Chemscore.Hbond>
0.9819

> <Gold.Chemscore.Metal>
0.0000

> <Gold.Chemscore.Lipo>
126.1218

> <Gold.Chemscore.Internal_Hbond>
0.0000

> <Gold.Chemscore.DEClash>
0.0318

> <Gold.Chemscore.DEInternal>
6.1926

> <Gold.Chemscore.Rot>
2.5247

> <Gold.Chemscore.Internal.Correction>
   9.000000E+99

> <Gold.Chemscore.Hbonds>
donor molecule, donor type, donor heavy atom, donor atom, acceptor molecule, acceptor atom, score
      P1  H  6896  6907       L1    15  0.95

> <Gold.Chemscore.Hbond.Weighted>
-3.2795

> <Gold.Chemscore.Metal.Weighted>
-0.0000

> <Gold.Chemscore.Lipo.Weighted>
-14.7562

> <Gold.Chemscore.Internal_Hbond.Weighted>
0.0000

> <Gold.Chemscore.DEClash.Weighted>
0.0318

> <Gold.Chemscore.DEInternal.Weighted>
6.1926

> <Gold.Chemscore.Rot.Weighted>
6.4633

> <Gold.Chemscore.Internal.Correction.Weighted>
   9.000000E+99

> <Gold.Protein.RotatedTorsions>
[ 6907 6896 6895 6894 ] final  -47.44 input  -60.11 | X-H torsion
[ 7974 7965 7964 7962 ] final  -69.08 input  175.53 | X-H torsion
[ 8008 7997 7996 7995 ] final  115.18 input   59.86 | X-H torsion
[ 10167 10162 10161 10158 ] final  -16.16 input  -65.29 | X-H torsion
[ 10718 10713 10712 10709 ] final  -48.97 input   66.30 | X-H torsion
[ 10763 10752 10751 10750 ] final   13.77 input  -60.55 | X-H torsion
[ 11005 11000 10999 10996 ] final   35.31 input  -57.11 | X-H torsion

> <Gold.Protein.ActiveResidues>
 VAL166  LYS551  ARG553  GLY616  TRP617  ASP618  TYR619  PRO620  LYS621  CYS622 
 ASP623  PHE694  ASN695  SER759  ASP760  ASP761  ALA762  ILE779  LEU786  VAL792 
 PHE793  MET794  SER795  GLU796  ALA797  LYS798  CYS799  TRP800  GLU811  SER814 

> <Gold.Protein.RotatedAtoms>
  150.9008  134.8420  159.7358 H   0  0  0  0  0  0  0  0  0  0  0  0  # atno 6907 bound_to 6896
  152.4891  134.4506  159.9583 H   0  0  0  0  0  0  0  0  0  0  0  0  # atno 6908 bound_to 6896
  151.4558  133.3566  159.2837 H   0  0  0  0  0  0  0  0  0  0  0  0  # atno 6909 bound_to 6896
  145.7083  140.9089  143.0694 H   0  0  0  0  0  0  0  0  0  0  0  0  # atno 7974 bound_to 7965
  156.2366  140.2944  156.0329 H   0  0  0  0  0  0  0  0  0  0  0  0  # atno 8008 bound_to 7997
  155.2074  140.0411  157.2945 H   0  0  0  0  0  0  0  0  0  0  0  0  # atno 8009 bound_to 7997
  154.6090  140.2447  155.7701 H   0  0  0  0  0  0  0  0  0  0  0  0  # atno 8010 bound_to 7997
  140.7229  143.5145  150.9709 H   0  0  0  0  0  0  0  0  0  0  0  0  # atno 10167 bound_to 10162
  156.1937  130.4153  149.9335 H   0  0  0  0  0  0  0  0  0  0  0  0  # atno 10718 bound_to 10713
  153.1688  135.6808  153.8638 H   0  0  0  0  0  0  0  0  0  0  0  0  # atno 10763 bound_to 10752
  153.8009  135.3156  155.3391 H   0  0  0  0  0  0  0  0  0  0  0  0  # atno 10764 bound_to 10752
  154.7983  135.4793  154.0306 H   0  0  0  0  0  0  0  0  0  0  0  0  # atno 10765 bound_to 10752
  140.2440  134.3381  155.7915 H   0  0  0  0  0  0  0  0  0  0  0  0  # atno 11005 bound_to 11000
  144.6949  139.9040  143.7460 LP  0  0  0  0  0  0  0  0  0  0  0  0  # atno 17320 bound_to 7965
  146.0735  139.3724  143.0508 LP  0  0  0  0  0  0  0  0  0  0  0  0  # atno 17321 bound_to 7965
  139.8860  143.7013  152.3151 LP  0  0  0  0  0  0  0  0  0  0  0  0  # atno 17342 bound_to 10162
  139.7312  144.7582  151.0799 LP  0  0  0  0  0  0  0  0  0  0  0  0  # atno 17343 bound_to 10162
  156.7067  130.8954  151.3605 LP  0  0  0  0  0  0  0  0  0  0  0  0  # atno 17370 bound_to 10713
  157.6945  130.9267  150.0605 LP  0  0  0  0  0  0  0  0  0  0  0  0  # atno 17371 bound_to 10713
  141.2208  133.7315  156.8931 LP  0  0  0  0  0  0  0  0  0  0  0  0  # atno 17394 bound_to 11000
  140.1625  134.9156  157.2732 LP  0  0  0  0  0  0  0  0  0  0  0  0  # atno 17395 bound_to 11000

$$$$
