AV-unprocessed.smi:2164|AV-procd|sdf|8809|dock2
  -GOLD-   2272011593D 1   1.00000     0.00000
 Structure written by MMmdl.
 40 42  0  0  0  0  0  0  0  0  2 V2000
  145.9311  137.5256  154.8515 O   0  0  0  0  0  0  0  0  0  0  0  0
  146.8002  137.0242  154.1363 C   0  0  0  0  0  0  0  0  0  0  0  0
  146.5028  136.4455  152.9589 N   0  0  0  0  0  0  0  0  0  0  0  0
  145.1677  136.3211  152.3774 C   0  0  0  0  0  0  0  0  0  0  0  0
  145.1962  135.7389  150.9505 C   0  0  0  0  0  0  0  0  0  0  0  0
  145.2421  134.2211  150.9101 C   0  0  0  0  0  0  0  0  0  0  0  0
  144.0585  133.4646  151.0595 C   0  0  0  0  0  0  0  0  0  0  0  0
  144.1235  132.0574  150.9914 C   0  0  0  0  0  0  0  0  0  0  0  0
  145.3715  131.4376  150.7768 C   0  0  0  0  0  0  0  0  0  0  0  0
  146.4834  132.1936  150.6427 N   0  3  0  0  0  0  0  0  0  0  0  0
  146.4632  133.5431  150.7025 C   0  0  0  0  0  0  0  0  0  0  0  0
  148.2288  137.0071  154.4583 C   0  0  0  0  0  0  0  0  0  0  0  0
  148.8960  138.1685  154.5985 C   0  0  0  0  0  0  0  0  0  0  0  0
  150.2561  138.2466  154.9053 N   0  0  0  0  0  0  0  0  0  0  0  0
  150.8769  139.5660  154.9346 C   0  0  0  0  0  0  0  0  0  0  0  0
  151.8515  139.6667  156.0969 C   0  0  0  0  0  0  0  0  0  0  0  0
  153.1622  138.4252  155.7784 S   0  0  0  0  0  0  0  0  0  0  0  0
  153.8093  138.7639  154.5012 O   0  0  0  0  0  0  0  0  0  0  0  0
  153.9822  138.3045  156.9932 O   0  0  0  0  0  0  0  0  0  0  0  0
  152.2365  137.0423  155.5756 N   0  0  0  0  0  0  0  0  0  0  0  0
  151.0054  137.0701  155.1633 C   0  0  0  0  0  0  0  0  0  0  0  0
  150.2984  135.8136  154.9727 C   0  0  0  0  0  0  0  0  0  0  0  0
  148.9911  135.7790  154.6419 C   0  0  0  0  0  0  0  0  0  0  0  0
  147.2651  136.0527  152.4256 H   0  0  0  0  0  0  0  0  0  0  0  0
  144.5841  135.6641  153.0228 H   0  0  0  0  0  0  0  0  0  0  0  0
  144.6533  137.2836  152.3846 H   0  0  0  0  0  0  0  0  0  0  0  0
  144.3237  136.0862  150.3957 H   0  0  0  0  0  0  0  0  0  0  0  0
  146.0658  136.1251  150.4173 H   0  0  0  0  0  0  0  0  0  0  0  0
  143.1091  133.9565  151.2139 H   0  0  0  0  0  0  0  0  0  0  0  0
  143.2280  131.4628  151.0987 H   0  0  0  0  0  0  0  0  0  0  0  0
  145.5129  130.3687  150.7085 H   0  0  0  0  0  0  0  0  0  0  0  0
  147.4163  134.0351  150.5727 H   0  0  0  0  0  0  0  0  0  0  0  0
  148.4132  139.1288  154.4802 H   0  0  0  0  0  0  0  0  0  0  0  0
  151.3838  139.7469  153.9862 H   0  0  0  0  0  0  0  0  0  0  0  0
  150.1201  140.3443  155.0386 H   0  0  0  0  0  0  0  0  0  0  0  0
  152.3106  140.6536  156.1546 H   0  0  0  0  0  0  0  0  0  0  0  0
  151.3729  139.4518  157.0530 H   0  0  0  0  0  0  0  0  0  0  0  0
  150.8026  134.8665  155.1024 H   0  0  0  0  0  0  0  0  0  0  0  0
  148.5287  134.8107  154.5199 H   0  0  0  0  0  0  0  0  0  0  0  0
  147.3767  131.7249  150.4881 H   0  0  0  0  0  0  0  0  0  0  0  0
  1  2  2  0  0  0  0
  2  3  1  0  0  0  0
  2 12  1  0  0  0  0
  3  4  1  0  0  0  0
  3 24  1  0  0  0  0
  4  5  1  0  0  0  0
  4 25  1  0  0  0  0
  4 26  1  0  0  0  0
  5  6  1  0  0  0  0
  5 27  1  0  0  0  0
  5 28  1  0  0  0  0
  6 11  1  0  0  0  0
  6  7  2  0  0  0  0
  7  8  1  0  0  0  0
  7 29  1  0  0  0  0
  8  9  2  0  0  0  0
  8 30  1  0  0  0  0
  9 10  1  0  0  0  0
  9 31  1  0  0  0  0
 10 11  2  0  0  0  0
 10 40  1  0  0  0  0
 11 32  1  0  0  0  0
 12 23  1  0  0  0  0
 12 13  2  0  0  0  0
 13 14  1  0  0  0  0
 13 33  1  0  0  0  0
 14 21  1  0  0  0  0
 14 15  1  0  0  0  0
 15 16  1  0  0  0  0
 15 34  1  0  0  0  0
 15 35  1  0  0  0  0
 16 17  1  0  0  0  0
 16 36  1  0  0  0  0
 16 37  1  0  0  0  0
 17 18  2  0  0  0  0
 17 19  2  0  0  0  0
 17 20  1  0  0  0  0
 20 21  2  0  0  0  0
 21 22  1  0  0  0  0
 22 23  2  0  0  0  0
 22 38  1  0  0  0  0
 23 39  1  0  0  0  0
M  CHG  1  10   1
M  END
> <s_m_source_file>
AV-unprocessed.smi

> <i_m_source_file_index>
2164

> <i_lp_mmshare_version>
43012

> <i_f3d_flags>
0

> <s_epik_input>
W0NIMl0xW0NIMl1TKD1PKSg9TylOPUMoTjEyKVtDSF09W0NIXUMoPVtDSF0yKUMoPU8pW05IXVtDSDJdW0NIMl1jM1tjSF1bY0hdW2NIXW5bY0hdMw==

> <s_epik_cmdline>
J2VwaWtfcHl0aG9uJywgJy1waCcsICc3LjAnLCAnLXRuJywgJzgnLCAnLW1hJywgJzIwMCcsICctbWV0YWxfYmluZGluZycsICctaW1hZScsICc8aW5maWxlLm1hZT4nLCAnLW9tYWUnLCAnPG91dGZpbGUubWFlPic=

> <r_epik_Ionization_Penalty>
2.45963

> <r_epik_Ionization_Penalty_Charging>
2.45946

> <r_epik_Ionization_Penalty_Neutral>
0.000170278

> <r_epik_State_Penalty>
2.62155

> <r_epik_Charging_Adjusted_Penalty>
5.08101

> <i_epik_Tot_Q>
1

> <i_epik_Tot_abs_Q>
1

> <r_epik_Metal_State_Penalty>
2.85721

> <b_epik_Metal_Only>
0

> <s_lp_Force_Field>
OPLS_2005

> <r_lp_Energy>
29.3092

> <b_lp_Chiralities_Consistent>
1

> <s_lp_Variant>
AV-unprocessed.smi:2164-2

> <Gold.Version>
5.8.1

> <Gold.Id.Protein>
6NUR|6NUR_protein|mol2

> <Gold.PLP.Fitness>
44.6300

> <Gold.PLP.PLP>
-34.9996

> <Gold.PLP.part.hbond>
-5.0000

> <Gold.PLP.part.metal>
0.0000

> <Gold.PLP.part.buried>
-0.5001

> <Gold.PLP.part.nonpolar>
-29.2414

> <Gold.PLP.part.repulsive>
0.1531

> <Gold.PLP.ligand.clash>
0.0000

> <Gold.PLP.ligand.torsion>
1.6121

> <Gold.PLP.Chemscore.Hbond>
4.2619

> <Gold.PLP.Chemscore.CHOScore>
0.0000

> <Gold.PLP.Chemscore.Metal>
0.0000

> <Gold.Chemscore.Hbonds>
donor molecule, donor type, donor heavy atom, donor atom, acceptor molecule, acceptor atom, score
      L1  H     3    24       P1  7948  0.96
      L1  H    10    40       P1 10747  1.00
      P1  H  7997  8008       L1    18  0.31
      P1  H  7997  8010       L1    19  0.50
      P1  H 10752 10765       L1    20  0.88

> <Gold.PLP.Chemscore.Internal.Correction>
0.0689

> <Gold.Rescore>
     Score         DG    S(hbond)    S(metal)    S(lipo)     H(rot)  DE(clash)    DE(int)     intcor
     18.36     -20.54       3.13        0.00      72.89       1.54       0.82       1.36       ----

> <Gold.Chemscore.Fitness>
18.3644

> <Gold.Chemscore.DG>
-20.5417

> <Gold.Chemscore.ZeroCoef>
-5.4800

> <Gold.Chemscore.Hbond>
3.1330

> <Gold.Chemscore.Metal>
0.0000

> <Gold.Chemscore.Lipo>
72.8914

> <Gold.Chemscore.Internal_Hbond>
0.0000

> <Gold.Chemscore.DEClash>
0.8206

> <Gold.Chemscore.DEInternal>
1.3566

> <Gold.Chemscore.Rot>
1.5355

> <Gold.Chemscore.Internal.Correction>
   9.000000E+99

> <Gold.Chemscore.Hbonds>
donor molecule, donor type, donor heavy atom, donor atom, acceptor molecule, acceptor atom, score
      L1  H     3    24       P1  7948  0.92
      L1  H    10    40       P1 10747  1.00
      P1  H  7997  8008       L1    18  0.01
      P1  H  7997  8010       L1    19  0.25
      P1  H 10752 10765       L1    20  0.58

> <Gold.Chemscore.Hbond.Weighted>
-10.4643

> <Gold.Chemscore.Metal.Weighted>
-0.0000

> <Gold.Chemscore.Lipo.Weighted>
-8.5283

> <Gold.Chemscore.Internal_Hbond.Weighted>
0.0000

> <Gold.Chemscore.DEClash.Weighted>
0.8206

> <Gold.Chemscore.DEInternal.Weighted>
1.3566

> <Gold.Chemscore.Rot.Weighted>
3.9309

> <Gold.Chemscore.Internal.Correction.Weighted>
   9.000000E+99

> <Gold.Protein.RotatedTorsions>
[ 6907 6896 6895 6894 ] final -118.20 input  -60.11 | X-H torsion
[ 7974 7965 7964 7962 ] final -129.50 input  175.53 | X-H torsion
[ 8008 7997 7996 7995 ] final   17.27 input   59.86 | X-H torsion
[ 10167 10162 10161 10158 ] final   32.06 input  -65.29 | X-H torsion
[ 10718 10713 10712 10709 ] final -165.71 input   66.30 | X-H torsion
[ 10763 10752 10751 10750 ] final -160.49 input  -60.55 | X-H torsion
[ 11005 11000 10999 10996 ] final  134.80 input  -57.11 | X-H torsion

> <Gold.Protein.ActiveResidues>
 VAL166  LYS551  ARG553  GLY616  TRP617  ASP618  TYR619  PRO620  LYS621  CYS622 
 ASP623  PHE694  ASN695  SER759  ASP760  ASP761  ALA762  ILE779  LEU786  VAL792 
 PHE793  MET794  SER795  GLU796  ALA797  LYS798  CYS799  TRP800  GLU811  SER814 

> <Gold.Protein.RotatedAtoms>
  150.8200  133.8270  159.3143 H   0  0  0  0  0  0  0  0  0  0  0  0  # atno 6907 bound_to 6896
  151.6031  135.1044  160.0074 H   0  0  0  0  0  0  0  0  0  0  0  0  # atno 6908 bound_to 6896
  152.4289  133.7203  159.6586 H   0  0  0  0  0  0  0  0  0  0  0  0  # atno 6909 bound_to 6896
  144.9565  140.7401  143.4755 H   0  0  0  0  0  0  0  0  0  0  0  0  # atno 7974 bound_to 7965
  154.8890  140.2984  155.5381 H   0  0  0  0  0  0  0  0  0  0  0  0  # atno 8008 bound_to 7997
  156.3021  140.2428  156.3838 H   0  0  0  0  0  0  0  0  0  0  0  0  # atno 8009 bound_to 7997
  154.8638  140.0404  157.1671 H   0  0  0  0  0  0  0  0  0  0  0  0  # atno 8010 bound_to 7997
  140.4532  144.1016  150.6196 H   0  0  0  0  0  0  0  0  0  0  0  0  # atno 10167 bound_to 10162
  156.6574  130.9032  151.3023 H   0  0  0  0  0  0  0  0  0  0  0  0  # atno 10718 bound_to 10713
  154.7385  135.3063  154.8769 H   0  0  0  0  0  0  0  0  0  0  0  0  # atno 10763 bound_to 10752
  153.9590  135.6755  153.4749 H   0  0  0  0  0  0  0  0  0  0  0  0  # atno 10764 bound_to 10752
  153.0986  135.4923  154.8749 H   0  0  0  0  0  0  0  0  0  0  0  0  # atno 10765 bound_to 10752
  139.9938  134.9505  156.9917 H   0  0  0  0  0  0  0  0  0  0  0  0  # atno 11005 bound_to 11000
  145.2764  139.1935  143.4814 LP  0  0  0  0  0  0  0  0  0  0  0  0  # atno 17320 bound_to 7965
  146.3339  140.2718  142.8606 LP  0  0  0  0  0  0  0  0  0  0  0  0  # atno 17321 bound_to 7965
  140.4182  143.2624  151.9749 LP  0  0  0  0  0  0  0  0  0  0  0  0  # atno 17342 bound_to 10162
  139.4798  144.5855  151.7861 LP  0  0  0  0  0  0  0  0  0  0  0  0  # atno 17343 bound_to 10162
  157.7121  130.9453  150.1125 LP  0  0  0  0  0  0  0  0  0  0  0  0  # atno 17370 bound_to 10713
  156.2038  130.3662  149.8755 LP  0  0  0  0  0  0  0  0  0  0  0  0  # atno 17371 bound_to 10713
  140.4857  134.1244  155.7224 LP  0  0  0  0  0  0  0  0  0  0  0  0  # atno 17394 bound_to 11000
  141.1588  133.8833  157.1906 LP  0  0  0  0  0  0  0  0  0  0  0  0  # atno 17395 bound_to 11000

$$$$
