AV-unprocessed.smi:2118|AV-procd|sdf|8628|dock4
  -GOLD-   2272011373D 1   1.00000     0.00000
 Structure written by MMmdl.
 40 41  0  0  0  0  0  0  0  0  1 V2000
  153.7098  136.9939  163.8072 C   0  0  0  0  0  0  0  0  0  0  0  0
  155.0591  137.1993  163.1045 C   0  0  0  0  0  0  0  0  0  0  0  0
  155.6790  138.5631  163.4519 C   0  0  0  0  0  0  0  0  0  0  0  0
  157.0183  138.7759  162.7234 C   0  0  0  0  0  0  0  0  0  0  0  0
  156.8748  138.6004  161.2645 N   0  0  0  0  0  0  0  0  0  0  0  0
  156.5962  139.9979  160.2668 S   0  0  0  0  0  0  0  0  0  0  0  0
  157.8108  140.8277  160.2556 O   0  0  0  0  0  0  0  0  0  0  0  0
  155.9630  139.5722  159.0092 O   0  0  0  0  0  0  0  0  0  0  0  0
  155.4075  140.8052  161.2150 N   0  0  0  0  0  0  0  0  0  0  0  0
  154.1129  141.1011  160.6091 C   0  0  0  0  0  0  0  0  0  0  0  0
  153.3782  142.1685  161.4295 C   0  0  0  0  0  0  0  0  0  0  0  0
  152.8166  143.2739  160.5574 C   0  0  0  0  0  0  0  0  0  0  0  0
  153.0080  143.2617  159.1603 C   0  0  0  0  0  0  0  0  0  0  0  0
  152.4658  144.3099  158.3920 C   0  0  0  0  0  0  0  0  0  0  0  0
  151.7526  145.3282  159.0557 C   0  0  0  0  0  0  0  0  0  0  0  0
  151.5619  145.3495  160.3927 N   0  0  0  0  0  0  0  0  0  0  0  0
  152.0853  144.3404  161.1220 C   0  0  0  0  0  0  0  0  0  0  0  0
  156.2797  137.3067  160.8749 C   0  0  0  0  0  0  0  0  0  0  0  0
  154.9300  137.0713  161.5775 C   0  0  0  0  0  0  0  0  0  0  0  0
  152.9819  137.7441  163.4961 H   0  0  0  0  0  0  0  0  0  0  0  0
  153.8171  137.0629  164.8900 H   0  0  0  0  0  0  0  0  0  0  0  0
  153.2941  136.0119  163.5795 H   0  0  0  0  0  0  0  0  0  0  0  0
  155.7382  136.4200  163.4536 H   0  0  0  0  0  0  0  0  0  0  0  0
  154.9855  139.3648  163.1980 H   0  0  0  0  0  0  0  0  0  0  0  0
  155.8391  138.6330  164.5283 H   0  0  0  0  0  0  0  0  0  0  0  0
  157.4226  139.7629  162.9475 H   0  0  0  0  0  0  0  0  0  0  0  0
  157.7502  138.0545  163.0882 H   0  0  0  0  0  0  0  0  0  0  0  0
  155.3241  140.3997  162.1466 H   0  0  0  0  0  0  0  0  0  0  0  0
  154.2683  141.4452  159.5860 H   0  0  0  0  0  0  0  0  0  0  0  0
  153.5248  140.1839  160.5597 H   0  0  0  0  0  0  0  0  0  0  0  0
  152.5625  141.7130  161.9927 H   0  0  0  0  0  0  0  0  0  0  0  0
  154.0543  142.6055  162.1660 H   0  0  0  0  0  0  0  0  0  0  0  0
  153.5594  142.4641  158.6842 H   0  0  0  0  0  0  0  0  0  0  0  0
  152.5929  144.3330  157.3197 H   0  0  0  0  0  0  0  0  0  0  0  0
  151.3229  146.1470  158.4978 H   0  0  0  0  0  0  0  0  0  0  0  0
  151.9139  144.3852  162.1875 H   0  0  0  0  0  0  0  0  0  0  0  0
  156.1622  137.2553  159.7928 H   0  0  0  0  0  0  0  0  0  0  0  0
  156.9754  136.5118  161.1461 H   0  0  0  0  0  0  0  0  0  0  0  0
  154.5585  136.0788  161.3204 H   0  0  0  0  0  0  0  0  0  0  0  0
  154.1875  137.7769  161.2048 H   0  0  0  0  0  0  0  0  0  0  0  0
  1  2  1  0  0  0  0
  1 20  1  0  0  0  0
  1 21  1  0  0  0  0
  1 22  1  0  0  0  0
  2 19  1  0  0  0  0
  2  3  1  0  0  0  0
  2 23  1  0  0  0  0
  3  4  1  0  0  0  0
  3 24  1  0  0  0  0
  3 25  1  0  0  0  0
  4  5  1  0  0  0  0
  4 26  1  0  0  0  0
  4 27  1  0  0  0  0
  5  6  1  0  0  0  0
  5 18  1  0  0  0  0
  6  7  2  0  0  0  0
  6  8  2  0  0  0  0
  6  9  1  0  0  0  0
  9 10  1  0  0  0  0
  9 28  1  0  0  0  0
 10 11  1  0  0  0  0
 10 29  1  0  0  0  0
 10 30  1  0  0  0  0
 11 12  1  0  0  0  0
 11 31  1  0  0  0  0
 11 32  1  0  0  0  0
 12 17  1  0  0  0  0
 12 13  2  0  0  0  0
 13 14  1  0  0  0  0
 13 33  1  0  0  0  0
 14 15  2  0  0  0  0
 14 34  1  0  0  0  0
 15 16  1  0  0  0  0
 15 35  1  0  0  0  0
 16 17  2  0  0  0  0
 17 36  1  0  0  0  0
 18 19  1  0  0  0  0
 18 37  1  0  0  0  0
 18 38  1  0  0  0  0
 19 39  1  0  0  0  0
 19 40  1  0  0  0  0
M  END
> <s_m_source_file>
AV-unprocessed.smi

> <i_m_source_file_index>
2118

> <i_lp_mmshare_version>
43012

> <i_f3d_flags>
0

> <s_epik_input>
W0NIM11bQ0hdMVtDSDJdW0NIMl1OKFtDSDJdW0NIMl0xKVMoPU8pKD1PKVtOSF1bQ0gyXVtDSDJdYzJbY0hdW2NIXVtjSF1uW2NIXTI=

> <s_epik_cmdline>
J2VwaWtfcHl0aG9uJywgJy1waCcsICc3LjAnLCAnLXRuJywgJzgnLCAnLW1hJywgJzIwMCcsICctbWV0YWxfYmluZGluZycsICctaW1hZScsICc8aW5maWxlLm1hZT4nLCAnLW9tYWUnLCAnPG91dGZpbGUubWFlPic=

> <r_epik_Ionization_Penalty>
0.0259724

> <r_epik_Ionization_Penalty_Charging>
0

> <r_epik_Ionization_Penalty_Neutral>
0.0259724

> <r_epik_State_Penalty>
0.0167858

> <r_epik_Charging_Adjusted_Penalty>
0.0167858

> <i_epik_Tot_Q>
0

> <i_epik_Tot_abs_Q>
0

> <r_epik_Metal_State_Penalty>
0.268382

> <b_epik_Metal_Only>
0

> <s_lp_Force_Field>
OPLS_2005

> <r_lp_Energy>
6.97296

> <b_lp_Chiralities_Consistent>
1

> <s_lp_Variant>
AV-unprocessed.smi:2118-1

> <Gold.Version>
5.8.1

> <Gold.Id.Protein>
6NUR|6NUR_protein|mol2

> <Gold.PLP.Fitness>
45.5679

> <Gold.PLP.PLP>
-43.4761

> <Gold.PLP.part.hbond>
-3.0000

> <Gold.PLP.part.metal>
0.0000

> <Gold.PLP.part.buried>
-5.7696

> <Gold.PLP.part.nonpolar>
-34.9850

> <Gold.PLP.part.repulsive>
0.2522

> <Gold.PLP.ligand.clash>
0.0000

> <Gold.PLP.ligand.torsion>
1.5167

> <Gold.PLP.Chemscore.Hbond>
1.0000

> <Gold.PLP.Chemscore.CHOScore>
0.0000

> <Gold.PLP.Chemscore.Metal>
0.0000

> <Gold.Chemscore.Hbonds>
donor molecule, donor type, donor heavy atom, donor atom, acceptor molecule, acceptor atom, score
      P1  H  7997  8008       L1     8  1.00

> <Gold.PLP.Chemscore.Internal.Correction>
2.1252

> <Gold.Rescore>
     Score         DG    S(hbond)    S(metal)    S(lipo)     H(rot)  DE(clash)    DE(int)     intcor
     17.50     -19.01       1.00        0.00     119.38       1.47       0.01       1.51       ----

> <Gold.Chemscore.Fitness>
17.5000

> <Gold.Chemscore.DG>
-19.0146

> <Gold.Chemscore.ZeroCoef>
-5.4800

> <Gold.Chemscore.Hbond>
0.9991

> <Gold.Chemscore.Metal>
0.0000

> <Gold.Chemscore.Lipo>
119.3791

> <Gold.Chemscore.Internal_Hbond>
0.0000

> <Gold.Chemscore.DEClash>
0.0053

> <Gold.Chemscore.DEInternal>
1.5093

> <Gold.Chemscore.Rot>
1.4725

> <Gold.Chemscore.Internal.Correction>
   9.000000E+99

> <Gold.Chemscore.Hbonds>
donor molecule, donor type, donor heavy atom, donor atom, acceptor molecule, acceptor atom, score
      P1  H  7997  8008       L1     8  1.00

> <Gold.Chemscore.Hbond.Weighted>
-3.3369

> <Gold.Chemscore.Metal.Weighted>
-0.0000

> <Gold.Chemscore.Lipo.Weighted>
-13.9674

> <Gold.Chemscore.Internal_Hbond.Weighted>
0.0000

> <Gold.Chemscore.DEClash.Weighted>
0.0053

> <Gold.Chemscore.DEInternal.Weighted>
1.5093

> <Gold.Chemscore.Rot.Weighted>
3.7697

> <Gold.Chemscore.Internal.Correction.Weighted>
   9.000000E+99

> <Gold.Protein.RotatedTorsions>
[ 6907 6896 6895 6894 ] final   11.10 input  -60.11 | X-H torsion
[ 7974 7965 7964 7962 ] final  169.08 input  175.53 | X-H torsion
[ 8008 7997 7996 7995 ] final -147.66 input   59.86 | X-H torsion
[ 10167 10162 10161 10158 ] final -139.43 input  -65.29 | X-H torsion
[ 10718 10713 10712 10709 ] final -154.59 input   66.30 | X-H torsion
[ 10763 10752 10751 10750 ] final  -55.09 input  -60.55 | X-H torsion
[ 11005 11000 10999 10996 ] final -176.36 input  -57.11 | X-H torsion

> <Gold.Protein.ActiveResidues>
 VAL166  LYS551  ARG553  GLY616  TRP617  ASP618  TYR619  PRO620  LYS621  CYS622 
 ASP623  PHE694  ASN695  SER759  ASP760  ASP761  ALA762  ILE779  LEU786  VAL792 
 PHE793  MET794  SER795  GLU796  ALA797  LYS798  CYS799  TRP800  GLU811  SER814 

> <Gold.Protein.RotatedAtoms>
  151.7490  135.0837  160.0327 H   0  0  0  0  0  0  0  0  0  0  0  0  # atno 6907 bound_to 6896
  152.3429  133.6084  159.5898 H   0  0  0  0  0  0  0  0  0  0  0  0  # atno 6908 bound_to 6896
  150.7491  133.9610  159.3557 H   0  0  0  0  0  0  0  0  0  0  0  0  # atno 6909 bound_to 6896
  144.7367  139.9002  143.6409 H   0  0  0  0  0  0  0  0  0  0  0  0  # atno 7974 bound_to 7965
  155.5792  140.0641  157.2787 H   0  0  0  0  0  0  0  0  0  0  0  0  # atno 8008 bound_to 7997
  154.4338  140.1855  156.1005 H   0  0  0  0  0  0  0  0  0  0  0  0  # atno 8009 bound_to 7997
  156.0318  140.3305  155.7152 H   0  0  0  0  0  0  0  0  0  0  0  0  # atno 8010 bound_to 7997
  139.8380  143.7359  152.2664 H   0  0  0  0  0  0  0  0  0  0  0  0  # atno 10167 bound_to 10162
  156.5014  130.8393  151.2610 H   0  0  0  0  0  0  0  0  0  0  0  0  # atno 10718 bound_to 10713
  154.1852  135.6436  153.5045 H   0  0  0  0  0  0  0  0  0  0  0  0  # atno 10763 bound_to 10752
  153.0049  135.5415  154.6472 H   0  0  0  0  0  0  0  0  0  0  0  0  # atno 10764 bound_to 10752
  154.5847  135.2928  155.0670 H   0  0  0  0  0  0  0  0  0  0  0  0  # atno 10765 bound_to 10752
  140.4529  134.6326  157.4809 H   0  0  0  0  0  0  0  0  0  0  0  0  # atno 11005 bound_to 11000
  146.1077  139.4079  143.0307 LP  0  0  0  0  0  0  0  0  0  0  0  0  # atno 17320 bound_to 7965
  145.7488  140.9980  143.1262 LP  0  0  0  0  0  0  0  0  0  0  0  0  # atno 17321 bound_to 7965
  139.7587  144.7513  151.0396 LP  0  0  0  0  0  0  0  0  0  0  0  0  # atno 17342 bound_to 10162
  140.7801  143.4776  151.0062 LP  0  0  0  0  0  0  0  0  0  0  0  0  # atno 17343 bound_to 10162
  157.7462  130.9980  150.2838 LP  0  0  0  0  0  0  0  0  0  0  0  0  # atno 17370 bound_to 10713
  156.3329  130.3803  149.7475 LP  0  0  0  0  0  0  0  0  0  0  0  0  # atno 17371 bound_to 10713
  139.9995  134.6859  155.9554 LP  0  0  0  0  0  0  0  0  0  0  0  0  # atno 17394 bound_to 11000
  141.1656  133.6537  156.4468 LP  0  0  0  0  0  0  0  0  0  0  0  0  # atno 17395 bound_to 11000

$$$$
