AV-unprocessed.smi:195|AV-procd|sdf|1527|dock5
  -GOLD-   2262019373D 1   1.00000     0.00000
 Structure written by MMmdl.
 45 48  0  0  0  0  0  0  0  0  1 V2000
  152.2034  136.7799  155.8182 N   0  0  0  0  0  0  0  0  0  0  0  0
  151.4123  137.3546  155.1997 C   0  0  0  0  0  0  0  0  0  0  0  0
  150.4062  138.0864  154.4137 C   0  0  0  0  0  0  0  0  0  0  0  0
  150.1130  139.4885  154.9552 C   0  0  0  0  0  0  0  0  0  0  0  0
  151.3498  140.1669  154.8895 O   0  0  0  0  0  0  0  0  0  0  0  0
  148.9256  140.2435  154.3505 C   0  0  0  0  0  0  0  0  0  0  0  0
  148.1592  139.8843  155.5407 N   0  0  0  0  0  0  0  0  0  0  0  0
  147.2447  138.8045  155.3319 C   0  0  0  0  0  0  0  0  0  0  0  0
  146.7730  138.0748  156.3792 N   0  0  0  0  0  0  0  0  0  0  0  0
  145.9111  137.0710  156.1925 C   0  0  0  0  0  0  0  0  0  0  0  0
  145.3794  136.6312  155.0519 N   0  0  0  0  0  0  0  0  0  0  0  0
  145.8255  137.3640  153.9937 C   0  0  0  0  0  0  0  0  0  0  0  0
  146.7424  138.4523  154.0458 C   0  0  0  0  0  0  0  0  0  0  0  0
  146.9495  138.9538  152.7657 N   0  0  0  0  0  0  0  0  0  0  0  0
  146.2026  138.2039  152.0020 C   0  0  0  0  0  0  0  0  0  0  0  0
  145.4932  137.2246  152.6586 N   0  0  0  0  0  0  0  0  0  0  0  0
  144.5869  136.2580  152.0657 C   0  0  0  0  0  0  0  0  0  0  0  0
  144.9864  134.8055  152.3902 C   0  0  1  0  0  0  0  0  0  0  0  0
  144.8303  134.5425  153.7717 O   0  0  0  0  0  0  0  0  0  0  0  0
  144.2088  133.7716  151.5515 C   0  0  1  0  0  0  0  0  0  0  0  0
  144.3963  133.8437  150.0338 C   0  0  0  0  0  0  0  0  0  0  0  0
  144.0147  132.4388  149.6246 C   0  0  0  0  0  0  0  0  0  0  0  0
  144.6006  131.6107  150.7657 C   0  0  0  0  0  0  0  0  0  0  0  0
  144.5262  132.4335  151.9271 O   0  0  0  0  0  0  0  0  0  0  0  0
  149.3808  139.6054  156.2962 C   0  0  0  0  0  0  0  0  0  0  0  0
  150.7508  138.1274  153.3798 H   0  0  0  0  0  0  0  0  0  0  0  0
  149.5047  137.4740  154.4107 H   0  0  0  0  0  0  0  0  0  0  0  0
  151.8981  139.8083  155.5706 H   0  0  0  0  0  0  0  0  0  0  0  0
  149.0843  141.3204  154.2805 H   0  0  0  0  0  0  0  0  0  0  0  0
  148.5651  139.8246  153.4102 H   0  0  0  0  0  0  0  0  0  0  0  0
  145.6026  136.5475  157.0856 H   0  0  0  0  0  0  0  0  0  0  0  0
  146.1443  138.3484  150.9329 H   0  0  0  0  0  0  0  0  0  0  0  0
  143.5762  136.4674  152.4180 H   0  0  0  0  0  0  0  0  0  0  0  0
  144.5803  136.4156  150.9865 H   0  0  0  0  0  0  0  0  0  0  0  0
  146.0474  134.6816  152.1700 H   0  0  0  0  0  0  0  0  0  0  0  0
  145.5437  134.9543  154.2349 H   0  0  0  0  0  0  0  0  0  0  0  0
  143.1446  133.8942  151.7593 H   0  0  0  0  0  0  0  0  0  0  0  0
  143.7778  134.6097  149.5653 H   0  0  0  0  0  0  0  0  0  0  0  0
  145.4357  134.0326  149.7635 H   0  0  0  0  0  0  0  0  0  0  0  0
  142.9288  132.3363  149.6040 H   0  0  0  0  0  0  0  0  0  0  0  0
  144.4043  132.1546  148.6469 H   0  0  0  0  0  0  0  0  0  0  0  0
  144.0728  130.6680  150.9099 H   0  0  0  0  0  0  0  0  0  0  0  0
  145.6494  131.3846  150.5702 H   0  0  0  0  0  0  0  0  0  0  0  0
  149.3937  138.7033  156.9073 H   0  0  0  0  0  0  0  0  0  0  0  0
  149.6931  140.4745  156.8767 H   0  0  0  0  0  0  0  0  0  0  0  0
  1  2  3  0  0  0  0
  2  3  1  0  0  0  0
  3  4  1  0  0  0  0
  3 26  1  0  0  0  0
  3 27  1  0  0  0  0
  4 25  1  0  0  0  0
  4  5  1  0  0  0  0
  4  6  1  0  0  0  0
  5 28  1  0  0  0  0
  6  7  1  0  0  0  0
  6 29  1  0  0  0  0
  6 30  1  0  0  0  0
  7  8  1  0  0  0  0
  7 25  1  0  0  0  0
  8 13  1  0  0  0  0
  8  9  2  0  0  0  0
  9 10  1  0  0  0  0
 10 11  2  0  0  0  0
 10 31  1  0  0  0  0
 11 12  1  0  0  0  0
 12 16  1  0  0  0  0
 12 13  2  0  0  0  0
 13 14  1  0  0  0  0
 14 15  2  0  0  0  0
 15 16  1  0  0  0  0
 15 32  1  0  0  0  0
 16 17  1  0  0  0  0
 17 18  1  0  0  0  0
 17 33  1  0  0  0  0
 17 34  1  0  0  0  0
 18 19  1  0  0  0  0
 18 20  1  0  0  0  0
 18 35  1  0  0  0  0
 19 36  1  0  0  0  0
 20 24  1  0  0  0  0
 20 21  1  0  0  0  0
 20 37  1  0  0  0  0
 21 22  1  0  0  0  0
 21 38  1  0  0  0  0
 21 39  1  0  0  0  0
 22 23  1  0  0  0  0
 22 40  1  0  0  0  0
 22 41  1  0  0  0  0
 23 24  1  0  0  0  0
 23 42  1  0  0  0  0
 23 43  1  0  0  0  0
 25 44  1  0  0  0  0
 25 45  1  0  0  0  0
M  END
> <s_m_source_file>
AV-unprocessed.smi

> <i_m_source_file_index>
195

> <i_lp_mmshare_version>
43012

> <i_f3d_flags>
0

> <s_epik_input>
TiNDW0NIMl1DMShbT0hdKVtDSDJdTihbQ0gyXTEpYyhuW2NIXW4yKWMoYzIzKW5bY0hdbjNbQ0gyXVtDQEhdKFtPSF0pW0NAQEhdNFtDSDJdW0NIMl1bQ0gyXU80

> <s_epik_cmdline>
J2VwaWtfcHl0aG9uJywgJy1waCcsICc3LjAnLCAnLXRuJywgJzgnLCAnLW1hJywgJzIwMCcsICctbWV0YWxfYmluZGluZycsICctaW1hZScsICc8aW5maWxlLm1hZT4nLCAnLW9tYWUnLCAnPG91dGZpbGUubWFlPic=

> <r_lp_tautomer_probability>
1

> <r_epik_Ionization_Penalty>
0.00307146

> <r_epik_Ionization_Penalty_Charging>
0

> <r_epik_Ionization_Penalty_Neutral>
0.00307146

> <r_epik_State_Penalty>
0.0020279

> <r_epik_Charging_Adjusted_Penalty>
0.0020279

> <i_epik_Tot_Q>
0

> <i_epik_Tot_abs_Q>
0

> <r_epik_Metal_State_Penalty>
-0

> <b_epik_Metal_Only>
0

> <s_lp_Force_Field>
OPLS_2005

> <r_lp_Energy>
44.2023

> <b_lp_Chiralities_Consistent>
1

> <s_lp_Variant>
AV-unprocessed.smi:195-4

> <Gold.Version>
5.8.1

> <Gold.Id.Protein>
6NUR|6NUR_protein|mol2

> <Gold.PLP.Fitness>
40.3230

> <Gold.PLP.PLP>
-32.5048

> <Gold.PLP.part.hbond>
-1.8813

> <Gold.PLP.part.metal>
0.0000

> <Gold.PLP.part.buried>
-5.1355

> <Gold.PLP.part.nonpolar>
-27.1339

> <Gold.PLP.part.repulsive>
0.4796

> <Gold.PLP.ligand.clash>
0.0000

> <Gold.PLP.ligand.torsion>
0.4892

> <Gold.PLP.Chemscore.Hbond>
2.0000

> <Gold.PLP.Chemscore.CHOScore>
0.8120

> <Gold.PLP.Chemscore.Metal>
0.0000

> <Gold.Chemscore.Hbonds>
donor molecule, donor type, donor heavy atom, donor atom, acceptor molecule, acceptor atom, score
      P1  H  7989  7998       L1     5  1.00
      P1  H 10752 10763       L1     1  1.00
      L1  C    15    32       P1 10171  0.81

> <Gold.PLP.Chemscore.Internal.Correction>
0.3608

> <Gold.Rescore>
     Score         DG    S(hbond)    S(metal)    S(lipo)     H(rot)  DE(clash)    DE(int)     intcor
      7.81     -10.64       1.93        0.00      70.36       3.72       0.03       2.79       ----

> <Gold.Chemscore.Fitness>
7.8082

> <Gold.Chemscore.DG>
-10.6353

> <Gold.Chemscore.ZeroCoef>
-5.4800

> <Gold.Chemscore.Hbond>
1.9307

> <Gold.Chemscore.Metal>
0.0000

> <Gold.Chemscore.Lipo>
70.3621

> <Gold.Chemscore.Internal_Hbond>
0.0000

> <Gold.Chemscore.DEClash>
0.0324

> <Gold.Chemscore.DEInternal>
2.7946

> <Gold.Chemscore.Rot>
3.7210

> <Gold.Chemscore.Internal.Correction>
   9.000000E+99

> <Gold.Chemscore.Hbonds>
donor molecule, donor type, donor heavy atom, donor atom, acceptor molecule, acceptor atom, score
      P1  H  7989  7998       L1     5  0.87
      P1  H 10752 10763       L1     1  0.87

> <Gold.Chemscore.Hbond.Weighted>
-6.4485

> <Gold.Chemscore.Metal.Weighted>
-0.0000

> <Gold.Chemscore.Lipo.Weighted>
-8.2324

> <Gold.Chemscore.Internal_Hbond.Weighted>
0.0000

> <Gold.Chemscore.DEClash.Weighted>
0.0324

> <Gold.Chemscore.DEInternal.Weighted>
2.7946

> <Gold.Chemscore.Rot.Weighted>
9.5256

> <Gold.Chemscore.Internal.Correction.Weighted>
   9.000000E+99

> <Gold.Protein.RotatedTorsions>
[ 6907 6896 6895 6894 ] final   50.14 input  -60.11 | X-H torsion
[ 7974 7965 7964 7962 ] final  103.07 input  175.53 | X-H torsion
[ 8008 7997 7996 7995 ] final  -33.44 input   59.86 | X-H torsion
[ 10167 10162 10161 10158 ] final  136.72 input  -65.29 | X-H torsion
[ 10718 10713 10712 10709 ] final  -36.81 input   66.30 | X-H torsion
[ 10763 10752 10751 10750 ] final   80.18 input  -60.55 | X-H torsion
[ 11005 11000 10999 10996 ] final  -97.29 input  -57.11 | X-H torsion

> <Gold.Protein.ActiveResidues>
 VAL166  LYS551  ARG553  GLY616  TRP617  ASP618  TYR619  PRO620  LYS621  CYS622 
 ASP623  PHE694  ASN695  SER759  ASP760  ASP761  ALA762  ILE779  LEU786  VAL792 
 PHE793  MET794  SER795  GLU796  ALA797  LYS798  CYS799  TRP800  GLU811  SER814 

> <Gold.Protein.RotatedAtoms>
  152.2986  134.7638  160.0362 H   0  0  0  0  0  0  0  0  0  0  0  0  # atno 6907 bound_to 6896
  151.8159  133.3382  159.3577 H   0  0  0  0  0  0  0  0  0  0  0  0  # atno 6908 bound_to 6896
  150.7263  134.5549  159.5857 H   0  0  0  0  0  0  0  0  0  0  0  0  # atno 6909 bound_to 6896
  145.3508  139.2440  143.3559 H   0  0  0  0  0  0  0  0  0  0  0  0  # atno 7974 bound_to 7965
  154.4149  140.1710  156.1888 H   0  0  0  0  0  0  0  0  0  0  0  0  # atno 8008 bound_to 7997
  155.9620  140.3392  155.6475 H   0  0  0  0  0  0  0  0  0  0  0  0  # atno 8009 bound_to 7997
  155.6736  140.0714  157.2502 H   0  0  0  0  0  0  0  0  0  0  0  0  # atno 8010 bound_to 7997
  139.5169  144.6449  151.5467 H   0  0  0  0  0  0  0  0  0  0  0  0  # atno 10167 bound_to 10162
  156.3225  130.4267  149.7947 H   0  0  0  0  0  0  0  0  0  0  0  0  # atno 10718 bound_to 10713
  153.1013  135.4812  154.8871 H   0  0  0  0  0  0  0  0  0  0  0  0  # atno 10763 bound_to 10752
  154.7381  135.3076  154.8778 H   0  0  0  0  0  0  0  0  0  0  0  0  # atno 10764 bound_to 10752
  153.9394  135.6836  153.4798 H   0  0  0  0  0  0  0  0  0  0  0  0  # atno 10765 bound_to 10752
  141.1384  133.8160  157.0686 H   0  0  0  0  0  0  0  0  0  0  0  0  # atno 11005 bound_to 11000
  146.2969  140.4124  142.8718 LP  0  0  0  0  0  0  0  0  0  0  0  0  # atno 17320 bound_to 7965
  144.8719  140.7284  143.6041 LP  0  0  0  0  0  0  0  0  0  0  0  0  # atno 17321 bound_to 7965
  140.6230  143.9222  150.6541 LP  0  0  0  0  0  0  0  0  0  0  0  0  # atno 17342 bound_to 10162
  140.2502  143.3599  152.1412 LP  0  0  0  0  0  0  0  0  0  0  0  0  # atno 17343 bound_to 10162
  156.5250  130.8232  151.3217 LP  0  0  0  0  0  0  0  0  0  0  0  0  # atno 17370 bound_to 10713
  157.7414  130.9870  150.2447 LP  0  0  0  0  0  0  0  0  0  0  0  0  # atno 17371 bound_to 10713
  140.0526  134.9797  157.1163 LP  0  0  0  0  0  0  0  0  0  0  0  0  # atno 17394 bound_to 11000
  140.3967  134.2126  155.7164 LP  0  0  0  0  0  0  0  0  0  0  0  0  # atno 17395 bound_to 11000

$$$$
