AV-unprocessed.smi:1644|AV-procd|sdf|6588|dock9
  -GOLD-   22720 7283D 1   1.00000     0.00000
 Structure written by MMmdl.
 50 52  0  0  0  0  0  0  0  0  2 V2000
  154.2561  137.2787  159.9552 C   0  0  0  0  0  0  0  0  0  0  0  0
  152.8175  137.6859  159.6191 C   0  0  0  0  0  0  0  0  0  0  0  0
  152.4527  137.4021  158.1532 C   0  0  0  0  0  0  0  0  0  0  0  0
  151.1930  138.1564  157.6845 C   0  0  2  0  0  0  0  0  0  0  0  0
  150.9865  138.0667  156.2525 N   0  0  0  0  0  0  0  0  0  0  0  0
  150.9816  139.2658  155.6564 C   0  0  0  0  0  0  0  0  0  0  0  0
  150.8331  139.4577  154.4506 O   0  0  0  0  0  0  0  0  0  0  0  0
  151.1748  140.2077  156.5976 N   0  0  0  0  0  0  0  0  0  0  0  0
  151.2541  141.6464  156.3250 C   0  0  0  0  0  0  0  0  0  0  0  0
  150.7037  142.4844  157.4973 C   0  0  2  0  0  0  0  0  0  0  0  0
  149.3525  142.8046  157.2275 O   0  0  0  0  0  0  0  0  0  0  0  0
  151.4949  143.7947  157.6795 C   0  0  0  0  0  0  0  0  0  0  0  0
  151.5281  144.2507  159.0765 N   0  0  0  0  0  0  0  0  0  0  0  0
  150.9082  145.3146  159.6551 C   0  0  0  0  0  0  0  0  0  0  0  0
  151.2491  145.3222  160.9733 N   0  3  0  0  0  0  0  0  0  0  0  0
  152.1015  144.2488  161.2401 C   0  0  0  0  0  0  0  0  0  0  0  0
  152.7117  143.8440  162.4212 C   0  0  0  0  0  0  0  0  0  0  0  0
  153.5363  142.6978  162.3616 C   0  0  0  0  0  0  0  0  0  0  0  0
  154.2223  142.2309  163.6343 C   0  0  0  0  0  0  0  0  0  0  0  0
  153.7242  141.9964  161.1424 C   0  0  0  0  0  0  0  0  0  0  0  0
  154.6145  140.7664  161.0885 C   0  0  0  0  0  0  0  0  0  0  0  0
  153.0932  142.4235  159.9522 C   0  0  0  0  0  0  0  0  0  0  0  0
  152.2846  143.5555  160.0277 C   0  0  0  0  0  0  0  0  0  0  0  0
  151.3270  139.6623  157.8112 C   0  0  0  0  0  0  0  0  0  0  0  0
  151.5494  140.2490  158.8703 O   0  0  0  0  0  0  0  0  0  0  0  0
  154.4884  137.4983  160.9975 H   0  0  0  0  0  0  0  0  0  0  0  0
  154.9728  137.8167  159.3342 H   0  0  0  0  0  0  0  0  0  0  0  0
  154.4101  136.2109  159.7979 H   0  0  0  0  0  0  0  0  0  0  0  0
  152.1341  137.1549  160.2826 H   0  0  0  0  0  0  0  0  0  0  0  0
  152.6875  138.7483  159.8280 H   0  0  0  0  0  0  0  0  0  0  0  0
  153.2945  137.6863  157.5199 H   0  0  0  0  0  0  0  0  0  0  0  0
  152.3176  136.3280  158.0144 H   0  0  0  0  0  0  0  0  0  0  0  0
  150.3030  137.8157  158.2152 H   0  0  0  0  0  0  0  0  0  0  0  0
  150.8644  137.1884  155.7697 H   0  0  0  0  0  0  0  0  0  0  0  0
  152.3029  141.8983  156.1573 H   0  0  0  0  0  0  0  0  0  0  0  0
  150.7488  141.9020  155.3915 H   0  0  0  0  0  0  0  0  0  0  0  0
  150.7510  141.9138  158.4261 H   0  0  0  0  0  0  0  0  0  0  0  0
  149.3208  143.3520  156.4576 H   0  0  0  0  0  0  0  0  0  0  0  0
  152.5309  143.6458  157.3721 H   0  0  0  0  0  0  0  0  0  0  0  0
  151.1012  144.5903  157.0463 H   0  0  0  0  0  0  0  0  0  0  0  0
  150.2633  146.0252  159.1580 H   0  0  0  0  0  0  0  0  0  0  0  0
  152.5647  144.3840  163.3451 H   0  0  0  0  0  0  0  0  0  0  0  0
  153.8956  141.2248  163.8982 H   0  0  0  0  0  0  0  0  0  0  0  0
  153.9933  142.8867  164.4751 H   0  0  0  0  0  0  0  0  0  0  0  0
  155.3051  142.2217  163.5053 H   0  0  0  0  0  0  0  0  0  0  0  0
  154.6297  140.3283  160.0901 H   0  0  0  0  0  0  0  0  0  0  0  0
  154.2568  140.0030  161.7799 H   0  0  0  0  0  0  0  0  0  0  0  0
  155.6396  141.0240  161.3553 H   0  0  0  0  0  0  0  0  0  0  0  0
  153.2435  141.8940  159.0232 H   0  0  0  0  0  0  0  0  0  0  0  0
  150.9245  146.0120  161.6388 H   0  0  0  0  0  0  0  0  0  0  0  0
  1  2  1  0  0  0  0
  1 26  1  0  0  0  0
  1 27  1  0  0  0  0
  1 28  1  0  0  0  0
  2  3  1  0  0  0  0
  2 29  1  0  0  0  0
  2 30  1  0  0  0  0
  3  4  1  0  0  0  0
  3 31  1  0  0  0  0
  3 32  1  0  0  0  0
  4 24  1  0  0  0  0
  4  5  1  0  0  0  0
  4 33  1  0  0  0  0
  5  6  1  0  0  0  0
  5 34  1  0  0  0  0
  6  7  2  0  0  0  0
  6  8  1  0  0  0  0
  8  9  1  0  0  0  0
  8 24  1  0  0  0  0
  9 10  1  0  0  0  0
  9 35  1  0  0  0  0
  9 36  1  0  0  0  0
 10 11  1  0  0  0  0
 10 12  1  0  0  0  0
 10 37  1  0  0  0  0
 11 38  1  0  0  0  0
 12 13  1  0  0  0  0
 12 39  1  0  0  0  0
 12 40  1  0  0  0  0
 13 23  1  0  0  0  0
 13 14  1  0  0  0  0
 14 15  2  0  0  0  0
 14 41  1  0  0  0  0
 15 16  1  0  0  0  0
 15 50  1  0  0  0  0
 16 23  2  0  0  0  0
 16 17  1  0  0  0  0
 17 18  2  0  0  0  0
 17 42  1  0  0  0  0
 18 19  1  0  0  0  0
 18 20  1  0  0  0  0
 19 43  1  0  0  0  0
 19 44  1  0  0  0  0
 19 45  1  0  0  0  0
 20 21  1  0  0  0  0
 20 22  2  0  0  0  0
 21 46  1  0  0  0  0
 21 47  1  0  0  0  0
 21 48  1  0  0  0  0
 22 23  1  0  0  0  0
 22 49  1  0  0  0  0
 24 25  2  0  0  0  0
M  CHG  1  15   1
M  END
> <s_m_source_file>
AV-unprocessed.smi

> <i_m_source_file_index>
1644

> <i_lp_mmshare_version>
43012

> <i_f3d_flags>
0

> <s_epik_input>
W0NIM11bQ0gyXVtDSDJdW0NAQEhdMVtOSF1DKD1PKU4oQzE9TylbQ0gyXVtDQEhdKFtPSF0pW0NIMl1uKFtjSF1uMiljKGMyMylbY0hdYyhbQ0gzXSljKFtjSF0zKVtDSDNd

> <s_epik_cmdline>
J2VwaWtfcHl0aG9uJywgJy1waCcsICc3LjAnLCAnLXRuJywgJzgnLCAnLW1hJywgJzIwMCcsICctbWV0YWxfYmluZGluZycsICctaW1hZScsICc8aW5maWxlLm1hZT4nLCAnLW9tYWUnLCAnPG91dGZpbGUubWFlPic=

> <r_lp_tautomer_probability>
1

> <r_epik_Ionization_Penalty>
1.06742

> <r_epik_Ionization_Penalty_Charging>
1.06736

> <r_epik_Ionization_Penalty_Neutral>
5.56132e-05

> <r_epik_State_Penalty>
1.12163

> <r_epik_Charging_Adjusted_Penalty>
2.18899

> <i_epik_Tot_Q>
1

> <i_epik_Tot_abs_Q>
1

> <r_epik_Metal_State_Penalty>
1.26636

> <b_epik_Metal_Only>
0

> <s_lp_Force_Field>
OPLS_2005

> <r_lp_Energy>
29.1926

> <b_lp_Chiralities_Consistent>
1

> <s_lp_Variant>
AV-unprocessed.smi:1644-5

> <Gold.Version>
5.8.1

> <Gold.Id.Protein>
6NUR|6NUR_protein|mol2

> <Gold.PLP.Fitness>
59.9250

> <Gold.PLP.PLP>
-56.9387

> <Gold.PLP.part.hbond>
-2.6891

> <Gold.PLP.part.metal>
0.0000

> <Gold.PLP.part.buried>
-7.3527

> <Gold.PLP.part.nonpolar>
-47.1765

> <Gold.PLP.part.repulsive>
0.3123

> <Gold.PLP.ligand.clash>
0.0000

> <Gold.PLP.ligand.torsion>
1.4291

> <Gold.PLP.Chemscore.Hbond>
1.9120

> <Gold.PLP.Chemscore.CHOScore>
0.0000

> <Gold.PLP.Chemscore.Metal>
0.0000

> <Gold.Chemscore.Hbonds>
donor molecule, donor type, donor heavy atom, donor atom, acceptor molecule, acceptor atom, score
      L1  H    11    38       P1  8028  1.00
      P1  H  7989  7998       L1     7  1.00

> <Gold.PLP.Chemscore.Internal.Correction>
0.1087

> <Gold.Rescore>
     Score         DG    S(hbond)    S(metal)    S(lipo)     H(rot)  DE(clash)    DE(int)     intcor
     14.78     -20.33       1.89        0.00     134.17       2.80       1.63       3.92       ----

> <Gold.Chemscore.Fitness>
14.7836

> <Gold.Chemscore.DG>
-20.3285

> <Gold.Chemscore.ZeroCoef>
-5.4800

> <Gold.Chemscore.Hbond>
1.8886

> <Gold.Chemscore.Metal>
0.0000

> <Gold.Chemscore.Lipo>
134.1747

> <Gold.Chemscore.Internal_Hbond>
0.0000

> <Gold.Chemscore.DEClash>
1.6257

> <Gold.Chemscore.DEInternal>
3.9191

> <Gold.Chemscore.Rot>
2.7961

> <Gold.Chemscore.Internal.Correction>
   9.000000E+99

> <Gold.Chemscore.Hbonds>
donor molecule, donor type, donor heavy atom, donor atom, acceptor molecule, acceptor atom, score
      L1  H    11    38       P1  8028  0.96
      P1  H  7989  7998       L1     7  1.00

> <Gold.Chemscore.Hbond.Weighted>
-6.3081

> <Gold.Chemscore.Metal.Weighted>
-0.0000

> <Gold.Chemscore.Lipo.Weighted>
-15.6984

> <Gold.Chemscore.Internal_Hbond.Weighted>
0.0000

> <Gold.Chemscore.DEClash.Weighted>
1.6257

> <Gold.Chemscore.DEInternal.Weighted>
3.9191

> <Gold.Chemscore.Rot.Weighted>
7.1580

> <Gold.Chemscore.Internal.Correction.Weighted>
   9.000000E+99

> <Gold.Protein.RotatedTorsions>
[ 6907 6896 6895 6894 ] final  -89.65 input  -60.11 | X-H torsion
[ 7974 7965 7964 7962 ] final  -30.49 input  175.53 | X-H torsion
[ 8008 7997 7996 7995 ] final  139.31 input   59.86 | X-H torsion
[ 10167 10162 10161 10158 ] final   29.44 input  -65.29 | X-H torsion
[ 10718 10713 10712 10709 ] final  -97.45 input   66.30 | X-H torsion
[ 10763 10752 10751 10750 ] final  133.30 input  -60.55 | X-H torsion
[ 11005 11000 10999 10996 ] final   -9.49 input  -57.11 | X-H torsion

> <Gold.Protein.ActiveResidues>
 VAL166  LYS551  ARG553  GLY616  TRP617  ASP618  TYR619  PRO620  LYS621  CYS622 
 ASP623  PHE694  ASN695  SER759  ASP760  ASP761  ALA762  ILE779  LEU786  VAL792 
 PHE793  MET794  SER795  GLU796  ALA797  LYS798  CYS799  TRP800  GLU811  SER814 

> <Gold.Protein.RotatedAtoms>
  150.6875  134.2553  159.4527 H   0  0  0  0  0  0  0  0  0  0  0  0  # atno 6907 bound_to 6896
  152.0487  134.9664  160.0584 H   0  0  0  0  0  0  0  0  0  0  0  0  # atno 6908 bound_to 6896
  152.1137  133.4280  159.4680 H   0  0  0  0  0  0  0  0  0  0  0  0  # atno 6909 bound_to 6896
  146.1139  140.5547  142.8765 H   0  0  0  0  0  0  0  0  0  0  0  0  # atno 7974 bound_to 7965
  156.2991  140.2371  156.4217 H   0  0  0  0  0  0  0  0  0  0  0  0  # atno 8008 bound_to 7997
  154.8349  140.0431  157.1522 H   0  0  0  0  0  0  0  0  0  0  0  0  # atno 8009 bound_to 7997
  154.9166  140.2998  155.5241 H   0  0  0  0  0  0  0  0  0  0  0  0  # atno 8010 bound_to 7997
  140.4765  144.0682  150.6252 H   0  0  0  0  0  0  0  0  0  0  0  0  # atno 10167 bound_to 10162
  156.0084  130.5195  150.6377 H   0  0  0  0  0  0  0  0  0  0  0  0  # atno 10718 bound_to 10713
  153.8048  135.3137  155.3394 H   0  0  0  0  0  0  0  0  0  0  0  0  # atno 10763 bound_to 10752
  154.8075  135.4688  154.0432 H   0  0  0  0  0  0  0  0  0  0  0  0  # atno 10764 bound_to 10752
  153.1791  135.6890  153.8590 H   0  0  0  0  0  0  0  0  0  0  0  0  # atno 10765 bound_to 10752
  140.7347  133.8720  155.8920 H   0  0  0  0  0  0  0  0  0  0  0  0  # atno 11005 bound_to 11000
  144.7536  140.5251  143.6785 LP  0  0  0  0  0  0  0  0  0  0  0  0  # atno 17320 bound_to 7965
  145.5607  139.1479  143.3343 LP  0  0  0  0  0  0  0  0  0  0  0  0  # atno 17321 bound_to 7965
  140.3911  143.2752  152.0059 LP  0  0  0  0  0  0  0  0  0  0  0  0  # atno 17342 bound_to 10162
  139.4826  144.6076  151.7492 LP  0  0  0  0  0  0  0  0  0  0  0  0  # atno 17343 bound_to 10162
  157.4163  131.0830  151.1173 LP  0  0  0  0  0  0  0  0  0  0  0  0  # atno 17370 bound_to 10713
  157.1789  130.6301  149.5665 LP  0  0  0  0  0  0  0  0  0  0  0  0  # atno 17371 bound_to 10713
  140.9890  134.1304  157.4426 LP  0  0  0  0  0  0  0  0  0  0  0  0  # atno 17394 bound_to 11000
  139.8818  135.0034  156.6187 LP  0  0  0  0  0  0  0  0  0  0  0  0  # atno 17395 bound_to 11000

$$$$
