AV-unprocessed.smi:2436|AV-procd|sdf|9593|dock7
  -GOLD-   2272013223D 1   1.00000     0.00000
 Structure written by MMmdl.
 36 37  0  0  0  0  0  0  0  0  1 V2000
  153.2790  142.6414  160.2728 C   0  0  0  0  0  0  0  0  0  0  0  0
  153.0858  143.2083  158.8578 C   0  0  0  0  0  0  0  0  0  0  0  0
  151.7931  144.0250  158.6723 C   0  0  0  0  0  0  0  0  0  0  0  0
  151.0516  143.5596  157.4960 N   0  0  0  0  0  0  0  0  0  0  0  0
  150.9526  142.2923  157.0634 C   0  0  0  0  0  0  0  0  0  0  0  0
  151.4861  141.3361  157.6269 O   0  0  0  0  0  0  0  0  0  0  0  0
  150.2038  142.2183  155.9492 N   0  0  0  0  0  0  0  0  0  0  0  0
  149.8684  141.0629  155.1949 C   0  0  0  0  0  0  0  0  0  0  0  0
  148.5847  141.0671  154.6042 C   0  0  0  0  0  0  0  0  0  0  0  0
  148.2110  139.9367  153.8488 C   0  0  0  0  0  0  0  0  0  0  0  0
  146.9652  139.9004  153.2578 O   0  0  0  0  0  0  0  0  0  0  0  0
  146.7165  138.9001  152.2764 C   0  0  0  0  0  0  0  0  0  0  0  0
  149.0523  138.8860  153.6932 N   0  0  0  0  0  0  0  0  0  0  0  0
  150.2423  138.9765  154.2880 C   0  0  0  0  0  0  0  0  0  0  0  0
  150.6891  139.9973  155.0220 N   0  0  0  0  0  0  0  0  0  0  0  0
  150.8682  144.2170  159.8943 C   0  0  0  0  0  0  0  0  0  0  0  0
  151.5619  145.5587  160.1423 C   0  0  0  0  0  0  0  0  0  0  0  0
  151.9007  145.5633  158.6493 C   0  0  0  0  0  0  0  0  0  0  0  0
  154.1868  142.0402  160.3243 H   0  0  0  0  0  0  0  0  0  0  0  0
  152.4449  142.0033  160.5639 H   0  0  0  0  0  0  0  0  0  0  0  0
  153.3710  143.4347  161.0149 H   0  0  0  0  0  0  0  0  0  0  0  0
  153.9550  143.8135  158.5988 H   0  0  0  0  0  0  0  0  0  0  0  0
  153.0994  142.3761  158.1535 H   0  0  0  0  0  0  0  0  0  0  0  0
  150.5753  144.2720  156.9625 H   0  0  0  0  0  0  0  0  0  0  0  0
  149.8291  143.0883  155.6011 H   0  0  0  0  0  0  0  0  0  0  0  0
  147.9083  141.9010  154.7239 H   0  0  0  0  0  0  0  0  0  0  0  0
  145.6934  138.9969  151.9135 H   0  0  0  0  0  0  0  0  0  0  0  0
  146.8260  137.8975  152.6923 H   0  0  0  0  0  0  0  0  0  0  0  0
  147.3832  139.0075  151.4196 H   0  0  0  0  0  0  0  0  0  0  0  0
  150.9118  138.1386  154.1631 H   0  0  0  0  0  0  0  0  0  0  0  0
  149.8133  144.3371  159.6391 H   0  0  0  0  0  0  0  0  0  0  0  0
  151.0038  143.4842  160.6904 H   0  0  0  0  0  0  0  0  0  0  0  0
  150.8998  146.3628  160.4644 H   0  0  0  0  0  0  0  0  0  0  0  0
  152.4426  145.4754  160.7811 H   0  0  0  0  0  0  0  0  0  0  0  0
  152.8901  145.9569  158.4155 H   0  0  0  0  0  0  0  0  0  0  0  0
  151.1283  146.0513  158.0513 H   0  0  0  0  0  0  0  0  0  0  0  0
  1  2  1  0  0  0  0
  1 19  1  0  0  0  0
  1 20  1  0  0  0  0
  1 21  1  0  0  0  0
  2  3  1  0  0  0  0
  2 22  1  0  0  0  0
  2 23  1  0  0  0  0
  3 18  1  0  0  0  0
  3  4  1  0  0  0  0
  3 16  1  0  0  0  0
  4  5  1  0  0  0  0
  4 24  1  0  0  0  0
  5  6  2  0  0  0  0
  5  7  1  0  0  0  0
  7  8  1  0  0  0  0
  7 25  1  0  0  0  0
  8 15  1  0  0  0  0
  8  9  2  0  0  0  0
  9 10  1  0  0  0  0
  9 26  1  0  0  0  0
 10 11  1  0  0  0  0
 10 13  2  0  0  0  0
 11 12  1  0  0  0  0
 12 27  1  0  0  0  0
 12 28  1  0  0  0  0
 12 29  1  0  0  0  0
 13 14  1  0  0  0  0
 14 15  2  0  0  0  0
 14 30  1  0  0  0  0
 16 17  1  0  0  0  0
 16 31  1  0  0  0  0
 16 32  1  0  0  0  0
 17 18  1  0  0  0  0
 17 33  1  0  0  0  0
 17 34  1  0  0  0  0
 18 35  1  0  0  0  0
 18 36  1  0  0  0  0
M  END
> <s_m_source_file>
AV-unprocessed.smi

> <i_m_source_file_index>
2436

> <i_lp_mmshare_version>
43012

> <i_f3d_flags>
0

> <s_epik_input>
W0NIMl0xW0NIMl1bQ0gyXUMxKFtDSDJdW0NIM10pW05IXUMoPU8pW05IXWMyW2NIXWMoT1tDSDNdKW5bY0hdbjI=

> <s_epik_cmdline>
J2VwaWtfcHl0aG9uJywgJy1waCcsICc3LjAnLCAnLXRuJywgJzgnLCAnLW1hJywgJzIwMCcsICctbWV0YWxfYmluZGluZycsICctaW1hZScsICc8aW5maWxlLm1hZT4nLCAnLW9tYWUnLCAnPG91dGZpbGUubWFlPic=

> <r_lp_tautomer_probability>
1

> <r_epik_Ionization_Penalty>
2.8431e-05

> <r_epik_Ionization_Penalty_Charging>
0

> <r_epik_Ionization_Penalty_Neutral>
2.8431e-05

> <r_epik_State_Penalty>
-0

> <r_epik_Charging_Adjusted_Penalty>
0

> <i_epik_Tot_Q>
0

> <i_epik_Tot_abs_Q>
0

> <r_epik_Metal_State_Penalty>
-0

> <b_epik_Metal_Only>
0

> <s_lp_Force_Field>
OPLS_2005

> <r_lp_Energy>
14.8333

> <b_lp_Chiralities_Consistent>
1

> <s_lp_Variant>
AV-unprocessed.smi:2436-1

> <Gold.Version>
5.8.1

> <Gold.Id.Protein>
6NUR|6NUR_protein|mol2

> <Gold.PLP.Fitness>
42.9422

> <Gold.PLP.PLP>
-40.6785

> <Gold.PLP.part.hbond>
-2.8337

> <Gold.PLP.part.metal>
0.0000

> <Gold.PLP.part.buried>
-3.5149

> <Gold.PLP.part.nonpolar>
-35.7024

> <Gold.PLP.part.repulsive>
2.3785

> <Gold.PLP.ligand.clash>
0.0000

> <Gold.PLP.ligand.torsion>
1.8185

> <Gold.PLP.Chemscore.Hbond>
1.8329

> <Gold.PLP.Chemscore.CHOScore>
0.0000

> <Gold.PLP.Chemscore.Metal>
0.0000

> <Gold.Chemscore.Hbonds>
donor molecule, donor type, donor heavy atom, donor atom, acceptor molecule, acceptor atom, score
      L1  H     4    24       P1  8028  0.66
      L1  H     7    25       P1  8028  1.00
      P1  H  7989  7998       L1    15  0.42

> <Gold.PLP.Chemscore.Internal.Correction>
0.4020

> <Gold.Rescore>
     Score         DG    S(hbond)    S(metal)    S(lipo)     H(rot)  DE(clash)    DE(int)     intcor
     12.90     -16.77       1.68        0.00      82.90       1.57       0.04       3.83       ----

> <Gold.Chemscore.Fitness>
12.9041

> <Gold.Chemscore.DG>
-16.7726

> <Gold.Chemscore.ZeroCoef>
-5.4800

> <Gold.Chemscore.Hbond>
1.6829

> <Gold.Chemscore.Metal>
0.0000

> <Gold.Chemscore.Lipo>
82.8978

> <Gold.Chemscore.Internal_Hbond>
0.0000

> <Gold.Chemscore.DEClash>
0.0421

> <Gold.Chemscore.DEInternal>
3.8264

> <Gold.Chemscore.Rot>
1.5732

> <Gold.Chemscore.Internal.Correction>
   9.000000E+99

> <Gold.Chemscore.Hbonds>
donor molecule, donor type, donor heavy atom, donor atom, acceptor molecule, acceptor atom, score
      L1  H     4    24       P1  8028  0.60
      L1  H     7    25       P1  8028  0.99

> <Gold.Chemscore.Hbond.Weighted>
-5.6209

> <Gold.Chemscore.Metal.Weighted>
-0.0000

> <Gold.Chemscore.Lipo.Weighted>
-9.6990

> <Gold.Chemscore.Internal_Hbond.Weighted>
0.0000

> <Gold.Chemscore.DEClash.Weighted>
0.0421

> <Gold.Chemscore.DEInternal.Weighted>
3.8264

> <Gold.Chemscore.Rot.Weighted>
4.0274

> <Gold.Chemscore.Internal.Correction.Weighted>
   9.000000E+99

> <Gold.Protein.RotatedTorsions>
[ 6907 6896 6895 6894 ] final  162.13 input  -60.11 | X-H torsion
[ 7974 7965 7964 7962 ] final  -97.55 input  175.53 | X-H torsion
[ 8008 7997 7996 7995 ] final   17.60 input   59.86 | X-H torsion
[ 10167 10162 10161 10158 ] final  120.46 input  -65.29 | X-H torsion
[ 10718 10713 10712 10709 ] final   36.80 input   66.30 | X-H torsion
[ 10763 10752 10751 10750 ] final  119.84 input  -60.55 | X-H torsion
[ 11005 11000 10999 10996 ] final  -50.38 input  -57.11 | X-H torsion

> <Gold.Protein.ActiveResidues>
 VAL166  LYS551  ARG553  GLY616  TRP617  ASP618  TYR619  PRO620  LYS621  CYS622 
 ASP623  PHE694  ASN695  SER759  ASP760  ASP761  ALA762  ILE779  LEU786  VAL792 
 PHE793  MET794  SER795  GLU796  ALA797  LYS798  CYS799  TRP800  GLU811  SER814 

> <Gold.Protein.RotatedAtoms>
  151.9452  133.3649  159.3979 H   0  0  0  0  0  0  0  0  0  0  0  0  # atno 6907 bound_to 6896
  150.6991  134.4398  159.5296 H   0  0  0  0  0  0  0  0  0  0  0  0  # atno 6908 bound_to 6896
  152.2062  134.8543  160.0553 H   0  0  0  0  0  0  0  0  0  0  0  0  # atno 6909 bound_to 6896
  145.3322  140.9444  143.2655 H   0  0  0  0  0  0  0  0  0  0  0  0  # atno 7974 bound_to 7965
  154.8937  140.2990  155.5356 H   0  0  0  0  0  0  0  0  0  0  0  0  # atno 8008 bound_to 7997
  156.3020  140.2420  156.3890 H   0  0  0  0  0  0  0  0  0  0  0  0  # atno 8009 bound_to 7997
  154.8592  140.0406  157.1643 H   0  0  0  0  0  0  0  0  0  0  0  0  # atno 8010 bound_to 7997
  139.5981  144.7048  151.3128 H   0  0  0  0  0  0  0  0  0  0  0  0  # atno 10167 bound_to 10162
  157.3393  130.7539  149.6901 H   0  0  0  0  0  0  0  0  0  0  0  0  # atno 10718 bound_to 10713
  153.5892  135.3469  155.2904 H   0  0  0  0  0  0  0  0  0  0  0  0  # atno 10763 bound_to 10752
  154.8655  135.4200  154.2535 H   0  0  0  0  0  0  0  0  0  0  0  0  # atno 10764 bound_to 10752
  153.3338  135.7046  153.6995 H   0  0  0  0  0  0  0  0  0  0  0  0  # atno 10765 bound_to 10752
  141.0813  133.6653  156.3723 H   0  0  0  0  0  0  0  0  0  0  0  0  # atno 11005 bound_to 11000
  144.8855  139.4845  143.6702 LP  0  0  0  0  0  0  0  0  0  0  0  0  # atno 17320 bound_to 7965
  146.3041  139.7521  142.9069 LP  0  0  0  0  0  0  0  0  0  0  0  0  # atno 17321 bound_to 7965
  140.7228  143.7089  150.7785 LP  0  0  0  0  0  0  0  0  0  0  0  0  # atno 17342 bound_to 10162
  140.0659  143.5108  152.2604 LP  0  0  0  0  0  0  0  0  0  0  0  0  # atno 17343 bound_to 10162
  155.9705  130.4172  150.4269 LP  0  0  0  0  0  0  0  0  0  0  0  0  # atno 17370 bound_to 10713
  157.2314  131.0505  151.2490 LP  0  0  0  0  0  0  0  0  0  0  0  0  # atno 17371 bound_to 10713
  140.5463  134.6072  157.5394 LP  0  0  0  0  0  0  0  0  0  0  0  0  # atno 17394 bound_to 11000
  139.9627  134.7425  156.0203 LP  0  0  0  0  0  0  0  0  0  0  0  0  # atno 17395 bound_to 11000

$$$$
