AV-unprocessed.smi:1760|AV-procd|sdf|7093|dock1
  -GOLD-   22720 8313D 1   1.00000     0.00000
 Structure written by MMmdl.
 43 45  0  0  0  0  0  0  0  0  3 V2000
  149.1584  141.5697  157.1557 O   0  0  0  0  0  0  0  0  0  0  0  0
  149.9919  140.8616  156.5914 C   0  0  0  0  0  0  0  0  0  0  0  0
  151.2482  140.6290  157.0131 N   0  0  0  0  0  0  0  0  0  0  0  0
  151.9074  141.0934  158.1647 C   0  0  0  0  0  0  0  0  0  0  0  0
  151.5990  142.2405  158.8313 C   0  0  0  0  0  0  0  0  0  0  0  0
  152.3192  142.6644  160.0259 C   0  0  0  0  0  0  0  0  0  0  0  0
  152.0306  143.9424  160.7920 C   0  0  0  0  0  0  0  0  0  0  0  0
  152.4243  145.0014  160.0856 F   0  0  0  0  0  0  0  0  0  0  0  0
  150.7221  144.0602  161.0154 F   0  0  0  0  0  0  0  0  0  0  0  0
  152.6616  143.9611  161.9662 F   0  0  0  0  0  0  0  0  0  0  0  0
  153.3096  141.7733  160.3871 C   0  0  0  0  0  0  0  0  0  0  0  0
  153.6690  140.6141  159.7936 N   0  5  0  0  0  0  0  0  0  0  0  0
  152.9946  140.2303  158.6729 C   0  0  0  0  0  0  0  0  0  0  0  0
  153.2711  139.1862  158.0809 O   0  0  0  0  0  0  0  0  0  0  0  0
  149.7565  140.2273  155.4331 N   0  0  0  0  0  0  0  0  0  0  0  0
  148.5161  140.2813  154.6637 C   0  0  2  0  0  0  0  0  0  0  0  0
  148.2816  141.7069  154.1371 C   0  0  0  0  0  0  0  0  0  0  0  0
  146.9244  141.8167  153.4161 C   0  0  0  0  0  0  0  0  0  0  0  0
  145.7963  141.3725  154.2750 N   0  3  2  0  0  0  0  0  0  0  0  0
  145.4416  142.3501  155.3306 C   0  0  0  0  0  0  0  0  0  0  0  0
  144.0030  142.8086  155.2729 C   0  0  0  0  0  0  0  0  0  0  0  0
  145.1088  143.7240  154.7971 C   0  0  0  0  0  0  0  0  0  0  0  0
  145.9970  139.9945  154.7928 C   0  0  0  0  0  0  0  0  0  0  0  0
  147.3332  139.8469  155.5447 C   0  0  0  0  0  0  0  0  0  0  0  0
  151.8305  140.0737  156.4033 H   0  0  0  0  0  0  0  0  0  0  0  0
  150.7916  142.8716  158.5000 H   0  0  0  0  0  0  0  0  0  0  0  0
  153.9034  142.0351  161.2889 H   0  0  0  0  0  0  0  0  0  0  0  0
  150.5051  139.6710  155.0463 H   0  0  0  0  0  0  0  0  0  0  0  0
  148.5667  139.6055  153.8081 H   0  0  0  0  0  0  0  0  0  0  0  0
  148.3218  142.4213  154.9604 H   0  0  0  0  0  0  0  0  0  0  0  0
  149.0835  141.9861  153.4525 H   0  0  0  0  0  0  0  0  0  0  0  0
  146.7548  142.8391  153.0767 H   0  0  0  0  0  0  0  0  0  0  0  0
  146.9384  141.1945  152.5201 H   0  0  0  0  0  0  0  0  0  0  0  0
  145.9434  142.2423  156.2901 H   0  0  0  0  0  0  0  0  0  0  0  0
  143.3519  142.3733  154.5168 H   0  0  0  0  0  0  0  0  0  0  0  0
  143.5186  143.0600  156.2143 H   0  0  0  0  0  0  0  0  0  0  0  0
  145.3522  144.5787  155.4249 H   0  0  0  0  0  0  0  0  0  0  0  0
  145.1914  143.8961  153.7253 H   0  0  0  0  0  0  0  0  0  0  0  0
  145.1637  139.7127  155.4373 H   0  0  0  0  0  0  0  0  0  0  0  0
  145.9782  139.3045  153.9481 H   0  0  0  0  0  0  0  0  0  0  0  0
  147.4644  138.8104  155.8579 H   0  0  0  0  0  0  0  0  0  0  0  0
  147.3100  140.4405  156.4597 H   0  0  0  0  0  0  0  0  0  0  0  0
  144.9866  141.3292  153.6724 H   0  0  0  0  0  0  0  0  0  0  0  0
  1  2  2  0  0  0  0
  2  3  1  0  0  0  0
  2 15  1  0  0  0  0
  3  4  1  0  0  0  0
  3 25  1  0  0  0  0
  4 13  1  0  0  0  0
  4  5  2  0  0  0  0
  5  6  1  0  0  0  0
  5 26  1  0  0  0  0
  6  7  1  0  0  0  0
  6 11  2  0  0  0  0
  7  8  1  0  0  0  0
  7  9  1  0  0  0  0
  7 10  1  0  0  0  0
 11 12  1  0  0  0  0
 11 27  1  0  0  0  0
 12 13  1  0  0  0  0
 13 14  2  0  0  0  0
 15 16  1  0  0  0  0
 15 28  1  0  0  0  0
 16 24  1  0  0  0  0
 16 17  1  0  0  0  0
 16 29  1  0  0  0  0
 17 18  1  0  0  0  0
 17 30  1  0  0  0  0
 17 31  1  0  0  0  0
 18 19  1  0  0  0  0
 18 32  1  0  0  0  0
 18 33  1  0  0  0  0
 19 20  1  0  0  0  0
 19 23  1  0  0  0  0
 19 43  1  0  0  0  0
 20 22  1  0  0  0  0
 20 21  1  0  0  0  0
 20 34  1  0  0  0  0
 21 22  1  0  0  0  0
 21 35  1  0  0  0  0
 21 36  1  0  0  0  0
 22 37  1  0  0  0  0
 22 38  1  0  0  0  0
 23 24  1  0  0  0  0
 23 39  1  0  0  0  0
 23 40  1  0  0  0  0
 24 41  1  0  0  0  0
 24 42  1  0  0  0  0
M  CHG  1  12  -1
M  CHG  1  19   1
M  END
> <s_m_source_file>
AV-unprocessed.smi

> <i_m_source_file_index>
1760

> <i_lp_mmshare_version>
43012

> <i_f3d_flags>
0

> <s_epik_input>
W0NIMl0xW0NIMl1bQ0hdMU4oW0NIMl1bQ0gyXTIpW0NIMl1bQ0gyXVtDSF0yW05IXUMoPU8pW05IXWMzW2NIXWMoQyhGKShGKUYpW2NIXVtuSF1jMz1P

> <s_epik_cmdline>
J2VwaWtfcHl0aG9uJywgJy1waCcsICc3LjAnLCAnLXRuJywgJzgnLCAnLW1hJywgJzIwMCcsICctbWV0YWxfYmluZGluZycsICctaW1hZScsICc8aW5maWxlLm1hZT4nLCAnLW9tYWUnLCAnPG91dGZpbGUubWFlPic=

> <r_lp_tautomer_probability>
0.999

> <r_epik_Ionization_Penalty>
3.16043

> <r_epik_Ionization_Penalty_Charging>
0.268029

> <r_epik_Ionization_Penalty_Neutral>
2.8924

> <r_epik_State_Penalty>
3.0039

> <r_epik_Charging_Adjusted_Penalty>
3.27193

> <i_epik_Tot_Q>
0

> <i_epik_Tot_abs_Q>
2

> <r_epik_Metal_State_Penalty>
0.560618

> <b_epik_Metal_Only>
1

> <s_lp_Force_Field>
OPLS_2005

> <r_lp_Energy>
41.7611

> <b_lp_Chiralities_Consistent>
1

> <s_lp_Variant>
AV-unprocessed.smi:1760-5

> <Gold.Version>
5.8.1

> <Gold.Id.Protein>
6NUR|6NUR_protein|mol2

> <Gold.PLP.Fitness>
47.1266

> <Gold.PLP.PLP>
-39.3243

> <Gold.PLP.part.hbond>
-2.0000

> <Gold.PLP.part.metal>
0.0000

> <Gold.PLP.part.buried>
-4.2985

> <Gold.PLP.part.nonpolar>
-32.4614

> <Gold.PLP.part.repulsive>
0.2826

> <Gold.PLP.ligand.clash>
0.0000

> <Gold.PLP.ligand.torsion>
1.2668

> <Gold.PLP.Chemscore.Hbond>
3.0000

> <Gold.PLP.Chemscore.CHOScore>
0.0000

> <Gold.PLP.Chemscore.Metal>
0.0000

> <Gold.Chemscore.Hbonds>
donor molecule, donor type, donor heavy atom, donor atom, acceptor molecule, acceptor atom, score
      L1  H    19    43       P1 10175  2.00
      P1  H  7997  8009       L1    14  0.65

> <Gold.PLP.Chemscore.Internal.Correction>
1.3359

> <Gold.Rescore>
     Score         DG    S(hbond)    S(metal)    S(lipo)     H(rot)  DE(clash)    DE(int)     intcor
     13.98     -17.85       1.86        0.00      80.61       1.28       0.70       3.18       ----

> <Gold.Chemscore.Fitness>
13.9750

> <Gold.Chemscore.DG>
-17.8478

> <Gold.Chemscore.ZeroCoef>
-5.4800

> <Gold.Chemscore.Hbond>
1.8594

> <Gold.Chemscore.Metal>
0.0000

> <Gold.Chemscore.Lipo>
80.6072

> <Gold.Chemscore.Internal_Hbond>
0.0000

> <Gold.Chemscore.DEClash>
0.6971

> <Gold.Chemscore.DEInternal>
3.1756

> <Gold.Chemscore.Rot>
1.2787

> <Gold.Chemscore.Internal.Correction>
   9.000000E+99

> <Gold.Chemscore.Hbonds>
donor molecule, donor type, donor heavy atom, donor atom, acceptor molecule, acceptor atom, score
      L1  H    19    43       P1 10175  0.29
      P1  H  7997  8009       L1    14  0.06

> <Gold.Chemscore.Hbond.Weighted>
-6.2103

> <Gold.Chemscore.Metal.Weighted>
-0.0000

> <Gold.Chemscore.Lipo.Weighted>
-9.4310

> <Gold.Chemscore.Internal_Hbond.Weighted>
0.0000

> <Gold.Chemscore.DEClash.Weighted>
0.6971

> <Gold.Chemscore.DEInternal.Weighted>
3.1756

> <Gold.Chemscore.Rot.Weighted>
3.2735

> <Gold.Chemscore.Internal.Correction.Weighted>
   9.000000E+99

> <Gold.Protein.RotatedTorsions>
[ 6907 6896 6895 6894 ] final  -51.71 input  -60.11 | X-H torsion
[ 7974 7965 7964 7962 ] final  -78.03 input  175.53 | X-H torsion
[ 8008 7997 7996 7995 ] final  157.78 input   59.86 | X-H torsion
[ 10167 10162 10161 10158 ] final  -13.04 input  -65.29 | X-H torsion
[ 10718 10713 10712 10709 ] final -102.75 input   66.30 | X-H torsion
[ 10763 10752 10751 10750 ] final  101.65 input  -60.55 | X-H torsion
[ 11005 11000 10999 10996 ] final  -25.66 input  -57.11 | X-H torsion

> <Gold.Protein.ActiveResidues>
 VAL166  LYS551  ARG553  GLY616  TRP617  ASP618  TYR619  PRO620  LYS621  CYS622 
 ASP623  PHE694  ASN695  SER759  ASP760  ASP761  ALA762  ILE779  LEU786  VAL792 
 PHE793  MET794  SER795  GLU796  ALA797  LYS798  CYS799  TRP800  GLU811  SER814 

> <Gold.Protein.RotatedAtoms>
  150.8585  134.7931  159.7064 H   0  0  0  0  0  0  0  0  0  0  0  0  # atno 6907 bound_to 6896
  152.4630  134.5138  159.9772 H   0  0  0  0  0  0  0  0  0  0  0  0  # atno 6908 bound_to 6896
  151.5246  133.3422  159.2943 H   0  0  0  0  0  0  0  0  0  0  0  0  # atno 6909 bound_to 6896
  145.5919  140.9427  143.1288 H   0  0  0  0  0  0  0  0  0  0  0  0  # atno 7974 bound_to 7965
  156.2343  140.1876  156.7161 H   0  0  0  0  0  0  0  0  0  0  0  0  # atno 8008 bound_to 7997
  154.6078  140.0626  156.9481 H   0  0  0  0  0  0  0  0  0  0  0  0  # atno 8009 bound_to 7997
  155.2066  140.3296  155.4337 H   0  0  0  0  0  0  0  0  0  0  0  0  # atno 8010 bound_to 7997
  140.7174  143.5468  150.9346 H   0  0  0  0  0  0  0  0  0  0  0  0  # atno 10167 bound_to 10162
  156.0240  130.5434  150.7153 H   0  0  0  0  0  0  0  0  0  0  0  0  # atno 10718 bound_to 10713
  153.3294  135.4037  155.1482 H   0  0  0  0  0  0  0  0  0  0  0  0  # atno 10763 bound_to 10752
  154.8619  135.3607  154.5491 H   0  0  0  0  0  0  0  0  0  0  0  0  # atno 10764 bound_to 10752
  153.5929  135.7073  153.5475 H   0  0  0  0  0  0  0  0  0  0  0  0  # atno 10765 bound_to 10752
  140.8958  133.7558  156.0479 H   0  0  0  0  0  0  0  0  0  0  0  0  # atno 11005 bound_to 11000
  144.7348  139.7619  143.7333 LP  0  0  0  0  0  0  0  0  0  0  0  0  # atno 17320 bound_to 7965
  146.1641  139.4765  142.9970 LP  0  0  0  0  0  0  0  0  0  0  0  0  # atno 17321 bound_to 7965
  139.9192  143.6627  152.3100 LP  0  0  0  0  0  0  0  0  0  0  0  0  # atno 17342 bound_to 10162
  139.7037  144.7631  151.1229 LP  0  0  0  0  0  0  0  0  0  0  0  0  # atno 17343 bound_to 10162
  157.4781  131.0900  151.0567 LP  0  0  0  0  0  0  0  0  0  0  0  0  # atno 17370 bound_to 10713
  157.1008  130.5981  149.5460 LP  0  0  0  0  0  0  0  0  0  0  0  0  # atno 17371 bound_to 10713
  140.8291  134.3199  157.5355 LP  0  0  0  0  0  0  0  0  0  0  0  0  # atno 17394 bound_to 11000
  139.8735  134.9353  156.3630 LP  0  0  0  0  0  0  0  0  0  0  0  0  # atno 17395 bound_to 11000

$$$$
