AV-unprocessed.smi:1687|AV-procd|sdf|6768|dock9
  -GOLD-   22720 7533D 1   1.00000     0.00000
 Structure written by MMmdl.
 45 46  0  0  0  0  0  0  0  0  2 V2000
  145.5987  143.5027  156.8089 C   0  0  0  0  0  0  0  0  0  0  0  0
  144.7924  143.1810  155.5385 C   0  0  2  0  0  0  0  0  0  0  0  0
  143.9720  141.8841  155.6693 C   0  0  0  0  0  0  0  0  0  0  0  0
  144.8548  140.6253  155.5924 C   0  0  0  0  0  0  0  0  0  0  0  0
  145.6576  140.6161  154.3412 N   0  3  2  0  0  0  0  0  0  0  0  0
  146.3425  139.3152  154.0831 C   0  0  2  0  0  0  0  0  0  0  0  0
  147.4713  139.0228  155.0964 C   0  0  0  0  0  0  0  0  0  0  0  0
  146.7985  139.2308  152.6080 C   0  0  0  0  0  0  0  0  0  0  0  0
  146.9545  137.8539  152.1460 N   0  0  0  0  0  0  0  0  0  0  0  0
  145.9672  136.9510  152.0464 C   0  0  0  0  0  0  0  0  0  0  0  0
  144.7938  137.1968  152.3277 O   0  0  0  0  0  0  0  0  0  0  0  0
  146.4303  135.7709  151.5980 N   0  0  0  0  0  0  0  0  0  0  0  0
  145.7011  134.5758  151.3584 C   0  0  0  0  0  0  0  0  0  0  0  0
  146.4917  133.4398  151.0728 C   0  0  0  0  0  0  0  0  0  0  0  0
  145.8640  132.2041  150.8230 C   0  0  0  0  0  0  0  0  0  0  0  0
  144.4600  132.1364  150.8650 C   0  0  0  0  0  0  0  0  0  0  0  0
  143.7477  133.3144  151.1556 C   0  0  0  0  0  0  0  0  0  0  0  0
  144.3472  134.4999  151.3951 N   0  0  0  0  0  0  0  0  0  0  0  0
  146.5204  141.8246  154.2309 C   0  0  0  0  0  0  0  0  0  0  0  0
  145.6727  143.1087  154.2763 C   0  0  0  0  0  0  0  0  0  0  0  0
  146.3332  142.7310  157.0376 H   0  0  0  0  0  0  0  0  0  0  0  0
  144.9418  143.5976  157.6739 H   0  0  0  0  0  0  0  0  0  0  0  0
  146.1349  144.4463  156.7026 H   0  0  0  0  0  0  0  0  0  0  0  0
  144.0892  144.0039  155.4030 H   0  0  0  0  0  0  0  0  0  0  0  0
  143.4036  141.8882  156.6000 H   0  0  0  0  0  0  0  0  0  0  0  0
  143.2345  141.8473  154.8662 H   0  0  0  0  0  0  0  0  0  0  0  0
  145.5127  140.5678  156.4598 H   0  0  0  0  0  0  0  0  0  0  0  0
  144.2125  139.7448  155.6280 H   0  0  0  0  0  0  0  0  0  0  0  0
  145.5939  138.5312  154.2077 H   0  0  0  0  0  0  0  0  0  0  0  0
  147.8273  137.9966  155.0051 H   0  0  0  0  0  0  0  0  0  0  0  0
  147.1328  139.1458  156.1247 H   0  0  0  0  0  0  0  0  0  0  0  0
  148.3307  139.6767  154.9445 H   0  0  0  0  0  0  0  0  0  0  0  0
  146.0527  139.7052  151.9692 H   0  0  0  0  0  0  0  0  0  0  0  0
  147.7234  139.7862  152.4497 H   0  0  0  0  0  0  0  0  0  0  0  0
  147.8876  137.5637  151.8922 H   0  0  0  0  0  0  0  0  0  0  0  0
  147.4195  135.7202  151.4048 H   0  0  0  0  0  0  0  0  0  0  0  0
  147.5696  133.5091  151.0452 H   0  0  0  0  0  0  0  0  0  0  0  0
  146.4504  131.3240  150.6039 H   0  0  0  0  0  0  0  0  0  0  0  0
  143.9428  131.2066  150.6797 H   0  0  0  0  0  0  0  0  0  0  0  0
  142.6686  133.3053  151.1975 H   0  0  0  0  0  0  0  0  0  0  0  0
  147.2550  141.8387  155.0365 H   0  0  0  0  0  0  0  0  0  0  0  0
  147.0812  141.8067  153.2970 H   0  0  0  0  0  0  0  0  0  0  0  0
  145.0341  143.1421  153.3923 H   0  0  0  0  0  0  0  0  0  0  0  0
  146.3178  143.9861  154.2150 H   0  0  0  0  0  0  0  0  0  0  0  0
  144.9776  140.6990  153.5991 H   0  0  0  0  0  0  0  0  0  0  0  0
  1  2  1  0  0  0  0
  1 21  1  0  0  0  0
  1 22  1  0  0  0  0
  1 23  1  0  0  0  0
  2 20  1  0  0  0  0
  2  3  1  0  0  0  0
  2 24  1  0  0  0  0
  3  4  1  0  0  0  0
  3 25  1  0  0  0  0
  3 26  1  0  0  0  0
  4  5  1  0  0  0  0
  4 27  1  0  0  0  0
  4 28  1  0  0  0  0
  5  6  1  0  0  0  0
  5 19  1  0  0  0  0
  5 45  1  0  0  0  0
  6  7  1  0  0  0  0
  6  8  1  0  0  0  0
  6 29  1  0  0  0  0
  7 30  1  0  0  0  0
  7 31  1  0  0  0  0
  7 32  1  0  0  0  0
  8  9  1  0  0  0  0
  8 33  1  0  0  0  0
  8 34  1  0  0  0  0
  9 10  1  0  0  0  0
  9 35  1  0  0  0  0
 10 11  2  0  0  0  0
 10 12  1  0  0  0  0
 12 13  1  0  0  0  0
 12 36  1  0  0  0  0
 13 18  1  0  0  0  0
 13 14  2  0  0  0  0
 14 15  1  0  0  0  0
 14 37  1  0  0  0  0
 15 16  2  0  0  0  0
 15 38  1  0  0  0  0
 16 17  1  0  0  0  0
 16 39  1  0  0  0  0
 17 18  2  0  0  0  0
 17 40  1  0  0  0  0
 19 20  1  0  0  0  0
 19 41  1  0  0  0  0
 19 42  1  0  0  0  0
 20 43  1  0  0  0  0
 20 44  1  0  0  0  0
M  CHG  1   5   1
M  END
> <s_m_source_file>
AV-unprocessed.smi

> <i_m_source_file_index>
1687

> <i_lp_mmshare_version>
43012

> <i_f3d_flags>
0

> <s_epik_input>
W0NIM11bQ0hdMVtDSDJdW0NIMl1OKFtDSDJdW0NIMl0xKVtDQEhdKFtDSDNdKVtDSDJdW05IXUMoPU8pW05IXWMyW2NIXVtjSF1bY0hdW2NIXW4y

> <s_epik_cmdline>
J2VwaWtfcHl0aG9uJywgJy1waCcsICc3LjAnLCAnLXRuJywgJzgnLCAnLW1hJywgJzIwMCcsICctbWV0YWxfYmluZGluZycsICctaW1hZScsICc8aW5maWxlLm1hZT4nLCAnLW9tYWUnLCAnPG91dGZpbGUubWFlPic=

> <r_epik_Ionization_Penalty>
0.00142891

> <r_epik_Ionization_Penalty_Charging>
0.00139388

> <r_epik_Ionization_Penalty_Neutral>
3.50347e-05

> <r_epik_State_Penalty>
0.000929204

> <r_epik_Charging_Adjusted_Penalty>
0.00232308

> <i_epik_Tot_Q>
1

> <i_epik_Tot_abs_Q>
1

> <r_epik_Metal_State_Penalty>
-0

> <b_epik_Metal_Only>
0

> <s_lp_Force_Field>
OPLS_2005

> <r_lp_Energy>
23.5172

> <b_lp_Chiralities_Consistent>
1

> <s_lp_Variant>
AV-unprocessed.smi:1687-3

> <Gold.Version>
5.8.1

> <Gold.Id.Protein>
6NUR|6NUR_protein|mol2

> <Gold.PLP.Fitness>
46.0056

> <Gold.PLP.PLP>
-31.9292

> <Gold.PLP.part.hbond>
-3.0000

> <Gold.PLP.part.metal>
0.0000

> <Gold.PLP.part.buried>
-5.7644

> <Gold.PLP.part.nonpolar>
-25.1911

> <Gold.PLP.part.repulsive>
1.3798

> <Gold.PLP.ligand.clash>
0.0000

> <Gold.PLP.ligand.torsion>
0.3082

> <Gold.PLP.Chemscore.Hbond>
3.8560

> <Gold.PLP.Chemscore.CHOScore>
1.0000

> <Gold.PLP.Chemscore.Metal>
0.0000

> <Gold.Chemscore.Hbonds>
donor molecule, donor type, donor heavy atom, donor atom, acceptor molecule, acceptor atom, score
      L1  H     5    45       P1 10175  2.00
      L1  H     9    35       P1  7948  0.90
      L1  H    12    36       P1  7948  0.96
      L1  C    17    40       P1 10186  0.84

> <Gold.PLP.Chemscore.Internal.Correction>
0.1247

> <Gold.Rescore>
     Score         DG    S(hbond)    S(metal)    S(lipo)     H(rot)  DE(clash)    DE(int)     intcor
     16.85     -18.45       2.89        0.00      61.18       1.50       0.02       1.58       ----

> <Gold.Chemscore.Fitness>
16.8528

> <Gold.Chemscore.DG>
-18.4519

> <Gold.Chemscore.ZeroCoef>
-5.4800

> <Gold.Chemscore.Hbond>
2.8871

> <Gold.Chemscore.Metal>
0.0000

> <Gold.Chemscore.Lipo>
61.1770

> <Gold.Chemscore.Internal_Hbond>
0.0000

> <Gold.Chemscore.DEClash>
0.0174

> <Gold.Chemscore.DEInternal>
1.5816

> <Gold.Chemscore.Rot>
1.4956

> <Gold.Chemscore.Internal.Correction>
   9.000000E+99

> <Gold.Chemscore.Hbonds>
donor molecule, donor type, donor heavy atom, donor atom, acceptor molecule, acceptor atom, score
      L1  H     5    45       P1 10175  0.96
      L1  H     9    35       P1  7948  0.88
      L1  H    12    36       P1  7948  0.89

> <Gold.Chemscore.Hbond.Weighted>
-9.6430

> <Gold.Chemscore.Metal.Weighted>
-0.0000

> <Gold.Chemscore.Lipo.Weighted>
-7.1577

> <Gold.Chemscore.Internal_Hbond.Weighted>
0.0000

> <Gold.Chemscore.DEClash.Weighted>
0.0174

> <Gold.Chemscore.DEInternal.Weighted>
1.5816

> <Gold.Chemscore.Rot.Weighted>
3.8289

> <Gold.Chemscore.Internal.Correction.Weighted>
   9.000000E+99

> <Gold.Protein.RotatedTorsions>
[ 6907 6896 6895 6894 ] final   37.59 input  -60.11 | X-H torsion
[ 7974 7965 7964 7962 ] final  172.74 input  175.53 | X-H torsion
[ 8008 7997 7996 7995 ] final   49.29 input   59.86 | X-H torsion
[ 10167 10162 10161 10158 ] final -101.87 input  -65.29 | X-H torsion
[ 10718 10713 10712 10709 ] final   74.79 input   66.30 | X-H torsion
[ 10763 10752 10751 10750 ] final  124.73 input  -60.55 | X-H torsion
[ 11005 11000 10999 10996 ] final  121.46 input  -57.11 | X-H torsion

> <Gold.Protein.ActiveResidues>
 VAL166  LYS551  ARG553  GLY616  TRP617  ASP618  TYR619  PRO620  LYS621  CYS622 
 ASP623  PHE694  ASN695  SER759  ASP760  ASP761  ALA762  ILE779  LEU786  VAL792 
 PHE793  MET794  SER795  GLU796  ALA797  LYS798  CYS799  TRP800  GLU811  SER814 

> <Gold.Protein.RotatedAtoms>
  152.1452  134.9031  160.0551 H   0  0  0  0  0  0  0  0  0  0  0  0  # atno 6907 bound_to 6896
  152.0084  133.3847  159.4218 H   0  0  0  0  0  0  0  0  0  0  0  0  # atno 6908 bound_to 6896
  150.6869  134.3679  159.5023 H   0  0  0  0  0  0  0  0  0  0  0  0  # atno 6909 bound_to 6896
  144.7260  139.9543  143.6433 H   0  0  0  0  0  0  0  0  0  0  0  0  # atno 7974 bound_to 7965
  155.3998  140.3437  155.4256 H   0  0  0  0  0  0  0  0  0  0  0  0  # atno 8008 bound_to 7997
  156.1510  140.1571  156.8802 H   0  0  0  0  0  0  0  0  0  0  0  0  # atno 8009 bound_to 7997
  154.5052  140.0804  156.7862 H   0  0  0  0  0  0  0  0  0  0  0  0  # atno 8010 bound_to 7997
  140.2367  143.3568  152.0838 H   0  0  0  0  0  0  0  0  0  0  0  0  # atno 10167 bound_to 10162
  157.6607  130.9695  150.1260 H   0  0  0  0  0  0  0  0  0  0  0  0  # atno 10718 bound_to 10713
  153.6660  135.3338  155.3140 H   0  0  0  0  0  0  0  0  0  0  0  0  # atno 10763 bound_to 10752
  154.8503  135.4375  154.1755 H   0  0  0  0  0  0  0  0  0  0  0  0  # atno 10764 bound_to 10752
  153.2734  135.7002  153.7534 H   0  0  0  0  0  0  0  0  0  0  0  0  # atno 10765 bound_to 10752
  139.9227  134.9639  156.7962 H   0  0  0  0  0  0  0  0  0  0  0  0  # atno 11005 bound_to 11000
  146.0687  139.3677  143.0536 LP  0  0  0  0  0  0  0  0  0  0  0  0  # atno 17320 bound_to 7965
  145.7997  140.9776  143.1005 LP  0  0  0  0  0  0  0  0  0  0  0  0  # atno 17321 bound_to 7965
  139.5091  144.6861  151.5882 LP  0  0  0  0  0  0  0  0  0  0  0  0  # atno 17342 bound_to 10162
  140.6144  143.9376  150.6477 LP  0  0  0  0  0  0  0  0  0  0  0  0  # atno 17343 bound_to 10162
  156.2119  130.3667  149.8660 LP  0  0  0  0  0  0  0  0  0  0  0  0  # atno 17370 bound_to 10713
  156.6536  130.8753  151.3535 LP  0  0  0  0  0  0  0  0  0  0  0  0  # atno 17371 bound_to 10713
  140.6427  133.9804  155.7715 LP  0  0  0  0  0  0  0  0  0  0  0  0  # atno 17394 bound_to 11000
  141.0761  134.0133  157.3456 LP  0  0  0  0  0  0  0  0  0  0  0  0  # atno 17395 bound_to 11000

$$$$
