AV-unprocessed.smi:1550|AV-procd|sdf|6226|dock1
  -GOLD-   22720 6403D 1   1.00000     0.00000
 Structure written by MMmdl.
 43 44  0  0  0  0  0  0  0  0  1 V2000
  150.4301  137.6874  156.5747 C   0  0  0  0  0  0  0  0  0  0  0  0
  149.5221  137.9238  157.7905 C   0  0  2  0  0  0  0  0  0  0  0  0
  150.1309  138.9343  158.5899 O   0  0  0  0  0  0  0  0  0  0  0  0
  150.5431  140.1043  157.8919 C   0  0  0  0  0  0  0  0  0  0  0  0
  151.0909  141.1143  158.9081 C   0  0  1  0  0  0  0  0  0  0  0  0
  152.4385  140.6594  159.5021 C   0  0  0  0  0  0  0  0  0  0  0  0
  153.0035  141.7315  160.4411 C   0  0  0  0  0  0  0  0  0  0  0  0
  153.0637  143.0775  159.7111 C   0  0  0  0  0  0  0  0  0  0  0  0
  151.6965  143.4118  159.0941 C   0  0  0  0  0  0  0  0  0  0  0  0
  151.2836  142.3556  158.2326 O   0  0  0  0  0  0  0  0  0  0  0  0
  149.3400  136.6356  158.6097 C   0  0  0  0  0  0  0  0  0  0  0  0
  150.0255  135.6475  158.3466 O   0  0  0  0  0  0  0  0  0  0  0  0
  148.4103  136.6947  159.5833 N   0  0  0  0  0  0  0  0  0  0  0  0
  148.0603  135.7205  160.5322 C   0  0  0  0  0  0  0  0  0  0  0  0
  148.1259  134.3798  160.3217 C   0  0  0  0  0  0  0  0  0  0  0  0
  147.7650  133.4192  161.3507 C   0  0  0  0  0  0  0  0  0  0  0  0
  147.9012  131.9215  161.1234 C   0  0  0  0  0  0  0  0  0  0  0  0
  148.2765  131.6531  159.8719 F   0  0  0  0  0  0  0  0  0  0  0  0
  148.8185  131.4191  161.9487 F   0  0  0  0  0  0  0  0  0  0  0  0
  146.7470  131.2967  161.3571 F   0  0  0  0  0  0  0  0  0  0  0  0
  147.3886  133.9263  162.5392 C   0  0  0  0  0  0  0  0  0  0  0  0
  147.3184  135.3032  162.7634 N   0  0  0  0  0  0  0  0  0  0  0  0
  147.6344  136.2404  161.8419 C   0  0  0  0  0  0  0  0  0  0  0  0
  147.5577  137.4367  162.1198 O   0  0  0  0  0  0  0  0  0  0  0  0
  147.0187  135.6039  163.6797 H   0  0  0  0  0  0  0  0  0  0  0  0
  150.0268  136.9113  155.9233 H   0  0  0  0  0  0  0  0  0  0  0  0
  151.4339  137.3851  156.8758 H   0  0  0  0  0  0  0  0  0  0  0  0
  150.5258  138.5974  155.9819 H   0  0  0  0  0  0  0  0  0  0  0  0
  148.5541  138.2806  157.4325 H   0  0  0  0  0  0  0  0  0  0  0  0
  151.3244  139.8334  157.1802 H   0  0  0  0  0  0  0  0  0  0  0  0
  149.7264  140.5533  157.3255 H   0  0  0  0  0  0  0  0  0  0  0  0
  150.3631  141.2400  159.7119 H   0  0  0  0  0  0  0  0  0  0  0  0
  152.3178  139.7194  160.0412 H   0  0  0  0  0  0  0  0  0  0  0  0
  153.1497  140.4693  158.6969 H   0  0  0  0  0  0  0  0  0  0  0  0
  152.3681  141.8197  161.3234 H   0  0  0  0  0  0  0  0  0  0  0  0
  153.9944  141.4454  160.7942 H   0  0  0  0  0  0  0  0  0  0  0  0
  153.3730  143.8666  160.3968 H   0  0  0  0  0  0  0  0  0  0  0  0
  153.8164  143.0335  158.9231 H   0  0  0  0  0  0  0  0  0  0  0  0
  150.9472  143.5770  159.8697 H   0  0  0  0  0  0  0  0  0  0  0  0
  151.7623  144.3324  158.5144 H   0  0  0  0  0  0  0  0  0  0  0  0
  147.8613  137.5413  159.6264 H   0  0  0  0  0  0  0  0  0  0  0  0
  148.4696  133.9850  159.3792 H   0  0  0  0  0  0  0  0  0  0  0  0
  147.1231  133.3292  163.3990 H   0  0  0  0  0  0  0  0  0  0  0  0
  1  2  1  0  0  0  0
  1 26  1  0  0  0  0
  1 27  1  0  0  0  0
  1 28  1  0  0  0  0
  2  3  1  0  0  0  0
  2 11  1  0  0  0  0
  2 29  1  0  0  0  0
  3  4  1  0  0  0  0
  4  5  1  0  0  0  0
  4 30  1  0  0  0  0
  4 31  1  0  0  0  0
  5 10  1  0  0  0  0
  5  6  1  0  0  0  0
  5 32  1  0  0  0  0
  6  7  1  0  0  0  0
  6 33  1  0  0  0  0
  6 34  1  0  0  0  0
  7  8  1  0  0  0  0
  7 35  1  0  0  0  0
  7 36  1  0  0  0  0
  8  9  1  0  0  0  0
  8 37  1  0  0  0  0
  8 38  1  0  0  0  0
  9 10  1  0  0  0  0
  9 39  1  0  0  0  0
  9 40  1  0  0  0  0
 11 12  2  0  0  0  0
 11 13  1  0  0  0  0
 13 14  1  0  0  0  0
 13 41  1  0  0  0  0
 14 23  1  0  0  0  0
 14 15  2  0  0  0  0
 15 16  1  0  0  0  0
 15 42  1  0  0  0  0
 16 17  1  0  0  0  0
 16 21  2  0  0  0  0
 17 18  1  0  0  0  0
 17 19  1  0  0  0  0
 17 20  1  0  0  0  0
 21 22  1  0  0  0  0
 21 43  1  0  0  0  0
 22 25  1  0  0  0  0
 22 23  1  0  0  0  0
 23 24  2  0  0  0  0
M  END
> <s_m_source_file>
AV-unprocessed.smi

> <i_m_source_file_index>
1550

> <i_lp_mmshare_version>
43012

> <i_f3d_flags>
0

> <s_epik_input>
TzFbQ0gyXVtDSDJdW0NIMl1bQ0gyXVtDQEhdMVtDSDJdT1tDQEBIXShbQ0gzXSlDKD1PKVtOSF1jMltjSF1jKEMoRikoRilGKVtjSF1bbkhdYzI9Tw==

> <s_epik_cmdline>
J2VwaWtfcHl0aG9uJywgJy1waCcsICc3LjAnLCAnLXRuJywgJzgnLCAnLW1hJywgJzIwMCcsICctbWV0YWxfYmluZGluZycsICctaW1hZScsICc8aW5maWxlLm1hZT4nLCAnLW9tYWUnLCAnPG91dGZpbGUubWFlPic=

> <r_lp_tautomer_probability>
0.999

> <r_epik_Ionization_Penalty>
0.00891333

> <r_epik_Ionization_Penalty_Charging>
0.00891323

> <r_epik_Ionization_Penalty_Neutral>
1.00146e-07

> <r_epik_State_Penalty>
0.00674197

> <r_epik_Charging_Adjusted_Penalty>
0.0156552

> <i_epik_Tot_Q>
0

> <i_epik_Tot_abs_Q>
0

> <r_epik_Metal_State_Penalty>
0.321024

> <b_epik_Metal_Only>
0

> <s_lp_Force_Field>
OPLS_2005

> <r_lp_Energy>
25.8894

> <b_lp_Chiralities_Consistent>
1

> <s_lp_Variant>
AV-unprocessed.smi:1550-3

> <Gold.Version>
5.8.1

> <Gold.Id.Protein>
6NUR|6NUR_protein|mol2

> <Gold.PLP.Fitness>
48.6703

> <Gold.PLP.PLP>
-42.2550

> <Gold.PLP.part.hbond>
-2.7944

> <Gold.PLP.part.metal>
0.0000

> <Gold.PLP.part.buried>
-5.1665

> <Gold.PLP.part.nonpolar>
-34.2279

> <Gold.PLP.part.repulsive>
0.3658

> <Gold.PLP.ligand.clash>
0.0000

> <Gold.PLP.ligand.torsion>
0.5291

> <Gold.PLP.Chemscore.Hbond>
2.3120

> <Gold.PLP.Chemscore.CHOScore>
0.0000

> <Gold.PLP.Chemscore.Metal>
0.0000

> <Gold.Chemscore.Hbonds>
donor molecule, donor type, donor heavy atom, donor atom, acceptor molecule, acceptor atom, score
      P1  H  6896  6908       L1    12  0.99
      P1  H  6931  6943       L1    24  0.80
      P1  H  6934  6947       L1    24  0.56

> <Gold.PLP.Chemscore.Internal.Correction>
0.5374

> <Gold.Rescore>
     Score         DG    S(hbond)    S(metal)    S(lipo)     H(rot)  DE(clash)    DE(int)     intcor
     17.00     -18.63       2.41        0.00      84.31       1.86       0.00       1.63       ----

> <Gold.Chemscore.Fitness>
17.0009

> <Gold.Chemscore.DG>
-18.6328

> <Gold.Chemscore.ZeroCoef>
-5.4800

> <Gold.Chemscore.Hbond>
2.4080

> <Gold.Chemscore.Metal>
0.0000

> <Gold.Chemscore.Lipo>
84.3103

> <Gold.Chemscore.Internal_Hbond>
0.0000

> <Gold.Chemscore.DEClash>
0.0000

> <Gold.Chemscore.DEInternal>
1.6319

> <Gold.Chemscore.Rot>
1.8571

> <Gold.Chemscore.Internal.Correction>
   9.000000E+99

> <Gold.Chemscore.Hbonds>
donor molecule, donor type, donor heavy atom, donor atom, acceptor molecule, acceptor atom, score
      P1  H  6896  6908       L1    12  0.94
      P1  H  6931  6943       L1    24  0.70
      P1  H  6934  6947       L1    24  0.54

> <Gold.Chemscore.Hbond.Weighted>
-8.0426

> <Gold.Chemscore.Metal.Weighted>
-0.0000

> <Gold.Chemscore.Lipo.Weighted>
-9.8643

> <Gold.Chemscore.Internal_Hbond.Weighted>
0.0000

> <Gold.Chemscore.DEClash.Weighted>
0.0000

> <Gold.Chemscore.DEInternal.Weighted>
1.6319

> <Gold.Chemscore.Rot.Weighted>
4.7541

> <Gold.Chemscore.Internal.Correction.Weighted>
   9.000000E+99

> <Gold.Protein.RotatedTorsions>
[ 6907 6896 6895 6894 ] final  174.17 input  -60.11 | X-H torsion
[ 7974 7965 7964 7962 ] final   30.55 input  175.53 | X-H torsion
[ 8008 7997 7996 7995 ] final  -48.46 input   59.86 | X-H torsion
[ 10167 10162 10161 10158 ] final -122.95 input  -65.29 | X-H torsion
[ 10718 10713 10712 10709 ] final  135.38 input   66.30 | X-H torsion
[ 10763 10752 10751 10750 ] final  -50.30 input  -60.55 | X-H torsion
[ 11005 11000 10999 10996 ] final   18.83 input  -57.11 | X-H torsion

> <Gold.Protein.ActiveResidues>
 VAL166  LYS551  ARG553  GLY616  TRP617  ASP618  TYR619  PRO620  LYS621  CYS622 
 ASP623  PHE694  ASN695  SER759  ASP760  ASP761  ALA762  ILE779  LEU786  VAL792 
 PHE793  MET794  SER795  GLU796  ALA797  LYS798  CYS799  TRP800  GLU811  SER814 

> <Gold.Protein.RotatedAtoms>
  151.7566  133.3331  159.3405 H   0  0  0  0  0  0  0  0  0  0  0  0  # atno 6907 bound_to 6896
  150.7514  134.6144  159.6112 H   0  0  0  0  0  0  0  0  0  0  0  0  # atno 6908 bound_to 6896
  152.3433  134.7107  160.0309 H   0  0  0  0  0  0  0  0  0  0  0  0  # atno 6909 bound_to 6896
  146.1605  139.6774  142.9037 H   0  0  0  0  0  0  0  0  0  0  0  0  # atno 7974 bound_to 7965
  154.4029  140.1321  156.4343 H   0  0  0  0  0  0  0  0  0  0  0  0  # atno 8008 bound_to 7997
  155.7521  140.3488  155.5135 H   0  0  0  0  0  0  0  0  0  0  0  0  # atno 8009 bound_to 7997
  155.8940  140.1008  157.1388 H   0  0  0  0  0  0  0  0  0  0  0  0  # atno 8010 bound_to 7997
  140.0087  143.5464  152.2272 H   0  0  0  0  0  0  0  0  0  0  0  0  # atno 10167 bound_to 10162
  157.4576  131.1071  150.9958 H   0  0  0  0  0  0  0  0  0  0  0  0  # atno 10718 bound_to 10713
  154.1082  135.6553  153.4880 H   0  0  0  0  0  0  0  0  0  0  0  0  # atno 10763 bound_to 10752
  153.0265  135.5241  154.7218 H   0  0  0  0  0  0  0  0  0  0  0  0  # atno 10764 bound_to 10752
  154.6391  135.2986  155.0095 H   0  0  0  0  0  0  0  0  0  0  0  0  # atno 10765 bound_to 10752
  140.4205  134.1524  155.7672 H   0  0  0  0  0  0  0  0  0  0  0  0  # atno 11005 bound_to 11000
  145.4601  141.0432  143.2756 LP  0  0  0  0  0  0  0  0  0  0  0  0  # atno 17320 bound_to 7965
  144.8020  139.6122  143.7067 LP  0  0  0  0  0  0  0  0  0  0  0  0  # atno 17321 bound_to 7965
  139.6220  144.7631  151.2719 LP  0  0  0  0  0  0  0  0  0  0  0  0  # atno 17342 bound_to 10162
  140.7390  143.6631  150.8147 LP  0  0  0  0  0  0  0  0  0  0  0  0  # atno 17343 bound_to 10162
  157.0767  130.5886  149.5412 LP  0  0  0  0  0  0  0  0  0  0  0  0  # atno 17370 bound_to 10713
  156.0014  130.5094  150.7677 LP  0  0  0  0  0  0  0  0  0  0  0  0  # atno 17371 bound_to 10713
  141.1786  133.8462  157.1337 LP  0  0  0  0  0  0  0  0  0  0  0  0  # atno 17394 bound_to 11000
  140.0203  134.9948  157.0579 LP  0  0  0  0  0  0  0  0  0  0  0  0  # atno 17395 bound_to 11000

$$$$
