AV-unprocessed.smi:264|AV-procd|sdf|2013|dock4
  -GOLD-   2262021213D 1   1.00000     0.00000
 Structure written by MMmdl.
 52 56  0  0  0  0  0  0  0  0  1 V2000
  146.5602  129.9150  152.7617 C   0  0  0  0  0  0  0  0  0  0  0  0
  146.0810  131.3696  152.6265 C   0  0  2  0  0  0  0  0  0  0  0  0
  145.6370  131.6285  151.2948 O   0  0  0  0  0  0  0  0  0  0  0  0
  146.3929  132.6881  150.7272 C   0  0  0  0  0  0  0  0  0  0  0  0
  146.8094  133.5298  151.9254 C   0  0  0  0  0  0  0  0  0  0  0  0
  147.1054  132.4742  152.9823 C   0  0  2  0  0  0  0  0  0  0  0  0
  148.4342  132.0152  152.7902 O   0  0  0  0  0  0  0  0  0  0  0  0
  146.9699  132.9854  154.4367 C   0  0  0  0  0  0  0  0  0  0  0  0
  147.6800  134.2325  154.6769 N   0  0  0  0  0  0  0  0  0  0  0  0
  147.2358  135.5023  154.3851 C   0  0  0  0  0  0  0  0  0  0  0  0
  148.0636  136.4644  154.6878 N   0  0  0  0  0  0  0  0  0  0  0  0
  149.1624  135.8103  155.2329 C   0  0  0  0  0  0  0  0  0  0  0  0
  150.4114  136.2421  155.7635 C   0  0  0  0  0  0  0  0  0  0  0  0
  150.7816  137.5480  155.7996 N   0  0  0  0  0  0  0  0  0  0  0  0
  151.5914  137.9880  154.6701 C   0  0  0  0  0  0  0  0  0  0  0  0
  151.6370  139.5214  154.6235 C   0  0  0  0  0  0  0  0  0  0  0  0
  152.0854  140.0429  155.8737 O   0  0  0  0  0  0  0  0  0  0  0  0
  151.3184  139.6379  157.0148 C   0  0  2  0  0  0  0  0  0  0  0  0
  149.9587  140.3292  157.0703 C   0  0  0  0  0  0  0  0  0  0  0  0
  150.3153  141.6941  157.6385 C   0  0  0  0  0  0  0  0  0  0  0  0
  151.2793  141.3945  158.6348 O   0  0  0  0  0  0  0  0  0  0  0  0
  152.0159  140.2358  158.2493 C   0  0  0  0  0  0  0  0  0  0  0  0
  151.2461  138.0962  157.0713 C   0  0  0  0  0  0  0  0  0  0  0  0
  151.2481  135.2837  156.2453 N   0  0  0  0  0  0  0  0  0  0  0  0
  150.8980  133.9949  156.2009 C   0  0  0  0  0  0  0  0  0  0  0  0
  149.7769  133.4509  155.7243 N   0  0  0  0  0  0  0  0  0  0  0  0
  148.9288  134.4057  155.2476 C   0  0  0  0  0  0  0  0  0  0  0  0
  146.9119  129.7102  153.7732 H   0  0  0  0  0  0  0  0  0  0  0  0
  147.3722  129.6933  152.0688 H   0  0  0  0  0  0  0  0  0  0  0  0
  145.7488  129.2199  152.5453 H   0  0  0  0  0  0  0  0  0  0  0  0
  145.1974  131.4923  153.2540 H   0  0  0  0  0  0  0  0  0  0  0  0
  147.2675  132.2748  150.2228 H   0  0  0  0  0  0  0  0  0  0  0  0
  145.8109  133.2506  149.9972 H   0  0  0  0  0  0  0  0  0  0  0  0
  147.6508  134.1909  151.7134 H   0  0  0  0  0  0  0  0  0  0  0  0
  145.9667  134.1487  152.2361 H   0  0  0  0  0  0  0  0  0  0  0  0
  148.5019  131.6429  151.9242 H   0  0  0  0  0  0  0  0  0  0  0  0
  145.9195  133.1482  154.6818 H   0  0  0  0  0  0  0  0  0  0  0  0
  147.3336  132.2345  155.1394 H   0  0  0  0  0  0  0  0  0  0  0  0
  146.2741  135.6940  153.9318 H   0  0  0  0  0  0  0  0  0  0  0  0
  152.6006  137.5896  154.7835 H   0  0  0  0  0  0  0  0  0  0  0  0
  151.2082  137.6087  153.7238 H   0  0  0  0  0  0  0  0  0  0  0  0
  152.3263  139.8481  153.8448 H   0  0  0  0  0  0  0  0  0  0  0  0
  150.6617  139.9277  154.3583 H   0  0  0  0  0  0  0  0  0  0  0  0
  149.4340  140.3891  156.1185 H   0  0  0  0  0  0  0  0  0  0  0  0
  149.3026  139.8107  157.7708 H   0  0  0  0  0  0  0  0  0  0  0  0
  150.7667  142.3276  156.8733 H   0  0  0  0  0  0  0  0  0  0  0  0
  149.4546  142.2168  158.0567 H   0  0  0  0  0  0  0  0  0  0  0  0
  152.0069  139.5399  159.0888 H   0  0  0  0  0  0  0  0  0  0  0  0
  153.0572  140.4903  158.0480 H   0  0  0  0  0  0  0  0  0  0  0  0
  150.5885  137.7837  157.8838 H   0  0  0  0  0  0  0  0  0  0  0  0
  152.2360  137.6906  157.2861 H   0  0  0  0  0  0  0  0  0  0  0  0
  151.6204  133.2997  156.6029 H   0  0  0  0  0  0  0  0  0  0  0  0
  1  2  1  0  0  0  0
  1 28  1  0  0  0  0
  1 29  1  0  0  0  0
  1 30  1  0  0  0  0
  2  6  1  0  0  0  0
  2  3  1  0  0  0  0
  2 31  1  0  0  0  0
  3  4  1  0  0  0  0
  4  5  1  0  0  0  0
  4 32  1  0  0  0  0
  4 33  1  0  0  0  0
  5  6  1  0  0  0  0
  5 34  1  0  0  0  0
  5 35  1  0  0  0  0
  6  7  1  0  0  0  0
  6  8  1  0  0  0  0
  7 36  1  0  0  0  0
  8  9  1  0  0  0  0
  8 37  1  0  0  0  0
  8 38  1  0  0  0  0
  9 27  1  0  0  0  0
  9 10  1  0  0  0  0
 10 11  2  0  0  0  0
 10 39  1  0  0  0  0
 11 12  1  0  0  0  0
 12 27  2  0  0  0  0
 12 13  1  0  0  0  0
 13 14  1  0  0  0  0
 13 24  2  0  0  0  0
 14 23  1  0  0  0  0
 14 15  1  0  0  0  0
 15 16  1  0  0  0  0
 15 40  1  0  0  0  0
 15 41  1  0  0  0  0
 16 17  1  0  0  0  0
 16 42  1  0  0  0  0
 16 43  1  0  0  0  0
 17 18  1  0  0  0  0
 18 22  1  0  0  0  0
 18 19  1  0  0  0  0
 18 23  1  0  0  0  0
 19 20  1  0  0  0  0
 19 44  1  0  0  0  0
 19 45  1  0  0  0  0
 20 21  1  0  0  0  0
 20 46  1  0  0  0  0
 20 47  1  0  0  0  0
 21 22  1  0  0  0  0
 22 48  1  0  0  0  0
 22 49  1  0  0  0  0
 23 50  1  0  0  0  0
 23 51  1  0  0  0  0
 24 25  1  0  0  0  0
 25 26  2  0  0  0  0
 25 52  1  0  0  0  0
 26 27  1  0  0  0  0
M  END
> <s_m_source_file>
AV-unprocessed.smi

> <i_m_source_file_index>
264

> <i_lp_mmshare_version>
43012

> <i_f3d_flags>
0

> <s_epik_input>
W0NIMl0xW0NIMl1PW0NAQEhdKFtDSDNdKVtDQEBdMShbT0hdKVtDSDJdbihbY0hdbjIpYyhjMjMpbltjSF1uYzNOKFtDSDJdNClbQ0gyXVtDSDJdT1tDQF00NVtDSDJdW0NIMl1PW0NIMl01

> <s_epik_cmdline>
J2VwaWtfcHl0aG9uJywgJy1waCcsICc3LjAnLCAnLXRuJywgJzgnLCAnLW1hJywgJzIwMCcsICctbWV0YWxfYmluZGluZycsICctaW1hZScsICc8aW5maWxlLm1hZT4nLCAnLW9tYWUnLCAnPG91dGZpbGUubWFlPic=

> <r_lp_tautomer_probability>
1

> <r_epik_Ionization_Penalty>
0.00539389

> <r_epik_Ionization_Penalty_Charging>
0

> <r_epik_Ionization_Penalty_Neutral>
0.00539389

> <r_epik_State_Penalty>
0.00375441

> <r_epik_Charging_Adjusted_Penalty>
0.00375441

> <i_epik_Tot_Q>
0

> <i_epik_Tot_abs_Q>
0

> <r_epik_Metal_State_Penalty>
-0

> <b_epik_Metal_Only>
0

> <s_lp_Force_Field>
OPLS_2005

> <r_lp_Energy>
54.0423

> <b_lp_Chiralities_Consistent>
1

> <s_lp_Variant>
AV-unprocessed.smi:264-7

> <Gold.Version>
5.8.1

> <Gold.Id.Protein>
6NUR|6NUR_protein|mol2

> <Gold.PLP.Fitness>
41.2250

> <Gold.PLP.PLP>
-33.6557

> <Gold.PLP.part.hbond>
-3.0000

> <Gold.PLP.part.metal>
0.0000

> <Gold.PLP.part.buried>
-4.3612

> <Gold.PLP.part.nonpolar>
-25.7460

> <Gold.PLP.part.repulsive>
0.2547

> <Gold.PLP.ligand.clash>
0.0000

> <Gold.PLP.ligand.torsion>
0.8414

> <Gold.PLP.Chemscore.Hbond>
2.9913

> <Gold.PLP.Chemscore.CHOScore>
0.0000

> <Gold.PLP.Chemscore.Metal>
0.0000

> <Gold.Chemscore.Hbonds>
donor molecule, donor type, donor heavy atom, donor atom, acceptor molecule, acceptor atom, score
      L1  H     7    36       P1 10747  1.00
      P1  H  7997  8010       L1    17  0.31
      P1  H 10752 10763       L1    24  0.47

> <Gold.PLP.Chemscore.Internal.Correction>
0.2785

> <Gold.Rescore>
     Score         DG    S(hbond)    S(metal)    S(lipo)     H(rot)  DE(clash)    DE(int)     intcor
     15.97     -16.97       2.37        0.00      76.64       2.11       0.53       0.47       ----

> <Gold.Chemscore.Fitness>
15.9681

> <Gold.Chemscore.DG>
-16.9750

> <Gold.Chemscore.ZeroCoef>
-5.4800

> <Gold.Chemscore.Hbond>
2.3712

> <Gold.Chemscore.Metal>
0.0000

> <Gold.Chemscore.Lipo>
76.6423

> <Gold.Chemscore.Internal_Hbond>
0.0000

> <Gold.Chemscore.DEClash>
0.5343

> <Gold.Chemscore.DEInternal>
0.4726

> <Gold.Chemscore.Rot>
2.1063

> <Gold.Chemscore.Internal.Correction>
   9.000000E+99

> <Gold.Chemscore.Hbonds>
donor molecule, donor type, donor heavy atom, donor atom, acceptor molecule, acceptor atom, score
      L1  H     7    36       P1 10747  1.00
      P1  H  7997  8010       L1    17  0.24
      P1  H 10752 10763       L1    24  0.16

> <Gold.Chemscore.Hbond.Weighted>
-7.9200

> <Gold.Chemscore.Metal.Weighted>
-0.0000

> <Gold.Chemscore.Lipo.Weighted>
-8.9672

> <Gold.Chemscore.Internal_Hbond.Weighted>
0.0000

> <Gold.Chemscore.DEClash.Weighted>
0.5343

> <Gold.Chemscore.DEInternal.Weighted>
0.4726

> <Gold.Chemscore.Rot.Weighted>
5.3921

> <Gold.Chemscore.Internal.Correction.Weighted>
   9.000000E+99

> <Gold.Protein.RotatedTorsions>
[ 6907 6896 6895 6894 ] final   28.56 input  -60.11 | X-H torsion
[ 7974 7965 7964 7962 ] final -158.02 input  175.53 | X-H torsion
[ 8008 7997 7996 7995 ] final   74.25 input   59.86 | X-H torsion
[ 10167 10162 10161 10158 ] final  -63.60 input  -65.29 | X-H torsion
[ 10718 10713 10712 10709 ] final -165.62 input   66.30 | X-H torsion
[ 10763 10752 10751 10750 ] final   92.56 input  -60.55 | X-H torsion
[ 11005 11000 10999 10996 ] final  155.99 input  -57.11 | X-H torsion

> <Gold.Protein.ActiveResidues>
 VAL166  LYS551  ARG553  GLY616  TRP617  ASP618  TYR619  PRO620  LYS621  CYS622 
 ASP623  PHE694  ASN695  SER759  ASP760  ASP761  ALA762  ILE779  LEU786  VAL792 
 PHE793  MET794  SER795  GLU796  ALA797  LYS798  CYS799  TRP800  GLU811  SER814 

> <Gold.Protein.RotatedAtoms>
  152.0187  134.9835  160.0569 H   0  0  0  0  0  0  0  0  0  0  0  0  # atno 6907 bound_to 6896
  152.1358  133.4430  159.4751 H   0  0  0  0  0  0  0  0  0  0  0  0  # atno 6908 bound_to 6896
  150.6860  134.2284  159.4467 H   0  0  0  0  0  0  0  0  0  0  0  0  # atno 6909 bound_to 6896
  144.7523  140.3887  143.6038 H   0  0  0  0  0  0  0  0  0  0  0  0  # atno 7974 bound_to 7965
  155.7956  140.3478  155.5374 H   0  0  0  0  0  0  0  0  0  0  0  0  # atno 8008 bound_to 7997
  155.8590  140.0968  157.1646 H   0  0  0  0  0  0  0  0  0  0  0  0  # atno 8009 bound_to 7997
  154.4011  140.1362  156.3924 H   0  0  0  0  0  0  0  0  0  0  0  0  # atno 8010 bound_to 7997
  140.5859  143.2334  151.6243 H   0  0  0  0  0  0  0  0  0  0  0  0  # atno 10167 bound_to 10162
  156.6560  130.9027  151.3021 H   0  0  0  0  0  0  0  0  0  0  0  0  # atno 10718 bound_to 10713
  153.2205  135.4357  155.0484 H   0  0  0  0  0  0  0  0  0  0  0  0  # atno 10763 bound_to 10752
  154.8247  135.3355  154.6934 H   0  0  0  0  0  0  0  0  0  0  0  0  # atno 10764 bound_to 10752
  153.7366  135.7007  153.5032 H   0  0  0  0  0  0  0  0  0  0  0  0  # atno 10765 bound_to 10752
  140.1633  134.8594  157.2601 H   0  0  0  0  0  0  0  0  0  0  0  0  # atno 11005 bound_to 11000
  145.6900  139.1637  143.2652 LP  0  0  0  0  0  0  0  0  0  0  0  0  # atno 17320 bound_to 7965
  146.1490  140.6952  142.9331 LP  0  0  0  0  0  0  0  0  0  0  0  0  # atno 17321 bound_to 7965
  139.5197  144.3244  152.0882 LP  0  0  0  0  0  0  0  0  0  0  0  0  # atno 17342 bound_to 10162
  140.2401  144.4278  150.6263 LP  0  0  0  0  0  0  0  0  0  0  0  0  # atno 17343 bound_to 10162
  157.7125  130.9457  150.1139 LP  0  0  0  0  0  0  0  0  0  0  0  0  # atno 17370 bound_to 10713
  156.2047  130.3662  149.8744 LP  0  0  0  0  0  0  0  0  0  0  0  0  # atno 17371 bound_to 10713
  140.2464  134.3735  155.7460 LP  0  0  0  0  0  0  0  0  0  0  0  0  # atno 17394 bound_to 11000
  141.2211  133.7292  156.8868 LP  0  0  0  0  0  0  0  0  0  0  0  0  # atno 17395 bound_to 11000

$$$$
