AV-unprocessed.smi:763|AV-procd|sdf|3635|dock9
  -GOLD-   22720 1 33D 1   1.00000     0.00000
 Structure written by MMmdl.
 44 45  0  0  0  0  0  0  0  0  1 V2000
  155.8205  137.2888  158.6032 C   0  0  0  0  0  0  0  0  0  0  0  0
  155.6733  138.6924  158.7487 O   0  0  0  0  0  0  0  0  0  0  0  0
  155.4775  139.1153  160.0911 C   0  0  0  0  0  0  0  0  0  0  0  0
  154.1965  138.5266  160.6985 C   0  0  0  0  0  0  0  0  0  0  0  0
  153.1179  138.8265  159.8206 O   0  0  0  0  0  0  0  0  0  0  0  0
  152.7351  140.1404  159.6443 C   0  0  0  0  0  0  0  0  0  0  0  0
  153.4731  141.1017  160.2562 N   0  0  0  0  0  0  0  0  0  0  0  0
  153.0996  142.3903  160.1211 C   0  0  0  0  0  0  0  0  0  0  0  0
  151.9745  142.7911  159.3786 C   0  0  0  0  0  0  0  0  0  0  0  0
  151.2090  141.7976  158.7418 C   0  0  0  0  0  0  0  0  0  0  0  0
  151.5906  140.4456  158.8618 C   0  0  0  0  0  0  0  0  0  0  0  0
  150.8127  139.4808  158.2082 N   0  0  0  0  0  0  0  0  0  0  0  0
  149.3973  139.6851  157.2225 S   0  0  0  0  0  0  0  0  0  0  0  0
  148.7270  138.3750  157.2112 O   0  0  0  0  0  0  0  0  0  0  0  0
  148.7189  140.8750  157.7585 O   0  0  0  0  0  0  0  0  0  0  0  0
  150.1434  140.0285  155.5446 C   0  0  1  0  0  0  0  0  0  0  0  0
  149.7487  138.9321  154.5340 C   0  0  0  0  0  0  0  0  0  0  0  0
  148.2672  139.0296  154.1295 C   0  0  0  0  0  0  0  0  0  0  0  0
  147.9466  140.4128  153.5398 C   0  0  0  0  0  0  0  0  0  0  0  0
  148.3232  141.5428  154.5118 C   0  0  0  0  0  0  0  0  0  0  0  0
  149.7932  141.4219  154.9650 C   0  0  1  0  0  0  0  0  0  0  0  0
  150.1233  142.4498  155.8759 O   0  0  0  0  0  0  0  0  0  0  0  0
  156.0223  137.0522  157.5587 H   0  0  0  0  0  0  0  0  0  0  0  0
  154.9169  136.7536  158.8940 H   0  0  0  0  0  0  0  0  0  0  0  0
  156.6554  136.9153  159.1972 H   0  0  0  0  0  0  0  0  0  0  0  0
  156.3478  138.8851  160.7078 H   0  0  0  0  0  0  0  0  0  0  0  0
  155.3909  140.2022  160.0755 H   0  0  0  0  0  0  0  0  0  0  0  0
  154.3040  137.4460  160.8061 H   0  0  0  0  0  0  0  0  0  0  0  0
  154.0086  138.9527  161.6846 H   0  0  0  0  0  0  0  0  0  0  0  0
  153.7138  143.1231  160.6231 H   0  0  0  0  0  0  0  0  0  0  0  0
  151.7067  143.8342  159.2983 H   0  0  0  0  0  0  0  0  0  0  0  0
  150.3410  142.0743  158.1613 H   0  0  0  0  0  0  0  0  0  0  0  0
  150.9857  138.5331  158.5094 H   0  0  0  0  0  0  0  0  0  0  0  0
  151.2234  139.9685  155.6813 H   0  0  0  0  0  0  0  0  0  0  0  0
  150.3670  139.0295  153.6408 H   0  0  0  0  0  0  0  0  0  0  0  0
  149.9656  137.9426  154.9364 H   0  0  0  0  0  0  0  0  0  0  0  0
  148.0321  138.2546  153.3994 H   0  0  0  0  0  0  0  0  0  0  0  0
  147.6295  138.8404  154.9937 H   0  0  0  0  0  0  0  0  0  0  0  0
  148.4913  140.5429  152.6037 H   0  0  0  0  0  0  0  0  0  0  0  0
  146.8869  140.4750  153.2904 H   0  0  0  0  0  0  0  0  0  0  0  0
  148.1648  142.5059  154.0254 H   0  0  0  0  0  0  0  0  0  0  0  0
  147.6442  141.5256  155.3623 H   0  0  0  0  0  0  0  0  0  0  0  0
  150.4207  141.5822  154.0872 H   0  0  0  0  0  0  0  0  0  0  0  0
  149.4712  143.1306  155.8103 H   0  0  0  0  0  0  0  0  0  0  0  0
  1  2  1  0  0  0  0
  1 23  1  0  0  0  0
  1 24  1  0  0  0  0
  1 25  1  0  0  0  0
  2  3  1  0  0  0  0
  3  4  1  0  0  0  0
  3 26  1  0  0  0  0
  3 27  1  0  0  0  0
  4  5  1  0  0  0  0
  4 28  1  0  0  0  0
  4 29  1  0  0  0  0
  5  6  1  0  0  0  0
  6 11  1  0  0  0  0
  6  7  2  0  0  0  0
  7  8  1  0  0  0  0
  8  9  2  0  0  0  0
  8 30  1  0  0  0  0
  9 10  1  0  0  0  0
  9 31  1  0  0  0  0
 10 11  2  0  0  0  0
 10 32  1  0  0  0  0
 11 12  1  0  0  0  0
 12 13  1  0  0  0  0
 12 33  1  0  0  0  0
 13 14  2  0  0  0  0
 13 15  2  0  0  0  0
 13 16  1  0  0  0  0
 16 21  1  0  0  0  0
 16 17  1  0  0  0  0
 16 34  1  0  0  0  0
 17 18  1  0  0  0  0
 17 35  1  0  0  0  0
 17 36  1  0  0  0  0
 18 19  1  0  0  0  0
 18 37  1  0  0  0  0
 18 38  1  0  0  0  0
 19 20  1  0  0  0  0
 19 39  1  0  0  0  0
 19 40  1  0  0  0  0
 20 21  1  0  0  0  0
 20 41  1  0  0  0  0
 20 42  1  0  0  0  0
 21 22  1  0  0  0  0
 21 43  1  0  0  0  0
 22 44  1  0  0  0  0
M  END
> <s_m_source_file>
AV-unprocessed.smi

> <i_m_source_file_index>
763

> <i_lp_mmshare_version>
43012

> <i_f3d_flags>
0

> <s_epik_input>
W0NIM11PW0NIMl1bQ0gyXU9jMW5bY0hdW2NIXVtjSF1jMVtOSF1TKD1PKSg9TylbQ0BASF0yW0NIMl1bQ0gyXVtDSDJdW0NIMl1bQ0BIXTJbT0hd

> <s_epik_cmdline>
J2VwaWtfcHl0aG9uJywgJy1waCcsICc3LjAnLCAnLXRuJywgJzgnLCAnLW1hJywgJzIwMCcsICctbWV0YWxfYmluZGluZycsICctaW1hZScsICc8aW5maWxlLm1hZT4nLCAnLW9tYWUnLCAnPG91dGZpbGUubWFlPic=

> <r_epik_Ionization_Penalty>
0.124685

> <r_epik_Ionization_Penalty_Charging>
0

> <r_epik_Ionization_Penalty_Neutral>
0.124685

> <r_epik_State_Penalty>
0.114154

> <r_epik_Charging_Adjusted_Penalty>
0.114154

> <i_epik_Tot_Q>
0

> <i_epik_Tot_abs_Q>
0

> <r_epik_Metal_State_Penalty>
0.443785

> <b_epik_Metal_Only>
0

> <s_lp_Force_Field>
OPLS_2005

> <r_lp_Energy>
7.3887

> <b_lp_Chiralities_Consistent>
1

> <s_lp_Variant>
AV-unprocessed.smi:763-2

> <Gold.Version>
5.8.1

> <Gold.Id.Protein>
6NUR|6NUR_protein|mol2

> <Gold.PLP.Fitness>
39.0251

> <Gold.PLP.PLP>
-33.0925

> <Gold.PLP.part.hbond>
-1.7217

> <Gold.PLP.part.metal>
0.0000

> <Gold.PLP.part.buried>
-2.9900

> <Gold.PLP.part.nonpolar>
-27.9282

> <Gold.PLP.part.repulsive>
0.1594

> <Gold.PLP.ligand.clash>
0.0000

> <Gold.PLP.ligand.torsion>
0.7061

> <Gold.PLP.Chemscore.Hbond>
2.0000

> <Gold.PLP.Chemscore.CHOScore>
0.0000

> <Gold.PLP.Chemscore.Metal>
0.0000

> <Gold.Chemscore.Hbonds>
donor molecule, donor type, donor heavy atom, donor atom, acceptor molecule, acceptor atom, score
      L1  H    22    44       P1  8028  1.00
      P1  H  7997  8010       L1     2  1.00

> <Gold.PLP.Chemscore.Internal.Correction>
1.3448

> <Gold.Rescore>
     Score         DG    S(hbond)    S(metal)    S(lipo)     H(rot)  DE(clash)    DE(int)     intcor
     12.32     -16.00       1.98        0.00      86.13       2.41       0.00       3.67       ----

> <Gold.Chemscore.Fitness>
12.3250

> <Gold.Chemscore.DG>
-15.9967

> <Gold.Chemscore.ZeroCoef>
-5.4800

> <Gold.Chemscore.Hbond>
1.9752

> <Gold.Chemscore.Metal>
0.0000

> <Gold.Chemscore.Lipo>
86.1284

> <Gold.Chemscore.Internal_Hbond>
0.0000

> <Gold.Chemscore.DEClash>
0.0000

> <Gold.Chemscore.DEInternal>
3.6717

> <Gold.Chemscore.Rot>
2.4052

> <Gold.Chemscore.Internal.Correction>
   9.000000E+99

> <Gold.Chemscore.Hbonds>
donor molecule, donor type, donor heavy atom, donor atom, acceptor molecule, acceptor atom, score
      L1  H    22    44       P1  8028  0.98
      P1  H  7997  8010       L1     2  0.94

> <Gold.Chemscore.Hbond.Weighted>
-6.5971

> <Gold.Chemscore.Metal.Weighted>
-0.0000

> <Gold.Chemscore.Lipo.Weighted>
-10.0770

> <Gold.Chemscore.Internal_Hbond.Weighted>
0.0000

> <Gold.Chemscore.DEClash.Weighted>
0.0000

> <Gold.Chemscore.DEInternal.Weighted>
3.6717

> <Gold.Chemscore.Rot.Weighted>
6.1574

> <Gold.Chemscore.Internal.Correction.Weighted>
   9.000000E+99

> <Gold.Protein.RotatedTorsions>
[ 6907 6896 6895 6894 ] final  -21.05 input  -60.11 | X-H torsion
[ 7974 7965 7964 7962 ] final   58.44 input  175.53 | X-H torsion
[ 8008 7997 7996 7995 ] final  -34.50 input   59.86 | X-H torsion
[ 10167 10162 10161 10158 ] final -178.36 input  -65.29 | X-H torsion
[ 10718 10713 10712 10709 ] final -118.77 input   66.30 | X-H torsion
[ 10763 10752 10751 10750 ] final  -96.18 input  -60.55 | X-H torsion
[ 11005 11000 10999 10996 ] final -173.57 input  -57.11 | X-H torsion

> <Gold.Protein.ActiveResidues>
 VAL166  LYS551  ARG553  GLY616  TRP617  ASP618  TYR619  PRO620  LYS621  CYS622 
 ASP623  PHE694  ASN695  SER759  ASP760  ASP761  ALA762  ILE779  LEU786  VAL792 
 PHE793  MET794  SER795  GLU796  ALA797  LYS798  CYS799  TRP800  GLU811  SER814 

> <Gold.Protein.RotatedAtoms>
  151.2391  135.0582  159.9017 H   0  0  0  0  0  0  0  0  0  0  0  0  # atno 6907 bound_to 6896
  152.5395  134.0454  159.8096 H   0  0  0  0  0  0  0  0  0  0  0  0  # atno 6908 bound_to 6896
  151.0645  133.5468  159.2663 H   0  0  0  0  0  0  0  0  0  0  0  0  # atno 6909 bound_to 6896
  145.9181  139.3707  143.0495 H   0  0  0  0  0  0  0  0  0  0  0  0  # atno 7974 bound_to 7965
  154.4119  140.1682  156.2060 H   0  0  0  0  0  0  0  0  0  0  0  0  # atno 8008 bound_to 7997
  155.9484  140.3403  155.6363 H   0  0  0  0  0  0  0  0  0  0  0  0  # atno 8009 bound_to 7997
  155.6901  140.0732  157.2442 H   0  0  0  0  0  0  0  0  0  0  0  0  # atno 8010 bound_to 7997
  139.5436  144.2296  152.0944 H   0  0  0  0  0  0  0  0  0  0  0  0  # atno 10167 bound_to 10162
  156.1131  130.6264  150.9333 H   0  0  0  0  0  0  0  0  0  0  0  0  # atno 10718 bound_to 10713
  154.7216  135.5093  153.8821 H   0  0  0  0  0  0  0  0  0  0  0  0  # atno 10763 bound_to 10752
  153.0867  135.6647  153.9943 H   0  0  0  0  0  0  0  0  0  0  0  0  # atno 10764 bound_to 10752
  153.9764  135.3033  155.3403 H   0  0  0  0  0  0  0  0  0  0  0  0  # atno 10765 bound_to 10752
  140.4843  134.6045  157.4931 H   0  0  0  0  0  0  0  0  0  0  0  0  # atno 11005 bound_to 11000
  145.8585  140.9488  143.0712 LP  0  0  0  0  0  0  0  0  0  0  0  0  # atno 17320 bound_to 7965
  144.6750  140.0500  143.7479 LP  0  0  0  0  0  0  0  0  0  0  0  0  # atno 17321 bound_to 7965
  140.1778  144.4873  150.6544 LP  0  0  0  0  0  0  0  0  0  0  0  0  # atno 17342 bound_to 10162
  140.6676  143.2273  151.5705 LP  0  0  0  0  0  0  0  0  0  0  0  0  # atno 17343 bound_to 10162
  157.6313  131.0921  150.8435 LP  0  0  0  0  0  0  0  0  0  0  0  0  # atno 17370 bound_to 10713
  156.8543  130.5091  149.5309 LP  0  0  0  0  0  0  0  0  0  0  0  0  # atno 17371 bound_to 10713
  139.9807  134.7141  155.9864 LP  0  0  0  0  0  0  0  0  0  0  0  0  # atno 17394 bound_to 11000
  141.1516  133.6548  156.4030 LP  0  0  0  0  0  0  0  0  0  0  0  0  # atno 17395 bound_to 11000

$$$$
