AV-unprocessed.smi:315|AV-procd|sdf|2317|dock2
  -GOLD-   2262022223D 1   1.00000     0.00000
 Structure written by MMmdl.
 47 49  0  0  0  0  0  0  0  0  2 V2000
  151.8256  139.0660  155.9709 C   0  0  0  0  0  0  0  0  0  0  0  0
  151.8147  138.4735  154.5593 C   0  0  0  0  0  0  0  0  0  0  0  0
  150.4615  138.2619  154.1732 O   0  0  0  0  0  0  0  0  0  0  0  0
  149.5819  139.3270  154.2081 C   0  0  0  0  0  0  0  0  0  0  0  0
  150.0698  140.5645  154.4706 N   0  0  0  0  0  0  0  0  0  0  0  0
  149.2046  141.5996  154.5033 C   0  0  0  0  0  0  0  0  0  0  0  0
  147.8213  141.4569  154.2844 C   0  0  0  0  0  0  0  0  0  0  0  0
  147.3138  140.1732  154.0105 C   0  0  0  0  0  0  0  0  0  0  0  0
  148.2124  139.0819  153.9595 C   0  0  0  0  0  0  0  0  0  0  0  0
  147.8089  137.7449  153.7107 N   0  0  0  0  0  0  0  0  0  0  0  0
  146.6118  137.1793  153.9513 C   0  0  0  0  0  0  0  0  0  0  0  0
  145.7183  137.6907  154.6218 O   0  0  0  0  0  0  0  0  0  0  0  0
  146.4503  135.9769  153.3687 N   0  0  0  0  0  0  0  0  0  0  0  0
  145.2801  135.0938  153.4235 C   0  0  1  0  0  0  0  0  0  0  0  0
  143.9805  135.7957  153.0025 C   0  0  0  0  0  0  0  0  0  0  0  0
  143.1236  134.7025  152.3388 C   0  0  0  0  0  0  0  0  0  0  0  0
  143.9254  133.4610  152.3983 N   0  3  1  0  0  0  0  0  0  0  0  0
  143.6148  132.4189  151.3866 C   0  0  0  0  0  0  0  0  0  0  0  0
  144.2238  132.7278  150.0087 C   0  0  0  0  0  0  0  0  0  0  0  0
  145.7280  132.9939  150.1278 C   0  0  0  0  0  0  0  0  0  0  0  0
  145.9700  134.1494  151.1041 C   0  0  0  0  0  0  0  0  0  0  0  0
  145.3443  133.8666  152.4934 C   0  0  1  0  0  0  0  0  0  0  0  0
  152.8458  139.2507  156.3077 H   0  0  0  0  0  0  0  0  0  0  0  0
  151.3553  138.3886  156.6837 H   0  0  0  0  0  0  0  0  0  0  0  0
  151.2863  140.0129  156.0017 H   0  0  0  0  0  0  0  0  0  0  0  0
  152.3062  139.1606  153.8686 H   0  0  0  0  0  0  0  0  0  0  0  0
  152.3655  137.5317  154.5514 H   0  0  0  0  0  0  0  0  0  0  0  0
  149.6272  142.5703  154.7160 H   0  0  0  0  0  0  0  0  0  0  0  0
  147.1636  142.3122  154.3300 H   0  0  0  0  0  0  0  0  0  0  0  0
  146.2528  140.0450  153.8589 H   0  0  0  0  0  0  0  0  0  0  0  0
  148.4291  137.2169  153.1150 H   0  0  0  0  0  0  0  0  0  0  0  0
  147.2250  135.6442  152.8125 H   0  0  0  0  0  0  0  0  0  0  0  0
  145.1502  134.7458  154.4503 H   0  0  0  0  0  0  0  0  0  0  0  0
  143.4762  136.2496  153.8564 H   0  0  0  0  0  0  0  0  0  0  0  0
  144.1805  136.5897  152.2813 H   0  0  0  0  0  0  0  0  0  0  0  0
  142.1721  134.5599  152.8511 H   0  0  0  0  0  0  0  0  0  0  0  0
  142.9077  134.9766  151.3056 H   0  0  0  0  0  0  0  0  0  0  0  0
  144.0166  131.4724  151.7502 H   0  0  0  0  0  0  0  0  0  0  0  0
  142.5348  132.2872  151.3109 H   0  0  0  0  0  0  0  0  0  0  0  0
  144.0472  131.8916  149.3314 H   0  0  0  0  0  0  0  0  0  0  0  0
  143.7302  133.5919  149.5630 H   0  0  0  0  0  0  0  0  0  0  0  0
  146.2415  132.0971  150.4765 H   0  0  0  0  0  0  0  0  0  0  0  0
  146.1460  133.2349  149.1497 H   0  0  0  0  0  0  0  0  0  0  0  0
  147.0425  134.3186  151.2018 H   0  0  0  0  0  0  0  0  0  0  0  0
  145.5535  135.0647  150.6814 H   0  0  0  0  0  0  0  0  0  0  0  0
  145.8970  133.0548  152.9661 H   0  0  0  0  0  0  0  0  0  0  0  0
  143.7019  133.0555  153.2959 H   0  0  0  0  0  0  0  0  0  0  0  0
  1  2  1  0  0  0  0
  1 23  1  0  0  0  0
  1 24  1  0  0  0  0
  1 25  1  0  0  0  0
  2  3  1  0  0  0  0
  2 26  1  0  0  0  0
  2 27  1  0  0  0  0
  3  4  1  0  0  0  0
  4  9  1  0  0  0  0
  4  5  2  0  0  0  0
  5  6  1  0  0  0  0
  6  7  2  0  0  0  0
  6 28  1  0  0  0  0
  7  8  1  0  0  0  0
  7 29  1  0  0  0  0
  8  9  2  0  0  0  0
  8 30  1  0  0  0  0
  9 10  1  0  0  0  0
 10 11  1  0  0  0  0
 10 31  1  0  0  0  0
 11 12  2  0  0  0  0
 11 13  1  0  0  0  0
 13 14  1  0  0  0  0
 13 32  1  0  0  0  0
 14 22  1  0  0  0  0
 14 15  1  0  0  0  0
 14 33  1  0  0  0  0
 15 16  1  0  0  0  0
 15 34  1  0  0  0  0
 15 35  1  0  0  0  0
 16 17  1  0  0  0  0
 16 36  1  0  0  0  0
 16 37  1  0  0  0  0
 17 22  1  0  0  0  0
 17 18  1  0  0  0  0
 17 47  1  0  0  0  0
 18 19  1  0  0  0  0
 18 38  1  0  0  0  0
 18 39  1  0  0  0  0
 19 20  1  0  0  0  0
 19 40  1  0  0  0  0
 19 41  1  0  0  0  0
 20 21  1  0  0  0  0
 20 42  1  0  0  0  0
 20 43  1  0  0  0  0
 21 22  1  0  0  0  0
 21 44  1  0  0  0  0
 21 45  1  0  0  0  0
 22 46  1  0  0  0  0
M  CHG  1  17   1
M  END
> <s_m_source_file>
AV-unprocessed.smi

> <i_m_source_file_index>
315

> <i_lp_mmshare_version>
43012

> <i_f3d_flags>
0

> <s_epik_input>
W0NIM11bQ0gyXU9jMW5bY0hdW2NIXVtjSF1jMVtOSF1DKD1PKVtOSF1bQ0BIXShbQ0gyXVtDSDJdMilbQ0BASF0oTjIzKVtDSDJdW0NIMl1bQ0gyXVtDSDJdMw==

> <s_epik_cmdline>
J2VwaWtfcHl0aG9uJywgJy1waCcsICc3LjAnLCAnLXRuJywgJzgnLCAnLW1hJywgJzIwMCcsICctbWV0YWxfYmluZGluZycsICctaW1hZScsICc8aW5maWxlLm1hZT4nLCAnLW9tYWUnLCAnPG91dGZpbGUubWFlPic=

> <r_lp_tautomer_probability>
1

> <r_epik_Ionization_Penalty>
0.00106455

> <r_epik_Ionization_Penalty_Charging>
0.000974069

> <r_epik_Ionization_Penalty_Neutral>
9.04821e-05

> <r_epik_State_Penalty>
0.000633842

> <r_epik_Charging_Adjusted_Penalty>
0.00160791

> <i_epik_Tot_Q>
1

> <i_epik_Tot_abs_Q>
1

> <r_epik_Metal_State_Penalty>
-0

> <b_epik_Metal_Only>
0

> <s_lp_Force_Field>
OPLS_2005

> <r_lp_Energy>
48.3447

> <b_lp_Chiralities_Consistent>
1

> <s_lp_Variant>
AV-unprocessed.smi:315-2

> <Gold.Version>
5.8.1

> <Gold.Id.Protein>
6NUR|6NUR_protein|mol2

> <Gold.PLP.Fitness>
50.7814

> <Gold.PLP.PLP>
-36.6634

> <Gold.PLP.part.hbond>
-3.5676

> <Gold.PLP.part.metal>
0.0000

> <Gold.PLP.part.buried>
-3.7800

> <Gold.PLP.part.nonpolar>
-29.6916

> <Gold.PLP.part.repulsive>
0.4400

> <Gold.PLP.ligand.clash>
0.0000

> <Gold.PLP.ligand.torsion>
0.2534

> <Gold.PLP.Chemscore.Hbond>
3.8737

> <Gold.PLP.Chemscore.CHOScore>
1.0000

> <Gold.PLP.Chemscore.Metal>
0.0000

> <Gold.Chemscore.Hbonds>
donor molecule, donor type, donor heavy atom, donor atom, acceptor molecule, acceptor atom, score
      L1  H    10    31       P1  7948  1.00
      L1  H    13    32       P1  7948  0.86
      L1  H    17    47       P1 10957  1.07
      P1  H  7989  7998       L1     5  0.85
      L1  C     6    28       P1  8028  1.00

> <Gold.PLP.Chemscore.Internal.Correction>
0.0039

> <Gold.Rescore>
     Score         DG    S(hbond)    S(metal)    S(lipo)     H(rot)  DE(clash)    DE(int)     intcor
     19.74     -22.44       3.10        0.00      86.44       1.38       0.07       2.63       ----

> <Gold.Chemscore.Fitness>
19.7408

> <Gold.Chemscore.DG>
-22.4387

> <Gold.Chemscore.ZeroCoef>
-5.4800

> <Gold.Chemscore.Hbond>
3.1049

> <Gold.Chemscore.Metal>
0.0000

> <Gold.Chemscore.Lipo>
86.4391

> <Gold.Chemscore.Internal_Hbond>
0.0000

> <Gold.Chemscore.DEClash>
0.0711

> <Gold.Chemscore.DEInternal>
2.6267

> <Gold.Chemscore.Rot>
1.3770

> <Gold.Chemscore.Internal.Correction>
   9.000000E+99

> <Gold.Chemscore.Hbonds>
donor molecule, donor type, donor heavy atom, donor atom, acceptor molecule, acceptor atom, score
      L1  H    10    31       P1  7948  1.00
      L1  H    13    32       P1  7948  0.80
      L1  H    17    47       P1 10957  0.42
      P1  H  7989  7998       L1     5  0.58

> <Gold.Chemscore.Hbond.Weighted>
-10.3705

> <Gold.Chemscore.Metal.Weighted>
-0.0000

> <Gold.Chemscore.Lipo.Weighted>
-10.1134

> <Gold.Chemscore.Internal_Hbond.Weighted>
0.0000

> <Gold.Chemscore.DEClash.Weighted>
0.0711

> <Gold.Chemscore.DEInternal.Weighted>
2.6267

> <Gold.Chemscore.Rot.Weighted>
3.5252

> <Gold.Chemscore.Internal.Correction.Weighted>
   9.000000E+99

> <Gold.Protein.RotatedTorsions>
[ 6907 6896 6895 6894 ] final  -95.77 input  -60.11 | X-H torsion
[ 7974 7965 7964 7962 ] final -118.43 input  175.53 | X-H torsion
[ 8008 7997 7996 7995 ] final  -46.85 input   59.86 | X-H torsion
[ 10167 10162 10161 10158 ] final  -94.51 input  -65.29 | X-H torsion
[ 10718 10713 10712 10709 ] final   60.71 input   66.30 | X-H torsion
[ 10763 10752 10751 10750 ] final   27.79 input  -60.55 | X-H torsion
[ 11005 11000 10999 10996 ] final  -74.32 input  -57.11 | X-H torsion

> <Gold.Protein.ActiveResidues>
 VAL166  LYS551  ARG553  GLY616  TRP617  ASP618  TYR619  PRO620  LYS621  CYS622 
 ASP623  PHE694  ASN695  SER759  ASP760  ASP761  ALA762  ILE779  LEU786  VAL792 
 PHE793  MET794  SER795  GLU796  ALA797  LYS798  CYS799  TRP800  GLU811  SER814 

> <Gold.Protein.RotatedAtoms>
  150.6972  134.1605  159.4174 H   0  0  0  0  0  0  0  0  0  0  0  0  # atno 6907 bound_to 6896
  151.9586  135.0132  160.0555 H   0  0  0  0  0  0  0  0  0  0  0  0  # atno 6908 bound_to 6896
  152.1947  133.4763  159.5063 H   0  0  0  0  0  0  0  0  0  0  0  0  # atno 6909 bound_to 6896
  145.0739  140.8379  143.4079 H   0  0  0  0  0  0  0  0  0  0  0  0  # atno 7974 bound_to 7965
  154.4011  140.1361  156.4079 H   0  0  0  0  0  0  0  0  0  0  0  0  # atno 8008 bound_to 7997
  155.7762  140.3482  155.5252 H   0  0  0  0  0  0  0  0  0  0  0  0  # atno 8009 bound_to 7997
  155.8719  140.0973  157.1535 H   0  0  0  0  0  0  0  0  0  0  0  0  # atno 8010 bound_to 7997
  140.3137  143.3089  152.0121 H   0  0  0  0  0  0  0  0  0  0  0  0  # atno 10167 bound_to 10162
  157.5774  130.8954  149.9370 H   0  0  0  0  0  0  0  0  0  0  0  0  # atno 10718 bound_to 10713
  153.0533  135.6528  154.0640 H   0  0  0  0  0  0  0  0  0  0  0  0  # atno 10763 bound_to 10752
  154.0323  135.2910  155.3368 H   0  0  0  0  0  0  0  0  0  0  0  0  # atno 10764 bound_to 10752
  154.6834  135.5311  153.8360 H   0  0  0  0  0  0  0  0  0  0  0  0  # atno 10765 bound_to 10752
  141.1633  133.6907  156.7346 H   0  0  0  0  0  0  0  0  0  0  0  0  # atno 11005 bound_to 11000
  145.1259  139.2663  143.5564 LP  0  0  0  0  0  0  0  0  0  0  0  0  # atno 17320 bound_to 7965
  146.3529  140.0896  142.8613 LP  0  0  0  0  0  0  0  0  0  0  0  0  # atno 17321 bound_to 7965
  139.4888  144.6364  151.6966 LP  0  0  0  0  0  0  0  0  0  0  0  0  # atno 17342 bound_to 10162
  140.5545  144.0371  150.6141 LP  0  0  0  0  0  0  0  0  0  0  0  0  # atno 17343 bound_to 10162
  156.0818  130.3672  150.0564 LP  0  0  0  0  0  0  0  0  0  0  0  0  # atno 17370 bound_to 10713
  156.8709  130.9524  151.3609 LP  0  0  0  0  0  0  0  0  0  0  0  0  # atno 17371 bound_to 10713
  140.2720  134.8385  157.3855 LP  0  0  0  0  0  0  0  0  0  0  0  0  # atno 17394 bound_to 11000
  140.1513  134.4846  155.7959 LP  0  0  0  0  0  0  0  0  0  0  0  0  # atno 17395 bound_to 11000

$$$$
