AV-unprocessed.smi:3181|AV-procd|sdf|12144|dock2
  -GOLD-   2272017583D 1   1.00000     0.00000
 Structure written by MMmdl.
 42 43  0  0  0  0  0  0  0  0  2 V2000
  148.4883  141.4296  157.0424 C   0  0  0  0  0  0  0  0  0  0  0  0
  149.7759  141.5801  156.2158 C   0  0  1  0  0  0  0  0  0  0  0  0
  149.4919  141.7044  154.7030 C   0  0  0  0  0  0  0  0  0  0  0  0
  148.6256  140.6533  154.2032 N   0  0  0  0  0  0  0  0  0  0  0  0
  148.7716  139.3270  154.2125 C   0  0  0  0  0  0  0  0  0  0  0  0
  147.7565  138.6738  153.6651 N   0  0  0  0  0  0  0  0  0  0  0  0
  146.9612  139.7312  153.3236 C   0  0  0  0  0  0  0  0  0  0  0  0
  147.4348  140.9399  153.6276 N   0  0  0  0  0  0  0  0  0  0  0  0
  150.5332  142.7604  156.6914 N   0  3  0  0  0  0  0  0  0  0  0  0
  150.7728  142.8389  158.1513 C   0  0  2  0  0  0  0  0  0  0  0  0
  151.0551  144.2958  158.5494 C   0  0  0  0  0  0  0  0  0  0  0  0
  151.3139  144.4191  160.0565 C   0  0  0  0  0  0  0  0  0  0  0  0
  152.4829  143.5247  160.5154 C   0  0  1  0  0  0  0  0  0  0  0  0
  152.7119  143.7001  162.0272 C   0  0  0  0  0  0  0  0  0  0  0  0
  152.2305  142.0487  160.1086 C   0  0  2  0  0  0  0  0  0  0  0  0
  153.3940  141.1148  160.4877 C   0  0  0  0  0  0  0  0  0  0  0  0
  151.9411  141.9360  158.5967 C   0  0  0  0  0  0  0  0  0  0  0  0
  147.9453  140.5222  156.7766 H   0  0  0  0  0  0  0  0  0  0  0  0
  147.8168  142.2752  156.8900 H   0  0  0  0  0  0  0  0  0  0  0  0
  148.7120  141.3696  158.1081 H   0  0  0  0  0  0  0  0  0  0  0  0
  150.3734  140.6836  156.3886 H   0  0  0  0  0  0  0  0  0  0  0  0
  149.0245  142.6660  154.4858 H   0  0  0  0  0  0  0  0  0  0  0  0
  150.4184  141.6757  154.1289 H   0  0  0  0  0  0  0  0  0  0  0  0
  149.6377  138.8293  154.6242 H   0  0  0  0  0  0  0  0  0  0  0  0
  146.0043  139.6063  152.8382 H   0  0  0  0  0  0  0  0  0  0  0  0
  151.4164  142.8073  156.2038 H   0  0  0  0  0  0  0  0  0  0  0  0
  149.8609  142.5212  158.6599 H   0  0  0  0  0  0  0  0  0  0  0  0
  151.9201  144.6719  158.0008 H   0  0  0  0  0  0  0  0  0  0  0  0
  150.2125  144.9302  158.2716 H   0  0  0  0  0  0  0  0  0  0  0  0
  151.5236  145.4611  160.3014 H   0  0  0  0  0  0  0  0  0  0  0  0
  150.4082  144.1527  160.6033 H   0  0  0  0  0  0  0  0  0  0  0  0
  153.3840  143.8690  160.0055 H   0  0  0  0  0  0  0  0  0  0  0  0
  151.8768  143.3019  162.6046 H   0  0  0  0  0  0  0  0  0  0  0  0
  152.8201  144.7535  162.2869 H   0  0  0  0  0  0  0  0  0  0  0  0
  153.6202  143.1986  162.3604 H   0  0  0  0  0  0  0  0  0  0  0  0
  151.3445  141.6986  160.6406 H   0  0  0  0  0  0  0  0  0  0  0  0
  154.3324  141.4493  160.0446 H   0  0  0  0  0  0  0  0  0  0  0  0
  153.2085  140.0977  160.1411 H   0  0  0  0  0  0  0  0  0  0  0  0
  153.5337  141.0578  161.5669 H   0  0  0  0  0  0  0  0  0  0  0  0
  151.7162  140.8956  158.3610 H   0  0  0  0  0  0  0  0  0  0  0  0
  152.8391  142.1935  158.0326 H   0  0  0  0  0  0  0  0  0  0  0  0
  149.9924  143.5762  156.4411 H   0  0  0  0  0  0  0  0  0  0  0  0
  1  2  1  0  0  0  0
  1 18  1  0  0  0  0
  1 19  1  0  0  0  0
  1 20  1  0  0  0  0
  2  3  1  0  0  0  0
  2  9  1  0  0  0  0
  2 21  1  0  0  0  0
  3  4  1  0  0  0  0
  3 22  1  0  0  0  0
  3 23  1  0  0  0  0
  4  8  1  0  0  0  0
  4  5  1  0  0  0  0
  5  6  2  0  0  0  0
  5 24  1  0  0  0  0
  6  7  1  0  0  0  0
  7  8  2  0  0  0  0
  7 25  1  0  0  0  0
  9 10  1  0  0  0  0
  9 26  1  0  0  0  0
  9 42  1  0  0  0  0
 10 17  1  0  0  0  0
 10 11  1  0  0  0  0
 10 27  1  0  0  0  0
 11 12  1  0  0  0  0
 11 28  1  0  0  0  0
 11 29  1  0  0  0  0
 12 13  1  0  0  0  0
 12 30  1  0  0  0  0
 12 31  1  0  0  0  0
 13 14  1  0  0  0  0
 13 15  1  0  0  0  0
 13 32  1  0  0  0  0
 14 33  1  0  0  0  0
 14 34  1  0  0  0  0
 14 35  1  0  0  0  0
 15 16  1  0  0  0  0
 15 17  1  0  0  0  0
 15 36  1  0  0  0  0
 16 37  1  0  0  0  0
 16 38  1  0  0  0  0
 16 39  1  0  0  0  0
 17 40  1  0  0  0  0
 17 41  1  0  0  0  0
M  CHG  1   9   1
M  END
> <s_m_source_file>
AV-unprocessed.smi

> <i_m_source_file_index>
3181

> <i_lp_mmshare_version>
43012

> <i_f3d_flags>
0

> <s_epik_input>
bjFbY0hdbltjSF1uMVtDSDJdW0NAQEhdKFtDSDNdKVtOSF1bQ0BASF0yW0NIMl1bQ0gyXVtDQEBIXShbQ0gzXSlbQ0BASF0oW0NIM10pW0NIMl0y

> <s_epik_cmdline>
J2VwaWtfcHl0aG9uJywgJy1waCcsICc3LjAnLCAnLXRuJywgJzgnLCAnLW1hJywgJzIwMCcsICctbWV0YWxfYmluZGluZycsICctaW1hZScsICc8aW5maWxlLm1hZT4nLCAnLW9tYWUnLCAnPG91dGZpbGUubWFlPic=

> <r_lp_tautomer_probability>
1

> <r_epik_Ionization_Penalty>
0.000617007

> <r_epik_Ionization_Penalty_Charging>
0.000616215

> <r_epik_Ionization_Penalty_Neutral>
7.92544e-07

> <r_epik_State_Penalty>
0.000388807

> <r_epik_Charging_Adjusted_Penalty>
0.00100502

> <i_epik_Tot_Q>
1

> <i_epik_Tot_abs_Q>
1

> <r_epik_Metal_State_Penalty>
-0

> <b_epik_Metal_Only>
0

> <s_lp_Force_Field>
OPLS_2005

> <r_lp_Energy>
19.3641

> <b_lp_Chiralities_Consistent>
1

> <s_lp_Variant>
AV-unprocessed.smi:3181-10

> <Gold.Version>
5.8.1

> <Gold.Id.Protein>
6NUR|6NUR_protein|mol2

> <Gold.PLP.Fitness>
45.7955

> <Gold.PLP.PLP>
-37.2865

> <Gold.PLP.part.hbond>
-1.0000

> <Gold.PLP.part.metal>
0.0000

> <Gold.PLP.part.buried>
-3.1052

> <Gold.PLP.part.nonpolar>
-32.5535

> <Gold.PLP.part.repulsive>
0.4205

> <Gold.PLP.ligand.clash>
0.0000

> <Gold.PLP.ligand.torsion>
0.2585

> <Gold.PLP.Chemscore.Hbond>
2.0000

> <Gold.PLP.Chemscore.CHOScore>
0.9946

> <Gold.PLP.Chemscore.Metal>
0.0000

> <Gold.Chemscore.Hbonds>
donor molecule, donor type, donor heavy atom, donor atom, acceptor molecule, acceptor atom, score
      L1  H     9    42       P1  8028  2.00
      L1  C     7    25       P1 10175  1.00

> <Gold.PLP.Chemscore.Internal.Correction>
0.0422

> <Gold.Rescore>
     Score         DG    S(hbond)    S(metal)    S(lipo)     H(rot)  DE(clash)    DE(int)     intcor
     14.67     -15.14       1.00        0.00     100.20       2.11       0.17       0.30       ----

> <Gold.Chemscore.Fitness>
14.6676

> <Gold.Chemscore.DG>
-15.1436

> <Gold.Chemscore.ZeroCoef>
-5.4800

> <Gold.Chemscore.Hbond>
1.0000

> <Gold.Chemscore.Metal>
0.0000

> <Gold.Chemscore.Lipo>
100.2046

> <Gold.Chemscore.Internal_Hbond>
0.0000

> <Gold.Chemscore.DEClash>
0.1739

> <Gold.Chemscore.DEInternal>
0.3022

> <Gold.Chemscore.Rot>
2.1095

> <Gold.Chemscore.Internal.Correction>
   9.000000E+99

> <Gold.Chemscore.Hbonds>
donor molecule, donor type, donor heavy atom, donor atom, acceptor molecule, acceptor atom, score
      L1  H     9    42       P1  8028  1.00

> <Gold.Chemscore.Hbond.Weighted>
-3.3400

> <Gold.Chemscore.Metal.Weighted>
-0.0000

> <Gold.Chemscore.Lipo.Weighted>
-11.7239

> <Gold.Chemscore.Internal_Hbond.Weighted>
0.0000

> <Gold.Chemscore.DEClash.Weighted>
0.1739

> <Gold.Chemscore.DEInternal.Weighted>
0.3022

> <Gold.Chemscore.Rot.Weighted>
5.4003

> <Gold.Chemscore.Internal.Correction.Weighted>
   9.000000E+99

> <Gold.Protein.RotatedTorsions>
[ 6907 6896 6895 6894 ] final  120.63 input  -60.11 | X-H torsion
[ 7974 7965 7964 7962 ] final -178.07 input  175.53 | X-H torsion
[ 8008 7997 7996 7995 ] final -167.44 input   59.86 | X-H torsion
[ 10167 10162 10161 10158 ] final   40.59 input  -65.29 | X-H torsion
[ 10718 10713 10712 10709 ] final  164.19 input   66.30 | X-H torsion
[ 10763 10752 10751 10750 ] final  175.39 input  -60.55 | X-H torsion
[ 11005 11000 10999 10996 ] final   45.88 input  -57.11 | X-H torsion

> <Gold.Protein.ActiveResidues>
 VAL166  LYS551  ARG553  GLY616  TRP617  ASP618  TYR619  PRO620  LYS621  CYS622 
 ASP623  PHE694  ASN695  SER759  ASP760  ASP761  ALA762  ILE779  LEU786  VAL792 
 PHE793  MET794  SER795  GLU796  ALA797  LYS798  CYS799  TRP800  GLU811  SER814 

> <Gold.Protein.RotatedAtoms>
  152.4384  133.7402  159.6636 H   0  0  0  0  0  0  0  0  0  0  0  0  # atno 6907 bound_to 6896
  150.8270  133.8144  159.3120 H   0  0  0  0  0  0  0  0  0  0  0  0  # atno 6908 bound_to 6896
  151.5809  135.1061  160.0068 H   0  0  0  0  0  0  0  0  0  0  0  0  # atno 6909 bound_to 6896
  144.7129  140.0923  143.6420 H   0  0  0  0  0  0  0  0  0  0  0  0  # atno 7974 bound_to 7965
  155.8778  140.1004  157.1506 H   0  0  0  0  0  0  0  0  0  0  0  0  # atno 8008 bound_to 7997
  154.4002  140.1335  156.4221 H   0  0  0  0  0  0  0  0  0  0  0  0  # atno 8009 bound_to 7997
  155.7678  140.3461  155.5233 H   0  0  0  0  0  0  0  0  0  0  0  0  # atno 8010 bound_to 7997
  140.3727  144.2084  150.6132 H   0  0  0  0  0  0  0  0  0  0  0  0  # atno 10167 bound_to 10162
  157.0978  131.0435  151.2510 H   0  0  0  0  0  0  0  0  0  0  0  0  # atno 10718 bound_to 10713
  154.4669  135.2769  155.1671 H   0  0  0  0  0  0  0  0  0  0  0  0  # atno 10763 bound_to 10752
  154.3436  135.6165  153.5612 H   0  0  0  0  0  0  0  0  0  0  0  0  # atno 10764 bound_to 10752
  152.9860  135.5794  154.5043 H   0  0  0  0  0  0  0  0  0  0  0  0  # atno 10765 bound_to 10752
  140.1419  134.4572  155.8443 H   0  0  0  0  0  0  0  0  0  0  0  0  # atno 11005 bound_to 11000
  145.9609  139.2800  143.1156 LP  0  0  0  0  0  0  0  0  0  0  0  0  # atno 17320 bound_to 7965
  145.9221  140.9108  143.0399 LP  0  0  0  0  0  0  0  0  0  0  0  0  # atno 17321 bound_to 7965
  140.5017  143.2316  151.8669 LP  0  0  0  0  0  0  0  0  0  0  0  0  # atno 17342 bound_to 10162
  139.4802  144.5052  151.9007 LP  0  0  0  0  0  0  0  0  0  0  0  0  # atno 17343 bound_to 10162
  157.4667  130.7684  149.7285 LP  0  0  0  0  0  0  0  0  0  0  0  0  # atno 17370 bound_to 10713
  155.9881  130.3961  150.3133 LP  0  0  0  0  0  0  0  0  0  0  0  0  # atno 17371 bound_to 10713
  141.2187  133.6836  156.7262 LP  0  0  0  0  0  0  0  0  0  0  0  0  # atno 17394 bound_to 11000
  140.2711  134.8391  157.3848 LP  0  0  0  0  0  0  0  0  0  0  0  0  # atno 17395 bound_to 11000

$$$$
