AV-unprocessed.smi:885|AV-procd|sdf|4044|dock1
  -GOLD-   22720 1533D 1   1.00000     0.00000
 Structure written by MMmdl.
 40 42  0  0  0  0  0  0  0  0  2 V2000
  151.4153  144.8343  159.8604 C   0  0  0  0  0  0  0  0  0  0  0  0
  152.1662  144.2563  161.0729 C   0  0  0  0  0  0  0  0  0  0  0  0
  152.9022  142.9223  160.8549 C   0  0  0  0  0  0  0  0  0  0  0  0
  152.1670  141.8962  159.9760 C   0  0  0  0  0  0  0  0  0  0  0  0
  152.4342  142.0771  158.4655 C   0  0  0  0  0  0  0  0  0  0  0  0
  152.0774  140.8349  157.7050 C   0  0  0  0  0  0  0  0  0  0  0  0
  152.7673  139.7102  157.8563 N   0  0  0  0  0  0  0  0  0  0  0  0
  152.1184  138.8115  156.9979 O   0  0  0  0  0  0  0  0  0  0  0  0
  151.1204  139.5155  156.4106 C   0  0  0  0  0  0  0  0  0  0  0  0
  150.1879  138.8191  155.4727 C   0  0  2  0  0  0  0  0  0  0  0  0
  150.1680  139.4676  154.0757 C   0  0  0  0  0  0  0  0  0  0  0  0
  149.1693  138.7948  153.2221 N   0  3  0  0  0  0  0  0  0  0  0  0
  147.8358  138.7835  153.8559 C   0  0  0  0  0  0  0  0  0  0  0  0
  147.9225  138.1708  155.2653 C   0  0  0  0  0  0  0  0  0  0  0  0
  148.8825  138.8810  156.0418 O   0  0  0  0  0  0  0  0  0  0  0  0
  151.0362  140.7758  156.8275 N   0  0  0  0  0  0  0  0  0  0  0  0
  151.7790  143.3184  157.8274 C   0  0  0  0  0  0  0  0  0  0  0  0
  152.1182  144.6579  158.5047 C   0  0  0  0  0  0  0  0  0  0  0  0
  151.2562  145.8978  160.0422 H   0  0  0  0  0  0  0  0  0  0  0  0
  150.4156  144.4009  159.8091 H   0  0  0  0  0  0  0  0  0  0  0  0
  152.8945  144.9889  161.4231 H   0  0  0  0  0  0  0  0  0  0  0  0
  151.4529  144.1419  161.8899 H   0  0  0  0  0  0  0  0  0  0  0  0
  153.8929  143.1137  160.4413 H   0  0  0  0  0  0  0  0  0  0  0  0
  153.0851  142.4801  161.8350 H   0  0  0  0  0  0  0  0  0  0  0  0
  152.5387  140.9114  160.2632 H   0  0  0  0  0  0  0  0  0  0  0  0
  151.0978  141.8837  160.1917 H   0  0  0  0  0  0  0  0  0  0  0  0
  153.5118  142.2068  158.3518 H   0  0  0  0  0  0  0  0  0  0  0  0
  150.4995  137.7756  155.3978 H   0  0  0  0  0  0  0  0  0  0  0  0
  149.9164  140.5265  154.1510 H   0  0  0  0  0  0  0  0  0  0  0  0
  151.1493  139.4018  153.6051 H   0  0  0  0  0  0  0  0  0  0  0  0
  149.1142  139.2680  152.3313 H   0  0  0  0  0  0  0  0  0  0  0  0
  147.4568  139.8048  153.9121 H   0  0  0  0  0  0  0  0  0  0  0  0
  147.1438  138.2175  153.2319 H   0  0  0  0  0  0  0  0  0  0  0  0
  146.9535  138.2291  155.7612 H   0  0  0  0  0  0  0  0  0  0  0  0
  148.1905  137.1143  155.2146 H   0  0  0  0  0  0  0  0  0  0  0  0
  152.0973  143.3748  156.7855 H   0  0  0  0  0  0  0  0  0  0  0  0
  150.6957  143.1943  157.7968 H   0  0  0  0  0  0  0  0  0  0  0  0
  151.7762  145.4555  157.8444 H   0  0  0  0  0  0  0  0  0  0  0  0
  153.1965  144.7925  158.5991 H   0  0  0  0  0  0  0  0  0  0  0  0
  149.4638  137.8406  153.0697 H   0  0  0  0  0  0  0  0  0  0  0  0
  1 18  1  0  0  0  0
  1  2  1  0  0  0  0
  1 19  1  0  0  0  0
  1 20  1  0  0  0  0
  2  3  1  0  0  0  0
  2 21  1  0  0  0  0
  2 22  1  0  0  0  0
  3  4  1  0  0  0  0
  3 23  1  0  0  0  0
  3 24  1  0  0  0  0
  4  5  1  0  0  0  0
  4 25  1  0  0  0  0
  4 26  1  0  0  0  0
  5  6  1  0  0  0  0
  5 17  1  0  0  0  0
  5 27  1  0  0  0  0
  6 16  1  0  0  0  0
  6  7  2  0  0  0  0
  7  8  1  0  0  0  0
  8  9  1  0  0  0  0
  9 10  1  0  0  0  0
  9 16  2  0  0  0  0
 10 15  1  0  0  0  0
 10 11  1  0  0  0  0
 10 28  1  0  0  0  0
 11 12  1  0  0  0  0
 11 29  1  0  0  0  0
 11 30  1  0  0  0  0
 12 13  1  0  0  0  0
 12 31  1  0  0  0  0
 12 40  1  0  0  0  0
 13 14  1  0  0  0  0
 13 32  1  0  0  0  0
 13 33  1  0  0  0  0
 14 15  1  0  0  0  0
 14 34  1  0  0  0  0
 14 35  1  0  0  0  0
 17 18  1  0  0  0  0
 17 36  1  0  0  0  0
 17 37  1  0  0  0  0
 18 38  1  0  0  0  0
 18 39  1  0  0  0  0
M  CHG  1  12   1
M  END
> <s_m_source_file>
AV-unprocessed.smi

> <i_m_source_file_index>
885

> <i_lp_mmshare_version>
43012

> <i_f3d_flags>
0

> <s_epik_input>
W0NIMl0xW0NIMl1bQ0gyXVtDSDJdW0NIMl1bQ0gyXVtDSF0xYzJub2MobjIpW0NAQEhdM1tDSDJdW05IXVtDSDJdW0NIMl1PMw==

> <s_epik_cmdline>
J2VwaWtfcHl0aG9uJywgJy1waCcsICc3LjAnLCAnLXRuJywgJzgnLCAnLW1hJywgJzIwMCcsICctbWV0YWxfYmluZGluZycsICctaW1hZScsICc8aW5maWxlLm1hZT4nLCAnLW9tYWUnLCAnPG91dGZpbGUubWFlPic=

> <r_lp_tautomer_probability>
1

> <r_epik_Ionization_Penalty>
0.157575

> <r_epik_Ionization_Penalty_Charging>
0.157575

> <r_epik_Ionization_Penalty_Neutral>
1.7642e-13

> <r_epik_State_Penalty>
0.146877

> <r_epik_Charging_Adjusted_Penalty>
0.304452

> <i_epik_Tot_Q>
1

> <i_epik_Tot_abs_Q>
1

> <r_epik_Metal_State_Penalty>
0.146877

> <b_epik_Metal_Only>
0

> <s_lp_Force_Field>
OPLS_2005

> <r_lp_Energy>
20.1988

> <b_lp_Chiralities_Consistent>
1

> <s_lp_Variant>
AV-unprocessed.smi:885-1

> <Gold.Version>
5.8.1

> <Gold.Id.Protein>
6NUR|6NUR_protein|mol2

> <Gold.PLP.Fitness>
44.2547

> <Gold.PLP.PLP>
-33.8276

> <Gold.PLP.part.hbond>
-3.0000

> <Gold.PLP.part.metal>
0.0000

> <Gold.PLP.part.buried>
-3.2362

> <Gold.PLP.part.nonpolar>
-26.8578

> <Gold.PLP.part.repulsive>
0.1043

> <Gold.PLP.ligand.clash>
0.0000

> <Gold.PLP.ligand.torsion>
0.2911

> <Gold.PLP.Chemscore.Hbond>
3.6320

> <Gold.PLP.Chemscore.CHOScore>
0.0000

> <Gold.PLP.Chemscore.Metal>
0.0000

> <Gold.Chemscore.Hbonds>
donor molecule, donor type, donor heavy atom, donor atom, acceptor molecule, acceptor atom, score
      L1  H    12    31       P1  7957  0.86
      L1  H    12    40       P1  7948  1.53
      P1  H  7997  8010       L1     7  1.00

> <Gold.PLP.Chemscore.Internal.Correction>
0.1132

> <Gold.Rescore>
     Score         DG    S(hbond)    S(metal)    S(lipo)     H(rot)  DE(clash)    DE(int)     intcor
     20.96     -21.38       2.37        0.00      95.29       1.23       0.09       0.34       ----

> <Gold.Chemscore.Fitness>
20.9590

> <Gold.Chemscore.DG>
-21.3843

> <Gold.Chemscore.ZeroCoef>
-5.4800

> <Gold.Chemscore.Hbond>
2.3660

> <Gold.Chemscore.Metal>
0.0000

> <Gold.Chemscore.Lipo>
95.2863

> <Gold.Chemscore.Internal_Hbond>
0.0000

> <Gold.Chemscore.DEClash>
0.0884

> <Gold.Chemscore.DEInternal>
0.3369

> <Gold.Chemscore.Rot>
1.2292

> <Gold.Chemscore.Internal.Correction>
   9.000000E+99

> <Gold.Chemscore.Hbonds>
donor molecule, donor type, donor heavy atom, donor atom, acceptor molecule, acceptor atom, score
      L1  H    12    31       P1  7957  0.83
      L1  H    12    40       P1  7948  0.65
      P1  H  7997  8010       L1     7  0.26

> <Gold.Chemscore.Hbond.Weighted>
-7.9024

> <Gold.Chemscore.Metal.Weighted>
-0.0000

> <Gold.Chemscore.Lipo.Weighted>
-11.1485

> <Gold.Chemscore.Internal_Hbond.Weighted>
0.0000

> <Gold.Chemscore.DEClash.Weighted>
0.0884

> <Gold.Chemscore.DEInternal.Weighted>
0.3369

> <Gold.Chemscore.Rot.Weighted>
3.1467

> <Gold.Chemscore.Internal.Correction.Weighted>
   9.000000E+99

> <Gold.Protein.RotatedTorsions>
[ 6907 6896 6895 6894 ] final   35.27 input  -60.11 | X-H torsion
[ 7974 7965 7964 7962 ] final  103.00 input  175.53 | X-H torsion
[ 8008 7997 7996 7995 ] final   36.37 input   59.86 | X-H torsion
[ 10167 10162 10161 10158 ] final  120.84 input  -65.29 | X-H torsion
[ 10718 10713 10712 10709 ] final -115.85 input   66.30 | X-H torsion
[ 10763 10752 10751 10750 ] final  -14.05 input  -60.55 | X-H torsion
[ 11005 11000 10999 10996 ] final   -0.23 input  -57.11 | X-H torsion

> <Gold.Protein.ActiveResidues>
 VAL166  LYS551  ARG553  GLY616  TRP617  ASP618  TYR619  PRO620  LYS621  CYS622 
 ASP623  PHE694  ASN695  SER759  ASP760  ASP761  ALA762  ILE779  LEU786  VAL792 
 PHE793  MET794  SER795  GLU796  ALA797  LYS798  CYS799  TRP800  GLU811  SER814 

> <Gold.Protein.RotatedAtoms>
  152.1139  134.9255  160.0565 H   0  0  0  0  0  0  0  0  0  0  0  0  # atno 6907 bound_to 6896
  152.0422  133.3977  159.4350 H   0  0  0  0  0  0  0  0  0  0  0  0  # atno 6908 bound_to 6896
  150.6845  134.3323  159.4876 H   0  0  0  0  0  0  0  0  0  0  0  0  # atno 6909 bound_to 6896
  145.3517  139.2438  143.3555 H   0  0  0  0  0  0  0  0  0  0  0  0  # atno 7974 bound_to 7965
  155.1863  140.3304  155.4366 H   0  0  0  0  0  0  0  0  0  0  0  0  # atno 8008 bound_to 7997
  156.2458  140.1918  156.6908 H   0  0  0  0  0  0  0  0  0  0  0  0  # atno 8009 bound_to 7997
  154.6237  140.0592  156.9632 H   0  0  0  0  0  0  0  0  0  0  0  0  # atno 8010 bound_to 7997
  139.5957  144.7040  151.3183 H   0  0  0  0  0  0  0  0  0  0  0  0  # atno 10167 bound_to 10162
  156.0923  130.6103  150.8959 H   0  0  0  0  0  0  0  0  0  0  0  0  # atno 10718 bound_to 10713
  153.5225  135.7015  153.5724 H   0  0  0  0  0  0  0  0  0  0  0  0  # atno 10763 bound_to 10752
  153.3767  135.3931  155.1827 H   0  0  0  0  0  0  0  0  0  0  0  0  # atno 10764 bound_to 10752
  154.8693  135.3825  154.4715 H   0  0  0  0  0  0  0  0  0  0  0  0  # atno 10765 bound_to 10752
  140.6340  133.9549  155.8289 H   0  0  0  0  0  0  0  0  0  0  0  0  # atno 11005 bound_to 11000
  146.2965  140.4134  142.8720 LP  0  0  0  0  0  0  0  0  0  0  0  0  # atno 17320 bound_to 7965
  144.8713  140.7276  143.6045 LP  0  0  0  0  0  0  0  0  0  0  0  0  # atno 17321 bound_to 7965
  140.7209  143.7137  150.7750 LP  0  0  0  0  0  0  0  0  0  0  0  0  # atno 17342 bound_to 10162
  140.0702  143.5068  152.2583 LP  0  0  0  0  0  0  0  0  0  0  0  0  # atno 17343 bound_to 10162
  157.6076  131.0938  150.8852 LP  0  0  0  0  0  0  0  0  0  0  0  0  # atno 17370 bound_to 10713
  156.8998  130.5242  149.5283 LP  0  0  0  0  0  0  0  0  0  0  0  0  # atno 17371 bound_to 10713
  141.0655  134.0283  157.3600 LP  0  0  0  0  0  0  0  0  0  0  0  0  # atno 17394 bound_to 11000
  139.9105  135.0189  156.7672 LP  0  0  0  0  0  0  0  0  0  0  0  0  # atno 17395 bound_to 11000

$$$$
