AV-unprocessed.smi:2212|AV-procd|sdf|8952|dock9
  -GOLD-   2272012173D 1   1.00000     0.00000
 Structure written by MMmdl.
 32 33  0  0  0  0  0  0  0  0  2 V2000
  153.1415  142.3539  160.3401 C   0  0  0  0  0  0  0  0  0  0  0  0
  151.7890  142.7629  160.1783 O   0  0  0  0  0  0  0  0  0  0  0  0
  151.4585  143.4278  158.9539 C   0  0  0  0  0  0  0  0  0  0  0  0
  151.7141  142.5362  157.7292 C   0  0  0  0  0  0  0  0  0  0  0  0
  150.6449  142.6555  156.7422 N   0  0  0  0  0  0  0  0  0  0  0  0
  150.1054  141.6383  156.0551 C   0  0  0  0  0  0  0  0  0  0  0  0
  150.4330  140.4612  156.2089 O   0  0  0  0  0  0  0  0  0  0  0  0
  149.1744  142.0690  155.1874 N   0  0  0  0  0  0  0  0  0  0  0  0
  148.4216  141.2809  154.2801 C   0  0  0  0  0  0  0  0  0  0  0  0
  148.7934  140.1311  153.7123 N   0  3  0  0  0  0  0  0  0  0  0  0
  147.7817  139.6895  152.8976 C   0  0  0  0  0  0  0  0  0  0  0  0
  146.7844  140.6285  153.0022 C   0  0  0  0  0  0  0  0  0  0  0  0
  147.1727  141.6335  153.8665 O   0  0  0  0  0  0  0  0  0  0  0  0
  150.0551  144.0365  159.1385 C   0  0  0  0  0  0  0  0  0  0  0  0
  150.7068  145.3104  159.6778 C   0  0  0  0  0  0  0  0  0  0  0  0
  151.9845  144.8790  158.9555 C   0  0  0  0  0  0  0  0  0  0  0  0
  153.2852  141.9967  161.3597 H   0  0  0  0  0  0  0  0  0  0  0  0
  153.8451  143.1688  160.1744 H   0  0  0  0  0  0  0  0  0  0  0  0
  153.3962  141.5317  159.6717 H   0  0  0  0  0  0  0  0  0  0  0  0
  152.6745  142.7823  157.2731 H   0  0  0  0  0  0  0  0  0  0  0  0
  151.7983  141.4892  158.0193 H   0  0  0  0  0  0  0  0  0  0  0  0
  150.3166  143.5907  156.5499 H   0  0  0  0  0  0  0  0  0  0  0  0
  149.6690  139.6378  153.8379 H   0  0  0  0  0  0  0  0  0  0  0  0
  147.8712  138.7705  152.3363 H   0  0  0  0  0  0  0  0  0  0  0  0
  145.8038  140.7271  152.5595 H   0  0  0  0  0  0  0  0  0  0  0  0
  149.5393  144.2080  158.1925 H   0  0  0  0  0  0  0  0  0  0  0  0
  149.4149  143.5134  159.8497 H   0  0  0  0  0  0  0  0  0  0  0  0
  150.2665  146.2389  159.3138 H   0  0  0  0  0  0  0  0  0  0  0  0
  150.8115  145.3073  160.7639 H   0  0  0  0  0  0  0  0  0  0  0  0
  152.8983  145.0611  159.5197 H   0  0  0  0  0  0  0  0  0  0  0  0
  152.0536  145.3007  157.9513 H   0  0  0  0  0  0  0  0  0  0  0  0
  148.9923  143.0616  155.1659 H   0  0  0  0  0  0  0  0  0  0  0  0
  1  2  1  0  0  0  0
  1 17  1  0  0  0  0
  1 18  1  0  0  0  0
  1 19  1  0  0  0  0
  2  3  1  0  0  0  0
  3 16  1  0  0  0  0
  3  4  1  0  0  0  0
  3 14  1  0  0  0  0
  4  5  1  0  0  0  0
  4 20  1  0  0  0  0
  4 21  1  0  0  0  0
  5 22  1  0  0  0  0
  5  6  1  0  0  0  0
  6  8  1  0  0  0  0
  6  7  2  0  0  0  0
  8  9  1  0  0  0  0
  8 32  1  0  0  0  0
  9 13  1  0  0  0  0
  9 10  2  0  0  0  0
 10 23  1  0  0  0  0
 10 11  1  0  0  0  0
 11 24  1  0  0  0  0
 11 12  2  0  0  0  0
 12 25  1  0  0  0  0
 12 13  1  0  0  0  0
 14 15  1  0  0  0  0
 14 26  1  0  0  0  0
 14 27  1  0  0  0  0
 15 16  1  0  0  0  0
 15 28  1  0  0  0  0
 15 29  1  0  0  0  0
 16 30  1  0  0  0  0
 16 31  1  0  0  0  0
M  CHG  1  10   1
M  END
> <s_m_source_file>
AV-unprocessed.smi

> <i_m_source_file_index>
2212

> <i_lp_mmshare_version>
43012

> <i_f3d_flags>
0

> <s_epik_input>
W0NIMl0xW0NIMl1bQ0gyXUMxKE9bQ0gzXSlbQ0gyXVtOSF1DKD1PKVtOSF1jMm5bY0hdW2NIXW8y

> <s_epik_cmdline>
J2VwaWtfcHl0aG9uJywgJy1waCcsICc3LjAnLCAnLXRuJywgJzgnLCAnLW1hJywgJzIwMCcsICctbWV0YWxfYmluZGluZycsICctaW1hZScsICc8aW5maWxlLm1hZT4nLCAnLW9tYWUnLCAnPG91dGZpbGUubWFlPic=

> <r_epik_Ionization_Penalty>
6.73843

> <r_epik_Ionization_Penalty_Charging>
6.66704

> <r_epik_Ionization_Penalty_Neutral>
0.0713889

> <r_epik_State_Penalty>
1.94951

> <r_epik_Charging_Adjusted_Penalty>
8.61656

> <i_epik_Tot_Q>
1

> <i_epik_Tot_abs_Q>
1

> <r_epik_Metal_State_Penalty>
1.97013

> <b_epik_Metal_Only>
0

> <s_lp_Force_Field>
OPLS_2005

> <r_lp_Energy>
24.3681

> <b_lp_Chiralities_Consistent>
1

> <s_lp_Variant>
AV-unprocessed.smi:2212-2

> <Gold.Version>
5.8.1

> <Gold.Id.Protein>
6NUR|6NUR_protein|mol2

> <Gold.PLP.Fitness>
38.6694

> <Gold.PLP.PLP>
-32.0087

> <Gold.PLP.part.hbond>
-3.2132

> <Gold.PLP.part.metal>
0.0000

> <Gold.PLP.part.buried>
-2.6880

> <Gold.PLP.part.nonpolar>
-26.9112

> <Gold.PLP.part.repulsive>
0.5895

> <Gold.PLP.ligand.clash>
0.0000

> <Gold.PLP.ligand.torsion>
1.1980

> <Gold.PLP.Chemscore.Hbond>
1.9280

> <Gold.PLP.Chemscore.CHOScore>
1.0000

> <Gold.PLP.Chemscore.Metal>
0.0000

> <Gold.Chemscore.Hbonds>
donor molecule, donor type, donor heavy atom, donor atom, acceptor molecule, acceptor atom, score
      L1  H     5    22       P1  8028  0.94
      L1  H     8    32       P1  8028  1.00
      L1  C    12    25       P1 10175  1.00

> <Gold.PLP.Chemscore.Internal.Correction>
0.2728

> <Gold.Rescore>
     Score         DG    S(hbond)    S(metal)    S(lipo)     H(rot)  DE(clash)    DE(int)     intcor
     15.14     -16.33       1.95        0.00      73.40       1.67       0.18       1.01       ----

> <Gold.Chemscore.Fitness>
15.1440

> <Gold.Chemscore.DG>
-16.3312

> <Gold.Chemscore.ZeroCoef>
-5.4800

> <Gold.Chemscore.Hbond>
1.9537

> <Gold.Chemscore.Metal>
0.0000

> <Gold.Chemscore.Lipo>
73.4042

> <Gold.Chemscore.Internal_Hbond>
0.0000

> <Gold.Chemscore.DEClash>
0.1782

> <Gold.Chemscore.DEInternal>
1.0091

> <Gold.Chemscore.Rot>
1.6650

> <Gold.Chemscore.Internal.Correction>
   9.000000E+99

> <Gold.Chemscore.Hbonds>
donor molecule, donor type, donor heavy atom, donor atom, acceptor molecule, acceptor atom, score
      L1  H     5    22       P1  8028  0.86
      L1  H     8    32       P1  8028  1.00

> <Gold.Chemscore.Hbond.Weighted>
-6.5254

> <Gold.Chemscore.Metal.Weighted>
-0.0000

> <Gold.Chemscore.Lipo.Weighted>
-8.5883

> <Gold.Chemscore.Internal_Hbond.Weighted>
0.0000

> <Gold.Chemscore.DEClash.Weighted>
0.1782

> <Gold.Chemscore.DEInternal.Weighted>
1.0091

> <Gold.Chemscore.Rot.Weighted>
4.2625

> <Gold.Chemscore.Internal.Correction.Weighted>
   9.000000E+99

> <Gold.Protein.RotatedTorsions>
[ 6907 6896 6895 6894 ] final  152.14 input  -60.11 | X-H torsion
[ 7974 7965 7964 7962 ] final  -83.51 input  175.53 | X-H torsion
[ 8008 7997 7996 7995 ] final   77.19 input   59.86 | X-H torsion
[ 10167 10162 10161 10158 ] final   28.87 input  -65.29 | X-H torsion
[ 10718 10713 10712 10709 ] final   71.07 input   66.30 | X-H torsion
[ 10763 10752 10751 10750 ] final   62.89 input  -60.55 | X-H torsion
[ 11005 11000 10999 10996 ] final  176.43 input  -57.11 | X-H torsion

> <Gold.Protein.ActiveResidues>
 VAL166  LYS551  ARG553  GLY616  TRP617  ASP618  TYR619  PRO620  LYS621  CYS622 
 ASP623  PHE694  ASN695  SER759  ASP760  ASP761  ALA762  ILE779  LEU786  VAL792 
 PHE793  MET794  SER795  GLU796  ALA797  LYS798  CYS799  TRP800  GLU811  SER814 

> <Gold.Protein.RotatedAtoms>
  152.0909  133.4200  159.4542 H   0  0  0  0  0  0  0  0  0  0  0  0  # atno 6907 bound_to 6896
  150.6862  134.2873  159.4661 H   0  0  0  0  0  0  0  0  0  0  0  0  # atno 6908 bound_to 6896
  152.0724  134.9524  160.0625 H   0  0  0  0  0  0  0  0  0  0  0  0  # atno 6909 bound_to 6896
  145.5190  140.9533  143.1665 H   0  0  0  0  0  0  0  0  0  0  0  0  # atno 7974 bound_to 7965
  155.8381  140.3463  155.5614 H   0  0  0  0  0  0  0  0  0  0  0  0  # atno 8008 bound_to 7997
  155.8170  140.0907  157.1890 H   0  0  0  0  0  0  0  0  0  0  0  0  # atno 8009 bound_to 7997
  154.4004  140.1437  156.3442 H   0  0  0  0  0  0  0  0  0  0  0  0  # atno 8010 bound_to 7997
  140.4815  144.0609  150.6267 H   0  0  0  0  0  0  0  0  0  0  0  0  # atno 10167 bound_to 10162
  157.6433  130.9509  150.0738 H   0  0  0  0  0  0  0  0  0  0  0  0  # atno 10718 bound_to 10713
  152.9998  135.5449  154.6264 H   0  0  0  0  0  0  0  0  0  0  0  0  # atno 10763 bound_to 10752
  154.5552  135.2829  155.0973 H   0  0  0  0  0  0  0  0  0  0  0  0  # atno 10764 bound_to 10752
  154.2197  135.6452  153.5193 H   0  0  0  0  0  0  0  0  0  0  0  0  # atno 10765 bound_to 10752
  140.3731  134.7013  157.4404 H   0  0  0  0  0  0  0  0  0  0  0  0  # atno 11005 bound_to 11000
  144.7686  139.6787  143.7204 LP  0  0  0  0  0  0  0  0  0  0  0  0  # atno 17320 bound_to 7965
  146.2118  139.5479  142.9676 LP  0  0  0  0  0  0  0  0  0  0  0  0  # atno 17321 bound_to 7965
  140.3852  143.2781  152.0124 LP  0  0  0  0  0  0  0  0  0  0  0  0  # atno 17342 bound_to 10162
  139.4834  144.6122  151.7412 LP  0  0  0  0  0  0  0  0  0  0  0  0  # atno 17343 bound_to 10162
  156.1734  130.3647  149.9133 LP  0  0  0  0  0  0  0  0  0  0  0  0  # atno 17370 bound_to 10713
  156.7103  130.8967  151.3608 LP  0  0  0  0  0  0  0  0  0  0  0  0  # atno 17371 bound_to 10713
  140.0536  134.6095  155.8831 LP  0  0  0  0  0  0  0  0  0  0  0  0  # atno 17394 bound_to 11000
  141.1948  133.6584  156.5613 LP  0  0  0  0  0  0  0  0  0  0  0  0  # atno 17395 bound_to 11000

$$$$
