AV-unprocessed.smi:101|AV-procd|sdf|919|dock10
  -GOLD-   2262017423D 1   1.00000     0.00000
 Structure written by MMmdl.
 44 46  0  0  0  0  0  0  0  0  1 V2000
  142.0362  140.3046  155.3274 C   0  0  0  0  0  0  0  0  0  0  0  0
  143.2941  139.9522  156.1039 C   0  0  0  0  0  0  0  0  0  0  0  0
  144.4436  139.5692  155.4916 C   0  0  0  0  0  0  0  0  0  0  0  0
  145.6068  139.2391  156.1740 N   0  0  0  0  0  0  0  0  0  0  0  0
  146.8520  138.8038  155.4374 C   0  0  2  0  0  0  0  0  0  0  0  0
  147.8250  139.7921  155.5880 O   0  0  0  0  0  0  0  0  0  0  0  0
  148.4847  140.0044  154.3476 C   0  0  2  0  0  0  0  0  0  0  0  0
  149.1381  141.3928  154.3040 C   0  0  0  0  0  0  0  0  0  0  0  0
  149.6380  141.7091  155.5925 O   0  0  0  0  0  0  0  0  0  0  0  0
  150.8134  141.1964  156.0046 C   0  0  0  0  0  0  0  0  0  0  0  0
  151.3732  140.2459  155.4543 O   0  0  0  0  0  0  0  0  0  0  0  0
  151.3675  141.9010  157.1968 C   0  0  0  0  0  0  0  0  0  0  0  0
  151.9780  141.1467  158.2258 C   0  0  0  0  0  0  0  0  0  0  0  0
  152.5120  141.7841  159.3626 C   0  0  0  0  0  0  0  0  0  0  0  0
  152.4438  143.1843  159.4834 C   0  0  0  0  0  0  0  0  0  0  0  0
  151.8399  143.9464  158.4664 C   0  0  0  0  0  0  0  0  0  0  0  0
  151.3035  143.3103  157.3297 C   0  0  0  0  0  0  0  0  0  0  0  0
  147.3934  139.7482  153.3003 C   0  0  2  0  0  0  0  0  0  0  0  0
  146.6009  140.9024  153.0884 O   0  0  0  0  0  0  0  0  0  0  0  0
  146.5633  138.6371  153.9335 C   0  0  1  0  0  0  0  0  0  0  0  0
  147.0028  137.3778  153.4634 O   0  0  0  0  0  0  0  0  0  0  0  0
  145.6130  139.2665  157.5835 C   0  0  0  0  0  0  0  0  0  0  0  0
  146.5944  138.9523  158.2558 O   0  0  0  0  0  0  0  0  0  0  0  0
  144.4352  139.6659  158.2127 N   0  0  0  0  0  0  0  0  0  0  0  0
  143.2496  140.0253  157.5669 C   0  0  0  0  0  0  0  0  0  0  0  0
  142.2739  140.3654  158.2340 O   0  0  0  0  0  0  0  0  0  0  0  0
  144.4375  139.6931  159.2218 H   0  0  0  0  0  0  0  0  0  0  0  0
  142.1851  140.2103  154.2513 H   0  0  0  0  0  0  0  0  0  0  0  0
  141.7357  141.3324  155.5345 H   0  0  0  0  0  0  0  0  0  0  0  0
  141.2160  139.6438  155.6101 H   0  0  0  0  0  0  0  0  0  0  0  0
  144.4456  139.5150  154.4127 H   0  0  0  0  0  0  0  0  0  0  0  0
  147.2131  137.8960  155.9249 H   0  0  0  0  0  0  0  0  0  0  0  0
  149.2501  139.2338  154.2385 H   0  0  0  0  0  0  0  0  0  0  0  0
  149.9655  141.3935  153.5932 H   0  0  0  0  0  0  0  0  0  0  0  0
  148.4185  142.1451  153.9773 H   0  0  0  0  0  0  0  0  0  0  0  0
  152.0443  140.0706  158.1541 H   0  0  0  0  0  0  0  0  0  0  0  0
  152.9756  141.1974  160.1419 H   0  0  0  0  0  0  0  0  0  0  0  0
  152.8547  143.6730  160.3546 H   0  0  0  0  0  0  0  0  0  0  0  0
  151.7881  145.0212  158.5573 H   0  0  0  0  0  0  0  0  0  0  0  0
  150.8471  143.9253  156.5679 H   0  0  0  0  0  0  0  0  0  0  0  0
  147.8174  139.4579  152.3379 H   0  0  0  0  0  0  0  0  0  0  0  0
  145.7424  140.6308  152.8012 H   0  0  0  0  0  0  0  0  0  0  0  0
  145.4976  138.7357  153.7190 H   0  0  0  0  0  0  0  0  0  0  0  0
  147.8177  137.4971  153.0001 H   0  0  0  0  0  0  0  0  0  0  0  0
  1  2  1  0  0  0  0
  1 28  1  0  0  0  0
  1 29  1  0  0  0  0
  1 30  1  0  0  0  0
  2 25  1  0  0  0  0
  2  3  2  0  0  0  0
  3  4  1  0  0  0  0
  3 31  1  0  0  0  0
  4  5  1  0  0  0  0
  4 22  1  0  0  0  0
  5 20  1  0  0  0  0
  5  6  1  0  0  0  0
  5 32  1  0  0  0  0
  6  7  1  0  0  0  0
  7  8  1  0  0  0  0
  7 18  1  0  0  0  0
  7 33  1  0  0  0  0
  8  9  1  0  0  0  0
  8 34  1  0  0  0  0
  8 35  1  0  0  0  0
  9 10  1  0  0  0  0
 10 11  2  0  0  0  0
 10 12  1  0  0  0  0
 12 17  1  0  0  0  0
 12 13  2  0  0  0  0
 13 14  1  0  0  0  0
 13 36  1  0  0  0  0
 14 15  2  0  0  0  0
 14 37  1  0  0  0  0
 15 16  1  0  0  0  0
 15 38  1  0  0  0  0
 16 17  2  0  0  0  0
 16 39  1  0  0  0  0
 17 40  1  0  0  0  0
 18 19  1  0  0  0  0
 18 20  1  0  0  0  0
 18 41  1  0  0  0  0
 19 42  1  0  0  0  0
 20 21  1  0  0  0  0
 20 43  1  0  0  0  0
 21 44  1  0  0  0  0
 22 23  2  0  0  0  0
 22 24  1  0  0  0  0
 24 27  1  0  0  0  0
 24 25  1  0  0  0  0
 25 26  2  0  0  0  0
M  END
> <s_m_source_file>
AV-unprocessed.smi

> <i_m_source_file_index>
101

> <i_lp_mmshare_version>
43012

> <i_f3d_flags>
0

> <s_epik_input>
Tz1jMVtuSF1jKD1PKW4oW2NIXWMxW0NIM10pW0NAQEhdMk9bQ0BIXShbQ0BASF0oW09IXSlbQ0BIXTJbT0hdKVtDSDJdT0MoPU8pYzNbY0hdW2NIXVtjSF1bY0hdW2NIXTM=

> <s_epik_cmdline>
J2VwaWtfcHl0aG9uJywgJy1waCcsICc3LjAnLCAnLXRuJywgJzgnLCAnLW1hJywgJzIwMCcsICctbWV0YWxfYmluZGluZycsICctaW1hZScsICc8aW5maWxlLm1hZT4nLCAnLW9tYWUnLCAnPG91dGZpbGUubWFlPic=

> <r_lp_tautomer_probability>
0.999537

> <r_epik_Ionization_Penalty>
0.00263537

> <r_epik_Ionization_Penalty_Charging>
0.00263428

> <r_epik_Ionization_Penalty_Neutral>
1.09111e-06

> <r_epik_State_Penalty>
0.00183335

> <r_epik_Charging_Adjusted_Penalty>
0.00446763

> <i_epik_Tot_Q>
0

> <i_epik_Tot_abs_Q>
0

> <r_epik_Metal_State_Penalty>
1.00528

> <b_epik_Metal_Only>
0

> <s_epik_Chemistry_Notes>
This compound has an ester and may undergo hydrolysis at high or low pH. This compound contains an acetal/aminal-like group ( X-CH(R)-Y where X, Y are N, S, or O) that may be acid/base labile, releasing an aldehyde.

> <s_lp_Force_Field>
OPLS_2005

> <r_lp_Energy>
30.9331

> <b_lp_Chiralities_Consistent>
1

> <s_lp_Variant>
AV-unprocessed.smi:101-7

> <Gold.Version>
5.8.1

> <Gold.Id.Protein>
6NUR|6NUR_protein|mol2

> <Gold.PLP.Fitness>
42.6967

> <Gold.PLP.PLP>
-34.5505

> <Gold.PLP.part.hbond>
-3.8528

> <Gold.PLP.part.metal>
0.0000

> <Gold.PLP.part.buried>
-4.2184

> <Gold.PLP.part.nonpolar>
-26.7548

> <Gold.PLP.part.repulsive>
0.2394

> <Gold.PLP.ligand.clash>
0.0000

> <Gold.PLP.ligand.torsion>
1.3374

> <Gold.PLP.Chemscore.Hbond>
2.5945

> <Gold.PLP.Chemscore.CHOScore>
1.0000

> <Gold.PLP.Chemscore.Metal>
0.0000

> <Gold.Chemscore.Hbonds>
donor molecule, donor type, donor heavy atom, donor atom, acceptor molecule, acceptor atom, score
      L1  H    19    42       P1 10175  0.88
      L1  H    21    44       P1  7948  0.64
      P1  H  7989  7998       L1    11  0.90
      L1  C     3    31       P1 10175  1.00

> <Gold.PLP.Chemscore.Internal.Correction>
0.0373

> <Gold.Rescore>
     Score         DG    S(hbond)    S(metal)    S(lipo)     H(rot)  DE(clash)    DE(int)     intcor
     13.45     -15.02       2.47        0.00      83.61       3.32       0.19       1.38       ----

> <Gold.Chemscore.Fitness>
13.4487

> <Gold.Chemscore.DG>
-15.0189

> <Gold.Chemscore.ZeroCoef>
-5.4800

> <Gold.Chemscore.Hbond>
2.4696

> <Gold.Chemscore.Metal>
0.0000

> <Gold.Chemscore.Lipo>
83.6110

> <Gold.Chemscore.Internal_Hbond>
0.0000

> <Gold.Chemscore.DEClash>
0.1901

> <Gold.Chemscore.DEInternal>
1.3802

> <Gold.Chemscore.Rot>
3.3172

> <Gold.Chemscore.Internal.Correction>
   9.000000E+99

> <Gold.Chemscore.Hbonds>
donor molecule, donor type, donor heavy atom, donor atom, acceptor molecule, acceptor atom, score
      L1  H    19    42       P1 10175  0.52
      L1  H    21    44       P1  7948  0.61
      P1  H  7989  7998       L1    11  0.37

> <Gold.Chemscore.Hbond.Weighted>
-8.2485

> <Gold.Chemscore.Metal.Weighted>
-0.0000

> <Gold.Chemscore.Lipo.Weighted>
-9.7825

> <Gold.Chemscore.Internal_Hbond.Weighted>
0.0000

> <Gold.Chemscore.DEClash.Weighted>
0.1901

> <Gold.Chemscore.DEInternal.Weighted>
1.3802

> <Gold.Chemscore.Rot.Weighted>
8.4920

> <Gold.Chemscore.Internal.Correction.Weighted>
   9.000000E+99

> <Gold.Protein.RotatedTorsions>
[ 6907 6896 6895 6894 ] final   56.46 input  -60.11 | X-H torsion
[ 7974 7965 7964 7962 ] final   74.50 input  175.53 | X-H torsion
[ 8008 7997 7996 7995 ] final    2.57 input   59.86 | X-H torsion
[ 10167 10162 10161 10158 ] final -143.47 input  -65.29 | X-H torsion
[ 10718 10713 10712 10709 ] final   -1.39 input   66.30 | X-H torsion
[ 10763 10752 10751 10750 ] final -162.06 input  -60.55 | X-H torsion
[ 11005 11000 10999 10996 ] final  -20.94 input  -57.11 | X-H torsion

> <Gold.Protein.ActiveResidues>
 VAL166  LYS551  ARG553  GLY616  TRP617  ASP618  TYR619  PRO620  LYS621  CYS622 
 ASP623  PHE694  ASN695  SER759  ASP760  ASP761  ALA762  ILE779  LEU786  VAL792 
 PHE793  MET794  SER795  GLU796  ALA797  LYS798  CYS799  TRP800  GLU811  SER814 

> <Gold.Protein.RotatedAtoms>
  152.3638  134.6834  160.0198 H   0  0  0  0  0  0  0  0  0  0  0  0  # atno 6907 bound_to 6896
  151.7149  133.3307  159.3308 H   0  0  0  0  0  0  0  0  0  0  0  0  # atno 6908 bound_to 6896
  150.7623  134.6434  159.6294 H   0  0  0  0  0  0  0  0  0  0  0  0  # atno 6909 bound_to 6896
  145.7275  139.2671  143.1560 H   0  0  0  0  0  0  0  0  0  0  0  0  # atno 7974 bound_to 7965
  154.6932  140.2657  155.6792 H   0  0  0  0  0  0  0  0  0  0  0  0  # atno 8008 bound_to 7997
  156.2739  140.2787  156.1441 H   0  0  0  0  0  0  0  0  0  0  0  0  # atno 8009 bound_to 7997
  155.0867  140.0373  157.2646 H   0  0  0  0  0  0  0  0  0  0  0  0  # atno 8010 bound_to 7997
  139.7991  143.7859  152.2656 H   0  0  0  0  0  0  0  0  0  0  0  0  # atno 10167 bound_to 10162
  156.8063  130.5409  149.5715 H   0  0  0  0  0  0  0  0  0  0  0  0  # atno 10718 bound_to 10713
  154.7248  135.3033  154.8989 H   0  0  0  0  0  0  0  0  0  0  0  0  # atno 10763 bound_to 10752
  153.9850  135.6725  153.4755 H   0  0  0  0  0  0  0  0  0  0  0  0  # atno 10764 bound_to 10752
  153.0865  135.4981  154.8525 H   0  0  0  0  0  0  0  0  0  0  0  0  # atno 10765 bound_to 10752
  140.8513  133.7855  155.9969 H   0  0  0  0  0  0  0  0  0  0  0  0  # atno 11005 bound_to 11000
  146.0568  140.8012  142.9754 LP  0  0  0  0  0  0  0  0  0  0  0  0  # atno 17320 bound_to 7965
  144.6901  140.3137  143.7244 LP  0  0  0  0  0  0  0  0  0  0  0  0  # atno 17321 bound_to 7965
  139.7973  144.7387  150.9872 LP  0  0  0  0  0  0  0  0  0  0  0  0  # atno 17342 bound_to 10162
  140.7820  143.4380  151.0594 LP  0  0  0  0  0  0  0  0  0  0  0  0  # atno 17343 bound_to 10162
  156.1071  130.6012  150.9988 LP  0  0  0  0  0  0  0  0  0  0  0  0  # atno 17370 bound_to 10713
  157.6528  131.0894  150.8013 LP  0  0  0  0  0  0  0  0  0  0  0  0  # atno 17371 bound_to 10713
  140.8787  134.2638  157.5155 LP  0  0  0  0  0  0  0  0  0  0  0  0  # atno 17394 bound_to 11000
  139.8704  134.9604  156.4363 LP  0  0  0  0  0  0  0  0  0  0  0  0  # atno 17395 bound_to 11000

$$$$
