AV-unprocessed.smi:1878|AV-procd|sdf|7626|dock3
  -GOLD-   22720 9353D 1   1.00000     0.00000
 Structure written by MMmdl.
 35 36  0  0  0  0  0  0  0  0  1 V2000
  146.2046  138.8644  154.2877 O   0  0  0  0  0  0  0  0  0  0  0  0
  146.9925  138.1428  153.6766 C   0  0  0  0  0  0  0  0  0  0  0  0
  146.6133  137.2603  152.7424 N   0  0  0  0  0  0  0  0  0  0  0  0
  145.2337  137.0066  152.3384 C   0  0  0  0  0  0  0  0  0  0  0  0
  145.0032  135.5312  151.9696 C   0  0  0  0  0  0  0  0  0  0  0  0
  143.6948  135.3099  151.8504 F   0  0  0  0  0  0  0  0  0  0  0  0
  145.5910  135.2502  150.8063 F   0  0  0  0  0  0  0  0  0  0  0  0
  145.4865  134.7221  152.9124 F   0  0  0  0  0  0  0  0  0  0  0  0
  148.3273  138.1393  153.8345 N   0  0  0  0  0  0  0  0  0  0  0  0
  149.1138  138.9167  154.7270 C   0  0  0  0  0  0  0  0  0  0  0  0
  148.7677  139.1762  156.0744 C   0  0  0  0  0  0  0  0  0  0  0  0
  149.6401  139.9492  156.8643 C   0  0  0  0  0  0  0  0  0  0  0  0
  150.8345  140.4309  156.2904 C   0  0  0  0  0  0  0  0  0  0  0  0
  151.6981  141.2051  157.0800 N   0  0  0  0  0  0  0  0  0  0  0  0
  151.1752  142.4936  157.5036 C   0  0  0  0  0  0  0  0  0  0  0  0
  152.1035  142.9585  158.6285 C   0  0  0  0  0  0  0  0  0  0  0  0
  152.7569  141.6748  159.1550 C   0  0  0  0  0  0  0  0  0  0  0  0
  152.1765  140.5538  158.2883 C   0  0  0  0  0  0  0  0  0  0  0  0
  151.1785  140.1735  155.0058 N   0  0  0  0  0  0  0  0  0  0  0  0
  150.3379  139.4324  154.2537 C   0  0  0  0  0  0  0  0  0  0  0  0
  147.3271  136.7096  152.2884 H   0  0  0  0  0  0  0  0  0  0  0  0
  144.5405  137.3163  153.1224 H   0  0  0  0  0  0  0  0  0  0  0  0
  145.0192  137.6378  151.4755 H   0  0  0  0  0  0  0  0  0  0  0  0
  148.8483  137.5490  153.2026 H   0  0  0  0  0  0  0  0  0  0  0  0
  147.8643  138.7903  156.5203 H   0  0  0  0  0  0  0  0  0  0  0  0
  149.3965  140.1630  157.8949 H   0  0  0  0  0  0  0  0  0  0  0  0
  151.1606  143.2033  156.6760 H   0  0  0  0  0  0  0  0  0  0  0  0
  150.1559  142.3912  157.8786 H   0  0  0  0  0  0  0  0  0  0  0  0
  152.8685  143.6286  158.2344 H   0  0  0  0  0  0  0  0  0  0  0  0
  151.5575  143.4968  159.4040 H   0  0  0  0  0  0  0  0  0  0  0  0
  153.8388  141.7302  159.0290 H   0  0  0  0  0  0  0  0  0  0  0  0
  152.5536  141.5088  160.2132 H   0  0  0  0  0  0  0  0  0  0  0  0
  151.3529  140.0644  158.8106 H   0  0  0  0  0  0  0  0  0  0  0  0
  152.9258  139.7964  158.0564 H   0  0  0  0  0  0  0  0  0  0  0  0
  150.6527  139.2502  153.2362 H   0  0  0  0  0  0  0  0  0  0  0  0
  1  2  2  0  0  0  0
  2  3  1  0  0  0  0
  2  9  1  0  0  0  0
  3  4  1  0  0  0  0
  3 21  1  0  0  0  0
  4  5  1  0  0  0  0
  4 22  1  0  0  0  0
  4 23  1  0  0  0  0
  5  6  1  0  0  0  0
  5  7  1  0  0  0  0
  5  8  1  0  0  0  0
  9 10  1  0  0  0  0
  9 24  1  0  0  0  0
 10 20  1  0  0  0  0
 10 11  2  0  0  0  0
 11 12  1  0  0  0  0
 11 25  1  0  0  0  0
 12 13  2  0  0  0  0
 12 26  1  0  0  0  0
 13 14  1  0  0  0  0
 13 19  1  0  0  0  0
 14 18  1  0  0  0  0
 14 15  1  0  0  0  0
 15 16  1  0  0  0  0
 15 27  1  0  0  0  0
 15 28  1  0  0  0  0
 16 17  1  0  0  0  0
 16 29  1  0  0  0  0
 16 30  1  0  0  0  0
 17 18  1  0  0  0  0
 17 31  1  0  0  0  0
 17 32  1  0  0  0  0
 18 33  1  0  0  0  0
 18 34  1  0  0  0  0
 19 20  2  0  0  0  0
 20 35  1  0  0  0  0
M  END
> <s_m_source_file>
AV-unprocessed.smi

> <i_m_source_file_index>
1878

> <i_lp_mmshare_version>
43012

> <i_f3d_flags>
0

> <s_epik_input>
RkMoRikoRilbQ0gyXVtOSF1DKD1PKVtOSF1jMVtjSF1bY0hdYyhuW2NIXTEpTjJbQ0gyXVtDSDJdW0NIMl1bQ0gyXTI=

> <s_epik_cmdline>
J2VwaWtfcHl0aG9uJywgJy1waCcsICc3LjAnLCAnLXRuJywgJzgnLCAnLW1hJywgJzIwMCcsICctbWV0YWxfYmluZGluZycsICctaW1hZScsICc8aW5maWxlLm1hZT4nLCAnLW9tYWUnLCAnPG91dGZpbGUubWFlPic=

> <r_lp_tautomer_probability>
1

> <r_epik_Ionization_Penalty>
0.0792036

> <r_epik_Ionization_Penalty_Charging>
0

> <r_epik_Ionization_Penalty_Neutral>
0.0792036

> <r_epik_State_Penalty>
0.0695266

> <r_epik_Charging_Adjusted_Penalty>
0.0695266

> <i_epik_Tot_Q>
0

> <i_epik_Tot_abs_Q>
0

> <r_epik_Metal_State_Penalty>
0.068466

> <b_epik_Metal_Only>
0

> <s_lp_Force_Field>
OPLS_2005

> <r_lp_Energy>
32.2563

> <b_lp_Chiralities_Consistent>
1

> <s_lp_Variant>
AV-unprocessed.smi:1878-1

> <Gold.Version>
5.8.1

> <Gold.Id.Protein>
6NUR|6NUR_protein|mol2

> <Gold.PLP.Fitness>
37.9553

> <Gold.PLP.PLP>
-29.4593

> <Gold.PLP.part.hbond>
-3.0000

> <Gold.PLP.part.metal>
0.0000

> <Gold.PLP.part.buried>
-2.3380

> <Gold.PLP.part.nonpolar>
-23.8559

> <Gold.PLP.part.repulsive>
0.2139

> <Gold.PLP.ligand.clash>
0.0000

> <Gold.PLP.ligand.torsion>
0.6323

> <Gold.PLP.Chemscore.Hbond>
2.2500

> <Gold.PLP.Chemscore.CHOScore>
0.9909

> <Gold.PLP.Chemscore.Metal>
0.0000

> <Gold.Chemscore.Hbonds>
donor molecule, donor type, donor heavy atom, donor atom, acceptor molecule, acceptor atom, score
      L1  H     3    21       P1  7948  1.00
      L1  H     9    24       P1  7948  1.00
      P1  H  7989  7998       L1    19  0.25
      L1  C    20    35       P1  7957  0.98

> <Gold.PLP.Chemscore.Internal.Correction>
0.0378

> <Gold.Rescore>
     Score         DG    S(hbond)    S(metal)    S(lipo)     H(rot)  DE(clash)    DE(int)     intcor
     15.29     -16.03       1.95        0.00      63.66       1.33       0.21       0.53       ----

> <Gold.Chemscore.Fitness>
15.2948

> <Gold.Chemscore.DG>
-16.0309

> <Gold.Chemscore.ZeroCoef>
-5.4800

> <Gold.Chemscore.Hbond>
1.9496

> <Gold.Chemscore.Metal>
0.0000

> <Gold.Chemscore.Lipo>
63.6611

> <Gold.Chemscore.Internal_Hbond>
0.0000

> <Gold.Chemscore.DEClash>
0.2080

> <Gold.Chemscore.DEInternal>
0.5281

> <Gold.Chemscore.Rot>
1.3317

> <Gold.Chemscore.Internal.Correction>
   9.000000E+99

> <Gold.Chemscore.Hbonds>
donor molecule, donor type, donor heavy atom, donor atom, acceptor molecule, acceptor atom, score
      L1  H     3    21       P1  7948  0.99
      L1  H     9    24       P1  7948  0.97

> <Gold.Chemscore.Hbond.Weighted>
-6.5118

> <Gold.Chemscore.Metal.Weighted>
-0.0000

> <Gold.Chemscore.Lipo.Weighted>
-7.4483

> <Gold.Chemscore.Internal_Hbond.Weighted>
0.0000

> <Gold.Chemscore.DEClash.Weighted>
0.2080

> <Gold.Chemscore.DEInternal.Weighted>
0.5281

> <Gold.Chemscore.Rot.Weighted>
3.4092

> <Gold.Chemscore.Internal.Correction.Weighted>
   9.000000E+99

> <Gold.Protein.RotatedTorsions>
[ 6907 6896 6895 6894 ] final  -89.50 input  -60.11 | X-H torsion
[ 7974 7965 7964 7962 ] final  -19.79 input  175.53 | X-H torsion
[ 8008 7997 7996 7995 ] final   91.48 input   59.86 | X-H torsion
[ 10167 10162 10161 10158 ] final   -2.84 input  -65.29 | X-H torsion
[ 10718 10713 10712 10709 ] final  160.82 input   66.30 | X-H torsion
[ 10763 10752 10751 10750 ] final  122.49 input  -60.55 | X-H torsion
[ 11005 11000 10999 10996 ] final   85.41 input  -57.11 | X-H torsion

> <Gold.Protein.ActiveResidues>
 VAL166  LYS551  ARG553  GLY616  TRP617  ASP618  TYR619  PRO620  LYS621  CYS622 
 ASP623  PHE694  ASN695  SER759  ASP760  ASP761  ALA762  ILE779  LEU786  VAL792 
 PHE793  MET794  SER795  GLU796  ALA797  LYS798  CYS799  TRP800  GLU811  SER814 

> <Gold.Protein.RotatedAtoms>
  150.6874  134.2577  159.4536 H   0  0  0  0  0  0  0  0  0  0  0  0  # atno 6907 bound_to 6896
  152.0510  134.9651  160.0584 H   0  0  0  0  0  0  0  0  0  0  0  0  # atno 6908 bound_to 6896
  152.1116  133.4269  159.4670 H   0  0  0  0  0  0  0  0  0  0  0  0  # atno 6909 bound_to 6896
  146.1823  140.4111  142.8490 H   0  0  0  0  0  0  0  0  0  0  0  0  # atno 7974 bound_to 7965
  156.0242  140.3337  155.7071 H   0  0  0  0  0  0  0  0  0  0  0  0  # atno 8008 bound_to 7997
  155.5978  140.0652  157.2759 H   0  0  0  0  0  0  0  0  0  0  0  0  # atno 8009 bound_to 7997
  154.4328  140.1816  156.1129 H   0  0  0  0  0  0  0  0  0  0  0  0  # atno 8010 bound_to 7997
  140.6867  143.6610  150.8267 H   0  0  0  0  0  0  0  0  0  0  0  0  # atno 10167 bound_to 10162
  157.1450  131.0550  151.2308 H   0  0  0  0  0  0  0  0  0  0  0  0  # atno 10718 bound_to 10713
  153.6306  135.3397  155.3040 H   0  0  0  0  0  0  0  0  0  0  0  0  # atno 10763 bound_to 10752
  154.8581  135.4295  154.2109 H   0  0  0  0  0  0  0  0  0  0  0  0  # atno 10764 bound_to 10752
  153.3004  135.7024  153.7282 H   0  0  0  0  0  0  0  0  0  0  0  0  # atno 10765 bound_to 10752
  139.8972  134.8285  156.2578 H   0  0  0  0  0  0  0  0  0  0  0  0  # atno 11005 bound_to 11000
  144.8336  140.6746  143.6275 LP  0  0  0  0  0  0  0  0  0  0  0  0  # atno 17320 bound_to 7965
  145.4041  139.1592  143.4161 LP  0  0  0  0  0  0  0  0  0  0  0  0  # atno 17321 bound_to 7965
  140.0317  143.5436  152.2757 LP  0  0  0  0  0  0  0  0  0  0  0  0  # atno 17342 bound_to 10162
  139.6231  144.7632  151.2696 LP  0  0  0  0  0  0  0  0  0  0  0  0  # atno 17343 bound_to 10162
  157.4272  130.7470  149.6961 LP  0  0  0  0  0  0  0  0  0  0  0  0  # atno 17370 bound_to 10713
  155.9781  130.4055  150.3669 LP  0  0  0  0  0  0  0  0  0  0  0  0  # atno 17371 bound_to 10713
  141.0182  133.7056  156.1223 LP  0  0  0  0  0  0  0  0  0  0  0  0  # atno 17394 bound_to 11000
  140.7272  134.4294  157.5569 LP  0  0  0  0  0  0  0  0  0  0  0  0  # atno 17395 bound_to 11000

$$$$
