AV-unprocessed.smi:2693|AV-procd|sdf|10402|dock4
  -GOLD-   2272014433D 1   1.00000     0.00000
 Structure written by MMmdl.
 45 47  0  0  0  0  0  0  0  0  1 V2000
  143.5201  132.4389  149.8859 C   0  0  0  0  0  0  0  0  0  0  0  0
  144.3843  132.7143  151.0301 N   0  0  0  0  0  0  0  0  0  0  0  0
  145.0467  131.5792  151.6662 C   0  0  0  0  0  0  0  0  0  0  0  0
  144.5765  134.0186  151.4950 C   0  0  0  0  0  0  0  0  0  0  0  0
  143.6021  134.9072  151.2597 N   0  0  0  0  0  0  0  0  0  0  0  0
  143.7805  136.1698  151.7030 C   0  0  0  0  0  0  0  0  0  0  0  0
  144.9520  136.5546  152.3979 C   0  0  0  0  0  0  0  0  0  0  0  0
  145.2310  137.8644  152.8724 N   0  0  0  0  0  0  0  0  0  0  0  0
  146.2686  138.2782  153.6189 C   0  0  0  0  0  0  0  0  0  0  0  0
  147.2251  137.5820  153.9577 O   0  0  0  0  0  0  0  0  0  0  0  0
  146.1430  139.5701  153.9499 N   0  0  0  0  0  0  0  0  0  0  0  0
  147.1009  140.3053  154.7693 C   0  0  1  0  0  0  0  0  0  0  0  0
  148.4811  140.4209  154.1035 C   0  0  2  0  0  0  0  0  0  0  0  0
  149.6719  139.7427  154.7246 C   0  0  0  0  0  0  0  0  0  0  0  0
  150.3016  140.8587  155.5632 C   0  0  0  0  0  0  0  0  0  0  0  0
  149.2427  141.7887  155.7796 O   0  0  0  0  0  0  0  0  0  0  0  0
  148.4887  141.8681  154.5723 C   0  0  2  0  0  0  0  0  0  0  0  0
  146.9520  141.8476  154.7123 C   0  0  0  0  0  0  0  0  0  0  0  0
  146.2035  142.4456  153.5121 C   0  0  0  0  0  0  0  0  0  0  0  0
  146.3832  142.5174  155.9642 C   0  0  0  0  0  0  0  0  0  0  0  0
  145.9144  135.5420  152.5821 C   0  0  0  0  0  0  0  0  0  0  0  0
  145.7231  134.2829  152.1354 N   0  0  0  0  0  0  0  0  0  0  0  0
  143.8547  132.9976  149.0112 H   0  0  0  0  0  0  0  0  0  0  0  0
  142.4932  132.7301  150.1081 H   0  0  0  0  0  0  0  0  0  0  0  0
  143.5178  131.3814  149.6214 H   0  0  0  0  0  0  0  0  0  0  0  0
  146.1293  131.6745  151.5797 H   0  0  0  0  0  0  0  0  0  0  0  0
  144.7577  130.6313  151.2123 H   0  0  0  0  0  0  0  0  0  0  0  0
  144.7896  131.5312  152.7247 H   0  0  0  0  0  0  0  0  0  0  0  0
  142.9838  136.8588  151.4702 H   0  0  0  0  0  0  0  0  0  0  0  0
  144.5651  138.5737  152.6026 H   0  0  0  0  0  0  0  0  0  0  0  0
  145.3310  140.0746  153.6259 H   0  0  0  0  0  0  0  0  0  0  0  0
  147.1772  139.9351  155.7943 H   0  0  0  0  0  0  0  0  0  0  0  0
  148.4325  140.3531  153.0151 H   0  0  0  0  0  0  0  0  0  0  0  0
  149.3601  138.9104  155.3566 H   0  0  0  0  0  0  0  0  0  0  0  0
  150.3703  139.3568  153.9815 H   0  0  0  0  0  0  0  0  0  0  0  0
  150.7162  140.4963  156.5041 H   0  0  0  0  0  0  0  0  0  0  0  0
  151.0990  141.3528  155.0061 H   0  0  0  0  0  0  0  0  0  0  0  0
  148.8986  142.5713  153.8456 H   0  0  0  0  0  0  0  0  0  0  0  0
  146.3544  143.5233  153.4467 H   0  0  0  0  0  0  0  0  0  0  0  0
  145.1290  142.2708  153.5782 H   0  0  0  0  0  0  0  0  0  0  0  0
  146.5441  142.0187  152.5685 H   0  0  0  0  0  0  0  0  0  0  0  0
  146.5532  143.5944  155.9546 H   0  0  0  0  0  0  0  0  0  0  0  0
  146.8415  142.1267  156.8730 H   0  0  0  0  0  0  0  0  0  0  0  0
  145.3090  142.3519  156.0523 H   0  0  0  0  0  0  0  0  0  0  0  0
  146.8466  135.7408  153.0903 H   0  0  0  0  0  0  0  0  0  0  0  0
  1  2  1  0  0  0  0
  1 23  1  0  0  0  0
  1 24  1  0  0  0  0
  1 25  1  0  0  0  0
  2  3  1  0  0  0  0
  2  4  1  0  0  0  0
  3 26  1  0  0  0  0
  3 27  1  0  0  0  0
  3 28  1  0  0  0  0
  4 22  1  0  0  0  0
  4  5  2  0  0  0  0
  5  6  1  0  0  0  0
  6  7  2  0  0  0  0
  6 29  1  0  0  0  0
  7  8  1  0  0  0  0
  7 21  1  0  0  0  0
  8  9  1  0  0  0  0
  8 30  1  0  0  0  0
  9 10  2  0  0  0  0
  9 11  1  0  0  0  0
 11 12  1  0  0  0  0
 11 31  1  0  0  0  0
 12 18  1  0  0  0  0
 12 13  1  0  0  0  0
 12 32  1  0  0  0  0
 13 17  1  0  0  0  0
 13 14  1  0  0  0  0
 13 33  1  0  0  0  0
 14 15  1  0  0  0  0
 14 34  1  0  0  0  0
 14 35  1  0  0  0  0
 15 16  1  0  0  0  0
 15 36  1  0  0  0  0
 15 37  1  0  0  0  0
 16 17  1  0  0  0  0
 17 18  1  0  0  0  0
 17 38  1  0  0  0  0
 18 19  1  0  0  0  0
 18 20  1  0  0  0  0
 19 39  1  0  0  0  0
 19 40  1  0  0  0  0
 19 41  1  0  0  0  0
 20 42  1  0  0  0  0
 20 43  1  0  0  0  0
 20 44  1  0  0  0  0
 21 22  2  0  0  0  0
 21 45  1  0  0  0  0
M  END
> <s_m_source_file>
AV-unprocessed.smi

> <i_m_source_file_index>
2693

> <i_lp_mmshare_version>
43012

> <i_f3d_flags>
0

> <s_epik_input>
W0NIM11OKFtDSDNdKWMxbltjSF1jKFtjSF1uMSlbTkhdQyg9TylbTkhdW0NASF0yQyhbQ0gzXSkoW0NIM10pW0NAQEhdKFtDQEhdMjMpT1tDSDJdW0NIMl0z

> <s_epik_cmdline>
J2VwaWtfcHl0aG9uJywgJy1waCcsICc3LjAnLCAnLXRuJywgJzgnLCAnLW1hJywgJzIwMCcsICctbWV0YWxfYmluZGluZycsICctaW1hZScsICc8aW5maWxlLm1hZT4nLCAnLW9tYWUnLCAnPG91dGZpbGUubWFlPic=

> <r_lp_tautomer_probability>
1

> <r_epik_Ionization_Penalty>
0.00031779

> <r_epik_Ionization_Penalty_Charging>
0

> <r_epik_Ionization_Penalty_Neutral>
0.00031779

> <r_epik_State_Penalty>
-0

> <r_epik_Charging_Adjusted_Penalty>
0

> <i_epik_Tot_Q>
0

> <i_epik_Tot_abs_Q>
0

> <r_epik_Metal_State_Penalty>
-0

> <b_epik_Metal_Only>
0

> <s_lp_Force_Field>
OPLS_2005

> <r_lp_Energy>
29.1856

> <b_lp_Chiralities_Consistent>
1

> <s_lp_Variant>
AV-unprocessed.smi:2693-6

> <Gold.Version>
5.8.1

> <Gold.Id.Protein>
6NUR|6NUR_protein|mol2

> <Gold.PLP.Fitness>
40.6086

> <Gold.PLP.PLP>
-31.3659

> <Gold.PLP.part.hbond>
-1.9605

> <Gold.PLP.part.metal>
0.0000

> <Gold.PLP.part.buried>
-1.9256

> <Gold.PLP.part.nonpolar>
-29.4960

> <Gold.PLP.part.repulsive>
2.3704

> <Gold.PLP.ligand.clash>
0.0000

> <Gold.PLP.ligand.torsion>
0.4061

> <Gold.PLP.Chemscore.Hbond>
1.8688

> <Gold.PLP.Chemscore.CHOScore>
1.4241

> <Gold.PLP.Chemscore.Metal>
0.0000

> <Gold.Chemscore.Hbonds>
donor molecule, donor type, donor heavy atom, donor atom, acceptor molecule, acceptor atom, score
      L1  H     8    30       P1 10175  0.88
      L1  H    11    31       P1 10175  0.94
      L1  C     6    29       P1 10171  0.59
      L1  C    21    45       P1  7948  0.83

> <Gold.PLP.Chemscore.Internal.Correction>
0.1762

> <Gold.Rescore>
     Score         DG    S(hbond)    S(metal)    S(lipo)     H(rot)  DE(clash)    DE(int)     intcor
     14.73     -18.19       1.83        0.00      78.17       1.00       1.82       1.64       ----

> <Gold.Chemscore.Fitness>
14.7302

> <Gold.Chemscore.DG>
-18.1884

> <Gold.Chemscore.ZeroCoef>
-5.4800

> <Gold.Chemscore.Hbond>
1.8332

> <Gold.Chemscore.Metal>
0.0000

> <Gold.Chemscore.Lipo>
78.1681

> <Gold.Chemscore.Internal_Hbond>
0.0000

> <Gold.Chemscore.DEClash>
1.8165

> <Gold.Chemscore.DEInternal>
1.6417

> <Gold.Chemscore.Rot>
1.0000

> <Gold.Chemscore.Internal.Correction>
   9.000000E+99

> <Gold.Chemscore.Hbonds>
donor molecule, donor type, donor heavy atom, donor atom, acceptor molecule, acceptor atom, score
      L1  H     8    30       P1 10175  0.85
      L1  H    11    31       P1 10175  0.89

> <Gold.Chemscore.Hbond.Weighted>
-6.1227

> <Gold.Chemscore.Metal.Weighted>
-0.0000

> <Gold.Chemscore.Lipo.Weighted>
-9.1457

> <Gold.Chemscore.Internal_Hbond.Weighted>
0.0000

> <Gold.Chemscore.DEClash.Weighted>
1.8165

> <Gold.Chemscore.DEInternal.Weighted>
1.6417

> <Gold.Chemscore.Rot.Weighted>
2.5600

> <Gold.Chemscore.Internal.Correction.Weighted>
   9.000000E+99

> <Gold.Protein.RotatedTorsions>
[ 6907 6896 6895 6894 ] final  160.37 input  -60.11 | X-H torsion
[ 7974 7965 7964 7962 ] final   -8.17 input  175.53 | X-H torsion
[ 8008 7997 7996 7995 ] final  -42.87 input   59.86 | X-H torsion
[ 10167 10162 10161 10158 ] final  -84.45 input  -65.29 | X-H torsion
[ 10718 10713 10712 10709 ] final  -85.65 input   66.30 | X-H torsion
[ 10763 10752 10751 10750 ] final  -33.04 input  -60.55 | X-H torsion
[ 11005 11000 10999 10996 ] final   32.63 input  -57.11 | X-H torsion

> <Gold.Protein.ActiveResidues>
 VAL166  LYS551  ARG553  GLY616  TRP617  ASP618  TYR619  PRO620  LYS621  CYS622 
 ASP623  PHE694  ASN695  SER759  ASP760  ASP761  ALA762  ILE779  LEU786  VAL792 
 PHE793  MET794  SER795  GLU796  ALA797  LYS798  CYS799  TRP800  GLU811  SER814 

> <Gold.Protein.RotatedAtoms>
  151.9717  133.3728  159.4073 H   0  0  0  0  0  0  0  0  0  0  0  0  # atno 6907 bound_to 6896
  150.6948  134.4133  159.5181 H   0  0  0  0  0  0  0  0  0  0  0  0  # atno 6908 bound_to 6896
  152.1838  134.8731  160.0574 H   0  0  0  0  0  0  0  0  0  0  0  0  # atno 6909 bound_to 6896
  146.2287  140.2428  142.8344 H   0  0  0  0  0  0  0  0  0  0  0  0  # atno 7974 bound_to 7965
  154.3998  140.1462  156.3426 H   0  0  0  0  0  0  0  0  0  0  0  0  # atno 8008 bound_to 7997
  155.8342  140.3464  155.5570 H   0  0  0  0  0  0  0  0  0  0  0  0  # atno 8009 bound_to 7997
  155.8156  140.0890  157.1869 H   0  0  0  0  0  0  0  0  0  0  0  0  # atno 8010 bound_to 7997
  140.4131  143.2614  151.8991 H   0  0  0  0  0  0  0  0  0  0  0  0  # atno 10167 bound_to 10162
  155.9995  130.4738  150.4595 H   0  0  0  0  0  0  0  0  0  0  0  0  # atno 10718 bound_to 10713
  153.8236  135.6872  153.4824 H   0  0  0  0  0  0  0  0  0  0  0  0  # atno 10763 bound_to 10752
  153.1554  135.4601  154.9694 H   0  0  0  0  0  0  0  0  0  0  0  0  # atno 10764 bound_to 10752
  154.7917  135.3304  154.7706 H   0  0  0  0  0  0  0  0  0  0  0  0  # atno 10765 bound_to 10752
  140.2715  134.3077  155.7826 H   0  0  0  0  0  0  0  0  0  0  0  0  # atno 11005 bound_to 11000
  144.9471  140.8140  143.5595 LP  0  0  0  0  0  0  0  0  0  0  0  0  # atno 17320 bound_to 7965
  145.2385  139.2083  143.5005 LP  0  0  0  0  0  0  0  0  0  0  0  0  # atno 17321 bound_to 7965
  139.4782  144.5516  151.8377 LP  0  0  0  0  0  0  0  0  0  0  0  0  # atno 17342 bound_to 10162
  140.4616  144.1714  150.5907 LP  0  0  0  0  0  0  0  0  0  0  0  0  # atno 17343 bound_to 10162
  157.2621  131.0569  151.2314 LP  0  0  0  0  0  0  0  0  0  0  0  0  # atno 17370 bound_to 10713
  157.3425  130.7040  149.6390 LP  0  0  0  0  0  0  0  0  0  0  0  0  # atno 17371 bound_to 10713
  141.2177  133.7469  156.9341 LP  0  0  0  0  0  0  0  0  0  0  0  0  # atno 17394 bound_to 11000
  140.1369  134.9319  157.2414 LP  0  0  0  0  0  0  0  0  0  0  0  0  # atno 17395 bound_to 11000

$$$$
