AV-unprocessed.smi:33|AV-procd|sdf|212|dock5
  -GOLD-   2262015513D 1   1.00000     0.00000
 Structure written by MMmdl.
 67 72  0  0  0  0  0  0  0  0  1 V2000
  156.8241  138.2361  156.0728 O   0  0  0  0  0  0  0  0  0  0  0  0
  156.4370  137.8905  154.9547 C   0  0  0  0  0  0  0  0  0  0  0  0
  155.1682  138.0376  154.5261 O   0  0  0  0  0  0  0  0  0  0  0  0
  154.0991  138.0353  155.4575 C   0  0  0  0  0  0  0  0  0  0  0  0
  152.7979  138.3974  154.7315 C   0  0  1  0  0  0  0  0  0  0  0  0
  151.8371  137.3616  154.8672 O   0  0  0  0  0  0  0  0  0  0  0  0
  150.5737  137.8901  154.6104 C   0  0  1  0  0  0  0  0  0  0  0  0
  149.5955  137.2292  155.5254 N   0  0  0  0  0  0  0  0  0  0  0  0
  148.4815  136.4996  155.1745 C   0  0  0  0  0  0  0  0  0  0  0  0
  147.7723  136.0452  156.1722 N   0  0  0  0  0  0  0  0  0  0  0  0
  148.4544  136.4896  157.2977 C   0  0  0  0  0  0  0  0  0  0  0  0
  148.2394  136.3647  158.6968 C   0  0  0  0  0  0  0  0  0  0  0  0
  147.1806  135.7042  159.2224 N   0  0  0  0  0  0  0  0  0  0  0  0
  146.7655  134.4629  158.5532 C   0  0  0  0  0  0  0  0  0  0  0  0
  147.5898  133.8170  157.9033 O   0  0  0  0  0  0  0  0  0  0  0  0
  145.3591  133.9544  158.6974 C   0  0  0  0  0  0  0  0  0  0  0  0
  144.2780  134.8625  158.7261 C   0  0  0  0  0  0  0  0  0  0  0  0
  142.9591  134.3915  158.8757 C   0  0  0  0  0  0  0  0  0  0  0  0
  142.7145  133.0121  159.0160 C   0  0  0  0  0  0  0  0  0  0  0  0
  143.7901  132.1038  159.0168 C   0  0  0  0  0  0  0  0  0  0  0  0
  145.1091  132.5738  158.8673 C   0  0  0  0  0  0  0  0  0  0  0  0
  146.5424  136.2909  160.4106 C   0  0  0  0  0  0  0  0  0  0  0  0
  146.6429  137.5019  160.6178 O   0  0  0  0  0  0  0  0  0  0  0  0
  145.7232  135.4388  161.3387 C   0  0  0  0  0  0  0  0  0  0  0  0
  146.1097  134.1055  161.5980 C   0  0  0  0  0  0  0  0  0  0  0  0
  145.3378  133.2955  162.4533 C   0  0  0  0  0  0  0  0  0  0  0  0
  144.1647  133.8071  163.0402 C   0  0  0  0  0  0  0  0  0  0  0  0
  143.7585  135.1265  162.7641 C   0  0  0  0  0  0  0  0  0  0  0  0
  144.5302  135.9373  161.9095 C   0  0  0  0  0  0  0  0  0  0  0  0
  149.1362  136.9473  159.5344 N   0  0  0  0  0  0  0  0  0  0  0  0
  150.1778  137.6153  159.0307 C   0  0  0  0  0  0  0  0  0  0  0  0
  150.4993  137.8183  157.7512 N   0  0  0  0  0  0  0  0  0  0  0  0
  149.6023  137.2320  156.9059 C   0  0  0  0  0  0  0  0  0  0  0  0
  150.6309  139.4043  154.8806 C   0  0  2  0  0  0  0  0  0  0  0  0
  150.3484  140.1578  153.7187 O   0  0  0  0  0  0  0  0  0  0  0  0
  152.0783  139.6207  155.3016 C   0  0  1  0  0  0  0  0  0  0  0  0
  152.1545  139.6426  156.6335 F   0  0  0  0  0  0  0  0  0  0  0  0
  157.3246  137.2614  153.9343 C   0  0  0  0  0  0  0  0  0  0  0  0
  157.1263  137.5589  152.5657 C   0  0  0  0  0  0  0  0  0  0  0  0
  157.9509  136.9830  151.5797 C   0  0  0  0  0  0  0  0  0  0  0  0
  158.9829  136.1011  151.9499 C   0  0  0  0  0  0  0  0  0  0  0  0
  159.1890  135.7954  153.3078 C   0  0  0  0  0  0  0  0  0  0  0  0
  158.3663  136.3714  154.2954 C   0  0  0  0  0  0  0  0  0  0  0  0
  154.0054  137.0614  155.9408 H   0  0  0  0  0  0  0  0  0  0  0  0
  154.3107  138.7712  156.2343 H   0  0  0  0  0  0  0  0  0  0  0  0
  152.9886  138.5621  153.6693 H   0  0  0  0  0  0  0  0  0  0  0  0
  150.2417  137.6328  153.6033 H   0  0  0  0  0  0  0  0  0  0  0  0
  148.2037  136.3216  154.1458 H   0  0  0  0  0  0  0  0  0  0  0  0
  144.4537  135.9233  158.6190 H   0  0  0  0  0  0  0  0  0  0  0  0
  142.1349  135.0895  158.8837 H   0  0  0  0  0  0  0  0  0  0  0  0
  141.7028  132.6515  159.1301 H   0  0  0  0  0  0  0  0  0  0  0  0
  143.6042  131.0464  159.1338 H   0  0  0  0  0  0  0  0  0  0  0  0
  145.9272  131.8678  158.8755 H   0  0  0  0  0  0  0  0  0  0  0  0
  147.0077  133.7018  161.1528 H   0  0  0  0  0  0  0  0  0  0  0  0
  145.6454  132.2806  162.6578 H   0  0  0  0  0  0  0  0  0  0  0  0
  143.5732  133.1854  163.6959 H   0  0  0  0  0  0  0  0  0  0  0  0
  142.8539  135.5165  163.2067 H   0  0  0  0  0  0  0  0  0  0  0  0
  144.2054  136.9468  161.7013 H   0  0  0  0  0  0  0  0  0  0  0  0
  150.8486  138.0519  159.7558 H   0  0  0  0  0  0  0  0  0  0  0  0
  149.9320  139.6932  155.6675 H   0  0  0  0  0  0  0  0  0  0  0  0
  150.0863  139.5634  153.0322 H   0  0  0  0  0  0  0  0  0  0  0  0
  152.5030  140.5622  154.9509 H   0  0  0  0  0  0  0  0  0  0  0  0
  156.3410  138.2341  152.2573 H   0  0  0  0  0  0  0  0  0  0  0  0
  157.7913  137.2193  150.5380 H   0  0  0  0  0  0  0  0  0  0  0  0
  159.6152  135.6598  151.1937 H   0  0  0  0  0  0  0  0  0  0  0  0
  159.9805  135.1182  153.5935 H   0  0  0  0  0  0  0  0  0  0  0  0
  158.5523  136.1156  155.3283 H   0  0  0  0  0  0  0  0  0  0  0  0
  1  2  2  0  0  0  0
  2  3  1  0  0  0  0
  2 38  1  0  0  0  0
  3  4  1  0  0  0  0
  4  5  1  0  0  0  0
  4 44  1  0  0  0  0
  4 45  1  0  0  0  0
  5 36  1  0  0  0  0
  5  6  1  0  0  0  0
  5 46  1  0  0  0  0
  6  7  1  0  0  0  0
  7  8  1  0  0  0  0
  7 34  1  0  0  0  0
  7 47  1  0  0  0  0
  8 33  1  0  0  0  0
  8  9  1  0  0  0  0
  9 10  2  0  0  0  0
  9 48  1  0  0  0  0
 10 11  1  0  0  0  0
 11 33  2  0  0  0  0
 11 12  1  0  0  0  0
 12 13  1  0  0  0  0
 12 30  2  0  0  0  0
 13 14  1  0  0  0  0
 13 22  1  0  0  0  0
 14 15  2  0  0  0  0
 14 16  1  0  0  0  0
 16 21  1  0  0  0  0
 16 17  2  0  0  0  0
 17 18  1  0  0  0  0
 17 49  1  0  0  0  0
 18 19  2  0  0  0  0
 18 50  1  0  0  0  0
 19 20  1  0  0  0  0
 19 51  1  0  0  0  0
 20 21  2  0  0  0  0
 20 52  1  0  0  0  0
 21 53  1  0  0  0  0
 22 23  2  0  0  0  0
 22 24  1  0  0  0  0
 24 29  1  0  0  0  0
 24 25  2  0  0  0  0
 25 26  1  0  0  0  0
 25 54  1  0  0  0  0
 26 27  2  0  0  0  0
 26 55  1  0  0  0  0
 27 28  1  0  0  0  0
 27 56  1  0  0  0  0
 28 29  2  0  0  0  0
 28 57  1  0  0  0  0
 29 58  1  0  0  0  0
 30 31  1  0  0  0  0
 31 32  2  0  0  0  0
 31 59  1  0  0  0  0
 32 33  1  0  0  0  0
 34 35  1  0  0  0  0
 34 36  1  0  0  0  0
 34 60  1  0  0  0  0
 35 61  1  0  0  0  0
 36 37  1  0  0  0  0
 36 62  1  0  0  0  0
 38 43  1  0  0  0  0
 38 39  2  0  0  0  0
 39 40  1  0  0  0  0
 39 63  1  0  0  0  0
 40 41  2  0  0  0  0
 40 64  1  0  0  0  0
 41 42  1  0  0  0  0
 41 65  1  0  0  0  0
 42 43  2  0  0  0  0
 42 66  1  0  0  0  0
 43 67  1  0  0  0  0
M  END
> <s_m_source_file>
AV-unprocessed.smi

> <i_m_source_file_index>
33

> <i_lp_mmshare_version>
43012

> <i_f3d_flags>
0

> <s_epik_input>
W2NIXTFbY0hdW2NIXVtjSF1bY0hdYzFDKD1PKU9bQ0gyXVtDQEBIXTJPW0NASF0oW0NAQEhdKFtPSF0pW0NAQEhdMkYpbihbY0hdbjMpYyhjMzQpbltjSF1uYzROKEMoPU8pYzVbY0hdW2NIXVtjSF1bY0hdW2NIXTUpQyg9TyljNltjSF1bY0hdW2NIXVtjSF1bY0hdNg==

> <s_epik_cmdline>
J2VwaWtfcHl0aG9uJywgJy1waCcsICc3LjAnLCAnLXRuJywgJzgnLCAnLW1hJywgJzIwMCcsICctbWV0YWxfYmluZGluZycsICctaW1hZScsICc8aW5maWxlLm1hZT4nLCAnLW9tYWUnLCAnPG91dGZpbGUubWFlPic=

> <r_lp_tautomer_probability>
1

> <r_epik_Ionization_Penalty>
0.00067664

> <r_epik_Ionization_Penalty_Charging>
0

> <r_epik_Ionization_Penalty_Neutral>
0.00067664

> <r_epik_State_Penalty>
0.000428095

> <r_epik_Charging_Adjusted_Penalty>
0.000428095

> <i_epik_Tot_Q>
0

> <i_epik_Tot_abs_Q>
0

> <r_epik_Metal_State_Penalty>
-0

> <b_epik_Metal_Only>
0

> <s_epik_Chemistry_Notes>
This compound has an ester and may undergo hydrolysis at high or low pH. This compound contains an acetal/aminal-like group ( X-CH(R)-Y where X, Y are N, S, or O) that may be acid/base labile, releasing an aldehyde.

> <s_lp_Force_Field>
OPLS_2005

> <r_lp_Energy>
68.7921

> <b_lp_Chiralities_Consistent>
1

> <s_lp_Variant>
AV-unprocessed.smi:33-14

> <Gold.Version>
5.8.1

> <Gold.Id.Protein>
6NUR|6NUR_protein|mol2

> <Gold.PLP.Fitness>
62.6138

> <Gold.PLP.PLP>
-52.2498

> <Gold.PLP.part.hbond>
-6.1260

> <Gold.PLP.part.metal>
0.0000

> <Gold.PLP.part.buried>
4.0466

> <Gold.PLP.part.nonpolar>
-49.4054

> <Gold.PLP.part.repulsive>
0.2047

> <Gold.PLP.ligand.clash>
0.0000

> <Gold.PLP.ligand.torsion>
3.8257

> <Gold.PLP.Chemscore.Hbond>
3.3878

> <Gold.PLP.Chemscore.CHOScore>
1.0000

> <Gold.PLP.Chemscore.Metal>
0.0000

> <Gold.Chemscore.Hbonds>
donor molecule, donor type, donor heavy atom, donor atom, acceptor molecule, acceptor atom, score
      L1  H    35    61       P1  7957  0.54
      P1  H  6934  6947       L1    23  1.00
      P1  H  7989  7998       L1    35  0.70
      P1  H  7997  8008       L1     1  0.37
      P1  H 10752 10764       L1     6  0.81
      L1  C     9    48       P1  7948  1.00

> <Gold.PLP.Chemscore.Internal.Correction>
4.8520

> <Gold.Rescore>
     Score         DG    S(hbond)    S(metal)    S(lipo)     H(rot)  DE(clash)    DE(int)     intcor
      8.46     -22.31       2.14        0.00     138.16       2.52       2.85      11.00       ----

> <Gold.Chemscore.Fitness>
8.4625

> <Gold.Chemscore.DG>
-22.3142

> <Gold.Chemscore.ZeroCoef>
-5.4800

> <Gold.Chemscore.Hbond>
2.1356

> <Gold.Chemscore.Metal>
0.0000

> <Gold.Chemscore.Lipo>
138.1571

> <Gold.Chemscore.Internal_Hbond>
0.0000

> <Gold.Chemscore.DEClash>
2.8468

> <Gold.Chemscore.DEInternal>
11.0048

> <Gold.Chemscore.Rot>
2.5247

> <Gold.Chemscore.Internal.Correction>
   9.000000E+99

> <Gold.Chemscore.Hbonds>
donor molecule, donor type, donor heavy atom, donor atom, acceptor molecule, acceptor atom, score
      L1  H    35    61       P1  7957  0.52
      P1  H  6934  6947       L1    23  1.00
      P1  H  7989  7998       L1    35  0.23
      P1  H  7997  8008       L1     1  0.31
      P1  H 10752 10764       L1     6  0.30

> <Gold.Chemscore.Hbond.Weighted>
-7.1331

> <Gold.Chemscore.Metal.Weighted>
-0.0000

> <Gold.Chemscore.Lipo.Weighted>
-16.1644

> <Gold.Chemscore.Internal_Hbond.Weighted>
0.0000

> <Gold.Chemscore.DEClash.Weighted>
2.8468

> <Gold.Chemscore.DEInternal.Weighted>
11.0048

> <Gold.Chemscore.Rot.Weighted>
6.4633

> <Gold.Chemscore.Internal.Correction.Weighted>
   9.000000E+99

> <Gold.Protein.RotatedTorsions>
[ 6907 6896 6895 6894 ] final  112.82 input  -60.11 | X-H torsion
[ 7974 7965 7964 7962 ] final -116.59 input  175.53 | X-H torsion
[ 8008 7997 7996 7995 ] final  150.82 input   59.86 | X-H torsion
[ 10167 10162 10161 10158 ] final  -49.92 input  -65.29 | X-H torsion
[ 10718 10713 10712 10709 ] final   44.51 input   66.30 | X-H torsion
[ 10763 10752 10751 10750 ] final  -65.44 input  -60.55 | X-H torsion
[ 11005 11000 10999 10996 ] final   25.91 input  -57.11 | X-H torsion

> <Gold.Protein.ActiveResidues>
 VAL166  LYS551  ARG553  GLY616  TRP617  ASP618  TYR619  PRO620  LYS621  CYS622 
 ASP623  PHE694  ASN695  SER759  ASP760  ASP761  ALA762  ILE779  LEU786  VAL792 
 PHE793  MET794  SER795  GLU796  ALA797  LYS798  CYS799  TRP800  GLU811  SER814 

> <Gold.Protein.RotatedAtoms>
  152.4895  133.8462  159.7178 H   0  0  0  0  0  0  0  0  0  0  0  0  # atno 6907 bound_to 6896
  150.9012  133.7107  159.2885 H   0  0  0  0  0  0  0  0  0  0  0  0  # atno 6908 bound_to 6896
  151.4547  135.1037  159.9760 H   0  0  0  0  0  0  0  0  0  0  0  0  # atno 6909 bound_to 6896
  145.0950  140.8515  143.3960 H   0  0  0  0  0  0  0  0  0  0  0  0  # atno 7974 bound_to 7965
  156.2700  140.2064  156.6078 H   0  0  0  0  0  0  0  0  0  0  0  0  # atno 8008 bound_to 7997
  154.6856  140.0535  157.0334 H   0  0  0  0  0  0  0  0  0  0  0  0  # atno 8009 bound_to 7997
  155.0939  140.3199  155.4569 H   0  0  0  0  0  0  0  0  0  0  0  0  # atno 8010 bound_to 7997
  140.6662  143.2678  151.4285 H   0  0  0  0  0  0  0  0  0  0  0  0  # atno 10167 bound_to 10162
  157.4276  130.8006  149.7573 H   0  0  0  0  0  0  0  0  0  0  0  0  # atno 10718 bound_to 10713
  154.3450  135.6148  153.5615 H   0  0  0  0  0  0  0  0  0  0  0  0  # atno 10763 bound_to 10752
  152.9801  135.5779  154.4808 H   0  0  0  0  0  0  0  0  0  0  0  0  # atno 10764 bound_to 10752
  154.4519  135.2853  155.1752 H   0  0  0  0  0  0  0  0  0  0  0  0  # atno 10765 bound_to 10752
  140.3427  134.2315  155.7688 H   0  0  0  0  0  0  0  0  0  0  0  0  # atno 11005 bound_to 11000
  145.1021  139.2815  143.5681 LP  0  0  0  0  0  0  0  0  0  0  0  0  # atno 17320 bound_to 7965
  146.3531  140.0591  142.8630 LP  0  0  0  0  0  0  0  0  0  0  0  0  # atno 17321 bound_to 7965
  139.5912  144.1495  152.2090 LP  0  0  0  0  0  0  0  0  0  0  0  0  # atno 17342 bound_to 10162
  140.0850  144.5669  150.7095 LP  0  0  0  0  0  0  0  0  0  0  0  0  # atno 17343 bound_to 10162
  155.9902  130.3946  150.3039 LP  0  0  0  0  0  0  0  0  0  0  0  0  # atno 17370 bound_to 10713
  157.1193  131.0242  151.3016 LP  0  0  0  0  0  0  0  0  0  0  0  0  # atno 17371 bound_to 10713
  141.2034  133.7913  157.0342 LP  0  0  0  0  0  0  0  0  0  0  0  0  # atno 17394 bound_to 11000
  140.0767  134.9671  157.1558 LP  0  0  0  0  0  0  0  0  0  0  0  0  # atno 17395 bound_to 11000

$$$$
