AV-unprocessed.smi:1338|AV-procd|sdf|5501|dock1
  -GOLD-   22720 5 83D 1   1.00000     0.00000
 Structure written by MMmdl.
 39 40  0  0  0  0  0  0  0  0  2 V2000
  150.1542  134.9370  155.1796 C   0  0  0  0  0  0  0  0  0  0  0  0
  150.4159  136.4208  155.3269 C   0  0  0  0  0  0  0  0  0  0  0  0
  149.5501  137.2548  154.8922 N   0  0  0  0  0  0  0  0  0  0  0  0
  149.7863  138.6331  155.0314 C   0  0  0  0  0  0  0  0  0  0  0  0
  148.7012  139.5477  154.4895 C   0  0  0  0  0  0  0  0  0  0  0  0
  150.9252  139.0983  155.6207 C   0  0  0  0  0  0  0  0  0  0  0  0
  151.2258  140.5856  155.8021 C   0  0  0  0  0  0  0  0  0  0  0  0
  151.0762  141.1144  157.2295 C   0  0  0  0  0  0  0  0  0  0  0  0
  150.8199  140.3397  158.1509 O   0  0  0  0  0  0  0  0  0  0  0  0
  151.2398  142.4357  157.3991 N   0  0  0  0  0  0  0  0  0  0  0  0
  151.1496  143.1413  158.6732 C   0  0  0  0  0  0  0  0  0  0  0  0
  151.0975  144.6671  158.4481 C   0  0  0  0  0  0  0  0  0  0  0  0
  151.0836  145.4325  159.7812 C   0  0  0  0  0  0  0  0  0  0  0  0
  152.2844  145.0461  160.6586 C   0  0  0  0  0  0  0  0  0  0  0  0
  152.3345  143.5277  160.8909 C   0  0  0  0  0  0  0  0  0  0  0  0
  152.3506  142.7597  159.5593 C   0  0  0  0  0  0  0  0  0  0  0  0
  151.9004  138.1036  156.1032 C   0  0  0  0  0  0  0  0  0  0  0  0
  152.9500  138.4675  156.6323 O   0  0  0  0  0  0  0  0  0  0  0  0
  151.5946  136.7852  155.9373 N   0  5  0  0  0  0  0  0  0  0  0  0
  149.2898  134.7518  154.5406 H   0  0  0  0  0  0  0  0  0  0  0  0
  149.9608  134.4913  156.1557 H   0  0  0  0  0  0  0  0  0  0  0  0
  151.0178  134.4397  154.7367 H   0  0  0  0  0  0  0  0  0  0  0  0
  148.3069  140.1875  155.2788 H   0  0  0  0  0  0  0  0  0  0  0  0
  147.8691  138.9734  154.0806 H   0  0  0  0  0  0  0  0  0  0  0  0
  149.0946  140.1779  153.6920 H   0  0  0  0  0  0  0  0  0  0  0  0
  152.2400  140.7781  155.4514 H   0  0  0  0  0  0  0  0  0  0  0  0
  150.5960  141.1901  155.1489 H   0  0  0  0  0  0  0  0  0  0  0  0
  151.4511  142.9928  156.5841 H   0  0  0  0  0  0  0  0  0  0  0  0
  150.2384  142.8286  159.1871 H   0  0  0  0  0  0  0  0  0  0  0  0
  151.9603  144.9831  157.8599 H   0  0  0  0  0  0  0  0  0  0  0  0
  150.2138  144.9330  157.8669 H   0  0  0  0  0  0  0  0  0  0  0  0
  151.0906  146.5064  159.5927 H   0  0  0  0  0  0  0  0  0  0  0  0
  150.1566  145.2183  160.3147 H   0  0  0  0  0  0  0  0  0  0  0  0
  153.2081  145.3741  160.1800 H   0  0  0  0  0  0  0  0  0  0  0  0
  152.2297  145.5675  161.6146 H   0  0  0  0  0  0  0  0  0  0  0  0
  153.2160  143.2705  161.4788 H   0  0  0  0  0  0  0  0  0  0  0  0
  151.4696  143.2197  161.4798 H   0  0  0  0  0  0  0  0  0  0  0  0
  152.3445  141.6866  159.7547 H   0  0  0  0  0  0  0  0  0  0  0  0
  153.2822  142.9724  159.0326 H   0  0  0  0  0  0  0  0  0  0  0  0
  1  2  1  0  0  0  0
  1 20  1  0  0  0  0
  1 21  1  0  0  0  0
  1 22  1  0  0  0  0
  2 19  1  0  0  0  0
  2  3  2  0  0  0  0
  3  4  1  0  0  0  0
  4  5  1  0  0  0  0
  4  6  2  0  0  0  0
  5 23  1  0  0  0  0
  5 24  1  0  0  0  0
  5 25  1  0  0  0  0
  6  7  1  0  0  0  0
  6 17  1  0  0  0  0
  7  8  1  0  0  0  0
  7 26  1  0  0  0  0
  7 27  1  0  0  0  0
  8  9  2  0  0  0  0
  8 10  1  0  0  0  0
 10 11  1  0  0  0  0
 10 28  1  0  0  0  0
 11 16  1  0  0  0  0
 11 12  1  0  0  0  0
 11 29  1  0  0  0  0
 12 13  1  0  0  0  0
 12 30  1  0  0  0  0
 12 31  1  0  0  0  0
 13 14  1  0  0  0  0
 13 32  1  0  0  0  0
 13 33  1  0  0  0  0
 14 15  1  0  0  0  0
 14 34  1  0  0  0  0
 14 35  1  0  0  0  0
 15 16  1  0  0  0  0
 15 36  1  0  0  0  0
 15 37  1  0  0  0  0
 16 38  1  0  0  0  0
 16 39  1  0  0  0  0
 17 18  2  0  0  0  0
 17 19  1  0  0  0  0
M  CHG  1  19  -1
M  END
> <s_m_source_file>
AV-unprocessed.smi

> <i_m_source_file_index>
1338

> <i_lp_mmshare_version>
43012

> <i_f3d_flags>
0

> <s_epik_input>
W0NIM11jMW5jKFtDSDNdKWMoYyg9TylbbkhdMSlbQ0gyXUMoPU8pW05IXVtDSF0yW0NIMl1bQ0gyXVtDSDJdW0NIMl1bQ0gyXTI=

> <s_epik_cmdline>
J2VwaWtfcHl0aG9uJywgJy1waCcsICc3LjAnLCAnLXRuJywgJzgnLCAnLW1hJywgJzIwMCcsICctbWV0YWxfYmluZGluZycsICctaW1hZScsICc8aW5maWxlLm1hZT4nLCAnLW9tYWUnLCAnPG91dGZpbGUubWFlPic=

> <r_lp_tautomer_probability>
0.839158

> <r_epik_Ionization_Penalty>
6.66811

> <r_epik_Ionization_Penalty_Charging>
7.5907e-08

> <r_epik_Ionization_Penalty_Neutral>
6.66811

> <r_epik_State_Penalty>
4.51402

> <r_epik_Charging_Adjusted_Penalty>
4.51402

> <i_epik_Tot_Q>
-1

> <i_epik_Tot_abs_Q>
1

> <r_epik_Metal_State_Penalty>
0.85041

> <b_epik_Metal_Only>
1

> <s_lp_Force_Field>
OPLS_2005

> <r_lp_Energy>
13.4348

> <b_lp_Chiralities_Consistent>
1

> <s_lp_Variant>
AV-unprocessed.smi:1338-3

> <Gold.Version>
5.8.1

> <Gold.Id.Protein>
6NUR|6NUR_protein|mol2

> <Gold.PLP.Fitness>
45.5470

> <Gold.PLP.PLP>
-37.1422

> <Gold.PLP.part.hbond>
-2.0000

> <Gold.PLP.part.metal>
0.0000

> <Gold.PLP.part.buried>
-5.3653

> <Gold.PLP.part.nonpolar>
-31.3720

> <Gold.PLP.part.repulsive>
0.3732

> <Gold.PLP.ligand.clash>
0.0000

> <Gold.PLP.ligand.torsion>
0.2994

> <Gold.PLP.Chemscore.Hbond>
3.0000

> <Gold.PLP.Chemscore.CHOScore>
0.0000

> <Gold.PLP.Chemscore.Metal>
0.0000

> <Gold.Chemscore.Hbonds>
donor molecule, donor type, donor heavy atom, donor atom, acceptor molecule, acceptor atom, score
      P1  H  7997  8010       L1    18  0.70
      P1  H 10752 10765       L1    19  1.14

> <Gold.PLP.Chemscore.Internal.Correction>
0.0037

> <Gold.Rescore>
     Score         DG    S(hbond)    S(metal)    S(lipo)     H(rot)  DE(clash)    DE(int)     intcor
     17.19     -17.95       1.48        0.00      96.41       1.46       0.42       0.34       ----

> <Gold.Chemscore.Fitness>
17.1911

> <Gold.Chemscore.DG>
-17.9536

> <Gold.Chemscore.ZeroCoef>
-5.4800

> <Gold.Chemscore.Hbond>
1.4756

> <Gold.Chemscore.Metal>
0.0000

> <Gold.Chemscore.Lipo>
96.4145

> <Gold.Chemscore.Internal_Hbond>
0.0000

> <Gold.Chemscore.DEClash>
0.4227

> <Gold.Chemscore.DEInternal>
0.3397

> <Gold.Chemscore.Rot>
1.4591

> <Gold.Chemscore.Internal.Correction>
   9.000000E+99

> <Gold.Chemscore.Hbonds>
donor molecule, donor type, donor heavy atom, donor atom, acceptor molecule, acceptor atom, score
      P1  H  7997  8010       L1    18  0.69
      P1  H 10752 10765       L1    19  0.26

> <Gold.Chemscore.Hbond.Weighted>
-4.9284

> <Gold.Chemscore.Metal.Weighted>
-0.0000

> <Gold.Chemscore.Lipo.Weighted>
-11.2805

> <Gold.Chemscore.Internal_Hbond.Weighted>
0.0000

> <Gold.Chemscore.DEClash.Weighted>
0.4227

> <Gold.Chemscore.DEInternal.Weighted>
0.3397

> <Gold.Chemscore.Rot.Weighted>
3.7353

> <Gold.Chemscore.Internal.Correction.Weighted>
   9.000000E+99

> <Gold.Protein.RotatedTorsions>
[ 6907 6896 6895 6894 ] final  126.68 input  -60.11 | X-H torsion
[ 7974 7965 7964 7962 ] final   87.47 input  175.53 | X-H torsion
[ 8008 7997 7996 7995 ] final   56.56 input   59.86 | X-H torsion
[ 10167 10162 10161 10158 ] final   40.45 input  -65.29 | X-H torsion
[ 10718 10713 10712 10709 ] final -165.98 input   66.30 | X-H torsion
[ 10763 10752 10751 10750 ] final -151.50 input  -60.55 | X-H torsion
[ 11005 11000 10999 10996 ] final  -41.58 input  -57.11 | X-H torsion

> <Gold.Protein.ActiveResidues>
 VAL166  LYS551  ARG553  GLY616  TRP617  ASP618  TYR619  PRO620  LYS621  CYS622 
 ASP623  PHE694  ASN695  SER759  ASP760  ASP761  ALA762  ILE779  LEU786  VAL792 
 PHE793  MET794  SER795  GLU796  ALA797  LYS798  CYS799  TRP800  GLU811  SER814 

> <Gold.Protein.RotatedAtoms>
  152.3882  133.6640  159.6215 H   0  0  0  0  0  0  0  0  0  0  0  0  # atno 6907 bound_to 6896
  150.7796  133.9000  159.3347 H   0  0  0  0  0  0  0  0  0  0  0  0  # atno 6908 bound_to 6896
  151.6792  135.0966  160.0264 H   0  0  0  0  0  0  0  0  0  0  0  0  # atno 6909 bound_to 6896
  145.5586  139.2302  143.2472 H   0  0  0  0  0  0  0  0  0  0  0  0  # atno 7974 bound_to 7965
  155.5195  140.3479  155.4404 H   0  0  0  0  0  0  0  0  0  0  0  0  # atno 8008 bound_to 7997
  156.0794  140.1383  156.9758 H   0  0  0  0  0  0  0  0  0  0  0  0  # atno 8009 bound_to 7997
  154.4571  140.0949  156.6765 H   0  0  0  0  0  0  0  0  0  0  0  0  # atno 8010 bound_to 7997
  140.3740  144.2067  150.6132 H   0  0  0  0  0  0  0  0  0  0  0  0  # atno 10167 bound_to 10162
  156.6612  130.9046  151.3029 H   0  0  0  0  0  0  0  0  0  0  0  0  # atno 10718 bound_to 10713
  154.8054  135.3258  154.7444 H   0  0  0  0  0  0  0  0  0  0  0  0  # atno 10763 bound_to 10752
  153.8104  135.6896  153.4846 H   0  0  0  0  0  0  0  0  0  0  0  0  # atno 10764 bound_to 10752
  153.1796  135.4592  154.9955 H   0  0  0  0  0  0  0  0  0  0  0  0  # atno 10765 bound_to 10752
  141.0256  133.6843  156.2476 H   0  0  0  0  0  0  0  0  0  0  0  0  # atno 11005 bound_to 11000
  146.1867  140.6410  142.9164 LP  0  0  0  0  0  0  0  0  0  0  0  0  # atno 17320 bound_to 7965
  144.7494  140.5152  143.6812 LP  0  0  0  0  0  0  0  0  0  0  0  0  # atno 17321 bound_to 7965
  140.5004  143.2319  151.8687 LP  0  0  0  0  0  0  0  0  0  0  0  0  # atno 17342 bound_to 10162
  139.4801  144.5065  151.8990 LP  0  0  0  0  0  0  0  0  0  0  0  0  # atno 17343 bound_to 10162
  157.7109  130.9439  150.1086 LP  0  0  0  0  0  0  0  0  0  0  0  0  # atno 17370 bound_to 10713
  156.2010  130.3660  149.8789 LP  0  0  0  0  0  0  0  0  0  0  0  0  # atno 17371 bound_to 10713
  140.6498  134.5079  157.5576 LP  0  0  0  0  0  0  0  0  0  0  0  0  # atno 17394 bound_to 11000
  139.9173  134.8219  156.1323 LP  0  0  0  0  0  0  0  0  0  0  0  0  # atno 17395 bound_to 11000

$$$$
