AV-unprocessed.smi:3293|AV-procd|sdf|12631|dock2
  -GOLD-   2272018563D 1   1.00000     0.00000
 Structure written by MMmdl.
 44 45  0  0  0  0  0  0  0  0  2 V2000
  149.4687  144.8685  159.7981 C   0  0  0  0  0  0  0  0  0  0  0  0
  150.7561  144.1355  160.1371 C   0  0  0  0  0  0  0  0  0  0  0  0
  151.3490  144.3428  161.3284 C   0  0  0  0  0  0  0  0  0  0  0  0
  152.5874  143.6175  161.8013 C   0  0  0  0  0  0  0  0  0  0  0  0
  152.7796  142.3064  161.0359 C   0  0  0  0  0  0  0  0  0  0  0  0
  152.6837  142.5246  159.5170 C   0  0  1  0  0  0  0  0  0  0  0  0
  152.9719  141.1969  158.7901 C   0  0  0  0  0  0  0  0  0  0  0  0
  151.3215  143.1542  159.0898 C   0  0  2  0  0  0  0  0  0  0  0  0
  151.4519  143.7922  157.6810 C   0  0  0  0  0  0  0  0  0  0  0  0
  150.7151  143.0480  156.6385 N   0  3  0  0  0  0  0  0  0  0  0  0
  150.6483  141.5927  156.8735 C   0  0  0  0  0  0  0  0  0  0  0  0
  150.8590  140.8104  155.5706 C   0  0  0  0  0  0  0  0  0  0  0  0
  149.5693  140.6400  154.8174 C   0  0  0  0  0  0  0  0  0  0  0  0
  149.3354  139.8546  153.6525 C   0  0  0  0  0  0  0  0  0  0  0  0
  148.0811  139.9120  153.2367 N   0  0  0  0  0  0  0  0  0  0  0  0
  147.4720  140.7330  154.1164 N   0  0  0  0  0  0  0  0  0  0  0  0
  146.0632  141.0261  153.9618 C   0  0  0  0  0  0  0  0  0  0  0  0
  148.3458  141.1904  155.0791 C   0  0  0  0  0  0  0  0  0  0  0  0
  148.7069  144.1668  159.4579 H   0  0  0  0  0  0  0  0  0  0  0  0
  149.6373  145.6147  159.0222 H   0  0  0  0  0  0  0  0  0  0  0  0
  149.0702  145.3912  160.6683 H   0  0  0  0  0  0  0  0  0  0  0  0
  150.9309  145.0577  162.0223 H   0  0  0  0  0  0  0  0  0  0  0  0
  153.4485  144.2739  161.6722 H   0  0  0  0  0  0  0  0  0  0  0  0
  152.4970  143.4115  162.8681 H   0  0  0  0  0  0  0  0  0  0  0  0
  153.7447  141.8724  161.2998 H   0  0  0  0  0  0  0  0  0  0  0  0
  152.0219  141.5870  161.3502 H   0  0  0  0  0  0  0  0  0  0  0  0
  153.4773  143.2251  159.2508 H   0  0  0  0  0  0  0  0  0  0  0  0
  152.2088  140.4507  159.0139 H   0  0  0  0  0  0  0  0  0  0  0  0
  153.9330  140.7847  159.0992 H   0  0  0  0  0  0  0  0  0  0  0  0
  153.0123  141.3136  157.7082 H   0  0  0  0  0  0  0  0  0  0  0  0
  150.5954  142.3417  159.0324 H   0  0  0  0  0  0  0  0  0  0  0  0
  151.1014  144.8248  157.7131 H   0  0  0  0  0  0  0  0  0  0  0  0
  152.4923  143.8339  157.3630 H   0  0  0  0  0  0  0  0  0  0  0  0
  149.7748  143.4132  156.5864 H   0  0  0  0  0  0  0  0  0  0  0  0
  151.4108  141.3137  157.6022 H   0  0  0  0  0  0  0  0  0  0  0  0
  149.6790  141.3434  157.3074 H   0  0  0  0  0  0  0  0  0  0  0  0
  151.5938  141.3281  154.9530 H   0  0  0  0  0  0  0  0  0  0  0  0
  151.2969  139.8383  155.8004 H   0  0  0  0  0  0  0  0  0  0  0  0
  150.0361  139.2451  153.1010 H   0  0  0  0  0  0  0  0  0  0  0  0
  145.6840  141.5182  154.8579 H   0  0  0  0  0  0  0  0  0  0  0  0
  145.5055  140.1025  153.8037 H   0  0  0  0  0  0  0  0  0  0  0  0
  145.9170  141.6844  153.1053 H   0  0  0  0  0  0  0  0  0  0  0  0
  148.0274  141.8603  155.8644 H   0  0  0  0  0  0  0  0  0  0  0  0
  151.1727  143.2062  155.7520 H   0  0  0  0  0  0  0  0  0  0  0  0
  1  2  1  0  0  0  0
  1 19  1  0  0  0  0
  1 20  1  0  0  0  0
  1 21  1  0  0  0  0
  2  8  1  0  0  0  0
  2  3  2  0  0  0  0
  3  4  1  0  0  0  0
  3 22  1  0  0  0  0
  4  5  1  0  0  0  0
  4 23  1  0  0  0  0
  4 24  1  0  0  0  0
  5  6  1  0  0  0  0
  5 25  1  0  0  0  0
  5 26  1  0  0  0  0
  6  7  1  0  0  0  0
  6  8  1  0  0  0  0
  6 27  1  0  0  0  0
  7 28  1  0  0  0  0
  7 29  1  0  0  0  0
  7 30  1  0  0  0  0
  8  9  1  0  0  0  0
  8 31  1  0  0  0  0
  9 10  1  0  0  0  0
  9 32  1  0  0  0  0
  9 33  1  0  0  0  0
 10 11  1  0  0  0  0
 10 34  1  0  0  0  0
 10 44  1  0  0  0  0
 11 12  1  0  0  0  0
 11 35  1  0  0  0  0
 11 36  1  0  0  0  0
 12 13  1  0  0  0  0
 12 37  1  0  0  0  0
 12 38  1  0  0  0  0
 13 18  2  0  0  0  0
 13 14  1  0  0  0  0
 14 15  2  0  0  0  0
 14 39  1  0  0  0  0
 15 16  1  0  0  0  0
 16 17  1  0  0  0  0
 16 18  1  0  0  0  0
 17 40  1  0  0  0  0
 17 41  1  0  0  0  0
 17 42  1  0  0  0  0
 18 43  1  0  0  0  0
M  CHG  1  10   1
M  END
> <s_m_source_file>
AV-unprocessed.smi

> <i_m_source_file_index>
3293

> <i_lp_mmshare_version>
43012

> <i_f3d_flags>
0

> <s_epik_input>
W0NIM11DMT1bQ0hdW0NIMl1bQ0gyXVtDQEBIXShbQ0gzXSlbQ0BIXTFbQ0gyXVtOSF1bQ0gyXVtDSDJdYzJbY0hdbm4oW0NIM10pW2NIXTI=

> <s_epik_cmdline>
J2VwaWtfcHl0aG9uJywgJy1waCcsICc3LjAnLCAnLXRuJywgJzgnLCAnLW1hJywgJzIwMCcsICctbWV0YWxfYmluZGluZycsICctaW1hZScsICc8aW5maWxlLm1hZT4nLCAnLW9tYWUnLCAnPG91dGZpbGUubWFlPic=

> <r_lp_tautomer_probability>
1

> <r_epik_Ionization_Penalty>
0.000598621

> <r_epik_Ionization_Penalty_Charging>
0.000582095

> <r_epik_Ionization_Penalty_Neutral>
1.65262e-05

> <r_epik_State_Penalty>
-0

> <r_epik_Charging_Adjusted_Penalty>
0.000582095

> <i_epik_Tot_Q>
1

> <i_epik_Tot_abs_Q>
1

> <r_epik_Metal_State_Penalty>
-0

> <b_epik_Metal_Only>
0

> <s_lp_Force_Field>
OPLS_2005

> <r_lp_Energy>
11.8092

> <b_lp_Chiralities_Consistent>
1

> <s_lp_Variant>
AV-unprocessed.smi:3293-3

> <Gold.Version>
5.8.1

> <Gold.Id.Protein>
6NUR|6NUR_protein|mol2

> <Gold.PLP.Fitness>
52.2153

> <Gold.PLP.PLP>
-44.0897

> <Gold.PLP.part.hbond>
-1.0000

> <Gold.PLP.part.metal>
0.0000

> <Gold.PLP.part.buried>
0.1854

> <Gold.PLP.part.nonpolar>
-43.1181

> <Gold.PLP.part.repulsive>
0.2271

> <Gold.PLP.ligand.clash>
0.0000

> <Gold.PLP.ligand.torsion>
1.3806

> <Gold.PLP.Chemscore.Hbond>
1.9840

> <Gold.PLP.Chemscore.CHOScore>
1.6186

> <Gold.PLP.Chemscore.Metal>
0.0000

> <Gold.Chemscore.Hbonds>
donor molecule, donor type, donor heavy atom, donor atom, acceptor molecule, acceptor atom, score
      L1  H    10    34       P1  8028  1.50
      L1  C    14    39       P1  7957  0.36

> <Gold.PLP.Chemscore.Internal.Correction>
0.0790

> <Gold.Rescore>
     Score         DG    S(hbond)    S(metal)    S(lipo)     H(rot)  DE(clash)    DE(int)     intcor
     17.44     -18.93       0.81        0.00     124.21       1.48       0.30       1.18       ----

> <Gold.Chemscore.Fitness>
17.4429

> <Gold.Chemscore.DG>
-18.9259

> <Gold.Chemscore.ZeroCoef>
-5.4800

> <Gold.Chemscore.Hbond>
0.8125

> <Gold.Chemscore.Metal>
0.0000

> <Gold.Chemscore.Lipo>
124.2149

> <Gold.Chemscore.Internal_Hbond>
0.0000

> <Gold.Chemscore.DEClash>
0.3033

> <Gold.Chemscore.DEInternal>
1.1797

> <Gold.Chemscore.Rot>
1.4847

> <Gold.Chemscore.Internal.Correction>
   9.000000E+99

> <Gold.Chemscore.Hbonds>
donor molecule, donor type, donor heavy atom, donor atom, acceptor molecule, acceptor atom, score
      L1  H    10    34       P1  8028  0.74

> <Gold.Chemscore.Hbond.Weighted>
-2.7136

> <Gold.Chemscore.Metal.Weighted>
-0.0000

> <Gold.Chemscore.Lipo.Weighted>
-14.5331

> <Gold.Chemscore.Internal_Hbond.Weighted>
0.0000

> <Gold.Chemscore.DEClash.Weighted>
0.3033

> <Gold.Chemscore.DEInternal.Weighted>
1.1797

> <Gold.Chemscore.Rot.Weighted>
3.8008

> <Gold.Chemscore.Internal.Correction.Weighted>
   9.000000E+99

> <Gold.Protein.RotatedTorsions>
[ 6907 6896 6895 6894 ] final -154.09 input  -60.11 | X-H torsion
[ 7974 7965 7964 7962 ] final   61.72 input  175.53 | X-H torsion
[ 8008 7997 7996 7995 ] final   -0.01 input   59.86 | X-H torsion
[ 10167 10162 10161 10158 ] final  179.03 input  -65.29 | X-H torsion
[ 10718 10713 10712 10709 ] final  -78.42 input   66.30 | X-H torsion
[ 10763 10752 10751 10750 ] final  123.51 input  -60.55 | X-H torsion
[ 11005 11000 10999 10996 ] final   32.68 input  -57.11 | X-H torsion

> <Gold.Protein.ActiveResidues>
 VAL166  LYS551  ARG553  GLY616  TRP617  ASP618  TYR619  PRO620  LYS621  CYS622 
 ASP623  PHE694  ASN695  SER759  ASP760  ASP761  ALA762  ILE779  LEU786  VAL792 
 PHE793  MET794  SER795  GLU796  ALA797  LYS798  CYS799  TRP800  GLU811  SER814 

> <Gold.Protein.RotatedAtoms>
  151.2523  133.4344  159.2611 H   0  0  0  0  0  0  0  0  0  0  0  0  # atno 6907 bound_to 6896
  151.0606  134.9734  159.8269 H   0  0  0  0  0  0  0  0  0  0  0  0  # atno 6908 bound_to 6896
  152.5397  134.2473  159.8938 H   0  0  0  0  0  0  0  0  0  0  0  0  # atno 6909 bound_to 6896
  145.8816  139.3447  143.0703 H   0  0  0  0  0  0  0  0  0  0  0  0  # atno 7974 bound_to 7965
  154.6629  140.2594  155.7089 H   0  0  0  0  0  0  0  0  0  0  0  0  # atno 8008 bound_to 7997
  156.2626  140.2845  156.1030 H   0  0  0  0  0  0  0  0  0  0  0  0  # atno 8009 bound_to 7997
  155.1281  140.0378  157.2758 H   0  0  0  0  0  0  0  0  0  0  0  0  # atno 8010 bound_to 7997
  139.5319  144.2609  152.0707 H   0  0  0  0  0  0  0  0  0  0  0  0  # atno 10167 bound_to 10162
  156.0118  130.4518  150.3494 H   0  0  0  0  0  0  0  0  0  0  0  0  # atno 10718 bound_to 10713
  153.6467  135.3370  155.3087 H   0  0  0  0  0  0  0  0  0  0  0  0  # atno 10763 bound_to 10752
  154.8547  135.4331  154.1948 H   0  0  0  0  0  0  0  0  0  0  0  0  # atno 10764 bound_to 10752
  153.2880  135.7014  153.7395 H   0  0  0  0  0  0  0  0  0  0  0  0  # atno 10765 bound_to 10752
  140.2709  134.3083  155.7828 H   0  0  0  0  0  0  0  0  0  0  0  0  # atno 11005 bound_to 11000
  145.9017  140.9238  143.0500 LP  0  0  0  0  0  0  0  0  0  0  0  0  # atno 17320 bound_to 7965
  144.6727  140.1041  143.7459 LP  0  0  0  0  0  0  0  0  0  0  0  0  # atno 17321 bound_to 7965
  140.2074  144.4597  150.6402 LP  0  0  0  0  0  0  0  0  0  0  0  0  # atno 17342 bound_to 10162
  140.6502  143.2223  151.6094 LP  0  0  0  0  0  0  0  0  0  0  0  0  # atno 17343 bound_to 10162
  157.1587  131.0339  151.2851 LP  0  0  0  0  0  0  0  0  0  0  0  0  # atno 17370 bound_to 10713
  157.4330  130.7501  149.7005 LP  0  0  0  0  0  0  0  0  0  0  0  0  # atno 17371 bound_to 10713
  141.2177  133.7466  156.9333 LP  0  0  0  0  0  0  0  0  0  0  0  0  # atno 17394 bound_to 11000
  140.1374  134.9316  157.2420 LP  0  0  0  0  0  0  0  0  0  0  0  0  # atno 17395 bound_to 11000

$$$$
