AV-unprocessed.smi:3202|AV-procd|sdf|12246|dock3
  -GOLD-   2272018 83D 1   1.00000     0.00000
 Structure written by MMmdl.
 43 44  0  0  0  0  0  0  0  0  2 V2000
  139.8413  139.5341  154.0981 C   0  0  0  0  0  0  0  0  0  0  0  0
  140.2863  138.1024  154.1528 C   0  0  0  0  0  0  0  0  0  0  0  0
  141.2645  137.4524  153.3448 C   0  0  0  0  0  0  0  0  0  0  0  0
  141.2878  136.1653  153.8077 C   0  0  0  0  0  0  0  0  0  0  0  0
  142.0744  134.9638  153.3857 C   0  0  0  0  0  0  0  0  0  0  0  0
  143.5988  135.0748  153.6098 C   0  0  1  0  0  0  0  0  0  0  0  0
  143.9366  135.4583  155.0599 C   0  0  0  0  0  0  0  0  0  0  0  0
  144.2718  133.7954  153.2856 N   0  3  0  0  0  0  0  0  0  0  0  0
  144.5581  133.5537  151.8510 C   0  0  2  0  0  0  0  0  0  0  0  0
  143.4156  132.8668  151.0924 C   0  0  0  0  0  0  0  0  0  0  0  0
  144.0813  132.1734  149.8972 C   0  0  0  0  0  0  0  0  0  0  0  0
  145.5967  132.2564  150.1374 C   0  0  0  0  0  0  0  0  0  0  0  0
  145.7877  132.6509  151.6138 C   0  0  0  0  0  0  0  0  0  0  0  0
  147.1080  133.4175  151.8185 C   0  0  0  0  0  0  0  0  0  0  0  0
  145.7841  131.3832  152.4995 C   0  0  0  0  0  0  0  0  0  0  0  0
  140.3526  136.1075  154.8158 N   0  0  0  0  0  0  0  0  0  0  0  0
  139.7405  137.2848  155.0399 N   0  0  0  0  0  0  0  0  0  0  0  0
  140.1267  135.2843  155.3561 H   0  0  0  0  0  0  0  0  0  0  0  0
  140.2733  140.0482  153.2392 H   0  0  0  0  0  0  0  0  0  0  0  0
  140.1456  140.0738  154.9951 H   0  0  0  0  0  0  0  0  0  0  0  0
  138.7565  139.6075  154.0152 H   0  0  0  0  0  0  0  0  0  0  0  0
  141.8578  137.8724  152.5460 H   0  0  0  0  0  0  0  0  0  0  0  0
  141.8661  134.7852  152.3319 H   0  0  0  0  0  0  0  0  0  0  0  0
  141.6986  134.0848  153.9117 H   0  0  0  0  0  0  0  0  0  0  0  0
  143.9998  135.8554  152.9616 H   0  0  0  0  0  0  0  0  0  0  0  0
  143.5202  136.4292  155.3282 H   0  0  0  0  0  0  0  0  0  0  0  0
  145.0155  135.5196  155.2068 H   0  0  0  0  0  0  0  0  0  0  0  0
  143.5468  134.7244  155.7664 H   0  0  0  0  0  0  0  0  0  0  0  0
  145.1675  133.8136  153.7520 H   0  0  0  0  0  0  0  0  0  0  0  0
  144.7530  134.5158  151.3728 H   0  0  0  0  0  0  0  0  0  0  0  0
  142.9360  132.1155  151.7213 H   0  0  0  0  0  0  0  0  0  0  0  0
  142.6467  133.5742  150.7797 H   0  0  0  0  0  0  0  0  0  0  0  0
  143.7534  131.1353  149.8331 H   0  0  0  0  0  0  0  0  0  0  0  0
  143.8142  132.6572  148.9572 H   0  0  0  0  0  0  0  0  0  0  0  0
  146.1067  131.3278  149.8780 H   0  0  0  0  0  0  0  0  0  0  0  0
  146.0081  133.0316  149.4890 H   0  0  0  0  0  0  0  0  0  0  0  0
  147.9672  132.7978  151.5592 H   0  0  0  0  0  0  0  0  0  0  0  0
  147.2284  133.7292  152.8565 H   0  0  0  0  0  0  0  0  0  0  0  0
  147.1540  134.3142  151.1997 H   0  0  0  0  0  0  0  0  0  0  0  0
  146.6129  130.7236  152.2396 H   0  0  0  0  0  0  0  0  0  0  0  0
  144.8667  130.8051  152.3875 H   0  0  0  0  0  0  0  0  0  0  0  0
  145.8919  131.6285  153.5562 H   0  0  0  0  0  0  0  0  0  0  0  0
  143.7374  133.0256  153.6624 H   0  0  0  0  0  0  0  0  0  0  0  0
  1 19  1  0  0  0  0
  1 20  1  0  0  0  0
  1 21  1  0  0  0  0
  1  2  1  0  0  0  0
  2 17  2  0  0  0  0
  2  3  1  0  0  0  0
  3  4  2  0  0  0  0
  3 22  1  0  0  0  0
  4 16  1  0  0  0  0
  4  5  1  0  0  0  0
  5  6  1  0  0  0  0
  5 23  1  0  0  0  0
  5 24  1  0  0  0  0
  6  7  1  0  0  0  0
  6  8  1  0  0  0  0
  6 25  1  0  0  0  0
  7 26  1  0  0  0  0
  7 27  1  0  0  0  0
  7 28  1  0  0  0  0
  8  9  1  0  0  0  0
  8 29  1  0  0  0  0
  8 43  1  0  0  0  0
  9 13  1  0  0  0  0
  9 10  1  0  0  0  0
  9 30  1  0  0  0  0
 10 11  1  0  0  0  0
 10 31  1  0  0  0  0
 10 32  1  0  0  0  0
 11 12  1  0  0  0  0
 11 33  1  0  0  0  0
 11 34  1  0  0  0  0
 12 13  1  0  0  0  0
 12 35  1  0  0  0  0
 12 36  1  0  0  0  0
 13 14  1  0  0  0  0
 13 15  1  0  0  0  0
 14 37  1  0  0  0  0
 14 38  1  0  0  0  0
 14 39  1  0  0  0  0
 15 40  1  0  0  0  0
 15 41  1  0  0  0  0
 15 42  1  0  0  0  0
 16 17  1  0  0  0  0
 16 18  1  0  0  0  0
M  CHG  1   8   1
M  END
> <s_m_source_file>
AV-unprocessed.smi

> <i_m_source_file_index>
3202

> <i_lp_mmshare_version>
43012

> <i_f3d_flags>
0

> <s_epik_input>
W0NIM11jMVtjSF1jKG5bbkhdMSlbQ0gyXVtDQEhdKFtDSDNdKVtOSF1bQ0BASF0oQzIoW0NIM10pW0NIM10pW0NIMl1bQ0gyXVtDSDJdMg==

> <s_epik_cmdline>
J2VwaWtfcHl0aG9uJywgJy1waCcsICc3LjAnLCAnLXRuJywgJzgnLCAnLW1hJywgJzIwMCcsICctbWV0YWxfYmluZGluZycsICctaW1hZScsICc8aW5maWxlLm1hZT4nLCAnLW9tYWUnLCAnPG91dGZpbGUubWFlPic=

> <r_lp_tautomer_probability>
0.5

> <r_epik_Ionization_Penalty>
0.000449684

> <r_epik_Ionization_Penalty_Charging>
0.000404963

> <r_epik_Ionization_Penalty_Neutral>
4.47208e-05

> <r_epik_State_Penalty>
0.41068

> <r_epik_Charging_Adjusted_Penalty>
0.411085

> <i_epik_Tot_Q>
1

> <i_epik_Tot_abs_Q>
1

> <r_epik_Metal_State_Penalty>
0.410687

> <b_epik_Metal_Only>
0

> <s_lp_Force_Field>
OPLS_2005

> <r_lp_Energy>
31.7221

> <b_lp_Chiralities_Consistent>
1

> <s_lp_Variant>
AV-unprocessed.smi:3202-6

> <Gold.Version>
5.8.1

> <Gold.Id.Protein>
6NUR|6NUR_protein|mol2

> <Gold.PLP.Fitness>
41.3979

> <Gold.PLP.PLP>
-33.6505

> <Gold.PLP.part.hbond>
-2.0000

> <Gold.PLP.part.metal>
0.0000

> <Gold.PLP.part.buried>
-5.8655

> <Gold.PLP.part.nonpolar>
-25.1433

> <Gold.PLP.part.repulsive>
0.1480

> <Gold.PLP.ligand.clash>
0.0000

> <Gold.PLP.ligand.torsion>
0.6348

> <Gold.PLP.Chemscore.Hbond>
3.0000

> <Gold.PLP.Chemscore.CHOScore>
0.0000

> <Gold.PLP.Chemscore.Metal>
0.0000

> <Gold.Chemscore.Hbonds>
donor molecule, donor type, donor heavy atom, donor atom, acceptor molecule, acceptor atom, score
      L1  H     8    43       P1 10957  2.00
      L1  H    16    18       P1 11000  1.00

> <Gold.PLP.Chemscore.Internal.Correction>
0.0171

> <Gold.Rescore>
     Score         DG    S(hbond)    S(metal)    S(lipo)     H(rot)  DE(clash)    DE(int)     intcor
     17.94     -18.55       1.92        0.00      88.95       1.46       0.02       0.59       ----

> <Gold.Chemscore.Fitness>
17.9419

> <Gold.Chemscore.DG>
-18.5525

> <Gold.Chemscore.ZeroCoef>
-5.4800

> <Gold.Chemscore.Hbond>
1.9168

> <Gold.Chemscore.Metal>
0.0000

> <Gold.Chemscore.Lipo>
88.9463

> <Gold.Chemscore.Internal_Hbond>
0.0000

> <Gold.Chemscore.DEClash>
0.0202

> <Gold.Chemscore.DEInternal>
0.5903

> <Gold.Chemscore.Rot>
1.4596

> <Gold.Chemscore.Internal.Correction>
   9.000000E+99

> <Gold.Chemscore.Hbonds>
donor molecule, donor type, donor heavy atom, donor atom, acceptor molecule, acceptor atom, score
      L1  H     8    43       P1 10957  0.90
      L1  H    16    18       P1 11000  0.96

> <Gold.Chemscore.Hbond.Weighted>
-6.4022

> <Gold.Chemscore.Metal.Weighted>
-0.0000

> <Gold.Chemscore.Lipo.Weighted>
-10.4067

> <Gold.Chemscore.Internal_Hbond.Weighted>
0.0000

> <Gold.Chemscore.DEClash.Weighted>
0.0202

> <Gold.Chemscore.DEInternal.Weighted>
0.5903

> <Gold.Chemscore.Rot.Weighted>
3.7365

> <Gold.Chemscore.Internal.Correction.Weighted>
   9.000000E+99

> <Gold.Protein.RotatedTorsions>
[ 6907 6896 6895 6894 ] final  -50.67 input  -60.11 | X-H torsion
[ 7974 7965 7964 7962 ] final  -62.27 input  175.53 | X-H torsion
[ 8008 7997 7996 7995 ] final  139.86 input   59.86 | X-H torsion
[ 10167 10162 10161 10158 ] final   93.03 input  -65.29 | X-H torsion
[ 10718 10713 10712 10709 ] final  140.41 input   66.30 | X-H torsion
[ 10763 10752 10751 10750 ] final   48.33 input  -60.55 | X-H torsion
[ 11005 11000 10999 10996 ] final  -87.24 input  -57.11 | X-H torsion

> <Gold.Protein.ActiveResidues>
 VAL166  LYS551  ARG553  GLY616  TRP617  ASP618  TYR619  PRO620  LYS621  CYS622 
 ASP623  PHE694  ASN695  SER759  ASP760  ASP761  ALA762  ILE779  LEU786  VAL792 
 PHE793  MET794  SER795  GLU796  ALA797  LYS798  CYS799  TRP800  GLU811  SER814 

> <Gold.Protein.RotatedAtoms>
  150.8685  134.8053  159.7136 H   0  0  0  0  0  0  0  0  0  0  0  0  # atno 6907 bound_to 6896
  152.4698  134.4985  159.9727 H   0  0  0  0  0  0  0  0  0  0  0  0  # atno 6908 bound_to 6896
  151.5077  133.3453  159.2915 H   0  0  0  0  0  0  0  0  0  0  0  0  # atno 6909 bound_to 6896
  145.7933  140.8697  143.0269 H   0  0  0  0  0  0  0  0  0  0  0  0  # atno 7974 bound_to 7965
  156.2985  140.2356  156.4307 H   0  0  0  0  0  0  0  0  0  0  0  0  # atno 8008 bound_to 7997
  154.8273  140.0435  157.1473 H   0  0  0  0  0  0  0  0  0  0  0  0  # atno 8009 bound_to 7997
  154.9247  140.3008  155.5202 H   0  0  0  0  0  0  0  0  0  0  0  0  # atno 8010 bound_to 7997
  139.8220  144.6727  150.9507 H   0  0  0  0  0  0  0  0  0  0  0  0  # atno 10167 bound_to 10162
  157.4036  131.1019  151.0526 H   0  0  0  0  0  0  0  0  0  0  0  0  # atno 10718 bound_to 10713
  152.9793  135.5947  154.3908 H   0  0  0  0  0  0  0  0  0  0  0  0  # atno 10763 bound_to 10752
  154.3564  135.2767  155.2346 H   0  0  0  0  0  0  0  0  0  0  0  0  # atno 10764 bound_to 10752
  154.4363  135.6024  153.6155 H   0  0  0  0  0  0  0  0  0  0  0  0  # atno 10765 bound_to 10752
  141.1619  133.7500  156.9278 H   0  0  0  0  0  0  0  0  0  0  0  0  # atno 11005 bound_to 11000
  144.6779  140.0154  143.7484 LP  0  0  0  0  0  0  0  0  0  0  0  0  # atno 17320 bound_to 7965
  145.9954  139.3048  143.0959 LP  0  0  0  0  0  0  0  0  0  0  0  0  # atno 17321 bound_to 7965
  140.7812  143.4083  151.1035 LP  0  0  0  0  0  0  0  0  0  0  0  0  # atno 17342 bound_to 10162
  139.7743  143.8449  152.3126 LP  0  0  0  0  0  0  0  0  0  0  0  0  # atno 17343 bound_to 10162
  157.1516  130.6186  149.5584 LP  0  0  0  0  0  0  0  0  0  0  0  0  # atno 17370 bound_to 10713
  155.9830  130.4847  150.6911 LP  0  0  0  0  0  0  0  0  0  0  0  0  # atno 17371 bound_to 10713
  140.1407  134.9295  157.2463 LP  0  0  0  0  0  0  0  0  0  0  0  0  # atno 17394 bound_to 11000
  140.2840  134.3317  155.7334 LP  0  0  0  0  0  0  0  0  0  0  0  0  # atno 17395 bound_to 11000

$$$$
