AV-unprocessed.smi:608|AV-procd|sdf|3044|dock10
  -GOLD-   2262023563D 1   1.00000     0.00000
 Structure written by MMmdl.
 40 41  0  0  0  0  0  0  0  0  1 V2000
  152.8504  146.0124  159.2718 C   0  0  0  0  0  0  0  0  0  0  0  0
  151.9833  144.7651  159.0673 C   0  0  0  0  0  0  0  0  0  0  0  0
  152.7024  143.4927  159.3742 C   0  0  0  0  0  0  0  0  0  0  0  0
  153.0353  142.4872  158.5001 C   0  0  0  0  0  0  0  0  0  0  0  0
  153.7031  141.4161  159.0983 N   0  0  0  0  0  0  0  0  0  0  0  0
  153.8687  141.5884  160.4119 C   0  0  0  0  0  0  0  0  0  0  0  0
  154.5665  140.6052  161.2911 C   0  0  0  0  0  0  0  0  0  0  0  0
  154.8547  139.2762  160.5811 C   0  0  0  0  0  0  0  0  0  0  0  0
  153.7644  138.9379  159.6769 N   0  0  0  0  0  0  0  0  0  0  0  0
  153.9207  138.5151  158.4117 C   0  0  0  0  0  0  0  0  0  0  0  0
  155.0343  138.3730  157.9045 O   0  0  0  0  0  0  0  0  0  0  0  0
  152.7620  138.2568  157.7506 N   0  0  0  0  0  0  0  0  0  0  0  0
  151.4102  138.5785  158.2289 C   0  0  0  0  0  0  0  0  0  0  0  0
  151.0233  139.9842  157.7355 C   0  0  0  0  0  0  0  0  0  0  0  0
  150.5120  139.9521  156.3689 N   0  0  0  0  0  0  0  0  0  0  0  0
  151.1467  139.4873  155.2770 C   0  0  0  0  0  0  0  0  0  0  0  0
  150.5921  139.4843  154.1804 O   0  0  0  0  0  0  0  0  0  0  0  0
  152.5939  138.9733  155.3860 C   0  0  0  0  0  0  0  0  0  0  0  0
  152.7621  137.7868  156.3596 C   0  0  0  0  0  0  0  0  0  0  0  0
  153.2331  143.1218  160.9950 S   0  0  0  0  0  0  0  0  0  0  0  0
  152.2872  146.9187  159.0491 H   0  0  0  0  0  0  0  0  0  0  0  0
  153.7246  145.9966  158.6202 H   0  0  0  0  0  0  0  0  0  0  0  0
  153.2013  146.0826  160.3019 H   0  0  0  0  0  0  0  0  0  0  0  0
  151.0933  144.8408  159.6928 H   0  0  0  0  0  0  0  0  0  0  0  0
  151.6260  144.7389  158.0375 H   0  0  0  0  0  0  0  0  0  0  0  0
  152.8344  142.4508  157.4395 H   0  0  0  0  0  0  0  0  0  0  0  0
  155.4976  141.0547  161.6386 H   0  0  0  0  0  0  0  0  0  0  0  0
  153.9540  140.4322  162.1773 H   0  0  0  0  0  0  0  0  0  0  0  0
  155.7869  139.3462  160.0178 H   0  0  0  0  0  0  0  0  0  0  0  0
  154.9774  138.4770  161.3138 H   0  0  0  0  0  0  0  0  0  0  0  0
  152.8251  139.0311  160.0347 H   0  0  0  0  0  0  0  0  0  0  0  0
  150.6859  137.8367  157.8879 H   0  0  0  0  0  0  0  0  0  0  0  0
  151.3458  138.5374  159.3164 H   0  0  0  0  0  0  0  0  0  0  0  0
  150.2235  140.3758  158.3644 H   0  0  0  0  0  0  0  0  0  0  0  0
  151.8524  140.6891  157.8175 H   0  0  0  0  0  0  0  0  0  0  0  0
  149.5708  140.2943  156.2386 H   0  0  0  0  0  0  0  0  0  0  0  0
  152.9111  138.6549  154.3922 H   0  0  0  0  0  0  0  0  0  0  0  0
  153.2537  139.7976  155.6597 H   0  0  0  0  0  0  0  0  0  0  0  0
  153.6825  137.2509  156.1233 H   0  0  0  0  0  0  0  0  0  0  0  0
  151.9693  137.0528  156.2070 H   0  0  0  0  0  0  0  0  0  0  0  0
  1  2  1  0  0  0  0
  1 21  1  0  0  0  0
  1 22  1  0  0  0  0
  1 23  1  0  0  0  0
  2  3  1  0  0  0  0
  2 24  1  0  0  0  0
  2 25  1  0  0  0  0
  3 20  1  0  0  0  0
  3  4  2  0  0  0  0
  4  5  1  0  0  0  0
  4 26  1  0  0  0  0
  5  6  2  0  0  0  0
  6  7  1  0  0  0  0
  6 20  1  0  0  0  0
  7  8  1  0  0  0  0
  7 27  1  0  0  0  0
  7 28  1  0  0  0  0
  8  9  1  0  0  0  0
  8 29  1  0  0  0  0
  8 30  1  0  0  0  0
  9 10  1  0  0  0  0
  9 31  1  0  0  0  0
 10 11  2  0  0  0  0
 10 12  1  0  0  0  0
 12 19  1  0  0  0  0
 12 13  1  0  0  0  0
 13 14  1  0  0  0  0
 13 32  1  0  0  0  0
 13 33  1  0  0  0  0
 14 15  1  0  0  0  0
 14 34  1  0  0  0  0
 14 35  1  0  0  0  0
 15 16  1  0  0  0  0
 15 36  1  0  0  0  0
 16 17  2  0  0  0  0
 16 18  1  0  0  0  0
 18 19  1  0  0  0  0
 18 37  1  0  0  0  0
 18 38  1  0  0  0  0
 19 39  1  0  0  0  0
 19 40  1  0  0  0  0
M  END
> <s_m_source_file>
AV-unprocessed.smi

> <i_m_source_file_index>
608

> <i_lp_mmshare_version>
43012

> <i_f3d_flags>
0

> <s_epik_input>
W0NIM11bQ0gyXWMxW2NIXW5jKHMxKVtDSDJdW0NIMl1bTkhdQyg9TylOMltDSDJdW0NIMl1bTkhdQyg9TylbQ0gyXVtDSDJdMg==

> <s_epik_cmdline>
J2VwaWtfcHl0aG9uJywgJy1waCcsICc3LjAnLCAnLXRuJywgJzgnLCAnLW1hJywgJzIwMCcsICctbWV0YWxfYmluZGluZycsICctaW1hZScsICc8aW5maWxlLm1hZT4nLCAnLW9tYWUnLCAnPG91dGZpbGUubWFlPic=

> <r_epik_Ionization_Penalty>
0.000937608

> <r_epik_Ionization_Penalty_Charging>
0

> <r_epik_Ionization_Penalty_Neutral>
0.000937608

> <r_epik_State_Penalty>
0.000579253

> <r_epik_Charging_Adjusted_Penalty>
0.000579253

> <i_epik_Tot_Q>
0

> <i_epik_Tot_abs_Q>
0

> <r_epik_Metal_State_Penalty>
-0

> <b_epik_Metal_Only>
0

> <s_lp_Force_Field>
OPLS_2005

> <r_lp_Energy>
19.2261

> <b_lp_Chiralities_Consistent>
1

> <s_lp_Variant>
AV-unprocessed.smi:608-1

> <Gold.Version>
5.8.1

> <Gold.Id.Protein>
6NUR|6NUR_protein|mol2

> <Gold.PLP.Fitness>
44.1305

> <Gold.PLP.PLP>
-39.0467

> <Gold.PLP.part.hbond>
-1.8890

> <Gold.PLP.part.metal>
0.0000

> <Gold.PLP.part.buried>
-4.6698

> <Gold.PLP.part.nonpolar>
-33.7432

> <Gold.PLP.part.repulsive>
0.2434

> <Gold.PLP.ligand.clash>
0.0000

> <Gold.PLP.ligand.torsion>
0.3313

> <Gold.PLP.Chemscore.Hbond>
1.8960

> <Gold.PLP.Chemscore.CHOScore>
0.0000

> <Gold.PLP.Chemscore.Metal>
0.0000

> <Gold.Chemscore.Hbonds>
donor molecule, donor type, donor heavy atom, donor atom, acceptor molecule, acceptor atom, score
      P1  H  7989  7998       L1    17  0.75
      P1  H  7997  8008       L1    11  0.71

> <Gold.PLP.Chemscore.Internal.Correction>
0.0584

> <Gold.Rescore>
     Score         DG    S(hbond)    S(metal)    S(lipo)     H(rot)  DE(clash)    DE(int)     intcor
     15.65     -17.38       1.22        0.00     102.02       1.61       0.08       1.65       ----

> <Gold.Chemscore.Fitness>
15.6521

> <Gold.Chemscore.DG>
-17.3797

> <Gold.Chemscore.ZeroCoef>
-5.4800

> <Gold.Chemscore.Hbond>
1.2247

> <Gold.Chemscore.Metal>
0.0000

> <Gold.Chemscore.Lipo>
102.0170

> <Gold.Chemscore.Internal_Hbond>
0.0000

> <Gold.Chemscore.DEClash>
0.0766

> <Gold.Chemscore.DEInternal>
1.6510

> <Gold.Chemscore.Rot>
1.6120

> <Gold.Chemscore.Internal.Correction>
   9.000000E+99

> <Gold.Chemscore.Hbonds>
donor molecule, donor type, donor heavy atom, donor atom, acceptor molecule, acceptor atom, score
      P1  H  7989  7998       L1    17  0.09
      P1  H  7997  8008       L1    11  0.16

> <Gold.Chemscore.Hbond.Weighted>
-4.0904

> <Gold.Chemscore.Metal.Weighted>
-0.0000

> <Gold.Chemscore.Lipo.Weighted>
-11.9360

> <Gold.Chemscore.Internal_Hbond.Weighted>
0.0000

> <Gold.Chemscore.DEClash.Weighted>
0.0766

> <Gold.Chemscore.DEInternal.Weighted>
1.6510

> <Gold.Chemscore.Rot.Weighted>
4.1267

> <Gold.Chemscore.Internal.Correction.Weighted>
   9.000000E+99

> <Gold.Protein.RotatedTorsions>
[ 6907 6896 6895 6894 ] final   19.69 input  -60.11 | X-H torsion
[ 7974 7965 7964 7962 ] final    2.00 input  175.53 | X-H torsion
[ 8008 7997 7996 7995 ] final -130.52 input   59.86 | X-H torsion
[ 10167 10162 10161 10158 ] final  161.98 input  -65.29 | X-H torsion
[ 10718 10713 10712 10709 ] final  160.32 input   66.30 | X-H torsion
[ 10763 10752 10751 10750 ] final -126.37 input  -60.55 | X-H torsion
[ 11005 11000 10999 10996 ] final   51.33 input  -57.11 | X-H torsion

> <Gold.Protein.ActiveResidues>
 VAL166  LYS551  ARG553  GLY616  TRP617  ASP618  TYR619  PRO620  LYS621  CYS622 
 ASP623  PHE694  ASN695  SER759  ASP760  ASP761  ALA762  ILE779  LEU786  VAL792 
 PHE793  MET794  SER795  GLU796  ALA797  LYS798  CYS799  TRP800  GLU811  SER814 

> <Gold.Protein.RotatedAtoms>
  151.8848  135.0439  160.0491 H   0  0  0  0  0  0  0  0  0  0  0  0  # atno 6907 bound_to 6896
  152.2483  133.5189  159.5319 H   0  0  0  0  0  0  0  0  0  0  0  0  # atno 6908 bound_to 6896
  150.7075  134.0911  159.3974 H   0  0  0  0  0  0  0  0  0  0  0  0  # atno 6909 bound_to 6896
  146.2442  140.0902  142.8352 H   0  0  0  0  0  0  0  0  0  0  0  0  # atno 7974 bound_to 7965
  155.2972  140.0451  157.3027 H   0  0  0  0  0  0  0  0  0  0  0  0  # atno 8008 bound_to 7997
  154.5507  140.2316  155.8456 H   0  0  0  0  0  0  0  0  0  0  0  0  # atno 8009 bound_to 7997
  156.1964  140.3037  155.9444 H   0  0  0  0  0  0  0  0  0  0  0  0  # atno 8010 bound_to 7997
  139.4855  144.4483  151.8863 H   0  0  0  0  0  0  0  0  0  0  0  0  # atno 10167 bound_to 10162
  157.1521  131.0566  151.2275 H   0  0  0  0  0  0  0  0  0  0  0  0  # atno 10718 bound_to 10713
  154.8745  135.3998  154.3421 H   0  0  0  0  0  0  0  0  0  0  0  0  # atno 10763 bound_to 10752
  153.4218  135.7023  153.6294 H   0  0  0  0  0  0  0  0  0  0  0  0  # atno 10764 bound_to 10752
  153.4953  135.3739  155.2482 H   0  0  0  0  0  0  0  0  0  0  0  0  # atno 10765 bound_to 10752
  140.0942  134.5168  155.8823 H   0  0  0  0  0  0  0  0  0  0  0  0  # atno 11005 bound_to 11000
  145.0657  140.9119  143.4912 LP  0  0  0  0  0  0  0  0  0  0  0  0  # atno 17320 bound_to 7965
  145.1026  139.2812  143.5678 LP  0  0  0  0  0  0  0  0  0  0  0  0  # atno 17321 bound_to 7965
  140.3938  144.2581  150.5897 LP  0  0  0  0  0  0  0  0  0  0  0  0  # atno 17342 bound_to 10162
  140.5121  143.2288  151.8519 LP  0  0  0  0  0  0  0  0  0  0  0  0  # atno 17343 bound_to 10162
  157.4211  130.7438  149.6914 LP  0  0  0  0  0  0  0  0  0  0  0  0  # atno 17370 bound_to 10713
  155.9769  130.4070  150.3750 LP  0  0  0  0  0  0  0  0  0  0  0  0  # atno 17371 bound_to 10713
  141.2087  133.6676  156.6388 LP  0  0  0  0  0  0  0  0  0  0  0  0  # atno 17394 bound_to 11000
  140.3310  134.7929  157.4326 LP  0  0  0  0  0  0  0  0  0  0  0  0  # atno 17395 bound_to 11000

$$$$
