AV-unprocessed.smi:1824|AV-procd|sdf|7394|dock10
  -GOLD-   22720 9 63D 1   1.00000     0.00000
 Structure written by MMmdl.
 44 46  0  0  0  0  0  0  0  0  1 V2000
  145.4661  143.3767  154.3433 C   0  0  0  0  0  0  0  0  0  0  0  0
  146.6999  142.5235  154.0305 C   0  0  1  0  0  0  0  0  0  0  0  0
  147.5589  142.2609  155.2820 C   0  0  0  0  0  0  0  0  0  0  0  0
  148.6912  141.3866  154.9968 N   0  0  0  0  0  0  0  0  0  0  0  0
  149.4949  141.1621  156.1986 C   0  0  0  0  0  0  0  0  0  0  0  0
  151.0130  141.0199  155.9587 C   0  0  2  0  0  0  0  0  0  0  0  0
  151.2447  139.9126  155.1085 O   0  0  0  0  0  0  0  0  0  0  0  0
  151.7844  140.7963  157.2745 C   0  0  0  0  0  0  0  0  0  0  0  0
  151.6683  141.9213  158.1856 N   0  0  0  0  0  0  0  0  0  0  0  0
  151.0220  143.0827  157.9666 C   0  0  0  0  0  0  0  0  0  0  0  0
  151.0412  143.9842  158.9445 N   0  0  0  0  0  0  0  0  0  0  0  0
  151.7879  143.3325  159.9109 C   0  0  0  0  0  0  0  0  0  0  0  0
  152.1789  143.7486  161.2036 C   0  0  0  0  0  0  0  0  0  0  0  0
  152.9517  142.9009  162.0245 C   0  0  0  0  0  0  0  0  0  0  0  0
  153.3180  143.3158  163.2604 F   0  0  0  0  0  0  0  0  0  0  0  0
  153.3444  141.6259  161.5657 C   0  0  0  0  0  0  0  0  0  0  0  0
  154.0852  140.8178  162.3604 F   0  0  0  0  0  0  0  0  0  0  0  0
  152.9674  141.1897  160.2809 C   0  0  0  0  0  0  0  0  0  0  0  0
  152.1964  142.0389  159.4661 C   0  0  0  0  0  0  0  0  0  0  0  0
  148.1935  140.1450  154.4104 C   0  0  0  0  0  0  0  0  0  0  0  0
  147.3313  140.4013  153.1593 C   0  0  1  0  0  0  0  0  0  0  0  0
  146.7367  139.1085  152.5919 C   0  0  0  0  0  0  0  0  0  0  0  0
  146.2600  141.2762  153.5007 O   0  0  0  0  0  0  0  0  0  0  0  0
  145.7532  144.3487  154.7451 H   0  0  0  0  0  0  0  0  0  0  0  0
  144.8235  142.8876  155.0756 H   0  0  0  0  0  0  0  0  0  0  0  0
  144.8745  143.5506  153.4441 H   0  0  0  0  0  0  0  0  0  0  0  0
  147.2991  143.0367  153.2764 H   0  0  0  0  0  0  0  0  0  0  0  0
  147.9185  143.2120  155.6764 H   0  0  0  0  0  0  0  0  0  0  0  0
  146.9377  141.8160  156.0613 H   0  0  0  0  0  0  0  0  0  0  0  0
  149.3493  142.0235  156.8518 H   0  0  0  0  0  0  0  0  0  0  0  0
  149.1142  140.3081  156.7616 H   0  0  0  0  0  0  0  0  0  0  0  0
  151.3974  141.9197  155.4760 H   0  0  0  0  0  0  0  0  0  0  0  0
  152.0051  139.4486  155.4235 H   0  0  0  0  0  0  0  0  0  0  0  0
  151.4084  139.9093  157.7859 H   0  0  0  0  0  0  0  0  0  0  0  0
  152.8414  140.6157  157.0724 H   0  0  0  0  0  0  0  0  0  0  0  0
  150.5056  143.2759  157.0375 H   0  0  0  0  0  0  0  0  0  0  0  0
  151.8837  144.7222  161.5652 H   0  0  0  0  0  0  0  0  0  0  0  0
  153.2661  140.2143  159.9269 H   0  0  0  0  0  0  0  0  0  0  0  0
  149.0280  139.5024  154.1305 H   0  0  0  0  0  0  0  0  0  0  0  0
  147.6087  139.5963  155.1503 H   0  0  0  0  0  0  0  0  0  0  0  0
  147.9405  140.8748  152.3873 H   0  0  0  0  0  0  0  0  0  0  0  0
  147.5219  138.4089  152.3040 H   0  0  0  0  0  0  0  0  0  0  0  0
  146.1334  139.3128  151.7071 H   0  0  0  0  0  0  0  0  0  0  0  0
  146.0980  138.6134  153.3236 H   0  0  0  0  0  0  0  0  0  0  0  0
  1  2  1  0  0  0  0
  1 24  1  0  0  0  0
  1 25  1  0  0  0  0
  1 26  1  0  0  0  0
  2 23  1  0  0  0  0
  2  3  1  0  0  0  0
  2 27  1  0  0  0  0
  3  4  1  0  0  0  0
  3 28  1  0  0  0  0
  3 29  1  0  0  0  0
  4  5  1  0  0  0  0
  4 20  1  0  0  0  0
  5  6  1  0  0  0  0
  5 30  1  0  0  0  0
  5 31  1  0  0  0  0
  6  7  1  0  0  0  0
  6  8  1  0  0  0  0
  6 32  1  0  0  0  0
  7 33  1  0  0  0  0
  8  9  1  0  0  0  0
  8 34  1  0  0  0  0
  8 35  1  0  0  0  0
  9 19  1  0  0  0  0
  9 10  1  0  0  0  0
 10 11  2  0  0  0  0
 10 36  1  0  0  0  0
 11 12  1  0  0  0  0
 12 19  2  0  0  0  0
 12 13  1  0  0  0  0
 13 14  2  0  0  0  0
 13 37  1  0  0  0  0
 14 15  1  0  0  0  0
 14 16  1  0  0  0  0
 16 17  1  0  0  0  0
 16 18  2  0  0  0  0
 18 19  1  0  0  0  0
 18 38  1  0  0  0  0
 20 21  1  0  0  0  0
 20 39  1  0  0  0  0
 20 40  1  0  0  0  0
 21 22  1  0  0  0  0
 21 23  1  0  0  0  0
 21 41  1  0  0  0  0
 22 42  1  0  0  0  0
 22 43  1  0  0  0  0
 22 44  1  0  0  0  0
M  END
> <s_m_source_file>
AV-unprocessed.smi

> <i_m_source_file_index>
1824

> <i_lp_mmshare_version>
43012

> <i_f3d_flags>
0

> <s_epik_input>
W0NIM11bQ0BASF0xW0NIMl1OKFtDSDJdW0NASF0oTzEpW0NIM10pW0NIMl1bQ0BIXShbT0hdKVtDSDJdbihbY0hdbjIpYyhjMjMpW2NIXWMoRiljKEYpW2NIXTM=

> <s_epik_cmdline>
J2VwaWtfcHl0aG9uJywgJy1waCcsICc3LjAnLCAnLXRuJywgJzgnLCAnLW1hJywgJzIwMCcsICctbWV0YWxfYmluZGluZycsICctaW1hZScsICc8aW5maWxlLm1hZT4nLCAnLW9tYWUnLCAnPG91dGZpbGUubWFlPic=

> <r_epik_Ionization_Penalty>
0.273778

> <r_epik_Ionization_Penalty_Charging>
0

> <r_epik_Ionization_Penalty_Neutral>
0.273778

> <r_epik_State_Penalty>
0.246794

> <r_epik_Charging_Adjusted_Penalty>
0.246794

> <i_epik_Tot_Q>
0

> <i_epik_Tot_abs_Q>
0

> <r_epik_Metal_State_Penalty>
0.238234

> <b_epik_Metal_Only>
0

> <s_lp_Force_Field>
OPLS_2005

> <r_lp_Energy>
27.3836

> <b_lp_Chiralities_Consistent>
1

> <s_lp_Variant>
AV-unprocessed.smi:1824-2

> <Gold.Version>
5.8.1

> <Gold.Id.Protein>
6NUR|6NUR_protein|mol2

> <Gold.PLP.Fitness>
56.0156

> <Gold.PLP.PLP>
-50.8591

> <Gold.PLP.part.hbond>
-1.0000

> <Gold.PLP.part.metal>
0.0000

> <Gold.PLP.part.buried>
-3.4871

> <Gold.PLP.part.nonpolar>
-47.0377

> <Gold.PLP.part.repulsive>
2.1014

> <Gold.PLP.ligand.clash>
0.0000

> <Gold.PLP.ligand.torsion>
0.4491

> <Gold.PLP.Chemscore.Hbond>
1.0000

> <Gold.PLP.Chemscore.CHOScore>
0.9979

> <Gold.PLP.Chemscore.Metal>
0.0000

> <Gold.Chemscore.Hbonds>
donor molecule, donor type, donor heavy atom, donor atom, acceptor molecule, acceptor atom, score
      P1  H  7989  7998       L1     7  0.90
      L1  C    10    36       P1  8028  0.92

> <Gold.PLP.Chemscore.Internal.Correction>
0.0612

> <Gold.Rescore>
     Score         DG    S(hbond)    S(metal)    S(lipo)     H(rot)  DE(clash)    DE(int)     intcor
     11.01     -13.78       0.03        0.00     119.69       2.26       1.22       1.55       ----

> <Gold.Chemscore.Fitness>
11.0054

> <Gold.Chemscore.DG>
-13.7784

> <Gold.Chemscore.ZeroCoef>
-5.4800

> <Gold.Chemscore.Hbond>
0.0253

> <Gold.Chemscore.Metal>
0.0000

> <Gold.Chemscore.Lipo>
119.6946

> <Gold.Chemscore.Internal_Hbond>
0.0000

> <Gold.Chemscore.DEClash>
1.2220

> <Gold.Chemscore.DEInternal>
1.5510

> <Gold.Chemscore.Rot>
2.2619

> <Gold.Chemscore.Internal.Correction>
   9.000000E+99

> <Gold.Chemscore.Hbonds>
donor molecule, donor type, donor heavy atom, donor atom, acceptor molecule, acceptor atom, score
      P1  H  7989  7998       L1     7  0.14

> <Gold.Chemscore.Hbond.Weighted>
-0.0846

> <Gold.Chemscore.Metal.Weighted>
-0.0000

> <Gold.Chemscore.Lipo.Weighted>
-14.0043

> <Gold.Chemscore.Internal_Hbond.Weighted>
0.0000

> <Gold.Chemscore.DEClash.Weighted>
1.2220

> <Gold.Chemscore.DEInternal.Weighted>
1.5510

> <Gold.Chemscore.Rot.Weighted>
5.7904

> <Gold.Chemscore.Internal.Correction.Weighted>
   9.000000E+99

> <Gold.Protein.RotatedTorsions>
[ 6907 6896 6895 6894 ] final  -84.47 input  -60.11 | X-H torsion
[ 7974 7965 7964 7962 ] final   30.92 input  175.53 | X-H torsion
[ 8008 7997 7996 7995 ] final -150.02 input   59.86 | X-H torsion
[ 10167 10162 10161 10158 ] final  -19.27 input  -65.29 | X-H torsion
[ 10718 10713 10712 10709 ] final  -39.27 input   66.30 | X-H torsion
[ 10763 10752 10751 10750 ] final  155.49 input  -60.55 | X-H torsion
[ 11005 11000 10999 10996 ] final -128.61 input  -57.11 | X-H torsion

> <Gold.Protein.ActiveResidues>
 VAL166  LYS551  ARG553  GLY616  TRP617  ASP618  TYR619  PRO620  LYS621  CYS622 
 ASP623  PHE694  ASN695  SER759  ASP760  ASP761  ALA762  ILE779  LEU786  VAL792 
 PHE793  MET794  SER795  GLU796  ALA797  LYS798  CYS799  TRP800  GLU811  SER814 

> <Gold.Protein.RotatedAtoms>
  150.6876  134.3354  159.4844 H   0  0  0  0  0  0  0  0  0  0  0  0  # atno 6907 bound_to 6896
  152.1213  134.9200  160.0572 H   0  0  0  0  0  0  0  0  0  0  0  0  # atno 6908 bound_to 6896
  152.0405  133.3941  159.4372 H   0  0  0  0  0  0  0  0  0  0  0  0  # atno 6909 bound_to 6896
  146.1582  139.6725  142.9052 H   0  0  0  0  0  0  0  0  0  0  0  0  # atno 7974 bound_to 7965
  155.6169  140.0677  157.2689 H   0  0  0  0  0  0  0  0  0  0  0  0  # atno 8008 bound_to 7997
  154.4239  140.1791  156.1380 H   0  0  0  0  0  0  0  0  0  0  0  0  # atno 8009 bound_to 7997
  156.0040  140.3333  155.6877 H   0  0  0  0  0  0  0  0  0  0  0  0  # atno 8010 bound_to 7997
  140.7267  143.4835  151.0086 H   0  0  0  0  0  0  0  0  0  0  0  0  # atno 10167 bound_to 10162
  156.2943  130.4232  149.8207 H   0  0  0  0  0  0  0  0  0  0  0  0  # atno 10718 bound_to 10713
  154.1693  135.2805  155.3086 H   0  0  0  0  0  0  0  0  0  0  0  0  # atno 10763 bound_to 10752
  154.6088  135.5506  153.7454 H   0  0  0  0  0  0  0  0  0  0  0  0  # atno 10764 bound_to 10752
  153.0169  135.6410  154.1833 H   0  0  0  0  0  0  0  0  0  0  0  0  # atno 10765 bound_to 10752
  140.9501  134.1076  157.4070 H   0  0  0  0  0  0  0  0  0  0  0  0  # atno 11005 bound_to 11000
  145.4655  141.0434  143.2728 LP  0  0  0  0  0  0  0  0  0  0  0  0  # atno 17320 bound_to 7965
  144.7991  139.6175  143.7079 LP  0  0  0  0  0  0  0  0  0  0  0  0  # atno 17321 bound_to 7965
  139.8535  143.7407  152.3177 LP  0  0  0  0  0  0  0  0  0  0  0  0  # atno 17342 bound_to 10162
  139.7598  144.7510  151.0381 LP  0  0  0  0  0  0  0  0  0  0  0  0  # atno 17343 bound_to 10162
  156.5608  130.8383  151.3328 LP  0  0  0  0  0  0  0  0  0  0  0  0  # atno 17370 bound_to 10713
  157.7351  130.9757  150.2064 LP  0  0  0  0  0  0  0  0  0  0  0  0  # atno 17371 bound_to 10713
  139.8845  135.0063  156.6373 LP  0  0  0  0  0  0  0  0  0  0  0  0  # atno 17394 bound_to 11000
  140.7614  133.8814  155.8421 LP  0  0  0  0  0  0  0  0  0  0  0  0  # atno 17395 bound_to 11000

$$$$
