AV-unprocessed.smi:2473|AV-procd|sdf|9744|dock7
  -GOLD-   2272013383D 1   1.00000     0.00000
 Structure written by MMmdl.
 48 49  0  0  0  0  0  0  0  0  2 V2000
  153.6909  141.8036  161.7025 C   0  0  0  0  0  0  0  0  0  0  0  0
  153.2152  142.2694  160.3190 C   0  0  1  0  0  0  0  0  0  0  0  0
  152.7405  141.0816  159.4647 C   0  0  0  0  0  0  0  0  0  0  0  0
  152.2668  141.5397  158.0721 C   0  0  1  0  0  0  0  0  0  0  0  0
  151.7985  140.3346  157.2460 C   0  0  0  0  0  0  0  0  0  0  0  0
  152.5599  139.3917  157.0286 O   0  0  0  0  0  0  0  0  0  0  0  0
  150.5459  140.3894  156.7690 N   0  0  0  0  0  0  0  0  0  0  0  0
  149.9318  139.3861  155.9049 C   0  0  0  0  0  0  0  0  0  0  0  0
  149.9556  139.7822  154.4144 C   0  0  0  0  0  0  0  0  0  0  0  0
  148.6137  139.7178  153.7434 C   0  0  0  0  0  0  0  0  0  0  0  0
  148.1473  138.6685  153.0557 N   0  3  0  0  0  0  0  0  0  0  0  0
  146.8900  138.9267  152.5828 C   0  0  0  0  0  0  0  0  0  0  0  0
  146.5735  140.1933  152.9976 C   0  0  0  0  0  0  0  0  0  0  0  0
  147.6523  140.6573  153.7057 N   0  0  0  0  0  0  0  0  0  0  0  0
  147.7721  141.9745  154.3345 C   0  0  0  0  0  0  0  0  0  0  0  0
  151.1494  142.5992  158.2062 C   0  0  0  0  0  0  0  0  0  0  0  0
  151.5566  143.8193  159.0694 C   0  0  0  0  0  0  0  0  0  0  0  0
  152.6017  144.6912  158.3393 C   0  0  0  0  0  0  0  0  0  0  0  0
  150.3092  144.6908  159.3151 C   0  0  0  0  0  0  0  0  0  0  0  0
  152.0990  143.3283  160.4356 C   0  0  0  0  0  0  0  0  0  0  0  0
  152.8835  141.3305  162.2621 H   0  0  0  0  0  0  0  0  0  0  0  0
  154.0584  142.6425  162.2941 H   0  0  0  0  0  0  0  0  0  0  0  0
  154.5036  141.0817  161.6162 H   0  0  0  0  0  0  0  0  0  0  0  0
  154.0741  142.7221  159.8233 H   0  0  0  0  0  0  0  0  0  0  0  0
  153.5528  140.3606  159.3602 H   0  0  0  0  0  0  0  0  0  0  0  0
  151.9320  140.5619  159.9822 H   0  0  0  0  0  0  0  0  0  0  0  0
  153.1134  141.9896  157.5522 H   0  0  0  0  0  0  0  0  0  0  0  0
  149.9855  141.1958  157.0048 H   0  0  0  0  0  0  0  0  0  0  0  0
  150.4114  138.4168  156.0499 H   0  0  0  0  0  0  0  0  0  0  0  0
  148.8982  139.2697  156.2319 H   0  0  0  0  0  0  0  0  0  0  0  0
  150.3470  140.7917  154.2941 H   0  0  0  0  0  0  0  0  0  0  0  0
  150.6184  139.1209  153.8558 H   0  0  0  0  0  0  0  0  0  0  0  0
  146.3299  138.2091  152.0011 H   0  0  0  0  0  0  0  0  0  0  0  0
  145.6829  140.7852  152.8423 H   0  0  0  0  0  0  0  0  0  0  0  0
  146.8360  142.5213  154.2191 H   0  0  0  0  0  0  0  0  0  0  0  0
  148.5769  142.5309  153.8537 H   0  0  0  0  0  0  0  0  0  0  0  0
  147.9870  141.8560  155.3956 H   0  0  0  0  0  0  0  0  0  0  0  0
  150.8370  142.9352  157.2162 H   0  0  0  0  0  0  0  0  0  0  0  0
  150.2697  142.1327  158.6531 H   0  0  0  0  0  0  0  0  0  0  0  0
  152.8683  145.5659  158.9334 H   0  0  0  0  0  0  0  0  0  0  0  0
  152.2154  145.0520  157.3853 H   0  0  0  0  0  0  0  0  0  0  0  0
  153.5257  144.1547  158.1287 H   0  0  0  0  0  0  0  0  0  0  0  0
  150.5475  145.5642  159.9232 H   0  0  0  0  0  0  0  0  0  0  0  0
  149.5280  144.1350  159.8349 H   0  0  0  0  0  0  0  0  0  0  0  0
  149.8845  145.0500  158.3772 H   0  0  0  0  0  0  0  0  0  0  0  0
  151.2779  142.8998  161.0128 H   0  0  0  0  0  0  0  0  0  0  0  0
  152.4585  144.1785  161.0171 H   0  0  0  0  0  0  0  0  0  0  0  0
  148.6558  137.8057  152.9086 H   0  0  0  0  0  0  0  0  0  0  0  0
  1  2  1  0  0  0  0
  1 21  1  0  0  0  0
  1 22  1  0  0  0  0
  1 23  1  0  0  0  0
  2 20  1  0  0  0  0
  2  3  1  0  0  0  0
  2 24  1  0  0  0  0
  3  4  1  0  0  0  0
  3 25  1  0  0  0  0
  3 26  1  0  0  0  0
  4  5  1  0  0  0  0
  4 16  1  0  0  0  0
  4 27  1  0  0  0  0
  5  6  2  0  0  0  0
  5  7  1  0  0  0  0
  7  8  1  0  0  0  0
  7 28  1  0  0  0  0
  8  9  1  0  0  0  0
  8 29  1  0  0  0  0
  8 30  1  0  0  0  0
  9 10  1  0  0  0  0
  9 31  1  0  0  0  0
  9 32  1  0  0  0  0
 10 14  1  0  0  0  0
 10 11  2  0  0  0  0
 11 12  1  0  0  0  0
 11 48  1  0  0  0  0
 12 13  2  0  0  0  0
 12 33  1  0  0  0  0
 13 14  1  0  0  0  0
 13 34  1  0  0  0  0
 14 15  1  0  0  0  0
 15 35  1  0  0  0  0
 15 36  1  0  0  0  0
 15 37  1  0  0  0  0
 16 17  1  0  0  0  0
 16 38  1  0  0  0  0
 16 39  1  0  0  0  0
 17 18  1  0  0  0  0
 17 19  1  0  0  0  0
 17 20  1  0  0  0  0
 18 40  1  0  0  0  0
 18 41  1  0  0  0  0
 18 42  1  0  0  0  0
 19 43  1  0  0  0  0
 19 44  1  0  0  0  0
 19 45  1  0  0  0  0
 20 46  1  0  0  0  0
 20 47  1  0  0  0  0
M  CHG  1  11   1
M  END
> <s_m_source_file>
AV-unprocessed.smi

> <i_m_source_file_index>
2473

> <i_lp_mmshare_version>
43012

> <i_f3d_flags>
0

> <s_epik_input>
W0NIM11bQ0BASF0oW0NIMl0xKVtDSDJdW0NASF0oW0NIMl1DMShbQ0gzXSlbQ0gzXSlDKD1PKVtOSF1bQ0gyXVtDSDJdYzJuW2NIXVtjSF1uMltDSDNd

> <s_epik_cmdline>
J2VwaWtfcHl0aG9uJywgJy1waCcsICc3LjAnLCAnLXRuJywgJzgnLCAnLW1hJywgJzIwMCcsICctbWV0YWxfYmluZGluZycsICctaW1hZScsICc8aW5maWxlLm1hZT4nLCAnLW9tYWUnLCAnPG91dGZpbGUubWFlPic=

> <r_lp_tautomer_probability>
1

> <r_epik_Ionization_Penalty>
0.0796112

> <r_epik_Ionization_Penalty_Charging>
0

> <r_epik_Ionization_Penalty_Neutral>
0.0796112

> <r_epik_State_Penalty>
0.0704541

> <r_epik_Charging_Adjusted_Penalty>
0.0704541

> <i_epik_Tot_Q>
1

> <i_epik_Tot_abs_Q>
1

> <r_epik_Metal_State_Penalty>
0.409899

> <b_epik_Metal_Only>
0

> <s_lp_Force_Field>
OPLS_2005

> <r_lp_Energy>
16.0975

> <b_lp_Chiralities_Consistent>
1

> <s_lp_Variant>
AV-unprocessed.smi:2473-2

> <Gold.Version>
5.8.1

> <Gold.Id.Protein>
6NUR|6NUR_protein|mol2

> <Gold.PLP.Fitness>
53.3817

> <Gold.PLP.PLP>
-44.8067

> <Gold.PLP.part.hbond>
-3.0000

> <Gold.PLP.part.metal>
0.0000

> <Gold.PLP.part.buried>
2.3840

> <Gold.PLP.part.nonpolar>
-43.8843

> <Gold.PLP.part.repulsive>
0.1053

> <Gold.PLP.ligand.clash>
1.6519

> <Gold.PLP.ligand.torsion>
0.8748

> <Gold.PLP.Chemscore.Hbond>
2.9840

> <Gold.PLP.Chemscore.CHOScore>
1.0000

> <Gold.PLP.Chemscore.Metal>
0.0000

> <Gold.Chemscore.Hbonds>
donor molecule, donor type, donor heavy atom, donor atom, acceptor molecule, acceptor atom, score
      L1  H    11    48       P1  7948  1.95
      P1  H  7997  8010       L1     6  1.00
      L1  C    13    34       P1 10175  1.00

> <Gold.PLP.Chemscore.Internal.Correction>
0.0246

> <Gold.Rescore>
     Score         DG    S(hbond)    S(metal)    S(lipo)     H(rot)  DE(clash)    DE(int)     intcor
     20.06     -21.12       1.61        0.00     122.17       1.58       0.20       0.86       ----

> <Gold.Chemscore.Fitness>
20.0597

> <Gold.Chemscore.DG>
-21.1157

> <Gold.Chemscore.ZeroCoef>
-5.4800

> <Gold.Chemscore.Hbond>
1.6143

> <Gold.Chemscore.Metal>
0.0000

> <Gold.Chemscore.Lipo>
122.1672

> <Gold.Chemscore.Internal_Hbond>
0.0000

> <Gold.Chemscore.DEClash>
0.1982

> <Gold.Chemscore.DEInternal>
0.8578

> <Gold.Chemscore.Rot>
1.5818

> <Gold.Chemscore.Internal.Correction>
   9.000000E+99

> <Gold.Chemscore.Hbonds>
donor molecule, donor type, donor heavy atom, donor atom, acceptor molecule, acceptor atom, score
      L1  H    11    48       P1  7948  0.93
      P1  H  7997  8010       L1     6  0.72

> <Gold.Chemscore.Hbond.Weighted>
-5.3916

> <Gold.Chemscore.Metal.Weighted>
-0.0000

> <Gold.Chemscore.Lipo.Weighted>
-14.2936

> <Gold.Chemscore.Internal_Hbond.Weighted>
0.0000

> <Gold.Chemscore.DEClash.Weighted>
0.1982

> <Gold.Chemscore.DEInternal.Weighted>
0.8578

> <Gold.Chemscore.Rot.Weighted>
4.0495

> <Gold.Chemscore.Internal.Correction.Weighted>
   9.000000E+99

> <Gold.Protein.RotatedTorsions>
[ 6907 6896 6895 6894 ] final  -36.88 input  -60.11 | X-H torsion
[ 7974 7965 7964 7962 ] final   86.27 input  175.53 | X-H torsion
[ 8008 7997 7996 7995 ] final   57.35 input   59.86 | X-H torsion
[ 10167 10162 10161 10158 ] final  174.19 input  -65.29 | X-H torsion
[ 10718 10713 10712 10709 ] final   72.98 input   66.30 | X-H torsion
[ 10763 10752 10751 10750 ] final  166.17 input  -60.55 | X-H torsion
[ 11005 11000 10999 10996 ] final   -8.15 input  -57.11 | X-H torsion

> <Gold.Protein.ActiveResidues>
 VAL166  LYS551  ARG553  GLY616  TRP617  ASP618  TYR619  PRO620  LYS621  CYS622 
 ASP623  PHE694  ASN695  SER759  ASP760  ASP761  ALA762  ILE779  LEU786  VAL792 
 PHE793  MET794  SER795  GLU796  ALA797  LYS798  CYS799  TRP800  GLU811  SER814 

> <Gold.Protein.RotatedAtoms>
  151.0216  134.9473  159.8062 H   0  0  0  0  0  0  0  0  0  0  0  0  # atno 6907 bound_to 6896
  152.5326  134.2896  159.9048 H   0  0  0  0  0  0  0  0  0  0  0  0  # atno 6908 bound_to 6896
  151.2904  133.4126  159.2667 H   0  0  0  0  0  0  0  0  0  0  0  0  # atno 6909 bound_to 6896
  145.5745  139.2317  143.2387 H   0  0  0  0  0  0  0  0  0  0  0  0  # atno 7974 bound_to 7965
  155.5323  140.3482  155.4429 H   0  0  0  0  0  0  0  0  0  0  0  0  # atno 8008 bound_to 7997
  156.0709  140.1363  156.9856 H   0  0  0  0  0  0  0  0  0  0  0  0  # atno 8009 bound_to 7997
  154.4528  140.0966  156.6643 H   0  0  0  0  0  0  0  0  0  0  0  0  # atno 8010 bound_to 7997
  139.5133  144.3175  152.0234 H   0  0  0  0  0  0  0  0  0  0  0  0  # atno 10167 bound_to 10162
  157.6527  130.9606  150.1005 H   0  0  0  0  0  0  0  0  0  0  0  0  # atno 10718 bound_to 10713
  154.3350  135.2754  155.2452 H   0  0  0  0  0  0  0  0  0  0  0  0  # atno 10763 bound_to 10752
  154.4747  135.5874  153.6350 H   0  0  0  0  0  0  0  0  0  0  0  0  # atno 10764 bound_to 10752
  152.9863  135.6097  154.3546 H   0  0  0  0  0  0  0  0  0  0  0  0  # atno 10765 bound_to 10752
  140.7204  133.8833  155.8817 H   0  0  0  0  0  0  0  0  0  0  0  0  # atno 11005 bound_to 11000
  146.1760  140.6571  142.9211 LP  0  0  0  0  0  0  0  0  0  0  0  0  # atno 17320 bound_to 7965
  144.7422  140.4973  143.6861 LP  0  0  0  0  0  0  0  0  0  0  0  0  # atno 17321 bound_to 7965
  140.2618  144.4059  150.6183 LP  0  0  0  0  0  0  0  0  0  0  0  0  # atno 17342 bound_to 10162
  140.6152  143.2172  151.6806 LP  0  0  0  0  0  0  0  0  0  0  0  0  # atno 17343 bound_to 10162
  156.1929  130.3655  149.8886 LP  0  0  0  0  0  0  0  0  0  0  0  0  # atno 17370 bound_to 10713
  156.6810  130.8858  151.3576 LP  0  0  0  0  0  0  0  0  0  0  0  0  # atno 17371 bound_to 10713
  141.0008  134.1153  157.4319 LP  0  0  0  0  0  0  0  0  0  0  0  0  # atno 17394 bound_to 11000
  139.8849  135.0067  156.6402 LP  0  0  0  0  0  0  0  0  0  0  0  0  # atno 17395 bound_to 11000

$$$$
