AV-unprocessed.smi:2836|AV-procd|sdf|10919|dock9
  -GOLD-   2272015363D 1   1.00000     0.00000
 Structure written by MMmdl.
 30 31  0  0  0  0  0  0  0  0  1 V2000
  146.7968  137.3894  153.2817 N   0  0  0  0  0  0  0  0  0  0  0  0
  146.6891  138.4665  154.0648 C   0  0  0  0  0  0  0  0  0  0  0  0
  145.6083  138.9005  154.4570 O   0  0  0  0  0  0  0  0  0  0  0  0
  147.9713  139.1639  154.3966 C   0  0  0  0  0  0  0  0  0  0  0  0
  149.2820  138.6754  154.1542 C   0  0  0  0  0  0  0  0  0  0  0  0
  150.1929  139.5559  154.5423 N   0  0  0  0  0  0  0  0  0  0  0  0
  149.4846  140.6140  155.0136 N   0  0  0  0  0  0  0  0  0  0  0  0
  150.1852  141.7844  155.5088 C   0  0  0  0  0  0  0  0  0  0  0  0
  151.2399  141.4210  156.5636 C   0  0  0  0  0  0  0  0  0  0  0  0
  151.5824  142.5849  157.3038 O   0  0  0  0  0  0  0  0  0  0  0  0
  152.0536  142.4355  158.5905 C   0  0  0  0  0  0  0  0  0  0  0  0
  152.4474  141.1929  159.1492 C   0  0  0  0  0  0  0  0  0  0  0  0
  152.9231  141.1241  160.4729 C   0  0  0  0  0  0  0  0  0  0  0  0
  153.0111  142.2908  161.2537 C   0  0  0  0  0  0  0  0  0  0  0  0
  153.4695  142.2230  162.5259 F   0  0  0  0  0  0  0  0  0  0  0  0
  152.6219  143.5283  160.7094 C   0  0  0  0  0  0  0  0  0  0  0  0
  152.1460  143.5999  159.3855 C   0  0  0  0  0  0  0  0  0  0  0  0
  151.6712  145.1308  158.7410 Cl  0  0  0  0  0  0  0  0  0  0  0  0
  148.1212  140.4097  154.9314 C   0  0  0  0  0  0  0  0  0  0  0  0
  145.9670  136.8780  153.0182 H   0  0  0  0  0  0  0  0  0  0  0  0
  147.7037  137.0927  152.9523 H   0  0  0  0  0  0  0  0  0  0  0  0
  149.5960  137.7359  153.7234 H   0  0  0  0  0  0  0  0  0  0  0  0
  150.6558  142.2890  154.6643 H   0  0  0  0  0  0  0  0  0  0  0  0
  149.4580  142.4821  155.9270 H   0  0  0  0  0  0  0  0  0  0  0  0
  150.8417  140.6538  157.2299 H   0  0  0  0  0  0  0  0  0  0  0  0
  152.1225  141.0139  156.0682 H   0  0  0  0  0  0  0  0  0  0  0  0
  152.3967  140.2765  158.5814 H   0  0  0  0  0  0  0  0  0  0  0  0
  153.2223  140.1734  160.8892 H   0  0  0  0  0  0  0  0  0  0  0  0
  152.6890  144.4243  161.3089 H   0  0  0  0  0  0  0  0  0  0  0  0
  147.4019  141.1500  155.2495 H   0  0  0  0  0  0  0  0  0  0  0  0
  1  2  1  0  0  0  0
  1 20  1  0  0  0  0
  1 21  1  0  0  0  0
  2  3  2  0  0  0  0
  2  4  1  0  0  0  0
  4 19  2  0  0  0  0
  4  5  1  0  0  0  0
  5  6  2  0  0  0  0
  5 22  1  0  0  0  0
  6  7  1  0  0  0  0
  7  8  1  0  0  0  0
  7 19  1  0  0  0  0
  8  9  1  0  0  0  0
  8 23  1  0  0  0  0
  8 24  1  0  0  0  0
  9 10  1  0  0  0  0
  9 25  1  0  0  0  0
  9 26  1  0  0  0  0
 10 11  1  0  0  0  0
 11 17  1  0  0  0  0
 11 12  2  0  0  0  0
 12 13  1  0  0  0  0
 12 27  1  0  0  0  0
 13 14  2  0  0  0  0
 13 28  1  0  0  0  0
 14 15  1  0  0  0  0
 14 16  1  0  0  0  0
 16 17  2  0  0  0  0
 16 29  1  0  0  0  0
 17 18  1  0  0  0  0
 19 30  1  0  0  0  0
M  END
> <s_m_source_file>
AV-unprocessed.smi

> <i_m_source_file_index>
2836

> <i_lp_mmshare_version>
43012

> <i_f3d_flags>
0

> <s_epik_input>
W05IMl1DKD1PKWMxW2NIXW5uKFtjSF0xKVtDSDJdW0NIMl1PYzJbY0hdW2NIXWMoRilbY0hdYzJDbA==

> <s_epik_cmdline>
J2VwaWtfcHl0aG9uJywgJy1waCcsICc3LjAnLCAnLXRuJywgJzgnLCAnLW1hJywgJzIwMCcsICctbWV0YWxfYmluZGluZycsICctaW1hZScsICc8aW5maWxlLm1hZT4nLCAnLW9tYWUnLCAnPG91dGZpbGUubWFlPic=

> <r_lp_tautomer_probability>
1

> <r_epik_Ionization_Penalty>
2.53738e-06

> <r_epik_Ionization_Penalty_Charging>
0

> <r_epik_Ionization_Penalty_Neutral>
2.53738e-06

> <r_epik_State_Penalty>
-0

> <r_epik_Charging_Adjusted_Penalty>
0

> <i_epik_Tot_Q>
0

> <i_epik_Tot_abs_Q>
0

> <r_epik_Metal_State_Penalty>
-0

> <b_epik_Metal_Only>
0

> <s_lp_Force_Field>
OPLS_2005

> <r_lp_Energy>
11.0812

> <b_lp_Chiralities_Consistent>
1

> <s_lp_Variant>
AV-unprocessed.smi:2836-1

> <Gold.Version>
5.8.1

> <Gold.Id.Protein>
6NUR|6NUR_protein|mol2

> <Gold.PLP.Fitness>
47.1578

> <Gold.PLP.PLP>
-39.2018

> <Gold.PLP.part.hbond>
-1.9656

> <Gold.PLP.part.metal>
0.0000

> <Gold.PLP.part.buried>
-3.1076

> <Gold.PLP.part.nonpolar>
-34.5185

> <Gold.PLP.part.repulsive>
0.3097

> <Gold.PLP.ligand.clash>
0.0000

> <Gold.PLP.ligand.torsion>
0.4748

> <Gold.PLP.Chemscore.Hbond>
1.9600

> <Gold.PLP.Chemscore.CHOScore>
1.0000

> <Gold.PLP.Chemscore.Metal>
0.0000

> <Gold.Chemscore.Hbonds>
donor molecule, donor type, donor heavy atom, donor atom, acceptor molecule, acceptor atom, score
      L1  H     1    21       P1  7948  1.00
      P1  H  7989  7998       L1     6  0.33
      L1  C     5    22       P1  7948  1.00

> <Gold.PLP.Chemscore.Internal.Correction>
0.0257

> <Gold.Rescore>
     Score         DG    S(hbond)    S(metal)    S(lipo)     H(rot)  DE(clash)    DE(int)     intcor
     17.51     -18.20       1.57        0.00     105.27       1.89       0.31       0.38       ----

> <Gold.Chemscore.Fitness>
17.5119

> <Gold.Chemscore.DG>
-18.2024

> <Gold.Chemscore.ZeroCoef>
-5.4800

> <Gold.Chemscore.Hbond>
1.5667

> <Gold.Chemscore.Metal>
0.0000

> <Gold.Chemscore.Lipo>
105.2734

> <Gold.Chemscore.Internal_Hbond>
0.0000

> <Gold.Chemscore.DEClash>
0.3080

> <Gold.Chemscore.DEInternal>
0.3825

> <Gold.Chemscore.Rot>
1.8857

> <Gold.Chemscore.Internal.Correction>
   9.000000E+99

> <Gold.Chemscore.Hbonds>
donor molecule, donor type, donor heavy atom, donor atom, acceptor molecule, acceptor atom, score
      L1  H     1    21       P1  7948  0.99
      P1  H  7989  7998       L1     6  0.02

> <Gold.Chemscore.Hbond.Weighted>
-5.2329

> <Gold.Chemscore.Metal.Weighted>
-0.0000

> <Gold.Chemscore.Lipo.Weighted>
-12.3170

> <Gold.Chemscore.Internal_Hbond.Weighted>
0.0000

> <Gold.Chemscore.DEClash.Weighted>
0.3080

> <Gold.Chemscore.DEInternal.Weighted>
0.3825

> <Gold.Chemscore.Rot.Weighted>
4.8275

> <Gold.Chemscore.Internal.Correction.Weighted>
   9.000000E+99

> <Gold.Protein.RotatedTorsions>
[ 6907 6896 6895 6894 ] final -101.53 input  -60.11 | X-H torsion
[ 7974 7965 7964 7962 ] final -164.22 input  175.53 | X-H torsion
[ 8008 7997 7996 7995 ] final   55.27 input   59.86 | X-H torsion
[ 10167 10162 10161 10158 ] final  127.72 input  -65.29 | X-H torsion
[ 10718 10713 10712 10709 ] final -154.42 input   66.30 | X-H torsion
[ 10763 10752 10751 10750 ] final   80.37 input  -60.55 | X-H torsion
[ 11005 11000 10999 10996 ] final   52.06 input  -57.11 | X-H torsion

> <Gold.Protein.ActiveResidues>
 VAL166  LYS551  ARG553  GLY616  TRP617  ASP618  TYR619  PRO620  LYS621  CYS622 
 ASP623  PHE694  ASN695  SER759  ASP760  ASP761  ALA762  ILE779  LEU786  VAL792 
 PHE793  MET794  SER795  GLU796  ALA797  LYS798  CYS799  TRP800  GLU811  SER814 

> <Gold.Protein.RotatedAtoms>
  150.7158  134.0720  159.3867 H   0  0  0  0  0  0  0  0  0  0  0  0  # atno 6907 bound_to 6896
  151.8702  135.0490  160.0488 H   0  0  0  0  0  0  0  0  0  0  0  0  # atno 6908 bound_to 6896
  152.2649  133.5294  159.5440 H   0  0  0  0  0  0  0  0  0  0  0  0  # atno 6909 bound_to 6896
  144.7303  140.2992  143.6207 H   0  0  0  0  0  0  0  0  0  0  0  0  # atno 7974 bound_to 7965
  155.4984  140.3473  155.4367 H   0  0  0  0  0  0  0  0  0  0  0  0  # atno 8008 bound_to 7997
  156.0930  140.1415  156.9595 H   0  0  0  0  0  0  0  0  0  0  0  0  # atno 8009 bound_to 7997
  154.4646  140.0922  156.6963 H   0  0  0  0  0  0  0  0  0  0  0  0  # atno 8010 bound_to 7997
  139.5564  144.6851  151.4171 H   0  0  0  0  0  0  0  0  0  0  0  0  # atno 10167 bound_to 10162
  156.4991  130.8383  151.2602 H   0  0  0  0  0  0  0  0  0  0  0  0  # atno 10718 bound_to 10713
  153.1028  135.4805  154.8897 H   0  0  0  0  0  0  0  0  0  0  0  0  # atno 10763 bound_to 10752
  154.7397  135.3079  154.8752 H   0  0  0  0  0  0  0  0  0  0  0  0  # atno 10764 bound_to 10752
  153.9363  135.6839  153.4798 H   0  0  0  0  0  0  0  0  0  0  0  0  # atno 10765 bound_to 10752
  140.0880  134.5248  155.8880 H   0  0  0  0  0  0  0  0  0  0  0  0  # atno 11005 bound_to 11000
  145.7777  139.1880  143.2175 LP  0  0  0  0  0  0  0  0  0  0  0  0  # atno 17320 bound_to 7965
  146.0859  140.7711  142.9619 LP  0  0  0  0  0  0  0  0  0  0  0  0  # atno 17321 bound_to 7965
  140.6837  143.8023  150.7156 LP  0  0  0  0  0  0  0  0  0  0  0  0  # atno 17342 bound_to 10162
  140.1484  143.4379  152.2147 LP  0  0  0  0  0  0  0  0  0  0  0  0  # atno 17343 bound_to 10162
  157.7465  130.9988  150.2865 LP  0  0  0  0  0  0  0  0  0  0  0  0  # atno 17370 bound_to 10713
  156.3351  130.3806  149.7457 LP  0  0  0  0  0  0  0  0  0  0  0  0  # atno 17371 bound_to 10713
  141.2069  133.6659  156.6270 LP  0  0  0  0  0  0  0  0  0  0  0  0  # atno 17394 bound_to 11000
  140.3392  134.7863  157.4385 LP  0  0  0  0  0  0  0  0  0  0  0  0  # atno 17395 bound_to 11000

$$$$
