AV-unprocessed.smi:1064|AV-procd|sdf|4665|dock10
  -GOLD-   22720 3173D 1   1.00000     0.00000
 Structure written by MMmdl.
 36 37  0  0  0  0  0  0  0  0  2 V2000
  150.1108  140.0706  154.2316 O   0  0  0  0  0  0  0  0  0  0  0  0
  149.3387  140.9642  154.5827 C   0  0  0  0  0  0  0  0  0  0  0  0
  149.6820  141.8779  155.5071 N   0  0  0  0  0  0  0  0  0  0  0  0
  150.9698  141.9445  156.1873 C   0  0  0  0  0  0  0  0  0  0  0  0
  150.8038  141.9045  157.7174 C   0  0  0  0  0  0  0  0  0  0  0  0
  151.0193  143.2259  158.3939 C   0  0  0  0  0  0  0  0  0  0  0  0
  150.5358  144.4082  157.9910 N   0  3  0  0  0  0  0  0  0  0  0  0
  150.9437  145.4054  158.8336 C   0  0  0  0  0  0  0  0  0  0  0  0
  151.7233  144.8087  159.7890 C   0  0  0  0  0  0  0  0  0  0  0  0
  151.7622  143.4712  159.4876 N   0  0  0  0  0  0  0  0  0  0  0  0
  152.4794  142.4355  160.2384 C   0  0  0  0  0  0  0  0  0  0  0  0
  153.4189  141.8783  159.4749 F   0  0  0  0  0  0  0  0  0  0  0  0
  153.0223  142.9483  161.3428 F   0  0  0  0  0  0  0  0  0  0  0  0
  148.0795  141.0946  154.0930 N   0  0  0  0  0  0  0  0  0  0  0  0
  147.2168  139.9984  153.6211 C   0  0  0  0  0  0  0  0  0  0  0  0
  146.2608  139.5867  154.7531 C   0  0  0  0  0  0  0  0  0  0  0  0
  145.1615  140.9636  155.2096 S   0  0  0  0  0  0  0  0  0  0  0  0
  146.3946  142.2869  155.4143 C   0  0  0  0  0  0  0  0  0  0  0  0
  147.3384  142.3569  154.2018 C   0  0  0  0  0  0  0  0  0  0  0  0
  148.9984  142.5796  155.7519 H   0  0  0  0  0  0  0  0  0  0  0  0
  151.6093  141.1293  155.8442 H   0  0  0  0  0  0  0  0  0  0  0  0
  151.4581  142.8729  155.8899 H   0  0  0  0  0  0  0  0  0  0  0  0
  149.7995  141.5696  157.9768 H   0  0  0  0  0  0  0  0  0  0  0  0
  151.5118  141.2094  158.1696 H   0  0  0  0  0  0  0  0  0  0  0  0
  150.6580  146.4376  158.6925 H   0  0  0  0  0  0  0  0  0  0  0  0
  152.2439  145.2278  160.6378 H   0  0  0  0  0  0  0  0  0  0  0  0
  151.7809  141.6538  160.5390 H   0  0  0  0  0  0  0  0  0  0  0  0
  146.6432  140.3256  152.7528 H   0  0  0  0  0  0  0  0  0  0  0  0
  147.7773  139.1308  153.2730 H   0  0  0  0  0  0  0  0  0  0  0  0
  145.6484  138.7393  154.4446 H   0  0  0  0  0  0  0  0  0  0  0  0
  146.8235  139.2720  155.6328 H   0  0  0  0  0  0  0  0  0  0  0  0
  145.8722  143.2345  155.5453 H   0  0  0  0  0  0  0  0  0  0  0  0
  146.9623  142.1063  156.3280 H   0  0  0  0  0  0  0  0  0  0  0  0
  148.0057  143.2145  154.2994 H   0  0  0  0  0  0  0  0  0  0  0  0
  146.7682  142.5387  153.2896 H   0  0  0  0  0  0  0  0  0  0  0  0
  149.9490  144.5416  157.1771 H   0  0  0  0  0  0  0  0  0  0  0  0
  1  2  2  0  0  0  0
  2  3  1  0  0  0  0
  2 14  1  0  0  0  0
  3  4  1  0  0  0  0
  3 20  1  0  0  0  0
  4  5  1  0  0  0  0
  4 21  1  0  0  0  0
  4 22  1  0  0  0  0
  5  6  1  0  0  0  0
  5 23  1  0  0  0  0
  5 24  1  0  0  0  0
  6 10  1  0  0  0  0
  6  7  2  0  0  0  0
  7  8  1  0  0  0  0
  7 36  1  0  0  0  0
  8  9  2  0  0  0  0
  8 25  1  0  0  0  0
  9 10  1  0  0  0  0
  9 26  1  0  0  0  0
 10 11  1  0  0  0  0
 11 12  1  0  0  0  0
 11 13  1  0  0  0  0
 11 27  1  0  0  0  0
 14 19  1  0  0  0  0
 14 15  1  0  0  0  0
 15 16  1  0  0  0  0
 15 28  1  0  0  0  0
 15 29  1  0  0  0  0
 16 17  1  0  0  0  0
 16 30  1  0  0  0  0
 16 31  1  0  0  0  0
 17 18  1  0  0  0  0
 18 19  1  0  0  0  0
 18 32  1  0  0  0  0
 18 33  1  0  0  0  0
 19 34  1  0  0  0  0
 19 35  1  0  0  0  0
M  CHG  1   7   1
M  END
> <s_m_source_file>
AV-unprocessed.smi

> <i_m_source_file_index>
1064

> <i_lp_mmshare_version>
43012

> <i_f3d_flags>
0

> <s_epik_input>
W0NIMl0xW0NIMl1TW0NIMl1bQ0gyXU4xQyg9TylbTkhdW0NIMl1bQ0gyXWMybltjSF1bY0hdbjJbQ0hdKEYpRg==

> <s_epik_cmdline>
J2VwaWtfcHl0aG9uJywgJy1waCcsICc3LjAnLCAnLXRuJywgJzgnLCAnLW1hJywgJzIwMCcsICctbWV0YWxfYmluZGluZycsICctaW1hZScsICc8aW5maWxlLm1hZT4nLCAnLW9tYWUnLCAnPG91dGZpbGUubWFlPic=

> <r_lp_tautomer_probability>
1

> <r_epik_Ionization_Penalty>
1.10071

> <r_epik_Ionization_Penalty_Charging>
0

> <r_epik_Ionization_Penalty_Neutral>
1.10071

> <r_epik_State_Penalty>
1.15778

> <r_epik_Charging_Adjusted_Penalty>
1.15778

> <i_epik_Tot_Q>
1

> <i_epik_Tot_abs_Q>
1

> <r_epik_Metal_State_Penalty>
1.24497

> <b_epik_Metal_Only>
0

> <s_lp_Force_Field>
OPLS_2005

> <r_lp_Energy>
29.6346

> <b_lp_Chiralities_Consistent>
1

> <s_lp_Variant>
AV-unprocessed.smi:1064-2

> <Gold.Version>
5.8.1

> <Gold.Id.Protein>
6NUR|6NUR_protein|mol2

> <Gold.PLP.Fitness>
54.1375

> <Gold.PLP.PLP>
-45.4306

> <Gold.PLP.part.hbond>
-3.0586

> <Gold.PLP.part.metal>
0.0000

> <Gold.PLP.part.buried>
-3.3022

> <Gold.PLP.part.nonpolar>
-38.6838

> <Gold.PLP.part.repulsive>
0.7254

> <Gold.PLP.ligand.clash>
0.9051

> <Gold.PLP.ligand.torsion>
0.8207

> <Gold.PLP.Chemscore.Hbond>
3.7291

> <Gold.PLP.Chemscore.CHOScore>
0.0000

> <Gold.PLP.Chemscore.Metal>
0.0000

> <Gold.Chemscore.Hbonds>
donor molecule, donor type, donor heavy atom, donor atom, acceptor molecule, acceptor atom, score
      L1  H     3    20       P1  8028  0.51
      L1  H     7    36       P1  8028  2.00
      P1  H  7989  7998       L1     1  1.00

> <Gold.PLP.Chemscore.Internal.Correction>
0.0661

> <Gold.Rescore>
     Score         DG    S(hbond)    S(metal)    S(lipo)     H(rot)  DE(clash)    DE(int)     intcor
     13.54     -16.49       1.98        0.00      73.84       1.65       2.02       0.92       ----

> <Gold.Chemscore.Fitness>
13.5443

> <Gold.Chemscore.DG>
-16.4916

> <Gold.Chemscore.ZeroCoef>
-5.4800

> <Gold.Chemscore.Hbond>
1.9770

> <Gold.Chemscore.Metal>
0.0000

> <Gold.Chemscore.Lipo>
73.8382

> <Gold.Chemscore.Internal_Hbond>
0.0000

> <Gold.Chemscore.DEClash>
2.0237

> <Gold.Chemscore.DEInternal>
0.9237

> <Gold.Chemscore.Rot>
1.6525

> <Gold.Chemscore.Internal.Correction>
   9.000000E+99

> <Gold.Chemscore.Hbonds>
donor molecule, donor type, donor heavy atom, donor atom, acceptor molecule, acceptor atom, score
      L1  H     3    20       P1  8028  0.51
      L1  H     7    36       P1  8028  0.35
      P1  H  7989  7998       L1     1  0.62

> <Gold.Chemscore.Hbond.Weighted>
-6.6030

> <Gold.Chemscore.Metal.Weighted>
-0.0000

> <Gold.Chemscore.Lipo.Weighted>
-8.6391

> <Gold.Chemscore.Internal_Hbond.Weighted>
0.0000

> <Gold.Chemscore.DEClash.Weighted>
2.0237

> <Gold.Chemscore.DEInternal.Weighted>
0.9237

> <Gold.Chemscore.Rot.Weighted>
4.2304

> <Gold.Chemscore.Internal.Correction.Weighted>
   9.000000E+99

> <Gold.Protein.RotatedTorsions>
[ 6907 6896 6895 6894 ] final   79.87 input  -60.11 | X-H torsion
[ 7974 7965 7964 7962 ] final   25.25 input  175.53 | X-H torsion
[ 8008 7997 7996 7995 ] final  -94.26 input   59.86 | X-H torsion
[ 10167 10162 10161 10158 ] final  -88.11 input  -65.29 | X-H torsion
[ 10718 10713 10712 10709 ] final -126.49 input   66.30 | X-H torsion
[ 10763 10752 10751 10750 ] final  -56.67 input  -60.55 | X-H torsion
[ 11005 11000 10999 10996 ] final  153.19 input  -57.11 | X-H torsion

> <Gold.Protein.ActiveResidues>
 VAL166  LYS551  ARG553  GLY616  TRP617  ASP618  TYR619  PRO620  LYS621  CYS622 
 ASP623  PHE694  ASN695  SER759  ASP760  ASP761  ALA762  ILE779  LEU786  VAL792 
 PHE793  MET794  SER795  GLU796  ALA797  LYS798  CYS799  TRP800  GLU811  SER814 

> <Gold.Protein.RotatedAtoms>
  152.5214  134.3445  159.9228 H   0  0  0  0  0  0  0  0  0  0  0  0  # atno 6907 bound_to 6896
  151.3395  133.3962  159.2677 H   0  0  0  0  0  0  0  0  0  0  0  0  # atno 6908 bound_to 6896
  150.9815  134.9187  159.7904 H   0  0  0  0  0  0  0  0  0  0  0  0  # atno 6909 bound_to 6896
  146.1898  139.7492  142.8840 H   0  0  0  0  0  0  0  0  0  0  0  0  # atno 7974 bound_to 7965
  154.7462  140.0491  157.0854 H   0  0  0  0  0  0  0  0  0  0  0  0  # atno 8008 bound_to 7997
  155.0116  140.3136  155.4808 H   0  0  0  0  0  0  0  0  0  0  0  0  # atno 8009 bound_to 7997
  156.2875  140.2183  156.5230 H   0  0  0  0  0  0  0  0  0  0  0  0  # atno 8010 bound_to 7997
  140.3779  143.2763  151.9420 H   0  0  0  0  0  0  0  0  0  0  0  0  # atno 10167 bound_to 10162
  156.1770  130.6706  151.0255 H   0  0  0  0  0  0  0  0  0  0  0  0  # atno 10718 bound_to 10713
  154.2104  135.6395  153.5113 H   0  0  0  0  0  0  0  0  0  0  0  0  # atno 10763 bound_to 10752
  152.9991  135.5472  154.6221 H   0  0  0  0  0  0  0  0  0  0  0  0  # atno 10764 bound_to 10752
  154.5657  135.2912  155.0850 H   0  0  0  0  0  0  0  0  0  0  0  0  # atno 10765 bound_to 10752
  140.1375  134.8761  157.2287 H   0  0  0  0  0  0  0  0  0  0  0  0  # atno 11005 bound_to 11000
  145.3828  141.0361  143.3168 LP  0  0  0  0  0  0  0  0  0  0  0  0  # atno 17320 bound_to 7965
  144.8465  139.5389  143.6876 LP  0  0  0  0  0  0  0  0  0  0  0  0  # atno 17321 bound_to 7965
  139.4798  144.5846  151.7875 LP  0  0  0  0  0  0  0  0  0  0  0  0  # atno 17342 bound_to 10162
  140.4967  144.1229  150.5962 LP  0  0  0  0  0  0  0  0  0  0  0  0  # atno 17343 bound_to 10162
  157.6842  131.0829  150.7287 LP  0  0  0  0  0  0  0  0  0  0  0  0  # atno 17370 bound_to 10713
  156.7345  130.4720  149.5492 LP  0  0  0  0  0  0  0  0  0  0  0  0  # atno 17371 bound_to 10713
  140.2764  134.3401  155.7357 LP  0  0  0  0  0  0  0  0  0  0  0  0  # atno 17394 bound_to 11000
  141.2180  133.7453  156.9299 LP  0  0  0  0  0  0  0  0  0  0  0  0  # atno 17395 bound_to 11000

$$$$
