AV-unprocessed.smi:104|AV-procd|sdf|994|dock6
  -GOLD-   2262017573D 1   1.00000     0.00000
 Structure written by MMmdl.
 47 49  0  0  0  0  0  0  0  0  1 V2000
  147.2962  134.8955  160.8114 C   0  0  0  0  0  0  0  0  0  0  0  0
  147.7972  136.1780  160.1594 C   0  0  0  0  0  0  0  0  0  0  0  0
  148.0159  137.1909  160.8237 O   0  0  0  0  0  0  0  0  0  0  0  0
  147.9631  136.0506  158.8342 O   0  0  0  0  0  0  0  0  0  0  0  0
  148.6169  137.0740  158.1005 C   0  0  0  0  0  0  0  0  0  0  0  0
  149.0906  136.5235  156.7431 C   0  0  1  0  0  0  0  0  0  0  0  0
  148.1471  135.5330  156.3318 O   0  0  0  0  0  0  0  0  0  0  0  0
  147.5477  135.8993  155.1261 C   0  0  1  0  0  0  0  0  0  0  0  0
  146.0994  135.5172  155.1464 N   0  0  0  0  0  0  0  0  0  0  0  0
  145.3955  134.9037  156.1564 C   0  0  0  0  0  0  0  0  0  0  0  0
  146.2142  134.4123  157.8034 Br  0  0  0  0  0  0  0  0  0  0  0  0
  144.1380  134.6420  155.9355 N   0  0  0  0  0  0  0  0  0  0  0  0
  143.9536  135.1070  154.6396 C   0  0  0  0  0  0  0  0  0  0  0  0
  142.8472  135.1357  153.7535 C   0  0  0  0  0  0  0  0  0  0  0  0
  141.6372  134.6594  154.0787 N   0  0  0  0  0  0  0  0  0  0  0  0
  143.0203  135.6637  152.5196 N   0  0  0  0  0  0  0  0  0  0  0  0
  144.2185  136.1418  152.1688 C   0  0  0  0  0  0  0  0  0  0  0  0
  145.3432  136.1862  152.8873 N   0  0  0  0  0  0  0  0  0  0  0  0
  145.1690  135.6563  154.1339 C   0  0  0  0  0  0  0  0  0  0  0  0
  147.7667  137.4070  154.9484 C   0  0  1  0  0  0  0  0  0  0  0  0
  146.7774  138.1683  155.6420 O   0  0  0  0  0  0  0  0  0  0  0  0
  146.7193  139.5057  155.5130 C   0  0  0  0  0  0  0  0  0  0  0  0
  145.5794  140.1142  156.3180 C   0  0  0  0  0  0  0  0  0  0  0  0
  147.4613  140.2019  154.8203 O   0  0  0  0  0  0  0  0  0  0  0  0
  149.1327  137.5468  155.5923 C   0  0  1  0  0  0  0  0  0  0  0  0
  149.4018  138.8934  155.9693 O   0  0  0  0  0  0  0  0  0  0  0  0
  150.1630  139.6779  155.1877 C   0  0  0  0  0  0  0  0  0  0  0  0
  150.3805  141.0592  155.7901 C   0  0  0  0  0  0  0  0  0  0  0  0
  150.6651  139.3590  154.1100 O   0  0  0  0  0  0  0  0  0  0  0  0
  146.9915  134.1676  160.0587 H   0  0  0  0  0  0  0  0  0  0  0  0
  146.4398  135.1075  161.4515 H   0  0  0  0  0  0  0  0  0  0  0  0
  148.0833  134.4521  161.4214 H   0  0  0  0  0  0  0  0  0  0  0  0
  147.9011  137.8814  157.9423 H   0  0  0  0  0  0  0  0  0  0  0  0
  149.4551  137.4936  158.6579 H   0  0  0  0  0  0  0  0  0  0  0  0
  150.0640  136.0467  156.8637 H   0  0  0  0  0  0  0  0  0  0  0  0
  147.9915  135.3125  154.3217 H   0  0  0  0  0  0  0  0  0  0  0  0
  141.4835  134.2568  154.9922 H   0  0  0  0  0  0  0  0  0  0  0  0
  140.8816  134.7032  153.4104 H   0  0  0  0  0  0  0  0  0  0  0  0
  144.2863  136.5469  151.1698 H   0  0  0  0  0  0  0  0  0  0  0  0
  147.8028  137.6570  153.8872 H   0  0  0  0  0  0  0  0  0  0  0  0
  144.6938  139.4802  156.2638 H   0  0  0  0  0  0  0  0  0  0  0  0
  145.3210  141.0992  155.9283 H   0  0  0  0  0  0  0  0  0  0  0  0
  145.8686  140.2191  157.3636 H   0  0  0  0  0  0  0  0  0  0  0  0
  149.8670  137.2101  154.8581 H   0  0  0  0  0  0  0  0  0  0  0  0
  149.4395  141.4669  156.1596 H   0  0  0  0  0  0  0  0  0  0  0  0
  150.7837  141.7434  155.0433 H   0  0  0  0  0  0  0  0  0  0  0  0
  151.0833  141.0006  156.6211 H   0  0  0  0  0  0  0  0  0  0  0  0
  1  2  1  0  0  0  0
  1 30  1  0  0  0  0
  1 31  1  0  0  0  0
  1 32  1  0  0  0  0
  2  3  2  0  0  0  0
  2  4  1  0  0  0  0
  4  5  1  0  0  0  0
  5  6  1  0  0  0  0
  5 33  1  0  0  0  0
  5 34  1  0  0  0  0
  6 25  1  0  0  0  0
  6  7  1  0  0  0  0
  6 35  1  0  0  0  0
  7  8  1  0  0  0  0
  8  9  1  0  0  0  0
  8 20  1  0  0  0  0
  8 36  1  0  0  0  0
  9 19  1  0  0  0  0
  9 10  1  0  0  0  0
 10 11  1  0  0  0  0
 10 12  2  0  0  0  0
 12 13  1  0  0  0  0
 13 19  2  0  0  0  0
 13 14  1  0  0  0  0
 14 15  1  0  0  0  0
 14 16  2  0  0  0  0
 15 37  1  0  0  0  0
 15 38  1  0  0  0  0
 16 17  1  0  0  0  0
 17 18  2  0  0  0  0
 17 39  1  0  0  0  0
 18 19  1  0  0  0  0
 20 21  1  0  0  0  0
 20 25  1  0  0  0  0
 20 40  1  0  0  0  0
 21 22  1  0  0  0  0
 22 23  1  0  0  0  0
 22 24  2  0  0  0  0
 23 41  1  0  0  0  0
 23 42  1  0  0  0  0
 23 43  1  0  0  0  0
 25 26  1  0  0  0  0
 25 44  1  0  0  0  0
 26 27  1  0  0  0  0
 27 28  1  0  0  0  0
 27 29  2  0  0  0  0
 28 45  1  0  0  0  0
 28 46  1  0  0  0  0
 28 47  1  0  0  0  0
M  END
> <s_m_source_file>
AV-unprocessed.smi

> <i_m_source_file_index>
104

> <i_lp_mmshare_version>
43012

> <i_f3d_flags>
0

> <s_epik_input>
W0NIM11DKD1PKU9bQ0gyXVtDQEBIXTFPW0NASF0oW0NAQEhdKE9DKD1PKVtDSDNdKVtDQEhdMU9DKD1PKVtDSDNdKW4oYyhCciluMiljKGMyMyluW2NIXW5jM1tOSDJd

> <s_epik_cmdline>
J2VwaWtfcHl0aG9uJywgJy1waCcsICc3LjAnLCAnLXRuJywgJzgnLCAnLW1hJywgJzIwMCcsICctbWV0YWxfYmluZGluZycsICctaW1hZScsICc8aW5maWxlLm1hZT4nLCAnLW9tYWUnLCAnPG91dGZpbGUubWFlPic=

> <r_lp_tautomer_probability>
1

> <r_epik_Ionization_Penalty>
7.36622e-05

> <r_epik_Ionization_Penalty_Charging>
0

> <r_epik_Ionization_Penalty_Neutral>
7.36622e-05

> <r_epik_State_Penalty>
-0

> <r_epik_Charging_Adjusted_Penalty>
0

> <i_epik_Tot_Q>
0

> <i_epik_Tot_abs_Q>
0

> <r_epik_Metal_State_Penalty>
-0

> <b_epik_Metal_Only>
0

> <s_epik_Chemistry_Notes>
This compound has an ester and may undergo hydrolysis at high or low pH. This compound contains an acetal/aminal-like group ( X-CH(R)-Y where X, Y are N, S, or O) that may be acid/base labile, releasing an aldehyde.

> <s_lp_Force_Field>
OPLS_2005

> <r_lp_Energy>
22.6214

> <b_lp_Chiralities_Consistent>
1

> <s_lp_Variant>
AV-unprocessed.smi:104-2

> <Gold.Version>
5.8.1

> <Gold.Id.Protein>
6NUR|6NUR_protein|mol2

> <Gold.PLP.Fitness>
33.4488

> <Gold.PLP.PLP>
-21.4346

> <Gold.PLP.part.hbond>
-4.6832

> <Gold.PLP.part.metal>
0.0000

> <Gold.PLP.part.buried>
-4.5463

> <Gold.PLP.part.nonpolar>
-12.5275

> <Gold.PLP.part.repulsive>
0.7732

> <Gold.PLP.ligand.clash>
0.0000

> <Gold.PLP.ligand.torsion>
1.1343

> <Gold.PLP.Chemscore.Hbond>
3.6240

> <Gold.PLP.Chemscore.CHOScore>
1.0000

> <Gold.PLP.Chemscore.Metal>
0.0000

> <Gold.Chemscore.Hbonds>
donor molecule, donor type, donor heavy atom, donor atom, acceptor molecule, acceptor atom, score
      L1  H    15    37       P1 11000  0.99
      P1  H  6931  6943       L1     3  0.88
      P1  H  6934  6947       L1     3  0.75
      P1  H  7989  7998       L1    29  1.00
      L1  C    17    39       P1 10171  1.00

> <Gold.PLP.Chemscore.Internal.Correction>
0.4108

> <Gold.Rescore>
     Score         DG    S(hbond)    S(metal)    S(lipo)     H(rot)  DE(clash)    DE(int)     intcor
      0.94      -7.13       3.00        0.00      22.81       4.31       0.01       6.19       ----

> <Gold.Chemscore.Fitness>
0.9356

> <Gold.Chemscore.DG>
-7.1332

> <Gold.Chemscore.ZeroCoef>
-5.4800

> <Gold.Chemscore.Hbond>
2.9971

> <Gold.Chemscore.Metal>
0.0000

> <Gold.Chemscore.Lipo>
22.8085

> <Gold.Chemscore.Internal_Hbond>
0.0000

> <Gold.Chemscore.DEClash>
0.0073

> <Gold.Chemscore.DEInternal>
6.1903

> <Gold.Chemscore.Rot>
4.3070

> <Gold.Chemscore.Internal.Correction>
   9.000000E+99

> <Gold.Chemscore.Hbonds>
donor molecule, donor type, donor heavy atom, donor atom, acceptor molecule, acceptor atom, score
      L1  H    15    37       P1 11000  0.54
      P1  H  6931  6943       L1     3  0.87
      P1  H  6934  6947       L1     3  0.70
      P1  H  7989  7998       L1    29  0.60

> <Gold.Chemscore.Hbond.Weighted>
-10.0105

> <Gold.Chemscore.Metal.Weighted>
-0.0000

> <Gold.Chemscore.Lipo.Weighted>
-2.6686

> <Gold.Chemscore.Internal_Hbond.Weighted>
0.0000

> <Gold.Chemscore.DEClash.Weighted>
0.0073

> <Gold.Chemscore.DEInternal.Weighted>
6.1903

> <Gold.Chemscore.Rot.Weighted>
11.0259

> <Gold.Chemscore.Internal.Correction.Weighted>
   9.000000E+99

> <Gold.Protein.RotatedTorsions>
[ 6907 6896 6895 6894 ] final  -99.96 input  -60.11 | X-H torsion
[ 7974 7965 7964 7962 ] final  119.86 input  175.53 | X-H torsion
[ 8008 7997 7996 7995 ] final   83.89 input   59.86 | X-H torsion
[ 10167 10162 10161 10158 ] final  177.95 input  -65.29 | X-H torsion
[ 10718 10713 10712 10709 ] final -127.74 input   66.30 | X-H torsion
[ 10763 10752 10751 10750 ] final -161.41 input  -60.55 | X-H torsion
[ 11005 11000 10999 10996 ] final -135.16 input  -57.11 | X-H torsion

> <Gold.Protein.ActiveResidues>
 VAL166  LYS551  ARG553  GLY616  TRP617  ASP618  TYR619  PRO620  LYS621  CYS622 
 ASP623  PHE694  ASN695  SER759  ASP760  ASP761  ALA762  ILE779  LEU786  VAL792 
 PHE793  MET794  SER795  GLU796  ALA797  LYS798  CYS799  TRP800  GLU811  SER814 

> <Gold.Protein.RotatedAtoms>
  150.7098  134.0960  159.3948 H   0  0  0  0  0  0  0  0  0  0  0  0  # atno 6907 bound_to 6896
  151.8946  135.0400  160.0510 H   0  0  0  0  0  0  0  0  0  0  0  0  # atno 6908 bound_to 6896
  152.2463  133.5142  159.5336 H   0  0  0  0  0  0  0  0  0  0  0  0  # atno 6909 bound_to 6896
  145.1380  139.3285  143.4630 H   0  0  0  0  0  0  0  0  0  0  0  0  # atno 7974 bound_to 7965
  155.9299  140.3415  155.6241 H   0  0  0  0  0  0  0  0  0  0  0  0  # atno 8008 bound_to 7997
  155.7170  140.0779  157.2365 H   0  0  0  0  0  0  0  0  0  0  0  0  # atno 8009 bound_to 7997
  154.4083  140.1612  156.2347 H   0  0  0  0  0  0  0  0  0  0  0  0  # atno 8010 bound_to 7997
  139.5274  144.2737  152.0606 H   0  0  0  0  0  0  0  0  0  0  0  0  # atno 10167 bound_to 10162
  156.1885  130.6779  151.0394 H   0  0  0  0  0  0  0  0  0  0  0  0  # atno 10718 bound_to 10713
  154.7306  135.3045  154.8898 H   0  0  0  0  0  0  0  0  0  0  0  0  # atno 10763 bound_to 10752
  153.9742  135.6738  153.4752 H   0  0  0  0  0  0  0  0  0  0  0  0  # atno 10764 bound_to 10752
  153.0915  135.4957  154.8619 H   0  0  0  0  0  0  0  0  0  0  0  0  # atno 10765 bound_to 10752
  140.8923  134.1795  157.4519 H   0  0  0  0  0  0  0  0  0  0  0  0  # atno 11005 bound_to 11000
  146.3508  140.1406  142.8594 LP  0  0  0  0  0  0  0  0  0  0  0  0  # atno 17320 bound_to 7965
  145.0563  140.9055  143.4965 LP  0  0  0  0  0  0  0  0  0  0  0  0  # atno 17321 bound_to 7965
  140.2196  144.4480  150.6348 LP  0  0  0  0  0  0  0  0  0  0  0  0  # atno 17342 bound_to 10162
  140.6427  143.2207  151.6254 LP  0  0  0  0  0  0  0  0  0  0  0  0  # atno 17343 bound_to 10162
  157.6914  131.0809  150.7097 LP  0  0  0  0  0  0  0  0  0  0  0  0  # atno 17370 bound_to 10713
  156.7153  130.4664  149.5536 LP  0  0  0  0  0  0  0  0  0  0  0  0  # atno 17371 bound_to 10713
  139.8731  134.9864  156.5322 LP  0  0  0  0  0  0  0  0  0  0  0  0  # atno 17394 bound_to 11000
  140.8331  133.8263  155.9003 LP  0  0  0  0  0  0  0  0  0  0  0  0  # atno 17395 bound_to 11000

$$$$
