AV-unprocessed.smi:208|AV-procd|sdf|1606|dock3
  -GOLD-   2262019523D 1   1.00000     0.00000
 Structure written by MMmdl.
 50 53  0  0  0  0  0  0  0  0  1 V2000
  150.7272  141.4619  157.4184 C   0  0  0  0  0  0  0  0  0  0  0  0
  151.4956  141.3296  158.7425 C   0  0  0  0  0  0  0  0  0  0  0  0
  152.6241  142.3772  158.9512 C   0  0  1  0  0  0  0  0  0  0  0  0
  152.0451  143.8041  158.8235 C   0  0  0  0  0  0  0  0  0  0  0  0
  151.6741  144.1832  157.7113 O   0  0  0  0  0  0  0  0  0  0  0  0
  151.9658  144.6000  159.9166 N   0  0  0  0  0  0  0  0  0  0  0  0
  151.4279  145.9573  159.8131 C   0  0  0  0  0  0  0  0  0  0  0  0
  152.4160  144.2150  161.2603 C   0  0  0  0  0  0  0  0  0  0  0  0
  152.6845  142.7131  161.4289 C   0  0  0  0  0  0  0  0  0  0  0  0
  153.3217  142.1779  160.2302 N   0  0  0  0  0  0  0  0  0  0  0  0
  154.1719  141.1244  160.3572 C   0  0  0  0  0  0  0  0  0  0  0  0
  154.2749  140.2301  159.3377 N   0  0  0  0  0  0  0  0  0  0  0  0
  155.1286  139.2062  159.4177 C   0  0  0  0  0  0  0  0  0  0  0  0
  155.9594  138.8900  160.4115 N   0  0  0  0  0  0  0  0  0  0  0  0
  155.8506  139.7693  161.4471 C   0  0  0  0  0  0  0  0  0  0  0  0
  154.9903  140.9037  161.5030 C   0  0  0  0  0  0  0  0  0  0  0  0
  155.1523  141.5535  162.7211 N   0  0  0  0  0  0  0  0  0  0  0  0
  156.0659  140.8577  163.3391 C   0  0  0  0  0  0  0  0  0  0  0  0
  156.5348  139.7619  162.6507 N   0  0  0  0  0  0  0  0  0  0  0  0
  157.5473  138.8208  163.1072 C   0  0  0  0  0  0  0  0  0  0  0  0
  157.2085  138.1095  164.4324 C   0  0  0  0  0  0  0  0  0  0  0  0
  155.9107  137.2945  164.2516 C   0  0  0  0  0  0  0  0  0  0  0  0
  155.5863  136.5306  165.3963 O   0  0  0  0  0  0  0  0  0  0  0  0
  158.3672  137.3805  165.1290 C   0  0  0  0  0  0  0  0  0  0  0  0
  158.1451  138.0903  166.3673 O   0  0  0  0  0  0  0  0  0  0  0  0
  157.2742  139.0108  165.6744 C   0  0  0  0  0  0  0  0  0  0  0  0
  149.8609  140.8003  157.4120 H   0  0  0  0  0  0  0  0  0  0  0  0
  151.3390  141.1922  156.5594 H   0  0  0  0  0  0  0  0  0  0  0  0
  150.3661  142.4798  157.2702 H   0  0  0  0  0  0  0  0  0  0  0  0
  150.7562  141.4296  159.5384 H   0  0  0  0  0  0  0  0  0  0  0  0
  151.8868  140.3167  158.8387 H   0  0  0  0  0  0  0  0  0  0  0  0
  153.3270  142.2900  158.1251 H   0  0  0  0  0  0  0  0  0  0  0  0
  150.3656  145.9283  159.5671 H   0  0  0  0  0  0  0  0  0  0  0  0
  151.9441  146.5228  159.0356 H   0  0  0  0  0  0  0  0  0  0  0  0
  151.5383  146.5136  160.7448 H   0  0  0  0  0  0  0  0  0  0  0  0
  153.3379  144.7633  161.4594 H   0  0  0  0  0  0  0  0  0  0  0  0
  151.6935  144.5401  162.0102 H   0  0  0  0  0  0  0  0  0  0  0  0
  153.3003  142.5663  162.3175 H   0  0  0  0  0  0  0  0  0  0  0  0
  151.7477  142.1824  161.6019 H   0  0  0  0  0  0  0  0  0  0  0  0
  155.1514  138.5482  158.5616 H   0  0  0  0  0  0  0  0  0  0  0  0
  156.4187  141.1219  164.3255 H   0  0  0  0  0  0  0  0  0  0  0  0
  157.7085  138.0932  162.3107 H   0  0  0  0  0  0  0  0  0  0  0  0
  158.4896  139.3616  163.2041 H   0  0  0  0  0  0  0  0  0  0  0  0
  155.0678  137.9504  164.0322 H   0  0  0  0  0  0  0  0  0  0  0  0
  155.9967  136.5971  163.4182 H   0  0  0  0  0  0  0  0  0  0  0  0
  154.6603  136.6173  165.5645 H   0  0  0  0  0  0  0  0  0  0  0  0
  158.2238  136.3040  165.2279 H   0  0  0  0  0  0  0  0  0  0  0  0
  159.3511  137.6046  164.7159 H   0  0  0  0  0  0  0  0  0  0  0  0
  157.7626  139.9708  165.4990 H   0  0  0  0  0  0  0  0  0  0  0  0
  156.3199  139.1528  166.1824 H   0  0  0  0  0  0  0  0  0  0  0  0
  1  2  1  0  0  0  0
  1 27  1  0  0  0  0
  1 28  1  0  0  0  0
  1 29  1  0  0  0  0
  2  3  1  0  0  0  0
  2 30  1  0  0  0  0
  2 31  1  0  0  0  0
  3 10  1  0  0  0  0
  3  4  1  0  0  0  0
  3 32  1  0  0  0  0
  4  5  2  0  0  0  0
  4  6  1  0  0  0  0
  6  7  1  0  0  0  0
  6  8  1  0  0  0  0
  7 33  1  0  0  0  0
  7 34  1  0  0  0  0
  7 35  1  0  0  0  0
  8  9  1  0  0  0  0
  8 36  1  0  0  0  0
  8 37  1  0  0  0  0
  9 10  1  0  0  0  0
  9 38  1  0  0  0  0
  9 39  1  0  0  0  0
 10 11  1  0  0  0  0
 11 16  1  0  0  0  0
 11 12  2  0  0  0  0
 12 13  1  0  0  0  0
 13 14  2  0  0  0  0
 13 40  1  0  0  0  0
 14 15  1  0  0  0  0
 15 19  1  0  0  0  0
 15 16  2  0  0  0  0
 16 17  1  0  0  0  0
 17 18  2  0  0  0  0
 18 19  1  0  0  0  0
 18 41  1  0  0  0  0
 19 20  1  0  0  0  0
 20 21  1  0  0  0  0
 20 42  1  0  0  0  0
 20 43  1  0  0  0  0
 21 26  1  0  0  0  0
 21 22  1  0  0  0  0
 21 24  1  0  0  0  0
 22 23  1  0  0  0  0
 22 44  1  0  0  0  0
 22 45  1  0  0  0  0
 23 46  1  0  0  0  0
 24 25  1  0  0  0  0
 24 47  1  0  0  0  0
 24 48  1  0  0  0  0
 25 26  1  0  0  0  0
 26 49  1  0  0  0  0
 26 50  1  0  0  0  0
M  END
> <s_m_source_file>
AV-unprocessed.smi

> <i_m_source_file_index>
208

> <i_lp_mmshare_version>
43012

> <i_f3d_flags>
0

> <s_epik_input>
W0NIM11bQ0gyXVtDQEBIXTFDKD1PKU4oW0NIM10pW0NIMl1bQ0gyXU4xYyhuW2NIXW4yKWMoYzIzKW5bY0hdbjNbQ0gyXUM0KFtDSDJdW09IXSlbQ0gyXU9bQ0gyXTQ=

> <s_epik_cmdline>
J2VwaWtfcHl0aG9uJywgJy1waCcsICc3LjAnLCAnLXRuJywgJzgnLCAnLW1hJywgJzIwMCcsICctbWV0YWxfYmluZGluZycsICctaW1hZScsICc8aW5maWxlLm1hZT4nLCAnLW9tYWUnLCAnPG91dGZpbGUubWFlPic=

> <r_lp_tautomer_probability>
1

> <r_epik_Ionization_Penalty>
0.000581289

> <r_epik_Ionization_Penalty_Charging>
0

> <r_epik_Ionization_Penalty_Neutral>
0.000581289

> <r_epik_State_Penalty>
0.000280365

> <r_epik_Charging_Adjusted_Penalty>
0.000280365

> <i_epik_Tot_Q>
0

> <i_epik_Tot_abs_Q>
0

> <r_epik_Metal_State_Penalty>
-0

> <b_epik_Metal_Only>
0

> <s_lp_Force_Field>
OPLS_2005

> <r_lp_Energy>
42.9171

> <b_lp_Chiralities_Consistent>
1

> <s_lp_Variant>
AV-unprocessed.smi:208-2

> <Gold.Version>
5.8.1

> <Gold.Id.Protein>
6NUR|6NUR_protein|mol2

> <Gold.PLP.Fitness>
49.5686

> <Gold.PLP.PLP>
-49.8481

> <Gold.PLP.part.hbond>
-3.9478

> <Gold.PLP.part.metal>
0.0000

> <Gold.PLP.part.buried>
-2.3067

> <Gold.PLP.part.nonpolar>
-42.9513

> <Gold.PLP.part.repulsive>
0.1821

> <Gold.PLP.ligand.clash>
0.0000

> <Gold.PLP.ligand.torsion>
0.3982

> <Gold.PLP.Chemscore.Hbond>
0.0000

> <Gold.PLP.Chemscore.CHOScore>
0.0000

> <Gold.PLP.Chemscore.Metal>
0.0000

> <Gold.PLP.Chemscore.Internal.Correction>
0.5169

> <Gold.Rescore>
     Score         DG    S(hbond)    S(metal)    S(lipo)     H(rot)  DE(clash)    DE(int)     intcor
      5.64      -8.43       0.00        0.00      79.00       2.46       0.10       2.69       ----

> <Gold.Chemscore.Fitness>
5.6367

> <Gold.Chemscore.DG>
-8.4254

> <Gold.Chemscore.ZeroCoef>
-5.4800

> <Gold.Chemscore.Hbond>
0.0000

> <Gold.Chemscore.Metal>
0.0000

> <Gold.Chemscore.Lipo>
78.9961

> <Gold.Chemscore.Internal_Hbond>
0.0000

> <Gold.Chemscore.DEClash>
0.0966

> <Gold.Chemscore.DEInternal>
2.6921

> <Gold.Chemscore.Rot>
2.4598

> <Gold.Chemscore.Internal.Correction>
   9.000000E+99

> <Gold.Chemscore.Hbond.Weighted>
-0.0000

> <Gold.Chemscore.Metal.Weighted>
-0.0000

> <Gold.Chemscore.Lipo.Weighted>
-9.2425

> <Gold.Chemscore.Internal_Hbond.Weighted>
0.0000

> <Gold.Chemscore.DEClash.Weighted>
0.0966

> <Gold.Chemscore.DEInternal.Weighted>
2.6921

> <Gold.Chemscore.Rot.Weighted>
6.2972

> <Gold.Chemscore.Internal.Correction.Weighted>
   9.000000E+99

> <Gold.Protein.RotatedTorsions>
[ 6907 6896 6895 6894 ] final -130.61 input  -60.11 | X-H torsion
[ 7974 7965 7964 7962 ] final  -46.05 input  175.53 | X-H torsion
[ 8008 7997 7996 7995 ] final -125.60 input   59.86 | X-H torsion
[ 10167 10162 10161 10158 ] final   25.37 input  -65.29 | X-H torsion
[ 10718 10713 10712 10709 ] final -152.50 input   66.30 | X-H torsion
[ 10763 10752 10751 10750 ] final  -95.64 input  -60.55 | X-H torsion
[ 11005 11000 10999 10996 ] final -173.84 input  -57.11 | X-H torsion

> <Gold.Protein.ActiveResidues>
 VAL166  LYS551  ARG553  GLY616  TRP617  ASP618  TYR619  PRO620  LYS621  CYS622 
 ASP623  PHE694  ASN695  SER759  ASP760  ASP761  ALA762  ILE779  LEU786  VAL792 
 PHE793  MET794  SER795  GLU796  ALA797  LYS798  CYS799  TRP800  GLU811  SER814 

> <Gold.Protein.RotatedAtoms>
  150.9417  133.6649  159.2789 H   0  0  0  0  0  0  0  0  0  0  0  0  # atno 6907 bound_to 6896
  151.4036  135.0973  159.9573 H   0  0  0  0  0  0  0  0  0  0  0  0  # atno 6908 bound_to 6896
  152.5072  133.8905  159.7446 H   0  0  0  0  0  0  0  0  0  0  0  0  # atno 6909 bound_to 6896
  145.9758  140.7335  142.9388 H   0  0  0  0  0  0  0  0  0  0  0  0  # atno 7974 bound_to 7965
  155.2159  140.0420  157.2941 H   0  0  0  0  0  0  0  0  0  0  0  0  # atno 8008 bound_to 7997
  154.5981  140.2445  155.7800 H   0  0  0  0  0  0  0  0  0  0  0  0  # atno 8009 bound_to 7997
  156.2303  140.2940  156.0181 H   0  0  0  0  0  0  0  0  0  0  0  0  # atno 8010 bound_to 7997
  140.5112  144.0158  150.6373 H   0  0  0  0  0  0  0  0  0  0  0  0  # atno 10167 bound_to 10162
  156.4733  130.8269  151.2498 H   0  0  0  0  0  0  0  0  0  0  0  0  # atno 10718 bound_to 10713
  154.7166  135.5113  153.8748 H   0  0  0  0  0  0  0  0  0  0  0  0  # atno 10763 bound_to 10752
  153.0826  135.6636  154.0023 H   0  0  0  0  0  0  0  0  0  0  0  0  # atno 10764 bound_to 10752
  153.9854  135.3025  155.3396 H   0  0  0  0  0  0  0  0  0  0  0  0  # atno 10765 bound_to 10752
  140.4812  134.6073  157.4920 H   0  0  0  0  0  0  0  0  0  0  0  0  # atno 11005 bound_to 11000
  144.6848  140.2826  143.7290 LP  0  0  0  0  0  0  0  0  0  0  0  0  # atno 17320 bound_to 7965
  145.7840  139.1902  143.2141 LP  0  0  0  0  0  0  0  0  0  0  0  0  # atno 17321 bound_to 7965
  140.3481  143.2979  152.0517 LP  0  0  0  0  0  0  0  0  0  0  0  0  # atno 17342 bound_to 10162
  139.4896  144.6394  151.6908 LP  0  0  0  0  0  0  0  0  0  0  0  0  # atno 17343 bound_to 10162
  157.7489  131.0069  150.3169 LP  0  0  0  0  0  0  0  0  0  0  0  0  # atno 17370 bound_to 10713
  156.3596  130.3844  149.7262 LP  0  0  0  0  0  0  0  0  0  0  0  0  # atno 17371 bound_to 10713
  139.9825  134.7114  155.9833 LP  0  0  0  0  0  0  0  0  0  0  0  0  # atno 17394 bound_to 11000
  141.1530  133.6546  156.4073 LP  0  0  0  0  0  0  0  0  0  0  0  0  # atno 17395 bound_to 11000

$$$$
