AV-unprocessed.smi:2183|AV-procd|sdf|8867|dock3
  -GOLD-   2272012 63D 1   1.00000     0.00000
 Structure written by MMmdl.
 41 43  0  0  0  0  0  0  0  0  2 V2000
  147.0149  137.9797  152.2644 O   0  0  0  0  0  0  0  0  0  0  0  0
  145.7012  137.4984  152.4411 C   0  0  0  0  0  0  0  0  0  0  0  0
  145.5448  136.0923  151.9640 C   0  0  0  0  0  0  0  0  0  0  0  0
  146.5274  135.3196  151.4215 N   0  3  0  0  0  0  0  0  0  0  0  0
  146.0117  134.0680  151.0827 C   0  0  0  0  0  0  0  0  0  0  0  0
  146.6221  132.9572  150.5086 C   0  0  0  0  0  0  0  0  0  0  0  0
  145.8066  131.8265  150.2953 C   0  0  0  0  0  0  0  0  0  0  0  0
  144.4418  131.8288  150.6493 C   0  0  0  0  0  0  0  0  0  0  0  0
  143.8339  132.9615  151.2297 C   0  0  0  0  0  0  0  0  0  0  0  0
  144.6463  134.0766  151.4360 C   0  0  0  0  0  0  0  0  0  0  0  0
  144.4025  135.3465  151.9739 N   0  0  0  0  0  0  0  0  0  0  0  0
  143.0515  135.6982  152.4397 C   0  0  0  0  0  0  0  0  0  0  0  0
  142.9471  135.7596  153.9767 C   0  0  2  0  0  0  0  0  0  0  0  0
  142.1030  134.7279  154.4455 O   0  0  0  0  0  0  0  0  0  0  0  0
  142.4009  137.1048  154.4761 C   0  0  0  0  0  0  0  0  0  0  0  0
  141.0984  137.2963  153.9397 O   0  0  0  0  0  0  0  0  0  0  0  0
  140.5637  138.5665  153.9587 C   0  0  0  0  0  0  0  0  0  0  0  0
  139.2606  138.7194  153.4413 C   0  0  0  0  0  0  0  0  0  0  0  0
  138.6361  139.9814  153.4210 C   0  0  0  0  0  0  0  0  0  0  0  0
  139.3136  141.1093  153.9202 C   0  0  0  0  0  0  0  0  0  0  0  0
  138.5520  142.6573  153.8959 Cl  0  0  0  0  0  0  0  0  0  0  0  0
  140.6145  140.9715  154.4392 C   0  0  0  0  0  0  0  0  0  0  0  0
  141.2384  139.7087  154.4596 C   0  0  0  0  0  0  0  0  0  0  0  0
  147.6103  137.2460  152.2876 H   0  0  0  0  0  0  0  0  0  0  0  0
  145.4402  137.5545  153.4983 H   0  0  0  0  0  0  0  0  0  0  0  0
  145.0086  138.1475  151.9055 H   0  0  0  0  0  0  0  0  0  0  0  0
  147.6675  132.9530  150.2368 H   0  0  0  0  0  0  0  0  0  0  0  0
  146.2365  130.9399  149.8519 H   0  0  0  0  0  0  0  0  0  0  0  0
  143.8484  130.9435  150.4727 H   0  0  0  0  0  0  0  0  0  0  0  0
  142.7884  132.9489  151.5001 H   0  0  0  0  0  0  0  0  0  0  0  0
  142.8095  136.6711  152.0101 H   0  0  0  0  0  0  0  0  0  0  0  0
  142.3284  134.9989  152.0200 H   0  0  0  0  0  0  0  0  0  0  0  0
  143.9314  135.5966  154.4166 H   0  0  0  0  0  0  0  0  0  0  0  0
  142.5384  133.9007  154.3080 H   0  0  0  0  0  0  0  0  0  0  0  0
  142.3788  137.1202  155.5672 H   0  0  0  0  0  0  0  0  0  0  0  0
  143.0531  137.9124  154.1382 H   0  0  0  0  0  0  0  0  0  0  0  0
  138.7334  137.8592  153.0558 H   0  0  0  0  0  0  0  0  0  0  0  0
  137.6375  140.0820  153.0219 H   0  0  0  0  0  0  0  0  0  0  0  0
  141.1376  141.8348  154.8233 H   0  0  0  0  0  0  0  0  0  0  0  0
  142.2368  139.6441  154.8642 H   0  0  0  0  0  0  0  0  0  0  0  0
  147.4808  135.6315  151.2886 H   0  0  0  0  0  0  0  0  0  0  0  0
  1  2  1  0  0  0  0
  1 24  1  0  0  0  0
  2  3  1  0  0  0  0
  2 25  1  0  0  0  0
  2 26  1  0  0  0  0
  3 11  1  0  0  0  0
  3  4  2  0  0  0  0
  4  5  1  0  0  0  0
  4 41  1  0  0  0  0
  5 10  2  0  0  0  0
  5  6  1  0  0  0  0
  6  7  2  0  0  0  0
  6 27  1  0  0  0  0
  7  8  1  0  0  0  0
  7 28  1  0  0  0  0
  8  9  2  0  0  0  0
  8 29  1  0  0  0  0
  9 10  1  0  0  0  0
  9 30  1  0  0  0  0
 10 11  1  0  0  0  0
 11 12  1  0  0  0  0
 12 13  1  0  0  0  0
 12 31  1  0  0  0  0
 12 32  1  0  0  0  0
 13 14  1  0  0  0  0
 13 15  1  0  0  0  0
 13 33  1  0  0  0  0
 14 34  1  0  0  0  0
 15 16  1  0  0  0  0
 15 35  1  0  0  0  0
 15 36  1  0  0  0  0
 16 17  1  0  0  0  0
 17 23  1  0  0  0  0
 17 18  2  0  0  0  0
 18 19  1  0  0  0  0
 18 37  1  0  0  0  0
 19 20  2  0  0  0  0
 19 38  1  0  0  0  0
 20 21  1  0  0  0  0
 20 22  1  0  0  0  0
 22 23  2  0  0  0  0
 22 39  1  0  0  0  0
 23 40  1  0  0  0  0
M  CHG  1   4   1
M  END
> <s_m_source_file>
AV-unprocessed.smi

> <i_m_source_file_index>
2183

> <i_lp_mmshare_version>
43012

> <i_f3d_flags>
0

> <s_epik_input>
W2NIXTFbY0hdW2NIXVtjSF1jKGMxMiluKGMobjIpW0NIMl1bT0hdKVtDSDJdW0NASF0oW09IXSlbQ0gyXU9jM1tjSF1bY0hdYyhDbClbY0hdW2NIXTM=

> <s_epik_cmdline>
J2VwaWtfcHl0aG9uJywgJy1waCcsICc3LjAnLCAnLXRuJywgJzgnLCAnLW1hJywgJzIwMCcsICctbWV0YWxfYmluZGluZycsICctaW1hZScsICc8aW5maWxlLm1hZT4nLCAnLW9tYWUnLCAnPG91dGZpbGUubWFlPic=

> <r_lp_tautomer_probability>
1

> <r_epik_Ionization_Penalty>
1.40052

> <r_epik_Ionization_Penalty_Charging>
1.39966

> <r_epik_Ionization_Penalty_Neutral>
0.000858184

> <r_epik_State_Penalty>
1.4817

> <r_epik_Charging_Adjusted_Penalty>
2.88136

> <i_epik_Tot_Q>
1

> <i_epik_Tot_abs_Q>
1

> <r_epik_Metal_State_Penalty>
5.5238

> <b_epik_Metal_Only>
0

> <s_lp_Force_Field>
OPLS_2005

> <r_lp_Energy>
17.0634

> <b_lp_Chiralities_Consistent>
1

> <s_lp_Variant>
AV-unprocessed.smi:2183-3

> <Gold.Version>
5.8.1

> <Gold.Id.Protein>
6NUR|6NUR_protein|mol2

> <Gold.PLP.Fitness>
57.1869

> <Gold.PLP.PLP>
-44.3477

> <Gold.PLP.part.hbond>
-4.0000

> <Gold.PLP.part.metal>
0.0000

> <Gold.PLP.part.buried>
-7.5863

> <Gold.PLP.part.nonpolar>
-32.9130

> <Gold.PLP.part.repulsive>
0.1871

> <Gold.PLP.ligand.clash>
0.0000

> <Gold.PLP.ligand.torsion>
0.9497

> <Gold.PLP.Chemscore.Hbond>
4.8800

> <Gold.PLP.Chemscore.CHOScore>
0.0000

> <Gold.PLP.Chemscore.Metal>
0.0000

> <Gold.Chemscore.Hbonds>
donor molecule, donor type, donor heavy atom, donor atom, acceptor molecule, acceptor atom, score
      L1  H     1    24       P1  7948  1.00
      L1  H     4    41       P1  7948  2.00
      L1  H    14    34       P1 10957  0.58
      P1  H 11000 11005       L1    14  0.55

> <Gold.PLP.Chemscore.Internal.Correction>
0.0987

> <Gold.Rescore>
     Score         DG    S(hbond)    S(metal)    S(lipo)     H(rot)  DE(clash)    DE(int)     intcor
     21.60     -22.90       3.61        0.00     114.44       3.13       0.28       1.01       ----

> <Gold.Chemscore.Fitness>
21.6017

> <Gold.Chemscore.DG>
-22.8967

> <Gold.Chemscore.ZeroCoef>
-5.4800

> <Gold.Chemscore.Hbond>
3.6052

> <Gold.Chemscore.Metal>
0.0000

> <Gold.Chemscore.Lipo>
114.4385

> <Gold.Chemscore.Internal_Hbond>
0.0000

> <Gold.Chemscore.DEClash>
0.2813

> <Gold.Chemscore.DEInternal>
1.0136

> <Gold.Chemscore.Rot>
3.1305

> <Gold.Chemscore.Internal.Correction>
   9.000000E+99

> <Gold.Chemscore.Hbonds>
donor molecule, donor type, donor heavy atom, donor atom, acceptor molecule, acceptor atom, score
      L1  H     1    24       P1  7948  0.99
      L1  H     4    41       P1  7948  0.86
      L1  H    14    34       P1 10957  0.57
      P1  H 11000 11005       L1    14  0.10

> <Gold.Chemscore.Hbond.Weighted>
-12.0415

> <Gold.Chemscore.Metal.Weighted>
-0.0000

> <Gold.Chemscore.Lipo.Weighted>
-13.3893

> <Gold.Chemscore.Internal_Hbond.Weighted>
0.0000

> <Gold.Chemscore.DEClash.Weighted>
0.2813

> <Gold.Chemscore.DEInternal.Weighted>
1.0136

> <Gold.Chemscore.Rot.Weighted>
8.0141

> <Gold.Chemscore.Internal.Correction.Weighted>
   9.000000E+99

> <Gold.Protein.RotatedTorsions>
[ 6907 6896 6895 6894 ] final  148.47 input  -60.11 | X-H torsion
[ 7974 7965 7964 7962 ] final  -37.08 input  175.53 | X-H torsion
[ 8008 7997 7996 7995 ] final   42.00 input   59.86 | X-H torsion
[ 10167 10162 10161 10158 ] final  -27.77 input  -65.29 | X-H torsion
[ 10718 10713 10712 10709 ] final  -29.40 input   66.30 | X-H torsion
[ 10763 10752 10751 10750 ] final -140.27 input  -60.55 | X-H torsion
[ 11005 11000 10999 10996 ] final    4.31 input  -57.11 | X-H torsion

> <Gold.Protein.ActiveResidues>
 VAL166  LYS551  ARG553  GLY616  TRP617  ASP618  TYR619  PRO620  LYS621  CYS622 
 ASP623  PHE694  ASN695  SER759  ASP760  ASP761  ALA762  ILE779  LEU786  VAL792 
 PHE793  MET794  SER795  GLU796  ALA797  LYS798  CYS799  TRP800  GLU811  SER814 

> <Gold.Protein.RotatedAtoms>
  152.1410  133.4464  159.4766 H   0  0  0  0  0  0  0  0  0  0  0  0  # atno 6907 bound_to 6896
  150.6886  134.2305  159.4441 H   0  0  0  0  0  0  0  0  0  0  0  0  # atno 6908 bound_to 6896
  152.0196  134.9830  160.0621 H   0  0  0  0  0  0  0  0  0  0  0  0  # atno 6909 bound_to 6896
  146.0605  140.6354  142.8999 H   0  0  0  0  0  0  0  0  0  0  0  0  # atno 7974 bound_to 7965
  155.2789  140.3371  155.4260 H   0  0  0  0  0  0  0  0  0  0  0  0  # atno 8008 bound_to 7997
  156.2099  140.1765  156.7759 H   0  0  0  0  0  0  0  0  0  0  0  0  # atno 8009 bound_to 7997
  154.5671  140.0676  156.8893 H   0  0  0  0  0  0  0  0  0  0  0  0  # atno 8010 bound_to 7997
  140.7275  143.4066  151.1175 H   0  0  0  0  0  0  0  0  0  0  0  0  # atno 10167 bound_to 10162
  156.4129  130.4411  149.7239 H   0  0  0  0  0  0  0  0  0  0  0  0  # atno 10718 bound_to 10713
  154.8584  135.3558  154.5681 H   0  0  0  0  0  0  0  0  0  0  0  0  # atno 10763 bound_to 10752
  153.6294  135.7003  153.5286 H   0  0  0  0  0  0  0  0  0  0  0  0  # atno 10764 bound_to 10752
  153.3062  135.4192  155.1256 H   0  0  0  0  0  0  0  0  0  0  0  0  # atno 10765 bound_to 10752
  140.5834  133.9991  155.8057 H   0  0  0  0  0  0  0  0  0  0  0  0  # atno 11005 bound_to 11000
  144.7172  140.4252  143.7035 LP  0  0  0  0  0  0  0  0  0  0  0  0  # atno 17320 bound_to 7965
  145.6568  139.1574  143.2831 LP  0  0  0  0  0  0  0  0  0  0  0  0  # atno 17321 bound_to 7965
  139.7693  143.8518  152.3117 LP  0  0  0  0  0  0  0  0  0  0  0  0  # atno 17342 bound_to 10162
  139.8431  144.7200  150.9306 LP  0  0  0  0  0  0  0  0  0  0  0  0  # atno 17343 bound_to 10162
  156.4211  130.7769  151.2786 LP  0  0  0  0  0  0  0  0  0  0  0  0  # atno 17370 bound_to 10713
  157.7507  131.0182  150.3619 LP  0  0  0  0  0  0  0  0  0  0  0  0  # atno 17371 bound_to 10713
  141.0982  133.9811  157.3125 LP  0  0  0  0  0  0  0  0  0  0  0  0  # atno 17394 bound_to 11000
  139.9307  135.0200  156.8389 LP  0  0  0  0  0  0  0  0  0  0  0  0  # atno 17395 bound_to 11000

$$$$
