AV-unprocessed.smi:3314|AV-procd|sdf|12745|dock2
  -GOLD-   2272019 83D 1   1.00000     0.00000
 Structure written by MMmdl.
 37 38  0  0  0  0  0  0  0  0  3 V2000
  151.4808  144.9487  159.2406 C   0  0  0  0  0  0  0  0  0  0  0  0
  151.8296  143.4782  159.3309 C   0  0  0  0  0  0  0  0  0  0  0  0
  152.7498  143.0103  160.2882 C   0  0  0  0  0  0  0  0  0  0  0  0
  153.0326  141.6309  160.3168 C   0  0  0  0  0  0  0  0  0  0  0  0
  154.0112  141.0643  161.3239 C   0  0  0  0  0  0  0  0  0  0  0  0
  152.4604  140.7422  159.4757 N   0  0  0  0  0  0  0  0  0  0  0  0
  151.5692  141.1791  158.5541 C   0  0  0  0  0  0  0  0  0  0  0  0
  151.0174  140.2873  157.7191 N   0  5  0  0  0  0  0  0  0  0  0  0
  149.7806  140.5096  157.2120 C   0  0  0  0  0  0  0  0  0  0  0  0
  148.6863  140.3001  157.7396 O   0  0  0  0  0  0  0  0  0  0  0  0
  149.8503  141.0961  155.7837 C   0  0  2  0  0  0  0  0  0  0  0  0
  148.4756  141.2533  155.0911 C   0  0  0  0  0  0  0  0  0  0  0  0
  147.8974  139.9314  154.7507 N   0  3  1  0  0  0  0  0  0  0  0  0
  146.5495  140.0333  154.1534 C   0  0  0  0  0  0  0  0  0  0  0  0
  148.8350  139.1447  153.9185 C   0  0  0  0  0  0  0  0  0  0  0  0
  150.1942  139.0129  154.6246 C   0  0  0  0  0  0  0  0  0  0  0  0
  150.6993  140.3108  154.9368 O   0  0  0  0  0  0  0  0  0  0  0  0
  151.2366  142.5498  158.4521 C   0  0  0  0  0  0  0  0  0  0  0  0
  151.9080  145.5093  160.0725 H   0  0  0  0  0  0  0  0  0  0  0  0
  150.3990  145.0826  159.2597 H   0  0  0  0  0  0  0  0  0  0  0  0
  151.8634  145.3698  158.3108 H   0  0  0  0  0  0  0  0  0  0  0  0
  153.2265  143.6884  160.9807 H   0  0  0  0  0  0  0  0  0  0  0  0
  154.7849  141.7943  161.5635 H   0  0  0  0  0  0  0  0  0  0  0  0
  154.4995  140.1695  160.9358 H   0  0  0  0  0  0  0  0  0  0  0  0
  153.4905  140.7999  162.2444 H   0  0  0  0  0  0  0  0  0  0  0  0
  150.3021  142.0856  155.8683 H   0  0  0  0  0  0  0  0  0  0  0  0
  147.7871  141.8064  155.7318 H   0  0  0  0  0  0  0  0  0  0  0  0
  148.5900  141.8421  154.1796 H   0  0  0  0  0  0  0  0  0  0  0  0
  146.5807  140.5730  153.2061 H   0  0  0  0  0  0  0  0  0  0  0  0
  145.8705  140.5581  154.8260 H   0  0  0  0  0  0  0  0  0  0  0  0
  146.1355  139.0413  153.9697 H   0  0  0  0  0  0  0  0  0  0  0  0
  148.4197  138.1545  153.7284 H   0  0  0  0  0  0  0  0  0  0  0  0
  148.9623  139.6319  152.9505 H   0  0  0  0  0  0  0  0  0  0  0  0
  150.1103  138.3948  155.5193 H   0  0  0  0  0  0  0  0  0  0  0  0
  150.9065  138.5111  153.9697 H   0  0  0  0  0  0  0  0  0  0  0  0
  150.5293  142.8854  157.7075 H   0  0  0  0  0  0  0  0  0  0  0  0
  147.7935  139.4325  155.6237 H   0  0  0  0  0  0  0  0  0  0  0  0
  1  2  1  0  0  0  0
  1 19  1  0  0  0  0
  1 20  1  0  0  0  0
  1 21  1  0  0  0  0
  2 18  2  0  0  0  0
  2  3  1  0  0  0  0
  3  4  2  0  0  0  0
  3 22  1  0  0  0  0
  4  5  1  0  0  0  0
  4  6  1  0  0  0  0
  5 23  1  0  0  0  0
  5 24  1  0  0  0  0
  5 25  1  0  0  0  0
  6  7  2  0  0  0  0
  7  8  1  0  0  0  0
  7 18  1  0  0  0  0
  8  9  1  0  0  0  0
  9 10  2  0  0  0  0
  9 11  1  0  0  0  0
 11 17  1  0  0  0  0
 11 12  1  0  0  0  0
 11 26  1  0  0  0  0
 12 13  1  0  0  0  0
 12 27  1  0  0  0  0
 12 28  1  0  0  0  0
 13 14  1  0  0  0  0
 13 15  1  0  0  0  0
 13 37  1  0  0  0  0
 14 29  1  0  0  0  0
 14 30  1  0  0  0  0
 14 31  1  0  0  0  0
 15 16  1  0  0  0  0
 15 32  1  0  0  0  0
 15 33  1  0  0  0  0
 16 17  1  0  0  0  0
 16 34  1  0  0  0  0
 16 35  1  0  0  0  0
 18 36  1  0  0  0  0
M  CHG  1   8  -1
M  CHG  1  13   1
M  END
> <s_m_source_file>
AV-unprocessed.smi

> <i_m_source_file_index>
3314

> <i_lp_mmshare_version>
43012

> <i_f3d_flags>
0

> <s_epik_input>
W0NIM11jMVtjSF1jKFtDSDNdKW5jKFtjSF0xKVtOSF1DKD1PKVtDQEBIXTJbQ0gyXU4oW0NIM10pW0NIMl1bQ0gyXU8y

> <s_epik_cmdline>
J2VwaWtfcHl0aG9uJywgJy1waCcsICc3LjAnLCAnLXRuJywgJzgnLCAnLW1hJywgJzIwMCcsICctbWV0YWxfYmluZGluZycsICctaW1hZScsICc8aW5maWxlLm1hZT4nLCAnLW9tYWUnLCAnPG91dGZpbGUubWFlPic=

> <r_epik_Ionization_Penalty>
13.8964

> <r_epik_Ionization_Penalty_Charging>
7.88995

> <r_epik_Ionization_Penalty_Neutral>
6.00641

> <r_epik_State_Penalty>
8.39989

> <r_epik_Charging_Adjusted_Penalty>
16.2898

> <i_epik_Tot_Q>
0

> <i_epik_Tot_abs_Q>
2

> <r_epik_Metal_State_Penalty>
4.31145

> <b_epik_Metal_Only>
1

> <s_lp_Force_Field>
OPLS_2005

> <r_lp_Energy>
7.08272

> <b_lp_Chiralities_Consistent>
1

> <s_lp_Variant>
AV-unprocessed.smi:3314-15

> <Gold.Version>
5.8.1

> <Gold.Id.Protein>
6NUR|6NUR_protein|mol2

> <Gold.PLP.Fitness>
40.9610

> <Gold.PLP.PLP>
-39.9256

> <Gold.PLP.part.hbond>
-1.0000

> <Gold.PLP.part.metal>
0.0000

> <Gold.PLP.part.buried>
-2.9177

> <Gold.PLP.part.nonpolar>
-35.5284

> <Gold.PLP.part.repulsive>
0.1606

> <Gold.PLP.ligand.clash>
0.0000

> <Gold.PLP.ligand.torsion>
1.0097

> <Gold.PLP.Chemscore.Hbond>
1.0000

> <Gold.PLP.Chemscore.CHOScore>
0.0000

> <Gold.PLP.Chemscore.Metal>
0.0000

> <Gold.Chemscore.Hbonds>
donor molecule, donor type, donor heavy atom, donor atom, acceptor molecule, acceptor atom, score
      P1  H  7989  7998       L1    17  1.00

> <Gold.PLP.Chemscore.Internal.Correction>
0.0547

> <Gold.Rescore>
     Score         DG    S(hbond)    S(metal)    S(lipo)     H(rot)  DE(clash)    DE(int)     intcor
     15.90     -16.86       0.76        0.00      97.51       1.00       0.05       0.92       ----

> <Gold.Chemscore.Fitness>
15.8973

> <Gold.Chemscore.DG>
-16.8629

> <Gold.Chemscore.ZeroCoef>
-5.4800

> <Gold.Chemscore.Hbond>
0.7586

> <Gold.Chemscore.Metal>
0.0000

> <Gold.Chemscore.Lipo>
97.5142

> <Gold.Chemscore.Internal_Hbond>
0.0000

> <Gold.Chemscore.DEClash>
0.0485

> <Gold.Chemscore.DEInternal>
0.9171

> <Gold.Chemscore.Rot>
1.0000

> <Gold.Chemscore.Internal.Correction>
   9.000000E+99

> <Gold.Chemscore.Hbonds>
donor molecule, donor type, donor heavy atom, donor atom, acceptor molecule, acceptor atom, score
      P1  H  7989  7998       L1    17  0.60

> <Gold.Chemscore.Hbond.Weighted>
-2.5338

> <Gold.Chemscore.Metal.Weighted>
-0.0000

> <Gold.Chemscore.Lipo.Weighted>
-11.4092

> <Gold.Chemscore.Internal_Hbond.Weighted>
0.0000

> <Gold.Chemscore.DEClash.Weighted>
0.0485

> <Gold.Chemscore.DEInternal.Weighted>
0.9171

> <Gold.Chemscore.Rot.Weighted>
2.5600

> <Gold.Chemscore.Internal.Correction.Weighted>
   9.000000E+99

> <Gold.Protein.RotatedTorsions>
[ 6907 6896 6895 6894 ] final  159.46 input  -60.11 | X-H torsion
[ 7974 7965 7964 7962 ] final  171.47 input  175.53 | X-H torsion
[ 8008 7997 7996 7995 ] final   67.57 input   59.86 | X-H torsion
[ 10167 10162 10161 10158 ] final  -60.80 input  -65.29 | X-H torsion
[ 10718 10713 10712 10709 ] final  -90.46 input   66.30 | X-H torsion
[ 10763 10752 10751 10750 ] final  -37.99 input  -60.55 | X-H torsion
[ 11005 11000 10999 10996 ] final   98.14 input  -57.11 | X-H torsion

> <Gold.Protein.ActiveResidues>
 VAL166  LYS551  ARG553  GLY616  TRP617  ASP618  TYR619  PRO620  LYS621  CYS622 
 ASP623  PHE694  ASN695  SER759  ASP760  ASP761  ALA762  ILE779  LEU786  VAL792 
 PHE793  MET794  SER795  GLU796  ALA797  LYS798  CYS799  TRP800  GLU811  SER814 

> <Gold.Protein.RotatedAtoms>
  151.9852  133.3771  159.4122 H   0  0  0  0  0  0  0  0  0  0  0  0  # atno 6907 bound_to 6896
  150.6929  134.3995  159.5122 H   0  0  0  0  0  0  0  0  0  0  0  0  # atno 6908 bound_to 6896
  152.1720  134.8825  160.0584 H   0  0  0  0  0  0  0  0  0  0  0  0  # atno 6909 bound_to 6896
  144.7294  139.9355  143.6426 H   0  0  0  0  0  0  0  0  0  0  0  0  # atno 7974 bound_to 7965
  155.6949  140.3496  155.4909 H   0  0  0  0  0  0  0  0  0  0  0  0  # atno 8008 bound_to 7997
  155.9492  140.1116  157.1014 H   0  0  0  0  0  0  0  0  0  0  0  0  # atno 8009 bound_to 7997
  154.4118  140.1197  156.5016 H   0  0  0  0  0  0  0  0  0  0  0  0  # atno 8010 bound_to 7997
  140.6047  143.2370  151.5847 H   0  0  0  0  0  0  0  0  0  0  0  0  # atno 10167 bound_to 10162
  155.9988  130.4910  150.5326 H   0  0  0  0  0  0  0  0  0  0  0  0  # atno 10718 bound_to 10713
  153.9054  135.6798  153.4753 H   0  0  0  0  0  0  0  0  0  0  0  0  # atno 10763 bound_to 10752
  153.1107  135.4784  154.9027 H   0  0  0  0  0  0  0  0  0  0  0  0  # atno 10764 bound_to 10752
  154.7554  135.3196  154.8435 H   0  0  0  0  0  0  0  0  0  0  0  0  # atno 10765 bound_to 10752
  139.8773  134.9035  156.4412 H   0  0  0  0  0  0  0  0  0  0  0  0  # atno 11005 bound_to 11000
  146.0825  139.3813  143.0456 LP  0  0  0  0  0  0  0  0  0  0  0  0  # atno 17320 bound_to 7965
  145.7822  140.9851  143.1093 LP  0  0  0  0  0  0  0  0  0  0  0  0  # atno 17321 bound_to 7965
  139.5316  144.2898  152.1161 LP  0  0  0  0  0  0  0  0  0  0  0  0  # atno 17342 bound_to 10162
  140.2086  144.4586  150.6397 LP  0  0  0  0  0  0  0  0  0  0  0  0  # atno 17343 bound_to 10162
  157.3273  131.0693  151.1887 LP  0  0  0  0  0  0  0  0  0  0  0  0  # atno 17370 bound_to 10713
  157.2779  130.6736  149.6051 LP  0  0  0  0  0  0  0  0  0  0  0  0  # atno 17371 bound_to 10713
  140.8998  133.7787  155.9667 LP  0  0  0  0  0  0  0  0  0  0  0  0  # atno 17394 bound_to 11000
  140.8663  134.2780  157.5211 LP  0  0  0  0  0  0  0  0  0  0  0  0  # atno 17395 bound_to 11000

$$$$
