AV-unprocessed.smi:2475|AV-procd|sdf|9756|dock5
  -GOLD-   2272013393D 1   1.00000     0.00000
 Structure written by MMmdl.
 37 38  0  0  0  0  0  0  0  0  1 V2000
  151.0933  145.1702  158.9973 C   0  0  0  0  0  0  0  0  0  0  0  0
  151.5244  143.7239  158.8802 C   0  0  0  0  0  0  0  0  0  0  0  0
  151.2079  142.9487  157.7448 C   0  0  0  0  0  0  0  0  0  0  0  0
  151.6581  141.6097  157.7327 C   0  0  0  0  0  0  0  0  0  0  0  0
  151.3221  140.8550  156.5794 N   0  0  0  0  0  0  0  0  0  0  0  0
  151.9035  139.7307  156.1182 C   0  0  0  0  0  0  0  0  0  0  0  0
  152.8809  139.1925  156.6394 O   0  0  0  0  0  0  0  0  0  0  0  0
  151.3023  139.1270  154.8351 C   0  0  1  0  0  0  0  0  0  0  0  0
  150.3999  137.9008  155.0893 C   0  0  0  0  0  0  0  0  0  0  0  0
  149.0456  138.3059  154.5318 C   0  0  0  0  0  0  0  0  0  0  0  0
  149.1113  139.8254  154.5536 C   0  0  0  0  0  0  0  0  0  0  0  0
  150.4577  140.0797  154.1850 O   0  0  0  0  0  0  0  0  0  0  0  0
  152.3629  141.1236  158.7838 N   0  0  0  0  0  0  0  0  0  0  0  0
  152.6095  141.9407  159.8131 C   0  0  0  0  0  0  0  0  0  0  0  0
  153.4085  141.3661  160.9755 C   0  0  0  0  0  0  0  0  0  0  0  0
  153.3924  142.2967  162.1980 C   0  0  0  0  0  0  0  0  0  0  0  0
  154.8274  140.9553  160.5520 C   0  0  0  0  0  0  0  0  0  0  0  0
  152.2269  143.2166  159.9148 N   0  0  0  0  0  0  0  0  0  0  0  0
  150.4709  145.4656  158.1522 H   0  0  0  0  0  0  0  0  0  0  0  0
  151.9654  145.8239  159.0238 H   0  0  0  0  0  0  0  0  0  0  0  0
  150.5198  145.3233  159.9119 H   0  0  0  0  0  0  0  0  0  0  0  0
  150.6445  143.3633  156.9214 H   0  0  0  0  0  0  0  0  0  0  0  0
  150.5366  141.1978  156.0457 H   0  0  0  0  0  0  0  0  0  0  0  0
  152.1201  138.8719  154.1604 H   0  0  0  0  0  0  0  0  0  0  0  0
  150.7810  137.0065  154.5955 H   0  0  0  0  0  0  0  0  0  0  0  0
  150.3046  137.6694  156.1514 H   0  0  0  0  0  0  0  0  0  0  0  0
  148.9484  137.9562  153.5031 H   0  0  0  0  0  0  0  0  0  0  0  0
  148.2091  137.9075  155.1067 H   0  0  0  0  0  0  0  0  0  0  0  0
  148.4087  140.2896  153.8614 H   0  0  0  0  0  0  0  0  0  0  0  0
  148.9200  140.2130  155.5555 H   0  0  0  0  0  0  0  0  0  0  0  0
  152.9077  140.4475  161.2862 H   0  0  0  0  0  0  0  0  0  0  0  0
  152.3710  142.5049  162.5175 H   0  0  0  0  0  0  0  0  0  0  0  0
  153.8745  143.2502  161.9794 H   0  0  0  0  0  0  0  0  0  0  0  0
  153.9169  141.8457  163.0405 H   0  0  0  0  0  0  0  0  0  0  0  0
  154.7984  140.2387  159.7307 H   0  0  0  0  0  0  0  0  0  0  0  0
  155.3640  140.4890  161.3786 H   0  0  0  0  0  0  0  0  0  0  0  0
  155.4105  141.8163  160.2232 H   0  0  0  0  0  0  0  0  0  0  0  0
  1  2  1  0  0  0  0
  1 19  1  0  0  0  0
  1 20  1  0  0  0  0
  1 21  1  0  0  0  0
  2 18  1  0  0  0  0
  2  3  2  0  0  0  0
  3  4  1  0  0  0  0
  3 22  1  0  0  0  0
  4  5  1  0  0  0  0
  4 13  2  0  0  0  0
  5  6  1  0  0  0  0
  5 23  1  0  0  0  0
  6  7  2  0  0  0  0
  6  8  1  0  0  0  0
  8 12  1  0  0  0  0
  8  9  1  0  0  0  0
  8 24  1  0  0  0  0
  9 10  1  0  0  0  0
  9 25  1  0  0  0  0
  9 26  1  0  0  0  0
 10 11  1  0  0  0  0
 10 27  1  0  0  0  0
 10 28  1  0  0  0  0
 11 12  1  0  0  0  0
 11 29  1  0  0  0  0
 11 30  1  0  0  0  0
 13 14  1  0  0  0  0
 14 15  1  0  0  0  0
 14 18  2  0  0  0  0
 15 16  1  0  0  0  0
 15 17  1  0  0  0  0
 15 31  1  0  0  0  0
 16 32  1  0  0  0  0
 16 33  1  0  0  0  0
 16 34  1  0  0  0  0
 17 35  1  0  0  0  0
 17 36  1  0  0  0  0
 17 37  1  0  0  0  0
M  END
> <s_m_source_file>
AV-unprocessed.smi

> <i_m_source_file_index>
2475

> <i_lp_mmshare_version>
43012

> <i_f3d_flags>
0

> <s_epik_input>
W0NIM11bQ0hdKFtDSDNdKWMobjEpbmMoW2NIXWMxW0NIM10pW05IXUMoPU8pW0NAQEhdMltDSDJdW0NIMl1bQ0gyXU8y

> <s_epik_cmdline>
J2VwaWtfcHl0aG9uJywgJy1waCcsICc3LjAnLCAnLXRuJywgJzgnLCAnLW1hJywgJzIwMCcsICctbWV0YWxfYmluZGluZycsICctaW1hZScsICc8aW5maWxlLm1hZT4nLCAnLW9tYWUnLCAnPG91dGZpbGUubWFlPic=

> <r_lp_tautomer_probability>
1

> <r_epik_Ionization_Penalty>
1.42804e-05

> <r_epik_Ionization_Penalty_Charging>
0

> <r_epik_Ionization_Penalty_Neutral>
1.42804e-05

> <r_epik_State_Penalty>
-0

> <r_epik_Charging_Adjusted_Penalty>
0

> <i_epik_Tot_Q>
0

> <i_epik_Tot_abs_Q>
0

> <r_epik_Metal_State_Penalty>
-0

> <b_epik_Metal_Only>
0

> <s_lp_Force_Field>
OPLS_2005

> <r_lp_Energy>
11.5588

> <b_lp_Chiralities_Consistent>
1

> <s_lp_Variant>
AV-unprocessed.smi:2475-2

> <Gold.Version>
5.8.1

> <Gold.Id.Protein>
6NUR|6NUR_protein|mol2

> <Gold.PLP.Fitness>
45.1882

> <Gold.PLP.PLP>
-40.4941

> <Gold.PLP.part.hbond>
-1.8440

> <Gold.PLP.part.metal>
0.0000

> <Gold.PLP.part.buried>
-6.5898

> <Gold.PLP.part.nonpolar>
-33.3375

> <Gold.PLP.part.repulsive>
0.2629

> <Gold.PLP.ligand.clash>
0.0000

> <Gold.PLP.ligand.torsion>
0.6778

> <Gold.PLP.Chemscore.Hbond>
1.9913

> <Gold.PLP.Chemscore.CHOScore>
0.0000

> <Gold.PLP.Chemscore.Metal>
0.0000

> <Gold.Chemscore.Hbonds>
donor molecule, donor type, donor heavy atom, donor atom, acceptor molecule, acceptor atom, score
      P1  H  7989  7998       L1    12  0.80
      P1  H  7997  8010       L1     7  1.00

> <Gold.PLP.Chemscore.Internal.Correction>
0.0760

> <Gold.Rescore>
     Score         DG    S(hbond)    S(metal)    S(lipo)     H(rot)  DE(clash)    DE(int)     intcor
     16.36     -18.59       1.72        0.00      88.72       1.18       0.21       2.02       ----

> <Gold.Chemscore.Fitness>
16.3599

> <Gold.Chemscore.DG>
-18.5894

> <Gold.Chemscore.ZeroCoef>
-5.4800

> <Gold.Chemscore.Hbond>
1.7248

> <Gold.Chemscore.Metal>
0.0000

> <Gold.Chemscore.Lipo>
88.7185

> <Gold.Chemscore.Internal_Hbond>
0.0000

> <Gold.Chemscore.DEClash>
0.2139

> <Gold.Chemscore.DEInternal>
2.0156

> <Gold.Chemscore.Rot>
1.1842

> <Gold.Chemscore.Internal.Correction>
   9.000000E+99

> <Gold.Chemscore.Hbonds>
donor molecule, donor type, donor heavy atom, donor atom, acceptor molecule, acceptor atom, score
      P1  H  7989  7998       L1    12  0.11
      P1  H  7997  8010       L1     7  0.93

> <Gold.Chemscore.Hbond.Weighted>
-5.7609

> <Gold.Chemscore.Metal.Weighted>
-0.0000

> <Gold.Chemscore.Lipo.Weighted>
-10.3801

> <Gold.Chemscore.Internal_Hbond.Weighted>
0.0000

> <Gold.Chemscore.DEClash.Weighted>
0.2139

> <Gold.Chemscore.DEInternal.Weighted>
2.0156

> <Gold.Chemscore.Rot.Weighted>
3.0315

> <Gold.Chemscore.Internal.Correction.Weighted>
   9.000000E+99

> <Gold.Protein.RotatedTorsions>
[ 6907 6896 6895 6894 ] final -178.93 input  -60.11 | X-H torsion
[ 7974 7965 7964 7962 ] final  -31.45 input  175.53 | X-H torsion
[ 8008 7997 7996 7995 ] final   64.02 input   59.86 | X-H torsion
[ 10167 10162 10161 10158 ] final  121.92 input  -65.29 | X-H torsion
[ 10718 10713 10712 10709 ] final -163.42 input   66.30 | X-H torsion
[ 10763 10752 10751 10750 ] final  -61.06 input  -60.55 | X-H torsion
[ 11005 11000 10999 10996 ] final   98.52 input  -57.11 | X-H torsion

> <Gold.Protein.ActiveResidues>
 VAL166  LYS551  ARG553  GLY616  TRP617  ASP618  TYR619  PRO620  LYS621  CYS622 
 ASP623  PHE694  ASN695  SER759  ASP760  ASP761  ALA762  ILE779  LEU786  VAL792 
 PHE793  MET794  SER795  GLU796  ALA797  LYS798  CYS799  TRP800  GLU811  SER814 

> <Gold.Protein.RotatedAtoms>
  151.6451  133.3324  159.3138 H   0  0  0  0  0  0  0  0  0  0  0  0  # atno 6907 bound_to 6896
  150.7988  134.7071  159.6592 H   0  0  0  0  0  0  0  0  0  0  0  0  # atno 6908 bound_to 6896
  152.4078  134.6181  160.0095 H   0  0  0  0  0  0  0  0  0  0  0  0  # atno 6909 bound_to 6896
  146.1066  140.5669  142.8797 H   0  0  0  0  0  0  0  0  0  0  0  0  # atno 7974 bound_to 7965
  155.6395  140.3496  155.4710 H   0  0  0  0  0  0  0  0  0  0  0  0  # atno 8008 bound_to 7997
  155.9938  140.1199  157.0636 H   0  0  0  0  0  0  0  0  0  0  0  0  # atno 8009 bound_to 7997
  154.4227  140.1114  156.5588 H   0  0  0  0  0  0  0  0  0  0  0  0  # atno 8010 bound_to 7997
  139.5890  144.7018  151.3337 H   0  0  0  0  0  0  0  0  0  0  0  0  # atno 10167 bound_to 10162
  156.6244  130.8904  151.2964 H   0  0  0  0  0  0  0  0  0  0  0  0  # atno 10718 bound_to 10713
  154.2789  135.6276  153.5339 H   0  0  0  0  0  0  0  0  0  0  0  0  # atno 10763 bound_to 10752
  152.9869  135.5628  154.5518 H   0  0  0  0  0  0  0  0  0  0  0  0  # atno 10764 bound_to 10752
  154.5104  135.2876  155.1323 H   0  0  0  0  0  0  0  0  0  0  0  0  # atno 10765 bound_to 10752
  139.8772  134.9053  156.4469 H   0  0  0  0  0  0  0  0  0  0  0  0  # atno 11005 bound_to 11000
  144.7476  140.5108  143.6824 LP  0  0  0  0  0  0  0  0  0  0  0  0  # atno 17320 bound_to 7965
  145.5748  139.1485  143.3268 LP  0  0  0  0  0  0  0  0  0  0  0  0  # atno 17321 bound_to 7965
  140.7157  143.7273  150.7650 LP  0  0  0  0  0  0  0  0  0  0  0  0  # atno 17342 bound_to 10162
  140.0825  143.4955  152.2522 LP  0  0  0  0  0  0  0  0  0  0  0  0  # atno 17343 bound_to 10162
  157.7218  130.9569  150.1470 LP  0  0  0  0  0  0  0  0  0  0  0  0  # atno 17370 bound_to 10713
  156.2285  130.3680  149.8472 LP  0  0  0  0  0  0  0  0  0  0  0  0  # atno 17371 bound_to 10713
  140.8960  133.7814  155.9625 LP  0  0  0  0  0  0  0  0  0  0  0  0  # atno 17394 bound_to 11000
  140.8703  134.2735  157.5194 LP  0  0  0  0  0  0  0  0  0  0  0  0  # atno 17395 bound_to 11000

$$$$
