AV-unprocessed.smi:2087|AV-procd|sdf|8525|dock2
  -GOLD-   2272011243D 1   1.00000     0.00000
 Structure written by MMmdl.
 50 51  0  0  0  0  0  0  0  0  1 V2000
  141.8902  135.3366  153.3322 C   0  0  0  0  0  0  0  0  0  0  0  0
  142.7320  136.6096  153.5253 C   0  0  0  0  0  0  0  0  0  0  0  0
  141.9634  137.8905  153.1564 C   0  0  0  0  0  0  0  0  0  0  0  0
  144.1457  136.5245  152.8980 C   0  0  0  0  0  0  0  0  0  0  0  0
  145.0498  137.6618  153.0984 N   0  0  0  0  0  0  0  0  0  0  0  0
  145.9010  137.8509  151.9280 C   0  0  0  0  0  0  0  0  0  0  0  0
  146.8631  139.0370  152.0977 C   0  0  0  0  0  0  0  0  0  0  0  0
  147.6503  138.8371  153.2651 O   0  0  0  0  0  0  0  0  0  0  0  0
  146.8669  138.7119  154.4493 C   0  0  2  0  0  0  0  0  0  0  0  0
  147.8068  138.5157  155.6511 C   0  0  0  0  0  0  0  0  0  0  0  0
  149.0159  139.3229  155.5260 N   0  0  0  0  0  0  0  0  0  0  0  0
  149.9494  139.4779  156.4771 C   0  0  0  0  0  0  0  0  0  0  0  0
  149.8850  138.9394  157.5833 O   0  0  0  0  0  0  0  0  0  0  0  0
  151.1473  140.3613  156.1025 C   0  0  0  0  0  0  0  0  0  0  0  0
  151.5312  141.2996  157.1658 N   0  0  0  0  0  0  0  0  0  0  0  0
  151.0141  142.5827  157.1654 C   0  0  0  0  0  0  0  0  0  0  0  0
  151.3207  143.5099  158.0986 C   0  0  0  0  0  0  0  0  0  0  0  0
  152.2369  143.1978  159.1882 C   0  0  0  0  0  0  0  0  0  0  0  0
  152.5580  144.0104  160.0568 O   0  0  0  0  0  0  0  0  0  0  0  0
  152.7441  141.8782  159.1717 N   0  0  0  0  0  0  0  0  0  0  0  0
  153.6719  141.5255  160.2264 C   0  0  0  0  0  0  0  0  0  0  0  0
  152.4303  140.9147  158.1846 C   0  0  0  0  0  0  0  0  0  0  0  0
  152.9141  139.7804  158.1915 O   0  0  0  0  0  0  0  0  0  0  0  0
  145.8984  137.5233  154.2797 C   0  0  0  0  0  0  0  0  0  0  0  0
  141.6179  135.1853  152.2875 H   0  0  0  0  0  0  0  0  0  0  0  0
  140.9655  135.3892  153.9075 H   0  0  0  0  0  0  0  0  0  0  0  0
  142.4351  134.4533  153.6665 H   0  0  0  0  0  0  0  0  0  0  0  0
  142.9039  136.6930  154.5995 H   0  0  0  0  0  0  0  0  0  0  0  0
  141.6426  137.9055  152.1168 H   0  0  0  0  0  0  0  0  0  0  0  0
  142.5725  138.7780  153.3301 H   0  0  0  0  0  0  0  0  0  0  0  0
  141.0665  137.9886  153.7687 H   0  0  0  0  0  0  0  0  0  0  0  0
  144.6343  135.5999  153.2092 H   0  0  0  0  0  0  0  0  0  0  0  0
  143.9915  136.4149  151.8234 H   0  0  0  0  0  0  0  0  0  0  0  0
  146.4799  136.9448  151.7414 H   0  0  0  0  0  0  0  0  0  0  0  0
  145.2846  138.0144  151.0433 H   0  0  0  0  0  0  0  0  0  0  0  0
  147.5222  139.1177  151.2333 H   0  0  0  0  0  0  0  0  0  0  0  0
  146.3142  139.9768  152.1739 H   0  0  0  0  0  0  0  0  0  0  0  0
  146.2892  139.6271  154.5937 H   0  0  0  0  0  0  0  0  0  0  0  0
  147.3014  138.8291  156.5650 H   0  0  0  0  0  0  0  0  0  0  0  0
  148.0508  137.4598  155.7825 H   0  0  0  0  0  0  0  0  0  0  0  0
  149.1553  139.7978  154.6460 H   0  0  0  0  0  0  0  0  0  0  0  0
  151.9871  139.7078  155.8628 H   0  0  0  0  0  0  0  0  0  0  0  0
  150.9295  140.9084  155.1832 H   0  0  0  0  0  0  0  0  0  0  0  0
  150.3325  142.8629  156.3753 H   0  0  0  0  0  0  0  0  0  0  0  0
  150.8841  144.4959  158.0369 H   0  0  0  0  0  0  0  0  0  0  0  0
  153.8207  140.4471  160.2721 H   0  0  0  0  0  0  0  0  0  0  0  0
  153.2466  141.8575  161.1752 H   0  0  0  0  0  0  0  0  0  0  0  0
  154.6101  142.0380  160.0083 H   0  0  0  0  0  0  0  0  0  0  0  0
  145.2827  137.4664  155.1743 H   0  0  0  0  0  0  0  0  0  0  0  0
  146.4650  136.5926  154.2222 H   0  0  0  0  0  0  0  0  0  0  0  0
  1  2  1  0  0  0  0
  1 25  1  0  0  0  0
  1 26  1  0  0  0  0
  1 27  1  0  0  0  0
  2  3  1  0  0  0  0
  2  4  1  0  0  0  0
  2 28  1  0  0  0  0
  3 29  1  0  0  0  0
  3 30  1  0  0  0  0
  3 31  1  0  0  0  0
  4  5  1  0  0  0  0
  4 32  1  0  0  0  0
  4 33  1  0  0  0  0
  5 24  1  0  0  0  0
  5  6  1  0  0  0  0
  6  7  1  0  0  0  0
  6 34  1  0  0  0  0
  6 35  1  0  0  0  0
  7  8  1  0  0  0  0
  7 36  1  0  0  0  0
  7 37  1  0  0  0  0
  8  9  1  0  0  0  0
  9 10  1  0  0  0  0
  9 24  1  0  0  0  0
  9 38  1  0  0  0  0
 10 11  1  0  0  0  0
 10 39  1  0  0  0  0
 10 40  1  0  0  0  0
 11 12  1  0  0  0  0
 11 41  1  0  0  0  0
 12 13  2  0  0  0  0
 12 14  1  0  0  0  0
 14 15  1  0  0  0  0
 14 42  1  0  0  0  0
 14 43  1  0  0  0  0
 15 22  1  0  0  0  0
 15 16  1  0  0  0  0
 16 17  2  0  0  0  0
 16 44  1  0  0  0  0
 17 18  1  0  0  0  0
 17 45  1  0  0  0  0
 18 19  2  0  0  0  0
 18 20  1  0  0  0  0
 20 21  1  0  0  0  0
 20 22  1  0  0  0  0
 21 46  1  0  0  0  0
 21 47  1  0  0  0  0
 21 48  1  0  0  0  0
 22 23  2  0  0  0  0
 24 49  1  0  0  0  0
 24 50  1  0  0  0  0
M  END
> <s_m_source_file>
AV-unprocessed.smi

> <i_m_source_file_index>
2087

> <i_lp_mmshare_version>
43012

> <i_f3d_flags>
0

> <s_epik_input>
W0NIM11bQ0hdKFtDSDNdKVtDSDJdTjFbQ0gyXVtDSDJdT1tDQEhdKFtDSDJdMSlbQ0gyXVtOSF1DKD1PKVtDSDJdbjJbY0hdW2NIXWMoPU8pbihbQ0gzXSljMj1P

> <s_epik_cmdline>
J2VwaWtfcHl0aG9uJywgJy1waCcsICc3LjAnLCAnLXRuJywgJzgnLCAnLW1hJywgJzIwMCcsICctbWV0YWxfYmluZGluZycsICctaW1hZScsICc8aW5maWxlLm1hZT4nLCAnLW9tYWUnLCAnPG91dGZpbGUubWFlPic=

> <r_lp_tautomer_probability>
1

> <r_epik_Ionization_Penalty>
1.11669

> <r_epik_Ionization_Penalty_Charging>
1.16423e-08

> <r_epik_Ionization_Penalty_Neutral>
1.11669

> <r_epik_State_Penalty>
1.17516

> <r_epik_Charging_Adjusted_Penalty>
1.17516

> <i_epik_Tot_Q>
0

> <i_epik_Tot_abs_Q>
0

> <r_epik_Metal_State_Penalty>
1.17513

> <b_epik_Metal_Only>
0

> <s_lp_Force_Field>
OPLS_2005

> <r_lp_Energy>
38.2596

> <b_lp_Chiralities_Consistent>
1

> <s_lp_Variant>
AV-unprocessed.smi:2087-6

> <Gold.Version>
5.8.1

> <Gold.Id.Protein>
6NUR|6NUR_protein|mol2

> <Gold.PLP.Fitness>
41.5436

> <Gold.PLP.PLP>
-37.9284

> <Gold.PLP.part.hbond>
-1.0000

> <Gold.PLP.part.metal>
0.0000

> <Gold.PLP.part.buried>
-3.5491

> <Gold.PLP.part.nonpolar>
-33.6644

> <Gold.PLP.part.repulsive>
0.5550

> <Gold.PLP.ligand.clash>
0.0000

> <Gold.PLP.ligand.torsion>
1.2660

> <Gold.PLP.Chemscore.Hbond>
1.0000

> <Gold.PLP.Chemscore.CHOScore>
1.0000

> <Gold.PLP.Chemscore.Metal>
0.0000

> <Gold.Chemscore.Hbonds>
donor molecule, donor type, donor heavy atom, donor atom, acceptor molecule, acceptor atom, score
      P1  H  7997  8009       L1    23  0.83
      L1  C    16    44       P1  8028  1.00

> <Gold.PLP.Chemscore.Internal.Correction>
0.1472

> <Gold.Rescore>
     Score         DG    S(hbond)    S(metal)    S(lipo)     H(rot)  DE(clash)    DE(int)     intcor
     10.22     -11.67       0.91        0.00      74.30       2.16       0.25       1.19       ----

> <Gold.Chemscore.Fitness>
10.2221

> <Gold.Chemscore.DG>
-11.6660

> <Gold.Chemscore.ZeroCoef>
-5.4800

> <Gold.Chemscore.Hbond>
0.9079

> <Gold.Chemscore.Metal>
0.0000

> <Gold.Chemscore.Lipo>
74.2980

> <Gold.Chemscore.Internal_Hbond>
0.0000

> <Gold.Chemscore.DEClash>
0.2494

> <Gold.Chemscore.DEInternal>
1.1945

> <Gold.Chemscore.Rot>
2.1638

> <Gold.Chemscore.Internal.Correction>
   9.000000E+99

> <Gold.Chemscore.Hbonds>
donor molecule, donor type, donor heavy atom, donor atom, acceptor molecule, acceptor atom, score
      P1  H  7997  8009       L1    23  0.18

> <Gold.Chemscore.Hbond.Weighted>
-3.0324

> <Gold.Chemscore.Metal.Weighted>
-0.0000

> <Gold.Chemscore.Lipo.Weighted>
-8.6929

> <Gold.Chemscore.Internal_Hbond.Weighted>
0.0000

> <Gold.Chemscore.DEClash.Weighted>
0.2494

> <Gold.Chemscore.DEInternal.Weighted>
1.1945

> <Gold.Chemscore.Rot.Weighted>
5.5393

> <Gold.Chemscore.Internal.Correction.Weighted>
   9.000000E+99

> <Gold.Protein.RotatedTorsions>
[ 6907 6896 6895 6894 ] final   12.01 input  -60.11 | X-H torsion
[ 7974 7965 7964 7962 ] final  -40.50 input  175.53 | X-H torsion
[ 8008 7997 7996 7995 ] final  171.26 input   59.86 | X-H torsion
[ 10167 10162 10161 10158 ] final -171.26 input  -65.29 | X-H torsion
[ 10718 10713 10712 10709 ] final   14.02 input   66.30 | X-H torsion
[ 10763 10752 10751 10750 ] final   51.58 input  -60.55 | X-H torsion
[ 11005 11000 10999 10996 ] final    6.54 input  -57.11 | X-H torsion

> <Gold.Protein.ActiveResidues>
 VAL166  LYS551  ARG553  GLY616  TRP617  ASP618  TYR619  PRO620  LYS621  CYS622 
 ASP623  PHE694  ASN695  SER759  ASP760  ASP761  ALA762  ILE779  LEU786  VAL792 
 PHE793  MET794  SER795  GLU796  ALA797  LYS798  CYS799  TRP800  GLU811  SER814 

> <Gold.Protein.RotatedAtoms>
  151.7635  135.0804  160.0348 H   0  0  0  0  0  0  0  0  0  0  0  0  # atno 6907 bound_to 6896
  152.3337  133.5983  159.5836 H   0  0  0  0  0  0  0  0  0  0  0  0  # atno 6908 bound_to 6896
  150.7438  133.9744  159.3598 H   0  0  0  0  0  0  0  0  0  0  0  0  # atno 6909 bound_to 6896
  146.0299  140.6745  142.9137 H   0  0  0  0  0  0  0  0  0  0  0  0  # atno 7974 bound_to 7965
  156.1288  140.1516  156.9096 H   0  0  0  0  0  0  0  0  0  0  0  0  # atno 8008 bound_to 7997
  154.4892  140.0856  156.7597 H   0  0  0  0  0  0  0  0  0  0  0  0  # atno 8009 bound_to 7997
  155.4294  140.3426  155.4281 H   0  0  0  0  0  0  0  0  0  0  0  0  # atno 8010 bound_to 7997
  139.5813  144.1418  152.1518 H   0  0  0  0  0  0  0  0  0  0  0  0  # atno 10167 bound_to 10162
  157.0331  130.6201  149.5738 H   0  0  0  0  0  0  0  0  0  0  0  0  # atno 10718 bound_to 10713
  152.9786  135.5841  154.4439 H   0  0  0  0  0  0  0  0  0  0  0  0  # atno 10763 bound_to 10752
  154.4036  135.2769  155.2083 H   0  0  0  0  0  0  0  0  0  0  0  0  # atno 10764 bound_to 10752
  154.3903  135.6127  153.5893 H   0  0  0  0  0  0  0  0  0  0  0  0  # atno 10765 bound_to 10752
  140.5584  134.0216  155.7962 H   0  0  0  0  0  0  0  0  0  0  0  0  # atno 11005 bound_to 11000
  144.7026  140.3717  143.7144 LP  0  0  0  0  0  0  0  0  0  0  0  0  # atno 17320 bound_to 7965
  145.7057  139.1672  143.2567 LP  0  0  0  0  0  0  0  0  0  0  0  0  # atno 17321 bound_to 7965
  140.0971  144.5571  150.7014 LP  0  0  0  0  0  0  0  0  0  0  0  0  # atno 17342 bound_to 10162
  140.7090  143.2490  151.4638 LP  0  0  0  0  0  0  0  0  0  0  0  0  # atno 17343 bound_to 10162
  156.0063  130.5150  150.7840 LP  0  0  0  0  0  0  0  0  0  0  0  0  # atno 17370 bound_to 10713
  157.5162  131.0928  151.0136 LP  0  0  0  0  0  0  0  0  0  0  0  0  # atno 17371 bound_to 10713
  141.1130  133.9586  157.2875 LP  0  0  0  0  0  0  0  0  0  0  0  0  # atno 17394 bound_to 11000
  139.9420  135.0189  156.8738 LP  0  0  0  0  0  0  0  0  0  0  0  0  # atno 17395 bound_to 11000

$$$$
