AV-unprocessed.smi:2454|AV-procd|sdf|9698|dock1
  -GOLD-   2272013333D 1   1.00000     0.00000
 Structure written by MMmdl.
 42 43  0  0  0  0  0  0  0  0  1 V2000
  152.4840  138.5882  157.2405 C   0  0  0  0  0  0  0  0  0  0  0  0
  153.1946  139.1493  156.1508 O   0  0  0  0  0  0  0  0  0  0  0  0
  152.7261  138.6815  154.8973 C   0  0  0  0  0  0  0  0  0  0  0  0
  151.2366  138.9105  154.7466 C   0  0  0  0  0  0  0  0  0  0  0  0
  150.3490  137.8369  154.5219 C   0  0  0  0  0  0  0  0  0  0  0  0
  148.9771  138.1463  154.3819 C   0  0  0  0  0  0  0  0  0  0  0  0
  148.1235  137.0279  154.1488 N   0  0  0  0  0  0  0  0  0  0  0  0
  146.8080  136.9570  153.8523 C   0  0  0  0  0  0  0  0  0  0  0  0
  146.1264  137.9745  153.7391 O   0  0  0  0  0  0  0  0  0  0  0  0
  146.3034  135.7229  153.6927 N   0  0  0  0  0  0  0  0  0  0  0  0
  144.9110  135.3914  153.4003 C   0  0  1  0  0  0  0  0  0  0  0  0
  144.3416  136.3747  152.3606 C   0  0  0  0  0  0  0  0  0  0  0  0
  144.9554  136.1613  150.9668 C   0  0  0  0  0  0  0  0  0  0  0  0
  144.7913  134.7061  150.5015 C   0  0  0  0  0  0  0  0  0  0  0  0
  145.3955  133.7104  151.5141 C   0  0  2  0  0  0  0  0  0  0  0  0
  145.2487  132.2486  151.0439 C   0  0  0  0  0  0  0  0  0  0  0  0
  145.7368  131.4053  151.9543 F   0  0  0  0  0  0  0  0  0  0  0  0
  143.9634  131.9621  150.8370 F   0  0  0  0  0  0  0  0  0  0  0  0
  145.9033  132.0704  149.8966 F   0  0  0  0  0  0  0  0  0  0  0  0
  144.7748  133.9326  152.9125 C   0  0  0  0  0  0  0  0  0  0  0  0
  148.5691  139.4390  154.4638 N   0  0  0  0  0  0  0  0  0  0  0  0
  149.4925  140.3791  154.6777 C   0  0  0  0  0  0  0  0  0  0  0  0
  150.8035  140.1867  154.8241 N   0  0  0  0  0  0  0  0  0  0  0  0
  152.8843  138.9754  158.1775 H   0  0  0  0  0  0  0  0  0  0  0  0
  152.5797  137.5018  157.2570 H   0  0  0  0  0  0  0  0  0  0  0  0
  151.4252  138.8460  157.1955 H   0  0  0  0  0  0  0  0  0  0  0  0
  153.2492  139.1957  154.0893 H   0  0  0  0  0  0  0  0  0  0  0  0
  152.9401  137.6164  154.7900 H   0  0  0  0  0  0  0  0  0  0  0  0
  150.7095  136.8203  154.4559 H   0  0  0  0  0  0  0  0  0  0  0  0
  148.5923  136.1343  154.1766 H   0  0  0  0  0  0  0  0  0  0  0  0
  146.9389  134.9446  153.8028 H   0  0  0  0  0  0  0  0  0  0  0  0
  144.3337  135.5071  154.3193 H   0  0  0  0  0  0  0  0  0  0  0  0
  143.2610  136.2414  152.2968 H   0  0  0  0  0  0  0  0  0  0  0  0
  144.5012  137.4037  152.6857 H   0  0  0  0  0  0  0  0  0  0  0  0
  144.4847  136.8345  150.2500 H   0  0  0  0  0  0  0  0  0  0  0  0
  146.0141  136.4234  150.9830 H   0  0  0  0  0  0  0  0  0  0  0  0
  143.7321  134.4895  150.3577 H   0  0  0  0  0  0  0  0  0  0  0  0
  145.2652  134.5842  149.5271 H   0  0  0  0  0  0  0  0  0  0  0  0
  146.4644  133.9187  151.5848 H   0  0  0  0  0  0  0  0  0  0  0  0
  145.2275  133.2556  153.6377 H   0  0  0  0  0  0  0  0  0  0  0  0
  143.7166  133.6706  152.8808 H   0  0  0  0  0  0  0  0  0  0  0  0
  149.1412  141.3984  154.7387 H   0  0  0  0  0  0  0  0  0  0  0  0
  1  2  1  0  0  0  0
  1 24  1  0  0  0  0
  1 25  1  0  0  0  0
  1 26  1  0  0  0  0
  2  3  1  0  0  0  0
  3  4  1  0  0  0  0
  3 27  1  0  0  0  0
  3 28  1  0  0  0  0
  4 23  1  0  0  0  0
  4  5  2  0  0  0  0
  5  6  1  0  0  0  0
  5 29  1  0  0  0  0
  6  7  1  0  0  0  0
  6 21  2  0  0  0  0
  7  8  1  0  0  0  0
  7 30  1  0  0  0  0
  8  9  2  0  0  0  0
  8 10  1  0  0  0  0
 10 11  1  0  0  0  0
 10 31  1  0  0  0  0
 11 20  1  0  0  0  0
 11 12  1  0  0  0  0
 11 32  1  0  0  0  0
 12 13  1  0  0  0  0
 12 33  1  0  0  0  0
 12 34  1  0  0  0  0
 13 14  1  0  0  0  0
 13 35  1  0  0  0  0
 13 36  1  0  0  0  0
 14 15  1  0  0  0  0
 14 37  1  0  0  0  0
 14 38  1  0  0  0  0
 15 16  1  0  0  0  0
 15 20  1  0  0  0  0
 15 39  1  0  0  0  0
 16 17  1  0  0  0  0
 16 18  1  0  0  0  0
 16 19  1  0  0  0  0
 20 40  1  0  0  0  0
 20 41  1  0  0  0  0
 21 22  1  0  0  0  0
 22 23  2  0  0  0  0
 22 42  1  0  0  0  0
M  END
> <s_m_source_file>
AV-unprocessed.smi

> <i_m_source_file_index>
2454

> <i_lp_mmshare_version>
43012

> <i_f3d_flags>
0

> <s_epik_input>
W0NIM11PW0NIMl1jMVtjSF1jKG5bY0hdbjEpW05IXUMoPU8pW05IXVtDQEBIXTJbQ0gyXVtDSDJdW0NIMl1bQ0BASF0oQyhGKShGKUYpW0NIMl0y

> <s_epik_cmdline>
J2VwaWtfcHl0aG9uJywgJy1waCcsICc3LjAnLCAnLXRuJywgJzgnLCAnLW1hJywgJzIwMCcsICctbWV0YWxfYmluZGluZycsICctaW1hZScsICc8aW5maWxlLm1hZT4nLCAnLW9tYWUnLCAnPG91dGZpbGUubWFlPic=

> <r_lp_tautomer_probability>
1

> <r_epik_Ionization_Penalty>
3.01554e-05

> <r_epik_Ionization_Penalty_Charging>
0

> <r_epik_Ionization_Penalty_Neutral>
3.01554e-05

> <r_epik_State_Penalty>
-0

> <r_epik_Charging_Adjusted_Penalty>
0

> <i_epik_Tot_Q>
0

> <i_epik_Tot_abs_Q>
0

> <r_epik_Metal_State_Penalty>
-0

> <b_epik_Metal_Only>
0

> <s_lp_Force_Field>
OPLS_2005

> <r_lp_Energy>
13.7545

> <b_lp_Chiralities_Consistent>
1

> <s_lp_Variant>
AV-unprocessed.smi:2454-4

> <Gold.Version>
5.8.1

> <Gold.Id.Protein>
6NUR|6NUR_protein|mol2

> <Gold.PLP.Fitness>
42.8609

> <Gold.PLP.PLP>
-37.3971

> <Gold.PLP.part.hbond>
-3.0993

> <Gold.PLP.part.metal>
0.0000

> <Gold.PLP.part.buried>
-1.9021

> <Gold.PLP.part.nonpolar>
-32.9665

> <Gold.PLP.part.repulsive>
0.3505

> <Gold.PLP.ligand.clash>
0.0000

> <Gold.PLP.ligand.torsion>
0.2783

> <Gold.PLP.Chemscore.Hbond>
1.9913

> <Gold.PLP.Chemscore.CHOScore>
0.0000

> <Gold.PLP.Chemscore.Metal>
0.0000

> <Gold.Chemscore.Hbonds>
donor molecule, donor type, donor heavy atom, donor atom, acceptor molecule, acceptor atom, score
      P1  H  7989  7998       L1    23  1.00
      P1  H  7997  8009       L1     2  1.00

> <Gold.PLP.Chemscore.Internal.Correction>
0.0467

> <Gold.Rescore>
     Score         DG    S(hbond)    S(metal)    S(lipo)     H(rot)  DE(clash)    DE(int)     intcor
      9.76     -12.59       1.21        0.00      61.21       1.60       0.24       2.58       ----

> <Gold.Chemscore.Fitness>
9.7633

> <Gold.Chemscore.DG>
-12.5900

> <Gold.Chemscore.ZeroCoef>
-5.4800

> <Gold.Chemscore.Hbond>
1.2136

> <Gold.Chemscore.Metal>
0.0000

> <Gold.Chemscore.Lipo>
61.2109

> <Gold.Chemscore.Internal_Hbond>
0.0000

> <Gold.Chemscore.DEClash>
0.2439

> <Gold.Chemscore.DEInternal>
2.5828

> <Gold.Chemscore.Rot>
1.6035

> <Gold.Chemscore.Internal.Correction>
   9.000000E+99

> <Gold.Chemscore.Hbonds>
donor molecule, donor type, donor heavy atom, donor atom, acceptor molecule, acceptor atom, score
      P1  H  7989  7998       L1    23  0.18
      P1  H  7997  8009       L1     2  0.85

> <Gold.Chemscore.Hbond.Weighted>
-4.0534

> <Gold.Chemscore.Metal.Weighted>
-0.0000

> <Gold.Chemscore.Lipo.Weighted>
-7.1617

> <Gold.Chemscore.Internal_Hbond.Weighted>
0.0000

> <Gold.Chemscore.DEClash.Weighted>
0.2439

> <Gold.Chemscore.DEInternal.Weighted>
2.5828

> <Gold.Chemscore.Rot.Weighted>
4.1050

> <Gold.Chemscore.Internal.Correction.Weighted>
   9.000000E+99

> <Gold.Protein.RotatedTorsions>
[ 6907 6896 6895 6894 ] final  -19.67 input  -60.11 | X-H torsion
[ 7974 7965 7964 7962 ] final  -43.26 input  175.53 | X-H torsion
[ 8008 7997 7996 7995 ] final -174.57 input   59.86 | X-H torsion
[ 10167 10162 10161 10158 ] final  167.02 input  -65.29 | X-H torsion
[ 10718 10713 10712 10709 ] final   40.63 input   66.30 | X-H torsion
[ 10763 10752 10751 10750 ] final  -74.53 input  -60.55 | X-H torsion
[ 11005 11000 10999 10996 ] final  -75.84 input  -57.11 | X-H torsion

> <Gold.Protein.ActiveResidues>
 VAL166  LYS551  ARG553  GLY616  TRP617  ASP618  TYR619  PRO620  LYS621  CYS622 
 ASP623  PHE694  ASN695  SER759  ASP760  ASP761  ALA762  ILE779  LEU786  VAL792 
 PHE793  MET794  SER795  GLU796  ALA797  LYS798  CYS799  TRP800  GLU811  SER814 

> <Gold.Protein.RotatedAtoms>
  151.2597  135.0650  159.9093 H   0  0  0  0  0  0  0  0  0  0  0  0  # atno 6907 bound_to 6896
  152.5368  134.0244  159.8006 H   0  0  0  0  0  0  0  0  0  0  0  0  # atno 6908 bound_to 6896
  151.0465  133.5611  159.2677 H   0  0  0  0  0  0  0  0  0  0  0  0  # atno 6909 bound_to 6896
  146.0036  140.7045  142.9258 H   0  0  0  0  0  0  0  0  0  0  0  0  # atno 7974 bound_to 7965
  155.9717  140.1164  157.0806 H   0  0  0  0  0  0  0  0  0  0  0  0  # atno 8008 bound_to 7997
  154.4158  140.1162  156.5383 H   0  0  0  0  0  0  0  0  0  0  0  0  # atno 8009 bound_to 7997
  155.6588  140.3473  155.4777 H   0  0  0  0  0  0  0  0  0  0  0  0  # atno 8010 bound_to 7997
  139.4936  144.3966  151.9457 H   0  0  0  0  0  0  0  0  0  0  0  0  # atno 10167 bound_to 10162
  157.3843  130.7771  149.7218 H   0  0  0  0  0  0  0  0  0  0  0  0  # atno 10718 bound_to 10713
  154.4744  135.5861  153.6344 H   0  0  0  0  0  0  0  0  0  0  0  0  # atno 10763 bound_to 10752
  152.9839  135.6074  154.3326 H   0  0  0  0  0  0  0  0  0  0  0  0  # atno 10764 bound_to 10752
  154.3211  135.2843  155.2498 H   0  0  0  0  0  0  0  0  0  0  0  0  # atno 10765 bound_to 10752
  141.1649  133.6961  156.7579 H   0  0  0  0  0  0  0  0  0  0  0  0  # atno 11005 bound_to 11000
  144.6928  140.3276  143.7221 LP  0  0  0  0  0  0  0  0  0  0  0  0  # atno 17320 bound_to 7965
  145.7449  139.1775  143.2354 LP  0  0  0  0  0  0  0  0  0  0  0  0  # atno 17321 bound_to 7965
  140.3404  144.3210  150.5968 LP  0  0  0  0  0  0  0  0  0  0  0  0  # atno 17342 bound_to 10162
  140.5570  143.2197  151.7830 LP  0  0  0  0  0  0  0  0  0  0  0  0  # atno 17343 bound_to 10162
  155.9783  130.4053  150.3657 LP  0  0  0  0  0  0  0  0  0  0  0  0  # atno 17370 bound_to 10713
  157.1765  131.0381  151.2770 LP  0  0  0  0  0  0  0  0  0  0  0  0  # atno 17371 bound_to 10713
  140.2556  134.8507  157.3709 LP  0  0  0  0  0  0  0  0  0  0  0  0  # atno 17394 bound_to 11000
  140.1660  134.4668  155.7862 LP  0  0  0  0  0  0  0  0  0  0  0  0  # atno 17395 bound_to 11000

$$$$
