AV-unprocessed.smi:202|AV-procd|sdf|1581|dock2
  -GOLD-   2262019473D 1   1.00000     0.00000
 Structure written by MMmdl.
 49 52  0  0  0  0  0  0  0  0  1 V2000
  146.0309  131.5673  152.6184 C   0  0  0  0  0  0  0  0  0  0  0  0
  146.6925  132.9478  152.4987 C   0  0  0  0  0  0  0  0  0  0  0  0
  146.2319  133.6015  151.1804 C   0  0  0  0  0  0  0  0  0  0  0  0
  144.7076  133.7018  150.9560 C   0  0  0  0  0  0  0  0  0  0  0  0
  144.4739  134.6904  150.0937 F   0  0  0  0  0  0  0  0  0  0  0  0
  144.2212  132.5746  150.4383 F   0  0  0  0  0  0  0  0  0  0  0  0
  144.0589  133.9820  152.0853 F   0  0  0  0  0  0  0  0  0  0  0  0
  146.5564  133.8373  153.7465 C   0  0  0  0  0  0  0  0  0  0  0  0
  147.8613  133.3515  154.1656 N   0  0  0  0  0  0  0  0  0  0  0  0
  148.6755  134.3409  154.7810 C   0  0  0  0  0  0  0  0  0  0  0  0
  149.9035  134.0392  155.2851 N   0  0  0  0  0  0  0  0  0  0  0  0
  150.6605  134.9810  155.8556 C   0  0  0  0  0  0  0  0  0  0  0  0
  150.3927  136.2765  156.0234 N   0  0  0  0  0  0  0  0  0  0  0  0
  149.1686  136.5937  155.5154 C   0  0  0  0  0  0  0  0  0  0  0  0
  148.2597  135.6957  154.8875 C   0  0  0  0  0  0  0  0  0  0  0  0
  147.1131  136.3763  154.4991 N   0  0  0  0  0  0  0  0  0  0  0  0
  147.3318  137.6071  154.8743 C   0  0  0  0  0  0  0  0  0  0  0  0
  148.5454  137.8293  155.4859 N   0  0  0  0  0  0  0  0  0  0  0  0
  149.0425  139.0972  155.9999 C   0  0  0  0  0  0  0  0  0  0  0  0
  150.0902  139.7874  155.0840 C   0  0  0  0  0  0  0  0  0  0  0  0
  149.3928  140.3565  153.9909 O   0  0  0  0  0  0  0  0  0  0  0  0
  150.8140  140.9375  155.8123 C   0  0  0  0  0  0  0  0  0  0  0  0
  151.8505  140.4078  156.8200 C   0  0  0  0  0  0  0  0  0  0  0  0
  152.7789  139.5543  156.1600 O   0  0  0  0  0  0  0  0  0  0  0  0
  152.1685  138.4032  155.5870 C   0  0  0  0  0  0  0  0  0  0  0  0
  151.1551  138.8282  154.5094 C   0  0  0  0  0  0  0  0  0  0  0  0
  148.2015  132.9906  152.7959 C   0  0  0  0  0  0  0  0  0  0  0  0
  144.9686  131.5997  152.3735 H   0  0  0  0  0  0  0  0  0  0  0  0
  146.1108  131.1735  153.6322 H   0  0  0  0  0  0  0  0  0  0  0  0
  146.5039  130.8339  151.9662 H   0  0  0  0  0  0  0  0  0  0  0  0
  146.6689  134.5965  151.0871 H   0  0  0  0  0  0  0  0  0  0  0  0
  146.6463  133.0357  150.3448 H   0  0  0  0  0  0  0  0  0  0  0  0
  146.5409  134.9055  153.5226 H   0  0  0  0  0  0  0  0  0  0  0  0
  145.7479  133.5520  154.4201 H   0  0  0  0  0  0  0  0  0  0  0  0
  151.6180  134.6495  156.2294 H   0  0  0  0  0  0  0  0  0  0  0  0
  146.6100  138.3942  154.7103 H   0  0  0  0  0  0  0  0  0  0  0  0
  148.1860  139.7558  156.1497 H   0  0  0  0  0  0  0  0  0  0  0  0
  149.4542  138.9179  156.9927 H   0  0  0  0  0  0  0  0  0  0  0  0
  149.7223  139.9734  153.1923 H   0  0  0  0  0  0  0  0  0  0  0  0
  151.3356  141.5621  155.0851 H   0  0  0  0  0  0  0  0  0  0  0  0
  150.0971  141.5881  156.3147 H   0  0  0  0  0  0  0  0  0  0  0  0
  152.3971  141.2405  157.2627 H   0  0  0  0  0  0  0  0  0  0  0  0
  151.3719  139.8765  157.6434 H   0  0  0  0  0  0  0  0  0  0  0  0
  152.9453  137.7812  155.1418 H   0  0  0  0  0  0  0  0  0  0  0  0
  151.6957  137.8050  156.3660 H   0  0  0  0  0  0  0  0  0  0  0  0
  150.6979  137.9519  154.0498 H   0  0  0  0  0  0  0  0  0  0  0  0
  151.7033  139.3300  153.7105 H   0  0  0  0  0  0  0  0  0  0  0  0
  148.7017  132.0254  152.7124 H   0  0  0  0  0  0  0  0  0  0  0  0
  148.7256  133.7669  152.2371 H   0  0  0  0  0  0  0  0  0  0  0  0
  1  2  1  0  0  0  0
  1 28  1  0  0  0  0
  1 29  1  0  0  0  0
  1 30  1  0  0  0  0
  2 27  1  0  0  0  0
  2  3  1  0  0  0  0
  2  8  1  0  0  0  0
  3  4  1  0  0  0  0
  3 31  1  0  0  0  0
  3 32  1  0  0  0  0
  4  5  1  0  0  0  0
  4  6  1  0  0  0  0
  4  7  1  0  0  0  0
  8  9  1  0  0  0  0
  8 33  1  0  0  0  0
  8 34  1  0  0  0  0
  9 10  1  0  0  0  0
  9 27  1  0  0  0  0
 10 15  1  0  0  0  0
 10 11  2  0  0  0  0
 11 12  1  0  0  0  0
 12 13  2  0  0  0  0
 12 35  1  0  0  0  0
 13 14  1  0  0  0  0
 14 18  1  0  0  0  0
 14 15  2  0  0  0  0
 15 16  1  0  0  0  0
 16 17  2  0  0  0  0
 17 18  1  0  0  0  0
 17 36  1  0  0  0  0
 18 19  1  0  0  0  0
 19 20  1  0  0  0  0
 19 37  1  0  0  0  0
 19 38  1  0  0  0  0
 20 26  1  0  0  0  0
 20 21  1  0  0  0  0
 20 22  1  0  0  0  0
 21 39  1  0  0  0  0
 22 23  1  0  0  0  0
 22 40  1  0  0  0  0
 22 41  1  0  0  0  0
 23 24  1  0  0  0  0
 23 42  1  0  0  0  0
 23 43  1  0  0  0  0
 24 25  1  0  0  0  0
 25 26  1  0  0  0  0
 25 44  1  0  0  0  0
 25 45  1  0  0  0  0
 26 46  1  0  0  0  0
 26 47  1  0  0  0  0
 27 48  1  0  0  0  0
 27 49  1  0  0  0  0
M  END
> <s_m_source_file>
AV-unprocessed.smi

> <i_m_source_file_index>
202

> <i_lp_mmshare_version>
43012

> <i_f3d_flags>
0

> <s_epik_input>
RkMoRikoRilbQ0gyXUMxKFtDSDNdKVtDSDJdTihbQ0gyXTEpYyhuW2NIXW4yKWMoYzIzKW5bY0hdbjNbQ0gyXUM0KFtPSF0pW0NIMl1bQ0gyXU9bQ0gyXVtDSDJdNA==

> <s_epik_cmdline>
J2VwaWtfcHl0aG9uJywgJy1waCcsICc3LjAnLCAnLXRuJywgJzgnLCAnLW1hJywgJzIwMCcsICctbWV0YWxfYmluZGluZycsICctaW1hZScsICc8aW5maWxlLm1hZT4nLCAnLW9tYWUnLCAnPG91dGZpbGUubWFlPic=

> <r_lp_tautomer_probability>
1

> <r_epik_Ionization_Penalty>
0.00132063

> <r_epik_Ionization_Penalty_Charging>
0

> <r_epik_Ionization_Penalty_Neutral>
0.00132063

> <r_epik_State_Penalty>
0.000845314

> <r_epik_Charging_Adjusted_Penalty>
0.000845314

> <i_epik_Tot_Q>
0

> <i_epik_Tot_abs_Q>
0

> <r_epik_Metal_State_Penalty>
-0

> <b_epik_Metal_Only>
0

> <s_lp_Force_Field>
OPLS_2005

> <r_lp_Energy>
42.0456

> <b_lp_Chiralities_Consistent>
1

> <s_lp_Variant>
AV-unprocessed.smi:202-1

> <Gold.Version>
5.8.1

> <Gold.Id.Protein>
6NUR|6NUR_protein|mol2

> <Gold.PLP.Fitness>
43.6797

> <Gold.PLP.PLP>
-40.1387

> <Gold.PLP.part.hbond>
-2.4890

> <Gold.PLP.part.metal>
0.0000

> <Gold.PLP.part.buried>
-3.4373

> <Gold.PLP.part.nonpolar>
-33.5141

> <Gold.PLP.part.repulsive>
0.3487

> <Gold.PLP.ligand.clash>
1.5832

> <Gold.PLP.ligand.torsion>
1.1384

> <Gold.PLP.Chemscore.Hbond>
1.9920

> <Gold.PLP.Chemscore.CHOScore>
0.0000

> <Gold.PLP.Chemscore.Metal>
0.0000

> <Gold.Chemscore.Hbonds>
donor molecule, donor type, donor heavy atom, donor atom, acceptor molecule, acceptor atom, score
      L1  H    21    39       P1  7957  0.89
      P1  H  7997  8008       L1    24  1.00

> <Gold.PLP.Chemscore.Internal.Correction>
1.4251

> <Gold.Rescore>
     Score         DG    S(hbond)    S(metal)    S(lipo)     H(rot)  DE(clash)    DE(int)     intcor
      8.40     -13.55       1.84        0.00      73.12       2.58       0.07       5.09       ----

> <Gold.Chemscore.Fitness>
8.3994

> <Gold.Chemscore.DG>
-13.5537

> <Gold.Chemscore.ZeroCoef>
-5.4800

> <Gold.Chemscore.Hbond>
1.8369

> <Gold.Chemscore.Metal>
0.0000

> <Gold.Chemscore.Lipo>
73.1188

> <Gold.Chemscore.Internal_Hbond>
0.0000

> <Gold.Chemscore.DEClash>
0.0673

> <Gold.Chemscore.DEInternal>
5.0870

> <Gold.Chemscore.Rot>
2.5845

> <Gold.Chemscore.Internal.Correction>
   9.000000E+99

> <Gold.Chemscore.Hbonds>
donor molecule, donor type, donor heavy atom, donor atom, acceptor molecule, acceptor atom, score
      L1  H    21    39       P1  7957  0.81
      P1  H  7997  8008       L1    24  0.70

> <Gold.Chemscore.Hbond.Weighted>
-6.1351

> <Gold.Chemscore.Metal.Weighted>
-0.0000

> <Gold.Chemscore.Lipo.Weighted>
-8.5549

> <Gold.Chemscore.Internal_Hbond.Weighted>
0.0000

> <Gold.Chemscore.DEClash.Weighted>
0.0673

> <Gold.Chemscore.DEInternal.Weighted>
5.0870

> <Gold.Chemscore.Rot.Weighted>
6.6163

> <Gold.Chemscore.Internal.Correction.Weighted>
   9.000000E+99

> <Gold.Protein.RotatedTorsions>
[ 6907 6896 6895 6894 ] final  122.00 input  -60.11 | X-H torsion
[ 7974 7965 7964 7962 ] final  -53.87 input  175.53 | X-H torsion
[ 8008 7997 7996 7995 ] final  -52.57 input   59.86 | X-H torsion
[ 10167 10162 10161 10158 ] final   81.67 input  -65.29 | X-H torsion
[ 10718 10713 10712 10709 ] final  132.70 input   66.30 | X-H torsion
[ 10763 10752 10751 10750 ] final    2.60 input  -60.55 | X-H torsion
[ 11005 11000 10999 10996 ] final  -85.50 input  -57.11 | X-H torsion

> <Gold.Protein.ActiveResidues>
 VAL166  LYS551  ARG553  GLY616  TRP617  ASP618  TYR619  PRO620  LYS621  CYS622 
 ASP623  PHE694  ASN695  SER759  ASP760  ASP761  ALA762  ILE779  LEU786  VAL792 
 PHE793  MET794  SER795  GLU796  ALA797  LYS798  CYS799  TRP800  GLU811  SER814 

> <Gold.Protein.RotatedAtoms>
  152.4277  133.7224  159.6540 H   0  0  0  0  0  0  0  0  0  0  0  0  # atno 6907 bound_to 6896
  150.8155  133.8335  159.3168 H   0  0  0  0  0  0  0  0  0  0  0  0  # atno 6908 bound_to 6896
  151.6032  135.1048  160.0116 H   0  0  0  0  0  0  0  0  0  0  0  0  # atno 6909 bound_to 6896
  145.8920  140.8063  142.9786 H   0  0  0  0  0  0  0  0  0  0  0  0  # atno 7974 bound_to 7965
  154.4110  140.1221  156.5012 H   0  0  0  0  0  0  0  0  0  0  0  0  # atno 8008 bound_to 7997
  155.6893  140.3495  155.4867 H   0  0  0  0  0  0  0  0  0  0  0  0  # atno 8009 bound_to 7997
  155.9483  140.1100  157.0988 H   0  0  0  0  0  0  0  0  0  0  0  0  # atno 8010 bound_to 7997
  139.9369  144.6115  150.8290 H   0  0  0  0  0  0  0  0  0  0  0  0  # atno 10167 bound_to 10162
  157.4846  131.1087  150.9637 H   0  0  0  0  0  0  0  0  0  0  0  0  # atno 10718 bound_to 10713
  153.2936  135.6950  153.7269 H   0  0  0  0  0  0  0  0  0  0  0  0  # atno 10763 bound_to 10752
  153.6210  135.3427  155.3012 H   0  0  0  0  0  0  0  0  0  0  0  0  # atno 10764 bound_to 10752
  154.8531  135.4386  154.2026 H   0  0  0  0  0  0  0  0  0  0  0  0  # atno 10765 bound_to 10752
  141.1640  133.7403  156.9024 H   0  0  0  0  0  0  0  0  0  0  0  0  # atno 11005 bound_to 11000
  144.6731  140.1544  143.7427 LP  0  0  0  0  0  0  0  0  0  0  0  0  # atno 17320 bound_to 7965
  145.8897  139.2368  143.1557 LP  0  0  0  0  0  0  0  0  0  0  0  0  # atno 17321 bound_to 7965
  140.7622  143.3192  151.2661 LP  0  0  0  0  0  0  0  0  0  0  0  0  # atno 17342 bound_to 10162
  139.6736  143.9976  152.2768 LP  0  0  0  0  0  0  0  0  0  0  0  0  # atno 17343 bound_to 10162
  157.0359  130.5730  149.5349 LP  0  0  0  0  0  0  0  0  0  0  0  0  # atno 17370 bound_to 10713
  156.0139  130.5233  150.8076 LP  0  0  0  0  0  0  0  0  0  0  0  0  # atno 17371 bound_to 10713
  140.1573  134.9189  157.2670 LP  0  0  0  0  0  0  0  0  0  0  0  0  # atno 17394 bound_to 11000
  140.2652  134.3524  155.7392 LP  0  0  0  0  0  0  0  0  0  0  0  0  # atno 17395 bound_to 11000

$$$$
