AV-unprocessed.smi:2648|AV-procd|sdf|10285|dock4
  -GOLD-   2272014293D 1   1.00000     0.00000
 Structure written by MMmdl.
 32 33  0  0  0  0  0  0  0  0  1 V2000
  144.5943  136.6594  152.1815 O   0  0  0  0  0  0  0  0  0  0  0  0
  145.7980  136.4732  152.0037 C   0  0  0  0  0  0  0  0  0  0  0  0
  146.7345  137.3898  152.2869 N   0  0  0  0  0  0  0  0  0  0  0  0
  146.4653  138.7134  152.8347 C   0  0  0  0  0  0  0  0  0  0  0  0
  147.4904  139.0923  153.9191 C   0  0  0  0  0  0  0  0  0  0  0  0
  147.2883  140.4666  154.3834 N   0  0  0  0  0  0  0  0  0  0  0  0
  146.1710  140.9041  154.9785 C   0  0  0  0  0  0  0  0  0  0  0  0
  145.1496  140.2621  155.2208 O   0  0  0  0  0  0  0  0  0  0  0  0
  146.3574  142.3630  155.3337 C   0  0  0  0  0  0  0  0  0  0  0  0
  147.7043  142.5544  154.8403 N   0  0  0  0  0  0  0  0  0  0  0  0
  148.2135  141.4397  154.2998 C   0  0  0  0  0  0  0  0  0  0  0  0
  149.3409  141.3372  153.8183 O   0  0  0  0  0  0  0  0  0  0  0  0
  146.3483  135.3586  151.4914 N   0  0  0  0  0  0  0  0  0  0  0  0
  145.7064  134.1659  151.0592 C   0  0  0  0  0  0  0  0  0  0  0  0
  146.5222  133.0563  150.7562 C   0  0  0  0  0  0  0  0  0  0  0  0
  145.9114  131.8573  150.3383 C   0  0  0  0  0  0  0  0  0  0  0  0
  144.5757  131.7078  150.2191 N   0  0  0  0  0  0  0  0  0  0  0  0
  143.7950  132.7661  150.5233 C   0  0  0  0  0  0  0  0  0  0  0  0
  144.3033  134.0093  150.9500 C   0  0  0  0  0  0  0  0  0  0  0  0
  147.7006  137.1597  152.1051 H   0  0  0  0  0  0  0  0  0  0  0  0
  146.4602  139.4542  152.0330 H   0  0  0  0  0  0  0  0  0  0  0  0
  145.4599  138.7065  153.2568 H   0  0  0  0  0  0  0  0  0  0  0  0
  147.4165  138.4006  154.7598 H   0  0  0  0  0  0  0  0  0  0  0  0
  148.5056  138.9800  153.5343 H   0  0  0  0  0  0  0  0  0  0  0  0
  145.6427  143.0003  154.8119 H   0  0  0  0  0  0  0  0  0  0  0  0
  146.2949  142.5266  156.4099 H   0  0  0  0  0  0  0  0  0  0  0  0
  148.1960  143.4333  154.9093 H   0  0  0  0  0  0  0  0  0  0  0  0
  147.3458  135.3890  151.3394 H   0  0  0  0  0  0  0  0  0  0  0  0
  147.5978  133.1188  150.8349 H   0  0  0  0  0  0  0  0  0  0  0  0
  146.5135  130.9948  150.0942 H   0  0  0  0  0  0  0  0  0  0  0  0
  142.7297  132.6162  150.4287 H   0  0  0  0  0  0  0  0  0  0  0  0
  143.6120  134.8015  151.1914 H   0  0  0  0  0  0  0  0  0  0  0  0
  1  2  2  0  0  0  0
  2  3  1  0  0  0  0
  2 13  1  0  0  0  0
  3  4  1  0  0  0  0
  3 20  1  0  0  0  0
  4  5  1  0  0  0  0
  4 21  1  0  0  0  0
  4 22  1  0  0  0  0
  5  6  1  0  0  0  0
  5 23  1  0  0  0  0
  5 24  1  0  0  0  0
  6 11  1  0  0  0  0
  6  7  1  0  0  0  0
  7  8  2  0  0  0  0
  7  9  1  0  0  0  0
  9 10  1  0  0  0  0
  9 25  1  0  0  0  0
  9 26  1  0  0  0  0
 10 11  1  0  0  0  0
 10 27  1  0  0  0  0
 11 12  2  0  0  0  0
 13 14  1  0  0  0  0
 13 28  1  0  0  0  0
 14 19  1  0  0  0  0
 14 15  2  0  0  0  0
 15 16  1  0  0  0  0
 15 29  1  0  0  0  0
 16 17  2  0  0  0  0
 16 30  1  0  0  0  0
 17 18  1  0  0  0  0
 18 19  2  0  0  0  0
 18 31  1  0  0  0  0
 19 32  1  0  0  0  0
M  END
> <s_m_source_file>
AV-unprocessed.smi

> <i_m_source_file_index>
2648

> <i_lp_mmshare_version>
43012

> <i_f3d_flags>
0

> <s_epik_input>
W2NIXTFbY0hdbltjSF1bY0hdYzFbTkhdQyg9TylbTkhdW0NIMl1bQ0gyXU4yQyg9TylbQ0gyXVtOSF1DMj1P

> <s_epik_cmdline>
J2VwaWtfcHl0aG9uJywgJy1waCcsICc3LjAnLCAnLXRuJywgJzgnLCAnLW1hJywgJzIwMCcsICctbWV0YWxfYmluZGluZycsICctaW1hZScsICc8aW5maWxlLm1hZT4nLCAnLW9tYWUnLCAnPG91dGZpbGUubWFlPic=

> <r_lp_tautomer_probability>
1

> <r_epik_Ionization_Penalty>
0.109042

> <r_epik_Ionization_Penalty_Charging>
0

> <r_epik_Ionization_Penalty_Neutral>
0.109042

> <r_epik_State_Penalty>
0.0987421

> <r_epik_Charging_Adjusted_Penalty>
0.0987421

> <i_epik_Tot_Q>
0

> <i_epik_Tot_abs_Q>
0

> <r_epik_Metal_State_Penalty>
0.108818

> <b_epik_Metal_Only>
0

> <s_lp_Force_Field>
OPLS_2005

> <r_lp_Energy>
20.6194

> <b_lp_Chiralities_Consistent>
1

> <s_lp_Variant>
AV-unprocessed.smi:2648-1

> <Gold.Version>
5.8.1

> <Gold.Id.Protein>
6NUR|6NUR_protein|mol2

> <Gold.PLP.Fitness>
48.1996

> <Gold.PLP.PLP>
-31.2395

> <Gold.PLP.part.hbond>
-5.1600

> <Gold.PLP.part.metal>
0.0000

> <Gold.PLP.part.buried>
-5.4290

> <Gold.PLP.part.nonpolar>
-24.5099

> <Gold.PLP.part.repulsive>
4.5997

> <Gold.PLP.ligand.clash>
0.0000

> <Gold.PLP.ligand.torsion>
0.1546

> <Gold.PLP.Chemscore.Hbond>
3.8481

> <Gold.PLP.Chemscore.CHOScore>
1.9071

> <Gold.PLP.Chemscore.Metal>
0.0000

> <Gold.Chemscore.Hbonds>
donor molecule, donor type, donor heavy atom, donor atom, acceptor molecule, acceptor atom, score
      L1  H     3    20       P1  7948  1.00
      L1  H    10    27       P1  8028  1.00
      L1  H    13    28       P1  7948  0.93
      P1  H  7989  7998       L1    12  0.07
      P1  H  8011  8017       L1    12  0.82
      L1  C    16    30       P1 10747  0.93
      L1  C    18    31       P1 10186  0.66

> <Gold.PLP.Chemscore.Internal.Correction>
0.0037

> <Gold.Rescore>
     Score         DG    S(hbond)    S(metal)    S(lipo)     H(rot)  DE(clash)    DE(int)     intcor
     17.05     -18.45       3.55        0.00      51.78       1.93       0.08       1.31       ----

> <Gold.Chemscore.Fitness>
17.0517

> <Gold.Chemscore.DG>
-18.4467

> <Gold.Chemscore.ZeroCoef>
-5.4800

> <Gold.Chemscore.Hbond>
3.5502

> <Gold.Chemscore.Metal>
0.0000

> <Gold.Chemscore.Lipo>
51.7823

> <Gold.Chemscore.Internal_Hbond>
0.0000

> <Gold.Chemscore.DEClash>
0.0837

> <Gold.Chemscore.DEInternal>
1.3113

> <Gold.Chemscore.Rot>
1.9334

> <Gold.Chemscore.Internal.Correction>
   9.000000E+99

> <Gold.Chemscore.Hbonds>
donor molecule, donor type, donor heavy atom, donor atom, acceptor molecule, acceptor atom, score
      L1  H     3    20       P1  7948  0.95
      L1  H    10    27       P1  8028  0.91
      L1  H    13    28       P1  7948  0.76
      P1  H  7989  7998       L1    12  0.07
      P1  H  8011  8017       L1    12  0.79

> <Gold.Chemscore.Hbond.Weighted>
-11.8575

> <Gold.Chemscore.Metal.Weighted>
-0.0000

> <Gold.Chemscore.Lipo.Weighted>
-6.0585

> <Gold.Chemscore.Internal_Hbond.Weighted>
0.0000

> <Gold.Chemscore.DEClash.Weighted>
0.0837

> <Gold.Chemscore.DEInternal.Weighted>
1.3113

> <Gold.Chemscore.Rot.Weighted>
4.9494

> <Gold.Chemscore.Internal.Correction.Weighted>
   9.000000E+99

> <Gold.Protein.RotatedTorsions>
[ 6907 6896 6895 6894 ] final -107.35 input  -60.11 | X-H torsion
[ 7974 7965 7964 7962 ] final -149.17 input  175.53 | X-H torsion
[ 8008 7997 7996 7995 ] final   20.40 input   59.86 | X-H torsion
[ 10167 10162 10161 10158 ] final    7.81 input  -65.29 | X-H torsion
[ 10718 10713 10712 10709 ] final  -98.69 input   66.30 | X-H torsion
[ 10763 10752 10751 10750 ] final  -49.02 input  -60.55 | X-H torsion
[ 11005 11000 10999 10996 ] final  -65.93 input  -57.11 | X-H torsion

> <Gold.Protein.ActiveResidues>
 VAL166  LYS551  ARG553  GLY616  TRP617  ASP618  TYR619  PRO620  LYS621  CYS622 
 ASP623  PHE694  ASN695  SER759  ASP760  ASP761  ALA762  ILE779  LEU786  VAL792 
 PHE793  MET794  SER795  GLU796  ALA797  LYS798  CYS799  TRP800  GLU811  SER814 

> <Gold.Protein.RotatedAtoms>
  150.7439  133.9840  159.3585 H   0  0  0  0  0  0  0  0  0  0  0  0  # atno 6907 bound_to 6896
  151.7783  135.0766  160.0379 H   0  0  0  0  0  0  0  0  0  0  0  0  # atno 6908 bound_to 6896
  152.3291  133.5902  159.5833 H   0  0  0  0  0  0  0  0  0  0  0  0  # atno 6909 bound_to 6896
  144.7984  140.5100  143.5724 H   0  0  0  0  0  0  0  0  0  0  0  0  # atno 7974 bound_to 7965
  154.9351  140.3045  155.5148 H   0  0  0  0  0  0  0  0  0  0  0  0  # atno 8008 bound_to 7997
  156.3000  140.2347  156.4351 H   0  0  0  0  0  0  0  0  0  0  0  0  # atno 8009 bound_to 7997
  154.8200  140.0424  157.1392 H   0  0  0  0  0  0  0  0  0  0  0  0  # atno 8010 bound_to 7997
  140.6350  143.7907  150.7347 H   0  0  0  0  0  0  0  0  0  0  0  0  # atno 10167 bound_to 10162
  156.0114  130.5249  150.6561 H   0  0  0  0  0  0  0  0  0  0  0  0  # atno 10718 bound_to 10713
  154.0873  135.6582  153.4847 H   0  0  0  0  0  0  0  0  0  0  0  0  # atno 10763 bound_to 10752
  153.0334  135.5194  154.7415 H   0  0  0  0  0  0  0  0  0  0  0  0  # atno 10764 bound_to 10752
  154.6528  135.3003  154.9934 H   0  0  0  0  0  0  0  0  0  0  0  0  # atno 10765 bound_to 10752
  141.1468  133.6690  156.6062 H   0  0  0  0  0  0  0  0  0  0  0  0  # atno 11005 bound_to 11000
  145.5615  139.1479  143.3339 LP  0  0  0  0  0  0  0  0  0  0  0  0  # atno 17320 bound_to 7965
  146.2259  140.5751  142.8997 LP  0  0  0  0  0  0  0  0  0  0  0  0  # atno 17321 bound_to 7965
  140.1526  143.4344  152.2121 LP  0  0  0  0  0  0  0  0  0  0  0  0  # atno 17342 bound_to 10162
  139.5561  144.7374  151.4290 LP  0  0  0  0  0  0  0  0  0  0  0  0  # atno 17343 bound_to 10162
  157.4312  131.0849  151.1036 LP  0  0  0  0  0  0  0  0  0  0  0  0  # atno 17370 bound_to 10713
  157.1608  130.6225  149.5610 LP  0  0  0  0  0  0  0  0  0  0  0  0  # atno 17371 bound_to 10713
  140.3650  134.7655  157.4560 LP  0  0  0  0  0  0  0  0  0  0  0  0  # atno 17394 bound_to 11000
  140.0755  134.5803  155.8596 LP  0  0  0  0  0  0  0  0  0  0  0  0  # atno 17395 bound_to 11000

$$$$
