AV-unprocessed.smi:546|AV-procd|sdf|2886|dock1
  -GOLD-   2262023383D 1   1.00000     0.00000
 Structure written by MMmdl.
 51 53  0  0  0  0  0  0  0  0  2 V2000
  154.2801  137.7915  165.2106 C   0  0  0  0  0  0  0  0  0  0  0  0
  153.8608  137.3946  163.7932 C   0  0  0  0  0  0  0  0  0  0  0  0
  154.3779  138.3406  162.8727 O   0  0  0  0  0  0  0  0  0  0  0  0
  153.8366  138.1851  161.5699 C   0  0  0  0  0  0  0  0  0  0  0  0
  154.4575  139.2210  160.6226 C   0  0  0  0  0  0  0  0  0  0  0  0
  153.6152  139.4630  159.4519 N   0  0  0  0  0  0  0  0  0  0  0  0
  152.9808  140.6083  159.0740 C   0  0  0  0  0  0  0  0  0  0  0  0
  153.0984  141.8086  159.7789 N   0  0  0  0  0  0  0  0  0  0  0  0
  153.1382  143.1176  159.1291 C   0  0  0  0  0  0  0  0  0  0  0  0
  152.1738  144.1149  159.7989 C   0  0  2  0  0  0  0  0  0  0  0  0
  152.1754  145.4701  159.0800 C   0  0  0  0  0  0  0  0  0  0  0  0
  152.5189  144.2611  161.2902 C   0  0  0  0  0  0  0  0  0  0  0  0
  152.5716  142.8800  161.9646 C   0  0  2  0  0  0  0  0  0  0  0  0
  152.9914  142.9858  163.4364 C   0  0  0  0  0  0  0  0  0  0  0  0
  153.5158  141.9517  161.1740 C   0  0  0  0  0  0  0  0  0  0  0  0
  152.2076  140.4822  157.9933 N   0  0  0  0  0  0  0  0  0  0  0  0
  152.3863  139.1570  157.6313 C   0  0  0  0  0  0  0  0  0  0  0  0
  153.2252  138.5218  158.4921 C   0  0  0  0  0  0  0  0  0  0  0  0
  153.5858  137.0902  158.3806 C   0  0  0  0  0  0  0  0  0  0  0  0
  154.3445  136.5603  159.1901 O   0  0  0  0  0  0  0  0  0  0  0  0
  152.9809  136.4860  157.3093 N   0  5  0  0  0  0  0  0  0  0  0  0
  152.1264  137.0916  156.4135 C   0  0  0  0  0  0  0  0  0  0  0  0
  151.6182  136.4710  155.4786 O   0  0  0  0  0  0  0  0  0  0  0  0
  151.8224  138.4201  156.5544 N   0  0  0  0  0  0  0  0  0  0  0  0
  150.9164  139.0917  155.6182 C   0  0  0  0  0  0  0  0  0  0  0  0
  153.8702  137.0993  165.9462 H   0  0  0  0  0  0  0  0  0  0  0  0
  153.9256  138.7925  165.4579 H   0  0  0  0  0  0  0  0  0  0  0  0
  155.3652  137.7825  165.3143 H   0  0  0  0  0  0  0  0  0  0  0  0
  154.2363  136.3969  163.5612 H   0  0  0  0  0  0  0  0  0  0  0  0
  152.7724  137.3628  163.7237 H   0  0  0  0  0  0  0  0  0  0  0  0
  154.0417  137.1788  161.2026 H   0  0  0  0  0  0  0  0  0  0  0  0
  152.7526  138.3058  161.5973 H   0  0  0  0  0  0  0  0  0  0  0  0
  154.6344  140.1414  161.1671 H   0  0  0  0  0  0  0  0  0  0  0  0
  155.4435  138.8980  160.2921 H   0  0  0  0  0  0  0  0  0  0  0  0
  154.1597  143.4998  159.1488 H   0  0  0  0  0  0  0  0  0  0  0  0
  152.8696  143.0050  158.0778 H   0  0  0  0  0  0  0  0  0  0  0  0
  151.1668  143.7049  159.7264 H   0  0  0  0  0  0  0  0  0  0  0  0
  153.1642  145.9296  159.1014 H   0  0  0  0  0  0  0  0  0  0  0  0
  151.4744  146.1626  159.5467 H   0  0  0  0  0  0  0  0  0  0  0  0
  151.8818  145.3587  158.0358 H   0  0  0  0  0  0  0  0  0  0  0  0
  153.4830  144.7606  161.3972 H   0  0  0  0  0  0  0  0  0  0  0  0
  151.7816  144.8932  161.7863 H   0  0  0  0  0  0  0  0  0  0  0  0
  151.5669  142.4557  161.9381 H   0  0  0  0  0  0  0  0  0  0  0  0
  153.9919  143.4084  163.5342 H   0  0  0  0  0  0  0  0  0  0  0  0
  152.9955  142.0052  163.9132 H   0  0  0  0  0  0  0  0  0  0  0  0
  152.3044  143.6216  163.9955 H   0  0  0  0  0  0  0  0  0  0  0  0
  153.5845  140.9726  161.6473 H   0  0  0  0  0  0  0  0  0  0  0  0
  154.5296  142.3540  161.1931 H   0  0  0  0  0  0  0  0  0  0  0  0
  149.9120  138.6744  155.6984 H   0  0  0  0  0  0  0  0  0  0  0  0
  151.2584  138.9637  154.5904 H   0  0  0  0  0  0  0  0  0  0  0  0
  150.8424  140.1634  155.8004 H   0  0  0  0  0  0  0  0  0  0  0  0
  1  2  1  0  0  0  0
  1 26  1  0  0  0  0
  1 27  1  0  0  0  0
  1 28  1  0  0  0  0
  2  3  1  0  0  0  0
  2 29  1  0  0  0  0
  2 30  1  0  0  0  0
  3  4  1  0  0  0  0
  4  5  1  0  0  0  0
  4 31  1  0  0  0  0
  4 32  1  0  0  0  0
  5  6  1  0  0  0  0
  5 33  1  0  0  0  0
  5 34  1  0  0  0  0
  6 18  1  0  0  0  0
  6  7  1  0  0  0  0
  7  8  1  0  0  0  0
  7 16  2  0  0  0  0
  8 15  1  0  0  0  0
  8  9  1  0  0  0  0
  9 10  1  0  0  0  0
  9 35  1  0  0  0  0
  9 36  1  0  0  0  0
 10 11  1  0  0  0  0
 10 12  1  0  0  0  0
 10 37  1  0  0  0  0
 11 38  1  0  0  0  0
 11 39  1  0  0  0  0
 11 40  1  0  0  0  0
 12 13  1  0  0  0  0
 12 41  1  0  0  0  0
 12 42  1  0  0  0  0
 13 14  1  0  0  0  0
 13 15  1  0  0  0  0
 13 43  1  0  0  0  0
 14 44  1  0  0  0  0
 14 45  1  0  0  0  0
 14 46  1  0  0  0  0
 15 47  1  0  0  0  0
 15 48  1  0  0  0  0
 16 17  1  0  0  0  0
 17 24  1  0  0  0  0
 17 18  2  0  0  0  0
 18 19  1  0  0  0  0
 19 20  2  0  0  0  0
 19 21  1  0  0  0  0
 21 22  1  0  0  0  0
 22 23  2  0  0  0  0
 22 24  1  0  0  0  0
 24 25  1  0  0  0  0
 25 49  1  0  0  0  0
 25 50  1  0  0  0  0
 25 51  1  0  0  0  0
M  CHG  1  21  -1
M  END
> <s_m_source_file>
AV-unprocessed.smi

> <i_m_source_file_index>
546

> <i_lp_mmshare_version>
43012

> <i_f3d_flags>
0

> <s_epik_input>
W0NIM11uMWMoPU8pW25IXWMoPU8pYyhjMTIpbihbQ0gyXVtDSDJdT1tDSDJdW0NIM10pYyhuMilOM1tDSDJdW0NAQEhdKFtDSDNdKVtDSDJdW0NAQEhdKFtDSDNdKVtDSDJdMw==

> <s_epik_cmdline>
J2VwaWtfcHl0aG9uJywgJy1waCcsICc3LjAnLCAnLXRuJywgJzgnLCAnLW1hJywgJzIwMCcsICctbWV0YWxfYmluZGluZycsICctaW1hZScsICc8aW5maWxlLm1hZT4nLCAnLW9tYWUnLCAnPG91dGZpbGUubWFlPic=

> <r_lp_tautomer_probability>
1

> <r_epik_Ionization_Penalty>
5.12825

> <r_epik_Ionization_Penalty_Charging>
0.0743105

> <r_epik_Ionization_Penalty_Neutral>
5.05394

> <r_epik_State_Penalty>
5.04406

> <r_epik_Charging_Adjusted_Penalty>
5.11837

> <i_epik_Tot_Q>
-1

> <i_epik_Tot_abs_Q>
1

> <r_epik_Metal_State_Penalty>
1.15122

> <b_epik_Metal_Only>
1

> <s_lp_Force_Field>
OPLS_2005

> <r_lp_Energy>
39.602

> <b_lp_Chiralities_Consistent>
1

> <s_lp_Variant>
AV-unprocessed.smi:546-4

> <Gold.Version>
5.8.1

> <Gold.Id.Protein>
6NUR|6NUR_protein|mol2

> <Gold.PLP.Fitness>
49.8967

> <Gold.PLP.PLP>
-49.2341

> <Gold.PLP.part.hbond>
-1.6366

> <Gold.PLP.part.metal>
0.0000

> <Gold.PLP.part.buried>
-5.6187

> <Gold.PLP.part.nonpolar>
-41.5287

> <Gold.PLP.part.repulsive>
0.0806

> <Gold.PLP.ligand.clash>
1.9576

> <Gold.PLP.ligand.torsion>
0.5266

> <Gold.PLP.Chemscore.Hbond>
1.0000

> <Gold.PLP.Chemscore.CHOScore>
0.0000

> <Gold.PLP.Chemscore.Metal>
0.0000

> <Gold.Chemscore.Hbonds>
donor molecule, donor type, donor heavy atom, donor atom, acceptor molecule, acceptor atom, score
      P1  H 10752 10763       L1    23  1.00

> <Gold.PLP.Chemscore.Internal.Correction>
0.6732

> <Gold.Rescore>
     Score         DG    S(hbond)    S(metal)    S(lipo)     H(rot)  DE(clash)    DE(int)     intcor
     16.82     -18.83       0.96        0.00     119.94       1.52       0.05       1.97       ----

> <Gold.Chemscore.Fitness>
16.8154

> <Gold.Chemscore.DG>
-18.8340

> <Gold.Chemscore.ZeroCoef>
-5.4800

> <Gold.Chemscore.Hbond>
0.9623

> <Gold.Chemscore.Metal>
0.0000

> <Gold.Chemscore.Lipo>
119.9358

> <Gold.Chemscore.Internal_Hbond>
0.0000

> <Gold.Chemscore.DEClash>
0.0516

> <Gold.Chemscore.DEInternal>
1.9670

> <Gold.Chemscore.Rot>
1.5206

> <Gold.Chemscore.Internal.Correction>
   9.000000E+99

> <Gold.Chemscore.Hbonds>
donor molecule, donor type, donor heavy atom, donor atom, acceptor molecule, acceptor atom, score
      P1  H 10752 10763       L1    23  0.35

> <Gold.Chemscore.Hbond.Weighted>
-3.2141

> <Gold.Chemscore.Metal.Weighted>
-0.0000

> <Gold.Chemscore.Lipo.Weighted>
-14.0325

> <Gold.Chemscore.Internal_Hbond.Weighted>
0.0000

> <Gold.Chemscore.DEClash.Weighted>
0.0516

> <Gold.Chemscore.DEInternal.Weighted>
1.9670

> <Gold.Chemscore.Rot.Weighted>
3.8926

> <Gold.Chemscore.Internal.Correction.Weighted>
   9.000000E+99

> <Gold.Protein.RotatedTorsions>
[ 6907 6896 6895 6894 ] final -118.53 input  -60.11 | X-H torsion
[ 7974 7965 7964 7962 ] final -176.79 input  175.53 | X-H torsion
[ 8008 7997 7996 7995 ] final  -86.71 input   59.86 | X-H torsion
[ 10167 10162 10161 10158 ] final -155.33 input  -65.29 | X-H torsion
[ 10718 10713 10712 10709 ] final -152.02 input   66.30 | X-H torsion
[ 10763 10752 10751 10750 ] final   75.24 input  -60.55 | X-H torsion
[ 11005 11000 10999 10996 ] final  105.22 input  -57.11 | X-H torsion

> <Gold.Protein.ActiveResidues>
 VAL166  LYS551  ARG553  GLY616  TRP617  ASP618  TYR619  PRO620  LYS621  CYS622 
 ASP623  PHE694  ASN695  SER759  ASP760  ASP761  ALA762  ILE779  LEU786  VAL792 
 PHE793  MET794  SER795  GLU796  ALA797  LYS798  CYS799  TRP800  GLU811  SER814 

> <Gold.Protein.RotatedAtoms>
  150.8227  133.8224  159.3131 H   0  0  0  0  0  0  0  0  0  0  0  0  # atno 6907 bound_to 6896
  151.5977  135.1047  160.0063 H   0  0  0  0  0  0  0  0  0  0  0  0  # atno 6908 bound_to 6896
  152.4315  133.7245  159.6609 H   0  0  0  0  0  0  0  0  0  0  0  0  # atno 6909 bound_to 6896
  144.7127  140.1117  143.6410 H   0  0  0  0  0  0  0  0  0  0  0  0  # atno 7974 bound_to 7965
  154.6549  140.0575  156.9998 H   0  0  0  0  0  0  0  0  0  0  0  0  # atno 8008 bound_to 7997
  155.1315  140.3257  155.4454 H   0  0  0  0  0  0  0  0  0  0  0  0  # atno 8009 bound_to 7997
  156.2593  140.1980  156.6434 H   0  0  0  0  0  0  0  0  0  0  0  0  # atno 8010 bound_to 7997
  139.6940  143.9373  152.2398 H   0  0  0  0  0  0  0  0  0  0  0  0  # atno 10167 bound_to 10162
  156.4670  130.8240  151.2470 H   0  0  0  0  0  0  0  0  0  0  0  0  # atno 10718 bound_to 10713
  153.0641  135.4996  154.8160 H   0  0  0  0  0  0  0  0  0  0  0  0  # atno 10763 bound_to 10752
  154.6927  135.2987  154.9459 H   0  0  0  0  0  0  0  0  0  0  0  0  # atno 10764 bound_to 10752
  154.0208  135.6742  153.4825 H   0  0  0  0  0  0  0  0  0  0  0  0  # atno 10765 bound_to 10752
  139.8800  134.9328  156.5481 H   0  0  0  0  0  0  0  0  0  0  0  0  # atno 11005 bound_to 11000
  145.9448  139.2693  143.1247 LP  0  0  0  0  0  0  0  0  0  0  0  0  # atno 17320 bound_to 7965
  145.9385  140.8997  143.0320 LP  0  0  0  0  0  0  0  0  0  0  0  0  # atno 17321 bound_to 7965
  139.9197  144.6807  150.8475 LP  0  0  0  0  0  0  0  0  0  0  0  0  # atno 17342 bound_to 10162
  140.7691  143.3384  151.2260 LP  0  0  0  0  0  0  0  0  0  0  0  0  # atno 17343 bound_to 10162
  157.7494  131.0089  150.3245 LP  0  0  0  0  0  0  0  0  0  0  0  0  # atno 17370 bound_to 10713
  156.3658  130.3855  149.7215 LP  0  0  0  0  0  0  0  0  0  0  0  0  # atno 17371 bound_to 10713
  140.8261  133.8316  155.8940 LP  0  0  0  0  0  0  0  0  0  0  0  0  # atno 17394 bound_to 11000
  140.9373  134.1946  157.4822 LP  0  0  0  0  0  0  0  0  0  0  0  0  # atno 17395 bound_to 11000

$$$$
