AV-unprocessed.smi:613|AV-procd|sdf|3064|dock4
  -GOLD-   2262023583D 1   1.00000     0.00000
 Structure written by MMmdl.
 38 39  0  0  0  0  0  0  0  0  1 V2000
  152.0488  140.7063  158.6307 C   0  0  0  0  0  0  0  0  0  0  0  0
  151.4767  141.9142  158.0467 N   0  0  0  0  0  0  0  0  0  0  0  0
  151.2569  141.9531  156.5998 C   0  0  0  0  0  0  0  0  0  0  0  0
  150.4043  140.7748  156.0925 C   0  0  2  0  0  0  0  0  0  0  0  0
  151.2596  139.5145  155.8539 C   0  0  0  0  0  0  0  0  0  0  0  0
  150.4756  138.4111  155.3042 N   0  0  0  0  0  0  0  0  0  0  0  0
  151.2930  137.2029  155.1324 C   0  0  0  0  0  0  0  0  0  0  0  0
  151.7801  136.5729  156.4434 C   0  0  0  0  0  0  0  0  0  0  0  0
  150.8482  136.1567  157.3044 N   0  0  0  0  0  0  0  0  0  0  0  0
  152.9824  136.4681  156.6767 O   0  0  0  0  0  0  0  0  0  0  0  0
  149.7942  138.8505  154.0837 C   0  0  0  0  0  0  0  0  0  0  0  0
  148.9643  140.1236  154.3197 C   0  0  0  0  0  0  0  0  0  0  0  0
  149.7981  141.1445  154.8561 O   0  0  0  0  0  0  0  0  0  0  0  0
  151.4986  143.1150  158.7966 C   0  0  0  0  0  0  0  0  0  0  0  0
  151.9466  143.1429  160.1403 C   0  0  0  0  0  0  0  0  0  0  0  0
  151.9372  144.3744  160.8174 C   0  0  0  0  0  0  0  0  0  0  0  0
  151.4799  145.4983  160.1091 C   0  0  0  0  0  0  0  0  0  0  0  0
  151.0585  145.4257  158.8285 N   0  0  0  0  0  0  0  0  0  0  0  0
  151.0681  144.2518  158.1884 N   0  0  0  0  0  0  0  0  0  0  0  0
  151.4684  140.3841  159.4955 H   0  0  0  0  0  0  0  0  0  0  0  0
  153.0801  140.8775  158.9415 H   0  0  0  0  0  0  0  0  0  0  0  0
  152.0499  139.8869  157.9114 H   0  0  0  0  0  0  0  0  0  0  0  0
  150.7726  142.8944  156.3377 H   0  0  0  0  0  0  0  0  0  0  0  0
  152.2170  141.9733  156.0832 H   0  0  0  0  0  0  0  0  0  0  0  0
  149.6263  140.5435  156.8225 H   0  0  0  0  0  0  0  0  0  0  0  0
  152.0835  139.7566  155.1799 H   0  0  0  0  0  0  0  0  0  0  0  0
  151.7123  139.2091  156.7984 H   0  0  0  0  0  0  0  0  0  0  0  0
  150.7401  136.4601  154.5539 H   0  0  0  0  0  0  0  0  0  0  0  0
  152.1811  137.4434  154.5463 H   0  0  0  0  0  0  0  0  0  0  0  0
  151.1224  135.7347  158.1796 H   0  0  0  0  0  0  0  0  0  0  0  0
  149.8708  136.2652  157.0749 H   0  0  0  0  0  0  0  0  0  0  0  0
  150.5267  139.0387  153.2971 H   0  0  0  0  0  0  0  0  0  0  0  0
  149.1271  138.0741  153.7088 H   0  0  0  0  0  0  0  0  0  0  0  0
  148.5305  140.4728  153.3826 H   0  0  0  0  0  0  0  0  0  0  0  0
  148.1359  139.9248  155.0015 H   0  0  0  0  0  0  0  0  0  0  0  0
  152.2891  142.2592  160.6566 H   0  0  0  0  0  0  0  0  0  0  0  0
  152.2680  144.4539  161.8422 H   0  0  0  0  0  0  0  0  0  0  0  0
  151.4493  146.4715  160.5762 H   0  0  0  0  0  0  0  0  0  0  0  0
  1  2  1  0  0  0  0
  1 20  1  0  0  0  0
  1 21  1  0  0  0  0
  1 22  1  0  0  0  0
  2  3  1  0  0  0  0
  2 14  1  0  0  0  0
  3  4  1  0  0  0  0
  3 23  1  0  0  0  0
  3 24  1  0  0  0  0
  4 13  1  0  0  0  0
  4  5  1  0  0  0  0
  4 25  1  0  0  0  0
  5  6  1  0  0  0  0
  5 26  1  0  0  0  0
  5 27  1  0  0  0  0
  6  7  1  0  0  0  0
  6 11  1  0  0  0  0
  7  8  1  0  0  0  0
  7 28  1  0  0  0  0
  7 29  1  0  0  0  0
  8  9  1  0  0  0  0
  8 10  2  0  0  0  0
  9 30  1  0  0  0  0
  9 31  1  0  0  0  0
 11 12  1  0  0  0  0
 11 32  1  0  0  0  0
 11 33  1  0  0  0  0
 12 13  1  0  0  0  0
 12 34  1  0  0  0  0
 12 35  1  0  0  0  0
 14 19  1  0  0  0  0
 14 15  2  0  0  0  0
 15 16  1  0  0  0  0
 15 36  1  0  0  0  0
 16 17  2  0  0  0  0
 16 37  1  0  0  0  0
 17 18  1  0  0  0  0
 17 38  1  0  0  0  0
 18 19  2  0  0  0  0
M  END
> <s_m_source_file>
AV-unprocessed.smi

> <i_m_source_file_index>
613

> <i_lp_mmshare_version>
43012

> <i_f3d_flags>
0

> <s_epik_input>
bjFuW2NIXVtjSF1bY0hdYzFOKFtDSDNdKVtDSDJdW0NAQEhdMltDSDJdTihbQ0gyXVtDSDJdTzIpW0NIMl1DKD1PKVtOSDJd

> <s_epik_cmdline>
J2VwaWtfcHl0aG9uJywgJy1waCcsICc3LjAnLCAnLXRuJywgJzgnLCAnLW1hJywgJzIwMCcsICctbWV0YWxfYmluZGluZycsICctaW1hZScsICc8aW5maWxlLm1hZT4nLCAnLW9tYWUnLCAnPG91dGZpbGUubWFlPic=

> <r_lp_tautomer_probability>
1

> <r_epik_Ionization_Penalty>
0.0398875

> <r_epik_Ionization_Penalty_Charging>
0

> <r_epik_Ionization_Penalty_Neutral>
0.0398875

> <r_epik_State_Penalty>
0.0543012

> <r_epik_Charging_Adjusted_Penalty>
0.0543012

> <i_epik_Tot_Q>
0

> <i_epik_Tot_abs_Q>
0

> <r_epik_Metal_State_Penalty>
0.0489294

> <b_epik_Metal_Only>
0

> <s_lp_Force_Field>
OPLS_2005

> <r_lp_Energy>
27.5025

> <b_lp_Chiralities_Consistent>
1

> <s_lp_Variant>
AV-unprocessed.smi:613-1

> <Gold.Version>
5.8.1

> <Gold.Id.Protein>
6NUR|6NUR_protein|mol2

> <Gold.PLP.Fitness>
37.9309

> <Gold.PLP.PLP>
-34.8377

> <Gold.PLP.part.hbond>
-2.6086

> <Gold.PLP.part.metal>
0.0000

> <Gold.PLP.part.buried>
-5.0515

> <Gold.PLP.part.nonpolar>
-27.8320

> <Gold.PLP.part.repulsive>
0.5831

> <Gold.PLP.ligand.clash>
0.0000

> <Gold.PLP.ligand.torsion>
0.5093

> <Gold.PLP.Chemscore.Hbond>
1.2808

> <Gold.PLP.Chemscore.CHOScore>
0.0000

> <Gold.PLP.Chemscore.Metal>
0.0000

> <Gold.Chemscore.Hbonds>
donor molecule, donor type, donor heavy atom, donor atom, acceptor molecule, acceptor atom, score
      P1  H  7989  7998       L1    13  0.21
      P1  H 10752 10763       L1    10  0.75

> <Gold.PLP.Chemscore.Internal.Correction>
0.2694

> <Gold.Rescore>
     Score         DG    S(hbond)    S(metal)    S(lipo)     H(rot)  DE(clash)    DE(int)     intcor
     12.11     -12.62       0.99        0.00      80.58       2.18       0.05       0.47       ----

> <Gold.Chemscore.Fitness>
12.1083

> <Gold.Chemscore.DG>
-12.6222

> <Gold.Chemscore.ZeroCoef>
-5.4800

> <Gold.Chemscore.Hbond>
0.9885

> <Gold.Chemscore.Metal>
0.0000

> <Gold.Chemscore.Lipo>
80.5759

> <Gold.Chemscore.Internal_Hbond>
0.0000

> <Gold.Chemscore.DEClash>
0.0451

> <Gold.Chemscore.DEInternal>
0.4687

> <Gold.Chemscore.Rot>
2.1823

> <Gold.Chemscore.Internal.Correction>
   9.000000E+99

> <Gold.Chemscore.Hbonds>
donor molecule, donor type, donor heavy atom, donor atom, acceptor molecule, acceptor atom, score
      P1  H  7989  7998       L1    13  0.01
      P1  H 10752 10763       L1    10  0.09

> <Gold.Chemscore.Hbond.Weighted>
-3.3015

> <Gold.Chemscore.Metal.Weighted>
-0.0000

> <Gold.Chemscore.Lipo.Weighted>
-9.4274

> <Gold.Chemscore.Internal_Hbond.Weighted>
0.0000

> <Gold.Chemscore.DEClash.Weighted>
0.0451

> <Gold.Chemscore.DEInternal.Weighted>
0.4687

> <Gold.Chemscore.Rot.Weighted>
5.5867

> <Gold.Chemscore.Internal.Correction.Weighted>
   9.000000E+99

> <Gold.Protein.RotatedTorsions>
[ 6907 6896 6895 6894 ] final  -90.92 input  -60.11 | X-H torsion
[ 7974 7965 7964 7962 ] final -122.64 input  175.53 | X-H torsion
[ 8008 7997 7996 7995 ] final   15.63 input   59.86 | X-H torsion
[ 10167 10162 10161 10158 ] final  -42.31 input  -65.29 | X-H torsion
[ 10718 10713 10712 10709 ] final -172.59 input   66.30 | X-H torsion
[ 10763 10752 10751 10750 ] final  103.46 input  -60.55 | X-H torsion
[ 11005 11000 10999 10996 ] final  -37.47 input  -57.11 | X-H torsion

> <Gold.Protein.ActiveResidues>
 VAL166  LYS551  ARG553  GLY616  TRP617  ASP618  TYR619  PRO620  LYS621  CYS622 
 ASP623  PHE694  ASN695  SER759  ASP760  ASP761  ALA762  ILE779  LEU786  VAL792 
 PHE793  MET794  SER795  GLU796  ALA797  LYS798  CYS799  TRP800  GLU811  SER814 

> <Gold.Protein.RotatedAtoms>
  150.6887  134.2357  159.4451 H   0  0  0  0  0  0  0  0  0  0  0  0  # atno 6907 bound_to 6896
  152.0304  134.9768  160.0581 H   0  0  0  0  0  0  0  0  0  0  0  0  # atno 6908 bound_to 6896
  152.1310  133.4373  159.4757 H   0  0  0  0  0  0  0  0  0  0  0  0  # atno 6909 bound_to 6896
  145.0273  140.8038  143.4345 H   0  0  0  0  0  0  0  0  0  0  0  0  # atno 7974 bound_to 7965
  154.8654  140.2950  155.5513 H   0  0  0  0  0  0  0  0  0  0  0  0  # atno 8008 bound_to 7997
  156.3020  140.2470  156.3568 H   0  0  0  0  0  0  0  0  0  0  0  0  # atno 8009 bound_to 7997
  154.8874  140.0395  157.1807 H   0  0  0  0  0  0  0  0  0  0  0  0  # atno 8010 bound_to 7997
  140.6973  143.3045  151.3191 H   0  0  0  0  0  0  0  0  0  0  0  0  # atno 10167 bound_to 10162
  156.7578  130.9402  151.3117 H   0  0  0  0  0  0  0  0  0  0  0  0  # atno 10718 bound_to 10713
  153.3530  135.3976  155.1660 H   0  0  0  0  0  0  0  0  0  0  0  0  # atno 10763 bound_to 10752
  154.8666  135.3661  154.5198 H   0  0  0  0  0  0  0  0  0  0  0  0  # atno 10764 bound_to 10752
  153.5651  135.7080  153.5590 H   0  0  0  0  0  0  0  0  0  0  0  0  # atno 10765 bound_to 10752
  140.9954  133.6983  156.1925 H   0  0  0  0  0  0  0  0  0  0  0  0  # atno 11005 bound_to 11000
  145.1817  139.2348  143.5289 LP  0  0  0  0  0  0  0  0  0  0  0  0  # atno 17320 bound_to 7965
  146.3494  140.1592  142.8591 LP  0  0  0  0  0  0  0  0  0  0  0  0  # atno 17321 bound_to 7965
  139.6445  144.0477  152.2580 LP  0  0  0  0  0  0  0  0  0  0  0  0  # atno 17342 bound_to 10162
  139.9993  144.6305  150.7744 LP  0  0  0  0  0  0  0  0  0  0  0  0  # atno 17343 bound_to 10162
  157.6748  130.9084  150.0125 LP  0  0  0  0  0  0  0  0  0  0  0  0  # atno 17370 bound_to 10713
  156.1359  130.3642  149.9658 LP  0  0  0  0  0  0  0  0  0  0  0  0  # atno 17371 bound_to 10713
  140.6974  134.4601  157.5587 LP  0  0  0  0  0  0  0  0  0  0  0  0  # atno 17394 bound_to 11000
  139.9012  134.8551  156.1888 LP  0  0  0  0  0  0  0  0  0  0  0  0  # atno 17395 bound_to 11000

$$$$
