AV-unprocessed.smi:2547|AV-procd|sdf|10006|dock4
  -GOLD-   2272014 53D 1   1.00000     0.00000
 Structure written by MMmdl.
 44 45  0  0  0  0  0  0  0  0  2 V2000
  144.1305  142.6168  155.0273 C   0  0  0  0  0  0  0  0  0  0  0  0
  145.2959  141.8286  154.5718 N   0  3  2  0  0  0  0  0  0  0  0  0
  145.9762  141.1289  155.6899 C   0  0  0  0  0  0  0  0  0  0  0  0
  147.1020  140.2164  155.1695 C   0  0  0  0  0  0  0  0  0  0  0  0
  148.1129  140.9856  154.3004 C   0  0  2  0  0  0  0  0  0  0  0  0
  148.9087  141.8980  155.1226 N   0  0  0  0  0  0  0  0  0  0  0  0
  150.1371  141.6724  155.6123 C   0  0  0  0  0  0  0  0  0  0  0  0
  150.7357  140.6141  155.3986 O   0  0  0  0  0  0  0  0  0  0  0  0
  150.5557  142.7787  156.3435 N   0  0  0  0  0  0  0  0  0  0  0  0
  151.3210  142.6836  157.3923 C   0  0  0  0  0  0  0  0  0  0  0  0
  151.7185  143.8849  158.1071 C   0  0  0  0  0  0  0  0  0  0  0  0
  152.5106  143.8163  159.1964 C   0  0  0  0  0  0  0  0  0  0  0  0
  152.9920  142.5435  159.6912 C   0  0  0  0  0  0  0  0  0  0  0  0
  152.6444  141.4089  159.0549 C   0  0  0  0  0  0  0  0  0  0  0  0
  153.1062  140.1968  159.5307 N   0  0  0  0  0  0  0  0  0  0  0  0
  153.9597  140.1218  160.7043 C   0  0  0  0  0  0  0  0  0  0  0  0
  152.5358  138.9400  159.0760 C   0  0  0  0  0  0  0  0  0  0  0  0
  151.8257  141.4840  157.9294 N   0  0  0  0  0  0  0  0  0  0  0  0
  147.3736  141.7591  153.1943 C   0  0  0  0  0  0  0  0  0  0  0  0
  146.2414  142.6356  153.7609 C   0  0  0  0  0  0  0  0  0  0  0  0
  144.4389  143.4206  155.6974 H   0  0  0  0  0  0  0  0  0  0  0  0
  143.4199  141.9820  155.5574 H   0  0  0  0  0  0  0  0  0  0  0  0
  143.6095  143.0597  154.1777 H   0  0  0  0  0  0  0  0  0  0  0  0
  146.3755  141.8622  156.3922 H   0  0  0  0  0  0  0  0  0  0  0  0
  145.2503  140.5293  156.2403 H   0  0  0  0  0  0  0  0  0  0  0  0
  147.6118  139.7343  156.0049 H   0  0  0  0  0  0  0  0  0  0  0  0
  146.6626  139.4116  154.5782 H   0  0  0  0  0  0  0  0  0  0  0  0
  148.7659  140.2555  153.8200 H   0  0  0  0  0  0  0  0  0  0  0  0
  148.4872  142.7887  155.3425 H   0  0  0  0  0  0  0  0  0  0  0  0
  151.3911  144.8632  157.7857 H   0  0  0  0  0  0  0  0  0  0  0  0
  152.7910  144.7247  159.7091 H   0  0  0  0  0  0  0  0  0  0  0  0
  153.6257  142.5118  160.5659 H   0  0  0  0  0  0  0  0  0  0  0  0
  154.5256  141.0453  160.8310 H   0  0  0  0  0  0  0  0  0  0  0  0
  154.6707  139.2999  160.6155 H   0  0  0  0  0  0  0  0  0  0  0  0
  153.3581  139.9638  161.5997 H   0  0  0  0  0  0  0  0  0  0  0  0
  152.1153  139.0455  158.0752 H   0  0  0  0  0  0  0  0  0  0  0  0
  151.7399  138.6208  159.7492 H   0  0  0  0  0  0  0  0  0  0  0  0
  153.2951  138.1585  159.0424 H   0  0  0  0  0  0  0  0  0  0  0  0
  148.0761  142.3721  152.6279 H   0  0  0  0  0  0  0  0  0  0  0  0
  146.9507  141.0481  152.4832 H   0  0  0  0  0  0  0  0  0  0  0  0
  145.7043  143.1087  152.9380 H   0  0  0  0  0  0  0  0  0  0  0  0
  146.6534  143.4406  154.3717 H   0  0  0  0  0  0  0  0  0  0  0  0
  144.9334  141.1104  153.9609 H   0  0  0  0  0  0  0  0  0  0  0  0
  151.6011  140.5991  157.4975 H   0  0  0  0  0  0  0  0  0  0  0  0
  1  2  1  0  0  0  0
  1 21  1  0  0  0  0
  1 22  1  0  0  0  0
  1 23  1  0  0  0  0
  2 20  1  0  0  0  0
  2  3  1  0  0  0  0
  2 43  1  0  0  0  0
  3  4  1  0  0  0  0
  3 24  1  0  0  0  0
  3 25  1  0  0  0  0
  4  5  1  0  0  0  0
  4 26  1  0  0  0  0
  4 27  1  0  0  0  0
  5  6  1  0  0  0  0
  5 19  1  0  0  0  0
  5 28  1  0  0  0  0
  6  7  1  0  0  0  0
  6 29  1  0  0  0  0
  7  8  2  0  0  0  0
  7  9  1  0  0  0  0
  9 10  2  0  0  0  0
 10 18  1  0  0  0  0
 10 11  1  0  0  0  0
 11 12  2  0  0  0  0
 11 30  1  0  0  0  0
 12 13  1  0  0  0  0
 12 31  1  0  0  0  0
 13 14  2  0  0  0  0
 13 32  1  0  0  0  0
 14 15  1  0  0  0  0
 14 18  1  0  0  0  0
 15 16  1  0  0  0  0
 15 17  1  0  0  0  0
 16 33  1  0  0  0  0
 16 34  1  0  0  0  0
 16 35  1  0  0  0  0
 17 36  1  0  0  0  0
 17 37  1  0  0  0  0
 17 38  1  0  0  0  0
 18 44  1  0  0  0  0
 19 20  1  0  0  0  0
 19 39  1  0  0  0  0
 19 40  1  0  0  0  0
 20 41  1  0  0  0  0
 20 42  1  0  0  0  0
M  CHG  1   2   1
M  END
> <s_m_source_file>
AV-unprocessed.smi

> <i_m_source_file_index>
2547

> <i_lp_mmshare_version>
43012

> <i_f3d_flags>
0

> <s_epik_input>
W0NIM11OMVtDSDJdW0NIMl1bQ0hdKFtDSDJdW0NIMl0xKVtOSF1DKD1PKVtOSF1jMltjSF1bY0hdW2NIXWMobjIpTihbQ0gzXSlbQ0gzXQ==

> <s_epik_cmdline>
J2VwaWtfcHl0aG9uJywgJy1waCcsICc3LjAnLCAnLXRuJywgJzgnLCAnLW1hJywgJzIwMCcsICctbWV0YWxfYmluZGluZycsICctaW1hZScsICc8aW5maWxlLm1hZT4nLCAnLW9tYWUnLCAnPG91dGZpbGUubWFlPic=

> <r_lp_tautomer_probability>
0.999994

> <r_epik_Ionization_Penalty>
1.33208

> <r_epik_Ionization_Penalty_Charging>
1.33208

> <r_epik_Ionization_Penalty_Neutral>
6.0327e-08

> <r_epik_State_Penalty>
3.49719

> <r_epik_Charging_Adjusted_Penalty>
4.82927

> <i_epik_Tot_Q>
1

> <i_epik_Tot_abs_Q>
1

> <r_epik_Metal_State_Penalty>
3.51567

> <b_epik_Metal_Only>
1

> <s_lp_Force_Field>
OPLS_2005

> <r_lp_Energy>
40.5886

> <b_lp_Chiralities_Consistent>
1

> <s_lp_Variant>
AV-unprocessed.smi:2547-6

> <Gold.Version>
5.8.1

> <Gold.Id.Protein>
6NUR|6NUR_protein|mol2

> <Gold.PLP.Fitness>
45.2331

> <Gold.PLP.PLP>
-35.3311

> <Gold.PLP.part.hbond>
-3.0000

> <Gold.PLP.part.metal>
0.0000

> <Gold.PLP.part.buried>
-6.6272

> <Gold.PLP.part.nonpolar>
-28.8634

> <Gold.PLP.part.repulsive>
3.4480

> <Gold.PLP.ligand.clash>
0.0000

> <Gold.PLP.ligand.torsion>
0.5664

> <Gold.PLP.Chemscore.Hbond>
3.6491

> <Gold.PLP.Chemscore.CHOScore>
0.0000

> <Gold.PLP.Chemscore.Metal>
0.0000

> <Gold.Chemscore.Hbonds>
donor molecule, donor type, donor heavy atom, donor atom, acceptor molecule, acceptor atom, score
      L1  H     2    43       P1 10175  2.00
      L1  H     6    29       P1  8028  0.88
      P1  H  7989  7998       L1     8  0.73

> <Gold.PLP.Chemscore.Internal.Correction>
0.0873

> <Gold.Rescore>
     Score         DG    S(hbond)    S(metal)    S(lipo)     H(rot)  DE(clash)    DE(int)     intcor
     16.01     -19.59       2.13        0.00      81.51       1.00       3.01       0.57       ----

> <Gold.Chemscore.Fitness>
16.0073

> <Gold.Chemscore.DG>
-19.5854

> <Gold.Chemscore.ZeroCoef>
-5.4800

> <Gold.Chemscore.Hbond>
2.1344

> <Gold.Chemscore.Metal>
0.0000

> <Gold.Chemscore.Lipo>
81.5097

> <Gold.Chemscore.Internal_Hbond>
0.0000

> <Gold.Chemscore.DEClash>
3.0078

> <Gold.Chemscore.DEInternal>
0.5703

> <Gold.Chemscore.Rot>
1.0000

> <Gold.Chemscore.Internal.Correction>
   9.000000E+99

> <Gold.Chemscore.Hbonds>
donor molecule, donor type, donor heavy atom, donor atom, acceptor molecule, acceptor atom, score
      L1  H     2    43       P1 10175  0.66
      L1  H     6    29       P1  8028  0.84
      P1  H  7989  7998       L1     8  0.32

> <Gold.Chemscore.Hbond.Weighted>
-7.1288

> <Gold.Chemscore.Metal.Weighted>
-0.0000

> <Gold.Chemscore.Lipo.Weighted>
-9.5366

> <Gold.Chemscore.Internal_Hbond.Weighted>
0.0000

> <Gold.Chemscore.DEClash.Weighted>
3.0078

> <Gold.Chemscore.DEInternal.Weighted>
0.5703

> <Gold.Chemscore.Rot.Weighted>
2.5600

> <Gold.Chemscore.Internal.Correction.Weighted>
   9.000000E+99

> <Gold.Protein.RotatedTorsions>
[ 6907 6896 6895 6894 ] final  177.43 input  -60.11 | X-H torsion
[ 7974 7965 7964 7962 ] final -154.87 input  175.53 | X-H torsion
[ 8008 7997 7996 7995 ] final -124.57 input   59.86 | X-H torsion
[ 10167 10162 10161 10158 ] final  152.77 input  -65.29 | X-H torsion
[ 10718 10713 10712 10709 ] final   52.43 input   66.30 | X-H torsion
[ 10763 10752 10751 10750 ] final   56.09 input  -60.55 | X-H torsion
[ 11005 11000 10999 10996 ] final   84.70 input  -57.11 | X-H torsion

> <Gold.Protein.ActiveResidues>
 VAL166  LYS551  ARG553  GLY616  TRP617  ASP618  TYR619  PRO620  LYS621  CYS622 
 ASP623  PHE694  ASN695  SER759  ASP760  ASP761  ALA762  ILE779  LEU786  VAL792 
 PHE793  MET794  SER795  GLU796  ALA797  LYS798  CYS799  TRP800  GLU811  SER814 

> <Gold.Protein.RotatedAtoms>
  151.7041  133.3311  159.3273 H   0  0  0  0  0  0  0  0  0  0  0  0  # atno 6907 bound_to 6896
  150.7723  134.6589  159.6338 H   0  0  0  0  0  0  0  0  0  0  0  0  # atno 6908 bound_to 6896
  152.3751  134.6678  160.0214 H   0  0  0  0  0  0  0  0  0  0  0  0  # atno 6909 bound_to 6896
  144.7668  140.4327  143.5936 H   0  0  0  0  0  0  0  0  0  0  0  0  # atno 7974 bound_to 7965
  155.1991  140.0415  157.2914 H   0  0  0  0  0  0  0  0  0  0  0  0  # atno 8008 bound_to 7997
  154.6087  140.2471  155.7669 H   0  0  0  0  0  0  0  0  0  0  0  0  # atno 8009 bound_to 7997
  156.2366  140.2919  156.0338 H   0  0  0  0  0  0  0  0  0  0  0  0  # atno 8010 bound_to 7997
  139.4831  144.5329  151.7692 H   0  0  0  0  0  0  0  0  0  0  0  0  # atno 10167 bound_to 10162
  157.5074  130.8478  149.8391 H   0  0  0  0  0  0  0  0  0  0  0  0  # atno 10718 bound_to 10713
  152.9826  135.5688  154.5172 H   0  0  0  0  0  0  0  0  0  0  0  0  # atno 10763 bound_to 10752
  154.4666  135.2783  155.1675 H   0  0  0  0  0  0  0  0  0  0  0  0  # atno 10764 bound_to 10752
  154.3241  135.6263  153.5574 H   0  0  0  0  0  0  0  0  0  0  0  0  # atno 10765 bound_to 10752
  139.8992  134.8235  156.2481 H   0  0  0  0  0  0  0  0  0  0  0  0  # atno 11005 bound_to 11000
  145.6447  139.1555  143.2896 LP  0  0  0  0  0  0  0  0  0  0  0  0  # atno 17320 bound_to 7965
  146.1781  140.6540  142.9202 LP  0  0  0  0  0  0  0  0  0  0  0  0  # atno 17321 bound_to 7965
  140.4858  144.1383  150.5941 LP  0  0  0  0  0  0  0  0  0  0  0  0  # atno 17342 bound_to 10162
  140.4227  143.2604  151.9696 LP  0  0  0  0  0  0  0  0  0  0  0  0  # atno 17343 bound_to 10162
  156.0267  130.3777  150.1804 LP  0  0  0  0  0  0  0  0  0  0  0  0  # atno 17370 bound_to 10713
  156.9993  130.9917  151.3395 LP  0  0  0  0  0  0  0  0  0  0  0  0  # atno 17371 bound_to 10713
  141.0241  133.7025  156.1318 LP  0  0  0  0  0  0  0  0  0  0  0  0  # atno 17394 bound_to 11000
  140.7191  134.4378  157.5576 LP  0  0  0  0  0  0  0  0  0  0  0  0  # atno 17395 bound_to 11000

$$$$
