AV-unprocessed.smi:99|AV-procd|sdf|879|dock4
  -GOLD-   2262017353D 1   1.00000     0.00000
 Structure written by MMmdl.
 53 56  0  0  0  0  0  0  0  0  1 V2000
  146.9168  131.9009  159.1207 O   0  0  0  0  0  0  0  0  0  0  0  0
  147.1904  133.1011  159.1834 C   0  0  0  0  0  0  0  0  0  0  0  0
  147.5806  133.8333  158.1225 O   0  0  0  0  0  0  0  0  0  0  0  0
  147.7104  133.2218  156.8505 C   0  0  0  0  0  0  0  0  0  0  0  0
  149.1661  132.7603  156.6590 C   0  0  2  0  0  0  0  0  0  0  0  0
  150.0460  133.6100  157.3962 O   0  0  0  0  0  0  0  0  0  0  0  0
  150.6335  134.5844  156.5756 C   0  0  2  0  0  0  0  0  0  0  0  0
  150.3065  135.9666  157.1070 N   0  0  0  0  0  0  0  0  0  0  0  0
  149.5208  136.1692  158.2357 C   0  0  0  0  0  0  0  0  0  0  0  0
  149.2249  137.3993  158.7180 C   0  0  0  0  0  0  0  0  0  0  0  0
  149.7349  138.5968  158.0584 C   0  0  0  0  0  0  0  0  0  0  0  0
  149.5208  139.7515  158.4209 O   0  0  0  0  0  0  0  0  0  0  0  0
  150.5240  138.3471  156.9321 N   0  0  0  0  0  0  0  0  0  0  0  0
  150.8351  137.0845  156.4256 C   0  0  0  0  0  0  0  0  0  0  0  0
  151.5405  136.9771  155.4231 O   0  0  0  0  0  0  0  0  0  0  0  0
  150.1306  134.3454  155.1336 C   0  0  2  0  0  0  0  0  0  0  0  0
  149.0615  135.2041  154.7655 O   0  0  0  0  0  0  0  0  0  0  0  0
  149.6895  132.8919  155.2296 C   0  0  2  0  0  0  0  0  0  0  0  0
  148.7657  132.4908  154.2231 O   0  0  0  0  0  0  0  0  0  0  0  0
  148.3097  131.2224  154.1618 C   0  0  0  0  0  0  0  0  0  0  0  0
  148.7356  130.3077  154.8696 O   0  0  0  0  0  0  0  0  0  0  0  0
  147.2390  131.0441  153.1395 C   0  0  0  0  0  0  0  0  0  0  0  0
  146.7519  132.1732  152.4403 C   0  0  0  0  0  0  0  0  0  0  0  0
  145.7386  132.0347  151.4718 C   0  0  0  0  0  0  0  0  0  0  0  0
  145.1992  130.7658  151.1916 C   0  0  0  0  0  0  0  0  0  0  0  0
  145.6750  129.6348  151.8802 C   0  0  0  0  0  0  0  0  0  0  0  0
  146.6891  129.7710  152.8481 C   0  0  0  0  0  0  0  0  0  0  0  0
  147.1245  133.8960  160.4431 C   0  0  0  0  0  0  0  0  0  0  0  0
  147.4423  135.2741  160.4105 C   0  0  0  0  0  0  0  0  0  0  0  0
  147.3907  136.0499  161.5848 C   0  0  0  0  0  0  0  0  0  0  0  0
  147.0222  135.4568  162.8064 C   0  0  0  0  0  0  0  0  0  0  0  0
  146.7055  134.0865  162.8524 C   0  0  0  0  0  0  0  0  0  0  0  0
  146.7557  133.3091  161.6788 C   0  0  0  0  0  0  0  0  0  0  0  0
  150.8994  139.1473  156.4441 H   0  0  0  0  0  0  0  0  0  0  0  0
  147.0361  132.3658  156.8055 H   0  0  0  0  0  0  0  0  0  0  0  0
  147.4088  133.9159  156.0664 H   0  0  0  0  0  0  0  0  0  0  0  0
  149.2665  131.7299  157.0014 H   0  0  0  0  0  0  0  0  0  0  0  0
  151.7164  134.4806  156.6723 H   0  0  0  0  0  0  0  0  0  0  0  0
  149.1159  135.3272  158.7744 H   0  0  0  0  0  0  0  0  0  0  0  0
  148.6079  137.4981  159.5995 H   0  0  0  0  0  0  0  0  0  0  0  0
  150.9495  134.4800  154.4262 H   0  0  0  0  0  0  0  0  0  0  0  0
  149.2821  135.6249  153.9487 H   0  0  0  0  0  0  0  0  0  0  0  0
  150.5807  132.2650  155.1679 H   0  0  0  0  0  0  0  0  0  0  0  0
  147.1500  133.1579  152.6392 H   0  0  0  0  0  0  0  0  0  0  0  0
  145.3746  132.9039  150.9437 H   0  0  0  0  0  0  0  0  0  0  0  0
  144.4211  130.6601  150.4497 H   0  0  0  0  0  0  0  0  0  0  0  0
  145.2613  128.6601  151.6671 H   0  0  0  0  0  0  0  0  0  0  0  0
  147.0301  128.8819  153.3582 H   0  0  0  0  0  0  0  0  0  0  0  0
  147.7277  135.7515  159.4839 H   0  0  0  0  0  0  0  0  0  0  0  0
  147.6338  137.1015  161.5476 H   0  0  0  0  0  0  0  0  0  0  0  0
  146.9825  136.0518  163.7068 H   0  0  0  0  0  0  0  0  0  0  0  0
  146.4232  133.6297  163.7896 H   0  0  0  0  0  0  0  0  0  0  0  0
  146.5089  132.2597  161.7497 H   0  0  0  0  0  0  0  0  0  0  0  0
  1  2  2  0  0  0  0
  2  3  1  0  0  0  0
  2 28  1  0  0  0  0
  3  4  1  0  0  0  0
  4  5  1  0  0  0  0
  4 35  1  0  0  0  0
  4 36  1  0  0  0  0
  5 18  1  0  0  0  0
  5  6  1  0  0  0  0
  5 37  1  0  0  0  0
  6  7  1  0  0  0  0
  7  8  1  0  0  0  0
  7 16  1  0  0  0  0
  7 38  1  0  0  0  0
  8 14  1  0  0  0  0
  8  9  1  0  0  0  0
  9 10  2  0  0  0  0
  9 39  1  0  0  0  0
 10 11  1  0  0  0  0
 10 40  1  0  0  0  0
 11 12  2  0  0  0  0
 11 13  1  0  0  0  0
 13 34  1  0  0  0  0
 13 14  1  0  0  0  0
 14 15  2  0  0  0  0
 16 17  1  0  0  0  0
 16 18  1  0  0  0  0
 16 41  1  0  0  0  0
 17 42  1  0  0  0  0
 18 19  1  0  0  0  0
 18 43  1  0  0  0  0
 19 20  1  0  0  0  0
 20 21  2  0  0  0  0
 20 22  1  0  0  0  0
 22 27  1  0  0  0  0
 22 23  2  0  0  0  0
 23 24  1  0  0  0  0
 23 44  1  0  0  0  0
 24 25  2  0  0  0  0
 24 45  1  0  0  0  0
 25 26  1  0  0  0  0
 25 46  1  0  0  0  0
 26 27  2  0  0  0  0
 26 47  1  0  0  0  0
 27 48  1  0  0  0  0
 28 33  1  0  0  0  0
 28 29  2  0  0  0  0
 29 30  1  0  0  0  0
 29 49  1  0  0  0  0
 30 31  2  0  0  0  0
 30 50  1  0  0  0  0
 31 32  1  0  0  0  0
 31 51  1  0  0  0  0
 32 33  2  0  0  0  0
 32 52  1  0  0  0  0
 33 53  1  0  0  0  0
M  END
> <s_m_source_file>
AV-unprocessed.smi

> <i_m_source_file_index>
99

> <i_lp_mmshare_version>
43012

> <i_f3d_flags>
0

> <s_epik_input>
W2NIXTFbY0hdW2NIXVtjSF1bY0hdYzFDKD1PKU9bQ0gyXVtDQEBIXTJPW0NAQEhdKG4zW2NIXVtjSF1jKD1PKVtuSF1jMz1PKVtDQEBIXShbT0hdKVtDQEhdMk9DKD1PKWM0W2NIXVtjSF1bY0hdW2NIXVtjSF00

> <s_epik_cmdline>
J2VwaWtfcHl0aG9uJywgJy1waCcsICc3LjAnLCAnLXRuJywgJzgnLCAnLW1hJywgJzIwMCcsICctbWV0YWxfYmluZGluZycsICctaW1hZScsICc8aW5maWxlLm1hZT4nLCAnLW9tYWUnLCAnPG91dGZpbGUubWFlPic=

> <r_lp_tautomer_probability>
1

> <r_epik_Ionization_Penalty>
0.00454555

> <r_epik_Ionization_Penalty_Charging>
0.0045191

> <r_epik_Ionization_Penalty_Neutral>
2.64449e-05

> <r_epik_State_Penalty>
-0

> <r_epik_Charging_Adjusted_Penalty>
0.0045191

> <i_epik_Tot_Q>
0

> <i_epik_Tot_abs_Q>
0

> <r_epik_Metal_State_Penalty>
1.27877

> <b_epik_Metal_Only>
0

> <s_epik_Chemistry_Notes>
This compound has an ester and may undergo hydrolysis at high or low pH. This compound contains an acetal/aminal-like group ( X-CH(R)-Y where X, Y are N, S, or O) that may be acid/base labile, releasing an aldehyde.

> <s_lp_Force_Field>
OPLS_2005

> <r_lp_Energy>
46.8858

> <b_lp_Chiralities_Consistent>
1

> <s_lp_Variant>
AV-unprocessed.smi:99-15

> <Gold.Version>
5.8.1

> <Gold.Id.Protein>
6NUR|6NUR_protein|mol2

> <Gold.PLP.Fitness>
56.8658

> <Gold.PLP.PLP>
-49.6571

> <Gold.PLP.part.hbond>
-3.0000

> <Gold.PLP.part.metal>
0.0000

> <Gold.PLP.part.buried>
-7.6486

> <Gold.PLP.part.nonpolar>
-39.5547

> <Gold.PLP.part.repulsive>
0.2019

> <Gold.PLP.ligand.clash>
0.0000

> <Gold.PLP.ligand.torsion>
0.7153

> <Gold.PLP.Chemscore.Hbond>
2.7930

> <Gold.PLP.Chemscore.CHOScore>
0.0000

> <Gold.PLP.Chemscore.Metal>
0.0000

> <Gold.Chemscore.Hbonds>
donor molecule, donor type, donor heavy atom, donor atom, acceptor molecule, acceptor atom, score
      L1  H    17    42       P1  7948  0.65
      P1  H  6896  6909       L1     6  1.00
      P1  H 10752 10765       L1    15  0.76

> <Gold.PLP.Chemscore.Internal.Correction>
0.2604

> <Gold.Rescore>
     Score         DG    S(hbond)    S(metal)    S(lipo)     H(rot)  DE(clash)    DE(int)     intcor
     17.63     -18.50       2.37        0.00     113.55       3.19       0.07       0.80       ----

> <Gold.Chemscore.Fitness>
17.6338

> <Gold.Chemscore.DG>
-18.5031

> <Gold.Chemscore.ZeroCoef>
-5.4800

> <Gold.Chemscore.Hbond>
2.3667

> <Gold.Chemscore.Metal>
0.0000

> <Gold.Chemscore.Lipo>
113.5503

> <Gold.Chemscore.Internal_Hbond>
0.0000

> <Gold.Chemscore.DEClash>
0.0650

> <Gold.Chemscore.DEInternal>
0.8043

> <Gold.Chemscore.Rot>
3.1903

> <Gold.Chemscore.Internal.Correction>
   9.000000E+99

> <Gold.Chemscore.Hbonds>
donor molecule, donor type, donor heavy atom, donor atom, acceptor molecule, acceptor atom, score
      L1  H    17    42       P1  7948  0.38
      P1  H  6896  6909       L1     6  0.65
      P1  H 10752 10765       L1    15  0.74

> <Gold.Chemscore.Hbond.Weighted>
-7.9049

> <Gold.Chemscore.Metal.Weighted>
-0.0000

> <Gold.Chemscore.Lipo.Weighted>
-13.2854

> <Gold.Chemscore.Internal_Hbond.Weighted>
0.0000

> <Gold.Chemscore.DEClash.Weighted>
0.0650

> <Gold.Chemscore.DEInternal.Weighted>
0.8043

> <Gold.Chemscore.Rot.Weighted>
8.1671

> <Gold.Chemscore.Internal.Correction.Weighted>
   9.000000E+99

> <Gold.Protein.RotatedTorsions>
[ 6907 6896 6895 6894 ] final   -4.88 input  -60.11 | X-H torsion
[ 7974 7965 7964 7962 ] final  -13.05 input  175.53 | X-H torsion
[ 8008 7997 7996 7995 ] final  154.53 input   59.86 | X-H torsion
[ 10167 10162 10161 10158 ] final  -61.72 input  -65.29 | X-H torsion
[ 10718 10713 10712 10709 ] final  132.88 input   66.30 | X-H torsion
[ 10763 10752 10751 10750 ] final -178.78 input  -60.55 | X-H torsion
[ 11005 11000 10999 10996 ] final   89.37 input  -57.11 | X-H torsion

> <Gold.Protein.ActiveResidues>
 VAL166  LYS551  ARG553  GLY616  TRP617  ASP618  TYR619  PRO620  LYS621  CYS622 
 ASP623  PHE694  ASN695  SER759  ASP760  ASP761  ALA762  ILE779  LEU786  VAL792 
 PHE793  MET794  SER795  GLU796  ALA797  LYS798  CYS799  TRP800  GLU811  SER814 

> <Gold.Protein.RotatedAtoms>
  151.4906  135.1057  159.9802 H   0  0  0  0  0  0  0  0  0  0  0  0  # atno 6907 bound_to 6896
  152.4742  133.8097  159.7007 H   0  0  0  0  0  0  0  0  0  0  0  0  # atno 6908 bound_to 6896
  150.8770  133.7362  159.2969 H   0  0  0  0  0  0  0  0  0  0  0  0  # atno 6909 bound_to 6896
  146.2129  140.3147  142.8385 H   0  0  0  0  0  0  0  0  0  0  0  0  # atno 7974 bound_to 7965
  156.2526  140.1964  156.6660 H   0  0  0  0  0  0  0  0  0  0  0  0  # atno 8008 bound_to 7997
  154.6428  140.0581  156.9891 H   0  0  0  0  0  0  0  0  0  0  0  0  # atno 8009 bound_to 7997
  155.1536  140.3253  155.4428 H   0  0  0  0  0  0  0  0  0  0  0  0  # atno 8010 bound_to 7997
  140.5987  143.2356  151.5977 H   0  0  0  0  0  0  0  0  0  0  0  0  # atno 10167 bound_to 10162
  157.4827  131.1086  150.9660 H   0  0  0  0  0  0  0  0  0  0  0  0  # atno 10718 bound_to 10713
  154.5434  135.2807  155.1075 H   0  0  0  0  0  0  0  0  0  0  0  0  # atno 10763 bound_to 10752
  154.2549  135.6332  153.5257 H   0  0  0  0  0  0  0  0  0  0  0  0  # atno 10764 bound_to 10752
  152.9984  135.5591  154.5979 H   0  0  0  0  0  0  0  0  0  0  0  0  # atno 10765 bound_to 10752
  139.8877  134.8547  156.3132 H   0  0  0  0  0  0  0  0  0  0  0  0  # atno 11005 bound_to 11000
  144.8963  140.7587  143.5895 LP  0  0  0  0  0  0  0  0  0  0  0  0  # atno 17320 bound_to 7965
  145.3071  139.1831  143.4658 LP  0  0  0  0  0  0  0  0  0  0  0  0  # atno 17321 bound_to 7965
  139.5276  144.3012  152.1071 LP  0  0  0  0  0  0  0  0  0  0  0  0  # atno 17342 bound_to 10162
  140.2189  144.4486  150.6351 LP  0  0  0  0  0  0  0  0  0  0  0  0  # atno 17343 bound_to 10162
  157.0388  130.5740  149.5353 LP  0  0  0  0  0  0  0  0  0  0  0  0  # atno 17370 bound_to 10713
  156.0130  130.5223  150.8049 LP  0  0  0  0  0  0  0  0  0  0  0  0  # atno 17371 bound_to 10713
  140.9836  133.7252  156.0709 LP  0  0  0  0  0  0  0  0  0  0  0  0  # atno 17394 bound_to 11000
  140.7717  134.3825  157.5506 LP  0  0  0  0  0  0  0  0  0  0  0  0  # atno 17395 bound_to 11000

$$$$
