AV-unprocessed.smi:1536|AV-procd|sdf|6189|dock9
  -GOLD-   22720 6353D 1   1.00000     0.00000
 Structure written by MMmdl.
 48 49  0  0  0  0  0  0  0  0  2 V2000
  143.9457  132.9172  150.9971 C   0  0  0  0  0  0  0  0  0  0  0  0
  144.9959  133.9785  150.6244 C   0  0  2  0  0  0  0  0  0  0  0  0
  146.4364  133.4355  150.6793 C   0  0  0  0  0  0  0  0  0  0  0  0
  146.9278  133.2373  152.1237 C   0  0  0  0  0  0  0  0  0  0  0  0
  146.8039  134.5005  152.8990 N   0  3  2  0  0  0  0  0  0  0  0  0
  147.5154  134.5335  154.2165 C   0  0  1  0  0  0  0  0  0  0  0  0
  147.4031  135.8962  154.9655 C   0  0  0  0  0  0  0  0  0  0  0  0
  148.2247  136.9660  154.4058 N   0  0  0  0  0  0  0  0  0  0  0  0
  148.3595  138.1913  154.9354 C   0  0  0  0  0  0  0  0  0  0  0  0
  147.8198  138.5283  155.9900 O   0  0  0  0  0  0  0  0  0  0  0  0
  149.2572  139.1595  154.1560 C   0  0  0  0  0  0  0  0  0  0  0  0
  150.6638  139.0082  154.4844 N   0  0  0  0  0  0  0  0  0  0  0  0
  151.4747  137.9510  154.4065 C   0  0  0  0  0  0  0  0  0  0  0  0
  152.6990  138.2427  154.8179 N   0  0  0  0  0  0  0  0  0  0  0  0
  152.6035  139.5798  155.1662 N   0  0  0  0  0  0  0  0  0  0  0  0
  151.3980  140.0395  154.9706 N   0  0  0  0  0  0  0  0  0  0  0  0
  147.0569  133.3317  155.0936 C   0  0  0  0  0  0  0  0  0  0  0  0
  145.5870  133.4421  155.5423 C   0  0  0  0  0  0  0  0  0  0  0  0
  147.9449  133.1566  156.3422 C   0  0  0  0  0  0  0  0  0  0  0  0
  145.4117  135.0222  152.9208 C   0  0  0  0  0  0  0  0  0  0  0  0
  144.8909  135.2483  151.4904 C   0  0  0  0  0  0  0  0  0  0  0  0
  144.0577  132.5670  152.0229 H   0  0  0  0  0  0  0  0  0  0  0  0
  144.0201  132.0482  150.3426 H   0  0  0  0  0  0  0  0  0  0  0  0
  142.9362  133.3159  150.8943 H   0  0  0  0  0  0  0  0  0  0  0  0
  144.7918  134.2658  149.5921 H   0  0  0  0  0  0  0  0  0  0  0  0
  146.5089  132.4981  150.1265 H   0  0  0  0  0  0  0  0  0  0  0  0
  147.1018  134.1363  150.1731 H   0  0  0  0  0  0  0  0  0  0  0  0
  146.3594  132.4395  152.6013 H   0  0  0  0  0  0  0  0  0  0  0  0
  147.9685  132.9141  152.1041 H   0  0  0  0  0  0  0  0  0  0  0  0
  148.5742  134.3637  154.0161 H   0  0  0  0  0  0  0  0  0  0  0  0
  146.3680  136.2379  154.9772 H   0  0  0  0  0  0  0  0  0  0  0  0
  147.6866  135.7838  156.0120 H   0  0  0  0  0  0  0  0  0  0  0  0
  148.6997  136.7709  153.5362 H   0  0  0  0  0  0  0  0  0  0  0  0
  149.1295  138.9867  153.0867 H   0  0  0  0  0  0  0  0  0  0  0  0
  148.9555  140.1888  154.3567 H   0  0  0  0  0  0  0  0  0  0  0  0
  151.1700  136.9764  154.0549 H   0  0  0  0  0  0  0  0  0  0  0  0
  147.1423  132.4186  154.5039 H   0  0  0  0  0  0  0  0  0  0  0  0
  145.3961  134.3881  156.0500 H   0  0  0  0  0  0  0  0  0  0  0  0
  145.3257  132.6398  156.2331 H   0  0  0  0  0  0  0  0  0  0  0  0
  144.8962  133.3621  154.7037 H   0  0  0  0  0  0  0  0  0  0  0  0
  147.9404  134.0545  156.9610 H   0  0  0  0  0  0  0  0  0  0  0  0
  148.9798  132.9341  156.0819 H   0  0  0  0  0  0  0  0  0  0  0  0
  147.5941  132.3299  156.9607 H   0  0  0  0  0  0  0  0  0  0  0  0
  144.7516  134.3354  153.4467 H   0  0  0  0  0  0  0  0  0  0  0  0
  145.3777  135.9685  153.4617 H   0  0  0  0  0  0  0  0  0  0  0  0
  145.4709  136.0468  151.0254 H   0  0  0  0  0  0  0  0  0  0  0  0
  143.8599  135.6023  151.5189 H   0  0  0  0  0  0  0  0  0  0  0  0
  147.3023  135.1866  152.3501 H   0  0  0  0  0  0  0  0  0  0  0  0
  1  2  1  0  0  0  0
  1 22  1  0  0  0  0
  1 23  1  0  0  0  0
  1 24  1  0  0  0  0
  2 21  1  0  0  0  0
  2  3  1  0  0  0  0
  2 25  1  0  0  0  0
  3  4  1  0  0  0  0
  3 26  1  0  0  0  0
  3 27  1  0  0  0  0
  4  5  1  0  0  0  0
  4 28  1  0  0  0  0
  4 29  1  0  0  0  0
  5  6  1  0  0  0  0
  5 20  1  0  0  0  0
  5 48  1  0  0  0  0
  6  7  1  0  0  0  0
  6 17  1  0  0  0  0
  6 30  1  0  0  0  0
  7  8  1  0  0  0  0
  7 31  1  0  0  0  0
  7 32  1  0  0  0  0
  8  9  1  0  0  0  0
  8 33  1  0  0  0  0
  9 10  2  0  0  0  0
  9 11  1  0  0  0  0
 11 12  1  0  0  0  0
 11 34  1  0  0  0  0
 11 35  1  0  0  0  0
 12 16  1  0  0  0  0
 12 13  1  0  0  0  0
 13 14  2  0  0  0  0
 13 36  1  0  0  0  0
 14 15  1  0  0  0  0
 15 16  2  0  0  0  0
 17 18  1  0  0  0  0
 17 19  1  0  0  0  0
 17 37  1  0  0  0  0
 18 38  1  0  0  0  0
 18 39  1  0  0  0  0
 18 40  1  0  0  0  0
 19 41  1  0  0  0  0
 19 42  1  0  0  0  0
 19 43  1  0  0  0  0
 20 21  1  0  0  0  0
 20 44  1  0  0  0  0
 20 45  1  0  0  0  0
 21 46  1  0  0  0  0
 21 47  1  0  0  0  0
M  CHG  1   5   1
M  END
> <s_m_source_file>
AV-unprocessed.smi

> <i_m_source_file_index>
1536

> <i_lp_mmshare_version>
43012

> <i_f3d_flags>
0

> <s_epik_input>
W0NIM11bQ0hdMVtDSDJdW0NIMl1OKFtDSDJdW0NIMl0xKVtDQEBIXShbQ0hdKFtDSDNdKVtDSDNdKVtDSDJdW05IXUMoPU8pW0NIMl1uMltjSF1ubm4y

> <s_epik_cmdline>
J2VwaWtfcHl0aG9uJywgJy1waCcsICc3LjAnLCAnLXRuJywgJzgnLCAnLW1hJywgJzIwMCcsICctbWV0YWxfYmluZGluZycsICctaW1hZScsICc8aW5maWxlLm1hZT4nLCAnLW9tYWUnLCAnPG91dGZpbGUubWFlPic=

> <r_lp_tautomer_probability>
1

> <r_epik_Ionization_Penalty>
0.00109671

> <r_epik_Ionization_Penalty_Charging>
0.00109273

> <r_epik_Ionization_Penalty_Neutral>
3.97951e-06

> <r_epik_State_Penalty>
0.000716588

> <r_epik_Charging_Adjusted_Penalty>
0.00180932

> <i_epik_Tot_Q>
1

> <i_epik_Tot_abs_Q>
1

> <r_epik_Metal_State_Penalty>
-0

> <b_epik_Metal_Only>
0

> <s_lp_Force_Field>
OPLS_2005

> <r_lp_Energy>
37.5817

> <b_lp_Chiralities_Consistent>
1

> <s_lp_Variant>
AV-unprocessed.smi:1536-4

> <Gold.Version>
5.8.1

> <Gold.Id.Protein>
6NUR|6NUR_protein|mol2

> <Gold.PLP.Fitness>
48.5698

> <Gold.PLP.PLP>
-31.5626

> <Gold.PLP.part.hbond>
-5.7769

> <Gold.PLP.part.metal>
0.0000

> <Gold.PLP.part.buried>
-4.3218

> <Gold.PLP.part.nonpolar>
-21.6374

> <Gold.PLP.part.repulsive>
0.1194

> <Gold.PLP.ligand.clash>
0.0000

> <Gold.PLP.ligand.torsion>
0.6968

> <Gold.PLP.Chemscore.Hbond>
4.9913

> <Gold.PLP.Chemscore.CHOScore>
1.0000

> <Gold.PLP.Chemscore.Metal>
0.0000

> <Gold.Chemscore.Hbonds>
donor molecule, donor type, donor heavy atom, donor atom, acceptor molecule, acceptor atom, score
      L1  H     5    48       P1  7948  2.00
      L1  H     8    33       P1  7948  1.00
      P1  H  7989  7998       L1    16  0.86
      P1  H  7997  8009       L1    15  0.89
      L1  C    13    36       P1  7949  0.45

> <Gold.PLP.Chemscore.Internal.Correction>
0.4270

> <Gold.Rescore>
     Score         DG    S(hbond)    S(metal)    S(lipo)     H(rot)  DE(clash)    DE(int)     intcor
     13.88     -14.67       3.02        0.00      52.86       2.77       0.00       0.78       ----

> <Gold.Chemscore.Fitness>
13.8810

> <Gold.Chemscore.DG>
-14.6689

> <Gold.Chemscore.ZeroCoef>
-5.4800

> <Gold.Chemscore.Hbond>
3.0234

> <Gold.Chemscore.Metal>
0.0000

> <Gold.Chemscore.Lipo>
52.8562

> <Gold.Chemscore.Internal_Hbond>
0.0000

> <Gold.Chemscore.DEClash>
0.0038

> <Gold.Chemscore.DEInternal>
0.7841

> <Gold.Chemscore.Rot>
2.7709

> <Gold.Chemscore.Internal.Correction>
   9.000000E+99

> <Gold.Chemscore.Hbonds>
donor molecule, donor type, donor heavy atom, donor atom, acceptor molecule, acceptor atom, score
      L1  H     5    48       P1  7948  0.94
      L1  H     8    33       P1  7948  1.00
      P1  H  7989  7998       L1    16  0.04
      P1  H  7997  8009       L1    15  0.61

> <Gold.Chemscore.Hbond.Weighted>
-10.0982

> <Gold.Chemscore.Metal.Weighted>
-0.0000

> <Gold.Chemscore.Lipo.Weighted>
-6.1842

> <Gold.Chemscore.Internal_Hbond.Weighted>
0.0000

> <Gold.Chemscore.DEClash.Weighted>
0.0038

> <Gold.Chemscore.DEInternal.Weighted>
0.7841

> <Gold.Chemscore.Rot.Weighted>
7.0935

> <Gold.Chemscore.Internal.Correction.Weighted>
   9.000000E+99

> <Gold.Protein.RotatedTorsions>
[ 6907 6896 6895 6894 ] final  121.05 input  -60.11 | X-H torsion
[ 7974 7965 7964 7962 ] final  -68.95 input  175.53 | X-H torsion
[ 8008 7997 7996 7995 ] final -146.63 input   59.86 | X-H torsion
[ 10167 10162 10161 10158 ] final   23.09 input  -65.29 | X-H torsion
[ 10718 10713 10712 10709 ] final -166.01 input   66.30 | X-H torsion
[ 10763 10752 10751 10750 ] final  -83.91 input  -60.55 | X-H torsion
[ 11005 11000 10999 10996 ] final  -79.18 input  -57.11 | X-H torsion

> <Gold.Protein.ActiveResidues>
 VAL166  LYS551  ARG553  GLY616  TRP617  ASP618  TYR619  PRO620  LYS621  CYS622 
 ASP623  PHE694  ASN695  SER759  ASP760  ASP761  ALA762  ILE779  LEU786  VAL792 
 PHE793  MET794  SER795  GLU796  ALA797  LYS798  CYS799  TRP800  GLU811  SER814 

> <Gold.Protein.RotatedAtoms>
  152.4352  133.7347  159.6606 H   0  0  0  0  0  0  0  0  0  0  0  0  # atno 6907 bound_to 6896
  150.8234  133.8202  159.3135 H   0  0  0  0  0  0  0  0  0  0  0  0  # atno 6908 bound_to 6896
  151.5877  135.1057  160.0083 H   0  0  0  0  0  0  0  0  0  0  0  0  # atno 6909 bound_to 6896
  145.7100  140.9082  143.0686 H   0  0  0  0  0  0  0  0  0  0  0  0  # atno 7974 bound_to 7965
  155.5625  140.0626  157.2825 H   0  0  0  0  0  0  0  0  0  0  0  0  # atno 8008 bound_to 7997
  154.4386  140.1883  156.0842 H   0  0  0  0  0  0  0  0  0  0  0  0  # atno 8009 bound_to 7997
  156.0436  140.3292  155.7276 H   0  0  0  0  0  0  0  0  0  0  0  0  # atno 8010 bound_to 7997
  140.5297  143.9863  150.6459 H   0  0  0  0  0  0  0  0  0  0  0  0  # atno 10167 bound_to 10162
  156.6616  130.9048  151.3030 H   0  0  0  0  0  0  0  0  0  0  0  0  # atno 10718 bound_to 10713
  154.5933  135.5539  153.7300 H   0  0  0  0  0  0  0  0  0  0  0  0  # atno 10763 bound_to 10752
  153.0125  135.6348  154.1819 H   0  0  0  0  0  0  0  0  0  0  0  0  # atno 10764 bound_to 10752
  154.1759  135.2889  155.3047 H   0  0  0  0  0  0  0  0  0  0  0  0  # atno 10765 bound_to 10752
  141.1667  133.7095  156.8084 H   0  0  0  0  0  0  0  0  0  0  0  0  # atno 11005 bound_to 11000
  144.6944  139.9062  143.7461 LP  0  0  0  0  0  0  0  0  0  0  0  0  # atno 17320 bound_to 7965
  146.0721  139.3710  143.0516 LP  0  0  0  0  0  0  0  0  0  0  0  0  # atno 17321 bound_to 7965
  140.3234  143.3122  152.0760 LP  0  0  0  0  0  0  0  0  0  0  0  0  # atno 17342 bound_to 10162
  139.4950  144.6558  151.6576 LP  0  0  0  0  0  0  0  0  0  0  0  0  # atno 17343 bound_to 10162
  157.7107  130.9437  150.1081 LP  0  0  0  0  0  0  0  0  0  0  0  0  # atno 17370 bound_to 10713
  156.2006  130.3660  149.8792 LP  0  0  0  0  0  0  0  0  0  0  0  0  # atno 17371 bound_to 10713
  140.2205  134.8760  157.3372 LP  0  0  0  0  0  0  0  0  0  0  0  0  # atno 17394 bound_to 11000
  140.1992  134.4275  155.7672 LP  0  0  0  0  0  0  0  0  0  0  0  0  # atno 17395 bound_to 11000

$$$$
