AV-unprocessed.smi:2883|AV-procd|sdf|11081|dock7
  -GOLD-   2272015553D 1   1.00000     0.00000
 Structure written by MMmdl.
 39 41  0  0  0  0  0  0  0  0  1 V2000
  151.3364  137.3934  155.7607 C   0  0  0  0  0  0  0  0  0  0  0  0
  152.0878  138.7371  155.7585 C   0  0  0  0  0  0  0  0  0  0  0  0
  152.7959  138.9385  157.1193 C   0  0  0  0  0  0  0  0  0  0  0  0
  153.2091  138.7002  154.6936 C   0  0  0  0  0  0  0  0  0  0  0  0
  151.0949  139.8786  155.4810 C   0  0  0  0  0  0  0  0  0  0  0  0
  150.2636  139.7311  154.4407 N   0  0  0  0  0  0  0  0  0  0  0  0
  149.3065  140.6674  154.2696 C   0  0  0  0  0  0  0  0  0  0  0  0
  149.1553  141.7457  155.1628 C   0  0  0  0  0  0  0  0  0  0  0  0
  150.0522  141.7911  156.2481 C   0  0  0  0  0  0  0  0  0  0  0  0
  149.9509  142.8302  157.1831 N   0  0  0  0  0  0  0  0  0  0  0  0
  150.6360  142.7483  158.4698 C   0  0  2  0  0  0  0  0  0  0  0  0
  150.1975  143.8355  159.4537 C   0  0  0  0  0  0  0  0  0  0  0  0
  151.5422  144.4585  159.8547 C   0  0  2  0  0  0  0  0  0  0  0  0
  152.1075  145.3446  158.7375 C   0  0  0  0  0  0  0  0  0  0  0  0
  152.5509  144.3037  157.7112 C   0  0  0  0  0  0  0  0  0  0  0  0
  152.1582  142.9867  158.4024 C   0  0  1  0  0  0  0  0  0  0  0  0
  152.4031  143.3362  159.7545 O   0  0  0  0  0  0  0  0  0  0  0  0
  151.0038  140.8425  156.4062 N   0  0  0  0  0  0  0  0  0  0  0  0
  152.0119  136.5597  155.9549 H   0  0  0  0  0  0  0  0  0  0  0  0
  150.8532  137.2087  154.8007 H   0  0  0  0  0  0  0  0  0  0  0  0
  150.5613  137.3745  156.5276 H   0  0  0  0  0  0  0  0  0  0  0  0
  152.0947  138.9078  157.9543 H   0  0  0  0  0  0  0  0  0  0  0  0
  153.3144  139.8974  157.1594 H   0  0  0  0  0  0  0  0  0  0  0  0
  153.5356  138.1584  157.3018 H   0  0  0  0  0  0  0  0  0  0  0  0
  153.9396  137.9211  154.9139 H   0  0  0  0  0  0  0  0  0  0  0  0
  153.7459  139.6486  154.6481 H   0  0  0  0  0  0  0  0  0  0  0  0
  152.8196  138.4922  153.6963 H   0  0  0  0  0  0  0  0  0  0  0  0
  148.6525  140.5522  153.4179 H   0  0  0  0  0  0  0  0  0  0  0  0
  148.3867  142.4913  155.0216 H   0  0  0  0  0  0  0  0  0  0  0  0
  149.5908  143.7255  156.8870 H   0  0  0  0  0  0  0  0  0  0  0  0
  150.4403  141.7742  158.9208 H   0  0  0  0  0  0  0  0  0  0  0  0
  149.5191  144.5731  159.0225 H   0  0  0  0  0  0  0  0  0  0  0  0
  149.7037  143.3866  160.3160 H   0  0  0  0  0  0  0  0  0  0  0  0
  151.5349  144.9350  160.8354 H   0  0  0  0  0  0  0  0  0  0  0  0
  151.3664  146.0403  158.3431 H   0  0  0  0  0  0  0  0  0  0  0  0
  152.9629  145.9202  159.0926 H   0  0  0  0  0  0  0  0  0  0  0  0
  152.0772  144.4348  156.7381 H   0  0  0  0  0  0  0  0  0  0  0  0
  153.6308  144.3518  157.5668 H   0  0  0  0  0  0  0  0  0  0  0  0
  152.7281  142.1230  158.0589 H   0  0  0  0  0  0  0  0  0  0  0  0
  1  2  1  0  0  0  0
  1 19  1  0  0  0  0
  1 20  1  0  0  0  0
  1 21  1  0  0  0  0
  2  3  1  0  0  0  0
  2  4  1  0  0  0  0
  2  5  1  0  0  0  0
  3 22  1  0  0  0  0
  3 23  1  0  0  0  0
  3 24  1  0  0  0  0
  4 25  1  0  0  0  0
  4 26  1  0  0  0  0
  4 27  1  0  0  0  0
  5 18  1  0  0  0  0
  5  6  2  0  0  0  0
  6  7  1  0  0  0  0
  7  8  2  0  0  0  0
  7 28  1  0  0  0  0
  8  9  1  0  0  0  0
  8 29  1  0  0  0  0
  9 10  1  0  0  0  0
  9 18  2  0  0  0  0
 10 11  1  0  0  0  0
 10 30  1  0  0  0  0
 11 16  1  0  0  0  0
 11 12  1  0  0  0  0
 11 31  1  0  0  0  0
 12 13  1  0  0  0  0
 12 32  1  0  0  0  0
 12 33  1  0  0  0  0
 13 17  1  0  0  0  0
 13 14  1  0  0  0  0
 13 34  1  0  0  0  0
 14 15  1  0  0  0  0
 14 35  1  0  0  0  0
 14 36  1  0  0  0  0
 15 16  1  0  0  0  0
 15 37  1  0  0  0  0
 15 38  1  0  0  0  0
 16 17  1  0  0  0  0
 16 39  1  0  0  0  0
M  END
> <s_m_source_file>
AV-unprocessed.smi

> <i_m_source_file_index>
2883

> <i_lp_mmshare_version>
43012

> <i_f3d_flags>
0

> <s_epik_input>
W0NIM11DKFtDSDNdKShbQ0gzXSljMW5bY0hdW2NIXWMobjEpW05IXVtDQEhdKFtDSDJdW0NAQEhdMjMpW0NAQEhdKE8zKVtDSDJdW0NIMl0y

> <s_epik_cmdline>
J2VwaWtfcHl0aG9uJywgJy1waCcsICc3LjAnLCAnLXRuJywgJzgnLCAnLW1hJywgJzIwMCcsICctbWV0YWxfYmluZGluZycsICctaW1hZScsICc8aW5maWxlLm1hZT4nLCAnLW9tYWUnLCAnPG91dGZpbGUubWFlPic=

> <r_lp_tautomer_probability>
1

> <r_epik_Ionization_Penalty>
0.453006

> <r_epik_Ionization_Penalty_Charging>
0

> <r_epik_Ionization_Penalty_Neutral>
0.453006

> <r_epik_State_Penalty>
0.455155

> <r_epik_Charging_Adjusted_Penalty>
0.455155

> <i_epik_Tot_Q>
0

> <i_epik_Tot_abs_Q>
0

> <r_epik_Metal_State_Penalty>
0.255592

> <b_epik_Metal_Only>
0

> <s_lp_Force_Field>
OPLS_2005

> <r_lp_Energy>
33.5757

> <b_lp_Chiralities_Consistent>
1

> <s_lp_Variant>
AV-unprocessed.smi:2883-7

> <Gold.Version>
5.8.1

> <Gold.Id.Protein>
6NUR|6NUR_protein|mol2

> <Gold.PLP.Fitness>
41.6123

> <Gold.PLP.PLP>
-36.3156

> <Gold.PLP.part.hbond>
-2.0000

> <Gold.PLP.part.metal>
0.0000

> <Gold.PLP.part.buried>
-0.4769

> <Gold.PLP.part.nonpolar>
-33.9275

> <Gold.PLP.part.repulsive>
0.1503

> <Gold.PLP.ligand.clash>
0.0000

> <Gold.PLP.ligand.torsion>
0.3759

> <Gold.PLP.Chemscore.Hbond>
1.1375

> <Gold.PLP.Chemscore.CHOScore>
0.8306

> <Gold.PLP.Chemscore.Metal>
0.0000

> <Gold.Chemscore.Hbonds>
donor molecule, donor type, donor heavy atom, donor atom, acceptor molecule, acceptor atom, score
      L1  H    10    30       P1  8028  1.00
      P1  H  7989  7998       L1     6  0.11
      L1  C     7    28       P1  7957  0.81

> <Gold.PLP.Chemscore.Internal.Correction>
0.1441

> <Gold.Rescore>
     Score         DG    S(hbond)    S(metal)    S(lipo)     H(rot)  DE(clash)    DE(int)     intcor
     17.52     -18.12       0.95        0.00     106.01       1.15       0.24       0.36       ----

> <Gold.Chemscore.Fitness>
17.5153

> <Gold.Chemscore.DG>
-18.1165

> <Gold.Chemscore.ZeroCoef>
-5.4800

> <Gold.Chemscore.Hbond>
0.9500

> <Gold.Chemscore.Metal>
0.0000

> <Gold.Chemscore.Lipo>
106.0072

> <Gold.Chemscore.Internal_Hbond>
0.0000

> <Gold.Chemscore.DEClash>
0.2420

> <Gold.Chemscore.DEInternal>
0.3591

> <Gold.Chemscore.Rot>
1.1482

> <Gold.Chemscore.Internal.Correction>
   9.000000E+99

> <Gold.Chemscore.Hbonds>
donor molecule, donor type, donor heavy atom, donor atom, acceptor molecule, acceptor atom, score
      L1  H    10    30       P1  8028  0.90

> <Gold.Chemscore.Hbond.Weighted>
-3.1729

> <Gold.Chemscore.Metal.Weighted>
-0.0000

> <Gold.Chemscore.Lipo.Weighted>
-12.4028

> <Gold.Chemscore.Internal_Hbond.Weighted>
0.0000

> <Gold.Chemscore.DEClash.Weighted>
0.2420

> <Gold.Chemscore.DEInternal.Weighted>
0.3591

> <Gold.Chemscore.Rot.Weighted>
2.9393

> <Gold.Chemscore.Internal.Correction.Weighted>
   9.000000E+99

> <Gold.Protein.RotatedTorsions>
[ 6907 6896 6895 6894 ] final -162.03 input  -60.11 | X-H torsion
[ 7974 7965 7964 7962 ] final   84.07 input  175.53 | X-H torsion
[ 8008 7997 7996 7995 ] final   40.58 input   59.86 | X-H torsion
[ 10167 10162 10161 10158 ] final -178.24 input  -65.29 | X-H torsion
[ 10718 10713 10712 10709 ] final    9.48 input   66.30 | X-H torsion
[ 10763 10752 10751 10750 ] final  -55.51 input  -60.55 | X-H torsion
[ 11005 11000 10999 10996 ] final -155.01 input  -57.11 | X-H torsion

> <Gold.Protein.ActiveResidues>
 VAL166  LYS551  ARG553  GLY616  TRP617  ASP618  TYR619  PRO620  LYS621  CYS622 
 ASP623  PHE694  ASN695  SER759  ASP760  ASP761  ALA762  ILE779  LEU786  VAL792 
 PHE793  MET794  SER795  GLU796  ALA797  LYS798  CYS799  TRP800  GLU811  SER814 

> <Gold.Protein.RotatedAtoms>
  151.3739  133.3845  159.2702 H   0  0  0  0  0  0  0  0  0  0  0  0  # atno 6907 bound_to 6896
  150.9630  134.9016  159.7752 H   0  0  0  0  0  0  0  0  0  0  0  0  # atno 6908 bound_to 6896
  152.5156  134.3698  159.9366 H   0  0  0  0  0  0  0  0  0  0  0  0  # atno 6909 bound_to 6896
  145.6036  139.2356  143.2232 H   0  0  0  0  0  0  0  0  0  0  0  0  # atno 7974 bound_to 7965
  155.2555  140.3355  155.4278 H   0  0  0  0  0  0  0  0  0  0  0  0  # atno 8008 bound_to 7997
  156.2197  140.1804  156.7549 H   0  0  0  0  0  0  0  0  0  0  0  0  # atno 8009 bound_to 7997
  154.5807  140.0654  156.9084 H   0  0  0  0  0  0  0  0  0  0  0  0  # atno 8010 bound_to 7997
  139.5441  144.2282  152.0954 H   0  0  0  0  0  0  0  0  0  0  0  0  # atno 10167 bound_to 10162
  156.9670  130.5954  149.5666 H   0  0  0  0  0  0  0  0  0  0  0  0  # atno 10718 bound_to 10713
  154.1919  135.6426  153.5062 H   0  0  0  0  0  0  0  0  0  0  0  0  # atno 10763 bound_to 10752
  153.0033  135.5430  154.6406 H   0  0  0  0  0  0  0  0  0  0  0  0  # atno 10764 bound_to 10752
  154.5797  135.2924  155.0718 H   0  0  0  0  0  0  0  0  0  0  0  0  # atno 10765 bound_to 10752
  140.6912  134.4040  157.5219 H   0  0  0  0  0  0  0  0  0  0  0  0  # atno 11005 bound_to 11000
  146.1558  140.6860  142.9301 LP  0  0  0  0  0  0  0  0  0  0  0  0  # atno 17320 bound_to 7965
  144.7299  140.4641  143.6945 LP  0  0  0  0  0  0  0  0  0  0  0  0  # atno 17321 bound_to 7965
  140.1765  144.4885  150.6551 LP  0  0  0  0  0  0  0  0  0  0  0  0  # atno 17342 bound_to 10162
  140.6683  143.2276  151.5688 LP  0  0  0  0  0  0  0  0  0  0  0  0  # atno 17343 bound_to 10162
  156.0298  130.5390  150.8505 LP  0  0  0  0  0  0  0  0  0  0  0  0  # atno 17370 bound_to 10713
  157.5619  131.0946  150.9547 LP  0  0  0  0  0  0  0  0  0  0  0  0  # atno 17371 bound_to 10713
  139.8923  134.8758  156.2277 LP  0  0  0  0  0  0  0  0  0  0  0  0  # atno 17394 bound_to 11000
  141.0240  133.7025  156.1316 LP  0  0  0  0  0  0  0  0  0  0  0  0  # atno 17395 bound_to 11000

$$$$
