AV-unprocessed.smi:3330|AV-procd|sdf|12804|dock2
  -GOLD-   2272019163D 1   1.00000     0.00000
 Structure written by MMmdl.
 39 40  0  0  0  0  0  0  0  0  2 V2000
  150.8901  139.8394  155.1820 C   0  0  0  0  0  0  0  0  0  0  0  0
  149.7085  140.8052  155.3717 C   0  0  1  0  0  0  0  0  0  0  0  0
  150.2306  142.0774  155.9247 N   0  3  0  0  0  0  0  0  0  0  0  0
  150.3886  142.1039  157.3931 C   0  0  0  0  0  0  0  0  0  0  0  0
  151.6392  142.8975  157.7965 C   0  0  0  0  0  0  0  0  0  0  0  0
  152.3468  142.2425  158.8991 N   0  0  0  0  0  0  0  0  0  0  0  0
  152.5969  142.8154  160.0833 C   0  0  0  0  0  0  0  0  0  0  0  0
  152.2843  143.9485  160.4468 O   0  0  0  0  0  0  0  0  0  0  0  0
  153.3656  141.8317  160.9384 C   0  0  0  0  0  0  0  0  0  0  0  0
  153.4593  140.7311  160.0028 N   0  0  0  0  0  0  0  0  0  0  0  0
  152.8651  141.0024  158.8338 C   0  0  0  0  0  0  0  0  0  0  0  0
  152.8177  140.2425  157.8677 O   0  0  0  0  0  0  0  0  0  0  0  0
  148.9262  141.0565  154.0521 C   0  0  1  0  0  0  0  0  0  0  0  0
  148.5633  139.7609  153.3014 C   0  0  0  0  0  0  0  0  0  0  0  0
  147.7225  141.8474  154.2876 N   0  0  0  0  0  0  0  0  0  0  0  0
  146.8058  142.3299  153.3734 C   0  0  0  0  0  0  0  0  0  0  0  0
  145.8228  142.9653  154.0762 C   0  0  0  0  0  0  0  0  0  0  0  0
  146.2227  142.8111  155.4324 C   0  0  0  0  0  0  0  0  0  0  0  0
  147.3533  142.1353  155.5558 N   0  0  0  0  0  0  0  0  0  0  0  0
  150.5567  138.8444  154.8875 H   0  0  0  0  0  0  0  0  0  0  0  0
  151.4505  139.7217  156.1103 H   0  0  0  0  0  0  0  0  0  0  0  0
  151.5819  140.2008  154.4204 H   0  0  0  0  0  0  0  0  0  0  0  0
  149.0354  140.3525  156.1021 H   0  0  0  0  0  0  0  0  0  0  0  0
  151.1344  142.2599  155.5128 H   0  0  0  0  0  0  0  0  0  0  0  0
  149.5093  142.5548  157.8519 H   0  0  0  0  0  0  0  0  0  0  0  0
  150.4501  141.0796  157.7627 H   0  0  0  0  0  0  0  0  0  0  0  0
  152.3034  143.0123  156.9380 H   0  0  0  0  0  0  0  0  0  0  0  0
  151.3576  143.9101  158.0918 H   0  0  0  0  0  0  0  0  0  0  0  0
  154.3497  142.2148  161.2094 H   0  0  0  0  0  0  0  0  0  0  0  0
  152.8084  141.5534  161.8334 H   0  0  0  0  0  0  0  0  0  0  0  0
  153.9315  139.8648  160.2184 H   0  0  0  0  0  0  0  0  0  0  0  0
  149.5675  141.6369  153.3856 H   0  0  0  0  0  0  0  0  0  0  0  0
  149.4508  139.2484  152.9317 H   0  0  0  0  0  0  0  0  0  0  0  0
  147.9378  139.9735  152.4336 H   0  0  0  0  0  0  0  0  0  0  0  0
  148.0189  139.0650  153.9404 H   0  0  0  0  0  0  0  0  0  0  0  0
  146.9229  142.1790  152.3104 H   0  0  0  0  0  0  0  0  0  0  0  0
  144.9479  143.4609  153.6825 H   0  0  0  0  0  0  0  0  0  0  0  0
  145.7250  143.1610  156.3248 H   0  0  0  0  0  0  0  0  0  0  0  0
  149.5992  142.8179  155.6527 H   0  0  0  0  0  0  0  0  0  0  0  0
  1  2  1  0  0  0  0
  1 20  1  0  0  0  0
  1 21  1  0  0  0  0
  1 22  1  0  0  0  0
  2  3  1  0  0  0  0
  2 13  1  0  0  0  0
  2 23  1  0  0  0  0
  3  4  1  0  0  0  0
  3 24  1  0  0  0  0
  3 39  1  0  0  0  0
  4  5  1  0  0  0  0
  4 25  1  0  0  0  0
  4 26  1  0  0  0  0
  5  6  1  0  0  0  0
  5 27  1  0  0  0  0
  5 28  1  0  0  0  0
  6 11  1  0  0  0  0
  6  7  1  0  0  0  0
  7  8  2  0  0  0  0
  7  9  1  0  0  0  0
  9 10  1  0  0  0  0
  9 29  1  0  0  0  0
  9 30  1  0  0  0  0
 10 11  1  0  0  0  0
 10 31  1  0  0  0  0
 11 12  2  0  0  0  0
 13 14  1  0  0  0  0
 13 15  1  0  0  0  0
 13 32  1  0  0  0  0
 14 33  1  0  0  0  0
 14 34  1  0  0  0  0
 14 35  1  0  0  0  0
 15 19  1  0  0  0  0
 15 16  1  0  0  0  0
 16 17  2  0  0  0  0
 16 36  1  0  0  0  0
 17 18  1  0  0  0  0
 17 37  1  0  0  0  0
 18 19  2  0  0  0  0
 18 38  1  0  0  0  0
M  CHG  1   3   1
M  END
> <s_m_source_file>
AV-unprocessed.smi

> <i_m_source_file_index>
3330

> <i_lp_mmshare_version>
43012

> <i_f3d_flags>
0

> <s_epik_input>
bjFbY0hdW2NIXVtjSF1uMVtDQEBIXShbQ0gzXSlbQ0BIXShbQ0gzXSlbTkhdW0NIMl1bQ0gyXU4yQyg9TylbQ0gyXVtOSF1DMj1P

> <s_epik_cmdline>
J2VwaWtfcHl0aG9uJywgJy1waCcsICc3LjAnLCAnLXRuJywgJzgnLCAnLW1hJywgJzIwMCcsICctbWV0YWxfYmluZGluZycsICctaW1hZScsICc8aW5maWxlLm1hZT4nLCAnLW9tYWUnLCAnPG91dGZpbGUubWFlPic=

> <r_lp_tautomer_probability>
1

> <r_epik_Ionization_Penalty>
0.0124905

> <r_epik_Ionization_Penalty_Charging>
0.0123685

> <r_epik_Ionization_Penalty_Neutral>
0.000122059

> <r_epik_State_Penalty>
0.00957041

> <r_epik_Charging_Adjusted_Penalty>
0.0219389

> <i_epik_Tot_Q>
1

> <i_epik_Tot_abs_Q>
1

> <r_epik_Metal_State_Penalty>
0.0858301

> <b_epik_Metal_Only>
0

> <s_lp_Force_Field>
OPLS_2005

> <r_lp_Energy>
25.1369

> <b_lp_Chiralities_Consistent>
1

> <s_lp_Variant>
AV-unprocessed.smi:3330-4

> <Gold.Version>
5.8.1

> <Gold.Id.Protein>
6NUR|6NUR_protein|mol2

> <Gold.PLP.Fitness>
45.8972

> <Gold.PLP.PLP>
-38.9868

> <Gold.PLP.part.hbond>
-2.0000

> <Gold.PLP.part.metal>
0.0000

> <Gold.PLP.part.buried>
-2.2308

> <Gold.PLP.part.nonpolar>
-34.6444

> <Gold.PLP.part.repulsive>
1.0881

> <Gold.PLP.ligand.clash>
0.0000

> <Gold.PLP.ligand.torsion>
0.9560

> <Gold.PLP.Chemscore.Hbond>
2.8723

> <Gold.PLP.Chemscore.CHOScore>
0.0000

> <Gold.PLP.Chemscore.Metal>
0.0000

> <Gold.Chemscore.Hbonds>
donor molecule, donor type, donor heavy atom, donor atom, acceptor molecule, acceptor atom, score
      L1  H     3    39       P1  8028  2.00
      P1  H  7997  8010       L1    12  0.96

> <Gold.PLP.Chemscore.Internal.Correction>
0.2054

> <Gold.Rescore>
     Score         DG    S(hbond)    S(metal)    S(lipo)     H(rot)  DE(clash)    DE(int)     intcor
     11.19     -12.53       1.82        0.00      66.67       2.67       0.13       1.22       ----

> <Gold.Chemscore.Fitness>
11.1875

> <Gold.Chemscore.DG>
-12.5323

> <Gold.Chemscore.ZeroCoef>
-5.4800

> <Gold.Chemscore.Hbond>
1.8200

> <Gold.Chemscore.Metal>
0.0000

> <Gold.Chemscore.Lipo>
66.6664

> <Gold.Chemscore.Internal_Hbond>
0.0000

> <Gold.Chemscore.DEClash>
0.1276

> <Gold.Chemscore.DEInternal>
1.2171

> <Gold.Chemscore.Rot>
2.6666

> <Gold.Chemscore.Internal.Correction>
   9.000000E+99

> <Gold.Chemscore.Hbonds>
donor molecule, donor type, donor heavy atom, donor atom, acceptor molecule, acceptor atom, score
      L1  H     3    39       P1  8028  0.92
      P1  H  7997  8010       L1    12  0.81

> <Gold.Chemscore.Hbond.Weighted>
-6.0788

> <Gold.Chemscore.Metal.Weighted>
-0.0000

> <Gold.Chemscore.Lipo.Weighted>
-7.8000

> <Gold.Chemscore.Internal_Hbond.Weighted>
0.0000

> <Gold.Chemscore.DEClash.Weighted>
0.1276

> <Gold.Chemscore.DEInternal.Weighted>
1.2171

> <Gold.Chemscore.Rot.Weighted>
6.8265

> <Gold.Chemscore.Internal.Correction.Weighted>
   9.000000E+99

> <Gold.Protein.RotatedTorsions>
[ 6907 6896 6895 6894 ] final   40.34 input  -60.11 | X-H torsion
[ 7974 7965 7964 7962 ] final  174.63 input  175.53 | X-H torsion
[ 8008 7997 7996 7995 ] final   42.36 input   59.86 | X-H torsion
[ 10167 10162 10161 10158 ] final   81.85 input  -65.29 | X-H torsion
[ 10718 10713 10712 10709 ] final -136.23 input   66.30 | X-H torsion
[ 10763 10752 10751 10750 ] final -132.97 input  -60.55 | X-H torsion
[ 11005 11000 10999 10996 ] final   59.22 input  -57.11 | X-H torsion

> <Gold.Protein.ActiveResidues>
 VAL166  LYS551  ARG553  GLY616  TRP617  ASP618  TYR619  PRO620  LYS621  CYS622 
 ASP623  PHE694  ASN695  SER759  ASP760  ASP761  ALA762  ILE779  LEU786  VAL792 
 PHE793  MET794  SER795  GLU796  ALA797  LYS798  CYS799  TRP800  GLU811  SER814 

> <Gold.Protein.RotatedAtoms>
  152.1812  134.8752  160.0525 H   0  0  0  0  0  0  0  0  0  0  0  0  # atno 6907 bound_to 6896
  151.9676  133.3710  159.4067 H   0  0  0  0  0  0  0  0  0  0  0  0  # atno 6908 bound_to 6896
  150.6918  134.4097  159.5200 H   0  0  0  0  0  0  0  0  0  0  0  0  # atno 6909 bound_to 6896
  144.7218  139.9825  143.6439 H   0  0  0  0  0  0  0  0  0  0  0  0  # atno 7974 bound_to 7965
  155.2849  140.3375  155.4256 H   0  0  0  0  0  0  0  0  0  0  0  0  # atno 8008 bound_to 7997
  156.2072  140.1756  156.7813 H   0  0  0  0  0  0  0  0  0  0  0  0  # atno 8009 bound_to 7997
  154.5637  140.0682  156.8843 H   0  0  0  0  0  0  0  0  0  0  0  0  # atno 8010 bound_to 7997
  139.9350  144.6127  150.8308 H   0  0  0  0  0  0  0  0  0  0  0  0  # atno 10167 bound_to 10162
  156.2748  130.7286  151.1265 H   0  0  0  0  0  0  0  0  0  0  0  0  # atno 10718 bound_to 10713
  154.8738  135.3781  154.4497 H   0  0  0  0  0  0  0  0  0  0  0  0  # atno 10763 bound_to 10752
  153.5174  135.7029  153.5754 H   0  0  0  0  0  0  0  0  0  0  0  0  # atno 10764 bound_to 10752
  153.4016  135.3947  155.1957 H   0  0  0  0  0  0  0  0  0  0  0  0  # atno 10765 bound_to 10752
  140.0320  134.5998  155.9494 H   0  0  0  0  0  0  0  0  0  0  0  0  # atno 11005 bound_to 11000
  146.0476  139.3480  143.0659 LP  0  0  0  0  0  0  0  0  0  0  0  0  # atno 17320 bound_to 7965
  145.8256  140.9657  143.0876 LP  0  0  0  0  0  0  0  0  0  0  0  0  # atno 17321 bound_to 7965
  140.7627  143.3204  151.2634 LP  0  0  0  0  0  0  0  0  0  0  0  0  # atno 17342 bound_to 10162
  139.6751  143.9952  152.2776 LP  0  0  0  0  0  0  0  0  0  0  0  0  # atno 17343 bound_to 10162
  157.7295  131.0623  150.5768 LP  0  0  0  0  0  0  0  0  0  0  0  0  # atno 17370 bound_to 10713
  156.5868  130.4319  149.5953 LP  0  0  0  0  0  0  0  0  0  0  0  0  # atno 17371 bound_to 10713
  141.1836  133.6551  156.5123 LP  0  0  0  0  0  0  0  0  0  0  0  0  # atno 17394 bound_to 11000
  140.4210  134.7187  157.4890 LP  0  0  0  0  0  0  0  0  0  0  0  0  # atno 17395 bound_to 11000

$$$$
