AV-unprocessed.smi:290|AV-procd|sdf|2223|dock1
  -GOLD-   2262022 73D 1   1.00000     0.00000
 Structure written by MMmdl.
 59 62  0  0  0  0  0  0  0  0  2 V2000
  152.0613  144.0729  157.6730 C   0  0  0  0  0  0  0  0  0  0  0  0
  151.7430  142.7249  158.3369 C   0  0  2  0  0  0  0  0  0  0  0  0
  152.9387  141.9908  158.5867 O   0  0  0  0  0  0  0  0  0  0  0  0
  152.6955  140.5935  158.4501 C   0  0  0  0  0  0  0  0  0  0  0  0
  151.1906  140.4535  158.2387 C   0  0  0  0  0  0  0  0  0  0  0  0
  150.8266  141.7651  157.5541 C   0  0  1  0  0  0  0  0  0  0  0  0
  149.4671  142.0559  157.8193 O   0  0  0  0  0  0  0  0  0  0  0  0
  151.0753  141.7634  156.0205 C   0  0  0  0  0  0  0  0  0  0  0  0
  150.3181  140.7535  155.2985 N   0  0  0  0  0  0  0  0  0  0  0  0
  150.7277  139.4750  154.9901 C   0  0  0  0  0  0  0  0  0  0  0  0
  149.8616  138.7559  154.3286 N   0  0  0  0  0  0  0  0  0  0  0  0
  148.7807  139.6107  154.1567 C   0  0  0  0  0  0  0  0  0  0  0  0
  147.5136  139.4822  153.5323 C   0  0  0  0  0  0  0  0  0  0  0  0
  147.1333  138.3293  152.9390 N   0  0  0  0  0  0  0  0  0  0  0  0
  146.0638  138.4727  151.9642 C   0  0  0  0  0  0  0  0  0  0  0  0
  145.5806  137.0479  151.6716 C   0  0  0  0  0  0  0  0  0  0  0  0
  146.0309  136.2201  152.8960 C   0  0  1  0  0  0  0  0  0  0  0  0
  146.8621  135.0173  152.5768 N   0  3  2  0  0  0  0  0  0  0  0  0
  146.5485  134.3454  151.2891 C   0  0  0  0  0  0  0  0  0  0  0  0
  146.9631  134.0486  153.6986 C   0  0  0  0  0  0  0  0  0  0  0  0
  145.9515  132.8968  153.5696 C   0  0  0  0  0  0  0  0  0  0  0  0
  145.9812  132.0963  154.7324 O   0  0  0  0  0  0  0  0  0  0  0  0
  146.7235  137.2440  153.8198 C   0  0  1  0  0  0  0  0  0  0  0  0
  147.8415  136.7196  154.7437 C   0  0  0  0  0  0  0  0  0  0  0  0
  146.6794  140.5548  153.5529 N   0  0  0  0  0  0  0  0  0  0  0  0
  147.0659  141.6869  154.1497 C   0  0  0  0  0  0  0  0  0  0  0  0
  148.2167  141.9513  154.7730 N   0  0  0  0  0  0  0  0  0  0  0  0
  149.0513  140.8720  154.7548 C   0  0  0  0  0  0  0  0  0  0  0  0
  145.1438  135.8792  153.4292 H   0  0  0  0  0  0  0  0  0  0  0  0
  145.9431  137.6418  154.4712 H   0  0  0  0  0  0  0  0  0  0  0  0
  151.1479  144.6217  157.4431 H   0  0  0  0  0  0  0  0  0  0  0  0
  152.6227  143.9449  156.7475 H   0  0  0  0  0  0  0  0  0  0  0  0
  152.6637  144.6947  158.3352 H   0  0  0  0  0  0  0  0  0  0  0  0
  151.2966  142.9179  159.3145 H   0  0  0  0  0  0  0  0  0  0  0  0
  153.2421  140.2270  157.5806 H   0  0  0  0  0  0  0  0  0  0  0  0
  153.0427  140.0427  159.3242 H   0  0  0  0  0  0  0  0  0  0  0  0
  150.9157  139.5565  157.6856 H   0  0  0  0  0  0  0  0  0  0  0  0
  150.7040  140.3903  159.2136 H   0  0  0  0  0  0  0  0  0  0  0  0
  148.9451  141.7337  157.1003 H   0  0  0  0  0  0  0  0  0  0  0  0
  150.8191  142.7337  155.5937 H   0  0  0  0  0  0  0  0  0  0  0  0
  152.1335  141.6090  155.8060 H   0  0  0  0  0  0  0  0  0  0  0  0
  151.6937  139.0877  155.2805 H   0  0  0  0  0  0  0  0  0  0  0  0
  145.2480  139.0698  152.3750 H   0  0  0  0  0  0  0  0  0  0  0  0
  146.4209  138.9679  151.0606 H   0  0  0  0  0  0  0  0  0  0  0  0
  144.4974  137.0239  151.5481 H   0  0  0  0  0  0  0  0  0  0  0  0
  146.0063  136.6931  150.7354 H   0  0  0  0  0  0  0  0  0  0  0  0
  145.6703  133.7047  151.3680 H   0  0  0  0  0  0  0  0  0  0  0  0
  147.3854  133.7131  150.9919 H   0  0  0  0  0  0  0  0  0  0  0  0
  146.3775  135.0566  150.4821 H   0  0  0  0  0  0  0  0  0  0  0  0
  147.9805  133.6588  153.7528 H   0  0  0  0  0  0  0  0  0  0  0  0
  146.7839  134.5561  154.6482 H   0  0  0  0  0  0  0  0  0  0  0  0
  144.9369  133.2540  153.3975 H   0  0  0  0  0  0  0  0  0  0  0  0
  146.2141  132.2695  152.7174 H   0  0  0  0  0  0  0  0  0  0  0  0
  145.0951  131.8503  154.9528 H   0  0  0  0  0  0  0  0  0  0  0  0
  147.4913  135.8750  155.3373 H   0  0  0  0  0  0  0  0  0  0  0  0
  148.1643  137.4928  155.4416 H   0  0  0  0  0  0  0  0  0  0  0  0
  148.7229  136.3991  154.1896 H   0  0  0  0  0  0  0  0  0  0  0  0
  146.3504  142.4957  154.1257 H   0  0  0  0  0  0  0  0  0  0  0  0
  147.8012  135.3718  152.4601 H   0  0  0  0  0  0  0  0  0  0  0  0
  1  2  1  0  0  0  0
  1 31  1  0  0  0  0
  1 32  1  0  0  0  0
  1 33  1  0  0  0  0
  2  6  1  0  0  0  0
  2  3  1  0  0  0  0
  2 34  1  0  0  0  0
  3  4  1  0  0  0  0
  4  5  1  0  0  0  0
  4 35  1  0  0  0  0
  4 36  1  0  0  0  0
  5  6  1  0  0  0  0
  5 37  1  0  0  0  0
  5 38  1  0  0  0  0
  6  7  1  0  0  0  0
  6  8  1  0  0  0  0
  7 39  1  0  0  0  0
  8  9  1  0  0  0  0
  8 40  1  0  0  0  0
  8 41  1  0  0  0  0
  9 28  1  0  0  0  0
  9 10  1  0  0  0  0
 10 11  2  0  0  0  0
 10 42  1  0  0  0  0
 11 12  1  0  0  0  0
 12 28  2  0  0  0  0
 12 13  1  0  0  0  0
 13 14  1  0  0  0  0
 13 25  2  0  0  0  0
 14 23  1  0  0  0  0
 14 15  1  0  0  0  0
 15 16  1  0  0  0  0
 15 43  1  0  0  0  0
 15 44  1  0  0  0  0
 16 17  1  0  0  0  0
 16 45  1  0  0  0  0
 16 46  1  0  0  0  0
 17 29  1  0  0  0  0
 17 18  1  0  0  0  0
 17 23  1  0  0  0  0
 18 19  1  0  0  0  0
 18 20  1  0  0  0  0
 18 59  1  0  0  0  0
 19 47  1  0  0  0  0
 19 48  1  0  0  0  0
 19 49  1  0  0  0  0
 20 21  1  0  0  0  0
 20 50  1  0  0  0  0
 20 51  1  0  0  0  0
 21 22  1  0  0  0  0
 21 52  1  0  0  0  0
 21 53  1  0  0  0  0
 22 54  1  0  0  0  0
 23 30  1  0  0  0  0
 23 24  1  0  0  0  0
 24 55  1  0  0  0  0
 24 56  1  0  0  0  0
 24 57  1  0  0  0  0
 25 26  1  0  0  0  0
 26 27  2  0  0  0  0
 26 58  1  0  0  0  0
 27 28  1  0  0  0  0
M  CHG  1  18   1
M  END
> <s_m_source_file>
AV-unprocessed.smi

> <i_m_source_file_index>
290

> <i_lp_mmshare_version>
43012

> <i_f3d_flags>
0

> <s_epik_input>
W0NIMl0xW0NIMl1PW0NAQEhdKFtDSDNdKVtDQEBdMShbT0hdKVtDSDJdbihbY0hdbjIpYyhjMjMpbltjSF1uYzNONFtDSDJdW0NIMl1bQ0BIXShbQ0BIXTRbQ0gzXSlOKFtDSDNdKVtDSDJdW0NIMl1bT0hd

> <s_epik_cmdline>
J2VwaWtfcHl0aG9uJywgJy1waCcsICc3LjAnLCAnLXRuJywgJzgnLCAnLW1hJywgJzIwMCcsICctbWV0YWxfYmluZGluZycsICctaW1hZScsICc8aW5maWxlLm1hZT4nLCAnLW9tYWUnLCAnPG91dGZpbGUubWFlPic=

> <r_lp_tautomer_probability>
1

> <r_epik_Ionization_Penalty>
0.0036983

> <r_epik_Ionization_Penalty_Charging>
0.0032725

> <r_epik_Ionization_Penalty_Neutral>
0.000425798

> <r_epik_State_Penalty>
-0

> <r_epik_Charging_Adjusted_Penalty>
0.0032725

> <i_epik_Tot_Q>
1

> <i_epik_Tot_abs_Q>
1

> <r_epik_Metal_State_Penalty>
-0

> <b_epik_Metal_Only>
0

> <s_lp_Force_Field>
OPLS_2005

> <r_lp_Energy>
69.2508

> <b_lp_Chiralities_Consistent>
1

> <s_lp_Variant>
AV-unprocessed.smi:290-9

> <Gold.Version>
5.8.1

> <Gold.Id.Protein>
6NUR|6NUR_protein|mol2

> <Gold.PLP.Fitness>
43.9457

> <Gold.PLP.PLP>
-38.5107

> <Gold.PLP.part.hbond>
-3.3519

> <Gold.PLP.part.metal>
0.0000

> <Gold.PLP.part.buried>
-1.2234

> <Gold.PLP.part.nonpolar>
-37.0209

> <Gold.PLP.part.repulsive>
3.0889

> <Gold.PLP.ligand.clash>
0.0113

> <Gold.PLP.ligand.torsion>
1.7179

> <Gold.PLP.Chemscore.Hbond>
2.8240

> <Gold.PLP.Chemscore.CHOScore>
0.0000

> <Gold.PLP.Chemscore.Metal>
0.0000

> <Gold.Chemscore.Hbonds>
donor molecule, donor type, donor heavy atom, donor atom, acceptor molecule, acceptor atom, score
      L1  H    18    59       P1  7948  2.00
      L1  H    22    54       P1 10957  0.07

> <Gold.PLP.Chemscore.Internal.Correction>
0.4100

> <Gold.Rescore>
     Score         DG    S(hbond)    S(metal)    S(lipo)     H(rot)  DE(clash)    DE(int)     intcor
      6.15     -12.05       1.71        0.00      87.49       3.67       2.21       3.70       ----

> <Gold.Chemscore.Fitness>
6.1462

> <Gold.Chemscore.DG>
-12.0546

> <Gold.Chemscore.ZeroCoef>
-5.4800

> <Gold.Chemscore.Hbond>
1.7132

> <Gold.Chemscore.Metal>
0.0000

> <Gold.Chemscore.Lipo>
87.4944

> <Gold.Chemscore.Internal_Hbond>
0.0000

> <Gold.Chemscore.DEClash>
2.2061

> <Gold.Chemscore.DEInternal>
3.7023

> <Gold.Chemscore.Rot>
3.6658

> <Gold.Chemscore.Internal.Correction>
   9.000000E+99

> <Gold.Chemscore.Hbonds>
donor molecule, donor type, donor heavy atom, donor atom, acceptor molecule, acceptor atom, score
      L1  H    18    59       P1  7948  0.93
      L1  H    22    54       P1 10957  0.02

> <Gold.Chemscore.Hbond.Weighted>
-5.7222

> <Gold.Chemscore.Metal.Weighted>
-0.0000

> <Gold.Chemscore.Lipo.Weighted>
-10.2368

> <Gold.Chemscore.Internal_Hbond.Weighted>
0.0000

> <Gold.Chemscore.DEClash.Weighted>
2.2061

> <Gold.Chemscore.DEInternal.Weighted>
3.7023

> <Gold.Chemscore.Rot.Weighted>
9.3844

> <Gold.Chemscore.Internal.Correction.Weighted>
   9.000000E+99

> <Gold.Protein.RotatedTorsions>
[ 6907 6896 6895 6894 ] final -131.46 input  -60.11 | X-H torsion
[ 7974 7965 7964 7962 ] final -155.25 input  175.53 | X-H torsion
[ 8008 7997 7996 7995 ] final  -93.46 input   59.86 | X-H torsion
[ 10167 10162 10161 10158 ] final   18.07 input  -65.29 | X-H torsion
[ 10718 10713 10712 10709 ] final   56.67 input   66.30 | X-H torsion
[ 10763 10752 10751 10750 ] final -177.48 input  -60.55 | X-H torsion
[ 11005 11000 10999 10996 ] final -102.69 input  -57.11 | X-H torsion

> <Gold.Protein.ActiveResidues>
 VAL166  LYS551  ARG553  GLY616  TRP617  ASP618  TYR619  PRO620  LYS621  CYS622 
 ASP623  PHE694  ASN695  SER759  ASP760  ASP761  ALA762  ILE779  LEU786  VAL792 
 PHE793  MET794  SER795  GLU796  ALA797  LYS798  CYS799  TRP800  GLU811  SER814 

> <Gold.Protein.RotatedAtoms>
  150.9512  133.6547  159.2771 H   0  0  0  0  0  0  0  0  0  0  0  0  # atno 6907 bound_to 6896
  151.3902  135.0953  159.9533 H   0  0  0  0  0  0  0  0  0  0  0  0  # atno 6908 bound_to 6896
  152.5110  133.9028  159.7504 H   0  0  0  0  0  0  0  0  0  0  0  0  # atno 6909 bound_to 6896
  144.7649  140.4275  143.5949 H   0  0  0  0  0  0  0  0  0  0  0  0  # atno 7974 bound_to 7965
  154.7359  140.0499  157.0768 H   0  0  0  0  0  0  0  0  0  0  0  0  # atno 8008 bound_to 7997
  155.0241  140.3150  155.4763 H   0  0  0  0  0  0  0  0  0  0  0  0  # atno 8009 bound_to 7997
  156.2853  140.2162  156.5360 H   0  0  0  0  0  0  0  0  0  0  0  0  # atno 8010 bound_to 7997
  140.5680  143.9214  150.6691 H   0  0  0  0  0  0  0  0  0  0  0  0  # atno 10167 bound_to 10162
  157.5450  130.8724  149.8878 H   0  0  0  0  0  0  0  0  0  0  0  0  # atno 10718 bound_to 10713
  154.5596  135.2819  155.0931 H   0  0  0  0  0  0  0  0  0  0  0  0  # atno 10763 bound_to 10752
  154.2345  135.6368  153.5190 H   0  0  0  0  0  0  0  0  0  0  0  0  # atno 10764 bound_to 10752
  153.0025  135.5545  154.6187 H   0  0  0  0  0  0  0  0  0  0  0  0  # atno 10765 bound_to 10752
  141.1178  133.8579  157.1392 H   0  0  0  0  0  0  0  0  0  0  0  0  # atno 11005 bound_to 11000
  145.6501  139.1563  143.2867 LP  0  0  0  0  0  0  0  0  0  0  0  0  # atno 17320 bound_to 7965
  146.1747  140.6591  142.9217 LP  0  0  0  0  0  0  0  0  0  0  0  0  # atno 17321 bound_to 7965
  140.2682  143.3475  152.1261 LP  0  0  0  0  0  0  0  0  0  0  0  0  # atno 17342 bound_to 10162
  139.5103  144.6881  151.5833 LP  0  0  0  0  0  0  0  0  0  0  0  0  # atno 17343 bound_to 10162
  156.0528  130.3714  150.1161 LP  0  0  0  0  0  0  0  0  0  0  0  0  # atno 17370 bound_to 10713
  156.9338  130.9722  151.3528 LP  0  0  0  0  0  0  0  0  0  0  0  0  # atno 17371 bound_to 10713
  140.0113  134.9987  157.0400 LP  0  0  0  0  0  0  0  0  0  0  0  0  # atno 17394 bound_to 11000
  140.4595  134.1498  155.7190 LP  0  0  0  0  0  0  0  0  0  0  0  0  # atno 17395 bound_to 11000

$$$$
