AV-unprocessed.smi:2822|AV-procd|sdf|10875|dock1
  -GOLD-   2272015313D 1   1.00000     0.00000
 Structure written by MMmdl.
 40 42  0  0  0  0  0  0  0  0  2 V2000
  146.1846  137.8099  151.9440 Cl  0  0  0  0  0  0  0  0  0  0  0  0
  145.0953  136.6612  152.6406 C   0  0  0  0  0  0  0  0  0  0  0  0
  143.7164  136.9496  152.6959 C   0  0  0  0  0  0  0  0  0  0  0  0
  142.8012  136.1084  153.2209 N   0  0  0  0  0  0  0  0  0  0  0  0
  143.2399  134.9327  153.7161 C   0  0  0  0  0  0  0  0  0  0  0  0
  144.5949  134.5452  153.7109 C   0  0  0  0  0  0  0  0  0  0  0  0
  145.5533  135.4284  153.1600 C   0  0  0  0  0  0  0  0  0  0  0  0
  146.9229  135.1265  153.1157 N   0  0  0  0  0  0  0  0  0  0  0  0
  147.4579  133.9627  153.8054 C   0  0  0  0  0  0  0  0  0  0  0  0
  147.4112  132.7124  152.9160 C   0  0  1  0  0  0  0  0  0  0  0  0
  148.2267  131.5528  153.5166 C   0  0  0  0  0  0  0  0  0  0  0  0
  148.1080  130.3407  152.6732 N   0  3  1  0  0  0  0  0  0  0  0  0
  148.9129  129.2065  153.1935 C   0  0  0  0  0  0  0  0  0  0  0  0
  148.8433  127.9979  152.2460 C   0  0  0  0  0  0  0  0  0  0  0  0
  147.3881  127.5769  152.0034 C   0  0  0  0  0  0  0  0  0  0  0  0
  146.5728  128.7730  151.4939 C   0  0  0  0  0  0  0  0  0  0  0  0
  146.6823  129.9743  152.4539 C   0  0  2  0  0  0  0  0  0  0  0  0
  145.9022  131.1914  151.9196 C   0  0  0  0  0  0  0  0  0  0  0  0
  146.0553  132.2921  152.8064 O   0  0  0  0  0  0  0  0  0  0  0  0
  143.3370  137.8832  152.3069 H   0  0  0  0  0  0  0  0  0  0  0  0
  142.4870  134.2789  154.1310 H   0  0  0  0  0  0  0  0  0  0  0  0
  144.8704  133.5879  154.1267 H   0  0  0  0  0  0  0  0  0  0  0  0
  147.5015  135.5895  152.4289 H   0  0  0  0  0  0  0  0  0  0  0  0
  148.4922  134.1710  154.0817 H   0  0  0  0  0  0  0  0  0  0  0  0
  146.9021  133.7911  154.7281 H   0  0  0  0  0  0  0  0  0  0  0  0
  147.8046  132.9601  151.9278 H   0  0  0  0  0  0  0  0  0  0  0  0
  149.2764  131.8388  153.5955 H   0  0  0  0  0  0  0  0  0  0  0  0
  147.8783  131.3306  154.5269 H   0  0  0  0  0  0  0  0  0  0  0  0
  149.9515  129.5185  153.3104 H   0  0  0  0  0  0  0  0  0  0  0  0
  148.5521  128.9261  154.1843 H   0  0  0  0  0  0  0  0  0  0  0  0
  149.3166  128.2481  151.2956 H   0  0  0  0  0  0  0  0  0  0  0  0
  149.4078  127.1634  152.6632 H   0  0  0  0  0  0  0  0  0  0  0  0
  147.3466  126.7584  151.2840 H   0  0  0  0  0  0  0  0  0  0  0  0
  146.9529  127.2008  152.9303 H   0  0  0  0  0  0  0  0  0  0  0  0
  146.9275  129.0579  150.5022 H   0  0  0  0  0  0  0  0  0  0  0  0
  145.5283  128.4816  151.3760 H   0  0  0  0  0  0  0  0  0  0  0  0
  146.2550  129.6907  153.4175 H   0  0  0  0  0  0  0  0  0  0  0  0
  146.2392  131.4688  150.9193 H   0  0  0  0  0  0  0  0  0  0  0  0
  144.8410  130.9531  151.8415 H   0  0  0  0  0  0  0  0  0  0  0  0
  148.4896  130.5770  151.7682 H   0  0  0  0  0  0  0  0  0  0  0  0
  1  2  1  0  0  0  0
  2  7  1  0  0  0  0
  2  3  2  0  0  0  0
  3  4  1  0  0  0  0
  3 20  1  0  0  0  0
  4  5  2  0  0  0  0
  5  6  1  0  0  0  0
  5 21  1  0  0  0  0
  6  7  2  0  0  0  0
  6 22  1  0  0  0  0
  7  8  1  0  0  0  0
  8  9  1  0  0  0  0
  8 23  1  0  0  0  0
  9 10  1  0  0  0  0
  9 24  1  0  0  0  0
  9 25  1  0  0  0  0
 10 19  1  0  0  0  0
 10 11  1  0  0  0  0
 10 26  1  0  0  0  0
 11 12  1  0  0  0  0
 11 27  1  0  0  0  0
 11 28  1  0  0  0  0
 12 17  1  0  0  0  0
 12 13  1  0  0  0  0
 12 40  1  0  0  0  0
 13 14  1  0  0  0  0
 13 29  1  0  0  0  0
 13 30  1  0  0  0  0
 14 15  1  0  0  0  0
 14 31  1  0  0  0  0
 14 32  1  0  0  0  0
 15 16  1  0  0  0  0
 15 33  1  0  0  0  0
 15 34  1  0  0  0  0
 16 17  1  0  0  0  0
 16 35  1  0  0  0  0
 16 36  1  0  0  0  0
 17 18  1  0  0  0  0
 17 37  1  0  0  0  0
 18 19  1  0  0  0  0
 18 38  1  0  0  0  0
 18 39  1  0  0  0  0
M  CHG  1  12   1
M  END
> <s_m_source_file>
AV-unprocessed.smi

> <i_m_source_file_index>
2822

> <i_lp_mmshare_version>
43012

> <i_f3d_flags>
0

> <s_epik_input>
Q2xjMVtjSF1uW2NIXVtjSF1jMVtOSF1bQ0gyXVtDQEhdKFtDSDJdMilPW0NIMl1bQ0BASF0oTjIzKVtDSDJdW0NIMl1bQ0gyXVtDSDJdMw==

> <s_epik_cmdline>
J2VwaWtfcHl0aG9uJywgJy1waCcsICc3LjAnLCAnLXRuJywgJzgnLCAnLW1hJywgJzIwMCcsICctbWV0YWxfYmluZGluZycsICctaW1hZScsICc8aW5maWxlLm1hZT4nLCAnLW9tYWUnLCAnPG91dGZpbGUubWFlPic=

> <r_lp_tautomer_probability>
0.999999

> <r_epik_Ionization_Penalty>
0.88937

> <r_epik_Ionization_Penalty_Charging>
0.0803403

> <r_epik_Ionization_Penalty_Neutral>
0.80903

> <r_epik_State_Penalty>
0.931884

> <r_epik_Charging_Adjusted_Penalty>
1.01222

> <i_epik_Tot_Q>
1

> <i_epik_Tot_abs_Q>
1

> <r_epik_Metal_State_Penalty>
0.0782275

> <b_epik_Metal_Only>
0

> <s_lp_Force_Field>
OPLS_2005

> <r_lp_Energy>
28.742

> <b_lp_Chiralities_Consistent>
1

> <s_lp_Variant>
AV-unprocessed.smi:2822-16

> <Gold.Version>
5.8.1

> <Gold.Id.Protein>
6NUR|6NUR_protein|mol2

> <Gold.PLP.Fitness>
43.9334

> <Gold.PLP.PLP>
-31.0335

> <Gold.PLP.part.hbond>
-2.0000

> <Gold.PLP.part.metal>
0.0000

> <Gold.PLP.part.buried>
-1.5255

> <Gold.PLP.part.nonpolar>
-27.6229

> <Gold.PLP.part.repulsive>
0.3136

> <Gold.PLP.ligand.clash>
0.0000

> <Gold.PLP.ligand.torsion>
0.2753

> <Gold.PLP.Chemscore.Hbond>
2.0000

> <Gold.PLP.Chemscore.CHOScore>
2.4827

> <Gold.PLP.Chemscore.Metal>
0.0000

> <Gold.Chemscore.Hbonds>
donor molecule, donor type, donor heavy atom, donor atom, acceptor molecule, acceptor atom, score
      L1  H     8    23       P1  7948  1.00
      L1  H    12    40       P1 10747  1.00
      L1  C     3    20       P1 10171  0.62
      L1  C     3    20       P1 10175  0.91
      L1  C     5    21       P1 10957  0.84

> <Gold.PLP.Chemscore.Internal.Correction>
0.0023

> <Gold.Rescore>
     Score         DG    S(hbond)    S(metal)    S(lipo)     H(rot)  DE(clash)    DE(int)     intcor
     17.64     -19.30       1.99        0.00      86.95       1.17       0.13       1.53       ----

> <Gold.Chemscore.Fitness>
17.6409

> <Gold.Chemscore.DG>
-19.3007

> <Gold.Chemscore.ZeroCoef>
-5.4800

> <Gold.Chemscore.Hbond>
1.9882

> <Gold.Chemscore.Metal>
0.0000

> <Gold.Chemscore.Lipo>
86.9538

> <Gold.Chemscore.Internal_Hbond>
0.0000

> <Gold.Chemscore.DEClash>
0.1251

> <Gold.Chemscore.DEInternal>
1.5347

> <Gold.Chemscore.Rot>
1.1693

> <Gold.Chemscore.Internal.Correction>
   9.000000E+99

> <Gold.Chemscore.Hbonds>
donor molecule, donor type, donor heavy atom, donor atom, acceptor molecule, acceptor atom, score
      L1  H     8    23       P1  7948  0.97
      L1  H    12    40       P1 10747  0.90

> <Gold.Chemscore.Hbond.Weighted>
-6.6405

> <Gold.Chemscore.Metal.Weighted>
-0.0000

> <Gold.Chemscore.Lipo.Weighted>
-10.1736

> <Gold.Chemscore.Internal_Hbond.Weighted>
0.0000

> <Gold.Chemscore.DEClash.Weighted>
0.1251

> <Gold.Chemscore.DEInternal.Weighted>
1.5347

> <Gold.Chemscore.Rot.Weighted>
2.9934

> <Gold.Chemscore.Internal.Correction.Weighted>
   9.000000E+99

> <Gold.Protein.RotatedTorsions>
[ 6907 6896 6895 6894 ] final  -97.17 input  -60.11 | X-H torsion
[ 7974 7965 7964 7962 ] final   12.43 input  175.53 | X-H torsion
[ 8008 7997 7996 7995 ] final  -52.47 input   59.86 | X-H torsion
[ 10167 10162 10161 10158 ] final -103.89 input  -65.29 | X-H torsion
[ 10718 10713 10712 10709 ] final  -80.29 input   66.30 | X-H torsion
[ 10763 10752 10751 10750 ] final  137.34 input  -60.55 | X-H torsion
[ 11005 11000 10999 10996 ] final   14.53 input  -57.11 | X-H torsion

> <Gold.Protein.ActiveResidues>
 VAL166  LYS551  ARG553  GLY616  TRP617  ASP618  TYR619  PRO620  LYS621  CYS622 
 ASP623  PHE694  ASN695  SER759  ASP760  ASP761  ALA762  ILE779  LEU786  VAL792 
 PHE793  MET794  SER795  GLU796  ALA797  LYS798  CYS799  TRP800  GLU811  SER814 

> <Gold.Protein.RotatedAtoms>
  150.7008  134.1390  159.4097 H   0  0  0  0  0  0  0  0  0  0  0  0  # atno 6907 bound_to 6896
  151.9375  135.0226  160.0543 H   0  0  0  0  0  0  0  0  0  0  0  0  # atno 6908 bound_to 6896
  152.2122  133.4885  159.5153 H   0  0  0  0  0  0  0  0  0  0  0  0  # atno 6909 bound_to 6896
  146.2351  139.9338  142.8492 H   0  0  0  0  0  0  0  0  0  0  0  0  # atno 7974 bound_to 7965
  154.4107  140.1223  156.4997 H   0  0  0  0  0  0  0  0  0  0  0  0  # atno 8008 bound_to 7997
  155.6907  140.3495  155.4873 H   0  0  0  0  0  0  0  0  0  0  0  0  # atno 8009 bound_to 7997
  155.9471  140.1098  157.0997 H   0  0  0  0  0  0  0  0  0  0  0  0  # atno 8010 bound_to 7997
  140.2152  143.3717  152.1017 H   0  0  0  0  0  0  0  0  0  0  0  0  # atno 10167 bound_to 10162
  156.0073  130.4570  150.3777 H   0  0  0  0  0  0  0  0  0  0  0  0  # atno 10718 bound_to 10713
  153.8715  135.3055  155.3442 H   0  0  0  0  0  0  0  0  0  0  0  0  # atno 10763 bound_to 10752
  154.7803  135.4839  153.9834 H   0  0  0  0  0  0  0  0  0  0  0  0  # atno 10764 bound_to 10752
  153.1403  135.6823  153.9133 H   0  0  0  0  0  0  0  0  0  0  0  0  # atno 10765 bound_to 10752
  140.4684  134.1056  155.7728 H   0  0  0  0  0  0  0  0  0  0  0  0  # atno 11005 bound_to 11000
  145.2019  140.9858  143.4151 LP  0  0  0  0  0  0  0  0  0  0  0  0  # atno 17320 bound_to 7965
  144.9766  139.3825  143.6282 LP  0  0  0  0  0  0  0  0  0  0  0  0  # atno 17321 bound_to 7965
  139.5165  144.6978  151.5581 LP  0  0  0  0  0  0  0  0  0  0  0  0  # atno 17342 bound_to 10162
  140.6295  143.9104  150.6593 LP  0  0  0  0  0  0  0  0  0  0  0  0  # atno 17343 bound_to 10162
  157.1859  131.0403  151.2725 LP  0  0  0  0  0  0  0  0  0  0  0  0  # atno 17370 bound_to 10713
  157.4105  130.7382  149.6835 LP  0  0  0  0  0  0  0  0  0  0  0  0  # atno 17371 bound_to 10713
  141.1588  133.8832  157.1904 LP  0  0  0  0  0  0  0  0  0  0  0  0  # atno 17394 bound_to 11000
  139.9900  135.0068  156.9953 LP  0  0  0  0  0  0  0  0  0  0  0  0  # atno 17395 bound_to 11000

$$$$
