AV-unprocessed.smi:1723|AV-procd|sdf|6945|dock2
  -GOLD-   22720 8153D 1   1.00000     0.00000
 Structure written by MMmdl.
 38 38  0  0  0  0  0  0  0  0  1 V2000
  151.7237  143.3978  161.7366 C   0  0  0  0  0  0  0  0  0  0  0  0
  152.7655  142.7584  160.8121 C   0  0  0  0  0  0  0  0  0  0  0  0
  152.2822  141.4327  160.2075 C   0  0  0  0  0  0  0  0  0  0  0  0
  151.5310  141.6262  158.8855 C   0  0  0  0  0  0  0  0  0  0  0  0
  150.7599  140.4583  158.6297 O   0  0  0  0  0  0  0  0  0  0  0  0
  151.5086  139.2714  158.3817 C   0  0  2  0  0  0  0  0  0  0  0  0
  151.6688  139.1349  156.8599 C   0  0  0  0  0  0  0  0  0  0  0  0
  150.7879  138.0525  158.9806 C   0  0  0  0  0  0  0  0  0  0  0  0
  151.3880  137.3257  159.7717 O   0  0  0  0  0  0  0  0  0  0  0  0
  149.5258  137.8582  158.5487 N   0  0  0  0  0  0  0  0  0  0  0  0
  148.6049  136.8522  158.8882 C   0  0  0  0  0  0  0  0  0  0  0  0
  148.0754  136.6627  160.1254 C   0  0  0  0  0  0  0  0  0  0  0  0
  147.1180  135.6047  160.4017 C   0  0  0  0  0  0  0  0  0  0  0  0
  146.5993  135.3481  161.8083 C   0  0  0  0  0  0  0  0  0  0  0  0
  146.9444  134.1334  162.2375 F   0  0  0  0  0  0  0  0  0  0  0  0
  147.0801  136.2475  162.6670 F   0  0  0  0  0  0  0  0  0  0  0  0
  145.2695  135.4306  161.8221 F   0  0  0  0  0  0  0  0  0  0  0  0
  146.7826  134.8131  159.3665 C   0  0  0  0  0  0  0  0  0  0  0  0
  147.3034  135.0153  158.0868 N   0  0  0  0  0  0  0  0  0  0  0  0
  148.1954  135.9816  157.7734 C   0  0  0  0  0  0  0  0  0  0  0  0
  148.6116  136.0916  156.6205 O   0  0  0  0  0  0  0  0  0  0  0  0
  146.9876  134.3903  157.3591 H   0  0  0  0  0  0  0  0  0  0  0  0
  152.0932  144.3377  162.1469 H   0  0  0  0  0  0  0  0  0  0  0  0
  151.4842  142.7410  162.5733 H   0  0  0  0  0  0  0  0  0  0  0  0
  150.7982  143.6099  161.2007 H   0  0  0  0  0  0  0  0  0  0  0  0
  153.0131  143.4562  160.0114 H   0  0  0  0  0  0  0  0  0  0  0  0
  153.6862  142.5911  161.3722 H   0  0  0  0  0  0  0  0  0  0  0  0
  153.1364  140.7751  160.0415 H   0  0  0  0  0  0  0  0  0  0  0  0
  151.6329  140.9226  160.9198 H   0  0  0  0  0  0  0  0  0  0  0  0
  150.8764  142.4965  158.9504 H   0  0  0  0  0  0  0  0  0  0  0  0
  152.2454  141.8098  158.0821 H   0  0  0  0  0  0  0  0  0  0  0  0
  152.5028  139.3713  158.8219 H   0  0  0  0  0  0  0  0  0  0  0  0
  152.2170  138.2293  156.5979 H   0  0  0  0  0  0  0  0  0  0  0  0
  152.2211  139.9822  156.4532 H   0  0  0  0  0  0  0  0  0  0  0  0
  150.7024  139.1005  156.3551 H   0  0  0  0  0  0  0  0  0  0  0  0
  149.1929  138.5091  157.8516 H   0  0  0  0  0  0  0  0  0  0  0  0
  148.3348  137.3075  160.9484 H   0  0  0  0  0  0  0  0  0  0  0  0
  146.1066  133.9736  159.4369 H   0  0  0  0  0  0  0  0  0  0  0  0
  1  2  1  0  0  0  0
  1 23  1  0  0  0  0
  1 24  1  0  0  0  0
  1 25  1  0  0  0  0
  2  3  1  0  0  0  0
  2 26  1  0  0  0  0
  2 27  1  0  0  0  0
  3  4  1  0  0  0  0
  3 28  1  0  0  0  0
  3 29  1  0  0  0  0
  4  5  1  0  0  0  0
  4 30  1  0  0  0  0
  4 31  1  0  0  0  0
  5  6  1  0  0  0  0
  6  7  1  0  0  0  0
  6  8  1  0  0  0  0
  6 32  1  0  0  0  0
  7 33  1  0  0  0  0
  7 34  1  0  0  0  0
  7 35  1  0  0  0  0
  8  9  2  0  0  0  0
  8 10  1  0  0  0  0
 10 11  1  0  0  0  0
 10 36  1  0  0  0  0
 11 20  1  0  0  0  0
 11 12  2  0  0  0  0
 12 13  1  0  0  0  0
 12 37  1  0  0  0  0
 13 14  1  0  0  0  0
 13 18  2  0  0  0  0
 14 15  1  0  0  0  0
 14 16  1  0  0  0  0
 14 17  1  0  0  0  0
 18 19  1  0  0  0  0
 18 38  1  0  0  0  0
 19 22  1  0  0  0  0
 19 20  1  0  0  0  0
 20 21  2  0  0  0  0
M  END
> <s_m_source_file>
AV-unprocessed.smi

> <i_m_source_file_index>
1723

> <i_lp_mmshare_version>
43012

> <i_f3d_flags>
0

> <s_epik_input>
W0NIM11bQ0gyXVtDSDJdW0NIMl1PW0NASF0oW0NIM10pQyg9TylbTkhdYzFbY0hdYyhDKEYpKEYpRilbY0hdW25IXWMxPU8=

> <s_epik_cmdline>
J2VwaWtfcHl0aG9uJywgJy1waCcsICc3LjAnLCAnLXRuJywgJzgnLCAnLW1hJywgJzIwMCcsICctbWV0YWxfYmluZGluZycsICctaW1hZScsICc8aW5maWxlLm1hZT4nLCAnLW9tYWUnLCAnPG91dGZpbGUubWFlPic=

> <r_lp_tautomer_probability>
0.999

> <r_epik_Ionization_Penalty>
0.00763408

> <r_epik_Ionization_Penalty_Charging>
0.00763398

> <r_epik_Ionization_Penalty_Neutral>
9.29819e-08

> <r_epik_State_Penalty>
0.00571302

> <r_epik_Charging_Adjusted_Penalty>
0.013347

> <i_epik_Tot_Q>
0

> <i_epik_Tot_abs_Q>
0

> <r_epik_Metal_State_Penalty>
0.392814

> <b_epik_Metal_Only>
0

> <s_lp_Force_Field>
OPLS_2005

> <r_lp_Energy>
19.1413

> <b_lp_Chiralities_Consistent>
1

> <s_lp_Variant>
AV-unprocessed.smi:1723-1

> <Gold.Version>
5.8.1

> <Gold.Id.Protein>
6NUR|6NUR_protein|mol2

> <Gold.PLP.Fitness>
41.2379

> <Gold.PLP.PLP>
-40.6686

> <Gold.PLP.part.hbond>
-1.0000

> <Gold.PLP.part.metal>
0.0000

> <Gold.PLP.part.buried>
-5.4444

> <Gold.PLP.part.nonpolar>
-34.2776

> <Gold.PLP.part.repulsive>
0.1930

> <Gold.PLP.ligand.clash>
0.0000

> <Gold.PLP.ligand.torsion>
1.3922

> <Gold.PLP.Chemscore.Hbond>
0.9913

> <Gold.PLP.Chemscore.CHOScore>
0.0000

> <Gold.PLP.Chemscore.Metal>
0.0000

> <Gold.Chemscore.Hbonds>
donor molecule, donor type, donor heavy atom, donor atom, acceptor molecule, acceptor atom, score
      P1  H  6896  6909       L1     9  0.67

> <Gold.PLP.Chemscore.Internal.Correction>
0.3800

> <Gold.Rescore>
     Score         DG    S(hbond)    S(metal)    S(lipo)     H(rot)  DE(clash)    DE(int)     intcor
     11.52     -12.85       1.00        0.00      78.14       1.99       0.01       1.32       ----

> <Gold.Chemscore.Fitness>
11.5206

> <Gold.Chemscore.DG>
-12.8485

> <Gold.Chemscore.ZeroCoef>
-5.4800

> <Gold.Chemscore.Hbond>
0.9977

> <Gold.Chemscore.Metal>
0.0000

> <Gold.Chemscore.Lipo>
78.1399

> <Gold.Chemscore.Internal_Hbond>
0.0000

> <Gold.Chemscore.DEClash>
0.0060

> <Gold.Chemscore.DEInternal>
1.3220

> <Gold.Chemscore.Rot>
1.9946

> <Gold.Chemscore.Internal.Correction>
   9.000000E+99

> <Gold.Chemscore.Hbonds>
donor molecule, donor type, donor heavy atom, donor atom, acceptor molecule, acceptor atom, score
      P1  H  6896  6909       L1     9  0.67

> <Gold.Chemscore.Hbond.Weighted>
-3.3324

> <Gold.Chemscore.Metal.Weighted>
-0.0000

> <Gold.Chemscore.Lipo.Weighted>
-9.1424

> <Gold.Chemscore.Internal_Hbond.Weighted>
0.0000

> <Gold.Chemscore.DEClash.Weighted>
0.0060

> <Gold.Chemscore.DEInternal.Weighted>
1.3220

> <Gold.Chemscore.Rot.Weighted>
5.1062

> <Gold.Chemscore.Internal.Correction.Weighted>
   9.000000E+99

> <Gold.Protein.RotatedTorsions>
[ 6907 6896 6895 6894 ] final  111.61 input  -60.11 | X-H torsion
[ 7974 7965 7964 7962 ] final -142.30 input  175.53 | X-H torsion
[ 8008 7997 7996 7995 ] final -110.72 input   59.86 | X-H torsion
[ 10167 10162 10161 10158 ] final  -85.15 input  -65.29 | X-H torsion
[ 10718 10713 10712 10709 ] final   22.07 input   66.30 | X-H torsion
[ 10763 10752 10751 10750 ] final   12.13 input  -60.55 | X-H torsion
[ 11005 11000 10999 10996 ] final  -52.05 input  -57.11 | X-H torsion

> <Gold.Protein.ActiveResidues>
 VAL166  LYS551  ARG553  GLY616  TRP617  ASP618  TYR619  PRO620  LYS621  CYS622 
 ASP623  PHE694  ASN695  SER759  ASP760  ASP761  ALA762  ILE779  LEU786  VAL792 
 PHE793  MET794  SER795  GLU796  ALA797  LYS798  CYS799  TRP800  GLU811  SER814 

> <Gold.Protein.RotatedAtoms>
  152.4960  133.8634  159.7261 H   0  0  0  0  0  0  0  0  0  0  0  0  # atno 6907 bound_to 6896
  150.9139  133.6954  159.2855 H   0  0  0  0  0  0  0  0  0  0  0  0  # atno 6908 bound_to 6896
  151.4354  135.1018  159.9707 H   0  0  0  0  0  0  0  0  0  0  0  0  # atno 6909 bound_to 6896
  144.8453  140.5974  143.5425 H   0  0  0  0  0  0  0  0  0  0  0  0  # atno 7974 bound_to 7965
  154.9788  140.0396  157.2268 H   0  0  0  0  0  0  0  0  0  0  0  0  # atno 8008 bound_to 7997
  154.7733  140.2806  155.6098 H   0  0  0  0  0  0  0  0  0  0  0  0  # atno 8009 bound_to 7997
  156.2924  140.2606  156.2541 H   0  0  0  0  0  0  0  0  0  0  0  0  # atno 8010 bound_to 7997
  140.4065  143.2640  151.9074 H   0  0  0  0  0  0  0  0  0  0  0  0  # atno 10167 bound_to 10162
  157.1472  130.6658  149.6000 H   0  0  0  0  0  0  0  0  0  0  0  0  # atno 10718 bound_to 10713
  153.1854  135.6834  153.8422 H   0  0  0  0  0  0  0  0  0  0  0  0  # atno 10763 bound_to 10752
  153.7740  135.3192  155.3357 H   0  0  0  0  0  0  0  0  0  0  0  0  # atno 10764 bound_to 10752
  154.8085  135.4732  154.0552 H   0  0  0  0  0  0  0  0  0  0  0  0  # atno 10765 bound_to 10752
  141.0904  133.6634  156.3967 H   0  0  0  0  0  0  0  0  0  0  0  0  # atno 11005 bound_to 11000
  145.4609  139.1513  143.3867 LP  0  0  0  0  0  0  0  0  0  0  0  0  # atno 17320 bound_to 7965
  146.2739  140.4739  142.8803 LP  0  0  0  0  0  0  0  0  0  0  0  0  # atno 17321 bound_to 7965
  139.4783  144.5581  151.8283 LP  0  0  0  0  0  0  0  0  0  0  0  0  # atno 17342 bound_to 10162
  140.4684  144.1622  150.5914 LP  0  0  0  0  0  0  0  0  0  0  0  0  # atno 17343 bound_to 10162
  155.9777  130.4757  150.6611 LP  0  0  0  0  0  0  0  0  0  0  0  0  # atno 17370 bound_to 10713
  157.4254  131.0842  151.1091 LP  0  0  0  0  0  0  0  0  0  0  0  0  # atno 17371 bound_to 10713
  140.5266  134.6253  157.5336 LP  0  0  0  0  0  0  0  0  0  0  0  0  # atno 17394 bound_to 11000
  139.9728  134.7264  156.0007 LP  0  0  0  0  0  0  0  0  0  0  0  0  # atno 17395 bound_to 11000

$$$$
