AV-unprocessed.smi:356|AV-procd|sdf|2414|dock6
  -GOLD-   2262022353D 1   1.00000     0.00000
 Structure written by MMmdl.
 43 45  0  0  0  0  0  0  0  0  3 V2000
  146.6705  138.9819  152.0882 C   0  0  0  0  0  0  0  0  0  0  0  0
  147.8111  139.3136  152.9911 C   0  0  0  0  0  0  0  0  0  0  0  0
  148.9226  138.5504  153.1898 N   0  3  0  0  0  0  0  0  0  0  0  0
  149.7726  139.1811  154.0991 C   0  0  0  0  0  0  0  0  0  0  0  0
  151.0092  138.7974  154.6087 C   0  0  0  0  0  0  0  0  0  0  0  0
  151.6170  139.6801  155.5256 C   0  0  0  0  0  0  0  0  0  0  0  0
  150.9967  140.8889  155.9031 C   0  0  0  0  0  0  0  0  0  0  0  0
  149.7421  141.2669  155.3807 C   0  0  0  0  0  0  0  0  0  0  0  0
  149.1485  140.3885  154.4745 C   0  0  0  0  0  0  0  0  0  0  0  0
  147.9407  140.4268  153.7691 N   0  0  0  0  0  0  0  0  0  0  0  0
  147.0409  141.5774  153.9442 C   0  0  0  0  0  0  0  0  0  0  0  0
  146.0913  141.4231  155.1496 C   0  0  2  0  0  0  0  0  0  0  0  0
  145.0274  140.5614  154.7908 O   0  0  0  0  0  0  0  0  0  0  0  0
  145.5155  142.7849  155.5893 C   0  0  0  0  0  0  0  0  0  0  0  0
  145.3818  142.9164  157.0632 N   0  3  0  0  0  0  0  0  0  0  0  0
  144.4273  141.9526  157.6667 C   0  0  0  0  0  0  0  0  0  0  0  0
  144.3238  142.1776  159.1850 C   0  0  0  0  0  0  0  0  0  0  0  0
  145.6130  142.0668  159.7744 O   0  0  0  0  0  0  0  0  0  0  0  0
  146.5137  143.0442  159.2692 C   0  0  0  0  0  0  0  0  0  0  0  0
  146.6915  142.8454  157.7546 C   0  0  0  0  0  0  0  0  0  0  0  0
  146.8346  138.0203  151.6014 H   0  0  0  0  0  0  0  0  0  0  0  0
  146.5649  139.7466  151.3184 H   0  0  0  0  0  0  0  0  0  0  0  0
  145.7421  138.9280  152.6570 H   0  0  0  0  0  0  0  0  0  0  0  0
  151.4869  137.8725  154.3204 H   0  0  0  0  0  0  0  0  0  0  0  0
  152.5788  139.4251  155.9469 H   0  0  0  0  0  0  0  0  0  0  0  0
  151.4943  141.5398  156.6074 H   0  0  0  0  0  0  0  0  0  0  0  0
  149.2765  142.1955  155.6753 H   0  0  0  0  0  0  0  0  0  0  0  0
  147.6498  142.4773  154.0402 H   0  0  0  0  0  0  0  0  0  0  0  0
  146.4683  141.6938  153.0230 H   0  0  0  0  0  0  0  0  0  0  0  0
  146.6423  140.9586  155.9662 H   0  0  0  0  0  0  0  0  0  0  0  0
  144.5694  140.9298  154.0512 H   0  0  0  0  0  0  0  0  0  0  0  0
  146.1377  143.5995  155.2148 H   0  0  0  0  0  0  0  0  0  0  0  0
  144.5372  142.9128  155.1222 H   0  0  0  0  0  0  0  0  0  0  0  0
  143.4385  142.0593  157.2228 H   0  0  0  0  0  0  0  0  0  0  0  0
  144.7595  140.9331  157.4655 H   0  0  0  0  0  0  0  0  0  0  0  0
  143.8921  143.1554  159.4057 H   0  0  0  0  0  0  0  0  0  0  0  0
  143.6664  141.4315  159.6318 H   0  0  0  0  0  0  0  0  0  0  0  0
  146.1440  144.0468  159.4907 H   0  0  0  0  0  0  0  0  0  0  0  0
  147.4722  142.9389  159.7778 H   0  0  0  0  0  0  0  0  0  0  0  0
  147.1585  141.8789  157.5568 H   0  0  0  0  0  0  0  0  0  0  0  0
  147.3609  143.6120  157.3619 H   0  0  0  0  0  0  0  0  0  0  0  0
  145.0225  143.8437  157.2400 H   0  0  0  0  0  0  0  0  0  0  0  0
  149.0861  137.6619  152.7336 H   0  0  0  0  0  0  0  0  0  0  0  0
  1  2  1  0  0  0  0
  1 21  1  0  0  0  0
  1 22  1  0  0  0  0
  1 23  1  0  0  0  0
  2 10  1  0  0  0  0
  2  3  2  0  0  0  0
  3  4  1  0  0  0  0
  3 43  1  0  0  0  0
  4  9  2  0  0  0  0
  4  5  1  0  0  0  0
  5  6  2  0  0  0  0
  5 24  1  0  0  0  0
  6  7  1  0  0  0  0
  6 25  1  0  0  0  0
  7  8  2  0  0  0  0
  7 26  1  0  0  0  0
  8  9  1  0  0  0  0
  8 27  1  0  0  0  0
  9 10  1  0  0  0  0
 10 11  1  0  0  0  0
 11 12  1  0  0  0  0
 11 28  1  0  0  0  0
 11 29  1  0  0  0  0
 12 13  1  0  0  0  0
 12 14  1  0  0  0  0
 12 30  1  0  0  0  0
 13 31  1  0  0  0  0
 14 15  1  0  0  0  0
 14 32  1  0  0  0  0
 14 33  1  0  0  0  0
 15 20  1  0  0  0  0
 15 16  1  0  0  0  0
 15 42  1  0  0  0  0
 16 17  1  0  0  0  0
 16 34  1  0  0  0  0
 16 35  1  0  0  0  0
 17 18  1  0  0  0  0
 17 36  1  0  0  0  0
 17 37  1  0  0  0  0
 18 19  1  0  0  0  0
 19 20  1  0  0  0  0
 19 38  1  0  0  0  0
 19 39  1  0  0  0  0
 20 40  1  0  0  0  0
 20 41  1  0  0  0  0
M  CHG  1   3   1
M  CHG  1  15   1
M  END
> <s_m_source_file>
AV-unprocessed.smi

> <i_m_source_file_index>
356

> <i_lp_mmshare_version>
43012

> <i_f3d_flags>
0

> <s_epik_input>
W2NIXTFbY0hdW2NIXVtjSF1jKGMxMiluKGMobjIpW0NIM10pW0NIMl1bQ0BIXShbT0hdKVtDSDJdTjNbQ0gyXVtDSDJdT1tDSDJdW0NIMl0z

> <s_epik_cmdline>
J2VwaWtfcHl0aG9uJywgJy1waCcsICc3LjAnLCAnLXRuJywgJzgnLCAnLW1hJywgJzIwMCcsICctbWV0YWxfYmluZGluZycsICctaW1hZScsICc8aW5maWxlLm1hZT4nLCAnLW9tYWUnLCAnPG91dGZpbGUubWFlPic=

> <r_epik_Ionization_Penalty>
1.81899

> <r_epik_Ionization_Penalty_Charging>
1.81898

> <r_epik_Ionization_Penalty_Neutral>
1.42224e-05

> <r_epik_State_Penalty>
1.87399

> <r_epik_Charging_Adjusted_Penalty>
3.69296

> <i_epik_Tot_Q>
2

> <i_epik_Tot_abs_Q>
2

> <r_epik_Metal_State_Penalty>
5.87601

> <b_epik_Metal_Only>
0

> <s_lp_Force_Field>
OPLS_2005

> <r_lp_Energy>
28.369

> <b_lp_Chiralities_Consistent>
1

> <s_lp_Variant>
AV-unprocessed.smi:356-7

> <Gold.Version>
5.8.1

> <Gold.Id.Protein>
6NUR|6NUR_protein|mol2

> <Gold.PLP.Fitness>
46.3543

> <Gold.PLP.PLP>
-36.4063

> <Gold.PLP.part.hbond>
-4.0000

> <Gold.PLP.part.metal>
0.0000

> <Gold.PLP.part.buried>
2.2056

> <Gold.PLP.part.nonpolar>
-33.1687

> <Gold.PLP.part.repulsive>
0.0798

> <Gold.PLP.ligand.clash>
0.0000

> <Gold.PLP.ligand.torsion>
1.0420

> <Gold.PLP.Chemscore.Hbond>
4.0000

> <Gold.PLP.Chemscore.CHOScore>
0.0000

> <Gold.PLP.Chemscore.Metal>
0.0000

> <Gold.Chemscore.Hbonds>
donor molecule, donor type, donor heavy atom, donor atom, acceptor molecule, acceptor atom, score
      L1  H     3    43       P1  7948  2.00
      L1  H    13    31       P1 10175  0.88
      P1  H  6934  6946       L1    18  1.00

> <Gold.PLP.Chemscore.Internal.Correction>
0.0320

> <Gold.Rescore>
     Score         DG    S(hbond)    S(metal)    S(lipo)     H(rot)  DE(clash)    DE(int)     intcor
     16.48     -18.12       2.93        0.00      70.96       2.13       0.58       1.06       ----

> <Gold.Chemscore.Fitness>
16.4779

> <Gold.Chemscore.DG>
-18.1227

> <Gold.Chemscore.ZeroCoef>
-5.4800

> <Gold.Chemscore.Hbond>
2.9343

> <Gold.Chemscore.Metal>
0.0000

> <Gold.Chemscore.Lipo>
70.9564

> <Gold.Chemscore.Internal_Hbond>
0.0000

> <Gold.Chemscore.DEClash>
0.5841

> <Gold.Chemscore.DEInternal>
1.0607

> <Gold.Chemscore.Rot>
2.1327

> <Gold.Chemscore.Internal.Correction>
   9.000000E+99

> <Gold.Chemscore.Hbonds>
donor molecule, donor type, donor heavy atom, donor atom, acceptor molecule, acceptor atom, score
      L1  H     3    43       P1  7948  0.99
      L1  H    13    31       P1 10175  0.80
      P1  H  6934  6946       L1    18  0.25

> <Gold.Chemscore.Hbond.Weighted>
-9.8004

> <Gold.Chemscore.Metal.Weighted>
-0.0000

> <Gold.Chemscore.Lipo.Weighted>
-8.3019

> <Gold.Chemscore.Internal_Hbond.Weighted>
0.0000

> <Gold.Chemscore.DEClash.Weighted>
0.5841

> <Gold.Chemscore.DEInternal.Weighted>
1.0607

> <Gold.Chemscore.Rot.Weighted>
5.4596

> <Gold.Chemscore.Internal.Correction.Weighted>
   9.000000E+99

> <Gold.Protein.RotatedTorsions>
[ 6907 6896 6895 6894 ] final  -75.21 input  -60.11 | X-H torsion
[ 7974 7965 7964 7962 ] final  115.25 input  175.53 | X-H torsion
[ 8008 7997 7996 7995 ] final   65.31 input   59.86 | X-H torsion
[ 10167 10162 10161 10158 ] final  -39.24 input  -65.29 | X-H torsion
[ 10718 10713 10712 10709 ] final  164.61 input   66.30 | X-H torsion
[ 10763 10752 10751 10750 ] final  123.04 input  -60.55 | X-H torsion
[ 11005 11000 10999 10996 ] final  -80.73 input  -57.11 | X-H torsion

> <Gold.Protein.ActiveResidues>
 VAL166  LYS551  ARG553  GLY616  TRP617  ASP618  TYR619  PRO620  LYS621  CYS622 
 ASP623  PHE694  ASN695  SER759  ASP760  ASP761  ALA762  ILE779  LEU786  VAL792 
 PHE793  MET794  SER795  GLU796  ALA797  LYS798  CYS799  TRP800  GLU811  SER814 

> <Gold.Protein.RotatedAtoms>
  150.7066  134.4755  159.5445 H   0  0  0  0  0  0  0  0  0  0  0  0  # atno 6907 bound_to 6896
  152.2402  134.8233  160.0470 H   0  0  0  0  0  0  0  0  0  0  0  0  # atno 6908 bound_to 6896
  151.9017  133.3504  159.3870 H   0  0  0  0  0  0  0  0  0  0  0  0  # atno 6909 bound_to 6896
  145.1943  139.2984  143.4352 H   0  0  0  0  0  0  0  0  0  0  0  0  # atno 7974 bound_to 7965
  155.6597  140.3497  155.4778 H   0  0  0  0  0  0  0  0  0  0  0  0  # atno 8008 bound_to 7997
  155.9779  140.1168  157.0776 H   0  0  0  0  0  0  0  0  0  0  0  0  # atno 8009 bound_to 7997
  154.4183  140.1144  156.5381 H   0  0  0  0  0  0  0  0  0  0  0  0  # atno 8010 bound_to 7997
  140.7069  143.3226  151.2755 H   0  0  0  0  0  0  0  0  0  0  0  0  # atno 10167 bound_to 10162
  157.0919  131.0420  151.2533 H   0  0  0  0  0  0  0  0  0  0  0  0  # atno 10718 bound_to 10713
  153.6392  135.3382  155.3066 H   0  0  0  0  0  0  0  0  0  0  0  0  # atno 10763 bound_to 10752
  154.8563  135.4314  154.2023 H   0  0  0  0  0  0  0  0  0  0  0  0  # atno 10764 bound_to 10752
  153.2938  135.7019  153.7342 H   0  0  0  0  0  0  0  0  0  0  0  0  # atno 10765 bound_to 10752
  141.1667  133.7164  156.8317 H   0  0  0  0  0  0  0  0  0  0  0  0  # atno 11005 bound_to 11000
  146.3430  140.2166  142.8591 LP  0  0  0  0  0  0  0  0  0  0  0  0  # atno 17320 bound_to 7965
  145.0010  140.8632  143.5281 LP  0  0  0  0  0  0  0  0  0  0  0  0  # atno 17321 bound_to 7965
  139.6685  144.0062  152.2738 LP  0  0  0  0  0  0  0  0  0  0  0  0  # atno 17342 bound_to 10162
  139.9653  144.6530  150.8040 LP  0  0  0  0  0  0  0  0  0  0  0  0  # atno 17343 bound_to 10162
  157.4714  130.7711  149.7327 LP  0  0  0  0  0  0  0  0  0  0  0  0  # atno 17370 bound_to 10713
  155.9896  130.3951  150.3067 LP  0  0  0  0  0  0  0  0  0  0  0  0  # atno 17371 bound_to 10713
  140.2046  134.8872  157.3207 LP  0  0  0  0  0  0  0  0  0  0  0  0  # atno 17394 bound_to 11000
  140.2151  134.4092  155.7593 LP  0  0  0  0  0  0  0  0  0  0  0  0  # atno 17395 bound_to 11000

$$$$
