AV-unprocessed.smi:227|AV-procd|sdf|1733|dock3
  -GOLD-   2262020223D 1   1.00000     0.00000
 Structure written by MMmdl.
 54 58  0  0  0  0  0  0  0  0  1 V2000
  146.9021  141.8584  154.2666 O   0  0  0  0  0  0  0  0  0  0  0  0
  148.2763  141.7047  154.5600 C   0  0  0  0  0  0  0  0  0  0  0  0
  148.7383  140.2390  154.3877 C   0  0  2  0  0  0  0  0  0  0  0  0
  147.9253  139.3279  155.3434 C   0  0  0  0  0  0  0  0  0  0  0  0
  147.1456  138.3025  154.6721 N   0  0  0  0  0  0  0  0  0  0  0  0
  146.0386  138.4999  153.8794 C   0  0  0  0  0  0  0  0  0  0  0  0
  145.5059  137.4144  153.3902 N   0  0  0  0  0  0  0  0  0  0  0  0
  146.2877  136.3849  153.9024 C   0  0  0  0  0  0  0  0  0  0  0  0
  146.2741  134.9652  153.7786 C   0  0  0  0  0  0  0  0  0  0  0  0
  145.3614  134.2810  153.0359 N   0  0  0  0  0  0  0  0  0  0  0  0
  144.4562  134.9754  152.1286 C   0  0  1  0  0  0  0  0  0  0  0  0
  145.3490  135.3734  150.9342 C   0  0  0  0  0  0  0  0  0  0  0  0
  146.3377  134.1991  150.8972 C   0  0  0  0  0  0  0  0  0  0  0  0
  145.8011  133.3124  152.0427 C   0  0  2  0  0  0  0  0  0  0  0  0
  144.4607  132.6379  151.6679 C   0  0  2  0  0  0  0  0  0  0  0  0
  144.4256  131.8015  150.3751 C   0  0  0  0  0  0  0  0  0  0  0  0
  143.1255  131.8063  149.8251 O   0  0  0  0  0  0  0  0  0  0  0  0
  143.5092  133.8487  151.6792 C   0  0  0  0  0  0  0  0  0  0  0  0
  147.2542  134.2762  154.4221 N   0  0  0  0  0  0  0  0  0  0  0  0
  148.1648  134.9184  155.1583 C   0  0  0  0  0  0  0  0  0  0  0  0
  148.2881  136.2285  155.3746 N   0  0  0  0  0  0  0  0  0  0  0  0
  147.3230  136.9303  154.7152 C   0  0  0  0  0  0  0  0  0  0  0  0
  150.2819  140.0846  154.5192 C   0  0  2  0  0  0  0  0  0  0  0  0
  150.7818  138.6486  154.4799 C   0  0  0  0  0  0  0  0  0  0  0  0
  152.1748  138.7776  155.0773 C   0  0  0  0  0  0  0  0  0  0  0  0
  152.0235  139.7329  156.1155 O   0  0  0  0  0  0  0  0  0  0  0  0
  150.8956  140.5613  155.8462 C   0  0  0  0  0  0  0  0  0  0  0  0
  146.8175  142.2064  153.3920 H   0  0  0  0  0  0  0  0  0  0  0  0
  148.8468  142.3631  153.9044 H   0  0  0  0  0  0  0  0  0  0  0  0
  148.4601  142.0582  155.5745 H   0  0  0  0  0  0  0  0  0  0  0  0
  148.4703  139.9636  153.3668 H   0  0  0  0  0  0  0  0  0  0  0  0
  148.5888  138.8515  156.0656 H   0  0  0  0  0  0  0  0  0  0  0  0
  147.2252  139.9288  155.9250 H   0  0  0  0  0  0  0  0  0  0  0  0
  145.6422  139.4818  153.6652 H   0  0  0  0  0  0  0  0  0  0  0  0
  143.9208  135.8171  152.5694 H   0  0  0  0  0  0  0  0  0  0  0  0
  144.7861  135.4823  150.0066 H   0  0  0  0  0  0  0  0  0  0  0  0
  145.8725  136.3114  151.1216 H   0  0  0  0  0  0  0  0  0  0  0  0
  146.3805  133.6991  149.9310 H   0  0  0  0  0  0  0  0  0  0  0  0
  147.3457  134.5476  151.1257 H   0  0  0  0  0  0  0  0  0  0  0  0
  146.5327  132.5868  152.3935 H   0  0  0  0  0  0  0  0  0  0  0  0
  144.1779  131.9826  152.4941 H   0  0  0  0  0  0  0  0  0  0  0  0
  145.1100  132.2278  149.6413 H   0  0  0  0  0  0  0  0  0  0  0  0
  144.7508  130.7751  150.5411 H   0  0  0  0  0  0  0  0  0  0  0  0
  142.5101  131.5805  150.5056 H   0  0  0  0  0  0  0  0  0  0  0  0
  142.7080  133.6972  152.4037 H   0  0  0  0  0  0  0  0  0  0  0  0
  143.0516  134.0514  150.7101 H   0  0  0  0  0  0  0  0  0  0  0  0
  148.9008  134.2925  155.6410 H   0  0  0  0  0  0  0  0  0  0  0  0
  150.7665  140.6279  153.7061 H   0  0  0  0  0  0  0  0  0  0  0  0
  150.1630  138.0082  155.1104 H   0  0  0  0  0  0  0  0  0  0  0  0
  150.8011  138.2264  153.4746 H   0  0  0  0  0  0  0  0  0  0  0  0
  152.5630  137.8313  155.4545 H   0  0  0  0  0  0  0  0  0  0  0  0
  152.8749  139.1655  154.3361 H   0  0  0  0  0  0  0  0  0  0  0  0
  151.2041  141.6051  155.8000 H   0  0  0  0  0  0  0  0  0  0  0  0
  150.1935  140.4509  156.6732 H   0  0  0  0  0  0  0  0  0  0  0  0
  1  2  1  0  0  0  0
  1 28  1  0  0  0  0
  2  3  1  0  0  0  0
  2 29  1  0  0  0  0
  2 30  1  0  0  0  0
  3  4  1  0  0  0  0
  3 23  1  0  0  0  0
  3 31  1  0  0  0  0
  4  5  1  0  0  0  0
  4 32  1  0  0  0  0
  4 33  1  0  0  0  0
  5 22  1  0  0  0  0
  5  6  1  0  0  0  0
  6  7  2  0  0  0  0
  6 34  1  0  0  0  0
  7  8  1  0  0  0  0
  8 22  2  0  0  0  0
  8  9  1  0  0  0  0
  9 10  1  0  0  0  0
  9 19  2  0  0  0  0
 10 14  1  0  0  0  0
 10 11  1  0  0  0  0
 11 18  1  0  0  0  0
 11 12  1  0  0  0  0
 11 35  1  0  0  0  0
 12 13  1  0  0  0  0
 12 36  1  0  0  0  0
 12 37  1  0  0  0  0
 13 14  1  0  0  0  0
 13 38  1  0  0  0  0
 13 39  1  0  0  0  0
 14 15  1  0  0  0  0
 14 40  1  0  0  0  0
 15 16  1  0  0  0  0
 15 18  1  0  0  0  0
 15 41  1  0  0  0  0
 16 17  1  0  0  0  0
 16 42  1  0  0  0  0
 16 43  1  0  0  0  0
 17 44  1  0  0  0  0
 18 45  1  0  0  0  0
 18 46  1  0  0  0  0
 19 20  1  0  0  0  0
 20 21  2  0  0  0  0
 20 47  1  0  0  0  0
 21 22  1  0  0  0  0
 23 27  1  0  0  0  0
 23 24  1  0  0  0  0
 23 48  1  0  0  0  0
 24 25  1  0  0  0  0
 24 49  1  0  0  0  0
 24 50  1  0  0  0  0
 25 26  1  0  0  0  0
 25 51  1  0  0  0  0
 25 52  1  0  0  0  0
 26 27  1  0  0  0  0
 27 53  1  0  0  0  0
 27 54  1  0  0  0  0
M  END
> <s_m_source_file>
AV-unprocessed.smi

> <i_m_source_file_index>
227

> <i_lp_mmshare_version>
43012

> <i_f3d_flags>
0

> <s_epik_input>
W0NIMl0xT1tDSDJdW0NIMl1bQ0BIXTFbQ0BIXShbQ0gyXVtPSF0pW0NIMl1uKFtjSF1uMiljKGMyMyluW2NIXW5jM04oW0NASF00NSlbQ0BASF0oW0NIMl1bQ0gyXTQpW0NASF0oW0NIMl01KVtDSDJdW09IXQ==

> <s_epik_cmdline>
J2VwaWtfcHl0aG9uJywgJy1waCcsICc3LjAnLCAnLXRuJywgJzgnLCAnLW1hJywgJzIwMCcsICctbWV0YWxfYmluZGluZycsICctaW1hZScsICc8aW5maWxlLm1hZT4nLCAnLW9tYWUnLCAnPG91dGZpbGUubWFlPic=

> <r_lp_tautomer_probability>
1

> <r_epik_Ionization_Penalty>
0.0055791

> <r_epik_Ionization_Penalty_Charging>
0

> <r_epik_Ionization_Penalty_Neutral>
0.0055791

> <r_epik_State_Penalty>
0.00401299

> <r_epik_Charging_Adjusted_Penalty>
0.00401299

> <i_epik_Tot_Q>
0

> <i_epik_Tot_abs_Q>
0

> <r_epik_Metal_State_Penalty>
-0

> <b_epik_Metal_Only>
0

> <s_lp_Force_Field>
OPLS_2005

> <r_lp_Energy>
89.6515

> <b_lp_Chiralities_Consistent>
1

> <s_lp_Variant>
AV-unprocessed.smi:227-7

> <Gold.Version>
5.8.1

> <Gold.Id.Protein>
6NUR|6NUR_protein|mol2

> <Gold.PLP.Fitness>
43.7326

> <Gold.PLP.PLP>
-39.3506

> <Gold.PLP.part.hbond>
-2.1251

> <Gold.PLP.part.metal>
0.0000

> <Gold.PLP.part.buried>
-4.8938

> <Gold.PLP.part.nonpolar>
-33.0606

> <Gold.PLP.part.repulsive>
0.4228

> <Gold.PLP.ligand.clash>
0.0000

> <Gold.PLP.ligand.torsion>
1.3718

> <Gold.PLP.Chemscore.Hbond>
1.3471

> <Gold.PLP.Chemscore.CHOScore>
0.9908

> <Gold.PLP.Chemscore.Metal>
0.0000

> <Gold.Chemscore.Hbonds>
donor molecule, donor type, donor heavy atom, donor atom, acceptor molecule, acceptor atom, score
      L1  H    17    44       P1 10952  0.06
      P1  H  7997  8009       L1    26  0.15
      P1  H 10785 10796       L1    17  1.00
      L1  C     6    34       P1 10175  1.00

> <Gold.PLP.Chemscore.Internal.Correction>
0.1118

> <Gold.Rescore>
     Score         DG    S(hbond)    S(metal)    S(lipo)     H(rot)  DE(clash)    DE(int)     intcor
      6.12     -10.23       0.90        0.00      93.83       3.61       1.51       2.61       ----

> <Gold.Chemscore.Fitness>
6.1183

> <Gold.Chemscore.DG>
-10.2318

> <Gold.Chemscore.ZeroCoef>
-5.4800

> <Gold.Chemscore.Hbond>
0.9004

> <Gold.Chemscore.Metal>
0.0000

> <Gold.Chemscore.Lipo>
93.8338

> <Gold.Chemscore.Internal_Hbond>
0.0000

> <Gold.Chemscore.DEClash>
1.5074

> <Gold.Chemscore.DEInternal>
2.6061

> <Gold.Chemscore.Rot>
3.6071

> <Gold.Chemscore.Internal.Correction>
   9.000000E+99

> <Gold.Chemscore.Hbonds>
donor molecule, donor type, donor heavy atom, donor atom, acceptor molecule, acceptor atom, score
      L1  H    17    44       P1 10952  0.03
      P1  H  7997  8009       L1    26  0.02
      P1  H 10785 10796       L1    17  0.09

> <Gold.Chemscore.Hbond.Weighted>
-3.0074

> <Gold.Chemscore.Metal.Weighted>
-0.0000

> <Gold.Chemscore.Lipo.Weighted>
-10.9786

> <Gold.Chemscore.Internal_Hbond.Weighted>
0.0000

> <Gold.Chemscore.DEClash.Weighted>
1.5074

> <Gold.Chemscore.DEInternal.Weighted>
2.6061

> <Gold.Chemscore.Rot.Weighted>
9.2342

> <Gold.Chemscore.Internal.Correction.Weighted>
   9.000000E+99

> <Gold.Protein.RotatedTorsions>
[ 6907 6896 6895 6894 ] final  -55.18 input  -60.11 | X-H torsion
[ 7974 7965 7964 7962 ] final -154.87 input  175.53 | X-H torsion
[ 8008 7997 7996 7995 ] final -164.58 input   59.86 | X-H torsion
[ 10167 10162 10161 10158 ] final   78.86 input  -65.29 | X-H torsion
[ 10718 10713 10712 10709 ] final  174.96 input   66.30 | X-H torsion
[ 10763 10752 10751 10750 ] final  162.06 input  -60.55 | X-H torsion
[ 11005 11000 10999 10996 ] final -141.53 input  -57.11 | X-H torsion

> <Gold.Protein.ActiveResidues>
 VAL166  LYS551  ARG553  GLY616  TRP617  ASP618  TYR619  PRO620  LYS621  CYS622 
 ASP623  PHE694  ASN695  SER759  ASP760  ASP761  ALA762  ILE779  LEU786  VAL792 
 PHE793  MET794  SER795  GLU796  ALA797  LYS798  CYS799  TRP800  GLU811  SER814 

> <Gold.Protein.RotatedAtoms>
  150.8274  134.7511  159.6823 H   0  0  0  0  0  0  0  0  0  0  0  0  # atno 6907 bound_to 6896
  152.4383  134.5639  159.9912 H   0  0  0  0  0  0  0  0  0  0  0  0  # atno 6908 bound_to 6896
  151.5808  133.3340  159.3044 H   0  0  0  0  0  0  0  0  0  0  0  0  # atno 6909 bound_to 6896
  144.7668  140.4329  143.5936 H   0  0  0  0  0  0  0  0  0  0  0  0  # atno 7974 bound_to 7965
  155.8376  140.0943  157.1754 H   0  0  0  0  0  0  0  0  0  0  0  0  # atno 8008 bound_to 7997
  154.3981  140.1407  156.3751 H   0  0  0  0  0  0  0  0  0  0  0  0  # atno 8009 bound_to 7997
  155.8099  140.3450  155.5454 H   0  0  0  0  0  0  0  0  0  0  0  0  # atno 8010 bound_to 7997
  139.9664  144.5925  150.8025 H   0  0  0  0  0  0  0  0  0  0  0  0  # atno 10167 bound_to 10162
  156.9420  131.0004  151.2966 H   0  0  0  0  0  0  0  0  0  0  0  0  # atno 10718 bound_to 10713
  154.2725  135.2765  155.2732 H   0  0  0  0  0  0  0  0  0  0  0  0  # atno 10763 bound_to 10752
  154.5289  135.5735  153.6746 H   0  0  0  0  0  0  0  0  0  0  0  0  # atno 10764 bound_to 10752
  152.9942  135.6223  154.2880 H   0  0  0  0  0  0  0  0  0  0  0  0  # atno 10765 bound_to 10752
  140.8315  134.2511  157.4854 H   0  0  0  0  0  0  0  0  0  0  0  0  # atno 11005 bound_to 11000
  145.6445  139.1555  143.2896 LP  0  0  0  0  0  0  0  0  0  0  0  0  # atno 17320 bound_to 7965
  146.1782  140.6539  142.9201 LP  0  0  0  0  0  0  0  0  0  0  0  0  # atno 17321 bound_to 7965
  140.7536  143.3012  151.3076 LP  0  0  0  0  0  0  0  0  0  0  0  0  # atno 17342 bound_to 10162
  139.6514  144.0355  152.2629 LP  0  0  0  0  0  0  0  0  0  0  0  0  # atno 17343 bound_to 10162
  157.5779  130.8356  149.8481 LP  0  0  0  0  0  0  0  0  0  0  0  0  # atno 17370 bound_to 10713
  156.0400  130.3741  150.1459 LP  0  0  0  0  0  0  0  0  0  0  0  0  # atno 17371 bound_to 10713
  139.8705  134.9588  156.4313 LP  0  0  0  0  0  0  0  0  0  0  0  0  # atno 17394 bound_to 11000
  140.8993  133.7791  155.9662 LP  0  0  0  0  0  0  0  0  0  0  0  0  # atno 17395 bound_to 11000

$$$$
