AV-unprocessed.smi:190|AV-procd|sdf|1491|dock4
  -GOLD-   2262019313D 1   1.00000     0.00000
 Structure written by MMmdl.
 54 58  0  0  0  0  0  0  0  0  1 V2000
  146.3933  139.4698  152.9202 O   0  0  0  0  0  0  0  0  0  0  0  0
  145.9888  139.0006  154.1913 C   0  0  0  0  0  0  0  0  0  0  0  0
  147.1403  139.0487  155.2358 C   0  0  0  0  0  0  0  0  0  0  0  0
  147.7680  140.4758  155.1758 C   0  0  0  0  0  0  0  0  0  0  0  0
  148.6411  140.8299  156.2861 N   0  0  0  0  0  0  0  0  0  0  0  0
  148.2943  141.5249  157.4210 C   0  0  0  0  0  0  0  0  0  0  0  0
  149.2666  141.7261  158.2666 N   0  0  0  0  0  0  0  0  0  0  0  0
  150.3785  141.1391  157.6697 C   0  0  0  0  0  0  0  0  0  0  0  0
  151.7540  140.9946  158.0316 C   0  0  0  0  0  0  0  0  0  0  0  0
  152.2930  141.4629  159.1965 N   0  0  0  0  0  0  0  0  0  0  0  0
  153.4201  140.7626  159.8044 C   0  0  0  0  0  0  0  0  0  0  0  0
  154.0068  141.7104  160.8548 C   0  0  0  0  0  0  0  0  0  0  0  0
  152.9259  142.7748  161.0344 C   0  0  0  0  0  0  0  0  0  0  0  0
  152.2737  142.8632  159.6448 C   0  0  1  0  0  0  0  0  0  0  0  0
  153.0686  143.8103  158.7322 C   0  0  0  0  0  0  0  0  0  0  0  0
  152.2461  145.0924  158.7717 C   0  0  0  0  0  0  0  0  0  0  0  0
  150.9139  144.6112  158.8105 O   0  0  0  0  0  0  0  0  0  0  0  0
  150.8749  143.5184  159.7194 C   0  0  0  0  0  0  0  0  0  0  0  0
  152.5533  140.3578  157.1348 N   0  0  0  0  0  0  0  0  0  0  0  0
  152.0645  139.8874  155.9854 C   0  0  0  0  0  0  0  0  0  0  0  0
  150.8144  139.9442  155.5286 N   0  0  0  0  0  0  0  0  0  0  0  0
  149.9980  140.5849  156.4121 C   0  0  0  0  0  0  0  0  0  0  0  0
  146.6230  138.7214  156.6609 C   0  0  0  0  0  0  0  0  0  0  0  0
  146.1716  137.2564  156.8054 C   0  0  0  0  0  0  0  0  0  0  0  0
  147.2441  136.3844  156.4706 O   0  0  0  0  0  0  0  0  0  0  0  0
  147.6827  136.5307  155.1256 C   0  0  0  0  0  0  0  0  0  0  0  0
  148.1958  137.9643  154.8921 C   0  0  0  0  0  0  0  0  0  0  0  0
  145.6279  139.7661  152.4514 H   0  0  0  0  0  0  0  0  0  0  0  0
  145.1289  139.5933  154.4977 H   0  0  0  0  0  0  0  0  0  0  0  0
  145.6258  137.9787  154.0762 H   0  0  0  0  0  0  0  0  0  0  0  0
  148.3435  140.5877  154.2560 H   0  0  0  0  0  0  0  0  0  0  0  0
  146.9833  141.2317  155.1261 H   0  0  0  0  0  0  0  0  0  0  0  0
  147.2895  141.8768  157.6054 H   0  0  0  0  0  0  0  0  0  0  0  0
  153.0566  139.8567  160.2902 H   0  0  0  0  0  0  0  0  0  0  0  0
  154.1689  140.4805  159.0631 H   0  0  0  0  0  0  0  0  0  0  0  0
  154.2567  141.2032  161.7869 H   0  0  0  0  0  0  0  0  0  0  0  0
  154.9191  142.1673  160.4697 H   0  0  0  0  0  0  0  0  0  0  0  0
  152.2000  142.4211  161.7689 H   0  0  0  0  0  0  0  0  0  0  0  0
  153.3203  143.7264  161.3929 H   0  0  0  0  0  0  0  0  0  0  0  0
  154.0988  143.9720  159.0505 H   0  0  0  0  0  0  0  0  0  0  0  0
  153.1095  143.4456  157.7064 H   0  0  0  0  0  0  0  0  0  0  0  0
  152.4571  145.6672  159.6747 H   0  0  0  0  0  0  0  0  0  0  0  0
  152.4193  145.7310  157.9054 H   0  0  0  0  0  0  0  0  0  0  0  0
  150.0555  142.8395  159.4831 H   0  0  0  0  0  0  0  0  0  0  0  0
  150.6798  143.9171  160.7161 H   0  0  0  0  0  0  0  0  0  0  0  0
  152.7782  139.3955  155.3410 H   0  0  0  0  0  0  0  0  0  0  0  0
  147.4136  138.8875  157.3914 H   0  0  0  0  0  0  0  0  0  0  0  0
  145.8107  139.3919  156.9426 H   0  0  0  0  0  0  0  0  0  0  0  0
  145.8772  137.0615  157.8367 H   0  0  0  0  0  0  0  0  0  0  0  0
  145.2993  137.0393  156.1885 H   0  0  0  0  0  0  0  0  0  0  0  0
  148.4884  135.8181  154.9472 H   0  0  0  0  0  0  0  0  0  0  0  0
  146.8821  136.2665  154.4347 H   0  0  0  0  0  0  0  0  0  0  0  0
  148.5368  138.0773  153.8624 H   0  0  0  0  0  0  0  0  0  0  0  0
  149.0786  138.0852  155.5188 H   0  0  0  0  0  0  0  0  0  0  0  0
  1  2  1  0  0  0  0
  1 28  1  0  0  0  0
  2  3  1  0  0  0  0
  2 29  1  0  0  0  0
  2 30  1  0  0  0  0
  3 27  1  0  0  0  0
  3  4  1  0  0  0  0
  3 23  1  0  0  0  0
  4  5  1  0  0  0  0
  4 31  1  0  0  0  0
  4 32  1  0  0  0  0
  5 22  1  0  0  0  0
  5  6  1  0  0  0  0
  6  7  2  0  0  0  0
  6 33  1  0  0  0  0
  7  8  1  0  0  0  0
  8 22  2  0  0  0  0
  8  9  1  0  0  0  0
  9 10  1  0  0  0  0
  9 19  2  0  0  0  0
 10 14  1  0  0  0  0
 10 11  1  0  0  0  0
 11 12  1  0  0  0  0
 11 34  1  0  0  0  0
 11 35  1  0  0  0  0
 12 13  1  0  0  0  0
 12 36  1  0  0  0  0
 12 37  1  0  0  0  0
 13 14  1  0  0  0  0
 13 38  1  0  0  0  0
 13 39  1  0  0  0  0
 14 18  1  0  0  0  0
 14 15  1  0  0  0  0
 15 16  1  0  0  0  0
 15 40  1  0  0  0  0
 15 41  1  0  0  0  0
 16 17  1  0  0  0  0
 16 42  1  0  0  0  0
 16 43  1  0  0  0  0
 17 18  1  0  0  0  0
 18 44  1  0  0  0  0
 18 45  1  0  0  0  0
 19 20  1  0  0  0  0
 20 21  2  0  0  0  0
 20 46  1  0  0  0  0
 21 22  1  0  0  0  0
 23 24  1  0  0  0  0
 23 47  1  0  0  0  0
 23 48  1  0  0  0  0
 24 25  1  0  0  0  0
 24 49  1  0  0  0  0
 24 50  1  0  0  0  0
 25 26  1  0  0  0  0
 26 27  1  0  0  0  0
 26 51  1  0  0  0  0
 26 52  1  0  0  0  0
 27 53  1  0  0  0  0
 27 54  1  0  0  0  0
M  END
> <s_m_source_file>
AV-unprocessed.smi

> <i_m_source_file_index>
190

> <i_lp_mmshare_version>
43012

> <i_f3d_flags>
0

> <s_epik_input>
W0NIMl0xW0NIMl1PW0NIMl1bQ0gyXUMxKFtDSDJdW09IXSlbQ0gyXW4oW2NIXW4yKWMoYzIzKW5bY0hdbmMzTihbQ0gyXVtDSDJdW0NIMl00KVtDQF00NVtDSDJdW0NIMl1PW0NIMl01

> <s_epik_cmdline>
J2VwaWtfcHl0aG9uJywgJy1waCcsICc3LjAnLCAnLXRuJywgJzgnLCAnLW1hJywgJzIwMCcsICctbWV0YWxfYmluZGluZycsICctaW1hZScsICc8aW5maWxlLm1hZT4nLCAnLW9tYWUnLCAnPG91dGZpbGUubWFlPic=

> <r_lp_tautomer_probability>
1

> <r_epik_Ionization_Penalty>
0.00423054

> <r_epik_Ionization_Penalty_Charging>
0

> <r_epik_Ionization_Penalty_Neutral>
0.00423054

> <r_epik_State_Penalty>
0.00298851

> <r_epik_Charging_Adjusted_Penalty>
0.00298851

> <i_epik_Tot_Q>
0

> <i_epik_Tot_abs_Q>
0

> <r_epik_Metal_State_Penalty>
-0

> <b_epik_Metal_Only>
0

> <s_lp_Force_Field>
OPLS_2005

> <r_lp_Energy>
66.7697

> <b_lp_Chiralities_Consistent>
1

> <s_lp_Variant>
AV-unprocessed.smi:190-1

> <Gold.Version>
5.8.1

> <Gold.Id.Protein>
6NUR|6NUR_protein|mol2

> <Gold.PLP.Fitness>
42.3082

> <Gold.PLP.PLP>
-38.8610

> <Gold.PLP.part.hbond>
-2.0000

> <Gold.PLP.part.metal>
0.0000

> <Gold.PLP.part.buried>
-6.3292

> <Gold.PLP.part.nonpolar>
-31.4685

> <Gold.PLP.part.repulsive>
0.2345

> <Gold.PLP.ligand.clash>
0.0000

> <Gold.PLP.ligand.torsion>
1.3309

> <Gold.PLP.Chemscore.Hbond>
1.9760

> <Gold.PLP.Chemscore.CHOScore>
0.0000

> <Gold.PLP.Chemscore.Metal>
0.0000

> <Gold.Chemscore.Hbonds>
donor molecule, donor type, donor heavy atom, donor atom, acceptor molecule, acceptor atom, score
      L1  H     1    28       P1 10175  0.91
      P1  H  7989  7998       L1    21  0.07
      P1  H  7997  8008       L1    19  0.84

> <Gold.PLP.Chemscore.Internal.Correction>
0.1809

> <Gold.Rescore>
     Score         DG    S(hbond)    S(metal)    S(lipo)     H(rot)  DE(clash)    DE(int)     intcor
     12.87     -15.87       1.60        0.00      89.02       2.10       0.39       2.62       ----

> <Gold.Chemscore.Fitness>
12.8654

> <Gold.Chemscore.DG>
-15.8735

> <Gold.Chemscore.ZeroCoef>
-5.4800

> <Gold.Chemscore.Hbond>
1.6013

> <Gold.Chemscore.Metal>
0.0000

> <Gold.Chemscore.Lipo>
89.0226

> <Gold.Chemscore.Internal_Hbond>
0.0000

> <Gold.Chemscore.DEClash>
0.3852

> <Gold.Chemscore.DEInternal>
2.6229

> <Gold.Chemscore.Rot>
2.0978

> <Gold.Chemscore.Internal.Correction>
   9.000000E+99

> <Gold.Chemscore.Hbonds>
donor molecule, donor type, donor heavy atom, donor atom, acceptor molecule, acceptor atom, score
      L1  H     1    28       P1 10175  0.83
      P1  H  7997  8008       L1    19  0.19

> <Gold.Chemscore.Hbond.Weighted>
-5.3482

> <Gold.Chemscore.Metal.Weighted>
-0.0000

> <Gold.Chemscore.Lipo.Weighted>
-10.4156

> <Gold.Chemscore.Internal_Hbond.Weighted>
0.0000

> <Gold.Chemscore.DEClash.Weighted>
0.3852

> <Gold.Chemscore.DEInternal.Weighted>
2.6229

> <Gold.Chemscore.Rot.Weighted>
5.3703

> <Gold.Chemscore.Internal.Correction.Weighted>
   9.000000E+99

> <Gold.Protein.RotatedTorsions>
[ 6907 6896 6895 6894 ] final   24.67 input  -60.11 | X-H torsion
[ 7974 7965 7964 7962 ] final   25.24 input  175.53 | X-H torsion
[ 8008 7997 7996 7995 ] final  -69.74 input   59.86 | X-H torsion
[ 10167 10162 10161 10158 ] final   13.59 input  -65.29 | X-H torsion
[ 10718 10713 10712 10709 ] final -108.72 input   66.30 | X-H torsion
[ 10763 10752 10751 10750 ] final -169.47 input  -60.55 | X-H torsion
[ 11005 11000 10999 10996 ] final   79.17 input  -57.11 | X-H torsion

> <Gold.Protein.ActiveResidues>
 VAL166  LYS551  ARG553  GLY616  TRP617  ASP618  TYR619  PRO620  LYS621  CYS622 
 ASP623  PHE694  ASN695  SER759  ASP760  ASP761  ALA762  ILE779  LEU786  VAL792 
 PHE793  MET794  SER795  GLU796  ALA797  LYS798  CYS799  TRP800  GLU811  SER814 

> <Gold.Protein.RotatedAtoms>
  151.9611  135.0123  160.0547 H   0  0  0  0  0  0  0  0  0  0  0  0  # atno 6907 bound_to 6896
  152.1868  133.4740  159.4995 H   0  0  0  0  0  0  0  0  0  0  0  0  # atno 6908 bound_to 6896
  150.6927  134.1681  159.4244 H   0  0  0  0  0  0  0  0  0  0  0  0  # atno 6909 bound_to 6896
  146.1898  139.7494  142.8840 H   0  0  0  0  0  0  0  0  0  0  0  0  # atno 7974 bound_to 7965
  154.4961  140.0847  156.7699 H   0  0  0  0  0  0  0  0  0  0  0  0  # atno 8008 bound_to 7997
  155.4114  140.3441  155.4246 H   0  0  0  0  0  0  0  0  0  0  0  0  # atno 8009 bound_to 7997
  156.1395  140.1525  156.8930 H   0  0  0  0  0  0  0  0  0  0  0  0  # atno 8010 bound_to 7997
  140.5992  143.8639  150.6948 H   0  0  0  0  0  0  0  0  0  0  0  0  # atno 10167 bound_to 10162
  156.0500  130.5727  150.8001 H   0  0  0  0  0  0  0  0  0  0  0  0  # atno 10718 bound_to 10713
  154.6519  135.2912  154.9976 H   0  0  0  0  0  0  0  0  0  0  0  0  # atno 10763 bound_to 10752
  154.1066  135.6569  153.4881 H   0  0  0  0  0  0  0  0  0  0  0  0  # atno 10764 bound_to 10752
  153.0381  135.5255  154.7431 H   0  0  0  0  0  0  0  0  0  0  0  0  # atno 10765 bound_to 10752
  139.9183  134.7821  156.1744 H   0  0  0  0  0  0  0  0  0  0  0  0  # atno 11005 bound_to 11000
  145.3826  141.0360  143.3169 LP  0  0  0  0  0  0  0  0  0  0  0  0  # atno 17320 bound_to 7965
  144.8466  139.5387  143.6876 LP  0  0  0  0  0  0  0  0  0  0  0  0  # atno 17321 bound_to 7965
  140.2181  143.3831  152.1665 LP  0  0  0  0  0  0  0  0  0  0  0  0  # atno 17342 bound_to 10162
  139.5279  144.7125  151.5161 LP  0  0  0  0  0  0  0  0  0  0  0  0  # atno 17343 bound_to 10162
  157.5416  131.0941  150.9819 LP  0  0  0  0  0  0  0  0  0  0  0  0  # atno 17370 bound_to 10713
  157.0100  130.5633  149.5320 LP  0  0  0  0  0  0  0  0  0  0  0  0  # atno 17371 bound_to 10713
  141.0681  133.6810  156.2084 LP  0  0  0  0  0  0  0  0  0  0  0  0  # atno 17394 bound_to 11000
  140.6552  134.5025  157.5580 LP  0  0  0  0  0  0  0  0  0  0  0  0  # atno 17395 bound_to 11000

$$$$
