AV-unprocessed.smi:1787|AV-procd|sdf|7209|dock7
  -GOLD-   22720 8453D 1   1.00000     0.00000
 Structure written by MMmdl.
 45 47  0  0  0  0  0  0  0  0  2 V2000
  144.7790  135.9916  153.5391 O   0  0  0  0  0  0  0  0  0  0  0  0
  145.9034  136.0033  153.0414 C   0  0  0  0  0  0  0  0  0  0  0  0
  146.8088  136.9585  153.2962 N   0  0  0  0  0  0  0  0  0  0  0  0
  146.6266  138.0989  154.1947 C   0  0  0  0  0  0  0  0  0  0  0  0
  147.9166  138.9603  154.3736 C   0  0  2  0  0  0  0  0  0  0  0  0
  149.1096  138.0358  154.3720 N   0  3  0  0  0  0  0  0  0  0  0  0
  150.4309  138.7245  154.3667 C   0  0  0  0  0  0  0  0  0  0  0  0
  151.5664  137.7176  154.1301 C   0  0  0  0  0  0  0  0  0  0  0  0
  151.5335  136.7339  155.1539 O   0  0  0  0  0  0  0  0  0  0  0  0
  150.3217  135.9937  155.1281 C   0  0  0  0  0  0  0  0  0  0  0  0
  149.1191  136.9257  155.3631 C   0  0  0  0  0  0  0  0  0  0  0  0
  147.7928  139.8249  155.6608 C   0  0  0  0  0  0  0  0  0  0  0  0
  146.7458  140.9148  155.4135 C   0  0  0  0  0  0  0  0  0  0  0  0
  146.8909  141.4005  153.6773 S   0  0  0  0  0  0  0  0  0  0  0  0
  147.9995  140.0269  153.2559 C   0  0  0  0  0  0  0  0  0  0  0  0
  146.3899  135.0970  152.1766 N   0  0  0  0  0  0  0  0  0  0  0  0
  145.7678  133.9426  151.6245 C   0  0  0  0  0  0  0  0  0  0  0  0
  144.3845  133.8165  151.3430 C   0  0  0  0  0  0  0  0  0  0  0  0
  143.9090  132.6092  150.7958 C   0  0  0  0  0  0  0  0  0  0  0  0
  144.8289  131.5718  150.5496 C   0  0  0  0  0  0  0  0  0  0  0  0
  146.1483  131.6776  150.8108 N   0  0  0  0  0  0  0  0  0  0  0  0
  146.5970  132.8374  151.3351 C   0  0  0  0  0  0  0  0  0  0  0  0
  147.7081  136.8851  152.8425 H   0  0  0  0  0  0  0  0  0  0  0  0
  145.7884  138.7072  153.8540 H   0  0  0  0  0  0  0  0  0  0  0  0
  146.2916  137.6946  155.1491 H   0  0  0  0  0  0  0  0  0  0  0  0
  150.4703  139.4882  153.5916 H   0  0  0  0  0  0  0  0  0  0  0  0
  150.6001  139.2280  155.3190 H   0  0  0  0  0  0  0  0  0  0  0  0
  151.4827  137.2499  153.1478 H   0  0  0  0  0  0  0  0  0  0  0  0
  152.5305  138.2255  154.1600 H   0  0  0  0  0  0  0  0  0  0  0  0
  150.2248  135.4714  154.1747 H   0  0  0  0  0  0  0  0  0  0  0  0
  150.3599  135.2290  155.9040 H   0  0  0  0  0  0  0  0  0  0  0  0
  149.1442  137.3318  156.3752 H   0  0  0  0  0  0  0  0  0  0  0  0
  148.2236  136.3126  155.2705 H   0  0  0  0  0  0  0  0  0  0  0  0
  147.5645  139.2388  156.5514 H   0  0  0  0  0  0  0  0  0  0  0  0
  148.7217  140.3575  155.8626 H   0  0  0  0  0  0  0  0  0  0  0  0
  145.7401  140.5334  155.5900 H   0  0  0  0  0  0  0  0  0  0  0  0
  146.8894  141.7738  156.0693 H   0  0  0  0  0  0  0  0  0  0  0  0
  149.0067  140.4416  153.1999 H   0  0  0  0  0  0  0  0  0  0  0  0
  147.7536  139.6300  152.2704 H   0  0  0  0  0  0  0  0  0  0  0  0
  147.3386  135.2532  151.8680 H   0  0  0  0  0  0  0  0  0  0  0  0
  143.6756  134.6066  151.5294 H   0  0  0  0  0  0  0  0  0  0  0  0
  142.8607  132.4802  150.5702 H   0  0  0  0  0  0  0  0  0  0  0  0
  144.4967  130.6332  150.1316 H   0  0  0  0  0  0  0  0  0  0  0  0
  147.6584  132.8841  151.5308 H   0  0  0  0  0  0  0  0  0  0  0  0
  149.0540  137.5671  153.4786 H   0  0  0  0  0  0  0  0  0  0  0  0
  1  2  2  0  0  0  0
  2  3  1  0  0  0  0
  2 16  1  0  0  0  0
  3  4  1  0  0  0  0
  3 23  1  0  0  0  0
  4  5  1  0  0  0  0
  4 24  1  0  0  0  0
  4 25  1  0  0  0  0
  5 15  1  0  0  0  0
  5  6  1  0  0  0  0
  5 12  1  0  0  0  0
  6 11  1  0  0  0  0
  6  7  1  0  0  0  0
  6 45  1  0  0  0  0
  7  8  1  0  0  0  0
  7 26  1  0  0  0  0
  7 27  1  0  0  0  0
  8  9  1  0  0  0  0
  8 28  1  0  0  0  0
  8 29  1  0  0  0  0
  9 10  1  0  0  0  0
 10 11  1  0  0  0  0
 10 30  1  0  0  0  0
 10 31  1  0  0  0  0
 11 32  1  0  0  0  0
 11 33  1  0  0  0  0
 12 13  1  0  0  0  0
 12 34  1  0  0  0  0
 12 35  1  0  0  0  0
 13 14  1  0  0  0  0
 13 36  1  0  0  0  0
 13 37  1  0  0  0  0
 14 15  1  0  0  0  0
 15 38  1  0  0  0  0
 15 39  1  0  0  0  0
 16 17  1  0  0  0  0
 16 40  1  0  0  0  0
 17 22  1  0  0  0  0
 17 18  2  0  0  0  0
 18 19  1  0  0  0  0
 18 41  1  0  0  0  0
 19 20  2  0  0  0  0
 19 42  1  0  0  0  0
 20 21  1  0  0  0  0
 20 43  1  0  0  0  0
 21 22  2  0  0  0  0
 22 44  1  0  0  0  0
M  CHG  1   6   1
M  END
> <s_m_source_file>
AV-unprocessed.smi

> <i_m_source_file_index>
1787

> <i_lp_mmshare_version>
43012

> <i_f3d_flags>
0

> <s_epik_input>
W2NIXTFuW2NIXVtjSF1bY0hdYzFbTkhdQyg9TylbTkhdW0NIMl1bQ0BdMihbQ0gyXVtDSDJdU1tDSDJdMilOM1tDSDJdW0NIMl1PW0NIMl1bQ0gyXTM=

> <s_epik_cmdline>
J2VwaWtfcHl0aG9uJywgJy1waCcsICc3LjAnLCAnLXRuJywgJzgnLCAnLW1hJywgJzIwMCcsICctbWV0YWxfYmluZGluZycsICctaW1hZScsICc8aW5maWxlLm1hZT4nLCAnLW9tYWUnLCAnPG91dGZpbGUubWFlPic=

> <r_epik_Ionization_Penalty>
2.03633

> <r_epik_Ionization_Penalty_Charging>
2.03219

> <r_epik_Ionization_Penalty_Neutral>
0.00414252

> <r_epik_State_Penalty>
2.16328

> <r_epik_Charging_Adjusted_Penalty>
4.19546

> <i_epik_Tot_Q>
1

> <i_epik_Tot_abs_Q>
1

> <r_epik_Metal_State_Penalty>
2.16381

> <b_epik_Metal_Only>
0

> <s_lp_Force_Field>
OPLS_2005

> <r_lp_Energy>
44.9439

> <b_lp_Chiralities_Consistent>
1

> <s_lp_Variant>
AV-unprocessed.smi:1787-4

> <Gold.Version>
5.8.1

> <Gold.Id.Protein>
6NUR|6NUR_protein|mol2

> <Gold.PLP.Fitness>
46.4088

> <Gold.PLP.PLP>
-31.6807

> <Gold.PLP.part.hbond>
-4.0000

> <Gold.PLP.part.metal>
0.0000

> <Gold.PLP.part.buried>
-2.2284

> <Gold.PLP.part.nonpolar>
-27.3594

> <Gold.PLP.part.repulsive>
0.5478

> <Gold.PLP.ligand.clash>
0.0000

> <Gold.PLP.ligand.torsion>
0.6477

> <Gold.PLP.Chemscore.Hbond>
4.9825

> <Gold.PLP.Chemscore.CHOScore>
0.3138

> <Gold.PLP.Chemscore.Metal>
0.0000

> <Gold.Chemscore.Hbonds>
donor molecule, donor type, donor heavy atom, donor atom, acceptor molecule, acceptor atom, score
      L1  H     3    23       P1  7948  1.00
      L1  H     6    45       P1  7948  1.76
      L1  H    16    40       P1  7948  1.00
      P1  H 10752 10764       L1     9  1.00
      L1  C    22    44       P1 10747  0.34

> <Gold.PLP.Chemscore.Internal.Correction>
0.1346

> <Gold.Rescore>
     Score         DG    S(hbond)    S(metal)    S(lipo)     H(rot)  DE(clash)    DE(int)     intcor
     22.24     -23.11       3.49        0.00      83.53       1.49       0.13       0.73       ----

> <Gold.Chemscore.Fitness>
22.2399

> <Gold.Chemscore.DG>
-23.1086

> <Gold.Chemscore.ZeroCoef>
-5.4800

> <Gold.Chemscore.Hbond>
3.4911

> <Gold.Chemscore.Metal>
0.0000

> <Gold.Chemscore.Lipo>
83.5267

> <Gold.Chemscore.Internal_Hbond>
0.0000

> <Gold.Chemscore.DEClash>
0.1344

> <Gold.Chemscore.DEInternal>
0.7344

> <Gold.Chemscore.Rot>
1.4860

> <Gold.Chemscore.Internal.Correction>
   9.000000E+99

> <Gold.Chemscore.Hbonds>
donor molecule, donor type, donor heavy atom, donor atom, acceptor molecule, acceptor atom, score
      L1  H     3    23       P1  7948  0.99
      L1  H     6    45       P1  7948  0.86
      L1  H    16    40       P1  7948  0.95
      P1  H 10752 10764       L1     9  0.20

> <Gold.Chemscore.Hbond.Weighted>
-11.6602

> <Gold.Chemscore.Metal.Weighted>
-0.0000

> <Gold.Chemscore.Lipo.Weighted>
-9.7726

> <Gold.Chemscore.Internal_Hbond.Weighted>
0.0000

> <Gold.Chemscore.DEClash.Weighted>
0.1344

> <Gold.Chemscore.DEInternal.Weighted>
0.7344

> <Gold.Chemscore.Rot.Weighted>
3.8042

> <Gold.Chemscore.Internal.Correction.Weighted>
   9.000000E+99

> <Gold.Protein.RotatedTorsions>
[ 6907 6896 6895 6894 ] final  -94.00 input  -60.11 | X-H torsion
[ 7974 7965 7964 7962 ] final  -10.69 input  175.53 | X-H torsion
[ 8008 7997 7996 7995 ] final  -60.22 input   59.86 | X-H torsion
[ 10167 10162 10161 10158 ] final  -74.86 input  -65.29 | X-H torsion
[ 10718 10713 10712 10709 ] final  124.15 input   66.30 | X-H torsion
[ 10763 10752 10751 10750 ] final  -59.92 input  -60.55 | X-H torsion
[ 11005 11000 10999 10996 ] final  -16.06 input  -57.11 | X-H torsion

> <Gold.Protein.ActiveResidues>
 VAL166  LYS551  ARG553  GLY616  TRP617  ASP618  TYR619  PRO620  LYS621  CYS622 
 ASP623  PHE694  ASN695  SER759  ASP760  ASP761  ALA762  ILE779  LEU786  VAL792 
 PHE793  MET794  SER795  GLU796  ALA797  LYS798  CYS799  TRP800  GLU811  SER814 

> <Gold.Protein.RotatedAtoms>
  150.6933  134.1880  159.4273 H   0  0  0  0  0  0  0  0  0  0  0  0  # atno 6907 bound_to 6896
  151.9852  135.0005  160.0568 H   0  0  0  0  0  0  0  0  0  0  0  0  # atno 6908 bound_to 6896
  152.1718  133.4614  159.4950 H   0  0  0  0  0  0  0  0  0  0  0  0  # atno 6909 bound_to 6896
  146.2212  140.2801  142.8362 H   0  0  0  0  0  0  0  0  0  0  0  0  # atno 7974 bound_to 7965
  154.4388  140.1044  156.6239 H   0  0  0  0  0  0  0  0  0  0  0  0  # atno 8008 bound_to 7997
  155.5677  140.3488  155.4489 H   0  0  0  0  0  0  0  0  0  0  0  0  # atno 8009 bound_to 7997
  156.0412  140.1282  157.0142 H   0  0  0  0  0  0  0  0  0  0  0  0  # atno 8010 bound_to 7997
  140.4991  143.2364  151.7781 H   0  0  0  0  0  0  0  0  0  0  0  0  # atno 10167 bound_to 10162
  157.5608  131.1089  150.8541 H   0  0  0  0  0  0  0  0  0  0  0  0  # atno 10718 bound_to 10713
  154.2611  135.6308  153.5275 H   0  0  0  0  0  0  0  0  0  0  0  0  # atno 10763 bound_to 10752
  152.9895  135.5588  154.5703 H   0  0  0  0  0  0  0  0  0  0  0  0  # atno 10764 bound_to 10752
  154.5252  135.2885  155.1203 H   0  0  0  0  0  0  0  0  0  0  0  0  # atno 10765 bound_to 10752
  140.8029  133.8200  155.9488 H   0  0  0  0  0  0  0  0  0  0  0  0  # atno 11005 bound_to 11000
  144.9204  140.7861  143.5752 LP  0  0  0  0  0  0  0  0  0  0  0  0  # atno 17320 bound_to 7965
  145.2737  139.1945  143.4828 LP  0  0  0  0  0  0  0  0  0  0  0  0  # atno 17321 bound_to 7965
  139.4868  144.4546  151.9613 LP  0  0  0  0  0  0  0  0  0  0  0  0  # atno 17342 bound_to 10162
  140.3635  144.2944  150.5930 LP  0  0  0  0  0  0  0  0  0  0  0  0  # atno 17343 bound_to 10162
  156.9040  130.5257  149.5282 LP  0  0  0  0  0  0  0  0  0  0  0  0  # atno 17370 bound_to 10713
  156.0661  130.5704  150.9291 LP  0  0  0  0  0  0  0  0  0  0  0  0  # atno 17371 bound_to 10713
  140.9276  134.2062  157.4885 LP  0  0  0  0  0  0  0  0  0  0  0  0  # atno 17394 bound_to 11000
  139.8720  134.9819  156.5135 LP  0  0  0  0  0  0  0  0  0  0  0  0  # atno 17395 bound_to 11000

$$$$
