AV-unprocessed.smi:39|AV-procd|sdf|366|dock8
  -GOLD-   2262016203D 1   1.00000     0.00000
 Structure written by MMmdl.
 31 32  0  0  0  0  0  0  0  0  4 V2000
  147.4256  134.1865  162.5388 C   0  0  0  0  0  0  0  0  0  0  0  0
  146.5237  135.3741  162.2508 C   0  0  0  0  0  0  0  0  0  0  0  0
  145.1928  135.3419  162.4842 C   0  0  0  0  0  0  0  0  0  0  0  0
  144.3733  136.4282  162.2235 N   0  0  0  0  0  0  0  0  0  0  0  0
  142.8798  136.3798  162.4798 C   0  0  2  0  0  0  0  0  0  0  0  0
  142.4506  135.0073  163.0192 C   0  0  0  0  0  0  0  0  0  0  0  0
  141.1334  134.7662  162.3002 C   0  0  1  0  0  0  0  0  0  0  0  0
  140.0103  135.4037  162.9979 N   0  0  0  0  0  0  0  0  0  0  0  0
  138.9046  135.3383  162.4445 N   0  3  0  0  0  0  0  0  0  0  0  0
  137.8496  135.2145  162.0365 N   0  5  0  0  0  0  0  0  0  0  0  0
  141.3868  135.4416  160.9470 C   0  0  2  0  0  0  0  0  0  0  0  0
  142.1455  134.5360  159.9559 C   0  0  0  0  0  0  0  0  0  0  0  0
  142.3299  135.2061  158.7274 O   0  0  0  0  0  0  0  0  0  0  0  0
  142.1823  136.5798  161.2816 O   0  0  0  0  0  0  0  0  0  0  0  0
  144.9324  137.6026  161.6536 C   0  0  0  0  0  0  0  0  0  0  0  0
  144.1735  138.5360  161.3916 O   0  0  0  0  0  0  0  0  0  0  0  0
  146.2752  137.6466  161.4210 N   0  5  0  0  0  0  0  0  0  0  0  0
  147.1067  136.6012  161.6956 C   0  0  0  0  0  0  0  0  0  0  0  0
  148.3188  136.6581  161.4910 O   0  0  0  0  0  0  0  0  0  0  0  0
  142.6706  137.2065  163.1608 H   0  0  0  0  0  0  0  0  0  0  0  0
  140.9428  133.6986  162.1748 H   0  0  0  0  0  0  0  0  0  0  0  0
  140.4453  135.7595  160.4961 H   0  0  0  0  0  0  0  0  0  0  0  0
  146.8597  133.3476  162.9444 H   0  0  0  0  0  0  0  0  0  0  0  0
  148.1933  134.4580  163.2640 H   0  0  0  0  0  0  0  0  0  0  0  0
  147.9172  133.8520  161.6247 H   0  0  0  0  0  0  0  0  0  0  0  0
  144.7708  134.4333  162.8850 H   0  0  0  0  0  0  0  0  0  0  0  0
  143.1812  134.2519  162.7260 H   0  0  0  0  0  0  0  0  0  0  0  0
  142.3763  135.0142  164.1072 H   0  0  0  0  0  0  0  0  0  0  0  0
  143.1037  134.2021  160.3531 H   0  0  0  0  0  0  0  0  0  0  0  0
  141.5611  133.6402  159.7456 H   0  0  0  0  0  0  0  0  0  0  0  0
  141.6998  134.8737  158.1068 H   0  0  0  0  0  0  0  0  0  0  0  0
  1  2  1  0  0  0  0
  1 23  1  0  0  0  0
  1 24  1  0  0  0  0
  1 25  1  0  0  0  0
  2 18  1  0  0  0  0
  2  3  2  0  0  0  0
  3  4  1  0  0  0  0
  3 26  1  0  0  0  0
  4  5  1  0  0  0  0
  4 15  1  0  0  0  0
  5 20  1  0  0  0  0
  5 14  1  0  0  0  0
  5  6  1  0  0  0  0
  6  7  1  0  0  0  0
  6 27  1  0  0  0  0
  6 28  1  0  0  0  0
  7 21  1  0  0  0  0
  7  8  1  0  0  0  0
  7 11  1  0  0  0  0
  8  9  2  0  0  0  0
  9 10  2  0  0  0  0
 11 22  1  0  0  0  0
 11 12  1  0  0  0  0
 11 14  1  0  0  0  0
 12 13  1  0  0  0  0
 12 29  1  0  0  0  0
 12 30  1  0  0  0  0
 13 31  1  0  0  0  0
 15 16  2  0  0  0  0
 15 17  1  0  0  0  0
 17 18  1  0  0  0  0
 18 19  2  0  0  0  0
M  CHG  1   9   1
M  CHG  1  10  -1
M  CHG  1  17  -1
M  END
> <s_m_source_file>
AV-unprocessed.smi

> <i_m_source_file_index>
39

> <i_lp_mmshare_version>
43012

> <i_f3d_flags>
0

> <s_epik_input>
Tz1jMVtuSF1jKD1PKW4oW2NIXWMxW0NIM10pW0NASF0yW0NIMl1bQ0BIXShOPVtOK109W04tXSlbQ0BIXShPMilbQ0gyXVtPSF0=

> <s_epik_cmdline>
J2VwaWtfcHl0aG9uJywgJy1waCcsICc3LjAnLCAnLXRuJywgJzgnLCAnLW1hJywgJzIwMCcsICctbWV0YWxfYmluZGluZycsICctaW1hZScsICc8aW5maWxlLm1hZT4nLCAnLW9tYWUnLCAnPG91dGZpbGUubWFlPic=

> <r_lp_tautomer_probability>
0.999537

> <r_epik_Ionization_Penalty>
3.6393

> <r_epik_Ionization_Penalty_Charging>
9.76484e-08

> <r_epik_Ionization_Penalty_Neutral>
3.6393

> <r_epik_State_Penalty>
3.63887

> <r_epik_Charging_Adjusted_Penalty>
3.63887

> <i_epik_Tot_Q>
-1

> <i_epik_Tot_abs_Q>
3

> <r_epik_Metal_State_Penalty>
0.225911

> <b_epik_Metal_Only>
1

> <s_epik_Chemistry_Notes>
This compound contains an acetal/aminal-like group ( X-CH(R)-Y where X, Y are N, S, or O) that may be acid/base labile, releasing an aldehyde.

> <s_lp_Force_Field>
OPLS_2005

> <r_lp_Energy>
37.4001

> <b_lp_Chiralities_Consistent>
1

> <s_lp_Variant>
AV-unprocessed.smi:39-16

> <Gold.Version>
5.8.1

> <Gold.Id.Protein>
6NUR|6NUR_protein|mol2

> <Gold.PLP.Fitness>
42.6104

> <Gold.PLP.PLP>
-30.6270

> <Gold.PLP.part.hbond>
-5.0000

> <Gold.PLP.part.metal>
0.0000

> <Gold.PLP.part.buried>
-5.8239

> <Gold.PLP.part.nonpolar>
-19.6889

> <Gold.PLP.part.repulsive>
0.0578

> <Gold.PLP.ligand.clash>
0.0000

> <Gold.PLP.ligand.torsion>
0.0297

> <Gold.PLP.Chemscore.Hbond>
4.0000

> <Gold.PLP.Chemscore.CHOScore>
0.0000

> <Gold.PLP.Chemscore.Metal>
0.0000

> <Gold.Chemscore.Hbonds>
donor molecule, donor type, donor heavy atom, donor atom, acceptor molecule, acceptor atom, score
      L1  H    13    31       P1 11000  0.96
      P1  H  6931  6943       L1    19  1.00
      P1  H  6934  6947       L1    17  2.00

> <Gold.PLP.Chemscore.Internal.Correction>
0.0428

> <Gold.Rescore>
     Score         DG    S(hbond)    S(metal)    S(lipo)     H(rot)  DE(clash)    DE(int)     intcor
     11.18     -12.71       2.75        0.00      42.70       2.72       0.01       1.52       ----

> <Gold.Chemscore.Fitness>
11.1836

> <Gold.Chemscore.DG>
-12.7106

> <Gold.Chemscore.ZeroCoef>
-5.4800

> <Gold.Chemscore.Hbond>
2.7504

> <Gold.Chemscore.Metal>
0.0000

> <Gold.Chemscore.Lipo>
42.6954

> <Gold.Chemscore.Internal_Hbond>
0.0000

> <Gold.Chemscore.DEClash>
0.0106

> <Gold.Chemscore.DEInternal>
1.5164

> <Gold.Chemscore.Rot>
2.7153

> <Gold.Chemscore.Internal.Correction>
   9.000000E+99

> <Gold.Chemscore.Hbonds>
donor molecule, donor type, donor heavy atom, donor atom, acceptor molecule, acceptor atom, score
      L1  H    13    31       P1 11000  0.91
      P1  H  6931  6943       L1    19  0.88
      P1  H  6934  6947       L1    17  0.79

> <Gold.Chemscore.Hbond.Weighted>
-9.1865

> <Gold.Chemscore.Metal.Weighted>
-0.0000

> <Gold.Chemscore.Lipo.Weighted>
-4.9954

> <Gold.Chemscore.Internal_Hbond.Weighted>
0.0000

> <Gold.Chemscore.DEClash.Weighted>
0.0106

> <Gold.Chemscore.DEInternal.Weighted>
1.5164

> <Gold.Chemscore.Rot.Weighted>
6.9512

> <Gold.Chemscore.Internal.Correction.Weighted>
   9.000000E+99

> <Gold.Protein.RotatedTorsions>
[ 6907 6896 6895 6894 ] final   74.79 input  -60.11 | X-H torsion
[ 7974 7965 7964 7962 ] final   49.13 input  175.53 | X-H torsion
[ 8008 7997 7996 7995 ] final  -29.72 input   59.86 | X-H torsion
[ 10167 10162 10161 10158 ] final   14.44 input  -65.29 | X-H torsion
[ 10718 10713 10712 10709 ] final   87.68 input   66.30 | X-H torsion
[ 10763 10752 10751 10750 ] final -127.65 input  -60.55 | X-H torsion
[ 11005 11000 10999 10996 ] final   43.80 input  -57.11 | X-H torsion

> <Gold.Protein.ActiveResidues>
 VAL166  LYS551  ARG553  GLY616  TRP617  ASP618  TYR619  PRO620  LYS621  CYS622 
 ASP623  PHE694  ASN695  SER759  ASP760  ASP761  ALA762  ILE779  LEU786  VAL792 
 PHE793  MET794  SER795  GLU796  ALA797  LYS798  CYS799  TRP800  GLU811  SER814 

> <Gold.Protein.RotatedAtoms>
  152.4993  134.4219  159.9483 H   0  0  0  0  0  0  0  0  0  0  0  0  # atno 6907 bound_to 6896
  151.4192  133.3697  159.2761 H   0  0  0  0  0  0  0  0  0  0  0  0  # atno 6908 bound_to 6896
  150.9235  134.8674  159.7564 H   0  0  0  0  0  0  0  0  0  0  0  0  # atno 6909 bound_to 6896
  146.0138  139.4573  142.9939 H   0  0  0  0  0  0  0  0  0  0  0  0  # atno 7974 bound_to 7965
  154.4279  140.1811  156.1292 H   0  0  0  0  0  0  0  0  0  0  0  0  # atno 8008 bound_to 7997
  156.0081  140.3353  155.6888 H   0  0  0  0  0  0  0  0  0  0  0  0  # atno 8009 bound_to 7997
  155.6149  140.0654  157.2686 H   0  0  0  0  0  0  0  0  0  0  0  0  # atno 8010 bound_to 7997
  140.5935  143.8747  150.6896 H   0  0  0  0  0  0  0  0  0  0  0  0  # atno 10167 bound_to 10162
  157.6942  131.0265  150.3160 H   0  0  0  0  0  0  0  0  0  0  0  0  # atno 10718 bound_to 10713
  154.8753  135.3955  154.3628 H   0  0  0  0  0  0  0  0  0  0  0  0  # atno 10763 bound_to 10752
  153.4398  135.7026  153.6181 H   0  0  0  0  0  0  0  0  0  0  0  0  # atno 10764 bound_to 10752
  153.4767  135.3778  155.2389 H   0  0  0  0  0  0  0  0  0  0  0  0  # atno 10765 bound_to 10752
  140.1611  134.4340  155.8317 H   0  0  0  0  0  0  0  0  0  0  0  0  # atno 11005 bound_to 11000
  145.7300  141.0045  143.1356 LP  0  0  0  0  0  0  0  0  0  0  0  0  # atno 17320 bound_to 7965
  144.6963  139.8973  143.7456 LP  0  0  0  0  0  0  0  0  0  0  0  0  # atno 17321 bound_to 7965
  140.2276  143.3760  152.1592 LP  0  0  0  0  0  0  0  0  0  0  0  0  # atno 17342 bound_to 10162
  139.5243  144.7082  151.5289 LP  0  0  0  0  0  0  0  0  0  0  0  0  # atno 17343 bound_to 10162
  156.3655  130.3854  149.7217 LP  0  0  0  0  0  0  0  0  0  0  0  0  # atno 17370 bound_to 10713
  156.4649  130.7969  151.2989 LP  0  0  0  0  0  0  0  0  0  0  0  0  # atno 17371 bound_to 10713
  141.2209  133.6914  156.7595 LP  0  0  0  0  0  0  0  0  0  0  0  0  # atno 17394 bound_to 11000
  140.2489  134.8556  157.3647 LP  0  0  0  0  0  0  0  0  0  0  0  0  # atno 17395 bound_to 11000

$$$$
