AV-unprocessed.smi:3181|AV-procd|sdf|12144|dock7
  -GOLD-   2272017583D 1   1.00000     0.00000
 Structure written by MMmdl.
 42 43  0  0  0  0  0  0  0  0  2 V2000
  149.4660  141.5271  154.7793 C   0  0  0  0  0  0  0  0  0  0  0  0
  150.3954  141.4276  156.0002 C   0  0  1  0  0  0  0  0  0  0  0  0
  151.6827  140.6310  155.6954 C   0  0  0  0  0  0  0  0  0  0  0  0
  151.4172  139.2633  155.2901 N   0  0  0  0  0  0  0  0  0  0  0  0
  151.9763  138.1160  155.6793 C   0  0  0  0  0  0  0  0  0  0  0  0
  151.4642  137.0450  155.0897 N   0  0  0  0  0  0  0  0  0  0  0  0
  150.5233  137.6454  154.3014 C   0  0  0  0  0  0  0  0  0  0  0  0
  150.4517  138.9740  154.3869 N   0  0  0  0  0  0  0  0  0  0  0  0
  150.7376  142.7887  156.4727 N   0  3  0  0  0  0  0  0  0  0  0  0
  150.8774  142.9564  157.9381 C   0  0  2  0  0  0  0  0  0  0  0  0
  151.1595  144.4312  158.2631 C   0  0  0  0  0  0  0  0  0  0  0  0
  151.3160  144.6464  159.7741 C   0  0  0  0  0  0  0  0  0  0  0  0
  152.4331  143.7657  160.3687 C   0  0  1  0  0  0  0  0  0  0  0  0
  152.5606  144.0336  161.8789 C   0  0  0  0  0  0  0  0  0  0  0  0
  152.1810  142.2707  160.0382 C   0  0  2  0  0  0  0  0  0  0  0  0
  153.2975  141.3457  160.5555 C   0  0  0  0  0  0  0  0  0  0  0  0
  151.9946  142.0664  158.5197 C   0  0  0  0  0  0  0  0  0  0  0  0
  149.1250  140.5437  154.4543 H   0  0  0  0  0  0  0  0  0  0  0  0
  149.9680  142.0005  153.9350 H   0  0  0  0  0  0  0  0  0  0  0  0
  148.5772  142.1150  155.0109 H   0  0  0  0  0  0  0  0  0  0  0  0
  149.8395  140.9106  156.7839 H   0  0  0  0  0  0  0  0  0  0  0  0
  152.2485  141.1201  154.9012 H   0  0  0  0  0  0  0  0  0  0  0  0
  152.3376  140.6006  156.5665 H   0  0  0  0  0  0  0  0  0  0  0  0
  152.7750  138.0624  156.4049 H   0  0  0  0  0  0  0  0  0  0  0  0
  149.8708  137.0866  153.6466 H   0  0  0  0  0  0  0  0  0  0  0  0
  151.5858  143.0950  156.0179 H   0  0  0  0  0  0  0  0  0  0  0  0
  149.9266  142.6852  158.4003 H   0  0  0  0  0  0  0  0  0  0  0  0
  152.0674  144.7588  157.7541 H   0  0  0  0  0  0  0  0  0  0  0  0
  150.3504  145.0591  157.8880 H   0  0  0  0  0  0  0  0  0  0  0  0
  151.5284  145.6986  159.9675 H   0  0  0  0  0  0  0  0  0  0  0  0
  150.3698  144.4288  160.2716 H   0  0  0  0  0  0  0  0  0  0  0  0
  153.3738  144.0634  159.9027 H   0  0  0  0  0  0  0  0  0  0  0  0
  151.6802  143.6853  162.4201 H   0  0  0  0  0  0  0  0  0  0  0  0
  152.6709  145.0996  162.0792 H   0  0  0  0  0  0  0  0  0  0  0  0
  153.4339  143.5409  162.3056 H   0  0  0  0  0  0  0  0  0  0  0  0
  151.2539  141.9684  160.5276 H   0  0  0  0  0  0  0  0  0  0  0  0
  154.2705  141.6373  160.1592 H   0  0  0  0  0  0  0  0  0  0  0  0
  153.1168  140.3114  160.2609 H   0  0  0  0  0  0  0  0  0  0  0  0
  153.3612  141.3554  161.6433 H   0  0  0  0  0  0  0  0  0  0  0  0
  151.7665  141.0165  158.3343 H   0  0  0  0  0  0  0  0  0  0  0  0
  152.9342  142.2740  158.0050 H   0  0  0  0  0  0  0  0  0  0  0  0
  149.9867  143.3980  156.1805 H   0  0  0  0  0  0  0  0  0  0  0  0
  1  2  1  0  0  0  0
  1 18  1  0  0  0  0
  1 19  1  0  0  0  0
  1 20  1  0  0  0  0
  2  3  1  0  0  0  0
  2  9  1  0  0  0  0
  2 21  1  0  0  0  0
  3  4  1  0  0  0  0
  3 22  1  0  0  0  0
  3 23  1  0  0  0  0
  4  8  1  0  0  0  0
  4  5  1  0  0  0  0
  5  6  2  0  0  0  0
  5 24  1  0  0  0  0
  6  7  1  0  0  0  0
  7  8  2  0  0  0  0
  7 25  1  0  0  0  0
  9 10  1  0  0  0  0
  9 26  1  0  0  0  0
  9 42  1  0  0  0  0
 10 17  1  0  0  0  0
 10 11  1  0  0  0  0
 10 27  1  0  0  0  0
 11 12  1  0  0  0  0
 11 28  1  0  0  0  0
 11 29  1  0  0  0  0
 12 13  1  0  0  0  0
 12 30  1  0  0  0  0
 12 31  1  0  0  0  0
 13 14  1  0  0  0  0
 13 15  1  0  0  0  0
 13 32  1  0  0  0  0
 14 33  1  0  0  0  0
 14 34  1  0  0  0  0
 14 35  1  0  0  0  0
 15 16  1  0  0  0  0
 15 17  1  0  0  0  0
 15 36  1  0  0  0  0
 16 37  1  0  0  0  0
 16 38  1  0  0  0  0
 16 39  1  0  0  0  0
 17 40  1  0  0  0  0
 17 41  1  0  0  0  0
M  CHG  1   9   1
M  END
> <s_m_source_file>
AV-unprocessed.smi

> <i_m_source_file_index>
3181

> <i_lp_mmshare_version>
43012

> <i_f3d_flags>
0

> <s_epik_input>
bjFbY0hdbltjSF1uMVtDSDJdW0NAQEhdKFtDSDNdKVtOSF1bQ0BASF0yW0NIMl1bQ0gyXVtDQEBIXShbQ0gzXSlbQ0BASF0oW0NIM10pW0NIMl0y

> <s_epik_cmdline>
J2VwaWtfcHl0aG9uJywgJy1waCcsICc3LjAnLCAnLXRuJywgJzgnLCAnLW1hJywgJzIwMCcsICctbWV0YWxfYmluZGluZycsICctaW1hZScsICc8aW5maWxlLm1hZT4nLCAnLW9tYWUnLCAnPG91dGZpbGUubWFlPic=

> <r_lp_tautomer_probability>
1

> <r_epik_Ionization_Penalty>
0.000617007

> <r_epik_Ionization_Penalty_Charging>
0.000616215

> <r_epik_Ionization_Penalty_Neutral>
7.92544e-07

> <r_epik_State_Penalty>
0.000388807

> <r_epik_Charging_Adjusted_Penalty>
0.00100502

> <i_epik_Tot_Q>
1

> <i_epik_Tot_abs_Q>
1

> <r_epik_Metal_State_Penalty>
-0

> <b_epik_Metal_Only>
0

> <s_lp_Force_Field>
OPLS_2005

> <r_lp_Energy>
19.3641

> <b_lp_Chiralities_Consistent>
1

> <s_lp_Variant>
AV-unprocessed.smi:3181-10

> <Gold.Version>
5.8.1

> <Gold.Id.Protein>
6NUR|6NUR_protein|mol2

> <Gold.PLP.Fitness>
53.1279

> <Gold.PLP.PLP>
-42.1691

> <Gold.PLP.part.hbond>
-2.0000

> <Gold.PLP.part.metal>
0.0000

> <Gold.PLP.part.buried>
-4.4213

> <Gold.PLP.part.nonpolar>
-35.6617

> <Gold.PLP.part.repulsive>
0.3307

> <Gold.PLP.ligand.clash>
0.0000

> <Gold.PLP.ligand.torsion>
0.6202

> <Gold.PLP.Chemscore.Hbond>
3.0000

> <Gold.PLP.Chemscore.CHOScore>
1.0606

> <Gold.PLP.Chemscore.Metal>
0.0000

> <Gold.Chemscore.Hbonds>
donor molecule, donor type, donor heavy atom, donor atom, acceptor molecule, acceptor atom, score
      L1  H     9    42       P1  8028  2.00
      P1  H 10752 10765       L1     6  0.76
      L1  C     7    25       P1  7948  1.00

> <Gold.PLP.Chemscore.Internal.Correction>
0.0175

> <Gold.Rescore>
     Score         DG    S(hbond)    S(metal)    S(lipo)     H(rot)  DE(clash)    DE(int)     intcor
     16.45     -19.17       1.94        0.00     107.82       2.11       0.49       2.23       ----

> <Gold.Chemscore.Fitness>
16.4459

> <Gold.Chemscore.DG>
-19.1667

> <Gold.Chemscore.ZeroCoef>
-5.4800

> <Gold.Chemscore.Hbond>
1.9379

> <Gold.Chemscore.Metal>
0.0000

> <Gold.Chemscore.Lipo>
107.8166

> <Gold.Chemscore.Internal_Hbond>
0.0000

> <Gold.Chemscore.DEClash>
0.4925

> <Gold.Chemscore.DEInternal>
2.2283

> <Gold.Chemscore.Rot>
2.1095

> <Gold.Chemscore.Internal.Correction>
   9.000000E+99

> <Gold.Chemscore.Hbonds>
donor molecule, donor type, donor heavy atom, donor atom, acceptor molecule, acceptor atom, score
      L1  H     9    42       P1  8028  1.00
      P1  H 10752 10765       L1     6  0.63

> <Gold.Chemscore.Hbond.Weighted>
-6.4725

> <Gold.Chemscore.Metal.Weighted>
-0.0000

> <Gold.Chemscore.Lipo.Weighted>
-12.6145

> <Gold.Chemscore.Internal_Hbond.Weighted>
0.0000

> <Gold.Chemscore.DEClash.Weighted>
0.4925

> <Gold.Chemscore.DEInternal.Weighted>
2.2283

> <Gold.Chemscore.Rot.Weighted>
5.4003

> <Gold.Chemscore.Internal.Correction.Weighted>
   9.000000E+99

> <Gold.Protein.RotatedTorsions>
[ 6907 6896 6895 6894 ] final   34.64 input  -60.11 | X-H torsion
[ 7974 7965 7964 7962 ] final -101.91 input  175.53 | X-H torsion
[ 8008 7997 7996 7995 ] final  -13.84 input   59.86 | X-H torsion
[ 10167 10162 10161 10158 ] final   67.42 input  -65.29 | X-H torsion
[ 10718 10713 10712 10709 ] final -167.36 input   66.30 | X-H torsion
[ 10763 10752 10751 10750 ] final -177.80 input  -60.55 | X-H torsion
[ 11005 11000 10999 10996 ] final  173.96 input  -57.11 | X-H torsion

> <Gold.Protein.ActiveResidues>
 VAL166  LYS551  ARG553  GLY616  TRP617  ASP618  TYR619  PRO620  LYS621  CYS622 
 ASP623  PHE694  ASN695  SER759  ASP760  ASP761  ALA762  ILE779  LEU786  VAL792 
 PHE793  MET794  SER795  GLU796  ALA797  LYS798  CYS799  TRP800  GLU811  SER814 

> <Gold.Protein.RotatedAtoms>
  152.1052  134.9314  160.0568 H   0  0  0  0  0  0  0  0  0  0  0  0  # atno 6907 bound_to 6896
  152.0513  133.4015  159.4386 H   0  0  0  0  0  0  0  0  0  0  0  0  # atno 6908 bound_to 6896
  150.6841  134.3226  159.4836 H   0  0  0  0  0  0  0  0  0  0  0  0  # atno 6909 bound_to 6896
  145.2756  140.9311  143.2961 H   0  0  0  0  0  0  0  0  0  0  0  0  # atno 7974 bound_to 7965
  154.5259  140.2239  155.8891 H   0  0  0  0  0  0  0  0  0  0  0  0  # atno 8008 bound_to 7997
  156.1713  140.3121  155.8942 H   0  0  0  0  0  0  0  0  0  0  0  0  # atno 8009 bound_to 7997
  155.3553  140.0458  157.3037 H   0  0  0  0  0  0  0  0  0  0  0  0  # atno 8010 bound_to 7997
  140.0897  144.4998  150.7107 H   0  0  0  0  0  0  0  0  0  0  0  0  # atno 10167 bound_to 10162
  156.6813  130.9123  151.3057 H   0  0  0  0  0  0  0  0  0  0  0  0  # atno 10718 bound_to 10713
  154.5557  135.2816  155.0967 H   0  0  0  0  0  0  0  0  0  0  0  0  # atno 10763 bound_to 10752
  154.2395  135.6359  153.5206 H   0  0  0  0  0  0  0  0  0  0  0  0  # atno 10764 bound_to 10752
  153.0015  135.5556  154.6136 H   0  0  0  0  0  0  0  0  0  0  0  0  # atno 10765 bound_to 10752
  140.3461  134.7235  157.4236 H   0  0  0  0  0  0  0  0  0  0  0  0  # atno 11005 bound_to 11000
  144.9297  139.4313  143.6501 LP  0  0  0  0  0  0  0  0  0  0  0  0  # atno 17320 bound_to 7965
  146.3233  139.8202  142.8928 LP  0  0  0  0  0  0  0  0  0  0  0  0  # atno 17321 bound_to 7965
  140.7035  143.2451  151.4796 LP  0  0  0  0  0  0  0  0  0  0  0  0  # atno 17342 bound_to 10162
  139.5731  144.1881  152.1865 LP  0  0  0  0  0  0  0  0  0  0  0  0  # atno 17343 bound_to 10162
  157.7042  130.9367  150.0880 LP  0  0  0  0  0  0  0  0  0  0  0  0  # atno 17370 bound_to 10713
  156.1865  130.3652  149.8965 LP  0  0  0  0  0  0  0  0  0  0  0  0  # atno 17371 bound_to 10713
  140.0741  134.5822  155.8610 LP  0  0  0  0  0  0  0  0  0  0  0  0  # atno 17394 bound_to 11000
  141.2025  133.6625  156.6010 LP  0  0  0  0  0  0  0  0  0  0  0  0  # atno 17395 bound_to 11000

$$$$
