AV-unprocessed.smi:2743|AV-procd|sdf|10566|dock1
  -GOLD-   2272015 13D 1   1.00000     0.00000
 Structure written by MMmdl.
 38 39  0  0  0  0  0  0  0  0  1 V2000
  152.9966  143.5567  159.6641 N   0  0  0  0  0  0  0  0  0  0  0  0
  152.6661  142.4744  159.4209 C   0  0  0  0  0  0  0  0  0  0  0  0
  152.2485  141.0963  159.1128 C   0  0  0  0  0  0  0  0  0  0  0  0
  151.8477  140.8928  157.6515 C   0  0  0  0  0  0  0  0  0  0  0  0
  152.4317  140.0671  156.9497 O   0  0  0  0  0  0  0  0  0  0  0  0
  150.8487  141.6686  157.2038 N   0  0  0  0  0  0  0  0  0  0  0  0
  150.3105  141.6685  155.8435 C   0  0  0  0  0  0  0  0  0  0  0  0
  149.2898  140.5190  155.5870 C   0  0  0  0  0  0  0  0  0  0  0  0
  150.0725  139.2005  155.3932 C   0  0  0  0  0  0  0  0  0  0  0  0
  149.9522  138.1590  156.3446 C   0  0  0  0  0  0  0  0  0  0  0  0
  150.6613  136.9578  156.1488 C   0  0  0  0  0  0  0  0  0  0  0  0
  151.4580  136.7325  155.0849 N   0  0  0  0  0  0  0  0  0  0  0  0
  151.5702  137.7158  154.1692 C   0  0  0  0  0  0  0  0  0  0  0  0
  150.9051  138.9538  154.2724 C   0  0  0  0  0  0  0  0  0  0  0  0
  148.2686  140.4133  156.7635 C   0  0  0  0  0  0  0  0  0  0  0  0
  147.3147  141.6151  156.8875 C   0  0  0  0  0  0  0  0  0  0  0  0
  146.5465  141.8469  155.5824 C   0  0  0  0  0  0  0  0  0  0  0  0
  147.5137  142.0114  154.4053 C   0  0  0  0  0  0  0  0  0  0  0  0
  148.4752  140.8136  154.2928 C   0  0  0  0  0  0  0  0  0  0  0  0
  153.0721  140.4293  159.3696 H   0  0  0  0  0  0  0  0  0  0  0  0
  151.4057  140.8452  159.7572 H   0  0  0  0  0  0  0  0  0  0  0  0
  150.4321  142.3211  157.8522 H   0  0  0  0  0  0  0  0  0  0  0  0
  149.8932  142.6443  155.5971 H   0  0  0  0  0  0  0  0  0  0  0  0
  151.1642  141.5537  155.1752 H   0  0  0  0  0  0  0  0  0  0  0  0
  149.3227  138.2645  157.2151 H   0  0  0  0  0  0  0  0  0  0  0  0
  150.5811  136.1544  156.8661 H   0  0  0  0  0  0  0  0  0  0  0  0
  152.2081  137.5092  153.3226 H   0  0  0  0  0  0  0  0  0  0  0  0
  151.0485  139.6785  153.4864 H   0  0  0  0  0  0  0  0  0  0  0  0
  147.6467  139.5286  156.6193 H   0  0  0  0  0  0  0  0  0  0  0  0
  148.7813  140.2706  157.7148 H   0  0  0  0  0  0  0  0  0  0  0  0
  146.6092  141.4388  157.7000 H   0  0  0  0  0  0  0  0  0  0  0  0
  147.8656  142.5149  157.1601 H   0  0  0  0  0  0  0  0  0  0  0  0
  145.8808  141.0034  155.3942 H   0  0  0  0  0  0  0  0  0  0  0  0
  145.9121  142.7289  155.6727 H   0  0  0  0  0  0  0  0  0  0  0  0
  146.9469  142.1133  153.4795 H   0  0  0  0  0  0  0  0  0  0  0  0
  148.0767  142.9382  154.5159 H   0  0  0  0  0  0  0  0  0  0  0  0
  149.1381  140.9866  153.4454 H   0  0  0  0  0  0  0  0  0  0  0  0
  147.8878  139.9306  154.0354 H   0  0  0  0  0  0  0  0  0  0  0  0
  1  2  3  0  0  0  0
  2  3  1  0  0  0  0
  3  4  1  0  0  0  0
  3 20  1  0  0  0  0
  3 21  1  0  0  0  0
  4  5  2  0  0  0  0
  4  6  1  0  0  0  0
  6  7  1  0  0  0  0
  6 22  1  0  0  0  0
  7  8  1  0  0  0  0
  7 23  1  0  0  0  0
  7 24  1  0  0  0  0
  8 19  1  0  0  0  0
  8  9  1  0  0  0  0
  8 15  1  0  0  0  0
  9 14  1  0  0  0  0
  9 10  2  0  0  0  0
 10 11  1  0  0  0  0
 10 25  1  0  0  0  0
 11 12  2  0  0  0  0
 11 26  1  0  0  0  0
 12 13  1  0  0  0  0
 13 14  2  0  0  0  0
 13 27  1  0  0  0  0
 14 28  1  0  0  0  0
 15 16  1  0  0  0  0
 15 29  1  0  0  0  0
 15 30  1  0  0  0  0
 16 17  1  0  0  0  0
 16 31  1  0  0  0  0
 16 32  1  0  0  0  0
 17 18  1  0  0  0  0
 17 33  1  0  0  0  0
 17 34  1  0  0  0  0
 18 19  1  0  0  0  0
 18 35  1  0  0  0  0
 18 36  1  0  0  0  0
 19 37  1  0  0  0  0
 19 38  1  0  0  0  0
M  END
> <s_m_source_file>
AV-unprocessed.smi

> <i_m_source_file_index>
2743

> <i_lp_mmshare_version>
43012

> <i_f3d_flags>
0

> <s_epik_input>
TiNDW0NIMl1DKD1PKVtOSF1bQ0gyXUMxKFtDSDJdW0NIMl1bQ0gyXVtDSDJdW0NIMl0xKWMyW2NIXVtjSF1uW2NIXVtjSF0y

> <s_epik_cmdline>
J2VwaWtfcHl0aG9uJywgJy1waCcsICc3LjAnLCAnLXRuJywgJzgnLCAnLW1hJywgJzIwMCcsICctbWV0YWxfYmluZGluZycsICctaW1hZScsICc8aW5maWxlLm1hZT4nLCAnLW9tYWUnLCAnPG91dGZpbGUubWFlPic=

> <r_epik_Ionization_Penalty>
0.0541122

> <r_epik_Ionization_Penalty_Charging>
0

> <r_epik_Ionization_Penalty_Neutral>
0.0541122

> <r_epik_State_Penalty>
0.0465294

> <r_epik_Charging_Adjusted_Penalty>
0.0465294

> <i_epik_Tot_Q>
0

> <i_epik_Tot_abs_Q>
0

> <r_epik_Metal_State_Penalty>
0.042555

> <b_epik_Metal_Only>
0

> <s_lp_Force_Field>
OPLS_2005

> <r_lp_Energy>
19.5313

> <b_lp_Chiralities_Consistent>
1

> <s_lp_Variant>
AV-unprocessed.smi:2743-1

> <Gold.Version>
5.8.1

> <Gold.Id.Protein>
6NUR|6NUR_protein|mol2

> <Gold.PLP.Fitness>
37.8135

> <Gold.PLP.PLP>
-30.6341

> <Gold.PLP.part.hbond>
-2.0000

> <Gold.PLP.part.metal>
0.0000

> <Gold.PLP.part.buried>
-3.8806

> <Gold.PLP.part.nonpolar>
-24.6313

> <Gold.PLP.part.repulsive>
0.1721

> <Gold.PLP.ligand.clash>
0.0000

> <Gold.PLP.ligand.torsion>
0.5258

> <Gold.PLP.Chemscore.Hbond>
2.0000

> <Gold.PLP.Chemscore.CHOScore>
0.7368

> <Gold.PLP.Chemscore.Metal>
0.0000

> <Gold.Chemscore.Hbonds>
donor molecule, donor type, donor heavy atom, donor atom, acceptor molecule, acceptor atom, score
      P1  H  7997  8009       L1     5  1.00
      P1  H 10752 10764       L1    12  0.95
      L1  C    13    27       P1  7949  0.61

> <Gold.PLP.Chemscore.Internal.Correction>
0.0207

> <Gold.Rescore>
     Score         DG    S(hbond)    S(metal)    S(lipo)     H(rot)  DE(clash)    DE(int)     intcor
     13.75     -14.73       1.85        0.00      65.28       1.79       0.24       0.74       ----

> <Gold.Chemscore.Fitness>
13.7492

> <Gold.Chemscore.DG>
-14.7282

> <Gold.Chemscore.ZeroCoef>
-5.4800

> <Gold.Chemscore.Hbond>
1.8538

> <Gold.Chemscore.Metal>
0.0000

> <Gold.Chemscore.Lipo>
65.2785

> <Gold.Chemscore.Internal_Hbond>
0.0000

> <Gold.Chemscore.DEClash>
0.2428

> <Gold.Chemscore.DEInternal>
0.7362

> <Gold.Chemscore.Rot>
1.7895

> <Gold.Chemscore.Internal.Correction>
   9.000000E+99

> <Gold.Chemscore.Hbonds>
donor molecule, donor type, donor heavy atom, donor atom, acceptor molecule, acceptor atom, score
      P1  H  7997  8009       L1     5  0.97
      P1  H 10752 10764       L1    12  0.21

> <Gold.Chemscore.Hbond.Weighted>
-6.1918

> <Gold.Chemscore.Metal.Weighted>
-0.0000

> <Gold.Chemscore.Lipo.Weighted>
-7.6376

> <Gold.Chemscore.Internal_Hbond.Weighted>
0.0000

> <Gold.Chemscore.DEClash.Weighted>
0.2428

> <Gold.Chemscore.DEInternal.Weighted>
0.7362

> <Gold.Chemscore.Rot.Weighted>
4.5812

> <Gold.Chemscore.Internal.Correction.Weighted>
   9.000000E+99

> <Gold.Protein.RotatedTorsions>
[ 6907 6896 6895 6894 ] final  -69.77 input  -60.11 | X-H torsion
[ 7974 7965 7964 7962 ] final -122.81 input  175.53 | X-H torsion
[ 8008 7997 7996 7995 ] final -169.73 input   59.86 | X-H torsion
[ 10167 10162 10161 10158 ] final -178.14 input  -65.29 | X-H torsion
[ 10718 10713 10712 10709 ] final  111.91 input   66.30 | X-H torsion
[ 10763 10752 10751 10750 ] final  -65.95 input  -60.55 | X-H torsion
[ 11005 11000 10999 10996 ] final  -23.32 input  -57.11 | X-H torsion

> <Gold.Protein.ActiveResidues>
 VAL166  LYS551  ARG553  GLY616  TRP617  ASP618  TYR619  PRO620  LYS621  CYS622 
 ASP623  PHE694  ASN695  SER759  ASP760  ASP761  ALA762  ILE779  LEU786  VAL792 
 PHE793  MET794  SER795  GLU796  ALA797  LYS798  CYS799  TRP800  GLU811  SER814 

> <Gold.Protein.RotatedAtoms>
  150.7289  134.5549  159.5812 H   0  0  0  0  0  0  0  0  0  0  0  0  # atno 6907 bound_to 6896
  152.3027  134.7589  160.0363 H   0  0  0  0  0  0  0  0  0  0  0  0  # atno 6908 bound_to 6896
  151.8164  133.3353  159.3607 H   0  0  0  0  0  0  0  0  0  0  0  0  # atno 6909 bound_to 6896
  145.0254  140.8023  143.4356 H   0  0  0  0  0  0  0  0  0  0  0  0  # atno 7974 bound_to 7965
  155.9089  140.1054  157.1294 H   0  0  0  0  0  0  0  0  0  0  0  0  # atno 8008 bound_to 7997
  154.4036  140.1278  156.4597 H   0  0  0  0  0  0  0  0  0  0  0  0  # atno 8009 bound_to 7997
  155.7333  140.3468  155.5072 H   0  0  0  0  0  0  0  0  0  0  0  0  # atno 8010 bound_to 7997
  139.5446  144.2269  152.0963 H   0  0  0  0  0  0  0  0  0  0  0  0  # atno 10167 bound_to 10162
  157.6420  131.0959  150.6817 H   0  0  0  0  0  0  0  0  0  0  0  0  # atno 10718 bound_to 10713
  154.3526  135.6133  153.5650 H   0  0  0  0  0  0  0  0  0  0  0  0  # atno 10763 bound_to 10752
  152.9797  135.5796  154.4726 H   0  0  0  0  0  0  0  0  0  0  0  0  # atno 10764 bound_to 10752
  154.4449  135.2851  155.1799 H   0  0  0  0  0  0  0  0  0  0  0  0  # atno 10765 bound_to 10752
  140.8740  133.7700  156.0221 H   0  0  0  0  0  0  0  0  0  0  0  0  # atno 11005 bound_to 11000
  145.1841  139.2336  143.5277 LP  0  0  0  0  0  0  0  0  0  0  0  0  # atno 17320 bound_to 7965
  146.3491  140.1621  142.8590 LP  0  0  0  0  0  0  0  0  0  0  0  0  # atno 17321 bound_to 7965
  140.1754  144.4896  150.6557 LP  0  0  0  0  0  0  0  0  0  0  0  0  # atno 17342 bound_to 10162
  140.6690  143.2278  151.5673 LP  0  0  0  0  0  0  0  0  0  0  0  0  # atno 17343 bound_to 10162
  156.7140  130.4660  149.5540 LP  0  0  0  0  0  0  0  0  0  0  0  0  # atno 17370 bound_to 10713
  156.1710  130.6437  151.0838 LP  0  0  0  0  0  0  0  0  0  0  0  0  # atno 17371 bound_to 10713
  140.8540  134.2920  157.5263 LP  0  0  0  0  0  0  0  0  0  0  0  0  # atno 17394 bound_to 11000
  139.8714  134.9483  156.3992 LP  0  0  0  0  0  0  0  0  0  0  0  0  # atno 17395 bound_to 11000

$$$$
