AV-unprocessed.smi:790|AV-procd|sdf|3743|dock4
  -GOLD-   22720 1173D 1   1.00000     0.00000
 Structure written by MMmdl.
 38 40  0  0  0  0  0  0  0  0  1 V2000
  145.6937  137.5843  154.4124 O   0  0  0  0  0  0  0  0  0  0  0  0
  146.6129  137.0487  153.7944 C   0  0  0  0  0  0  0  0  0  0  0  0
  147.8108  137.6034  153.5417 N   0  0  0  0  0  0  0  0  0  0  0  0
  148.2816  138.9010  153.8817 C   0  0  0  0  0  0  0  0  0  0  0  0
  147.3613  139.9682  153.8312 C   0  0  0  0  0  0  0  0  0  0  0  0
  147.7903  141.2635  154.1774 C   0  0  0  0  0  0  0  0  0  0  0  0
  149.1305  141.4416  154.5707 C   0  0  0  0  0  0  0  0  0  0  0  0
  150.0217  140.4306  154.6378 N   0  0  0  0  0  0  0  0  0  0  0  0
  149.6035  139.1903  154.3036 C   0  0  0  0  0  0  0  0  0  0  0  0
  146.5454  135.8040  153.3019 N   0  0  0  0  0  0  0  0  0  0  0  0
  145.3803  134.9205  153.3830 C   0  0  1  0  0  0  0  0  0  0  0  0
  144.1314  135.5308  152.6991 C   0  0  1  0  0  0  0  0  0  0  0  0
  144.4518  136.0157  151.2690 C   0  0  0  0  0  0  0  0  0  0  0  0
  144.6625  134.6954  150.5068 C   0  0  0  0  0  0  0  0  0  0  0  0
  144.4006  133.6260  151.5882 C   0  0  2  0  0  0  0  0  0  0  0  0
  143.2953  134.2906  152.4004 C   0  0  0  0  0  0  0  0  0  0  0  0
  145.5406  133.5648  152.6346 C   0  0  1  0  0  0  0  0  0  0  0  0
  146.9421  133.2103  152.0878 C   0  0  0  0  0  0  0  0  0  0  0  0
  146.9664  131.8753  151.6284 O   0  0  0  0  0  0  0  0  0  0  0  0
  148.4857  137.0072  153.0853 H   0  0  0  0  0  0  0  0  0  0  0  0
  146.3381  139.7999  153.5281 H   0  0  0  0  0  0  0  0  0  0  0  0
  147.1088  142.1004  154.1430 H   0  0  0  0  0  0  0  0  0  0  0  0
  149.4948  142.4211  154.8426 H   0  0  0  0  0  0  0  0  0  0  0  0
  150.3560  138.4242  154.4024 H   0  0  0  0  0  0  0  0  0  0  0  0
  147.3538  135.4402  152.8193 H   0  0  0  0  0  0  0  0  0  0  0  0
  145.1407  134.7251  154.4302 H   0  0  0  0  0  0  0  0  0  0  0  0
  143.6282  136.2829  153.3075 H   0  0  0  0  0  0  0  0  0  0  0  0
  143.6014  136.5579  150.8531 H   0  0  0  0  0  0  0  0  0  0  0  0
  145.3147  136.6788  151.2099 H   0  0  0  0  0  0  0  0  0  0  0  0
  143.9347  134.6069  149.6992 H   0  0  0  0  0  0  0  0  0  0  0  0
  145.6518  134.6220  150.0573 H   0  0  0  0  0  0  0  0  0  0  0  0
  144.1342  132.6508  151.1793 H   0  0  0  0  0  0  0  0  0  0  0  0
  143.0153  133.7311  153.2949 H   0  0  0  0  0  0  0  0  0  0  0  0
  142.3961  134.5023  151.8189 H   0  0  0  0  0  0  0  0  0  0  0  0
  145.2814  132.7778  153.3456 H   0  0  0  0  0  0  0  0  0  0  0  0
  147.2516  133.8741  151.2813 H   0  0  0  0  0  0  0  0  0  0  0  0
  147.6865  133.3055  152.8784 H   0  0  0  0  0  0  0  0  0  0  0  0
  147.6546  131.7909  150.9861 H   0  0  0  0  0  0  0  0  0  0  0  0
  1  2  2  0  0  0  0
  2  3  1  0  0  0  0
  2 10  1  0  0  0  0
  3  4  1  0  0  0  0
  3 20  1  0  0  0  0
  4  9  1  0  0  0  0
  4  5  2  0  0  0  0
  5  6  1  0  0  0  0
  5 21  1  0  0  0  0
  6  7  2  0  0  0  0
  6 22  1  0  0  0  0
  7  8  1  0  0  0  0
  7 23  1  0  0  0  0
  8  9  2  0  0  0  0
  9 24  1  0  0  0  0
 10 11  1  0  0  0  0
 10 25  1  0  0  0  0
 11 17  1  0  0  0  0
 11 12  1  0  0  0  0
 11 26  1  0  0  0  0
 12 16  1  0  0  0  0
 12 13  1  0  0  0  0
 12 27  1  0  0  0  0
 13 14  1  0  0  0  0
 13 28  1  0  0  0  0
 13 29  1  0  0  0  0
 14 15  1  0  0  0  0
 14 30  1  0  0  0  0
 14 31  1  0  0  0  0
 15 16  1  0  0  0  0
 15 17  1  0  0  0  0
 15 32  1  0  0  0  0
 16 33  1  0  0  0  0
 16 34  1  0  0  0  0
 17 18  1  0  0  0  0
 17 35  1  0  0  0  0
 18 19  1  0  0  0  0
 18 36  1  0  0  0  0
 18 37  1  0  0  0  0
 19 38  1  0  0  0  0
M  END
> <s_m_source_file>
AV-unprocessed.smi

> <i_m_source_file_index>
790

> <i_lp_mmshare_version>
43012

> <i_f3d_flags>
0

> <s_epik_input>
W0NIMl0xW0NIMl1bQ0BASF0oW0NIMl0yKVtDQEBIXShbQ0gyXVtPSF0pW0NAQEhdKFtDQEhdMTIpW05IXUMoPU8pW05IXWMzW2NIXVtjSF1bY0hdbltjSF0z

> <s_epik_cmdline>
J2VwaWtfcHl0aG9uJywgJy1waCcsICc3LjAnLCAnLXRuJywgJzgnLCAnLW1hJywgJzIwMCcsICctbWV0YWxfYmluZGluZycsICctaW1hZScsICc8aW5maWxlLm1hZT4nLCAnLW9tYWUnLCAnPG91dGZpbGUubWFlPic=

> <r_epik_Ionization_Penalty>
0.00497582

> <r_epik_Ionization_Penalty_Charging>
0

> <r_epik_Ionization_Penalty_Neutral>
0.00497582

> <r_epik_State_Penalty>
0.00358602

> <r_epik_Charging_Adjusted_Penalty>
0.00358602

> <i_epik_Tot_Q>
0

> <i_epik_Tot_abs_Q>
0

> <r_epik_Metal_State_Penalty>
-0

> <b_epik_Metal_Only>
0

> <s_lp_Force_Field>
OPLS_2005

> <r_lp_Energy>
55.7442

> <b_lp_Chiralities_Consistent>
1

> <s_lp_Variant>
AV-unprocessed.smi:790-4

> <Gold.Version>
5.8.1

> <Gold.Id.Protein>
6NUR|6NUR_protein|mol2

> <Gold.PLP.Fitness>
42.9230

> <Gold.PLP.PLP>
-29.5643

> <Gold.PLP.part.hbond>
-3.7593

> <Gold.PLP.part.metal>
0.0000

> <Gold.PLP.part.buried>
-2.1110

> <Gold.PLP.part.nonpolar>
-24.1295

> <Gold.PLP.part.repulsive>
0.2056

> <Gold.PLP.ligand.clash>
0.0000

> <Gold.PLP.ligand.torsion>
0.3210

> <Gold.PLP.Chemscore.Hbond>
3.6640

> <Gold.PLP.Chemscore.CHOScore>
1.0000

> <Gold.PLP.Chemscore.Metal>
0.0000

> <Gold.Chemscore.Hbonds>
donor molecule, donor type, donor heavy atom, donor atom, acceptor molecule, acceptor atom, score
      L1  H     3    20       P1  7948  0.96
      L1  H    10    25       P1  7948  0.74
      L1  H    19    38       P1 10747  1.00
      P1  H  7989  7998       L1     8  0.93
      L1  C     7    23       P1  8028  1.00

> <Gold.PLP.Chemscore.Internal.Correction>
0.0087

> <Gold.Rescore>
     Score         DG    S(hbond)    S(metal)    S(lipo)     H(rot)  DE(clash)    DE(int)     intcor
     18.18     -19.71       3.23        0.00      68.21       1.78       0.04       1.49       ----

> <Gold.Chemscore.Fitness>
18.1806

> <Gold.Chemscore.DG>
-19.7111

> <Gold.Chemscore.ZeroCoef>
-5.4800

> <Gold.Chemscore.Hbond>
3.2345

> <Gold.Chemscore.Metal>
0.0000

> <Gold.Chemscore.Lipo>
68.2077

> <Gold.Chemscore.Internal_Hbond>
0.0000

> <Gold.Chemscore.DEClash>
0.0402

> <Gold.Chemscore.DEInternal>
1.4903

> <Gold.Chemscore.Rot>
1.7783

> <Gold.Chemscore.Internal.Correction>
   9.000000E+99

> <Gold.Chemscore.Hbonds>
donor molecule, donor type, donor heavy atom, donor atom, acceptor molecule, acceptor atom, score
      L1  H     3    20       P1  7948  0.87
      L1  H    10    25       P1  7948  0.70
      L1  H    19    38       P1 10747  0.94
      P1  H  7989  7998       L1     8  0.39

> <Gold.Chemscore.Hbond.Weighted>
-10.8033

> <Gold.Chemscore.Metal.Weighted>
-0.0000

> <Gold.Chemscore.Lipo.Weighted>
-7.9803

> <Gold.Chemscore.Internal_Hbond.Weighted>
0.0000

> <Gold.Chemscore.DEClash.Weighted>
0.0402

> <Gold.Chemscore.DEInternal.Weighted>
1.4903

> <Gold.Chemscore.Rot.Weighted>
4.5525

> <Gold.Chemscore.Internal.Correction.Weighted>
   9.000000E+99

> <Gold.Protein.RotatedTorsions>
[ 6907 6896 6895 6894 ] final   90.76 input  -60.11 | X-H torsion
[ 7974 7965 7964 7962 ] final   75.13 input  175.53 | X-H torsion
[ 8008 7997 7996 7995 ] final   29.93 input   59.86 | X-H torsion
[ 10167 10162 10161 10158 ] final -135.73 input  -65.29 | X-H torsion
[ 10718 10713 10712 10709 ] final  115.03 input   66.30 | X-H torsion
[ 10763 10752 10751 10750 ] final   32.67 input  -60.55 | X-H torsion
[ 11005 11000 10999 10996 ] final   69.40 input  -57.11 | X-H torsion

> <Gold.Protein.ActiveResidues>
 VAL166  LYS551  ARG553  GLY616  TRP617  ASP618  TYR619  PRO620  LYS621  CYS622 
 ASP623  PHE694  ASN695  SER759  ASP760  ASP761  ALA762  ILE779  LEU786  VAL792 
 PHE793  MET794  SER795  GLU796  ALA797  LYS798  CYS799  TRP800  GLU811  SER814 

> <Gold.Protein.RotatedAtoms>
  152.5446  134.1761  159.8616 H   0  0  0  0  0  0  0  0  0  0  0  0  # atno 6907 bound_to 6896
  151.1767  133.4743  159.2601 H   0  0  0  0  0  0  0  0  0  0  0  0  # atno 6908 bound_to 6896
  151.1220  135.0096  159.8598 H   0  0  0  0  0  0  0  0  0  0  0  0  # atno 6909 bound_to 6896
  145.7195  139.2643  143.1604 H   0  0  0  0  0  0  0  0  0  0  0  0  # atno 7974 bound_to 7965
  155.0824  140.3211  155.4597 H   0  0  0  0  0  0  0  0  0  0  0  0  # atno 8008 bound_to 7997
  156.2764  140.2092  156.5897 H   0  0  0  0  0  0  0  0  0  0  0  0  # atno 8009 bound_to 7997
  154.6968  140.0511  157.0406 H   0  0  0  0  0  0  0  0  0  0  0  0  # atno 8010 bound_to 7997
  139.8749  143.6911  152.2635 H   0  0  0  0  0  0  0  0  0  0  0  0  # atno 10167 bound_to 10162
  157.6246  131.1007  150.7271 H   0  0  0  0  0  0  0  0  0  0  0  0  # atno 10718 bound_to 10713
  153.0250  135.6407  154.1391 H   0  0  0  0  0  0  0  0  0  0  0  0  # atno 10763 bound_to 10752
  154.1121  135.2852  155.3230 H   0  0  0  0  0  0  0  0  0  0  0  0  # atno 10764 bound_to 10752
  154.6324  135.5488  153.7758 H   0  0  0  0  0  0  0  0  0  0  0  0  # atno 10765 bound_to 10752
  139.9656  134.6987  156.0553 H   0  0  0  0  0  0  0  0  0  0  0  0  # atno 11005 bound_to 11000
  146.0639  140.7941  142.9721 LP  0  0  0  0  0  0  0  0  0  0  0  0  # atno 17320 bound_to 7965
  144.6920  140.3239  143.7227 LP  0  0  0  0  0  0  0  0  0  0  0  0  # atno 17321 bound_to 7965
  139.7249  144.7595  151.0894 LP  0  0  0  0  0  0  0  0  0  0  0  0  # atno 17342 bound_to 10162
  140.7754  143.5160  150.9594 LP  0  0  0  0  0  0  0  0  0  0  0  0  # atno 17343 bound_to 10162
  156.7622  130.4802  149.5434 LP  0  0  0  0  0  0  0  0  0  0  0  0  # atno 17370 bound_to 10713
  156.1411  130.6245  151.0468 LP  0  0  0  0  0  0  0  0  0  0  0  0  # atno 17371 bound_to 10713
  141.1335  133.6580  156.3529 LP  0  0  0  0  0  0  0  0  0  0  0  0  # atno 17394 bound_to 11000
  140.5405  134.6125  157.5378 LP  0  0  0  0  0  0  0  0  0  0  0  0  # atno 17395 bound_to 11000

$$$$
