AV-unprocessed.smi:1669|AV-procd|sdf|6688|dock8
  -GOLD-   22720 7413D 1   1.00000     0.00000
 Structure written by MMmdl.
 47 49  0  0  0  0  0  0  0  0  1 V2000
  145.5373  141.3615  156.2414 C   0  0  0  0  0  0  0  0  0  0  0  0
  146.3596  142.3843  155.6010 N   0  0  0  0  0  0  0  0  0  0  0  0
  145.6332  143.0134  154.4921 C   0  0  0  0  0  0  0  0  0  0  0  0
  144.6920  144.1261  154.9215 C   0  0  0  0  0  0  0  0  0  0  0  0
  144.0253  144.9062  153.9529 C   0  0  0  0  0  0  0  0  0  0  0  0
  143.1515  145.9361  154.3528 C   0  0  0  0  0  0  0  0  0  0  0  0
  142.9399  146.1884  155.7220 C   0  0  0  0  0  0  0  0  0  0  0  0
  143.6012  145.4098  156.6914 C   0  0  0  0  0  0  0  0  0  0  0  0
  144.4745  144.3793  156.2923 C   0  0  0  0  0  0  0  0  0  0  0  0
  147.6249  141.7967  155.1572 C   0  0  0  0  0  0  0  0  0  0  0  0
  148.7275  141.7013  156.2365 C   0  0  1  0  0  0  0  0  0  0  0  0
  148.4011  140.6374  157.1055 O   0  0  0  0  0  0  0  0  0  0  0  0
  150.1299  141.4199  155.6605 C   0  0  0  0  0  0  0  0  0  0  0  0
  151.1287  141.1772  156.6941 N   0  0  0  0  0  0  0  0  0  0  0  0
  151.9450  140.1014  156.8349 C   0  0  0  0  0  0  0  0  0  0  0  0
  151.9128  138.9549  155.8630 C   0  0  0  0  0  0  0  0  0  0  0  0
  151.9979  139.3489  154.5082 O   0  0  0  0  0  0  0  0  0  0  0  0
  152.7608  140.1327  157.8915 N   0  0  0  0  0  0  0  0  0  0  0  0
  152.4537  141.3418  158.4822 C   0  0  0  0  0  0  0  0  0  0  0  0
  152.9767  141.9557  159.6427 C   0  0  0  0  0  0  0  0  0  0  0  0
  152.4991  143.2149  160.0612 C   0  0  0  0  0  0  0  0  0  0  0  0
  151.4943  143.8768  159.3265 C   0  0  0  0  0  0  0  0  0  0  0  0
  150.9589  143.2820  158.1680 C   0  0  0  0  0  0  0  0  0  0  0  0
  151.4387  142.0242  157.7546 C   0  0  0  0  0  0  0  0  0  0  0  0
  146.0680  140.9047  157.0773 H   0  0  0  0  0  0  0  0  0  0  0  0
  145.2709  140.5721  155.5372 H   0  0  0  0  0  0  0  0  0  0  0  0
  144.6160  141.7860  156.6408 H   0  0  0  0  0  0  0  0  0  0  0  0
  146.3259  143.4607  153.7815 H   0  0  0  0  0  0  0  0  0  0  0  0
  145.0770  142.2577  153.9348 H   0  0  0  0  0  0  0  0  0  0  0  0
  144.1847  144.7171  152.9014 H   0  0  0  0  0  0  0  0  0  0  0  0
  142.6437  146.5327  153.6094 H   0  0  0  0  0  0  0  0  0  0  0  0
  142.2707  146.9787  156.0287 H   0  0  0  0  0  0  0  0  0  0  0  0
  143.4387  145.6032  157.7416 H   0  0  0  0  0  0  0  0  0  0  0  0
  144.9784  143.7865  157.0417 H   0  0  0  0  0  0  0  0  0  0  0  0
  147.4502  140.7912  154.7701 H   0  0  0  0  0  0  0  0  0  0  0  0
  147.9852  142.3738  154.3057 H   0  0  0  0  0  0  0  0  0  0  0  0
  148.7760  142.6085  156.8342 H   0  0  0  0  0  0  0  0  0  0  0  0
  148.8146  140.7988  157.9401 H   0  0  0  0  0  0  0  0  0  0  0  0
  150.1024  140.5610  154.9897 H   0  0  0  0  0  0  0  0  0  0  0  0
  150.4595  142.2617  155.0506 H   0  0  0  0  0  0  0  0  0  0  0  0
  152.7414  138.2806  156.0777 H   0  0  0  0  0  0  0  0  0  0  0  0
  150.9877  138.3933  155.9910 H   0  0  0  0  0  0  0  0  0  0  0  0
  151.7529  138.6154  153.9655 H   0  0  0  0  0  0  0  0  0  0  0  0
  153.7466  141.4561  160.2119 H   0  0  0  0  0  0  0  0  0  0  0  0
  152.9053  143.6748  160.9502 H   0  0  0  0  0  0  0  0  0  0  0  0
  151.1336  144.8410  159.6535 H   0  0  0  0  0  0  0  0  0  0  0  0
  150.1862  143.7860  157.6068 H   0  0  0  0  0  0  0  0  0  0  0  0
  1  2  1  0  0  0  0
  1 25  1  0  0  0  0
  1 26  1  0  0  0  0
  1 27  1  0  0  0  0
  2  3  1  0  0  0  0
  2 10  1  0  0  0  0
  3  4  1  0  0  0  0
  3 28  1  0  0  0  0
  3 29  1  0  0  0  0
  4  9  1  0  0  0  0
  4  5  2  0  0  0  0
  5  6  1  0  0  0  0
  5 30  1  0  0  0  0
  6  7  2  0  0  0  0
  6 31  1  0  0  0  0
  7  8  1  0  0  0  0
  7 32  1  0  0  0  0
  8  9  2  0  0  0  0
  8 33  1  0  0  0  0
  9 34  1  0  0  0  0
 10 11  1  0  0  0  0
 10 35  1  0  0  0  0
 10 36  1  0  0  0  0
 11 12  1  0  0  0  0
 11 13  1  0  0  0  0
 11 37  1  0  0  0  0
 12 38  1  0  0  0  0
 13 14  1  0  0  0  0
 13 39  1  0  0  0  0
 13 40  1  0  0  0  0
 14 24  1  0  0  0  0
 14 15  1  0  0  0  0
 15 16  1  0  0  0  0
 15 18  2  0  0  0  0
 16 17  1  0  0  0  0
 16 41  1  0  0  0  0
 16 42  1  0  0  0  0
 17 43  1  0  0  0  0
 18 19  1  0  0  0  0
 19 24  2  0  0  0  0
 19 20  1  0  0  0  0
 20 21  2  0  0  0  0
 20 44  1  0  0  0  0
 21 22  1  0  0  0  0
 21 45  1  0  0  0  0
 22 23  2  0  0  0  0
 22 46  1  0  0  0  0
 23 24  1  0  0  0  0
 23 47  1  0  0  0  0
M  END
> <s_m_source_file>
AV-unprocessed.smi

> <i_m_source_file_index>
1669

> <i_lp_mmshare_version>
43012

> <i_f3d_flags>
0

> <s_epik_input>
W2NIXTFbY0hdW2NIXVtjSF1bY0hdYzFbQ0gyXU4oW0NIM10pW0NIMl1bQ0BIXShbT0hdKVtDSDJdbihjKG4yKVtDSDJdW09IXSljKGMyMylbY0hdW2NIXVtjSF1bY0hdMw==

> <s_epik_cmdline>
J2VwaWtfcHl0aG9uJywgJy1waCcsICc3LjAnLCAnLXRuJywgJzgnLCAnLW1hJywgJzIwMCcsICctbWV0YWxfYmluZGluZycsICctaW1hZScsICc8aW5maWxlLm1hZT4nLCAnLW9tYWUnLCAnPG91dGZpbGUubWFlPic=

> <r_epik_Ionization_Penalty>
1.56301

> <r_epik_Ionization_Penalty_Charging>
0

> <r_epik_Ionization_Penalty_Neutral>
1.56301

> <r_epik_State_Penalty>
1.64771

> <r_epik_Charging_Adjusted_Penalty>
1.64771

> <i_epik_Tot_Q>
0

> <i_epik_Tot_abs_Q>
0

> <r_epik_Metal_State_Penalty>
1.61258

> <b_epik_Metal_Only>
0

> <s_lp_Force_Field>
OPLS_2005

> <r_lp_Energy>
25.3744

> <b_lp_Chiralities_Consistent>
1

> <s_lp_Variant>
AV-unprocessed.smi:1669-6

> <Gold.Version>
5.8.1

> <Gold.Id.Protein>
6NUR|6NUR_protein|mol2

> <Gold.PLP.Fitness>
50.5626

> <Gold.PLP.PLP>
-46.0874

> <Gold.PLP.part.hbond>
-2.0000

> <Gold.PLP.part.metal>
0.0000

> <Gold.PLP.part.buried>
-3.8576

> <Gold.PLP.part.nonpolar>
-40.1048

> <Gold.PLP.part.repulsive>
0.1609

> <Gold.PLP.ligand.clash>
0.0000

> <Gold.PLP.ligand.torsion>
0.8337

> <Gold.PLP.Chemscore.Hbond>
1.9435

> <Gold.PLP.Chemscore.CHOScore>
0.0000

> <Gold.PLP.Chemscore.Metal>
0.0000

> <Gold.Chemscore.Hbonds>
donor molecule, donor type, donor heavy atom, donor atom, acceptor molecule, acceptor atom, score
      P1  H  7989  7998       L1    17  0.90
      P1  H  7997  8009       L1    18  1.00

> <Gold.PLP.Chemscore.Internal.Correction>
0.3121

> <Gold.Rescore>
     Score         DG    S(hbond)    S(metal)    S(lipo)     H(rot)  DE(clash)    DE(int)     intcor
     15.28     -16.28       1.18        0.00     125.69       3.06       0.12       0.88       ----

> <Gold.Chemscore.Fitness>
15.2810

> <Gold.Chemscore.DG>
-16.2777

> <Gold.Chemscore.ZeroCoef>
-5.4800

> <Gold.Chemscore.Hbond>
1.1760

> <Gold.Chemscore.Metal>
0.0000

> <Gold.Chemscore.Lipo>
125.6882

> <Gold.Chemscore.Internal_Hbond>
0.0000

> <Gold.Chemscore.DEClash>
0.1166

> <Gold.Chemscore.DEInternal>
0.8801

> <Gold.Chemscore.Rot>
3.0609

> <Gold.Chemscore.Internal.Correction>
   9.000000E+99

> <Gold.Chemscore.Hbonds>
donor molecule, donor type, donor heavy atom, donor atom, acceptor molecule, acceptor atom, score
      P1  H  7989  7998       L1    17  0.49
      P1  H  7997  8009       L1    18  0.21

> <Gold.Chemscore.Hbond.Weighted>
-3.9280

> <Gold.Chemscore.Metal.Weighted>
-0.0000

> <Gold.Chemscore.Lipo.Weighted>
-14.7055

> <Gold.Chemscore.Internal_Hbond.Weighted>
0.0000

> <Gold.Chemscore.DEClash.Weighted>
0.1166

> <Gold.Chemscore.DEInternal.Weighted>
0.8801

> <Gold.Chemscore.Rot.Weighted>
7.8358

> <Gold.Chemscore.Internal.Correction.Weighted>
   9.000000E+99

> <Gold.Protein.RotatedTorsions>
[ 6907 6896 6895 6894 ] final  -93.25 input  -60.11 | X-H torsion
[ 7974 7965 7964 7962 ] final  -23.41 input  175.53 | X-H torsion
[ 8008 7997 7996 7995 ] final  158.89 input   59.86 | X-H torsion
[ 10167 10162 10161 10158 ] final  163.37 input  -65.29 | X-H torsion
[ 10718 10713 10712 10709 ] final  102.18 input   66.30 | X-H torsion
[ 10763 10752 10751 10750 ] final   25.06 input  -60.55 | X-H torsion
[ 11005 11000 10999 10996 ] final   33.03 input  -57.11 | X-H torsion

> <Gold.Protein.ActiveResidues>
 VAL166  LYS551  ARG553  GLY616  TRP617  ASP618  TYR619  PRO620  LYS621  CYS622 
 ASP623  PHE694  ASN695  SER759  ASP760  ASP761  ALA762  ILE779  LEU786  VAL792 
 PHE793  MET794  SER795  GLU796  ALA797  LYS798  CYS799  TRP800  GLU811  SER814 

> <Gold.Protein.RotatedAtoms>
  150.6919  134.1996  159.4316 H   0  0  0  0  0  0  0  0  0  0  0  0  # atno 6907 bound_to 6896
  151.9963  134.9950  160.0573 H   0  0  0  0  0  0  0  0  0  0  0  0  # atno 6908 bound_to 6896
  152.1620  133.4553  159.4902 H   0  0  0  0  0  0  0  0  0  0  0  0  # atno 6909 bound_to 6896
  146.1618  140.4612  142.8568 H   0  0  0  0  0  0  0  0  0  0  0  0  # atno 7974 bound_to 7965
  156.2274  140.1846  156.7329 H   0  0  0  0  0  0  0  0  0  0  0  0  # atno 8008 bound_to 7997
  154.5964  140.0643  156.9336 H   0  0  0  0  0  0  0  0  0  0  0  0  # atno 8009 bound_to 7997
  155.2249  140.3310  155.4313 H   0  0  0  0  0  0  0  0  0  0  0  0  # atno 8010 bound_to 7997
  139.4873  144.4343  151.9031 H   0  0  0  0  0  0  0  0  0  0  0  0  # atno 10167 bound_to 10162
  157.6809  131.0746  150.5365 H   0  0  0  0  0  0  0  0  0  0  0  0  # atno 10718 bound_to 10713
  153.0719  135.6591  154.0229 H   0  0  0  0  0  0  0  0  0  0  0  0  # atno 10763 bound_to 10752
  153.9873  135.2949  155.3416 H   0  0  0  0  0  0  0  0  0  0  0  0  # atno 10764 bound_to 10752
  154.7096  135.5211  153.8716 H   0  0  0  0  0  0  0  0  0  0  0  0  # atno 10765 bound_to 10752
  140.2673  134.3122  155.7838 H   0  0  0  0  0  0  0  0  0  0  0  0  # atno 11005 bound_to 11000
  144.8037  140.6260  143.6461 LP  0  0  0  0  0  0  0  0  0  0  0  0  # atno 17320 bound_to 7965
  145.4569  139.1517  143.3887 LP  0  0  0  0  0  0  0  0  0  0  0  0  # atno 17321 bound_to 7965
  140.3792  144.2757  150.5910 LP  0  0  0  0  0  0  0  0  0  0  0  0  # atno 17342 bound_to 10162
  140.5248  143.2257  151.8331 LP  0  0  0  0  0  0  0  0  0  0  0  0  # atno 17343 bound_to 10162
  156.5673  130.4271  149.6035 LP  0  0  0  0  0  0  0  0  0  0  0  0  # atno 17370 bound_to 10713
  156.2770  130.7049  151.1863 LP  0  0  0  0  0  0  0  0  0  0  0  0  # atno 17371 bound_to 10713
  141.2182  133.7446  156.9280 LP  0  0  0  0  0  0  0  0  0  0  0  0  # atno 17394 bound_to 11000
  140.1406  134.9296  157.2462 LP  0  0  0  0  0  0  0  0  0  0  0  0  # atno 17395 bound_to 11000

$$$$
