AV-unprocessed.smi:1774|AV-procd|sdf|7167|dock2
  -GOLD-   22720 8403D 1   1.00000     0.00000
 Structure written by MMmdl.
 46 47  0  0  0  0  0  0  0  0  2 V2000
  145.2104  135.4557  150.8407 C   0  0  0  0  0  0  0  0  0  0  0  0
  145.1528  133.9368  150.8595 C   0  0  0  0  0  0  0  0  0  0  0  0
  144.1160  133.2767  150.1662 C   0  0  0  0  0  0  0  0  0  0  0  0
  144.0660  131.8724  150.1821 C   0  0  0  0  0  0  0  0  0  0  0  0
  145.0623  131.1832  150.8942 C   0  0  0  0  0  0  0  0  0  0  0  0
  146.0566  131.8056  151.5594 N   0  0  0  0  0  0  0  0  0  0  0  0
  146.1196  133.1609  151.5538 C   0  0  0  0  0  0  0  0  0  0  0  0
  147.1376  133.8840  152.2378 N   0  0  0  0  0  0  0  0  0  0  0  0
  147.6165  133.6821  153.4782 C   0  0  0  0  0  0  0  0  0  0  0  0
  147.2561  132.7911  154.2481 O   0  0  0  0  0  0  0  0  0  0  0  0
  148.5620  134.5815  153.7873 N   0  0  0  0  0  0  0  0  0  0  0  0
  149.3028  134.6141  155.0433 C   0  0  0  0  0  0  0  0  0  0  0  0
  149.1678  135.9760  155.7528 C   0  0  0  0  0  0  0  0  0  0  0  0
  149.7077  137.0948  154.9407 N   0  3  1  0  0  0  0  0  0  0  0  0
  148.9555  138.3551  155.1469 C   0  0  0  0  0  0  0  0  0  0  0  0
  149.5065  139.4694  154.2370 C   0  0  1  0  0  0  0  0  0  0  0  0
  148.8057  140.8113  154.4745 C   0  0  0  0  0  0  0  0  0  0  0  0
  150.8943  139.6410  154.5016 O   0  0  0  0  0  0  0  0  0  0  0  0
  151.6526  138.4681  154.2277 C   0  0  1  0  0  0  0  0  0  0  0  0
  153.1335  138.7916  154.4542 C   0  0  0  0  0  0  0  0  0  0  0  0
  151.1605  137.3258  155.1365 C   0  0  0  0  0  0  0  0  0  0  0  0
  144.3866  135.8775  150.2640 H   0  0  0  0  0  0  0  0  0  0  0  0
  146.1434  135.7955  150.3900 H   0  0  0  0  0  0  0  0  0  0  0  0
  145.1483  135.8536  151.8540 H   0  0  0  0  0  0  0  0  0  0  0  0
  143.3659  133.8369  149.6275 H   0  0  0  0  0  0  0  0  0  0  0  0
  143.2848  131.3380  149.6621 H   0  0  0  0  0  0  0  0  0  0  0  0
  145.0615  130.1040  150.9317 H   0  0  0  0  0  0  0  0  0  0  0  0
  147.5513  134.6420  151.7156 H   0  0  0  0  0  0  0  0  0  0  0  0
  148.7997  135.2797  153.0977 H   0  0  0  0  0  0  0  0  0  0  0  0
  148.9565  133.7970  155.6765 H   0  0  0  0  0  0  0  0  0  0  0  0
  150.3513  134.4130  154.8221 H   0  0  0  0  0  0  0  0  0  0  0  0
  148.1085  136.1542  155.9443 H   0  0  0  0  0  0  0  0  0  0  0  0
  149.6595  135.9657  156.7267 H   0  0  0  0  0  0  0  0  0  0  0  0
  147.8991  138.1931  154.9286 H   0  0  0  0  0  0  0  0  0  0  0  0
  149.0243  138.6526  156.1949 H   0  0  0  0  0  0  0  0  0  0  0  0
  149.3721  139.1888  153.1908 H   0  0  0  0  0  0  0  0  0  0  0  0
  147.7352  140.7358  154.2826 H   0  0  0  0  0  0  0  0  0  0  0  0
  149.2075  141.5814  153.8155 H   0  0  0  0  0  0  0  0  0  0  0  0
  148.9391  141.1506  155.5020 H   0  0  0  0  0  0  0  0  0  0  0  0
  151.5160  138.1897  153.1809 H   0  0  0  0  0  0  0  0  0  0  0  0
  153.7611  137.9242  154.2482 H   0  0  0  0  0  0  0  0  0  0  0  0
  153.3178  139.1018  155.4831 H   0  0  0  0  0  0  0  0  0  0  0  0
  153.4601  139.5998  153.7992 H   0  0  0  0  0  0  0  0  0  0  0  0
  151.3533  137.5674  156.1833 H   0  0  0  0  0  0  0  0  0  0  0  0
  151.7236  136.4215  154.9095 H   0  0  0  0  0  0  0  0  0  0  0  0
  149.5745  136.8401  153.9726 H   0  0  0  0  0  0  0  0  0  0  0  0
  1  2  1  0  0  0  0
  1 22  1  0  0  0  0
  1 23  1  0  0  0  0
  1 24  1  0  0  0  0
  2  7  1  0  0  0  0
  2  3  2  0  0  0  0
  3  4  1  0  0  0  0
  3 25  1  0  0  0  0
  4  5  2  0  0  0  0
  4 26  1  0  0  0  0
  5  6  1  0  0  0  0
  5 27  1  0  0  0  0
  6  7  2  0  0  0  0
  7  8  1  0  0  0  0
  8  9  1  0  0  0  0
  8 28  1  0  0  0  0
  9 10  2  0  0  0  0
  9 11  1  0  0  0  0
 11 12  1  0  0  0  0
 11 29  1  0  0  0  0
 12 13  1  0  0  0  0
 12 30  1  0  0  0  0
 12 31  1  0  0  0  0
 13 14  1  0  0  0  0
 13 32  1  0  0  0  0
 13 33  1  0  0  0  0
 14 21  1  0  0  0  0
 14 15  1  0  0  0  0
 14 46  1  0  0  0  0
 15 16  1  0  0  0  0
 15 34  1  0  0  0  0
 15 35  1  0  0  0  0
 16 17  1  0  0  0  0
 16 18  1  0  0  0  0
 16 36  1  0  0  0  0
 17 37  1  0  0  0  0
 17 38  1  0  0  0  0
 17 39  1  0  0  0  0
 18 19  1  0  0  0  0
 19 20  1  0  0  0  0
 19 21  1  0  0  0  0
 19 40  1  0  0  0  0
 20 41  1  0  0  0  0
 20 42  1  0  0  0  0
 20 43  1  0  0  0  0
 21 44  1  0  0  0  0
 21 45  1  0  0  0  0
M  CHG  1  14   1
M  END
> <s_m_source_file>
AV-unprocessed.smi

> <i_m_source_file_index>
1774

> <i_lp_mmshare_version>
43012

> <i_f3d_flags>
0

> <s_epik_input>
W0NIM11jMVtjSF1bY0hdW2NIXW5jMVtOSF1DKD1PKVtOSF1bQ0gyXVtDSDJdTjJbQ0gyXVtDQEBIXShbQ0gzXSlPW0NAQEhdKFtDSDNdKVtDSDJdMg==

> <s_epik_cmdline>
J2VwaWtfcHl0aG9uJywgJy1waCcsICc3LjAnLCAnLXRuJywgJzgnLCAnLW1hJywgJzIwMCcsICctbWV0YWxfYmluZGluZycsICctaW1hZScsICc8aW5maWxlLm1hZT4nLCAnLW9tYWUnLCAnPG91dGZpbGUubWFlPic=

> <r_epik_Ionization_Penalty>
0.602573

> <r_epik_Ionization_Penalty_Charging>
0.602531

> <r_epik_Ionization_Penalty_Neutral>
4.21996e-05

> <r_epik_State_Penalty>
0.617039

> <r_epik_Charging_Adjusted_Penalty>
1.21957

> <i_epik_Tot_Q>
1

> <i_epik_Tot_abs_Q>
1

> <r_epik_Metal_State_Penalty>
0.617042

> <b_epik_Metal_Only>
0

> <s_lp_Force_Field>
OPLS_2005

> <r_lp_Energy>
15.6229

> <b_lp_Chiralities_Consistent>
1

> <s_lp_Variant>
AV-unprocessed.smi:1774-4

> <Gold.Version>
5.8.1

> <Gold.Id.Protein>
6NUR|6NUR_protein|mol2

> <Gold.PLP.Fitness>
48.5517

> <Gold.PLP.PLP>
-38.5206

> <Gold.PLP.part.hbond>
-3.2703

> <Gold.PLP.part.metal>
0.0000

> <Gold.PLP.part.buried>
-4.3776

> <Gold.PLP.part.nonpolar>
-30.1347

> <Gold.PLP.part.repulsive>
0.3341

> <Gold.PLP.ligand.clash>
0.0000

> <Gold.PLP.ligand.torsion>
0.7577

> <Gold.PLP.Chemscore.Hbond>
3.8386

> <Gold.PLP.Chemscore.CHOScore>
0.0000

> <Gold.PLP.Chemscore.Metal>
0.0000

> <Gold.Chemscore.Hbonds>
donor molecule, donor type, donor heavy atom, donor atom, acceptor molecule, acceptor atom, score
      L1  H     8    28       P1  7948  0.80
      L1  H    11    29       P1  7948  1.00
      L1  H    14    46       P1  7948  0.88
      P1  H  7989  7998       L1    18  1.00

> <Gold.PLP.Chemscore.Internal.Correction>
0.0308

> <Gold.Rescore>
     Score         DG    S(hbond)    S(metal)    S(lipo)     H(rot)  DE(clash)    DE(int)     intcor
     18.30     -19.31       2.05        0.00      92.44       1.49       0.16       0.85       ----

> <Gold.Chemscore.Fitness>
18.2972

> <Gold.Chemscore.DG>
-19.3052

> <Gold.Chemscore.ZeroCoef>
-5.4800

> <Gold.Chemscore.Hbond>
2.0466

> <Gold.Chemscore.Metal>
0.0000

> <Gold.Chemscore.Lipo>
92.4413

> <Gold.Chemscore.Internal_Hbond>
0.0000

> <Gold.Chemscore.DEClash>
0.1630

> <Gold.Chemscore.DEInternal>
0.8451

> <Gold.Chemscore.Rot>
1.4946

> <Gold.Chemscore.Internal.Correction>
   9.000000E+99

> <Gold.Chemscore.Hbonds>
donor molecule, donor type, donor heavy atom, donor atom, acceptor molecule, acceptor atom, score
      L1  H     8    28       P1  7948  0.30
      L1  H    11    29       P1  7948  0.56
      L1  H    14    46       P1  7948  0.37
      P1  H  7989  7998       L1    18  0.38

> <Gold.Chemscore.Hbond.Weighted>
-6.8357

> <Gold.Chemscore.Metal.Weighted>
-0.0000

> <Gold.Chemscore.Lipo.Weighted>
-10.8156

> <Gold.Chemscore.Internal_Hbond.Weighted>
0.0000

> <Gold.Chemscore.DEClash.Weighted>
0.1630

> <Gold.Chemscore.DEInternal.Weighted>
0.8451

> <Gold.Chemscore.Rot.Weighted>
3.8261

> <Gold.Chemscore.Internal.Correction.Weighted>
   9.000000E+99

> <Gold.Protein.RotatedTorsions>
[ 6907 6896 6895 6894 ] final  161.75 input  -60.11 | X-H torsion
[ 7974 7965 7964 7962 ] final -175.41 input  175.53 | X-H torsion
[ 8008 7997 7996 7995 ] final -120.45 input   59.86 | X-H torsion
[ 10167 10162 10161 10158 ] final  -96.75 input  -65.29 | X-H torsion
[ 10718 10713 10712 10709 ] final  167.00 input   66.30 | X-H torsion
[ 10763 10752 10751 10750 ] final  -11.75 input  -60.55 | X-H torsion
[ 11005 11000 10999 10996 ] final   58.30 input  -57.11 | X-H torsion

> <Gold.Protein.ActiveResidues>
 VAL166  LYS551  ARG553  GLY616  TRP617  ASP618  TYR619  PRO620  LYS621  CYS622 
 ASP623  PHE694  ASN695  SER759  ASP760  ASP761  ALA762  ILE779  LEU786  VAL792 
 PHE793  MET794  SER795  GLU796  ALA797  LYS798  CYS799  TRP800  GLU811  SER814 

> <Gold.Protein.RotatedAtoms>
  151.9509  133.3665  159.3999 H   0  0  0  0  0  0  0  0  0  0  0  0  # atno 6907 bound_to 6896
  150.6981  134.4341  159.5271 H   0  0  0  0  0  0  0  0  0  0  0  0  # atno 6908 bound_to 6896
  152.2014  134.8584  160.0558 H   0  0  0  0  0  0  0  0  0  0  0  0  # atno 6909 bound_to 6896
  144.7128  140.1324  143.6398 H   0  0  0  0  0  0  0  0  0  0  0  0  # atno 7974 bound_to 7965
  155.1320  140.0400  157.2777 H   0  0  0  0  0  0  0  0  0  0  0  0  # atno 8008 bound_to 7997
  154.6535  140.2575  155.7161 H   0  0  0  0  0  0  0  0  0  0  0  0  # atno 8009 bound_to 7997
  156.2588  140.2831  156.0979 H   0  0  0  0  0  0  0  0  0  0  0  0  # atno 8010 bound_to 7997
  140.2906  143.3224  152.0350 H   0  0  0  0  0  0  0  0  0  0  0  0  # atno 10167 bound_to 10162
  157.0578  131.0331  151.2658 H   0  0  0  0  0  0  0  0  0  0  0  0  # atno 10718 bound_to 10713
  153.4883  135.7017  153.5898 H   0  0  0  0  0  0  0  0  0  0  0  0  # atno 10763 bound_to 10752
  153.4082  135.3855  155.2033 H   0  0  0  0  0  0  0  0  0  0  0  0  # atno 10764 bound_to 10752
  154.8718  135.3898  154.4341 H   0  0  0  0  0  0  0  0  0  0  0  0  # atno 10765 bound_to 10752
  140.0388  134.5904  155.9409 H   0  0  0  0  0  0  0  0  0  0  0  0  # atno 11005 bound_to 11000
  145.9274  139.2584  143.1345 LP  0  0  0  0  0  0  0  0  0  0  0  0  # atno 17320 bound_to 7965
  145.9557  140.8874  143.0236 LP  0  0  0  0  0  0  0  0  0  0  0  0  # atno 17321 bound_to 7965
  139.4939  144.6528  151.6639 LP  0  0  0  0  0  0  0  0  0  0  0  0  # atno 17342 bound_to 10162
  140.5735  144.0067  150.6229 LP  0  0  0  0  0  0  0  0  0  0  0  0  # atno 17343 bound_to 10162
  157.4979  130.7862  149.7574 LP  0  0  0  0  0  0  0  0  0  0  0  0  # atno 17370 bound_to 10713
  155.9988  130.3892  150.2689 LP  0  0  0  0  0  0  0  0  0  0  0  0  # atno 17371 bound_to 10713
  141.1872  133.6559  156.5270 LP  0  0  0  0  0  0  0  0  0  0  0  0  # atno 17394 bound_to 11000
  140.4104  134.7277  157.4832 LP  0  0  0  0  0  0  0  0  0  0  0  0  # atno 17395 bound_to 11000

$$$$
