AV-unprocessed.smi:287|AV-procd|sdf|2179|dock3
  -GOLD-   2262021543D 1   1.00000     0.00000
 Structure written by MMmdl.
 55 58  0  0  0  0  0  0  0  0  1 V2000
  142.5034  134.8702  163.3062 C   0  0  0  0  0  0  0  0  0  0  0  0
  143.5344  134.1157  162.5391 C   0  0  0  0  0  0  0  0  0  0  0  0
  144.8972  134.1593  162.4940 C   0  0  0  0  0  0  0  0  0  0  0  0
  145.3243  133.1799  161.5482 C   0  0  0  0  0  0  0  0  0  0  0  0
  146.7652  132.8629  161.1717 C   0  0  1  0  0  0  0  0  0  0  0  0
  147.7148  133.8232  161.9061 C   0  0  0  0  0  0  0  0  0  0  0  0
  147.1610  131.5636  161.5669 O   0  0  0  0  0  0  0  0  0  0  0  0
  147.0102  132.9339  159.6473 C   0  0  0  0  0  0  0  0  0  0  0  0
  148.3955  132.6555  159.2819 N   0  0  0  0  0  0  0  0  0  0  0  0
  148.7546  132.5880  157.9830 C   0  0  0  0  0  0  0  0  0  0  0  0
  150.0581  132.6818  157.6102 N   0  0  0  0  0  0  0  0  0  0  0  0
  150.3885  132.6197  156.3162 C   0  0  0  0  0  0  0  0  0  0  0  0
  149.5899  132.4710  155.2564 N   0  0  0  0  0  0  0  0  0  0  0  0
  148.2811  132.3741  155.6300 C   0  0  0  0  0  0  0  0  0  0  0  0
  147.7849  132.4212  156.9612 C   0  0  0  0  0  0  0  0  0  0  0  0
  146.4025  132.2882  156.9522 N   0  0  0  0  0  0  0  0  0  0  0  0
  146.1038  132.1727  155.6856 C   0  0  0  0  0  0  0  0  0  0  0  0
  147.1770  132.2265  154.8201 N   0  0  0  0  0  0  0  0  0  0  0  0
  147.2035  132.1449  153.3235 C   0  0  1  0  0  0  0  0  0  0  0  0
  145.9029  131.9091  152.8725 O   0  0  0  0  0  0  0  0  0  0  0  0
  145.3393  133.1160  152.3704 C   0  0  2  0  0  0  0  0  0  0  0  0
  144.1783  132.7926  151.4181 C   0  0  0  0  0  0  0  0  0  0  0  0
  143.5458  133.9864  151.0094 O   0  0  0  0  0  0  0  0  0  0  0  0
  146.5491  133.7451  151.6802 C   0  0  1  0  0  0  0  0  0  0  0  0
  146.3705  135.1216  151.4021 O   0  0  0  0  0  0  0  0  0  0  0  0
  147.6808  133.4634  152.6664 C   0  0  1  0  0  0  0  0  0  0  0  0
  147.8728  134.5304  153.5847 O   0  0  0  0  0  0  0  0  0  0  0  0
  144.1634  132.5987  161.0977 C   0  0  0  0  0  0  0  0  0  0  0  0
  143.8607  131.5048  160.1270 C   0  0  0  0  0  0  0  0  0  0  0  0
  143.0740  133.1638  161.6891 O   0  0  0  0  0  0  0  0  0  0  0  0
  147.8400  131.2867  153.1039 H   0  0  0  0  0  0  0  0  0  0  0  0
  145.0111  133.7529  153.1940 H   0  0  0  0  0  0  0  0  0  0  0  0
  146.7499  133.2181  150.7460 H   0  0  0  0  0  0  0  0  0  0  0  0
  148.6216  133.2882  152.1438 H   0  0  0  0  0  0  0  0  0  0  0  0
  142.9555  135.6925  163.8612 H   0  0  0  0  0  0  0  0  0  0  0  0
  141.9986  134.2183  164.0192 H   0  0  0  0  0  0  0  0  0  0  0  0
  141.7515  135.2882  162.6368 H   0  0  0  0  0  0  0  0  0  0  0  0
  145.5213  134.8239  163.0732 H   0  0  0  0  0  0  0  0  0  0  0  0
  147.5107  134.8608  161.6391 H   0  0  0  0  0  0  0  0  0  0  0  0
  148.7581  133.6215  161.6606 H   0  0  0  0  0  0  0  0  0  0  0  0
  147.6072  133.7365  162.9882 H   0  0  0  0  0  0  0  0  0  0  0  0
  146.4673  130.9604  161.3488 H   0  0  0  0  0  0  0  0  0  0  0  0
  146.3876  132.1832  159.1583 H   0  0  0  0  0  0  0  0  0  0  0  0
  146.7025  133.9024  159.2495 H   0  0  0  0  0  0  0  0  0  0  0  0
  149.0406  132.5223  160.0478 H   0  0  0  0  0  0  0  0  0  0  0  0
  151.4429  132.7034  156.0988 H   0  0  0  0  0  0  0  0  0  0  0  0
  145.0837  132.0484  155.3533 H   0  0  0  0  0  0  0  0  0  0  0  0
  144.5536  132.2985  150.5216 H   0  0  0  0  0  0  0  0  0  0  0  0
  143.4577  132.1188  151.8826 H   0  0  0  0  0  0  0  0  0  0  0  0
  142.7540  133.7632  150.5444 H   0  0  0  0  0  0  0  0  0  0  0  0
  147.2141  135.5464  151.4370 H   0  0  0  0  0  0  0  0  0  0  0  0
  148.1988  135.2790  153.1084 H   0  0  0  0  0  0  0  0  0  0  0  0
  144.4622  130.6209  160.3398 H   0  0  0  0  0  0  0  0  0  0  0  0
  144.0759  131.8242  159.1072 H   0  0  0  0  0  0  0  0  0  0  0  0
  142.8111  131.2135  160.1743 H   0  0  0  0  0  0  0  0  0  0  0  0
  1  2  1  0  0  0  0
  1 35  1  0  0  0  0
  1 36  1  0  0  0  0
  1 37  1  0  0  0  0
  2 30  1  0  0  0  0
  2  3  2  0  0  0  0
  3  4  1  0  0  0  0
  3 38  1  0  0  0  0
  4  5  1  0  0  0  0
  4 28  2  0  0  0  0
  5  6  1  0  0  0  0
  5  7  1  0  0  0  0
  5  8  1  0  0  0  0
  6 39  1  0  0  0  0
  6 40  1  0  0  0  0
  6 41  1  0  0  0  0
  7 42  1  0  0  0  0
  8  9  1  0  0  0  0
  8 43  1  0  0  0  0
  8 44  1  0  0  0  0
  9 10  1  0  0  0  0
  9 45  1  0  0  0  0
 10 15  1  0  0  0  0
 10 11  2  0  0  0  0
 11 12  1  0  0  0  0
 12 13  2  0  0  0  0
 12 46  1  0  0  0  0
 13 14  1  0  0  0  0
 14 18  1  0  0  0  0
 14 15  2  0  0  0  0
 15 16  1  0  0  0  0
 16 17  2  0  0  0  0
 17 18  1  0  0  0  0
 17 47  1  0  0  0  0
 18 19  1  0  0  0  0
 19 31  1  0  0  0  0
 19 26  1  0  0  0  0
 19 20  1  0  0  0  0
 20 21  1  0  0  0  0
 21 32  1  0  0  0  0
 21 22  1  0  0  0  0
 21 24  1  0  0  0  0
 22 23  1  0  0  0  0
 22 48  1  0  0  0  0
 22 49  1  0  0  0  0
 23 50  1  0  0  0  0
 24 33  1  0  0  0  0
 24 25  1  0  0  0  0
 24 26  1  0  0  0  0
 25 51  1  0  0  0  0
 26 34  1  0  0  0  0
 26 27  1  0  0  0  0
 27 52  1  0  0  0  0
 28 29  1  0  0  0  0
 28 30  1  0  0  0  0
 29 53  1  0  0  0  0
 29 54  1  0  0  0  0
 29 55  1  0  0  0  0
M  END
> <s_m_source_file>
AV-unprocessed.smi

> <i_m_source_file_index>
287

> <i_lp_mmshare_version>
43012

> <i_f3d_flags>
0

> <s_epik_input>
W0NIM11jMVtjSF1jKGMobzEpW0NIM10pW0NAQF0oW0NIM10pKFtPSF0pW0NIMl1bTkhdYyhuW2NIXW4yKWMoYzIzKW5bY0hdbjNbQ0BASF00T1tDQEhdKFtDSDJdW09IXSlbQ0BASF0oW09IXSlbQ0BIXTRbT0hd

> <s_epik_cmdline>
J2VwaWtfcHl0aG9uJywgJy1waCcsICc3LjAnLCAnLXRuJywgJzgnLCAnLW1hJywgJzIwMCcsICctbWV0YWxfYmluZGluZycsICctaW1hZScsICc8aW5maWxlLm1hZT4nLCAnLW9tYWUnLCAnPG91dGZpbGUubWFlPic=

> <r_lp_tautomer_probability>
1

> <r_epik_Ionization_Penalty>
0.000992612

> <r_epik_Ionization_Penalty_Charging>
0

> <r_epik_Ionization_Penalty_Neutral>
0.000992612

> <r_epik_State_Penalty>
-0

> <r_epik_Charging_Adjusted_Penalty>
0

> <i_epik_Tot_Q>
0

> <i_epik_Tot_abs_Q>
0

> <r_epik_Metal_State_Penalty>
-0

> <b_epik_Metal_Only>
0

> <s_epik_Chemistry_Notes>
This compound contains an acetal/aminal-like group ( X-CH(R)-Y where X, Y are N, S, or O) that may be acid/base labile, releasing an aldehyde.

> <s_lp_Force_Field>
OPLS_2005

> <r_lp_Energy>
45.8532

> <b_lp_Chiralities_Consistent>
1

> <s_lp_Variant>
AV-unprocessed.smi:287-3

> <Gold.Version>
5.8.1

> <Gold.Id.Protein>
6NUR|6NUR_protein|mol2

> <Gold.PLP.Fitness>
49.3846

> <Gold.PLP.PLP>
-35.2262

> <Gold.PLP.part.hbond>
-4.0000

> <Gold.PLP.part.metal>
0.0000

> <Gold.PLP.part.buried>
-5.9744

> <Gold.PLP.part.nonpolar>
-25.6792

> <Gold.PLP.part.repulsive>
0.3844

> <Gold.PLP.ligand.clash>
0.0033

> <Gold.PLP.ligand.torsion>
0.2429

> <Gold.PLP.Chemscore.Hbond>
3.8268

> <Gold.PLP.Chemscore.CHOScore>
1.0000

> <Gold.PLP.Chemscore.Metal>
0.0000

> <Gold.Chemscore.Hbonds>
donor molecule, donor type, donor heavy atom, donor atom, acceptor molecule, acceptor atom, score
      L1  H    23    50       P1 10186  0.76
      L1  H    25    51       P1  7948  1.00
      L1  H    27    52       P1  7948  1.00
      P1  H  6896  6907       L1    11  0.94
      L1  C    17    47       P1 10957  1.00

> <Gold.PLP.Chemscore.Internal.Correction>
0.1670

> <Gold.Rescore>
     Score         DG    S(hbond)    S(metal)    S(lipo)     H(rot)  DE(clash)    DE(int)     intcor
      9.91     -12.49       3.47        0.00      76.18       5.27       0.04       2.54       ----

> <Gold.Chemscore.Fitness>
9.9088

> <Gold.Chemscore.DG>
-12.4890

> <Gold.Chemscore.ZeroCoef>
-5.4800

> <Gold.Chemscore.Hbond>
3.4670

> <Gold.Chemscore.Metal>
0.0000

> <Gold.Chemscore.Lipo>
76.1815

> <Gold.Chemscore.Internal_Hbond>
0.0000

> <Gold.Chemscore.DEClash>
0.0407

> <Gold.Chemscore.DEInternal>
2.5396

> <Gold.Chemscore.Rot>
5.2672

> <Gold.Chemscore.Internal.Correction>
   9.000000E+99

> <Gold.Chemscore.Hbonds>
donor molecule, donor type, donor heavy atom, donor atom, acceptor molecule, acceptor atom, score
      L1  H    23    50       P1 10186  0.69
      L1  H    25    51       P1  7948  0.97
      L1  H    27    52       P1  7948  0.98
      P1  H  6896  6907       L1    11  0.45

> <Gold.Chemscore.Hbond.Weighted>
-11.5797

> <Gold.Chemscore.Metal.Weighted>
-0.0000

> <Gold.Chemscore.Lipo.Weighted>
-8.9132

> <Gold.Chemscore.Internal_Hbond.Weighted>
0.0000

> <Gold.Chemscore.DEClash.Weighted>
0.0407

> <Gold.Chemscore.DEInternal.Weighted>
2.5396

> <Gold.Chemscore.Rot.Weighted>
13.4839

> <Gold.Chemscore.Internal.Correction.Weighted>
   9.000000E+99

> <Gold.Protein.RotatedTorsions>
[ 6907 6896 6895 6894 ] final -138.51 input  -60.11 | X-H torsion
[ 7974 7965 7964 7962 ] final -142.06 input  175.53 | X-H torsion
[ 8008 7997 7996 7995 ] final  125.98 input   59.86 | X-H torsion
[ 10167 10162 10161 10158 ] final   13.16 input  -65.29 | X-H torsion
[ 10718 10713 10712 10709 ] final  110.42 input   66.30 | X-H torsion
[ 10763 10752 10751 10750 ] final -104.11 input  -60.55 | X-H torsion
[ 11005 11000 10999 10996 ] final  -82.63 input  -57.11 | X-H torsion

> <Gold.Protein.ActiveResidues>
 VAL166  LYS551  ARG553  GLY616  TRP617  ASP618  TYR619  PRO620  LYS621  CYS622 
 ASP623  PHE694  ASN695  SER759  ASP760  ASP761  ALA762  ILE779  LEU786  VAL792 
 PHE793  MET794  SER795  GLU796  ALA797  LYS798  CYS799  TRP800  GLU811  SER814 

> <Gold.Protein.RotatedAtoms>
  151.0359  133.5748  159.2655 H   0  0  0  0  0  0  0  0  0  0  0  0  # atno 6907 bound_to 6896
  151.2813  135.0714  159.9180 H   0  0  0  0  0  0  0  0  0  0  0  0  # atno 6908 bound_to 6896
  152.5354  134.0073  159.7976 H   0  0  0  0  0  0  0  0  0  0  0  0  # atno 6909 bound_to 6896
  144.8472  140.6004  143.5414 H   0  0  0  0  0  0  0  0  0  0  0  0  # atno 7974 bound_to 7965
  156.2850  140.2703  156.2037 H   0  0  0  0  0  0  0  0  0  0  0  0  # atno 8008 bound_to 7997
  155.0335  140.0386  157.2501 H   0  0  0  0  0  0  0  0  0  0  0  0  # atno 8009 bound_to 7997
  154.7334  140.2711  155.6441 H   0  0  0  0  0  0  0  0  0  0  0  0  # atno 8010 bound_to 7997
  140.6021  143.8583  150.6976 H   0  0  0  0  0  0  0  0  0  0  0  0  # atno 10167 bound_to 10162
  157.6495  131.0932  150.6599 H   0  0  0  0  0  0  0  0  0  0  0  0  # atno 10718 bound_to 10713
  154.7855  135.4798  153.9936 H   0  0  0  0  0  0  0  0  0  0  0  0  # atno 10763 bound_to 10752
  153.1554  135.6799  153.8828 H   0  0  0  0  0  0  0  0  0  0  0  0  # atno 10764 bound_to 10752
  153.8459  135.3173  155.3407 H   0  0  0  0  0  0  0  0  0  0  0  0  # atno 10765 bound_to 10752
  141.1662  133.7254  156.8600 H   0  0  0  0  0  0  0  0  0  0  0  0  # atno 11005 bound_to 11000
  145.4573  139.1516  143.3885 LP  0  0  0  0  0  0  0  0  0  0  0  0  # atno 17320 bound_to 7965
  146.2754  140.4702  142.8797 LP  0  0  0  0  0  0  0  0  0  0  0  0  # atno 17321 bound_to 7965
  140.2132  143.3867  152.1702 LP  0  0  0  0  0  0  0  0  0  0  0  0  # atno 17342 bound_to 10162
  139.5298  144.7146  151.5096 LP  0  0  0  0  0  0  0  0  0  0  0  0  # atno 17343 bound_to 10162
  156.6912  130.4595  149.5599 LP  0  0  0  0  0  0  0  0  0  0  0  0  # atno 17370 bound_to 10713
  156.1860  130.6530  151.1007 LP  0  0  0  0  0  0  0  0  0  0  0  0  # atno 17371 bound_to 10713
  140.1855  134.9003  157.2999 LP  0  0  0  0  0  0  0  0  0  0  0  0  # atno 17394 bound_to 11000
  140.2348  134.3866  155.7506 LP  0  0  0  0  0  0  0  0  0  0  0  0  # atno 17395 bound_to 11000

$$$$
