AV-unprocessed.smi:3291|AV-procd|sdf|12619|dock7
  -GOLD-   2272018553D 1   1.00000     0.00000
 Structure written by MMmdl.
 43 45  0  0  0  0  0  0  0  0  2 V2000
  151.0606  132.3994  155.5179 C   0  0  0  0  0  0  0  0  0  0  0  0
  150.1497  131.4170  154.8384 C   0  0  0  0  0  0  0  0  0  0  0  0
  150.2778  130.1273  155.0960 N   0  0  0  0  0  0  0  0  0  0  0  0
  149.3036  129.4865  154.3273 O   0  0  0  0  0  0  0  0  0  0  0  0
  148.6169  130.4251  153.6282 C   0  0  0  0  0  0  0  0  0  0  0  0
  147.5276  129.9134  152.7450 C   0  0  0  0  0  0  0  0  0  0  0  0
  149.1058  131.6769  153.9026 C   0  0  0  0  0  0  0  0  0  0  0  0
  148.6770  133.0279  153.3744 C   0  0  2  0  0  0  0  0  0  0  0  0
  148.3325  133.9681  154.5428 C   0  0  0  0  0  0  0  0  0  0  0  0
  147.5129  132.8895  152.3747 C   0  0  0  0  0  0  0  0  0  0  0  0
  146.8867  134.1951  152.0774 N   0  3  0  0  0  0  0  0  0  0  0  0
  146.0663  134.2327  150.8476 C   0  0  0  0  0  0  0  0  0  0  0  0
  145.2566  135.5167  150.8353 C   0  0  0  0  0  0  0  0  0  0  0  0
  145.5219  136.6181  151.8360 C   0  0  0  0  0  0  0  0  0  0  0  0
  144.2466  135.8137  151.9193 C   0  0  0  0  0  0  0  0  0  0  0  0
  145.1554  133.0163  150.7709 C   0  0  0  0  0  0  0  0  0  0  0  0
  145.5416  131.7887  149.9761 C   0  0  0  0  0  0  0  0  0  0  0  0
  144.4181  132.6732  149.4958 C   0  0  0  0  0  0  0  0  0  0  0  0
  150.4899  133.1044  156.1224 H   0  0  0  0  0  0  0  0  0  0  0  0
  151.6298  132.9732  154.7863 H   0  0  0  0  0  0  0  0  0  0  0  0
  151.7752  131.9027  156.1756 H   0  0  0  0  0  0  0  0  0  0  0  0
  146.6450  130.5498  152.7988 H   0  0  0  0  0  0  0  0  0  0  0  0
  147.2289  128.9060  153.0363 H   0  0  0  0  0  0  0  0  0  0  0  0
  147.8581  129.8772  151.7069 H   0  0  0  0  0  0  0  0  0  0  0  0
  149.5098  133.4809  152.8351 H   0  0  0  0  0  0  0  0  0  0  0  0
  149.1785  134.0679  155.2239 H   0  0  0  0  0  0  0  0  0  0  0  0
  147.4853  133.5998  155.1208 H   0  0  0  0  0  0  0  0  0  0  0  0
  148.0814  134.9692  154.1920 H   0  0  0  0  0  0  0  0  0  0  0  0
  147.8788  132.4619  151.4399 H   0  0  0  0  0  0  0  0  0  0  0  0
  146.7610  132.2073  152.7681 H   0  0  0  0  0  0  0  0  0  0  0  0
  146.3114  134.4714  152.8601 H   0  0  0  0  0  0  0  0  0  0  0  0
  146.7277  134.2390  149.9794 H   0  0  0  0  0  0  0  0  0  0  0  0
  144.9895  135.8533  149.8348 H   0  0  0  0  0  0  0  0  0  0  0  0
  146.2684  136.4436  152.6082 H   0  0  0  0  0  0  0  0  0  0  0  0
  145.4483  137.6445  151.4828 H   0  0  0  0  0  0  0  0  0  0  0  0
  143.3224  136.3064  151.6242 H   0  0  0  0  0  0  0  0  0  0  0  0
  144.1553  135.1041  152.7394 H   0  0  0  0  0  0  0  0  0  0  0  0
  144.5963  132.8347  151.6875 H   0  0  0  0  0  0  0  0  0  0  0  0
  146.4750  131.8169  149.4169 H   0  0  0  0  0  0  0  0  0  0  0  0
  145.2782  130.8188  150.3932 H   0  0  0  0  0  0  0  0  0  0  0  0
  143.4029  132.2932  149.5902 H   0  0  0  0  0  0  0  0  0  0  0  0
  144.6080  133.2782  148.6119 H   0  0  0  0  0  0  0  0  0  0  0  0
  147.6304  134.8703  151.9730 H   0  0  0  0  0  0  0  0  0  0  0  0
  1  2  1  0  0  0  0
  1 19  1  0  0  0  0
  1 20  1  0  0  0  0
  1 21  1  0  0  0  0
  2  7  1  0  0  0  0
  2  3  2  0  0  0  0
  3  4  1  0  0  0  0
  4  5  1  0  0  0  0
  5  6  1  0  0  0  0
  5  7  2  0  0  0  0
  6 22  1  0  0  0  0
  6 23  1  0  0  0  0
  6 24  1  0  0  0  0
  7  8  1  0  0  0  0
  8  9  1  0  0  0  0
  8 10  1  0  0  0  0
  8 25  1  0  0  0  0
  9 26  1  0  0  0  0
  9 27  1  0  0  0  0
  9 28  1  0  0  0  0
 10 11  1  0  0  0  0
 10 29  1  0  0  0  0
 10 30  1  0  0  0  0
 11 12  1  0  0  0  0
 11 31  1  0  0  0  0
 11 43  1  0  0  0  0
 12 13  1  0  0  0  0
 12 16  1  0  0  0  0
 12 32  1  0  0  0  0
 13 15  1  0  0  0  0
 13 14  1  0  0  0  0
 13 33  1  0  0  0  0
 14 15  1  0  0  0  0
 14 34  1  0  0  0  0
 14 35  1  0  0  0  0
 15 36  1  0  0  0  0
 15 37  1  0  0  0  0
 16 18  1  0  0  0  0
 16 17  1  0  0  0  0
 16 38  1  0  0  0  0
 17 18  1  0  0  0  0
 17 39  1  0  0  0  0
 17 40  1  0  0  0  0
 18 41  1  0  0  0  0
 18 42  1  0  0  0  0
M  CHG  1  11   1
M  END
> <s_m_source_file>
AV-unprocessed.smi

> <i_m_source_file_index>
3291

> <i_lp_mmshare_version>
43012

> <i_f3d_flags>
0

> <s_epik_input>
W0NIM11jMW5vYyhbQ0gzXSljMVtDQEhdKFtDSDNdKVtDSDJdW05IXVtDSF0oW0NIXTJbQ0gyXVtDSDJdMilbQ0hdM1tDSDJdW0NIMl0z

> <s_epik_cmdline>
J2VwaWtfcHl0aG9uJywgJy1waCcsICc3LjAnLCAnLXRuJywgJzgnLCAnLW1hJywgJzIwMCcsICctbWV0YWxfYmluZGluZycsICctaW1hZScsICc8aW5maWxlLm1hZT4nLCAnLW9tYWUnLCAnPG91dGZpbGUubWFlPic=

> <r_lp_tautomer_probability>
1

> <r_epik_Ionization_Penalty>
0.000158108

> <r_epik_Ionization_Penalty_Charging>
0.000158108

> <r_epik_Ionization_Penalty_Neutral>
1.14678e-10

> <r_epik_State_Penalty>
-0

> <r_epik_Charging_Adjusted_Penalty>
0.000158108

> <i_epik_Tot_Q>
1

> <i_epik_Tot_abs_Q>
1

> <r_epik_Metal_State_Penalty>
-0

> <b_epik_Metal_Only>
0

> <s_lp_Force_Field>
OPLS_2005

> <r_lp_Energy>
25.2548

> <b_lp_Chiralities_Consistent>
1

> <s_lp_Variant>
AV-unprocessed.smi:3291-1

> <Gold.Version>
5.8.1

> <Gold.Id.Protein>
6NUR|6NUR_protein|mol2

> <Gold.PLP.Fitness>
42.3185

> <Gold.PLP.PLP>
-37.2335

> <Gold.PLP.part.hbond>
-1.0000

> <Gold.PLP.part.metal>
0.0000

> <Gold.PLP.part.buried>
-4.6248

> <Gold.PLP.part.nonpolar>
-31.4135

> <Gold.PLP.part.repulsive>
0.0999

> <Gold.PLP.ligand.clash>
0.0307

> <Gold.PLP.ligand.torsion>
1.5586

> <Gold.PLP.Chemscore.Hbond>
2.0000

> <Gold.PLP.Chemscore.CHOScore>
0.0000

> <Gold.PLP.Chemscore.Metal>
0.0000

> <Gold.Chemscore.Hbonds>
donor molecule, donor type, donor heavy atom, donor atom, acceptor molecule, acceptor atom, score
      L1  H    11    43       P1  7948  2.00

> <Gold.PLP.Chemscore.Internal.Correction>
2.2329

> <Gold.Rescore>
     Score         DG    S(hbond)    S(metal)    S(lipo)     H(rot)  DE(clash)    DE(int)     intcor
     13.56     -16.12       0.94        0.00      96.96       1.50       0.01       2.55       ----

> <Gold.Chemscore.Fitness>
13.5615

> <Gold.Chemscore.DG>
-16.1218

> <Gold.Chemscore.ZeroCoef>
-5.4800

> <Gold.Chemscore.Hbond>
0.9405

> <Gold.Chemscore.Metal>
0.0000

> <Gold.Chemscore.Lipo>
96.9606

> <Gold.Chemscore.Internal_Hbond>
0.0000

> <Gold.Chemscore.DEClash>
0.0112

> <Gold.Chemscore.DEInternal>
2.5491

> <Gold.Chemscore.Rot>
1.5015

> <Gold.Chemscore.Internal.Correction>
   9.000000E+99

> <Gold.Chemscore.Hbonds>
donor molecule, donor type, donor heavy atom, donor atom, acceptor molecule, acceptor atom, score
      L1  H    11    43       P1  7948  0.74

> <Gold.Chemscore.Hbond.Weighted>
-3.1412

> <Gold.Chemscore.Metal.Weighted>
-0.0000

> <Gold.Chemscore.Lipo.Weighted>
-11.3444

> <Gold.Chemscore.Internal_Hbond.Weighted>
0.0000

> <Gold.Chemscore.DEClash.Weighted>
0.0112

> <Gold.Chemscore.DEInternal.Weighted>
2.5491

> <Gold.Chemscore.Rot.Weighted>
3.8438

> <Gold.Chemscore.Internal.Correction.Weighted>
   9.000000E+99

> <Gold.Protein.RotatedTorsions>
[ 6907 6896 6895 6894 ] final   74.76 input  -60.11 | X-H torsion
[ 7974 7965 7964 7962 ] final -104.98 input  175.53 | X-H torsion
[ 8008 7997 7996 7995 ] final   91.46 input   59.86 | X-H torsion
[ 10167 10162 10161 10158 ] final -113.89 input  -65.29 | X-H torsion
[ 10718 10713 10712 10709 ] final  142.14 input   66.30 | X-H torsion
[ 10763 10752 10751 10750 ] final  112.33 input  -60.55 | X-H torsion
[ 11005 11000 10999 10996 ] final  156.75 input  -57.11 | X-H torsion

> <Gold.Protein.ActiveResidues>
 VAL166  LYS551  ARG553  GLY616  TRP617  ASP618  TYR619  PRO620  LYS621  CYS622 
 ASP623  PHE694  ASN695  SER759  ASP760  ASP761  ALA762  ILE779  LEU786  VAL792 
 PHE793  MET794  SER795  GLU796  ALA797  LYS798  CYS799  TRP800  GLU811  SER814 

> <Gold.Protein.RotatedAtoms>
  152.4992  134.4222  159.9484 H   0  0  0  0  0  0  0  0  0  0  0  0  # atno 6907 bound_to 6896
  151.4196  133.3696  159.2762 H   0  0  0  0  0  0  0  0  0  0  0  0  # atno 6908 bound_to 6896
  150.9232  134.8672  159.7562 H   0  0  0  0  0  0  0  0  0  0  0  0  # atno 6909 bound_to 6896
  145.2362  140.9188  143.3176 H   0  0  0  0  0  0  0  0  0  0  0  0  # atno 7974 bound_to 7965
  156.0241  140.3337  155.7069 H   0  0  0  0  0  0  0  0  0  0  0  0  # atno 8008 bound_to 7997
  155.5980  140.0653  157.2758 H   0  0  0  0  0  0  0  0  0  0  0  0  # atno 8009 bound_to 7997
  154.4327  140.1815  156.1132 H   0  0  0  0  0  0  0  0  0  0  0  0  # atno 8010 bound_to 7997
  140.1069  143.4562  152.1777 H   0  0  0  0  0  0  0  0  0  0  0  0  # atno 10167 bound_to 10162
  157.3840  131.0996  151.0711 H   0  0  0  0  0  0  0  0  0  0  0  0  # atno 10718 bound_to 10713
  153.4764  135.3689  155.2418 H   0  0  0  0  0  0  0  0  0  0  0  0  # atno 10763 bound_to 10752
  154.8756  135.3943  154.3752 H   0  0  0  0  0  0  0  0  0  0  0  0  # atno 10764 bound_to 10752
  153.4348  135.7083  153.6272 H   0  0  0  0  0  0  0  0  0  0  0  0  # atno 10765 bound_to 10752
  140.1704  134.8547  157.2684 H   0  0  0  0  0  0  0  0  0  0  0  0  # atno 11005 bound_to 11000
  144.9631  139.3959  143.6346 LP  0  0  0  0  0  0  0  0  0  0  0  0  # atno 17320 bound_to 7965
  146.3340  139.8693  142.8842 LP  0  0  0  0  0  0  0  0  0  0  0  0  # atno 17321 bound_to 7965
  139.5640  144.7424  151.4074 LP  0  0  0  0  0  0  0  0  0  0  0  0  # atno 17342 bound_to 10162
  140.6947  143.7778  150.7308 LP  0  0  0  0  0  0  0  0  0  0  0  0  # atno 17343 bound_to 10162
  157.1769  130.6292  149.5659 LP  0  0  0  0  0  0  0  0  0  0  0  0  # atno 17370 bound_to 10713
  155.9782  130.4766  150.6643 LP  0  0  0  0  0  0  0  0  0  0  0  0  # atno 17371 bound_to 10713
  140.2384  134.3825  155.7491 LP  0  0  0  0  0  0  0  0  0  0  0  0  # atno 17394 bound_to 11000
  141.2217  133.7252  156.8750 LP  0  0  0  0  0  0  0  0  0  0  0  0  # atno 17395 bound_to 11000

$$$$
