AV-unprocessed.smi:2433|AV-procd|sdf|9590|dock2
  -GOLD-   2272013223D 1   1.00000     0.00000
 Structure written by MMmdl.
 38 40  0  0  0  0  0  0  0  0  1 V2000
  151.4014  140.2017  155.3161 O   0  0  0  0  0  0  0  0  0  0  0  0
  150.7983  140.8774  156.1503 C   0  0  0  0  0  0  0  0  0  0  0  0
  151.4850  141.6377  157.1949 C   0  0  0  0  0  0  0  0  0  0  0  0
  150.7874  142.3728  158.0929 C   0  0  0  0  0  0  0  0  0  0  0  0
  151.5036  143.1623  159.1857 C   0  0  0  0  0  0  0  0  0  0  0  0
  151.3423  144.6915  159.1309 C   0  0  0  0  0  0  0  0  0  0  0  0
  152.7427  144.7987  158.5169 C   0  0  0  0  0  0  0  0  0  0  0  0
  153.0099  143.3518  158.9471 C   0  0  0  0  0  0  0  0  0  0  0  0
  149.3869  142.3993  158.0519 N   0  0  0  0  0  0  0  0  0  0  0  0
  148.7548  141.7344  157.1384 C   0  0  0  0  0  0  0  0  0  0  0  0
  149.4371  140.9759  156.1687 N   0  0  0  0  0  0  0  0  0  0  0  0
  148.6030  140.2892  155.1685 C   0  0  0  0  0  0  0  0  0  0  0  0
  148.1389  141.2316  154.0364 C   0  0  1  0  0  0  0  0  0  0  0  0
  147.9302  140.4676  152.8646 O   0  0  0  0  0  0  0  0  0  0  0  0
  146.8805  141.9839  154.4439 C   0  0  0  0  0  0  0  0  0  0  0  0
  146.4278  143.0690  153.6627 C   0  0  0  0  0  0  0  0  0  0  0  0
  145.2722  143.7817  154.0378 C   0  0  0  0  0  0  0  0  0  0  0  0
  144.5642  143.4158  155.1986 C   0  0  0  0  0  0  0  0  0  0  0  0
  143.4541  144.1016  155.5598 F   0  0  0  0  0  0  0  0  0  0  0  0
  145.0131  142.3378  155.9850 C   0  0  0  0  0  0  0  0  0  0  0  0
  146.1686  141.6249  155.6104 C   0  0  0  0  0  0  0  0  0  0  0  0
  152.5642  141.6128  157.2385 H   0  0  0  0  0  0  0  0  0  0  0  0
  151.2901  142.7640  160.1788 H   0  0  0  0  0  0  0  0  0  0  0  0
  150.5378  145.0573  158.4920 H   0  0  0  0  0  0  0  0  0  0  0  0
  151.2907  145.1396  160.1241 H   0  0  0  0  0  0  0  0  0  0  0  0
  152.7216  144.9206  157.4331 H   0  0  0  0  0  0  0  0  0  0  0  0
  153.3887  145.5372  158.9924 H   0  0  0  0  0  0  0  0  0  0  0  0
  153.5905  143.2901  159.8685 H   0  0  0  0  0  0  0  0  0  0  0  0
  153.4358  142.7224  158.1648 H   0  0  0  0  0  0  0  0  0  0  0  0
  147.6659  141.7190  157.0662 H   0  0  0  0  0  0  0  0  0  0  0  0
  149.0941  139.4066  154.7531 H   0  0  0  0  0  0  0  0  0  0  0  0
  147.7261  139.8917  155.6835 H   0  0  0  0  0  0  0  0  0  0  0  0
  148.9146  141.9655  153.8139 H   0  0  0  0  0  0  0  0  0  0  0  0
  148.7506  140.4037  152.3998 H   0  0  0  0  0  0  0  0  0  0  0  0
  146.9676  143.3616  152.7739 H   0  0  0  0  0  0  0  0  0  0  0  0
  144.9305  144.6107  153.4358 H   0  0  0  0  0  0  0  0  0  0  0  0
  144.4727  142.0586  156.8773 H   0  0  0  0  0  0  0  0  0  0  0  0
  146.5075  140.8037  156.2247 H   0  0  0  0  0  0  0  0  0  0  0  0
  1  2  2  0  0  0  0
  2 11  1  0  0  0  0
  2  3  1  0  0  0  0
  3  4  2  0  0  0  0
  3 22  1  0  0  0  0
  4  5  1  0  0  0  0
  4  9  1  0  0  0  0
  5  8  1  0  0  0  0
  5  6  1  0  0  0  0
  5 23  1  0  0  0  0
  6  7  1  0  0  0  0
  6 24  1  0  0  0  0
  6 25  1  0  0  0  0
  7  8  1  0  0  0  0
  7 26  1  0  0  0  0
  7 27  1  0  0  0  0
  8 28  1  0  0  0  0
  8 29  1  0  0  0  0
  9 10  2  0  0  0  0
 10 11  1  0  0  0  0
 10 30  1  0  0  0  0
 11 12  1  0  0  0  0
 12 13  1  0  0  0  0
 12 31  1  0  0  0  0
 12 32  1  0  0  0  0
 13 14  1  0  0  0  0
 13 15  1  0  0  0  0
 13 33  1  0  0  0  0
 14 34  1  0  0  0  0
 15 21  1  0  0  0  0
 15 16  2  0  0  0  0
 16 17  1  0  0  0  0
 16 35  1  0  0  0  0
 17 18  2  0  0  0  0
 17 36  1  0  0  0  0
 18 19  1  0  0  0  0
 18 20  1  0  0  0  0
 20 21  2  0  0  0  0
 20 37  1  0  0  0  0
 21 38  1  0  0  0  0
M  END
> <s_m_source_file>
AV-unprocessed.smi

> <i_m_source_file_index>
2433

> <i_lp_mmshare_version>
43012

> <i_f3d_flags>
0

> <s_epik_input>
W0NIMl0xW0NIMl1bQ0gyXVtDSF0xYyhbY0hdYzI9TyluW2NIXW4yW0NIMl1bQ0BIXShbT0hdKWMzW2NIXVtjSF1jKEYpW2NIXVtjSF0z

> <s_epik_cmdline>
J2VwaWtfcHl0aG9uJywgJy1waCcsICc3LjAnLCAnLXRuJywgJzgnLCAnLW1hJywgJzIwMCcsICctbWV0YWxfYmluZGluZycsICctaW1hZScsICc8aW5maWxlLm1hZT4nLCAnLW9tYWUnLCAnPG91dGZpbGUubWFlPic=

> <r_lp_tautomer_probability>
1

> <r_epik_Ionization_Penalty>
2.57762e-05

> <r_epik_Ionization_Penalty_Charging>
5.39435e-08

> <r_epik_Ionization_Penalty_Neutral>
2.57223e-05

> <r_epik_State_Penalty>
-0

> <r_epik_Charging_Adjusted_Penalty>
5.39435e-08

> <i_epik_Tot_Q>
0

> <i_epik_Tot_abs_Q>
0

> <r_epik_Metal_State_Penalty>
-0

> <b_epik_Metal_Only>
0

> <s_lp_Force_Field>
OPLS_2005

> <r_lp_Energy>
28.3662

> <b_lp_Chiralities_Consistent>
1

> <s_lp_Variant>
AV-unprocessed.smi:2433-2

> <Gold.Version>
5.8.1

> <Gold.Id.Protein>
6NUR|6NUR_protein|mol2

> <Gold.PLP.Fitness>
49.1520

> <Gold.PLP.PLP>
-44.7411

> <Gold.PLP.part.hbond>
-1.7962

> <Gold.PLP.part.metal>
0.0000

> <Gold.PLP.part.buried>
-8.2175

> <Gold.PLP.part.nonpolar>
-34.7041

> <Gold.PLP.part.repulsive>
0.1675

> <Gold.PLP.ligand.clash>
0.0000

> <Gold.PLP.ligand.torsion>
0.9907

> <Gold.PLP.Chemscore.Hbond>
2.0000

> <Gold.PLP.Chemscore.CHOScore>
0.0000

> <Gold.PLP.Chemscore.Metal>
0.0000

> <Gold.Chemscore.Hbonds>
donor molecule, donor type, donor heavy atom, donor atom, acceptor molecule, acceptor atom, score
      L1  H    14    34       P1  7957  1.00
      P1  H  7989  7998       L1     1  1.00

> <Gold.PLP.Chemscore.Internal.Correction>
0.3923

> <Gold.Rescore>
     Score         DG    S(hbond)    S(metal)    S(lipo)     H(rot)  DE(clash)    DE(int)     intcor
     17.18     -18.33       1.87        0.00     103.26       2.14       0.09       1.06       ----

> <Gold.Chemscore.Fitness>
17.1824

> <Gold.Chemscore.DG>
-18.3262

> <Gold.Chemscore.ZeroCoef>
-5.4800

> <Gold.Chemscore.Hbond>
1.8668

> <Gold.Chemscore.Metal>
0.0000

> <Gold.Chemscore.Lipo>
103.2637

> <Gold.Chemscore.Internal_Hbond>
0.0000

> <Gold.Chemscore.DEClash>
0.0885

> <Gold.Chemscore.DEInternal>
1.0552

> <Gold.Chemscore.Rot>
2.1370

> <Gold.Chemscore.Internal.Correction>
   9.000000E+99

> <Gold.Chemscore.Hbonds>
donor molecule, donor type, donor heavy atom, donor atom, acceptor molecule, acceptor atom, score
      L1  H    14    34       P1  7957  0.91
      P1  H  7989  7998       L1     1  0.92

> <Gold.Chemscore.Hbond.Weighted>
-6.2351

> <Gold.Chemscore.Metal.Weighted>
-0.0000

> <Gold.Chemscore.Lipo.Weighted>
-12.0819

> <Gold.Chemscore.Internal_Hbond.Weighted>
0.0000

> <Gold.Chemscore.DEClash.Weighted>
0.0885

> <Gold.Chemscore.DEInternal.Weighted>
1.0552

> <Gold.Chemscore.Rot.Weighted>
5.4707

> <Gold.Chemscore.Internal.Correction.Weighted>
   9.000000E+99

> <Gold.Protein.RotatedTorsions>
[ 6907 6896 6895 6894 ] final  -99.47 input  -60.11 | X-H torsion
[ 7974 7965 7964 7962 ] final  114.20 input  175.53 | X-H torsion
[ 8008 7997 7996 7995 ] final -158.54 input   59.86 | X-H torsion
[ 10167 10162 10161 10158 ] final -126.06 input  -65.29 | X-H torsion
[ 10718 10713 10712 10709 ] final    2.77 input   66.30 | X-H torsion
[ 10763 10752 10751 10750 ] final  -56.07 input  -60.55 | X-H torsion
[ 11005 11000 10999 10996 ] final  150.95 input  -57.11 | X-H torsion

> <Gold.Protein.ActiveResidues>
 VAL166  LYS551  ARG553  GLY616  TRP617  ASP618  TYR619  PRO620  LYS621  CYS622 
 ASP623  PHE694  ASN695  SER759  ASP760  ASP761  ALA762  ILE779  LEU786  VAL792 
 PHE793  MET794  SER795  GLU796  ALA797  LYS798  CYS799  TRP800  GLU811  SER814 

> <Gold.Protein.RotatedAtoms>
  150.7081  134.1036  159.3974 H   0  0  0  0  0  0  0  0  0  0  0  0  # atno 6907 bound_to 6896
  151.9022  135.0371  160.0516 H   0  0  0  0  0  0  0  0  0  0  0  0  # atno 6908 bound_to 6896
  152.2405  133.5096  159.5304 H   0  0  0  0  0  0  0  0  0  0  0  0  # atno 6909 bound_to 6896
  145.2074  139.2922  143.4286 H   0  0  0  0  0  0  0  0  0  0  0  0  # atno 7974 bound_to 7965
  155.7491  140.0824  157.2209 H   0  0  0  0  0  0  0  0  0  0  0  0  # atno 8008 bound_to 7997
  154.4014  140.1563  156.2759 H   0  0  0  0  0  0  0  0  0  0  0  0  # atno 8009 bound_to 7997
  155.8947  140.3413  155.5985 H   0  0  0  0  0  0  0  0  0  0  0  0  # atno 8010 bound_to 7997
  139.9755  143.5799  152.2397 H   0  0  0  0  0  0  0  0  0  0  0  0  # atno 10167 bound_to 10162
  156.8679  130.5610  149.5659 H   0  0  0  0  0  0  0  0  0  0  0  0  # atno 10718 bound_to 10713
  154.2008  135.6411  153.5086 H   0  0  0  0  0  0  0  0  0  0  0  0  # atno 10763 bound_to 10752
  153.0012  135.5451  154.6317 H   0  0  0  0  0  0  0  0  0  0  0  0  # atno 10764 bound_to 10752
  154.5730  135.2918  155.0782 H   0  0  0  0  0  0  0  0  0  0  0  0  # atno 10765 bound_to 10752
  140.1176  134.8884  157.2027 H   0  0  0  0  0  0  0  0  0  0  0  0  # atno 11005 bound_to 11000
  146.3405  140.2339  142.8594 LP  0  0  0  0  0  0  0  0  0  0  0  0  # atno 17320 bound_to 7965
  144.9889  140.8528  143.5352 LP  0  0  0  0  0  0  0  0  0  0  0  0  # atno 17321 bound_to 7965
  139.6449  144.7657  151.2264 LP  0  0  0  0  0  0  0  0  0  0  0  0  # atno 17342 bound_to 10162
  140.7507  143.6256  150.8472 LP  0  0  0  0  0  0  0  0  0  0  0  0  # atno 17343 bound_to 10162
  156.0742  130.5768  150.9441 LP  0  0  0  0  0  0  0  0  0  0  0  0  # atno 17370 bound_to 10713
  157.6212  131.0929  150.8618 LP  0  0  0  0  0  0  0  0  0  0  0  0  # atno 17371 bound_to 10713
  140.3007  134.3135  155.7290 LP  0  0  0  0  0  0  0  0  0  0  0  0  # atno 17394 bound_to 11000
  141.2145  133.7590  156.9637 LP  0  0  0  0  0  0  0  0  0  0  0  0  # atno 17395 bound_to 11000

$$$$
