AV-unprocessed.smi:72|AV-procd|sdf|748|dock3
  -GOLD-   2262017 83D 1   1.00000     0.00000
 Structure written by MMmdl.
 29 30  0  0  0  0  0  0  0  0  1 V2000
  152.8978  140.4576  158.7202 N   0  0  0  0  0  0  0  0  0  0  0  0
  151.9573  140.3449  157.7176 C   0  0  0  0  0  0  0  0  0  0  0  0
  150.6517  140.7395  158.0404 N   0  0  0  0  0  0  0  0  0  0  0  0
  149.7640  140.6334  157.1027 C   0  0  0  0  0  0  0  0  0  0  0  0
  150.1149  140.1312  155.7846 N   0  0  0  0  0  0  0  0  0  0  0  0
  149.0967  139.9924  154.6651 C   0  0  1  0  0  0  0  0  0  0  0  0
  147.9481  139.3484  155.1369 O   0  0  0  0  0  0  0  0  0  0  0  0
  146.8692  140.2736  155.2346 C   0  0  2  0  0  0  0  0  0  0  0  0
  145.5112  139.5512  155.2049 C   0  0  0  0  0  0  0  0  0  0  0  0
  144.4598  140.4931  155.2244 O   0  0  0  0  0  0  0  0  0  0  0  0
  147.1347  141.2334  154.0679 C   0  0  2  0  0  0  0  0  0  0  0  0
  146.6777  140.6893  152.8423 O   0  0  0  0  0  0  0  0  0  0  0  0
  148.6534  141.3497  154.0651 C   0  0  1  0  0  0  0  0  0  0  0  0
  149.0447  142.4740  154.8345 O   0  0  0  0  0  0  0  0  0  0  0  0
  151.4609  139.7518  155.5272 C   0  0  0  0  0  0  0  0  0  0  0  0
  151.7817  139.3341  154.4144 O   0  0  0  0  0  0  0  0  0  0  0  0
  152.3792  139.8840  156.5753 N   0  0  0  0  0  0  0  0  0  0  0  0
  149.5593  139.3304  153.9315 H   0  0  0  0  0  0  0  0  0  0  0  0
  146.9687  140.8403  156.1622 H   0  0  0  0  0  0  0  0  0  0  0  0
  146.6400  142.1951  154.2120 H   0  0  0  0  0  0  0  0  0  0  0  0
  149.0628  141.4608  153.0599 H   0  0  0  0  0  0  0  0  0  0  0  0
  153.8679  140.2036  158.6017 H   0  0  0  0  0  0  0  0  0  0  0  0
  152.6875  140.8046  159.6447 H   0  0  0  0  0  0  0  0  0  0  0  0
  148.7195  140.9100  157.2453 H   0  0  0  0  0  0  0  0  0  0  0  0
  145.4132  138.9737  154.2851 H   0  0  0  0  0  0  0  0  0  0  0  0
  145.4112  138.8564  156.0392 H   0  0  0  0  0  0  0  0  0  0  0  0
  144.1807  140.6515  154.3355 H   0  0  0  0  0  0  0  0  0  0  0  0
  145.7415  140.8070  152.7916 H   0  0  0  0  0  0  0  0  0  0  0  0
  148.4848  143.2007  154.6072 H   0  0  0  0  0  0  0  0  0  0  0  0
  1  2  1  0  0  0  0
  1 22  1  0  0  0  0
  1 23  1  0  0  0  0
  2 17  2  0  0  0  0
  2  3  1  0  0  0  0
  3  4  2  0  0  0  0
  4  5  1  0  0  0  0
  4 24  1  0  0  0  0
  5  6  1  0  0  0  0
  5 15  1  0  0  0  0
  6 18  1  0  0  0  0
  6 13  1  0  0  0  0
  6  7  1  0  0  0  0
  7  8  1  0  0  0  0
  8 19  1  0  0  0  0
  8  9  1  0  0  0  0
  8 11  1  0  0  0  0
  9 10  1  0  0  0  0
  9 25  1  0  0  0  0
  9 26  1  0  0  0  0
 10 27  1  0  0  0  0
 11 20  1  0  0  0  0
 11 12  1  0  0  0  0
 11 13  1  0  0  0  0
 12 28  1  0  0  0  0
 13 21  1  0  0  0  0
 13 14  1  0  0  0  0
 14 29  1  0  0  0  0
 15 16  2  0  0  0  0
 15 17  1  0  0  0  0
M  END
> <s_m_source_file>
AV-unprocessed.smi

> <i_m_source_file_index>
72

> <i_lp_mmshare_version>
43012

> <i_f3d_flags>
0

> <s_epik_input>
W05IMl1jMW5bY0hdbihjKD1PKW4xKVtDQEBIXTJPW0NASF0oW0NIMl1bT0hdKVtDQEBIXShbT0hdKVtDQEhdMltPSF0=

> <s_epik_cmdline>
J2VwaWtfcHl0aG9uJywgJy1waCcsICc3LjAnLCAnLXRuJywgJzgnLCAnLW1hJywgJzIwMCcsICctbWV0YWxfYmluZGluZycsICctaW1hZScsICc8aW5maWxlLm1hZT4nLCAnLW9tYWUnLCAnPG91dGZpbGUubWFlPic=

> <r_lp_tautomer_probability>
4.77166e-05

> <r_epik_Ionization_Penalty>
1.3546

> <r_epik_Ionization_Penalty_Charging>
1.46833e-10

> <r_epik_Ionization_Penalty_Neutral>
1.3546

> <r_epik_State_Penalty>
3.51908

> <r_epik_Charging_Adjusted_Penalty>
3.51908

> <i_epik_Tot_Q>
0

> <i_epik_Tot_abs_Q>
0

> <r_epik_Metal_State_Penalty>
3.44088

> <b_epik_Metal_Only>
1

> <s_epik_Chemistry_Notes>
This compound contains an acetal/aminal-like group ( X-CH(R)-Y where X, Y are N, S, or O) that may be acid/base labile, releasing an aldehyde.

> <s_lp_Force_Field>
OPLS_2005

> <r_lp_Energy>
33.7939

> <b_lp_Chiralities_Consistent>
1

> <s_lp_Variant>
AV-unprocessed.smi:72-86

> <Gold.Version>
5.8.1

> <Gold.Id.Protein>
6NUR|6NUR_protein|mol2

> <Gold.PLP.Fitness>
33.7311

> <Gold.PLP.PLP>
-21.8780

> <Gold.PLP.part.hbond>
-5.5441

> <Gold.PLP.part.metal>
0.0000

> <Gold.PLP.part.buried>
-3.8587

> <Gold.PLP.part.nonpolar>
-14.2320

> <Gold.PLP.part.repulsive>
0.2372

> <Gold.PLP.ligand.clash>
0.0000

> <Gold.PLP.ligand.torsion>
0.2710

> <Gold.PLP.Chemscore.Hbond>
4.1173

> <Gold.PLP.Chemscore.CHOScore>
0.0000

> <Gold.PLP.Chemscore.Metal>
0.0000

> <Gold.Chemscore.Hbonds>
donor molecule, donor type, donor heavy atom, donor atom, acceptor molecule, acceptor atom, score
      L1  H    10    27       P1 10175  1.00
      L1  H    12    28       P1 10175  0.83
      L1  H    14    29       P1  8028  0.26
      P1  H  7989  7998       L1    16  0.99
      P1  H  7997  8010       L1    17  1.00

> <Gold.PLP.Chemscore.Internal.Correction>
0.0434

> <Gold.Rescore>
     Score         DG    S(hbond)    S(metal)    S(lipo)     H(rot)  DE(clash)    DE(int)     intcor
      9.19      -9.77       3.85        0.00      15.58       4.06       0.02       0.56       ----

> <Gold.Chemscore.Fitness>
9.1889

> <Gold.Chemscore.DG>
-9.7703

> <Gold.Chemscore.ZeroCoef>
-5.4800

> <Gold.Chemscore.Hbond>
3.8507

> <Gold.Chemscore.Metal>
0.0000

> <Gold.Chemscore.Lipo>
15.5779

> <Gold.Chemscore.Internal_Hbond>
0.0000

> <Gold.Chemscore.DEClash>
0.0234

> <Gold.Chemscore.DEInternal>
0.5580

> <Gold.Chemscore.Rot>
4.0600

> <Gold.Chemscore.Internal.Correction>
   9.000000E+99

> <Gold.Chemscore.Hbonds>
donor molecule, donor type, donor heavy atom, donor atom, acceptor molecule, acceptor atom, score
      L1  H    10    27       P1 10175  0.99
      L1  H    12    28       P1 10175  0.33
      L1  H    14    29       P1  8028  0.26
      P1  H  7989  7998       L1    16  0.24
      P1  H  7997  8010       L1    17  0.53

> <Gold.Chemscore.Hbond.Weighted>
-12.8613

> <Gold.Chemscore.Metal.Weighted>
-0.0000

> <Gold.Chemscore.Lipo.Weighted>
-1.8226

> <Gold.Chemscore.Internal_Hbond.Weighted>
0.0000

> <Gold.Chemscore.DEClash.Weighted>
0.0234

> <Gold.Chemscore.DEInternal.Weighted>
0.5580

> <Gold.Chemscore.Rot.Weighted>
10.3936

> <Gold.Chemscore.Internal.Correction.Weighted>
   9.000000E+99

> <Gold.Protein.RotatedTorsions>
[ 6907 6896 6895 6894 ] final  172.22 input  -60.11 | X-H torsion
[ 7974 7965 7964 7962 ] final  134.53 input  175.53 | X-H torsion
[ 8008 7997 7996 7995 ] final   62.58 input   59.86 | X-H torsion
[ 10167 10162 10161 10158 ] final -127.64 input  -65.29 | X-H torsion
[ 10718 10713 10712 10709 ] final  104.58 input   66.30 | X-H torsion
[ 10763 10752 10751 10750 ] final   65.59 input  -60.55 | X-H torsion
[ 11005 11000 10999 10996 ] final -129.10 input  -57.11 | X-H torsion

> <Gold.Protein.ActiveResidues>
 VAL166  LYS551  ARG553  GLY616  TRP617  ASP618  TYR619  PRO620  LYS621  CYS622 
 ASP623  PHE694  ASN695  SER759  ASP760  ASP761  ALA762  ILE779  LEU786  VAL792 
 PHE793  MET794  SER795  GLU796  ALA797  LYS798  CYS799  TRP800  GLU811  SER814 

> <Gold.Protein.RotatedAtoms>
  151.7878  133.3356  159.3489 H   0  0  0  0  0  0  0  0  0  0  0  0  # atno 6907 bound_to 6896
  150.7403  134.5871  159.5978 H   0  0  0  0  0  0  0  0  0  0  0  0  # atno 6908 bound_to 6896
  152.3231  134.7356  160.0360 H   0  0  0  0  0  0  0  0  0  0  0  0  # atno 6909 bound_to 6896
  144.9754  139.4560  143.5412 H   0  0  0  0  0  0  0  0  0  0  0  0  # atno 7974 bound_to 7965
  155.6166  140.3495  155.4639 H   0  0  0  0  0  0  0  0  0  0  0  0  # atno 8008 bound_to 7997
  156.0112  140.1233  157.0476 H   0  0  0  0  0  0  0  0  0  0  0  0  # atno 8009 bound_to 7997
  154.4281  140.1081  156.5818 H   0  0  0  0  0  0  0  0  0  0  0  0  # atno 8010 bound_to 7997
  139.9587  143.5974  152.2452 H   0  0  0  0  0  0  0  0  0  0  0  0  # atno 10167 bound_to 10162
  157.6735  131.0807  150.5727 H   0  0  0  0  0  0  0  0  0  0  0  0  # atno 10718 bound_to 10713
  153.0103  135.5351  154.6691 H   0  0  0  0  0  0  0  0  0  0  0  0  # atno 10763 bound_to 10752
  154.5880  135.2856  155.0667 H   0  0  0  0  0  0  0  0  0  0  0  0  # atno 10764 bound_to 10752
  154.1771  135.6522  153.5077 H   0  0  0  0  0  0  0  0  0  0  0  0  # atno 10765 bound_to 10752
  140.9460  134.1129  157.4107 H   0  0  0  0  0  0  0  0  0  0  0  0  # atno 11005 bound_to 11000
  146.3394  139.8994  142.8797 LP  0  0  0  0  0  0  0  0  0  0  0  0  # atno 17320 bound_to 7965
  145.2497  141.0039  143.3888 LP  0  0  0  0  0  0  0  0  0  0  0  0  # atno 17321 bound_to 7965
  139.6571  144.7662  151.2035 LP  0  0  0  0  0  0  0  0  0  0  0  0  # atno 17342 bound_to 10162
  140.7560  143.6069  150.8644 LP  0  0  0  0  0  0  0  0  0  0  0  0  # atno 17343 bound_to 10162
  156.6029  130.4359  149.5890 LP  0  0  0  0  0  0  0  0  0  0  0  0  # atno 17370 bound_to 10713
  156.2492  130.6897  151.1629 LP  0  0  0  0  0  0  0  0  0  0  0  0  # atno 17371 bound_to 10713
  139.8833  135.0051  156.6294 LP  0  0  0  0  0  0  0  0  0  0  0  0  # atno 17394 bound_to 11000
  140.7668  133.8771  155.8461 LP  0  0  0  0  0  0  0  0  0  0  0  0  # atno 17395 bound_to 11000

$$$$
