AV-unprocessed.smi:1394|AV-procd|sdf|5667|dock2
  -GOLD-   22720 5293D 1   1.00000     0.00000
 Structure written by MMmdl.
 41 42  0  0  0  0  0  0  0  0  1 V2000
  149.7031  141.7276  154.9255 C   0  0  0  0  0  0  0  0  0  0  0  0
  149.3089  140.2917  154.5395 C   0  0  2  0  0  0  0  0  0  0  0  0
  147.9128  139.9228  155.0830 C   0  0  0  0  0  0  0  0  0  0  0  0
  147.4865  138.5148  154.6371 C   0  0  0  0  0  0  0  0  0  0  0  0
  148.5268  137.4598  155.0418 C   0  0  0  0  0  0  0  0  0  0  0  0
  149.9244  137.8206  154.5078 C   0  0  0  0  0  0  0  0  0  0  0  0
  150.3684  139.2322  154.9420 C   0  0  2  0  0  0  0  0  0  0  0  0
  150.6376  139.2406  156.3815 N   0  0  0  0  0  0  0  0  0  0  0  0
  151.8409  139.3537  156.9643 C   0  0  0  0  0  0  0  0  0  0  0  0
  152.8909  139.4747  156.3319 O   0  0  0  0  0  0  0  0  0  0  0  0
  151.8355  139.3306  158.4995 C   0  0  0  0  0  0  0  0  0  0  0  0
  152.2877  140.5920  159.1107 N   0  0  0  0  0  0  0  0  0  0  0  0
  153.2417  140.4875  160.1385 C   0  0  0  0  0  0  0  0  0  0  0  0
  153.7229  141.5680  160.7672 C   0  0  0  0  0  0  0  0  0  0  0  0
  153.2372  142.8647  160.3629 C   0  0  0  0  0  0  0  0  0  0  0  0
  152.3147  142.9968  159.3817 C   0  0  0  0  0  0  0  0  0  0  0  0
  151.7965  144.3624  158.9367 C   0  0  0  0  0  0  0  0  0  0  0  0
  152.1052  144.5897  157.6594 F   0  0  0  0  0  0  0  0  0  0  0  0
  150.4703  144.4222  159.0621 F   0  0  0  0  0  0  0  0  0  0  0  0
  152.3201  145.3512  159.6631 F   0  0  0  0  0  0  0  0  0  0  0  0
  151.7866  141.7977  158.6989 C   0  0  0  0  0  0  0  0  0  0  0  0
  150.9396  141.8664  157.8069 O   0  0  0  0  0  0  0  0  0  0  0  0
  149.7203  141.8658  156.0067 H   0  0  0  0  0  0  0  0  0  0  0  0
  148.9970  142.4496  154.5148 H   0  0  0  0  0  0  0  0  0  0  0  0
  150.6916  141.9797  154.5403 H   0  0  0  0  0  0  0  0  0  0  0  0
  149.2432  140.2736  153.4503 H   0  0  0  0  0  0  0  0  0  0  0  0
  147.9102  139.9780  156.1723 H   0  0  0  0  0  0  0  0  0  0  0  0
  147.1758  140.6494  154.7392 H   0  0  0  0  0  0  0  0  0  0  0  0
  146.5173  138.2653  155.0701 H   0  0  0  0  0  0  0  0  0  0  0  0
  147.3542  138.4997  153.5546 H   0  0  0  0  0  0  0  0  0  0  0  0
  148.5561  137.3729  156.1285 H   0  0  0  0  0  0  0  0  0  0  0  0
  148.2275  136.4816  154.6645 H   0  0  0  0  0  0  0  0  0  0  0  0
  150.6525  137.0778  154.8358 H   0  0  0  0  0  0  0  0  0  0  0  0
  149.9123  137.7699  153.4183 H   0  0  0  0  0  0  0  0  0  0  0  0
  151.2930  139.4553  154.4065 H   0  0  0  0  0  0  0  0  0  0  0  0
  149.8343  139.1472  156.9860 H   0  0  0  0  0  0  0  0  0  0  0  0
  150.8254  139.0956  158.8390 H   0  0  0  0  0  0  0  0  0  0  0  0
  152.4482  138.4936  158.8388 H   0  0  0  0  0  0  0  0  0  0  0  0
  153.5475  139.4806  160.3838 H   0  0  0  0  0  0  0  0  0  0  0  0
  154.4533  141.4704  161.5568 H   0  0  0  0  0  0  0  0  0  0  0  0
  153.6287  143.7372  160.8641 H   0  0  0  0  0  0  0  0  0  0  0  0
  1  2  1  0  0  0  0
  1 23  1  0  0  0  0
  1 24  1  0  0  0  0
  1 25  1  0  0  0  0
  2  7  1  0  0  0  0
  2  3  1  0  0  0  0
  2 26  1  0  0  0  0
  3  4  1  0  0  0  0
  3 27  1  0  0  0  0
  3 28  1  0  0  0  0
  4  5  1  0  0  0  0
  4 29  1  0  0  0  0
  4 30  1  0  0  0  0
  5  6  1  0  0  0  0
  5 31  1  0  0  0  0
  5 32  1  0  0  0  0
  6  7  1  0  0  0  0
  6 33  1  0  0  0  0
  6 34  1  0  0  0  0
  7  8  1  0  0  0  0
  7 35  1  0  0  0  0
  8  9  1  0  0  0  0
  8 36  1  0  0  0  0
  9 10  2  0  0  0  0
  9 11  1  0  0  0  0
 11 12  1  0  0  0  0
 11 37  1  0  0  0  0
 11 38  1  0  0  0  0
 12 21  1  0  0  0  0
 12 13  1  0  0  0  0
 13 14  2  0  0  0  0
 13 39  1  0  0  0  0
 14 15  1  0  0  0  0
 14 40  1  0  0  0  0
 15 16  2  0  0  0  0
 15 41  1  0  0  0  0
 16 17  1  0  0  0  0
 16 21  1  0  0  0  0
 17 18  1  0  0  0  0
 17 19  1  0  0  0  0
 17 20  1  0  0  0  0
 21 22  2  0  0  0  0
M  END
> <s_m_source_file>
AV-unprocessed.smi

> <i_m_source_file_index>
1394

> <i_lp_mmshare_version>
43012

> <i_f3d_flags>
0

> <s_epik_input>
W0NIM11bQ0BASF0xW0NIMl1bQ0gyXVtDSDJdW0NIMl1bQ0BIXTFbTkhdQyg9TylbQ0gyXW4yW2NIXVtjSF1bY0hdYyhDKEYpKEYpRiljMj1P

> <s_epik_cmdline>
J2VwaWtfcHl0aG9uJywgJy1waCcsICc3LjAnLCAnLXRuJywgJzgnLCAnLW1hJywgJzIwMCcsICctbWV0YWxfYmluZGluZycsICctaW1hZScsICc8aW5maWxlLm1hZT4nLCAnLW9tYWUnLCAnPG91dGZpbGUubWFlPic=

> <r_lp_tautomer_probability>
1

> <r_epik_Ionization_Penalty>
2.11487e-08

> <r_epik_Ionization_Penalty_Charging>
2.10183e-09

> <r_epik_Ionization_Penalty_Neutral>
1.90469e-08

> <r_epik_State_Penalty>
-0

> <r_epik_Charging_Adjusted_Penalty>
2.10183e-09

> <i_epik_Tot_Q>
0

> <i_epik_Tot_abs_Q>
0

> <r_epik_Metal_State_Penalty>
-0

> <b_epik_Metal_Only>
0

> <s_lp_Force_Field>
OPLS_2005

> <r_lp_Energy>
20.183

> <b_lp_Chiralities_Consistent>
1

> <s_lp_Variant>
AV-unprocessed.smi:1394-3

> <Gold.Version>
5.8.1

> <Gold.Id.Protein>
6NUR|6NUR_protein|mol2

> <Gold.PLP.Fitness>
49.3450

> <Gold.PLP.PLP>
-46.7842

> <Gold.PLP.part.hbond>
-0.9979

> <Gold.PLP.part.metal>
0.0000

> <Gold.PLP.part.buried>
-5.0949

> <Gold.PLP.part.nonpolar>
-41.7026

> <Gold.PLP.part.repulsive>
0.0824

> <Gold.PLP.ligand.clash>
0.3202

> <Gold.PLP.ligand.torsion>
0.2317

> <Gold.PLP.Chemscore.Hbond>
0.9913

> <Gold.PLP.Chemscore.CHOScore>
0.0000

> <Gold.PLP.Chemscore.Metal>
0.0000

> <Gold.Chemscore.Hbonds>
donor molecule, donor type, donor heavy atom, donor atom, acceptor molecule, acceptor atom, score
      P1  H  7997  8009       L1    10  1.00

> <Gold.PLP.Chemscore.Internal.Correction>
0.3707

> <Gold.Rescore>
     Score         DG    S(hbond)    S(metal)    S(lipo)     H(rot)  DE(clash)    DE(int)     intcor
     12.81     -16.12       1.00        0.00      95.84       1.52       0.27       3.05       ----

> <Gold.Chemscore.Fitness>
12.8062

> <Gold.Chemscore.DG>
-16.1243

> <Gold.Chemscore.ZeroCoef>
-5.4800

> <Gold.Chemscore.Hbond>
0.9977

> <Gold.Chemscore.Metal>
0.0000

> <Gold.Chemscore.Lipo>
95.8447

> <Gold.Chemscore.Internal_Hbond>
0.0000

> <Gold.Chemscore.DEClash>
0.2704

> <Gold.Chemscore.DEInternal>
3.0477

> <Gold.Chemscore.Rot>
1.5242

> <Gold.Chemscore.Internal.Correction>
   9.000000E+99

> <Gold.Chemscore.Hbonds>
donor molecule, donor type, donor heavy atom, donor atom, acceptor molecule, acceptor atom, score
      P1  H  7997  8009       L1    10  0.97

> <Gold.Chemscore.Hbond.Weighted>
-3.3324

> <Gold.Chemscore.Metal.Weighted>
-0.0000

> <Gold.Chemscore.Lipo.Weighted>
-11.2138

> <Gold.Chemscore.Internal_Hbond.Weighted>
0.0000

> <Gold.Chemscore.DEClash.Weighted>
0.2704

> <Gold.Chemscore.DEInternal.Weighted>
3.0477

> <Gold.Chemscore.Rot.Weighted>
3.9019

> <Gold.Chemscore.Internal.Correction.Weighted>
   9.000000E+99

> <Gold.Protein.RotatedTorsions>
[ 6907 6896 6895 6894 ] final   22.45 input  -60.11 | X-H torsion
[ 7974 7965 7964 7962 ] final  -87.48 input  175.53 | X-H torsion
[ 8008 7997 7996 7995 ] final -168.03 input   59.86 | X-H torsion
[ 10167 10162 10161 10158 ] final  170.91 input  -65.29 | X-H torsion
[ 10718 10713 10712 10709 ] final    5.79 input   66.30 | X-H torsion
[ 10763 10752 10751 10750 ] final   59.49 input  -60.55 | X-H torsion
[ 11005 11000 10999 10996 ] final  -82.53 input  -57.11 | X-H torsion

> <Gold.Protein.ActiveResidues>
 VAL166  LYS551  ARG553  GLY616  TRP617  ASP618  TYR619  PRO620  LYS621  CYS622 
 ASP623  PHE694  ASN695  SER759  ASP760  ASP761  ALA762  ILE779  LEU786  VAL792 
 PHE793  MET794  SER795  GLU796  ALA797  LYS798  CYS799  TRP800  GLU811  SER814 

> <Gold.Protein.RotatedAtoms>
  151.9273  135.0272  160.0526 H   0  0  0  0  0  0  0  0  0  0  0  0  # atno 6907 bound_to 6896
  152.2148  133.4934  159.5138 H   0  0  0  0  0  0  0  0  0  0  0  0  # atno 6908 bound_to 6896
  150.6985  134.1336  159.4121 H   0  0  0  0  0  0  0  0  0  0  0  0  # atno 6909 bound_to 6896
  145.4660  140.9560  143.1943 H   0  0  0  0  0  0  0  0  0  0  0  0  # atno 7974 bound_to 7965
  155.8858  140.1016  157.1453 H   0  0  0  0  0  0  0  0  0  0  0  0  # atno 8008 bound_to 7997
  154.4009  140.1320  156.4317 H   0  0  0  0  0  0  0  0  0  0  0  0  # atno 8009 bound_to 7997
  155.7590  140.3463  155.5191 H   0  0  0  0  0  0  0  0  0  0  0  0  # atno 8010 bound_to 7997
  139.5032  144.3544  151.9890 H   0  0  0  0  0  0  0  0  0  0  0  0  # atno 10167 bound_to 10162
  156.9126  130.5761  149.5647 H   0  0  0  0  0  0  0  0  0  0  0  0  # atno 10718 bound_to 10713
  152.9896  135.5570  154.5721 H   0  0  0  0  0  0  0  0  0  0  0  0  # atno 10763 bound_to 10752
  154.5119  135.2803  155.1337 H   0  0  0  0  0  0  0  0  0  0  0  0  # atno 10764 bound_to 10752
  154.2726  135.6360  153.5369 H   0  0  0  0  0  0  0  0  0  0  0  0  # atno 10765 bound_to 10752
  141.1662  133.7249  156.8585 H   0  0  0  0  0  0  0  0  0  0  0  0  # atno 11005 bound_to 11000
  144.7974  139.6208  143.7087 LP  0  0  0  0  0  0  0  0  0  0  0  0  # atno 17320 bound_to 7965
  146.2424  139.6028  142.9482 LP  0  0  0  0  0  0  0  0  0  0  0  0  # atno 17321 bound_to 7965
  140.2980  144.3679  150.6068 LP  0  0  0  0  0  0  0  0  0  0  0  0  # atno 17342 bound_to 10162
  140.5895  143.2168  151.7279 LP  0  0  0  0  0  0  0  0  0  0  0  0  # atno 17343 bound_to 10162
  156.0529  130.5595  150.9028 LP  0  0  0  0  0  0  0  0  0  0  0  0  # atno 17370 bound_to 10713
  157.5958  131.0943  150.9043 LP  0  0  0  0  0  0  0  0  0  0  0  0  # atno 17371 bound_to 10713
  140.1865  134.8996  157.3010 LP  0  0  0  0  0  0  0  0  0  0  0  0  # atno 17394 bound_to 11000
  140.2337  134.3878  155.7510 LP  0  0  0  0  0  0  0  0  0  0  0  0  # atno 17395 bound_to 11000

$$$$
