AV-unprocessed.smi:2746|AV-procd|sdf|10576|dock6
  -GOLD-   2272015 33D 1   1.00000     0.00000
 Structure written by MMmdl.
 38 39  0  0  0  0  0  0  0  0  3 V2000
  146.8512  139.4179  152.8524 C   0  0  0  0  0  0  0  0  0  0  0  0
  147.7331  139.6823  153.8308 C   0  0  0  0  0  0  0  0  0  0  0  0
  148.3299  141.0466  154.1308 C   0  0  1  0  0  0  0  0  0  0  0  0
  147.2147  142.0578  154.4310 C   0  0  0  0  0  0  0  0  0  0  0  0
  149.2716  141.0501  155.2500 N   0  5  0  0  0  0  0  0  0  0  0  0
  150.4056  140.2908  155.3058 C   0  0  0  0  0  0  0  0  0  0  0  0
  150.9378  139.6176  154.4160 O   0  0  0  0  0  0  0  0  0  0  0  0
  151.0644  140.3139  156.6651 C   0  0  0  0  0  0  0  0  0  0  0  0
  150.9139  141.4182  157.5374 C   0  0  0  0  0  0  0  0  0  0  0  0
  151.5421  141.4088  158.8054 C   0  0  0  0  0  0  0  0  0  0  0  0
  151.4167  142.4784  159.7025 N   0  0  0  0  0  0  0  0  0  0  0  0
  152.6173  142.7214  160.4927 C   0  0  0  0  0  0  0  0  0  0  0  0
  152.3487  143.8258  161.5297 C   0  0  0  0  0  0  0  0  0  0  0  0
  151.8892  145.0006  160.8671 O   0  0  0  0  0  0  0  0  0  0  0  0
  150.6754  144.7744  160.1557 C   0  0  0  0  0  0  0  0  0  0  0  0
  150.8987  143.6926  159.0845 C   0  0  0  0  0  0  0  0  0  0  0  0
  152.3135  140.2876  159.1762 C   0  0  0  0  0  0  0  0  0  0  0  0
  152.4367  139.2111  158.2771 C   0  0  0  0  0  0  0  0  0  0  0  0
  151.8181  139.2648  157.0792 N   0  3  0  0  0  0  0  0  0  0  0  0
  146.4869  140.1821  152.1792 H   0  0  0  0  0  0  0  0  0  0  0  0
  146.4777  138.4147  152.7110 H   0  0  0  0  0  0  0  0  0  0  0  0
  148.0600  138.8735  154.4676 H   0  0  0  0  0  0  0  0  0  0  0  0
  148.8193  141.3856  153.2159 H   0  0  0  0  0  0  0  0  0  0  0  0
  146.5093  142.1189  153.6018 H   0  0  0  0  0  0  0  0  0  0  0  0
  147.6198  143.0584  154.5873 H   0  0  0  0  0  0  0  0  0  0  0  0
  146.6525  141.7815  155.3241 H   0  0  0  0  0  0  0  0  0  0  0  0
  150.3178  142.2687  157.2397 H   0  0  0  0  0  0  0  0  0  0  0  0
  152.9227  141.8026  160.9947 H   0  0  0  0  0  0  0  0  0  0  0  0
  153.4383  143.0220  159.8407 H   0  0  0  0  0  0  0  0  0  0  0  0
  151.6124  143.4984  162.2654 H   0  0  0  0  0  0  0  0  0  0  0  0
  153.2625  144.0601  162.0756 H   0  0  0  0  0  0  0  0  0  0  0  0
  149.8852  144.4795  160.8480 H   0  0  0  0  0  0  0  0  0  0  0  0
  150.3583  145.7067  159.6885 H   0  0  0  0  0  0  0  0  0  0  0  0
  151.6021  144.0566  158.3345 H   0  0  0  0  0  0  0  0  0  0  0  0
  149.9612  143.4764  158.5704 H   0  0  0  0  0  0  0  0  0  0  0  0
  152.8044  140.2514  160.1379 H   0  0  0  0  0  0  0  0  0  0  0  0
  153.0053  138.3148  158.4766 H   0  0  0  0  0  0  0  0  0  0  0  0
  151.9133  138.4765  156.4372 H   0  0  0  0  0  0  0  0  0  0  0  0
  1  2  2  0  0  0  0
  1 20  1  0  0  0  0
  1 21  1  0  0  0  0
  2  3  1  0  0  0  0
  2 22  1  0  0  0  0
  3  4  1  0  0  0  0
  3  5  1  0  0  0  0
  3 23  1  0  0  0  0
  4 24  1  0  0  0  0
  4 25  1  0  0  0  0
  4 26  1  0  0  0  0
  5  6  1  0  0  0  0
  6  7  2  0  0  0  0
  6  8  1  0  0  0  0
  8 19  1  0  0  0  0
  8  9  2  0  0  0  0
  9 10  1  0  0  0  0
  9 27  1  0  0  0  0
 10 11  1  0  0  0  0
 10 17  2  0  0  0  0
 11 16  1  0  0  0  0
 11 12  1  0  0  0  0
 12 13  1  0  0  0  0
 12 28  1  0  0  0  0
 12 29  1  0  0  0  0
 13 14  1  0  0  0  0
 13 30  1  0  0  0  0
 13 31  1  0  0  0  0
 14 15  1  0  0  0  0
 15 16  1  0  0  0  0
 15 32  1  0  0  0  0
 15 33  1  0  0  0  0
 16 34  1  0  0  0  0
 16 35  1  0  0  0  0
 17 18  1  0  0  0  0
 17 36  1  0  0  0  0
 18 19  2  0  0  0  0
 18 37  1  0  0  0  0
 19 38  1  0  0  0  0
M  CHG  1   5  -1
M  CHG  1  19   1
M  END
> <s_m_source_file>
AV-unprocessed.smi

> <i_m_source_file_index>
2746

> <i_lp_mmshare_version>
43012

> <i_f3d_flags>
0

> <s_epik_input>
W0NIMl09W0NIXVtDQEhdKFtDSDNdKVtOSF1DKD1PKWMxW2NIXWMoW2NIXVtjSF1uMSlOMltDSDJdW0NIMl1PW0NIMl1bQ0gyXTI=

> <s_epik_cmdline>
J2VwaWtfcHl0aG9uJywgJy1waCcsICc3LjAnLCAnLXRuJywgJzgnLCAnLW1hJywgJzIwMCcsICctbWV0YWxfYmluZGluZycsICctaW1hZScsICc8aW5maWxlLm1hZT4nLCAnLW9tYWUnLCAnPG91dGZpbGUubWFlPic=

> <r_lp_tautomer_probability>
1

> <r_epik_Ionization_Penalty>
4.23471

> <r_epik_Ionization_Penalty_Charging>
4.23471

> <r_epik_Ionization_Penalty_Neutral>
3.18831e-12

> <r_epik_State_Penalty>
4.68748

> <r_epik_Charging_Adjusted_Penalty>
8.92219

> <i_epik_Tot_Q>
0

> <i_epik_Tot_abs_Q>
2

> <r_epik_Metal_State_Penalty>
1.16626

> <b_epik_Metal_Only>
1

> <s_lp_Force_Field>
OPLS_2005

> <r_lp_Energy>
17.3094

> <b_lp_Chiralities_Consistent>
1

> <s_lp_Variant>
AV-unprocessed.smi:2746-6

> <Gold.Version>
5.8.1

> <Gold.Id.Protein>
6NUR|6NUR_protein|mol2

> <Gold.PLP.Fitness>
39.8062

> <Gold.PLP.PLP>
-38.3640

> <Gold.PLP.part.hbond>
-1.4719

> <Gold.PLP.part.metal>
0.0000

> <Gold.PLP.part.buried>
-5.5705

> <Gold.PLP.part.nonpolar>
-32.2665

> <Gold.PLP.part.repulsive>
0.5158

> <Gold.PLP.ligand.clash>
0.0000

> <Gold.PLP.ligand.torsion>
0.8791

> <Gold.PLP.Chemscore.Hbond>
1.0000

> <Gold.PLP.Chemscore.CHOScore>
0.0000

> <Gold.PLP.Chemscore.Metal>
0.0000

> <Gold.Chemscore.Hbonds>
donor molecule, donor type, donor heavy atom, donor atom, acceptor molecule, acceptor atom, score
      P1  H  7989  7998       L1     7  1.00

> <Gold.PLP.Chemscore.Internal.Correction>
0.2004

> <Gold.Rescore>
     Score         DG    S(hbond)    S(metal)    S(lipo)     H(rot)  DE(clash)    DE(int)     intcor
     15.27     -16.23       0.86        0.00      95.25       1.27       0.03       0.93       ----

> <Gold.Chemscore.Fitness>
15.2700

> <Gold.Chemscore.DG>
-16.2298

> <Gold.Chemscore.ZeroCoef>
-5.4800

> <Gold.Chemscore.Hbond>
0.8585

> <Gold.Chemscore.Metal>
0.0000

> <Gold.Chemscore.Lipo>
95.2511

> <Gold.Chemscore.Internal_Hbond>
0.0000

> <Gold.Chemscore.DEClash>
0.0318

> <Gold.Chemscore.DEInternal>
0.9280

> <Gold.Chemscore.Rot>
1.2742

> <Gold.Chemscore.Internal.Correction>
   9.000000E+99

> <Gold.Chemscore.Hbonds>
donor molecule, donor type, donor heavy atom, donor atom, acceptor molecule, acceptor atom, score
      P1  H  7989  7998       L1     7  0.26

> <Gold.Chemscore.Hbond.Weighted>
-2.8673

> <Gold.Chemscore.Metal.Weighted>
-0.0000

> <Gold.Chemscore.Lipo.Weighted>
-11.1444

> <Gold.Chemscore.Internal_Hbond.Weighted>
0.0000

> <Gold.Chemscore.DEClash.Weighted>
0.0318

> <Gold.Chemscore.DEInternal.Weighted>
0.9280

> <Gold.Chemscore.Rot.Weighted>
3.2619

> <Gold.Chemscore.Internal.Correction.Weighted>
   9.000000E+99

> <Gold.Protein.RotatedTorsions>
[ 6907 6896 6895 6894 ] final  -81.89 input  -60.11 | X-H torsion
[ 7974 7965 7964 7962 ] final   58.02 input  175.53 | X-H torsion
[ 8008 7997 7996 7995 ] final  -18.80 input   59.86 | X-H torsion
[ 10167 10162 10161 10158 ] final   47.86 input  -65.29 | X-H torsion
[ 10718 10713 10712 10709 ] final  135.17 input   66.30 | X-H torsion
[ 10763 10752 10751 10750 ] final   70.32 input  -60.55 | X-H torsion
[ 11005 11000 10999 10996 ] final  170.66 input  -57.11 | X-H torsion

> <Gold.Protein.ActiveResidues>
 VAL166  LYS551  ARG553  GLY616  TRP617  ASP618  TYR619  PRO620  LYS621  CYS622 
 ASP623  PHE694  ASN695  SER759  ASP760  ASP761  ALA762  ILE779  LEU786  VAL792 
 PHE793  MET794  SER795  GLU796  ALA797  LYS798  CYS799  TRP800  GLU811  SER814 

> <Gold.Protein.RotatedAtoms>
  150.6905  134.3748  159.5007 H   0  0  0  0  0  0  0  0  0  0  0  0  # atno 6907 bound_to 6896
  152.1559  134.8949  160.0554 H   0  0  0  0  0  0  0  0  0  0  0  0  # atno 6908 bound_to 6896
  152.0029  133.3797  159.4226 H   0  0  0  0  0  0  0  0  0  0  0  0  # atno 6909 bound_to 6896
  145.9227  139.3743  143.0468 H   0  0  0  0  0  0  0  0  0  0  0  0  # atno 7974 bound_to 7965
  154.4881  140.2106  155.9610 H   0  0  0  0  0  0  0  0  0  0  0  0  # atno 8008 bound_to 7997
  156.1265  140.3204  155.8254 H   0  0  0  0  0  0  0  0  0  0  0  0  # atno 8009 bound_to 7997
  155.4374  140.0507  157.3004 H   0  0  0  0  0  0  0  0  0  0  0  0  # atno 8010 bound_to 7997
  140.2993  144.2953  150.6222 H   0  0  0  0  0  0  0  0  0  0  0  0  # atno 10167 bound_to 10162
  157.4598  131.1072  150.9934 H   0  0  0  0  0  0  0  0  0  0  0  0  # atno 10718 bound_to 10713
  153.0335  135.5178  154.7424 H   0  0  0  0  0  0  0  0  0  0  0  0  # atno 10763 bound_to 10752
  154.6419  135.2913  155.0095 H   0  0  0  0  0  0  0  0  0  0  0  0  # atno 10764 bound_to 10752
  154.1010  135.6636  153.4921 H   0  0  0  0  0  0  0  0  0  0  0  0  # atno 10765 bound_to 10752
  140.3107  134.7519  157.3989 H   0  0  0  0  0  0  0  0  0  0  0  0  # atno 11005 bound_to 11000
  145.8529  140.9519  143.0740 LP  0  0  0  0  0  0  0  0  0  0  0  0  # atno 17320 bound_to 7965
  144.6755  140.0430  143.7480 LP  0  0  0  0  0  0  0  0  0  0  0  0  # atno 17321 bound_to 7965
  140.5665  143.2185  151.7674 LP  0  0  0  0  0  0  0  0  0  0  0  0  # atno 17342 bound_to 10162
  139.4919  144.4276  151.9908 LP  0  0  0  0  0  0  0  0  0  0  0  0  # atno 17343 bound_to 10162
  157.0735  130.5874  149.5407 LP  0  0  0  0  0  0  0  0  0  0  0  0  # atno 17370 bound_to 10713
  156.0023  130.5104  150.7708 LP  0  0  0  0  0  0  0  0  0  0  0  0  # atno 17371 bound_to 10713
  140.1027  134.5450  155.8337 LP  0  0  0  0  0  0  0  0  0  0  0  0  # atno 17394 bound_to 11000
  141.2109  133.6700  156.6541 LP  0  0  0  0  0  0  0  0  0  0  0  0  # atno 17395 bound_to 11000

$$$$
