AV-unprocessed.smi:861|AV-procd|sdf|3972|dock1
  -GOLD-   22720 1443D 1   1.00000     0.00000
 Structure written by MMmdl.
 45 46  0  0  0  0  0  0  0  0  3 V2000
  143.8844  133.8540  151.4372 C   0  0  0  0  0  0  0  0  0  0  0  0
  145.2171  134.4311  150.9291 C   0  0  0  0  0  0  0  0  0  0  0  0
  146.2965  133.3373  150.9096 C   0  0  0  0  0  0  0  0  0  0  0  0
  145.6889  135.6484  151.7519 C   0  0  0  0  0  0  0  0  0  0  0  0
  144.6681  136.8029  151.8059 C   0  0  0  0  0  0  0  0  0  0  0  0
  145.0496  137.8599  152.7777 N   0  3  1  0  0  0  0  0  0  0  0  0
  144.7392  137.5115  154.1865 C   0  0  0  0  0  0  0  0  0  0  0  0
  145.1399  138.6595  155.1259 C   0  0  0  0  0  0  0  0  0  0  0  0
  146.5203  138.9537  154.9555 O   0  0  0  0  0  0  0  0  0  0  0  0
  146.8247  139.3892  153.6358 C   0  0  1  0  0  0  0  0  0  0  0  0
  148.3202  139.7580  153.6160 C   0  0  0  0  0  0  0  0  0  0  0  0
  149.1967  138.5961  153.6840 N   0  0  0  0  0  0  0  0  0  0  0  0
  150.2277  138.4976  154.6296 C   0  0  0  0  0  0  0  0  0  0  0  0
  150.5242  139.4849  155.5988 C   0  0  0  0  0  0  0  0  0  0  0  0
  151.5894  139.2504  156.4852 C   0  0  0  0  0  0  0  0  0  0  0  0
  152.2951  138.0418  156.3513 C   0  0  0  0  0  0  0  0  0  0  0  0
  151.9958  137.1101  155.4191 N   0  0  0  0  0  0  0  0  0  0  0  0
  150.9713  137.3636  154.5860 N   0  3  0  0  0  0  0  0  0  0  0  0
  146.4735  138.2559  152.6475 C   0  0  0  0  0  0  0  0  0  0  0  0
  143.9581  133.5451  152.4806 H   0  0  0  0  0  0  0  0  0  0  0  0
  143.5911  132.9797  150.8552 H   0  0  0  0  0  0  0  0  0  0  0  0
  143.0718  134.5753  151.3580 H   0  0  0  0  0  0  0  0  0  0  0  0
  145.0706  134.7554  149.8979 H   0  0  0  0  0  0  0  0  0  0  0  0
  146.5030  132.9660  151.9142 H   0  0  0  0  0  0  0  0  0  0  0  0
  147.2322  133.7126  150.4942 H   0  0  0  0  0  0  0  0  0  0  0  0
  145.9869  132.4888  150.2984 H   0  0  0  0  0  0  0  0  0  0  0  0
  145.9409  135.3300  152.7644 H   0  0  0  0  0  0  0  0  0  0  0  0
  146.6163  136.0123  151.3109 H   0  0  0  0  0  0  0  0  0  0  0  0
  144.5281  137.2425  150.8172 H   0  0  0  0  0  0  0  0  0  0  0  0
  143.7008  136.3984  152.1035 H   0  0  0  0  0  0  0  0  0  0  0  0
  143.6762  137.3095  154.3095 H   0  0  0  0  0  0  0  0  0  0  0  0
  145.2724  136.6012  154.4647 H   0  0  0  0  0  0  0  0  0  0  0  0
  144.5379  139.5498  154.9365 H   0  0  0  0  0  0  0  0  0  0  0  0
  144.9657  138.3724  156.1631 H   0  0  0  0  0  0  0  0  0  0  0  0
  146.2276  140.2751  153.4125 H   0  0  0  0  0  0  0  0  0  0  0  0
  148.5562  140.3393  152.7243 H   0  0  0  0  0  0  0  0  0  0  0  0
  148.5488  140.4066  154.4620 H   0  0  0  0  0  0  0  0  0  0  0  0
  149.0139  137.8191  153.0647 H   0  0  0  0  0  0  0  0  0  0  0  0
  149.9619  140.4032  155.6744 H   0  0  0  0  0  0  0  0  0  0  0  0
  151.8576  139.9711  157.2439 H   0  0  0  0  0  0  0  0  0  0  0  0
  153.1216  137.8145  157.0085 H   0  0  0  0  0  0  0  0  0  0  0  0
  147.1086  137.3867  152.8282 H   0  0  0  0  0  0  0  0  0  0  0  0
  146.6655  138.5856  151.6257 H   0  0  0  0  0  0  0  0  0  0  0  0
  144.5030  138.6772  152.5459 H   0  0  0  0  0  0  0  0  0  0  0  0
  150.7385  136.6620  153.8827 H   0  0  0  0  0  0  0  0  0  0  0  0
  1  2  1  0  0  0  0
  1 20  1  0  0  0  0
  1 21  1  0  0  0  0
  1 22  1  0  0  0  0
  2  3  1  0  0  0  0
  2  4  1  0  0  0  0
  2 23  1  0  0  0  0
  3 24  1  0  0  0  0
  3 25  1  0  0  0  0
  3 26  1  0  0  0  0
  4  5  1  0  0  0  0
  4 27  1  0  0  0  0
  4 28  1  0  0  0  0
  5  6  1  0  0  0  0
  5 29  1  0  0  0  0
  5 30  1  0  0  0  0
  6 19  1  0  0  0  0
  6  7  1  0  0  0  0
  6 44  1  0  0  0  0
  7  8  1  0  0  0  0
  7 31  1  0  0  0  0
  7 32  1  0  0  0  0
  8  9  1  0  0  0  0
  8 33  1  0  0  0  0
  8 34  1  0  0  0  0
  9 10  1  0  0  0  0
 10 11  1  0  0  0  0
 10 19  1  0  0  0  0
 10 35  1  0  0  0  0
 11 12  1  0  0  0  0
 11 36  1  0  0  0  0
 11 37  1  0  0  0  0
 12 13  1  0  0  0  0
 12 38  1  0  0  0  0
 13 18  1  0  0  0  0
 13 14  2  0  0  0  0
 14 15  1  0  0  0  0
 14 39  1  0  0  0  0
 15 16  2  0  0  0  0
 15 40  1  0  0  0  0
 16 17  1  0  0  0  0
 16 41  1  0  0  0  0
 17 18  2  0  0  0  0
 18 45  1  0  0  0  0
 19 42  1  0  0  0  0
 19 43  1  0  0  0  0
M  CHG  1   6   1
M  CHG  1  18   1
M  END
> <s_m_source_file>
AV-unprocessed.smi

> <i_m_source_file_index>
861

> <i_lp_mmshare_version>
43012

> <i_f3d_flags>
0

> <s_epik_input>
W0NIM11bQ0hdKFtDSDNdKVtDSDJdW0NIMl1OMVtDSDJdW0NIMl1PW0NASF0oW0NIMl0xKVtDSDJdW05IXWMyW2NIXVtjSF1bY0hdbm4y

> <s_epik_cmdline>
J2VwaWtfcHl0aG9uJywgJy1waCcsICc3LjAnLCAnLXRuJywgJzgnLCAnLW1hJywgJzIwMCcsICctbWV0YWxfYmluZGluZycsICctaW1hZScsICc8aW5maWxlLm1hZT4nLCAnLW9tYWUnLCAnPG91dGZpbGUubWFlPic=

> <r_lp_tautomer_probability>
0.966961

> <r_epik_Ionization_Penalty>
2.478

> <r_epik_Ionization_Penalty_Charging>
2.47799

> <r_epik_Ionization_Penalty_Neutral>
3.15286e-06

> <r_epik_State_Penalty>
2.10794

> <r_epik_Charging_Adjusted_Penalty>
4.58594

> <i_epik_Tot_Q>
2

> <i_epik_Tot_abs_Q>
2

> <r_epik_Metal_State_Penalty>
2.11378

> <b_epik_Metal_Only>
0

> <s_lp_Force_Field>
OPLS_2005

> <r_lp_Energy>
34.6119

> <b_lp_Chiralities_Consistent>
1

> <s_lp_Variant>
AV-unprocessed.smi:861-7

> <Gold.Version>
5.8.1

> <Gold.Id.Protein>
6NUR|6NUR_protein|mol2

> <Gold.PLP.Fitness>
50.8958

> <Gold.PLP.PLP>
-31.8338

> <Gold.PLP.part.hbond>
-5.3811

> <Gold.PLP.part.metal>
0.0000

> <Gold.PLP.part.buried>
3.4235

> <Gold.PLP.part.nonpolar>
-30.2053

> <Gold.PLP.part.repulsive>
0.3961

> <Gold.PLP.ligand.clash>
0.0000

> <Gold.PLP.ligand.torsion>
0.2567

> <Gold.PLP.Chemscore.Hbond>
6.4928

> <Gold.PLP.Chemscore.CHOScore>
0.0000

> <Gold.PLP.Chemscore.Metal>
0.0000

> <Gold.Chemscore.Hbonds>
donor molecule, donor type, donor heavy atom, donor atom, acceptor molecule, acceptor atom, score
      L1  H     6    44       P1 10175  2.00
      L1  H    12    38       P1  7948  2.00
      P1  H 10752 10765       L1    17  0.91

> <Gold.PLP.Chemscore.Internal.Correction>
0.0969

> <Gold.Rescore>
     Score         DG    S(hbond)    S(metal)    S(lipo)     H(rot)  DE(clash)    DE(int)     intcor
     16.06     -19.42       2.89        0.00      75.51       1.78       3.12       0.24       ----

> <Gold.Chemscore.Fitness>
16.0606

> <Gold.Chemscore.DG>
-19.4233

> <Gold.Chemscore.ZeroCoef>
-5.4800

> <Gold.Chemscore.Hbond>
2.8907

> <Gold.Chemscore.Metal>
0.0000

> <Gold.Chemscore.Lipo>
75.5092

> <Gold.Chemscore.Internal_Hbond>
0.0000

> <Gold.Chemscore.DEClash>
3.1216

> <Gold.Chemscore.DEInternal>
0.2410

> <Gold.Chemscore.Rot>
1.7759

> <Gold.Chemscore.Internal.Correction>
   9.000000E+99

> <Gold.Chemscore.Hbonds>
donor molecule, donor type, donor heavy atom, donor atom, acceptor molecule, acceptor atom, score
      L1  H     6    44       P1 10175  0.99
      L1  H    12    38       P1  7948  0.98
      P1  H 10752 10765       L1    17  0.40

> <Gold.Chemscore.Hbond.Weighted>
-9.6549

> <Gold.Chemscore.Metal.Weighted>
-0.0000

> <Gold.Chemscore.Lipo.Weighted>
-8.8346

> <Gold.Chemscore.Internal_Hbond.Weighted>
0.0000

> <Gold.Chemscore.DEClash.Weighted>
3.1216

> <Gold.Chemscore.DEInternal.Weighted>
0.2410

> <Gold.Chemscore.Rot.Weighted>
4.5462

> <Gold.Chemscore.Internal.Correction.Weighted>
   9.000000E+99

> <Gold.Protein.RotatedTorsions>
[ 6907 6896 6895 6894 ] final    6.22 input  -60.11 | X-H torsion
[ 7974 7965 7964 7962 ] final -179.67 input  175.53 | X-H torsion
[ 8008 7997 7996 7995 ] final  -81.82 input   59.86 | X-H torsion
[ 10167 10162 10161 10158 ] final -141.23 input  -65.29 | X-H torsion
[ 10718 10713 10712 10709 ] final  -76.31 input   66.30 | X-H torsion
[ 10763 10752 10751 10750 ] final  177.88 input  -60.55 | X-H torsion
[ 11005 11000 10999 10996 ] final -164.99 input  -57.11 | X-H torsion

> <Gold.Protein.ActiveResidues>
 VAL166  LYS551  ARG553  GLY616  TRP617  ASP618  TYR619  PRO620  LYS621  CYS622 
 ASP623  PHE694  ASN695  SER759  ASP760  ASP761  ALA762  ILE779  LEU786  VAL792 
 PHE793  MET794  SER795  GLU796  ALA797  LYS798  CYS799  TRP800  GLU811  SER814 

> <Gold.Protein.RotatedAtoms>
  151.6701  135.0977  160.0196 H   0  0  0  0  0  0  0  0  0  0  0  0  # atno 6907 bound_to 6896
  152.3896  133.6656  159.6235 H   0  0  0  0  0  0  0  0  0  0  0  0  # atno 6908 bound_to 6896
  150.7814  133.8893  159.3350 H   0  0  0  0  0  0  0  0  0  0  0  0  # atno 6909 bound_to 6896
  144.7138  140.0683  143.6430 H   0  0  0  0  0  0  0  0  0  0  0  0  # atno 7974 bound_to 7965
  154.6023  140.0642  156.9384 H   0  0  0  0  0  0  0  0  0  0  0  0  # atno 8008 bound_to 7997
  155.2112  140.3323  155.4310 H   0  0  0  0  0  0  0  0  0  0  0  0  # atno 8009 bound_to 7997
  156.2326  140.1848  156.7188 H   0  0  0  0  0  0  0  0  0  0  0  0  # atno 8010 bound_to 7997
  139.8204  143.7581  152.2666 H   0  0  0  0  0  0  0  0  0  0  0  0  # atno 10167 bound_to 10162
  156.0179  130.4462  150.3174 H   0  0  0  0  0  0  0  0  0  0  0  0  # atno 10718 bound_to 10713
  154.5003  135.2783  155.1426 H   0  0  0  0  0  0  0  0  0  0  0  0  # atno 10763 bound_to 10752
  154.3062  135.6238  153.5449 H   0  0  0  0  0  0  0  0  0  0  0  0  # atno 10764 bound_to 10752
  152.9901  135.5708  154.5445 H   0  0  0  0  0  0  0  0  0  0  0  0  # atno 10765 bound_to 10752
  140.5807  134.5145  157.5178 H   0  0  0  0  0  0  0  0  0  0  0  0  # atno 11005 bound_to 11000
  145.9805  139.2937  143.1045 LP  0  0  0  0  0  0  0  0  0  0  0  0  # atno 17320 bound_to 7965
  145.9016  140.9239  143.0500 LP  0  0  0  0  0  0  0  0  0  0  0  0  # atno 17321 bound_to 7965
  139.7758  144.7461  151.0159 LP  0  0  0  0  0  0  0  0  0  0  0  0  # atno 17342 bound_to 10162
  140.7813  143.4596  151.0297 LP  0  0  0  0  0  0  0  0  0  0  0  0  # atno 17343 bound_to 10162
  157.1275  131.0263  151.2983 LP  0  0  0  0  0  0  0  0  0  0  0  0  # atno 17370 bound_to 10713
  157.4578  130.7635  149.7208 LP  0  0  0  0  0  0  0  0  0  0  0  0  # atno 17371 bound_to 10713
  139.9319  134.7948  156.0909 LP  0  0  0  0  0  0  0  0  0  0  0  0  # atno 17394 bound_to 11000
  141.0998  133.6681  156.2728 LP  0  0  0  0  0  0  0  0  0  0  0  0  # atno 17395 bound_to 11000

$$$$
