AV-unprocessed.smi:1762|AV-procd|sdf|7117|dock8
  -GOLD-   22720 8343D 1   1.00000     0.00000
 Structure written by MMmdl.
 53 54  0  0  0  0  0  0  0  0  2 V2000
  145.8930  132.7568  150.5137 C   0  0  0  0  0  0  0  0  0  0  0  0
  146.3442  133.7257  151.6123 C   0  0  2  0  0  0  0  0  0  0  0  0
  147.6495  133.2694  152.2887 C   0  0  0  0  0  0  0  0  0  0  0  0
  148.0396  134.1980  153.3888 N   0  3  2  0  0  0  0  0  0  0  0  0
  149.3629  133.8466  154.0112 C   0  0  1  0  0  0  0  0  0  0  0  0
  149.8534  134.9744  154.9452 C   0  0  0  0  0  0  0  0  0  0  0  0
  149.4620  135.0259  156.1120 O   0  0  0  0  0  0  0  0  0  0  0  0
  150.7072  135.8653  154.4188 N   0  0  0  0  0  0  0  0  0  0  0  0
  151.2876  136.9898  155.1411 C   0  0  0  0  0  0  0  0  0  0  0  0
  150.9861  138.3081  154.4152 C   0  0  0  0  0  0  0  0  0  0  0  0
  150.9560  139.4927  155.3629 C   0  0  0  0  0  0  0  0  0  0  0  0
  151.4959  139.3900  156.6627 C   0  0  0  0  0  0  0  0  0  0  0  0
  151.4506  140.5221  157.4993 C   0  0  0  0  0  0  0  0  0  0  0  0
  150.8715  141.7070  157.0061 C   0  0  0  0  0  0  0  0  0  0  0  0
  150.3604  141.7072  155.6930 C   0  0  0  0  0  0  0  0  0  0  0  0
  150.3981  140.6271  154.8830 N   0  0  0  0  0  0  0  0  0  0  0  0
  149.3809  132.4677  154.7548 C   0  0  0  0  0  0  0  0  0  0  0  0
  150.5682  132.2933  155.7250 C   0  0  0  0  0  0  0  0  0  0  0  0
  149.2963  131.2592  153.8015 C   0  0  0  0  0  0  0  0  0  0  0  0
  146.9011  134.3204  154.3415 C   0  0  0  0  0  0  0  0  0  0  0  0
  145.6075  134.7333  153.6133 C   0  0  2  0  0  0  0  0  0  0  0  0
  144.4051  134.7904  154.5622 C   0  0  0  0  0  0  0  0  0  0  0  0
  145.3179  133.7882  152.5928 O   0  0  0  0  0  0  0  0  0  0  0  0
  146.6441  132.6761  149.7274 H   0  0  0  0  0  0  0  0  0  0  0  0
  144.9654  133.0963  150.0521 H   0  0  0  0  0  0  0  0  0  0  0  0
  145.7190  131.7577  150.9145 H   0  0  0  0  0  0  0  0  0  0  0  0
  146.4843  134.7127  151.1678 H   0  0  0  0  0  0  0  0  0  0  0  0
  147.5289  132.2625  152.6920 H   0  0  0  0  0  0  0  0  0  0  0  0
  148.4250  133.2097  151.5257 H   0  0  0  0  0  0  0  0  0  0  0  0
  150.0742  133.7703  153.1861 H   0  0  0  0  0  0  0  0  0  0  0  0
  150.9827  135.7514  153.4540 H   0  0  0  0  0  0  0  0  0  0  0  0
  150.8740  137.0107  156.1503 H   0  0  0  0  0  0  0  0  0  0  0  0
  152.3675  136.8630  155.2378 H   0  0  0  0  0  0  0  0  0  0  0  0
  151.7383  138.4907  153.6461 H   0  0  0  0  0  0  0  0  0  0  0  0
  150.0283  138.2387  153.8977 H   0  0  0  0  0  0  0  0  0  0  0  0
  151.9357  138.4677  157.0128 H   0  0  0  0  0  0  0  0  0  0  0  0
  151.8540  140.4825  158.5002 H   0  0  0  0  0  0  0  0  0  0  0  0
  150.8202  142.5948  157.6193 H   0  0  0  0  0  0  0  0  0  0  0  0
  149.9103  142.5989  155.2822 H   0  0  0  0  0  0  0  0  0  0  0  0
  148.4664  132.3940  155.3412 H   0  0  0  0  0  0  0  0  0  0  0  0
  151.5178  132.2300  155.1931 H   0  0  0  0  0  0  0  0  0  0  0  0
  150.4620  131.3762  156.3052 H   0  0  0  0  0  0  0  0  0  0  0  0
  150.6433  133.1172  156.4342 H   0  0  0  0  0  0  0  0  0  0  0  0
  150.2074  131.1311  153.2165 H   0  0  0  0  0  0  0  0  0  0  0  0
  148.4626  131.3624  153.1065 H   0  0  0  0  0  0  0  0  0  0  0  0
  149.1414  130.3354  154.3596 H   0  0  0  0  0  0  0  0  0  0  0  0
  146.7597  133.3719  154.8624 H   0  0  0  0  0  0  0  0  0  0  0  0
  147.0959  135.0791  155.0965 H   0  0  0  0  0  0  0  0  0  0  0  0
  145.7390  135.7194  153.1639 H   0  0  0  0  0  0  0  0  0  0  0  0
  144.5708  135.5102  155.3641 H   0  0  0  0  0  0  0  0  0  0  0  0
  144.2156  133.8183  155.0189 H   0  0  0  0  0  0  0  0  0  0  0  0
  143.5021  135.0899  154.0299 H   0  0  0  0  0  0  0  0  0  0  0  0
  148.1621  135.1098  152.9711 H   0  0  0  0  0  0  0  0  0  0  0  0
  1  2  1  0  0  0  0
  1 24  1  0  0  0  0
  1 25  1  0  0  0  0
  1 26  1  0  0  0  0
  2 23  1  0  0  0  0
  2  3  1  0  0  0  0
  2 27  1  0  0  0  0
  3  4  1  0  0  0  0
  3 28  1  0  0  0  0
  3 29  1  0  0  0  0
  4  5  1  0  0  0  0
  4 20  1  0  0  0  0
  4 53  1  0  0  0  0
  5  6  1  0  0  0  0
  5 17  1  0  0  0  0
  5 30  1  0  0  0  0
  6  7  2  0  0  0  0
  6  8  1  0  0  0  0
  8  9  1  0  0  0  0
  8 31  1  0  0  0  0
  9 10  1  0  0  0  0
  9 32  1  0  0  0  0
  9 33  1  0  0  0  0
 10 11  1  0  0  0  0
 10 34  1  0  0  0  0
 10 35  1  0  0  0  0
 11 16  1  0  0  0  0
 11 12  2  0  0  0  0
 12 13  1  0  0  0  0
 12 36  1  0  0  0  0
 13 14  2  0  0  0  0
 13 37  1  0  0  0  0
 14 15  1  0  0  0  0
 14 38  1  0  0  0  0
 15 16  2  0  0  0  0
 15 39  1  0  0  0  0
 17 18  1  0  0  0  0
 17 19  1  0  0  0  0
 17 40  1  0  0  0  0
 18 41  1  0  0  0  0
 18 42  1  0  0  0  0
 18 43  1  0  0  0  0
 19 44  1  0  0  0  0
 19 45  1  0  0  0  0
 19 46  1  0  0  0  0
 20 21  1  0  0  0  0
 20 47  1  0  0  0  0
 20 48  1  0  0  0  0
 21 22  1  0  0  0  0
 21 23  1  0  0  0  0
 21 49  1  0  0  0  0
 22 50  1  0  0  0  0
 22 51  1  0  0  0  0
 22 52  1  0  0  0  0
M  CHG  1   4   1
M  END
> <s_m_source_file>
AV-unprocessed.smi

> <i_m_source_file_index>
1762

> <i_lp_mmshare_version>
43012

> <i_f3d_flags>
0

> <s_epik_input>
W0NIM11bQ0BASF0xW0NIMl1OKFtDSDJdW0NASF0oTzEpW0NIM10pW0NAQEhdKFtDSF0oW0NIM10pW0NIM10pQyg9TylbTkhdW0NIMl1bQ0gyXWMyW2NIXVtjSF1bY0hdW2NIXW4y

> <s_epik_cmdline>
J2VwaWtfcHl0aG9uJywgJy1waCcsICc3LjAnLCAnLXRuJywgJzgnLCAnLW1hJywgJzIwMCcsICctbWV0YWxfYmluZGluZycsICctaW1hZScsICc8aW5maWxlLm1hZT4nLCAnLW9tYWUnLCAnPG91dGZpbGUubWFlPic=

> <r_epik_Ionization_Penalty>
2.27005

> <r_epik_Ionization_Penalty_Charging>
2.24983

> <r_epik_Ionization_Penalty_Neutral>
0.0202209

> <r_epik_State_Penalty>
2.40228

> <r_epik_Charging_Adjusted_Penalty>
4.65211

> <i_epik_Tot_Q>
1

> <i_epik_Tot_abs_Q>
1

> <r_epik_Metal_State_Penalty>
2.40762

> <b_epik_Metal_Only>
0

> <s_lp_Force_Field>
OPLS_2005

> <r_lp_Energy>
21.958

> <b_lp_Chiralities_Consistent>
1

> <s_lp_Variant>
AV-unprocessed.smi:1762-19

> <Gold.Version>
5.8.1

> <Gold.Id.Protein>
6NUR|6NUR_protein|mol2

> <Gold.PLP.Fitness>
51.6044

> <Gold.PLP.PLP>
-39.7326

> <Gold.PLP.part.hbond>
-3.8127

> <Gold.PLP.part.metal>
0.0000

> <Gold.PLP.part.buried>
-3.3375

> <Gold.PLP.part.nonpolar>
-31.6814

> <Gold.PLP.part.repulsive>
0.2937

> <Gold.PLP.ligand.clash>
0.0000

> <Gold.PLP.ligand.torsion>
1.2391

> <Gold.PLP.Chemscore.Hbond>
3.6996

> <Gold.PLP.Chemscore.CHOScore>
1.0000

> <Gold.PLP.Chemscore.Metal>
0.0000

> <Gold.Chemscore.Hbonds>
donor molecule, donor type, donor heavy atom, donor atom, acceptor molecule, acceptor atom, score
      L1  H     4    53       P1  7948  2.00
      L1  H     8    31       P1  7949  0.80
      P1  H  7989  7998       L1    16  0.79
      L1  C    15    39       P1  8028  1.00

> <Gold.PLP.Chemscore.Internal.Correction>
0.2512

> <Gold.Rescore>
     Score         DG    S(hbond)    S(metal)    S(lipo)     H(rot)  DE(clash)    DE(int)     intcor
     14.87     -17.88       1.70        0.00      93.88       1.66       0.40       2.61       ----

> <Gold.Chemscore.Fitness>
14.8694

> <Gold.Chemscore.DG>
-17.8785

> <Gold.Chemscore.ZeroCoef>
-5.4800

> <Gold.Chemscore.Hbond>
1.6985

> <Gold.Chemscore.Metal>
0.0000

> <Gold.Chemscore.Lipo>
93.8801

> <Gold.Chemscore.Internal_Hbond>
0.0000

> <Gold.Chemscore.DEClash>
0.3972

> <Gold.Chemscore.DEInternal>
2.6119

> <Gold.Chemscore.Rot>
1.6635

> <Gold.Chemscore.Internal.Correction>
   9.000000E+99

> <Gold.Chemscore.Hbonds>
donor molecule, donor type, donor heavy atom, donor atom, acceptor molecule, acceptor atom, score
      L1  H     4    53       P1  7948  0.91
      L1  H     8    31       P1  7949  0.12
      P1  H  7989  7998       L1    16  0.10

> <Gold.Chemscore.Hbond.Weighted>
-5.6732

> <Gold.Chemscore.Metal.Weighted>
-0.0000

> <Gold.Chemscore.Lipo.Weighted>
-10.9840

> <Gold.Chemscore.Internal_Hbond.Weighted>
0.0000

> <Gold.Chemscore.DEClash.Weighted>
0.3972

> <Gold.Chemscore.DEInternal.Weighted>
2.6119

> <Gold.Chemscore.Rot.Weighted>
4.2586

> <Gold.Chemscore.Internal.Correction.Weighted>
   9.000000E+99

> <Gold.Protein.RotatedTorsions>
[ 6907 6896 6895 6894 ] final -161.41 input  -60.11 | X-H torsion
[ 7974 7965 7964 7962 ] final  173.90 input  175.53 | X-H torsion
[ 8008 7997 7996 7995 ] final   -3.47 input   59.86 | X-H torsion
[ 10167 10162 10161 10158 ] final  118.22 input  -65.29 | X-H torsion
[ 10718 10713 10712 10709 ] final   79.96 input   66.30 | X-H torsion
[ 10763 10752 10751 10750 ] final  -74.93 input  -60.55 | X-H torsion
[ 11005 11000 10999 10996 ] final   64.14 input  -57.11 | X-H torsion

> <Gold.Protein.ActiveResidues>
 VAL166  LYS551  ARG553  GLY616  TRP617  ASP618  TYR619  PRO620  LYS621  CYS622 
 ASP623  PHE694  ASN695  SER759  ASP760  ASP761  ALA762  ILE779  LEU786  VAL792 
 PHE793  MET794  SER795  GLU796  ALA797  LYS798  CYS799  TRP800  GLU811  SER814 

> <Gold.Protein.RotatedAtoms>
  151.3642  133.3878  159.2692 H   0  0  0  0  0  0  0  0  0  0  0  0  # atno 6907 bound_to 6896
  150.9701  134.9077  159.7793 H   0  0  0  0  0  0  0  0  0  0  0  0  # atno 6908 bound_to 6896
  152.5181  134.3604  159.9335 H   0  0  0  0  0  0  0  0  0  0  0  0  # atno 6909 bound_to 6896
  144.7233  139.9717  143.6437 H   0  0  0  0  0  0  0  0  0  0  0  0  # atno 7974 bound_to 7965
  154.6246  140.2508  155.7507 H   0  0  0  0  0  0  0  0  0  0  0  0  # atno 8008 bound_to 7997
  156.2446  140.2919  156.0489 H   0  0  0  0  0  0  0  0  0  0  0  0  # atno 8009 bound_to 7997
  155.1842  140.0390  157.2878 H   0  0  0  0  0  0  0  0  0  0  0  0  # atno 8010 bound_to 7997
  139.6126  144.7085  151.2810 H   0  0  0  0  0  0  0  0  0  0  0  0  # atno 10167 bound_to 10162
  157.6792  130.9938  150.2008 H   0  0  0  0  0  0  0  0  0  0  0  0  # atno 10718 bound_to 10713
  154.4797  135.5848  153.6380 H   0  0  0  0  0  0  0  0  0  0  0  0  # atno 10763 bound_to 10752
  152.9846  135.6087  154.3262 H   0  0  0  0  0  0  0  0  0  0  0  0  # atno 10764 bound_to 10752
  154.3152  135.2844  155.2526 H   0  0  0  0  0  0  0  0  0  0  0  0  # atno 10765 bound_to 10752
  139.9978  134.6489  155.9981 H   0  0  0  0  0  0  0  0  0  0  0  0  # atno 11005 bound_to 11000
  146.0558  139.3555  143.0612 LP  0  0  0  0  0  0  0  0  0  0  0  0  # atno 17320 bound_to 7965
  145.8157  140.9704  143.0925 LP  0  0  0  0  0  0  0  0  0  0  0  0  # atno 17321 bound_to 7965
  140.7329  143.6809  150.8002 LP  0  0  0  0  0  0  0  0  0  0  0  0  # atno 17342 bound_to 10162
  140.0406  143.5350  152.2719 LP  0  0  0  0  0  0  0  0  0  0  0  0  # atno 17343 bound_to 10162
  156.2700  130.3720  149.8042 LP  0  0  0  0  0  0  0  0  0  0  0  0  # atno 17370 bound_to 10713
  156.5762  130.8446  151.3370 LP  0  0  0  0  0  0  0  0  0  0  0  0  # atno 17371 bound_to 10713
  141.1618  133.6538  156.4345 LP  0  0  0  0  0  0  0  0  0  0  0  0  # atno 17394 bound_to 11000
  140.4785  134.6687  157.5160 LP  0  0  0  0  0  0  0  0  0  0  0  0  # atno 17395 bound_to 11000

$$$$
