AV-unprocessed.smi:1833|AV-procd|sdf|7468|dock3
  -GOLD-   22720 9163D 1   1.00000     0.00000
 Structure written by MMmdl.
 42 43  0  0  0  0  0  0  0  0  2 V2000
  146.0171  129.1003  152.5309 C   0  0  0  0  0  0  0  0  0  0  0  0
  145.3200  129.8300  151.3735 C   0  0  0  0  0  0  0  0  0  0  0  0
  145.1606  131.2846  151.6271 N   0  3  2  0  0  0  0  0  0  0  0  0
  144.5636  131.9908  150.4631 C   0  0  0  0  0  0  0  0  0  0  0  0
  144.2836  133.4676  150.7872 C   0  0  0  0  0  0  0  0  0  0  0  0
  145.5563  134.1791  151.2629 C   0  0  0  0  0  0  0  0  0  0  0  0
  146.1699  133.4188  152.4484 C   0  0  2  0  0  0  0  0  0  0  0  0
  147.4238  134.0517  152.8502 N   0  0  0  0  0  0  0  0  0  0  0  0
  148.2270  133.6371  153.8407 C   0  0  0  0  0  0  0  0  0  0  0  0
  148.0166  132.6411  154.5330 O   0  0  0  0  0  0  0  0  0  0  0  0
  149.2843  134.4463  153.9934 N   0  0  0  0  0  0  0  0  0  0  0  0
  150.3158  134.2898  155.0123 C   0  0  0  0  0  0  0  0  0  0  0  0
  150.3092  135.4641  156.0043 C   0  0  0  0  0  0  0  0  0  0  0  0
  150.8358  136.7239  155.4032 C   0  0  0  0  0  0  0  0  0  0  0  0
  152.0950  136.8680  154.9802 N   0  0  0  0  0  0  0  0  0  0  0  0
  152.3479  138.1484  154.4820 C   0  0  0  0  0  0  0  0  0  0  0  0
  151.2625  138.9845  154.5458 C   0  0  0  0  0  0  0  0  0  0  0  0
  149.8757  138.1903  155.2406 S   0  0  0  0  0  0  0  0  0  0  0  0
  146.4160  131.9432  152.0791 C   0  0  0  0  0  0  0  0  0  0  0  0
  146.0308  128.0250  152.3510 H   0  0  0  0  0  0  0  0  0  0  0  0
  145.4974  129.2691  153.4744 H   0  0  0  0  0  0  0  0  0  0  0  0
  147.0522  129.4177  152.6531 H   0  0  0  0  0  0  0  0  0  0  0  0
  145.8567  129.6687  150.4373 H   0  0  0  0  0  0  0  0  0  0  0  0
  144.3353  129.3786  151.2449 H   0  0  0  0  0  0  0  0  0  0  0  0
  145.2349  131.9144  149.6062 H   0  0  0  0  0  0  0  0  0  0  0  0
  143.6289  131.5066  150.1778 H   0  0  0  0  0  0  0  0  0  0  0  0
  143.8815  133.9724  149.9082 H   0  0  0  0  0  0  0  0  0  0  0  0
  143.5161  133.5343  151.5595 H   0  0  0  0  0  0  0  0  0  0  0  0
  146.2722  134.2357  150.4414 H   0  0  0  0  0  0  0  0  0  0  0  0
  145.3248  135.2060  151.5490 H   0  0  0  0  0  0  0  0  0  0  0  0
  145.4539  133.4458  153.2722 H   0  0  0  0  0  0  0  0  0  0  0  0
  147.6923  134.8848  152.3468 H   0  0  0  0  0  0  0  0  0  0  0  0
  149.3740  135.2396  153.3755 H   0  0  0  0  0  0  0  0  0  0  0  0
  150.1858  133.3425  155.5384 H   0  0  0  0  0  0  0  0  0  0  0  0
  151.2813  134.2353  154.5087 H   0  0  0  0  0  0  0  0  0  0  0  0
  149.2960  135.6462  156.3650 H   0  0  0  0  0  0  0  0  0  0  0  0
  150.9127  135.2237  156.8802 H   0  0  0  0  0  0  0  0  0  0  0  0
  153.3322  138.3798  154.1025 H   0  0  0  0  0  0  0  0  0  0  0  0
  151.1956  140.0153  154.2310 H   0  0  0  0  0  0  0  0  0  0  0  0
  146.8183  131.4255  152.9495 H   0  0  0  0  0  0  0  0  0  0  0  0
  147.1680  131.8681  151.2915 H   0  0  0  0  0  0  0  0  0  0  0  0
  144.4938  131.3718  152.3811 H   0  0  0  0  0  0  0  0  0  0  0  0
  1  2  1  0  0  0  0
  1 20  1  0  0  0  0
  1 21  1  0  0  0  0
  1 22  1  0  0  0  0
  2  3  1  0  0  0  0
  2 23  1  0  0  0  0
  2 24  1  0  0  0  0
  3 19  1  0  0  0  0
  3  4  1  0  0  0  0
  3 42  1  0  0  0  0
  4  5  1  0  0  0  0
  4 25  1  0  0  0  0
  4 26  1  0  0  0  0
  5  6  1  0  0  0  0
  5 27  1  0  0  0  0
  5 28  1  0  0  0  0
  6  7  1  0  0  0  0
  6 29  1  0  0  0  0
  6 30  1  0  0  0  0
  7  8  1  0  0  0  0
  7 19  1  0  0  0  0
  7 31  1  0  0  0  0
  8  9  1  0  0  0  0
  8 32  1  0  0  0  0
  9 10  2  0  0  0  0
  9 11  1  0  0  0  0
 11 12  1  0  0  0  0
 11 33  1  0  0  0  0
 12 13  1  0  0  0  0
 12 34  1  0  0  0  0
 12 35  1  0  0  0  0
 13 14  1  0  0  0  0
 13 36  1  0  0  0  0
 13 37  1  0  0  0  0
 14 18  1  0  0  0  0
 14 15  2  0  0  0  0
 15 16  1  0  0  0  0
 16 17  2  0  0  0  0
 16 38  1  0  0  0  0
 17 18  1  0  0  0  0
 17 39  1  0  0  0  0
 19 40  1  0  0  0  0
 19 41  1  0  0  0  0
M  CHG  1   3   1
M  END
> <s_m_source_file>
AV-unprocessed.smi

> <i_m_source_file_index>
1833

> <i_lp_mmshare_version>
43012

> <i_f3d_flags>
0

> <s_epik_input>
W0NIM11bQ0gyXU4xW0NIMl1bQ0gyXVtDSDJdW0NASF0oW0NIMl0xKVtOSF1DKD1PKVtOSF1bQ0gyXVtDSDJdYzJuW2NIXVtjSF1zMg==

> <s_epik_cmdline>
J2VwaWtfcHl0aG9uJywgJy1waCcsICc3LjAnLCAnLXRuJywgJzgnLCAnLW1hJywgJzIwMCcsICctbWV0YWxfYmluZGluZycsICctaW1hZScsICc8aW5maWxlLm1hZT4nLCAnLW9tYWUnLCAnPG91dGZpbGUubWFlPic=

> <r_lp_tautomer_probability>
1

> <r_epik_Ionization_Penalty>
0.00269629

> <r_epik_Ionization_Penalty_Charging>
0.00233899

> <r_epik_Ionization_Penalty_Neutral>
0.000357304

> <r_epik_State_Penalty>
-0

> <r_epik_Charging_Adjusted_Penalty>
0.00233899

> <i_epik_Tot_Q>
1

> <i_epik_Tot_abs_Q>
1

> <r_epik_Metal_State_Penalty>
-0

> <b_epik_Metal_Only>
0

> <s_lp_Force_Field>
OPLS_2005

> <r_lp_Energy>
7.34013

> <b_lp_Chiralities_Consistent>
1

> <s_lp_Variant>
AV-unprocessed.smi:1833-4

> <Gold.Version>
5.8.1

> <Gold.Id.Protein>
6NUR|6NUR_protein|mol2

> <Gold.PLP.Fitness>
43.0061

> <Gold.PLP.PLP>
-34.1224

> <Gold.PLP.part.hbond>
-3.0000

> <Gold.PLP.part.metal>
0.0000

> <Gold.PLP.part.buried>
-6.4564

> <Gold.PLP.part.nonpolar>
-25.3835

> <Gold.PLP.part.repulsive>
0.1699

> <Gold.PLP.ligand.clash>
0.0000

> <Gold.PLP.ligand.torsion>
0.0966

> <Gold.PLP.Chemscore.Hbond>
3.0000

> <Gold.PLP.Chemscore.CHOScore>
0.0000

> <Gold.PLP.Chemscore.Metal>
0.0000

> <Gold.Chemscore.Hbonds>
donor molecule, donor type, donor heavy atom, donor atom, acceptor molecule, acceptor atom, score
      L1  H     8    32       P1  7948  1.00
      L1  H    11    33       P1  7948  0.75
      P1  H 10752 10764       L1    15  0.98

> <Gold.PLP.Chemscore.Internal.Correction>
0.0770

> <Gold.Rescore>
     Score         DG    S(hbond)    S(metal)    S(lipo)     H(rot)  DE(clash)    DE(int)     intcor
     17.97     -18.39       2.21        0.00      84.76       1.71       0.23       0.19       ----

> <Gold.Chemscore.Fitness>
17.9736

> <Gold.Chemscore.DG>
-18.3921

> <Gold.Chemscore.ZeroCoef>
-5.4800

> <Gold.Chemscore.Hbond>
2.2111

> <Gold.Chemscore.Metal>
0.0000

> <Gold.Chemscore.Lipo>
84.7575

> <Gold.Chemscore.Internal_Hbond>
0.0000

> <Gold.Chemscore.DEClash>
0.2251

> <Gold.Chemscore.DEInternal>
0.1933

> <Gold.Chemscore.Rot>
1.7147

> <Gold.Chemscore.Internal.Correction>
   9.000000E+99

> <Gold.Chemscore.Hbonds>
donor molecule, donor type, donor heavy atom, donor atom, acceptor molecule, acceptor atom, score
      L1  H     8    32       P1  7948  0.85
      L1  H    11    33       P1  7948  0.09
      P1  H 10752 10764       L1    15  0.88

> <Gold.Chemscore.Hbond.Weighted>
-7.3850

> <Gold.Chemscore.Metal.Weighted>
-0.0000

> <Gold.Chemscore.Lipo.Weighted>
-9.9166

> <Gold.Chemscore.Internal_Hbond.Weighted>
0.0000

> <Gold.Chemscore.DEClash.Weighted>
0.2251

> <Gold.Chemscore.DEInternal.Weighted>
0.1933

> <Gold.Chemscore.Rot.Weighted>
4.3896

> <Gold.Chemscore.Internal.Correction.Weighted>
   9.000000E+99

> <Gold.Protein.RotatedTorsions>
[ 6907 6896 6895 6894 ] final  112.42 input  -60.11 | X-H torsion
[ 7974 7965 7964 7962 ] final   21.89 input  175.53 | X-H torsion
[ 8008 7997 7996 7995 ] final  155.64 input   59.86 | X-H torsion
[ 10167 10162 10161 10158 ] final  -94.44 input  -65.29 | X-H torsion
[ 10718 10713 10712 10709 ] final -172.60 input   66.30 | X-H torsion
[ 10763 10752 10751 10750 ] final  -58.78 input  -60.55 | X-H torsion
[ 11005 11000 10999 10996 ] final    4.08 input  -57.11 | X-H torsion

> <Gold.Protein.ActiveResidues>
 VAL166  LYS551  ARG553  GLY616  TRP617  ASP618  TYR619  PRO620  LYS621  CYS622 
 ASP623  PHE694  ASN695  SER759  ASP760  ASP761  ALA762  ILE779  LEU786  VAL792 
 PHE793  MET794  SER795  GLU796  ALA797  LYS798  CYS799  TRP800  GLU811  SER814 

> <Gold.Protein.RotatedAtoms>
  152.4917  133.8519  159.7205 H   0  0  0  0  0  0  0  0  0  0  0  0  # atno 6907 bound_to 6896
  150.9054  133.7056  159.2875 H   0  0  0  0  0  0  0  0  0  0  0  0  # atno 6908 bound_to 6896
  151.4483  135.1031  159.9743 H   0  0  0  0  0  0  0  0  0  0  0  0  # atno 6909 bound_to 6896
  146.2052  139.7963  142.8731 H   0  0  0  0  0  0  0  0  0  0  0  0  # atno 7974 bound_to 7965
  156.2467  140.1934  156.6832 H   0  0  0  0  0  0  0  0  0  0  0  0  # atno 8008 bound_to 7997
  154.6306  140.0596  156.9754 H   0  0  0  0  0  0  0  0  0  0  0  0  # atno 8009 bound_to 7997
  155.1716  140.3268  155.4394 H   0  0  0  0  0  0  0  0  0  0  0  0  # atno 8010 bound_to 7997
  140.3144  143.3086  152.0114 H   0  0  0  0  0  0  0  0  0  0  0  0  # atno 10167 bound_to 10162
  156.7580  130.9403  151.3117 H   0  0  0  0  0  0  0  0  0  0  0  0  # atno 10718 bound_to 10713
  154.2435  135.6339  153.5215 H   0  0  0  0  0  0  0  0  0  0  0  0  # atno 10763 bound_to 10752
  152.9925  135.5547  154.5885 H   0  0  0  0  0  0  0  0  0  0  0  0  # atno 10764 bound_to 10752
  154.5396  135.2894  155.1082 H   0  0  0  0  0  0  0  0  0  0  0  0  # atno 10765 bound_to 10752
  140.5859  133.9969  155.8067 H   0  0  0  0  0  0  0  0  0  0  0  0  # atno 11005 bound_to 11000
  145.3344  141.0274  143.3428 LP  0  0  0  0  0  0  0  0  0  0  0  0  # atno 17320 bound_to 7965
  144.8776  139.4949  143.6738 LP  0  0  0  0  0  0  0  0  0  0  0  0  # atno 17321 bound_to 7965
  139.4887  144.6360  151.6975 LP  0  0  0  0  0  0  0  0  0  0  0  0  # atno 17342 bound_to 10162
  140.5539  144.0379  150.6139 LP  0  0  0  0  0  0  0  0  0  0  0  0  # atno 17343 bound_to 10162
  157.6747  130.9083  150.0122 LP  0  0  0  0  0  0  0  0  0  0  0  0  # atno 17370 bound_to 10713
  156.1357  130.3643  149.9660 LP  0  0  0  0  0  0  0  0  0  0  0  0  # atno 17371 bound_to 10713
  141.0966  133.9833  157.3149 LP  0  0  0  0  0  0  0  0  0  0  0  0  # atno 17394 bound_to 11000
  139.9296  135.0200  156.8354 LP  0  0  0  0  0  0  0  0  0  0  0  0  # atno 17395 bound_to 11000

$$$$
