AV-unprocessed.smi:1120|AV-procd|sdf|4822|dock7
  -GOLD-   22720 3383D 1   1.00000     0.00000
 Structure written by MMmdl.
 47 48  0  0  0  0  0  0  0  0  2 V2000
  152.3943  143.9596  161.6996 C   0  0  0  0  0  0  0  0  0  0  0  0
  152.9520  142.9374  160.6995 C   0  0  2  0  0  0  0  0  0  0  0  0
  151.8289  142.2563  159.8836 C   0  0  0  0  0  0  0  0  0  0  0  0
  152.3655  141.1859  158.9005 C   0  0  0  0  0  0  0  0  0  0  0  0
  153.2117  140.0878  159.5892 C   0  0  1  0  0  0  0  0  0  0  0  0
  153.7703  139.1980  158.5795 N   0  5  0  0  0  0  0  0  0  0  0  0
  153.3185  137.6404  158.5205 S   0  0  0  0  0  0  0  0  0  0  0  0
  153.3849  137.0894  157.1567 O   0  0  0  0  0  0  0  0  0  0  0  0
  153.9147  136.8306  159.5957 O   0  0  0  0  0  0  0  0  0  0  0  0
  151.5223  137.7950  158.9334 C   0  0  0  0  0  0  0  0  0  0  0  0
  150.9988  136.5279  159.6122 C   0  0  0  0  0  0  0  0  0  0  0  0
  151.7256  135.5404  159.7208 O   0  0  0  0  0  0  0  0  0  0  0  0
  149.7476  136.5753  160.0886 N   0  0  0  0  0  0  0  0  0  0  0  0
  149.0637  135.4854  160.7718 C   0  0  0  0  0  0  0  0  0  0  0  0
  149.7655  135.1318  162.0943 C   0  0  0  0  0  0  0  0  0  0  0  0
  148.8041  134.9601  163.2585 C   0  0  0  0  0  0  0  0  0  0  0  0
  148.8211  133.7843  164.0396 C   0  0  0  0  0  0  0  0  0  0  0  0
  147.8913  133.6620  165.0895 C   0  0  0  0  0  0  0  0  0  0  0  0
  146.9872  134.7167  165.3204 C   0  0  0  0  0  0  0  0  0  0  0  0
  147.0531  135.8504  164.4859 C   0  0  0  0  0  0  0  0  0  0  0  0
  147.9388  135.9766  163.4741 N   0  0  0  0  0  0  0  0  0  0  0  0
  154.3294  140.7734  160.4164 C   0  0  0  0  0  0  0  0  0  0  0  0
  153.7948  141.8460  161.3987 C   0  0  0  0  0  0  0  0  0  0  0  0
  151.7318  143.4848  162.4239 H   0  0  0  0  0  0  0  0  0  0  0  0
  151.8268  144.7378  161.1888 H   0  0  0  0  0  0  0  0  0  0  0  0
  153.1986  144.4461  162.2520 H   0  0  0  0  0  0  0  0  0  0  0  0
  153.6006  143.4714  160.0032 H   0  0  0  0  0  0  0  0  0  0  0  0
  151.1009  141.8074  160.5626 H   0  0  0  0  0  0  0  0  0  0  0  0
  151.2808  143.0125  159.3207 H   0  0  0  0  0  0  0  0  0  0  0  0
  151.5271  140.7284  158.3740 H   0  0  0  0  0  0  0  0  0  0  0  0
  152.9658  141.6851  158.1379 H   0  0  0  0  0  0  0  0  0  0  0  0
  152.5591  139.5474  160.2758 H   0  0  0  0  0  0  0  0  0  0  0  0
  151.3968  138.6520  159.5950 H   0  0  0  0  0  0  0  0  0  0  0  0
  150.9680  137.9920  158.0162 H   0  0  0  0  0  0  0  0  0  0  0  0
  149.2229  137.4280  159.9508 H   0  0  0  0  0  0  0  0  0  0  0  0
  148.0250  135.7563  160.9667 H   0  0  0  0  0  0  0  0  0  0  0  0
  149.0505  134.6163  160.1129 H   0  0  0  0  0  0  0  0  0  0  0  0
  150.3360  134.2105  161.9687 H   0  0  0  0  0  0  0  0  0  0  0  0
  150.4935  135.9051  162.3430 H   0  0  0  0  0  0  0  0  0  0  0  0
  149.5214  132.9880  163.8318 H   0  0  0  0  0  0  0  0  0  0  0  0
  147.8704  132.7744  165.7042 H   0  0  0  0  0  0  0  0  0  0  0  0
  146.2596  134.6573  166.1160 H   0  0  0  0  0  0  0  0  0  0  0  0
  146.3744  136.6775  164.6337 H   0  0  0  0  0  0  0  0  0  0  0  0
  154.8847  140.0276  160.9852 H   0  0  0  0  0  0  0  0  0  0  0  0
  155.0492  141.2404  159.7424 H   0  0  0  0  0  0  0  0  0  0  0  0
  154.6385  142.3111  161.9098 H   0  0  0  0  0  0  0  0  0  0  0  0
  153.2014  141.3696  162.1819 H   0  0  0  0  0  0  0  0  0  0  0  0
  1  2  1  0  0  0  0
  1 24  1  0  0  0  0
  1 25  1  0  0  0  0
  1 26  1  0  0  0  0
  2 23  1  0  0  0  0
  2  3  1  0  0  0  0
  2 27  1  0  0  0  0
  3  4  1  0  0  0  0
  3 28  1  0  0  0  0
  3 29  1  0  0  0  0
  4  5  1  0  0  0  0
  4 30  1  0  0  0  0
  4 31  1  0  0  0  0
  5  6  1  0  0  0  0
  5 22  1  0  0  0  0
  5 32  1  0  0  0  0
  6  7  1  0  0  0  0
  7  8  2  0  0  0  0
  7  9  2  0  0  0  0
  7 10  1  0  0  0  0
 10 11  1  0  0  0  0
 10 33  1  0  0  0  0
 10 34  1  0  0  0  0
 11 12  2  0  0  0  0
 11 13  1  0  0  0  0
 13 14  1  0  0  0  0
 13 35  1  0  0  0  0
 14 15  1  0  0  0  0
 14 36  1  0  0  0  0
 14 37  1  0  0  0  0
 15 16  1  0  0  0  0
 15 38  1  0  0  0  0
 15 39  1  0  0  0  0
 16 21  1  0  0  0  0
 16 17  2  0  0  0  0
 17 18  1  0  0  0  0
 17 40  1  0  0  0  0
 18 19  2  0  0  0  0
 18 41  1  0  0  0  0
 19 20  1  0  0  0  0
 19 42  1  0  0  0  0
 20 21  2  0  0  0  0
 20 43  1  0  0  0  0
 22 23  1  0  0  0  0
 22 44  1  0  0  0  0
 22 45  1  0  0  0  0
 23 46  1  0  0  0  0
 23 47  1  0  0  0  0
M  CHG  1   6  -1
M  END
> <s_m_source_file>
AV-unprocessed.smi

> <i_m_source_file_index>
1120

> <i_lp_mmshare_version>
43012

> <i_f3d_flags>
0

> <s_epik_input>
W0NIM11bQ0BASF0xW0NIMl1bQ0gyXVtDQEhdKFtDSDJdW0NIMl0xKVtOSF1TKD1PKSg9TylbQ0gyXUMoPU8pW05IXVtDSDJdW0NIMl1jMltjSF1bY0hdW2NIXVtjSF1uMg==

> <s_epik_cmdline>
J2VwaWtfcHl0aG9uJywgJy1waCcsICc3LjAnLCAnLXRuJywgJzgnLCAnLW1hJywgJzIwMCcsICctbWV0YWxfYmluZGluZycsICctaW1hZScsICc8aW5maWxlLm1hZT4nLCAnLW9tYWUnLCAnPG91dGZpbGUubWFlPic=

> <r_epik_Ionization_Penalty>
5.68623

> <r_epik_Ionization_Penalty_Charging>
5.66033

> <r_epik_Ionization_Penalty_Neutral>
0.0259005

> <r_epik_State_Penalty>
5.67764

> <r_epik_Charging_Adjusted_Penalty>
11.338

> <i_epik_Tot_Q>
-1

> <i_epik_Tot_abs_Q>
1

> <r_epik_Metal_State_Penalty>
1.68319

> <b_epik_Metal_Only>
1

> <s_lp_Force_Field>
OPLS_2005

> <r_lp_Energy>
8.54043

> <b_lp_Chiralities_Consistent>
1

> <s_lp_Variant>
AV-unprocessed.smi:1120-5

> <Gold.Version>
5.8.1

> <Gold.Id.Protein>
6NUR|6NUR_protein|mol2

> <Gold.PLP.Fitness>
51.5875

> <Gold.PLP.PLP>
-41.8831

> <Gold.PLP.part.hbond>
-3.3466

> <Gold.PLP.part.metal>
0.0000

> <Gold.PLP.part.buried>
-7.2441

> <Gold.PLP.part.nonpolar>
-31.0306

> <Gold.PLP.part.repulsive>
0.1742

> <Gold.PLP.ligand.clash>
0.0000

> <Gold.PLP.ligand.torsion>
1.5792

> <Gold.PLP.Chemscore.Hbond>
3.9353

> <Gold.PLP.Chemscore.CHOScore>
0.0000

> <Gold.PLP.Chemscore.Metal>
0.0000

> <Gold.Chemscore.Hbonds>
donor molecule, donor type, donor heavy atom, donor atom, acceptor molecule, acceptor atom, score
      P1  H  7997  8008       L1     6  2.00

> <Gold.PLP.Chemscore.Internal.Correction>
1.0570

> <Gold.Rescore>
     Score         DG    S(hbond)    S(metal)    S(lipo)     H(rot)  DE(clash)    DE(int)     intcor
     17.91     -22.95       2.66        0.00     114.09       1.86       0.05       4.99       ----

> <Gold.Chemscore.Fitness>
17.9066

> <Gold.Chemscore.DG>
-22.9458

> <Gold.Chemscore.ZeroCoef>
-5.4800

> <Gold.Chemscore.Hbond>
2.6585

> <Gold.Chemscore.Metal>
0.0000

> <Gold.Chemscore.Lipo>
114.0897

> <Gold.Chemscore.Internal_Hbond>
0.0000

> <Gold.Chemscore.DEClash>
0.0502

> <Gold.Chemscore.DEInternal>
4.9890

> <Gold.Chemscore.Rot>
1.8602

> <Gold.Chemscore.Internal.Correction>
   9.000000E+99

> <Gold.Chemscore.Hbonds>
donor molecule, donor type, donor heavy atom, donor atom, acceptor molecule, acceptor atom, score
      P1  H  7997  8008       L1     6  0.92

> <Gold.Chemscore.Hbond.Weighted>
-8.8795

> <Gold.Chemscore.Metal.Weighted>
-0.0000

> <Gold.Chemscore.Lipo.Weighted>
-13.3485

> <Gold.Chemscore.Internal_Hbond.Weighted>
0.0000

> <Gold.Chemscore.DEClash.Weighted>
0.0502

> <Gold.Chemscore.DEInternal.Weighted>
4.9890

> <Gold.Chemscore.Rot.Weighted>
4.7622

> <Gold.Chemscore.Internal.Correction.Weighted>
   9.000000E+99

> <Gold.Protein.RotatedTorsions>
[ 6907 6896 6895 6894 ] final   84.70 input  -60.11 | X-H torsion
[ 7974 7965 7964 7962 ] final -118.34 input  175.53 | X-H torsion
[ 8008 7997 7996 7995 ] final -107.74 input   59.86 | X-H torsion
[ 10167 10162 10161 10158 ] final  114.74 input  -65.29 | X-H torsion
[ 10718 10713 10712 10709 ] final   14.69 input   66.30 | X-H torsion
[ 10763 10752 10751 10750 ] final  -59.40 input  -60.55 | X-H torsion
[ 11005 11000 10999 10996 ] final   19.48 input  -57.11 | X-H torsion

> <Gold.Protein.ActiveResidues>
 VAL166  LYS551  ARG553  GLY616  TRP617  ASP618  TYR619  PRO620  LYS621  CYS622 
 ASP623  PHE694  ASN695  SER759  ASP760  ASP761  ALA762  ILE779  LEU786  VAL792 
 PHE793  MET794  SER795  GLU796  ALA797  LYS798  CYS799  TRP800  GLU811  SER814 

> <Gold.Protein.RotatedAtoms>
  152.5358  134.2701  159.8967 H   0  0  0  0  0  0  0  0  0  0  0  0  # atno 6907 bound_to 6896
  151.2658  133.4273  159.2626 H   0  0  0  0  0  0  0  0  0  0  0  0  # atno 6908 bound_to 6896
  151.0412  134.9623  159.8219 H   0  0  0  0  0  0  0  0  0  0  0  0  # atno 6909 bound_to 6896
  145.0749  140.8385  143.4073 H   0  0  0  0  0  0  0  0  0  0  0  0  # atno 7974 bound_to 7965
  154.9338  140.0404  157.2061 H   0  0  0  0  0  0  0  0  0  0  0  0  # atno 8008 bound_to 7997
  154.8135  140.2872  155.5815 H   0  0  0  0  0  0  0  0  0  0  0  0  # atno 8009 bound_to 7997
  156.2973  140.2532  156.3028 H   0  0  0  0  0  0  0  0  0  0  0  0  # atno 8010 bound_to 7997
  139.6367  144.7120  151.2320 H   0  0  0  0  0  0  0  0  0  0  0  0  # atno 10167 bound_to 10162
  157.0428  130.6238  149.5754 H   0  0  0  0  0  0  0  0  0  0  0  0  # atno 10718 bound_to 10713
  154.2532  135.6322  153.5247 H   0  0  0  0  0  0  0  0  0  0  0  0  # atno 10763 bound_to 10752
  152.9908  135.5570  154.5785 H   0  0  0  0  0  0  0  0  0  0  0  0  # atno 10764 bound_to 10752
  154.5317  135.2889  155.1149 H   0  0  0  0  0  0  0  0  0  0  0  0  # atno 10765 bound_to 10752
  140.4133  134.1596  155.7668 H   0  0  0  0  0  0  0  0  0  0  0  0  # atno 11005 bound_to 11000
  145.1247  139.2670  143.5570 LP  0  0  0  0  0  0  0  0  0  0  0  0  # atno 17320 bound_to 7965
  146.3530  140.0881  142.8614 LP  0  0  0  0  0  0  0  0  0  0  0  0  # atno 17321 bound_to 7965
  140.7469  143.6384  150.8358 LP  0  0  0  0  0  0  0  0  0  0  0  0  # atno 17342 bound_to 10162
  140.0016  143.5738  152.2873 LP  0  0  0  0  0  0  0  0  0  0  0  0  # atno 17343 bound_to 10162
  156.0032  130.5115  150.7739 LP  0  0  0  0  0  0  0  0  0  0  0  0  # atno 17370 bound_to 10713
  157.5091  131.0924  151.0220 LP  0  0  0  0  0  0  0  0  0  0  0  0  # atno 17371 bound_to 10713
  141.1813  133.8408  157.1248 LP  0  0  0  0  0  0  0  0  0  0  0  0  # atno 17394 bound_to 11000
  140.0252  134.9927  157.0672 LP  0  0  0  0  0  0  0  0  0  0  0  0  # atno 17395 bound_to 11000

$$$$
