AV-unprocessed.smi:1962|AV-procd|sdf|7922|dock10
  -GOLD-   2272010 93D 1   1.00000     0.00000
 Structure written by MMmdl.
 36 37  0  0  0  0  0  0  0  0  1 V2000
  145.1164  134.6605  153.5324 C   0  0  0  0  0  0  0  0  0  0  0  0
  145.6005  135.5274  152.3623 C   0  0  2  0  0  0  0  0  0  0  0  0
  146.1724  134.6625  151.2193 C   0  0  0  0  0  0  0  0  0  0  0  0
  145.3441  133.5055  150.9261 N   0  0  0  0  0  0  0  0  0  0  0  0
  145.7045  132.1745  150.9163 C   0  0  0  0  0  0  0  0  0  0  0  0
  144.5879  131.4539  150.6031 C   0  0  0  0  0  0  0  0  0  0  0  0
  143.5815  132.4457  150.4349 C   0  0  0  0  0  0  0  0  0  0  0  0
  144.0377  133.6728  150.6250 N   0  0  0  0  0  0  0  0  0  0  0  0
  146.6060  136.4689  152.8526 N   0  0  0  0  0  0  0  0  0  0  0  0
  146.3625  137.6984  153.3446 C   0  0  0  0  0  0  0  0  0  0  0  0
  145.2278  138.1600  153.4702 O   0  0  0  0  0  0  0  0  0  0  0  0
  147.5597  138.4968  153.7191 C   0  0  0  0  0  0  0  0  0  0  0  0
  148.6149  137.9054  154.1854 N   0  0  0  0  0  0  0  0  0  0  0  0
  149.7551  138.6036  154.5277 N   0  0  0  0  0  0  0  0  0  0  0  0
  150.9337  137.7735  154.7678 C   0  0  0  0  0  0  0  0  0  0  0  0
  149.8211  139.9510  154.6683 C   0  0  0  0  0  0  0  0  0  0  0  0
  150.8511  140.5591  154.9590 O   0  0  0  0  0  0  0  0  0  0  0  0
  148.5119  140.7219  154.4758 C   0  0  0  0  0  0  0  0  0  0  0  0
  147.5455  139.9992  153.5164 C   0  0  0  0  0  0  0  0  0  0  0  0
  144.3468  133.9594  153.2087 H   0  0  0  0  0  0  0  0  0  0  0  0
  144.6883  135.2748  154.3252 H   0  0  0  0  0  0  0  0  0  0  0  0
  145.9339  134.0814  153.9635 H   0  0  0  0  0  0  0  0  0  0  0  0
  144.7329  136.0714  151.9846 H   0  0  0  0  0  0  0  0  0  0  0  0
  146.2940  135.2568  150.3119 H   0  0  0  0  0  0  0  0  0  0  0  0
  147.1655  134.3001  151.4875 H   0  0  0  0  0  0  0  0  0  0  0  0
  146.7124  131.8550  151.1369 H   0  0  0  0  0  0  0  0  0  0  0  0
  144.5022  130.3814  150.5106 H   0  0  0  0  0  0  0  0  0  0  0  0
  142.5403  132.3115  150.1811 H   0  0  0  0  0  0  0  0  0  0  0  0
  147.5707  136.1782  152.7819 H   0  0  0  0  0  0  0  0  0  0  0  0
  151.3106  137.9223  155.7808 H   0  0  0  0  0  0  0  0  0  0  0  0
  151.7294  138.0269  154.0655 H   0  0  0  0  0  0  0  0  0  0  0  0
  150.7171  136.7105  154.6499 H   0  0  0  0  0  0  0  0  0  0  0  0
  148.0460  140.8255  155.4563 H   0  0  0  0  0  0  0  0  0  0  0  0
  148.7189  141.7309  154.1176 H   0  0  0  0  0  0  0  0  0  0  0  0
  147.8096  140.2240  152.4824 H   0  0  0  0  0  0  0  0  0  0  0  0
  146.5428  140.3995  153.6715 H   0  0  0  0  0  0  0  0  0  0  0  0
  1  2  1  0  0  0  0
  1 20  1  0  0  0  0
  1 21  1  0  0  0  0
  1 22  1  0  0  0  0
  2  3  1  0  0  0  0
  2  9  1  0  0  0  0
  2 23  1  0  0  0  0
  3  4  1  0  0  0  0
  3 24  1  0  0  0  0
  3 25  1  0  0  0  0
  4  8  1  0  0  0  0
  4  5  1  0  0  0  0
  5  6  2  0  0  0  0
  5 26  1  0  0  0  0
  6  7  1  0  0  0  0
  6 27  1  0  0  0  0
  7  8  2  0  0  0  0
  7 28  1  0  0  0  0
  9 10  1  0  0  0  0
  9 29  1  0  0  0  0
 10 11  2  0  0  0  0
 10 12  1  0  0  0  0
 12 19  1  0  0  0  0
 12 13  2  0  0  0  0
 13 14  1  0  0  0  0
 14 15  1  0  0  0  0
 14 16  1  0  0  0  0
 15 30  1  0  0  0  0
 15 31  1  0  0  0  0
 15 32  1  0  0  0  0
 16 17  2  0  0  0  0
 16 18  1  0  0  0  0
 18 19  1  0  0  0  0
 18 33  1  0  0  0  0
 18 34  1  0  0  0  0
 19 35  1  0  0  0  0
 19 36  1  0  0  0  0
M  END
> <s_m_source_file>
AV-unprocessed.smi

> <i_m_source_file_index>
1962

> <i_lp_mmshare_version>
43012

> <i_f3d_flags>
0

> <s_epik_input>
bjFbY0hdW2NIXVtjSF1uMVtDSDJdW0NAQEhdKFtDSDNdKVtOSF1DKD1PKUMyPU5OKFtDSDNdKUMoPU8pW0NIMl1bQ0gyXTI=

> <s_epik_cmdline>
J2VwaWtfcHl0aG9uJywgJy1waCcsICc3LjAnLCAnLXRuJywgJzgnLCAnLW1hJywgJzIwMCcsICctbWV0YWxfYmluZGluZycsICctaW1hZScsICc8aW5maWxlLm1hZT4nLCAnLW9tYWUnLCAnPG91dGZpbGUubWFlPic=

> <r_lp_tautomer_probability>
1

> <r_epik_Ionization_Penalty>
9.43868e-05

> <r_epik_Ionization_Penalty_Charging>
0

> <r_epik_Ionization_Penalty_Neutral>
9.43868e-05

> <r_epik_State_Penalty>
-0

> <r_epik_Charging_Adjusted_Penalty>
0

> <i_epik_Tot_Q>
0

> <i_epik_Tot_abs_Q>
0

> <r_epik_Metal_State_Penalty>
0.0732556

> <b_epik_Metal_Only>
0

> <s_epik_Chemistry_Notes>
This compound has an imine and may undergo hydrolysis.

> <s_lp_Force_Field>
OPLS_2005

> <r_lp_Energy>
16.0967

> <b_lp_Chiralities_Consistent>
1

> <s_lp_Variant>
AV-unprocessed.smi:1962-1

> <Gold.Version>
5.8.1

> <Gold.Id.Protein>
6NUR|6NUR_protein|mol2

> <Gold.PLP.Fitness>
38.6081

> <Gold.PLP.PLP>
-28.2806

> <Gold.PLP.part.hbond>
-2.0000

> <Gold.PLP.part.metal>
0.0000

> <Gold.PLP.part.buried>
-4.9173

> <Gold.PLP.part.nonpolar>
-24.6876

> <Gold.PLP.part.repulsive>
2.5897

> <Gold.PLP.ligand.clash>
0.0000

> <Gold.PLP.ligand.torsion>
0.9648

> <Gold.PLP.Chemscore.Hbond>
2.0000

> <Gold.PLP.Chemscore.CHOScore>
2.0771

> <Gold.PLP.Chemscore.Metal>
0.0000

> <Gold.Chemscore.Hbonds>
donor molecule, donor type, donor heavy atom, donor atom, acceptor molecule, acceptor atom, score
      L1  H     9    29       P1  7948  0.91
      P1  H  7989  7998       L1    17  0.99
      L1  C     5    26       P1 10747  0.78
      L1  C     7    28       P1 10186  0.53
      L1  C     7    28       P1 10952  0.64

> <Gold.PLP.Chemscore.Internal.Correction>
0.0256

> <Gold.Rescore>
     Score         DG    S(hbond)    S(metal)    S(lipo)     H(rot)  DE(clash)    DE(int)     intcor
     13.41     -15.04       1.78        0.00      64.22       1.53       0.61       1.02       ----

> <Gold.Chemscore.Fitness>
13.4117

> <Gold.Chemscore.DG>
-15.0398

> <Gold.Chemscore.ZeroCoef>
-5.4800

> <Gold.Chemscore.Hbond>
1.7819

> <Gold.Chemscore.Metal>
0.0000

> <Gold.Chemscore.Lipo>
64.2174

> <Gold.Chemscore.Internal_Hbond>
0.0000

> <Gold.Chemscore.DEClash>
0.6071

> <Gold.Chemscore.DEInternal>
1.0210

> <Gold.Chemscore.Rot>
1.5254

> <Gold.Chemscore.Internal.Correction>
   9.000000E+99

> <Gold.Chemscore.Hbonds>
donor molecule, donor type, donor heavy atom, donor atom, acceptor molecule, acceptor atom, score
      L1  H     9    29       P1  7948  0.88
      P1  H  7989  7998       L1    17  0.52

> <Gold.Chemscore.Hbond.Weighted>
-5.9514

> <Gold.Chemscore.Metal.Weighted>
-0.0000

> <Gold.Chemscore.Lipo.Weighted>
-7.5134

> <Gold.Chemscore.Internal_Hbond.Weighted>
0.0000

> <Gold.Chemscore.DEClash.Weighted>
0.6071

> <Gold.Chemscore.DEInternal.Weighted>
1.0210

> <Gold.Chemscore.Rot.Weighted>
3.9051

> <Gold.Chemscore.Internal.Correction.Weighted>
   9.000000E+99

> <Gold.Protein.RotatedTorsions>
[ 6907 6896 6895 6894 ] final   -3.16 input  -60.11 | X-H torsion
[ 7974 7965 7964 7962 ] final  -26.65 input  175.53 | X-H torsion
[ 8008 7997 7996 7995 ] final -162.31 input   59.86 | X-H torsion
[ 10167 10162 10161 10158 ] final  -21.69 input  -65.29 | X-H torsion
[ 10718 10713 10712 10709 ] final  103.91 input   66.30 | X-H torsion
[ 10763 10752 10751 10750 ] final   34.45 input  -60.55 | X-H torsion
[ 11005 11000 10999 10996 ] final  -36.77 input  -57.11 | X-H torsion

> <Gold.Protein.ActiveResidues>
 VAL166  LYS551  ARG553  GLY616  TRP617  ASP618  TYR619  PRO620  LYS621  CYS622 
 ASP623  PHE694  ASN695  SER759  ASP760  ASP761  ALA762  ILE779  LEU786  VAL792 
 PHE793  MET794  SER795  GLU796  ALA797  LYS798  CYS799  TRP800  GLU811  SER814 

> <Gold.Protein.RotatedAtoms>
  151.5182  135.1066  159.9871 H   0  0  0  0  0  0  0  0  0  0  0  0  # atno 6907 bound_to 6896
  152.4632  133.7862  159.6888 H   0  0  0  0  0  0  0  0  0  0  0  0  # atno 6908 bound_to 6896
  150.8603  133.7589  159.3020 H   0  0  0  0  0  0  0  0  0  0  0  0  # atno 6909 bound_to 6896
  146.1411  140.5048  142.8652 H   0  0  0  0  0  0  0  0  0  0  0  0  # atno 7974 bound_to 7965
  155.8049  140.0897  157.1936 H   0  0  0  0  0  0  0  0  0  0  0  0  # atno 8008 bound_to 7997
  154.3981  140.1465  156.3377 H   0  0  0  0  0  0  0  0  0  0  0  0  # atno 8009 bound_to 7997
  155.8424  140.3438  155.5643 H   0  0  0  0  0  0  0  0  0  0  0  0  # atno 8010 bound_to 7997
  140.7283  143.4604  151.0388 H   0  0  0  0  0  0  0  0  0  0  0  0  # atno 10167 bound_to 10162
  157.6757  131.0790  150.5626 H   0  0  0  0  0  0  0  0  0  0  0  0  # atno 10718 bound_to 10713
  153.0164  135.6360  154.1670 H   0  0  0  0  0  0  0  0  0  0  0  0  # atno 10763 bound_to 10752
  154.1409  135.2834  155.3162 H   0  0  0  0  0  0  0  0  0  0  0  0  # atno 10764 bound_to 10752
  154.6125  135.5551  153.7550 H   0  0  0  0  0  0  0  0  0  0  0  0  # atno 10765 bound_to 10752
  140.9900  133.7010  156.1834 H   0  0  0  0  0  0  0  0  0  0  0  0  # atno 11005 bound_to 11000
  144.7793  140.5807  143.6616 LP  0  0  0  0  0  0  0  0  0  0  0  0  # atno 17320 bound_to 7965
  145.5045  139.1482  143.3639 LP  0  0  0  0  0  0  0  0  0  0  0  0  # atno 17321 bound_to 7965
  139.8288  143.7719  152.3179 LP  0  0  0  0  0  0  0  0  0  0  0  0  # atno 17342 bound_to 10162
  139.7828  144.7438  151.0064 LP  0  0  0  0  0  0  0  0  0  0  0  0  # atno 17343 bound_to 10162
  156.5929  130.4334  149.5929 LP  0  0  0  0  0  0  0  0  0  0  0  0  # atno 17370 bound_to 10713
  156.2569  130.6939  151.1695 LP  0  0  0  0  0  0  0  0  0  0  0  0  # atno 17371 bound_to 10713
  140.7054  134.4519  157.5584 LP  0  0  0  0  0  0  0  0  0  0  0  0  # atno 17394 bound_to 11000
  139.8988  134.8605  156.1986 LP  0  0  0  0  0  0  0  0  0  0  0  0  # atno 17395 bound_to 11000

$$$$
