AV-unprocessed.smi:3343|AV-procd|sdf|12892|dock7
  -GOLD-   2272019303D 1   1.00000     0.00000
 Structure written by MMmdl.
 42 43  0  0  0  0  0  0  0  0  2 V2000
  152.1393  144.6105  157.7335 C   0  0  0  0  0  0  0  0  0  0  0  0
  151.5168  143.3570  158.3754 C   0  0  1  0  0  0  0  0  0  0  0  0
  151.2253  142.2529  157.3492 C   0  0  0  0  0  0  0  0  0  0  0  0
  151.7153  141.1301  157.4793 O   0  0  0  0  0  0  0  0  0  0  0  0
  150.3962  142.5791  156.3454 N   0  0  0  0  0  0  0  0  0  0  0  0
  149.9195  141.6545  155.3254 C   0  0  0  0  0  0  0  0  0  0  0  0
  148.6840  140.8847  155.8284 C   0  0  0  0  0  0  0  0  0  0  0  0
  147.8984  140.3111  154.7334 N   0  0  0  0  0  0  0  0  0  0  0  0
  146.6590  139.6413  155.1456 C   0  0  0  0  0  0  0  0  0  0  0  0
  145.6027  140.6363  155.6717 C   0  0  0  0  0  0  0  0  0  0  0  0
  145.3022  141.6624  154.6462 N   0  3  0  0  0  0  0  0  0  0  0  0
  144.2545  142.6120  155.0779 C   0  0  0  0  0  0  0  0  0  0  0  0
  146.5430  142.3408  154.2052 C   0  0  0  0  0  0  0  0  0  0  0  0
  147.5763  141.3069  153.7073 C   0  0  0  0  0  0  0  0  0  0  0  0
  152.3652  142.8284  159.4345 N   0  0  0  0  0  0  0  0  0  0  0  0
  153.5614  142.2348  159.3841 C   0  0  0  0  0  0  0  0  0  0  0  0
  154.0191  141.8472  160.5662 N   0  0  0  0  0  0  0  0  0  0  0  0
  152.9842  142.2589  161.3571 C   0  0  0  0  0  0  0  0  0  0  0  0
  151.9656  142.8462  160.7287 N   0  0  0  0  0  0  0  0  0  0  0  0
  151.5004  145.0076  156.9438 H   0  0  0  0  0  0  0  0  0  0  0  0
  153.1170  144.4035  157.2971 H   0  0  0  0  0  0  0  0  0  0  0  0
  152.2707  145.3996  158.4745 H   0  0  0  0  0  0  0  0  0  0  0  0
  150.5667  143.6575  158.8218 H   0  0  0  0  0  0  0  0  0  0  0  0
  150.0392  143.5234  156.3111 H   0  0  0  0  0  0  0  0  0  0  0  0
  149.6657  142.2293  154.4342 H   0  0  0  0  0  0  0  0  0  0  0  0
  150.7308  140.9823  155.0449 H   0  0  0  0  0  0  0  0  0  0  0  0
  148.9797  140.1195  156.5450 H   0  0  0  0  0  0  0  0  0  0  0  0
  148.0511  141.5854  156.3750 H   0  0  0  0  0  0  0  0  0  0  0  0
  146.2547  139.1107  154.2825 H   0  0  0  0  0  0  0  0  0  0  0  0
  146.8638  138.8760  155.8929 H   0  0  0  0  0  0  0  0  0  0  0  0
  144.6877  140.0944  155.9126 H   0  0  0  0  0  0  0  0  0  0  0  0
  145.9326  141.1104  156.5969 H   0  0  0  0  0  0  0  0  0  0  0  0
  144.5786  143.1833  155.9488 H   0  0  0  0  0  0  0  0  0  0  0  0
  143.3382  142.0812  155.3377 H   0  0  0  0  0  0  0  0  0  0  0  0
  144.0178  143.3135  154.2772 H   0  0  0  0  0  0  0  0  0  0  0  0
  146.3050  143.0305  153.3947 H   0  0  0  0  0  0  0  0  0  0  0  0
  146.9502  142.9454  155.0170 H   0  0  0  0  0  0  0  0  0  0  0  0
  148.4882  141.8086  153.3811 H   0  0  0  0  0  0  0  0  0  0  0  0
  147.1826  140.7904  152.8309 H   0  0  0  0  0  0  0  0  0  0  0  0
  154.1041  142.0766  158.4635 H   0  0  0  0  0  0  0  0  0  0  0  0
  152.9791  142.1164  162.4278 H   0  0  0  0  0  0  0  0  0  0  0  0
  144.9397  141.1709  153.8417 H   0  0  0  0  0  0  0  0  0  0  0  0
  1  2  1  0  0  0  0
  1 20  1  0  0  0  0
  1 21  1  0  0  0  0
  1 22  1  0  0  0  0
  2  3  1  0  0  0  0
  2 15  1  0  0  0  0
  2 23  1  0  0  0  0
  3  4  2  0  0  0  0
  3  5  1  0  0  0  0
  5  6  1  0  0  0  0
  5 24  1  0  0  0  0
  6  7  1  0  0  0  0
  6 25  1  0  0  0  0
  6 26  1  0  0  0  0
  7  8  1  0  0  0  0
  7 27  1  0  0  0  0
  7 28  1  0  0  0  0
  8 14  1  0  0  0  0
  8  9  1  0  0  0  0
  9 10  1  0  0  0  0
  9 29  1  0  0  0  0
  9 30  1  0  0  0  0
 10 11  1  0  0  0  0
 10 31  1  0  0  0  0
 10 32  1  0  0  0  0
 11 12  1  0  0  0  0
 11 13  1  0  0  0  0
 11 42  1  0  0  0  0
 12 33  1  0  0  0  0
 12 34  1  0  0  0  0
 12 35  1  0  0  0  0
 13 14  1  0  0  0  0
 13 36  1  0  0  0  0
 13 37  1  0  0  0  0
 14 38  1  0  0  0  0
 14 39  1  0  0  0  0
 15 19  1  0  0  0  0
 15 16  1  0  0  0  0
 16 17  2  0  0  0  0
 16 40  1  0  0  0  0
 17 18  1  0  0  0  0
 18 19  2  0  0  0  0
 18 41  1  0  0  0  0
M  CHG  1  11   1
M  END
> <s_m_source_file>
AV-unprocessed.smi

> <i_m_source_file_index>
3343

> <i_lp_mmshare_version>
43012

> <i_f3d_flags>
0

> <s_epik_input>
bjFbY0hdbltjSF1uMVtDQEhdKFtDSDNdKUMoPU8pW05IXVtDSDJdW0NIMl1OMltDSDJdW0NIMl1OKFtDSDNdKVtDSDJdW0NIMl0y

> <s_epik_cmdline>
J2VwaWtfcHl0aG9uJywgJy1waCcsICc3LjAnLCAnLXRuJywgJzgnLCAnLW1hJywgJzIwMCcsICctbWV0YWxfYmluZGluZycsICctaW1hZScsICc8aW5maWxlLm1hZT4nLCAnLW9tYWUnLCAnPG91dGZpbGUubWFlPic=

> <r_lp_tautomer_probability>
1

> <r_epik_Ionization_Penalty>
0.0359277

> <r_epik_Ionization_Penalty_Charging>
0.0358005

> <r_epik_Ionization_Penalty_Neutral>
0.000127293

> <r_epik_State_Penalty>
0.0476325

> <r_epik_Charging_Adjusted_Penalty>
0.0834329

> <i_epik_Tot_Q>
1

> <i_epik_Tot_abs_Q>
1

> <r_epik_Metal_State_Penalty>
0.0476323

> <b_epik_Metal_Only>
0

> <s_lp_Force_Field>
OPLS_2005

> <r_lp_Energy>
19.669

> <b_lp_Chiralities_Consistent>
1

> <s_lp_Variant>
AV-unprocessed.smi:3343-2

> <Gold.Version>
5.8.1

> <Gold.Id.Protein>
6NUR|6NUR_protein|mol2

> <Gold.PLP.Fitness>
46.3492

> <Gold.PLP.PLP>
-38.0758

> <Gold.PLP.part.hbond>
-2.5467

> <Gold.PLP.part.metal>
0.0000

> <Gold.PLP.part.buried>
-7.1377

> <Gold.PLP.part.nonpolar>
-29.7536

> <Gold.PLP.part.repulsive>
0.2350

> <Gold.PLP.ligand.clash>
0.0000

> <Gold.PLP.ligand.torsion>
0.3683

> <Gold.PLP.Chemscore.Hbond>
2.9760

> <Gold.PLP.Chemscore.CHOScore>
0.0000

> <Gold.PLP.Chemscore.Metal>
0.0000

> <Gold.Chemscore.Hbonds>
donor molecule, donor type, donor heavy atom, donor atom, acceptor molecule, acceptor atom, score
      L1  H     5    24       P1  8028  1.00
      L1  H    11    42       P1 10175  2.00

> <Gold.PLP.Chemscore.Internal.Correction>
0.0818

> <Gold.Rescore>
     Score         DG    S(hbond)    S(metal)    S(lipo)     H(rot)  DE(clash)    DE(int)     intcor
     10.76     -11.29       2.10        0.00      47.26       2.63       0.00       0.53       ----

> <Gold.Chemscore.Fitness>
10.7597

> <Gold.Chemscore.DG>
-11.2866

> <Gold.Chemscore.ZeroCoef>
-5.4800

> <Gold.Chemscore.Hbond>
2.0970

> <Gold.Chemscore.Metal>
0.0000

> <Gold.Chemscore.Lipo>
47.2633

> <Gold.Chemscore.Internal_Hbond>
0.0000

> <Gold.Chemscore.DEClash>
0.0000

> <Gold.Chemscore.DEInternal>
0.5269

> <Gold.Chemscore.Rot>
2.6278

> <Gold.Chemscore.Internal.Correction>
   9.000000E+99

> <Gold.Chemscore.Hbonds>
donor molecule, donor type, donor heavy atom, donor atom, acceptor molecule, acceptor atom, score
      L1  H     5    24       P1  8028  0.95
      L1  H    11    42       P1 10175  0.59

> <Gold.Chemscore.Hbond.Weighted>
-7.0039

> <Gold.Chemscore.Metal.Weighted>
-0.0000

> <Gold.Chemscore.Lipo.Weighted>
-5.5298

> <Gold.Chemscore.Internal_Hbond.Weighted>
0.0000

> <Gold.Chemscore.DEClash.Weighted>
0.0000

> <Gold.Chemscore.DEInternal.Weighted>
0.5269

> <Gold.Chemscore.Rot.Weighted>
6.7271

> <Gold.Chemscore.Internal.Correction.Weighted>
   9.000000E+99

> <Gold.Protein.RotatedTorsions>
[ 6907 6896 6895 6894 ] final  -17.96 input  -60.11 | X-H torsion
[ 7974 7965 7964 7962 ] final   61.23 input  175.53 | X-H torsion
[ 8008 7997 7996 7995 ] final  -61.17 input   59.86 | X-H torsion
[ 10167 10162 10161 10158 ] final  174.10 input  -65.29 | X-H torsion
[ 10718 10713 10712 10709 ] final   65.24 input   66.30 | X-H torsion
[ 10763 10752 10751 10750 ] final   50.94 input  -60.55 | X-H torsion
[ 11005 11000 10999 10996 ] final   38.22 input  -57.11 | X-H torsion

> <Gold.Protein.ActiveResidues>
 VAL166  LYS551  ARG553  GLY616  TRP617  ASP618  TYR619  PRO620  LYS621  CYS622 
 ASP623  PHE694  ASN695  SER759  ASP760  ASP761  ALA762  ILE779  LEU786  VAL792 
 PHE793  MET794  SER795  GLU796  ALA797  LYS798  CYS799  TRP800  GLU811  SER814 

> <Gold.Protein.RotatedAtoms>
  151.2853  135.0726  159.9184 H   0  0  0  0  0  0  0  0  0  0  0  0  # atno 6907 bound_to 6896
  152.5326  133.9988  159.7895 H   0  0  0  0  0  0  0  0  0  0  0  0  # atno 6908 bound_to 6896
  151.0248  133.5792  159.2698 H   0  0  0  0  0  0  0  0  0  0  0  0  # atno 6909 bound_to 6896
  145.8871  139.3484  143.0671 H   0  0  0  0  0  0  0  0  0  0  0  0  # atno 7974 bound_to 7965
  154.4434  140.1023  156.6388 H   0  0  0  0  0  0  0  0  0  0  0  0  # atno 8008 bound_to 7997
  155.5524  140.3486  155.4453 H   0  0  0  0  0  0  0  0  0  0  0  0  # atno 8009 bound_to 7997
  156.0519  140.1306  157.0029 H   0  0  0  0  0  0  0  0  0  0  0  0  # atno 8010 bound_to 7997
  139.5130  144.3185  152.0225 H   0  0  0  0  0  0  0  0  0  0  0  0  # atno 10167 bound_to 10162
  157.6092  130.9203  149.9950 H   0  0  0  0  0  0  0  0  0  0  0  0  # atno 10718 bound_to 10713
  152.9784  135.5862  154.4334 H   0  0  0  0  0  0  0  0  0  0  0  0  # atno 10763 bound_to 10752
  154.3944  135.2768  155.2137 H   0  0  0  0  0  0  0  0  0  0  0  0  # atno 10764 bound_to 10752
  154.3995  135.6107  153.5943 H   0  0  0  0  0  0  0  0  0  0  0  0  # atno 10765 bound_to 10752
  140.2148  134.3711  155.8032 H   0  0  0  0  0  0  0  0  0  0  0  0  # atno 11005 bound_to 11000
  145.8953  140.9278  143.0531 LP  0  0  0  0  0  0  0  0  0  0  0  0  # atno 17320 bound_to 7965
  144.6729  140.0960  143.7463 LP  0  0  0  0  0  0  0  0  0  0  0  0  # atno 17321 bound_to 7965
  140.2628  144.4049  150.6179 LP  0  0  0  0  0  0  0  0  0  0  0  0  # atno 17342 bound_to 10162
  140.6145  143.2171  151.6819 LP  0  0  0  0  0  0  0  0  0  0  0  0  # atno 17343 bound_to 10162
  156.1189  130.3646  149.9921 LP  0  0  0  0  0  0  0  0  0  0  0  0  # atno 17370 bound_to 10713
  156.8005  130.9289  151.3646 LP  0  0  0  0  0  0  0  0  0  0  0  0  # atno 17371 bound_to 10713
  141.2225  133.7162  156.8478 LP  0  0  0  0  0  0  0  0  0  0  0  0  # atno 17394 bound_to 11000
  140.1912  134.8964  157.3062 LP  0  0  0  0  0  0  0  0  0  0  0  0  # atno 17395 bound_to 11000

$$$$
