AV-unprocessed.smi:2583|AV-procd|sdf|10142|dock9
  -GOLD-   2272014153D 1   1.00000     0.00000
 Structure written by MMmdl.
 54 56  0  0  0  0  0  0  0  0  2 V2000
  153.0820  142.3899  161.3357 C   0  0  0  0  0  0  0  0  0  0  0  0
  152.2863  143.2973  160.4212 C   0  0  0  0  0  0  0  0  0  0  0  0
  152.1520  144.6737  160.6975 C   0  0  0  0  0  0  0  0  0  0  0  0
  151.4437  145.5188  159.9196 N   0  0  0  0  0  0  0  0  0  0  0  0
  150.8419  145.0134  158.8221 C   0  0  0  0  0  0  0  0  0  0  0  0
  150.9207  143.6574  158.4405 C   0  0  0  0  0  0  0  0  0  0  0  0
  150.2220  143.2510  157.2722 N   0  0  0  0  0  0  0  0  0  0  0  0
  150.4476  142.1771  156.4965 C   0  0  0  0  0  0  0  0  0  0  0  0
  151.3642  141.3703  156.6489 O   0  0  0  0  0  0  0  0  0  0  0  0
  149.5480  142.1015  155.5053 N   0  0  0  0  0  0  0  0  0  0  0  0
  149.4942  141.0654  154.4774 C   0  0  2  0  0  0  0  0  0  0  0  0
  148.1129  141.0715  153.7962 C   0  0  0  0  0  0  0  0  0  0  0  0
  147.9598  139.8757  152.8363 C   0  0  0  0  0  0  0  0  0  0  0  0
  148.1873  138.5753  153.5299 N   0  3  2  0  0  0  0  0  0  0  0  0
  147.1021  138.1586  154.4819 C   0  0  0  0  0  0  0  0  0  0  0  0
  147.3910  136.7867  155.1375 C   0  0  0  0  0  0  0  0  0  0  0  0
  146.2248  136.3035  156.0161 C   0  0  0  0  0  0  0  0  0  0  0  0
  145.0061  136.2005  155.2189 N   0  0  0  0  0  0  0  0  0  0  0  0
  143.9315  135.6689  156.0454 C   0  0  0  0  0  0  0  0  0  0  0  0
  144.6324  137.5244  154.7298 C   0  0  0  0  0  0  0  0  0  0  0  0
  145.7215  138.0664  153.7890 C   0  0  0  0  0  0  0  0  0  0  0  0
  149.5690  138.5562  154.0899 C   0  0  0  0  0  0  0  0  0  0  0  0
  149.7875  139.6915  155.1078 C   0  0  0  0  0  0  0  0  0  0  0  0
  151.6556  142.7789  159.2724 C   0  0  0  0  0  0  0  0  0  0  0  0
  153.5334  142.9493  162.1557 H   0  0  0  0  0  0  0  0  0  0  0  0
  153.8798  141.8979  160.7785 H   0  0  0  0  0  0  0  0  0  0  0  0
  152.4353  141.6217  161.7603 H   0  0  0  0  0  0  0  0  0  0  0  0
  152.6186  145.1098  161.5686 H   0  0  0  0  0  0  0  0  0  0  0  0
  150.2811  145.7184  158.2257 H   0  0  0  0  0  0  0  0  0  0  0  0
  149.4911  143.8767  156.9668 H   0  0  0  0  0  0  0  0  0  0  0  0
  148.8382  142.8182  155.4611 H   0  0  0  0  0  0  0  0  0  0  0  0
  150.2492  141.2466  153.7102 H   0  0  0  0  0  0  0  0  0  0  0  0
  147.3205  141.0506  154.5451 H   0  0  0  0  0  0  0  0  0  0  0  0
  147.9801  142.0022  153.2433 H   0  0  0  0  0  0  0  0  0  0  0  0
  147.0004  139.9070  152.3243 H   0  0  0  0  0  0  0  0  0  0  0  0
  148.6987  139.9680  152.0389 H   0  0  0  0  0  0  0  0  0  0  0  0
  147.0260  138.8975  155.2795 H   0  0  0  0  0  0  0  0  0  0  0  0
  147.6019  136.0412  154.3692 H   0  0  0  0  0  0  0  0  0  0  0  0
  148.2705  136.8380  155.7775 H   0  0  0  0  0  0  0  0  0  0  0  0
  146.4688  135.3265  156.4355 H   0  0  0  0  0  0  0  0  0  0  0  0
  146.0739  136.9836  156.8564 H   0  0  0  0  0  0  0  0  0  0  0  0
  143.0125  135.5776  155.4652 H   0  0  0  0  0  0  0  0  0  0  0  0
  143.7313  136.3115  156.9042 H   0  0  0  0  0  0  0  0  0  0  0  0
  144.1887  134.6754  156.4144 H   0  0  0  0  0  0  0  0  0  0  0  0
  143.6874  137.4586  154.1890 H   0  0  0  0  0  0  0  0  0  0  0  0
  144.4755  138.2088  155.5653 H   0  0  0  0  0  0  0  0  0  0  0  0
  145.3893  139.0461  153.4487 H   0  0  0  0  0  0  0  0  0  0  0  0
  145.7884  137.4313  152.9041 H   0  0  0  0  0  0  0  0  0  0  0  0
  149.8262  137.5904  154.5199 H   0  0  0  0  0  0  0  0  0  0  0  0
  150.2711  138.6836  153.2647 H   0  0  0  0  0  0  0  0  0  0  0  0
  150.8163  139.6653  155.4688 H   0  0  0  0  0  0  0  0  0  0  0  0
  149.1561  139.5327  155.9828 H   0  0  0  0  0  0  0  0  0  0  0  0
  151.7328  141.7233  159.0617 H   0  0  0  0  0  0  0  0  0  0  0  0
  148.1784  137.8732  152.8037 H   0  0  0  0  0  0  0  0  0  0  0  0
  1  2  1  0  0  0  0
  1 25  1  0  0  0  0
  1 26  1  0  0  0  0
  1 27  1  0  0  0  0
  2 24  1  0  0  0  0
  2  3  2  0  0  0  0
  3  4  1  0  0  0  0
  3 28  1  0  0  0  0
  4  5  2  0  0  0  0
  5  6  1  0  0  0  0
  5 29  1  0  0  0  0
  6  7  1  0  0  0  0
  6 24  2  0  0  0  0
  7  8  1  0  0  0  0
  7 30  1  0  0  0  0
  8  9  2  0  0  0  0
  8 10  1  0  0  0  0
 10 11  1  0  0  0  0
 10 31  1  0  0  0  0
 11 23  1  0  0  0  0
 11 12  1  0  0  0  0
 11 32  1  0  0  0  0
 12 13  1  0  0  0  0
 12 33  1  0  0  0  0
 12 34  1  0  0  0  0
 13 14  1  0  0  0  0
 13 35  1  0  0  0  0
 13 36  1  0  0  0  0
 14 15  1  0  0  0  0
 14 22  1  0  0  0  0
 14 54  1  0  0  0  0
 15 21  1  0  0  0  0
 15 16  1  0  0  0  0
 15 37  1  0  0  0  0
 16 17  1  0  0  0  0
 16 38  1  0  0  0  0
 16 39  1  0  0  0  0
 17 18  1  0  0  0  0
 17 40  1  0  0  0  0
 17 41  1  0  0  0  0
 18 19  1  0  0  0  0
 18 20  1  0  0  0  0
 19 42  1  0  0  0  0
 19 43  1  0  0  0  0
 19 44  1  0  0  0  0
 20 21  1  0  0  0  0
 20 45  1  0  0  0  0
 20 46  1  0  0  0  0
 21 47  1  0  0  0  0
 21 48  1  0  0  0  0
 22 23  1  0  0  0  0
 22 49  1  0  0  0  0
 22 50  1  0  0  0  0
 23 51  1  0  0  0  0
 23 52  1  0  0  0  0
 24 53  1  0  0  0  0
M  CHG  1  14   1
M  END
> <s_m_source_file>
AV-unprocessed.smi

> <i_m_source_file_index>
2583

> <i_lp_mmshare_version>
43012

> <i_f3d_flags>
0

> <s_epik_input>
W0NIM11jMVtjSF1uW2NIXWMoW2NIXTEpW05IXUMoPU8pW05IXVtDSF0yW0NIMl1bQ0gyXU4oW0NIMl1bQ0gyXTIpW0NIXTNbQ0gyXVtDSDJdTihbQ0gzXSlbQ0gyXVtDSDJdMw==

> <s_epik_cmdline>
J2VwaWtfcHl0aG9uJywgJy1waCcsICc3LjAnLCAnLXRuJywgJzgnLCAnLW1hJywgJzIwMCcsICctbWV0YWxfYmluZGluZycsICctaW1hZScsICc8aW5maWxlLm1hZT4nLCAnLW9tYWUnLCAnPG91dGZpbGUubWFlPic=

> <r_epik_Ionization_Penalty>
1.38006

> <r_epik_Ionization_Penalty_Charging>
0.00081195

> <r_epik_Ionization_Penalty_Neutral>
1.37925

> <r_epik_State_Penalty>
1.55585

> <r_epik_Charging_Adjusted_Penalty>
1.55666

> <i_epik_Tot_Q>
1

> <i_epik_Tot_abs_Q>
1

> <r_epik_Metal_State_Penalty>
1.55173

> <b_epik_Metal_Only>
0

> <s_lp_Force_Field>
OPLS_2005

> <r_lp_Energy>
35.4229

> <b_lp_Chiralities_Consistent>
1

> <s_lp_Variant>
AV-unprocessed.smi:2583-8

> <Gold.Version>
5.8.1

> <Gold.Id.Protein>
6NUR|6NUR_protein|mol2

> <Gold.PLP.Fitness>
48.9553

> <Gold.PLP.PLP>
-36.0485

> <Gold.PLP.part.hbond>
-3.7258

> <Gold.PLP.part.metal>
0.0000

> <Gold.PLP.part.buried>
2.1336

> <Gold.PLP.part.nonpolar>
-34.5262

> <Gold.PLP.part.repulsive>
0.4086

> <Gold.PLP.ligand.clash>
0.0000

> <Gold.PLP.ligand.torsion>
0.3837

> <Gold.PLP.Chemscore.Hbond>
3.5680

> <Gold.PLP.Chemscore.CHOScore>
0.9761

> <Gold.PLP.Chemscore.Metal>
0.0000

> <Gold.Chemscore.Hbonds>
donor molecule, donor type, donor heavy atom, donor atom, acceptor molecule, acceptor atom, score
      L1  H     7    30       P1  8028  0.91
      L1  H    10    31       P1  8028  0.67
      L1  H    14    54       P1  7948  2.00
      L1  C     5    29       P1  8029  0.95

> <Gold.PLP.Chemscore.Internal.Correction>
0.0421

> <Gold.Rescore>
     Score         DG    S(hbond)    S(metal)    S(lipo)     H(rot)  DE(clash)    DE(int)     intcor
     19.29     -23.99       2.71        0.00     107.02       1.19       1.75       2.95       ----

> <Gold.Chemscore.Fitness>
19.2881

> <Gold.Chemscore.DG>
-23.9892

> <Gold.Chemscore.ZeroCoef>
-5.4800

> <Gold.Chemscore.Hbond>
2.7056

> <Gold.Chemscore.Metal>
0.0000

> <Gold.Chemscore.Lipo>
107.0206

> <Gold.Chemscore.Internal_Hbond>
0.0000

> <Gold.Chemscore.DEClash>
1.7507

> <Gold.Chemscore.DEInternal>
2.9505

> <Gold.Chemscore.Rot>
1.1910

> <Gold.Chemscore.Internal.Correction>
   9.000000E+99

> <Gold.Chemscore.Hbonds>
donor molecule, donor type, donor heavy atom, donor atom, acceptor molecule, acceptor atom, score
      L1  H     7    30       P1  8028  0.69
      L1  H    10    31       P1  8028  0.68
      L1  H    14    54       P1  7948  0.90

> <Gold.Chemscore.Hbond.Weighted>
-9.0367

> <Gold.Chemscore.Metal.Weighted>
-0.0000

> <Gold.Chemscore.Lipo.Weighted>
-12.5214

> <Gold.Chemscore.Internal_Hbond.Weighted>
0.0000

> <Gold.Chemscore.DEClash.Weighted>
1.7507

> <Gold.Chemscore.DEInternal.Weighted>
2.9505

> <Gold.Chemscore.Rot.Weighted>
3.0489

> <Gold.Chemscore.Internal.Correction.Weighted>
   9.000000E+99

> <Gold.Protein.RotatedTorsions>
[ 6907 6896 6895 6894 ] final    7.83 input  -60.11 | X-H torsion
[ 7974 7965 7964 7962 ] final   21.88 input  175.53 | X-H torsion
[ 8008 7997 7996 7995 ] final -133.96 input   59.86 | X-H torsion
[ 10167 10162 10161 10158 ] final  151.84 input  -65.29 | X-H torsion
[ 10718 10713 10712 10709 ] final  151.88 input   66.30 | X-H torsion
[ 10763 10752 10751 10750 ] final  132.92 input  -60.55 | X-H torsion
[ 11005 11000 10999 10996 ] final  -32.48 input  -57.11 | X-H torsion

> <Gold.Protein.ActiveResidues>
 VAL166  LYS551  ARG553  GLY616  TRP617  ASP618  TYR619  PRO620  LYS621  CYS622 
 ASP623  PHE694  ASN695  SER759  ASP760  ASP761  ALA762  ILE779  LEU786  VAL792 
 PHE793  MET794  SER795  GLU796  ALA797  LYS798  CYS799  TRP800  GLU811  SER814 

> <Gold.Protein.RotatedAtoms>
  151.6961  135.0938  160.0242 H   0  0  0  0  0  0  0  0  0  0  0  0  # atno 6907 bound_to 6896
  152.3749  133.6463  159.6124 H   0  0  0  0  0  0  0  0  0  0  0  0  # atno 6908 bound_to 6896
  150.7701  133.9126  159.3415 H   0  0  0  0  0  0  0  0  0  0  0  0  # atno 6909 bound_to 6896
  146.2052  139.7964  142.8731 H   0  0  0  0  0  0  0  0  0  0  0  0  # atno 7974 bound_to 7965
  155.3542  140.0479  157.3046 H   0  0  0  0  0  0  0  0  0  0  0  0  # atno 8008 bound_to 7997
  154.5211  140.2225  155.8938 H   0  0  0  0  0  0  0  0  0  0  0  0  # atno 8009 bound_to 7997
  156.1690  140.3100  155.8947 H   0  0  0  0  0  0  0  0  0  0  0  0  # atno 8010 bound_to 7997
  139.4837  144.5407  151.7568 H   0  0  0  0  0  0  0  0  0  0  0  0  # atno 10167 bound_to 10162
  157.2650  131.0805  151.1640 H   0  0  0  0  0  0  0  0  0  0  0  0  # atno 10718 bound_to 10713
  153.7987  135.3145  155.3387 H   0  0  0  0  0  0  0  0  0  0  0  0  # atno 10763 bound_to 10752
  154.8097  135.4675  154.0488 H   0  0  0  0  0  0  0  0  0  0  0  0  # atno 10764 bound_to 10752
  153.1829  135.6896  153.8541 H   0  0  0  0  0  0  0  0  0  0  0  0  # atno 10765 bound_to 10752
  140.9555  133.7195  156.1287 H   0  0  0  0  0  0  0  0  0  0  0  0  # atno 11005 bound_to 11000
  145.3343  141.0273  143.3428 LP  0  0  0  0  0  0  0  0  0  0  0  0  # atno 17320 bound_to 7965
  144.8777  139.4948  143.6738 LP  0  0  0  0  0  0  0  0  0  0  0  0  # atno 17321 bound_to 7965
  140.4947  144.1259  150.5957 LP  0  0  0  0  0  0  0  0  0  0  0  0  # atno 17342 bound_to 10162
  140.4131  143.2647  151.9808 LP  0  0  0  0  0  0  0  0  0  0  0  0  # atno 17343 bound_to 10162
  157.3134  130.6901  149.6228 LP  0  0  0  0  0  0  0  0  0  0  0  0  # atno 17370 bound_to 10713
  155.9663  130.4357  150.5101 LP  0  0  0  0  0  0  0  0  0  0  0  0  # atno 17371 bound_to 10713
  140.7542  134.4011  157.5536 LP  0  0  0  0  0  0  0  0  0  0  0  0  # atno 17394 bound_to 11000
  139.8861  134.8919  156.2605 LP  0  0  0  0  0  0  0  0  0  0  0  0  # atno 17395 bound_to 11000

$$$$
