AV-unprocessed.smi:2559|AV-procd|sdf|10036|dock4
  -GOLD-   2272014 83D 1   1.00000     0.00000
 Structure written by MMmdl.
 43 45  0  0  0  0  0  0  0  0  2 V2000
  153.3286  138.0600  158.9853 C   0  0  0  0  0  0  0  0  0  0  0  0
  152.6759  138.3242  157.6994 N   0  0  0  0  0  0  0  0  0  0  0  0
  152.5982  137.3545  156.7354 C   0  0  0  0  0  0  0  0  0  0  0  0
  153.0892  136.2506  156.9747 O   0  0  0  0  0  0  0  0  0  0  0  0
  151.9790  137.6302  155.5361 N   0  5  0  0  0  0  0  0  0  0  0  0
  151.3976  138.8200  155.1831 C   0  0  0  0  0  0  0  0  0  0  0  0
  150.8303  139.0673  154.1217 O   0  0  0  0  0  0  0  0  0  0  0  0
  151.5092  139.8386  156.2539 C   0  0  0  0  0  0  0  0  0  0  0  0
  152.1074  139.6036  157.4535 C   0  0  0  0  0  0  0  0  0  0  0  0
  152.0327  140.7139  158.2789 N   0  0  0  0  0  0  0  0  0  0  0  0
  151.3981  141.6099  157.5215 C   0  0  0  0  0  0  0  0  0  0  0  0
  151.0874  142.8960  157.9693 N   0  0  0  0  0  0  0  0  0  0  0  0
  149.8484  143.3023  158.6339 C   0  0  0  0  0  0  0  0  0  0  0  0
  150.1284  144.1095  159.9142 C   0  0  0  0  0  0  0  0  0  0  0  0
  150.9695  145.3515  159.5902 C   0  0  0  0  0  0  0  0  0  0  0  0
  152.2166  144.9487  158.7902 C   0  0  0  0  0  0  0  0  0  0  0  0
  151.8326  144.0896  157.5713 C   0  0  0  0  0  0  0  0  0  0  0  0
  151.0326  141.1559  156.2907 N   0  0  0  0  0  0  0  0  0  0  0  0
  150.2644  141.8670  155.2666 C   0  0  0  0  0  0  0  0  0  0  0  0
  149.0474  141.0575  154.7770 C   0  0  2  0  0  0  0  0  0  0  0  0
  148.8940  141.2431  153.3832 O   0  0  0  0  0  0  0  0  0  0  0  0
  147.7514  141.4947  155.4802 C   0  0  0  0  0  0  0  0  0  0  0  0
  147.2570  142.6852  154.9035 O   0  0  0  0  0  0  0  0  0  0  0  0
  154.3424  137.6863  158.8352 H   0  0  0  0  0  0  0  0  0  0  0  0
  152.7689  137.3115  159.5468 H   0  0  0  0  0  0  0  0  0  0  0  0
  153.4049  138.9502  159.6090 H   0  0  0  0  0  0  0  0  0  0  0  0
  149.2648  143.9086  157.9399 H   0  0  0  0  0  0  0  0  0  0  0  0
  149.2284  142.4334  158.8505 H   0  0  0  0  0  0  0  0  0  0  0  0
  149.1905  144.4067  160.3837 H   0  0  0  0  0  0  0  0  0  0  0  0
  150.6546  143.4885  160.6390 H   0  0  0  0  0  0  0  0  0  0  0  0
  150.3730  146.0533  159.0060 H   0  0  0  0  0  0  0  0  0  0  0  0
  151.2544  145.8686  160.5067 H   0  0  0  0  0  0  0  0  0  0  0  0
  152.7551  145.8393  158.4655 H   0  0  0  0  0  0  0  0  0  0  0  0
  152.8997  144.3897  159.4309 H   0  0  0  0  0  0  0  0  0  0  0  0
  152.7365  143.7936  157.0378 H   0  0  0  0  0  0  0  0  0  0  0  0
  151.2342  144.6714  156.8690 H   0  0  0  0  0  0  0  0  0  0  0  0
  149.9373  142.8226  155.6651 H   0  0  0  0  0  0  0  0  0  0  0  0
  150.9052  142.1385  154.4317 H   0  0  0  0  0  0  0  0  0  0  0  0
  149.2281  139.9993  154.9678 H   0  0  0  0  0  0  0  0  0  0  0  0
  149.1656  140.4522  152.9429 H   0  0  0  0  0  0  0  0  0  0  0  0
  146.9804  140.7334  155.3579 H   0  0  0  0  0  0  0  0  0  0  0  0
  147.9032  141.6270  156.5523 H   0  0  0  0  0  0  0  0  0  0  0  0
  147.7977  143.4042  155.1918 H   0  0  0  0  0  0  0  0  0  0  0  0
  1  2  1  0  0  0  0
  1 24  1  0  0  0  0
  1 25  1  0  0  0  0
  1 26  1  0  0  0  0
  2  9  1  0  0  0  0
  2  3  1  0  0  0  0
  3  4  2  0  0  0  0
  3  5  1  0  0  0  0
  5  6  1  0  0  0  0
  6  7  2  0  0  0  0
  6  8  1  0  0  0  0
  8 18  1  0  0  0  0
  8  9  2  0  0  0  0
  9 10  1  0  0  0  0
 10 11  2  0  0  0  0
 11 12  1  0  0  0  0
 11 18  1  0  0  0  0
 12 17  1  0  0  0  0
 12 13  1  0  0  0  0
 13 14  1  0  0  0  0
 13 27  1  0  0  0  0
 13 28  1  0  0  0  0
 14 15  1  0  0  0  0
 14 29  1  0  0  0  0
 14 30  1  0  0  0  0
 15 16  1  0  0  0  0
 15 31  1  0  0  0  0
 15 32  1  0  0  0  0
 16 17  1  0  0  0  0
 16 33  1  0  0  0  0
 16 34  1  0  0  0  0
 17 35  1  0  0  0  0
 17 36  1  0  0  0  0
 18 19  1  0  0  0  0
 19 20  1  0  0  0  0
 19 37  1  0  0  0  0
 19 38  1  0  0  0  0
 20 21  1  0  0  0  0
 20 22  1  0  0  0  0
 20 39  1  0  0  0  0
 21 40  1  0  0  0  0
 22 23  1  0  0  0  0
 22 41  1  0  0  0  0
 22 42  1  0  0  0  0
 23 43  1  0  0  0  0
M  CHG  1   5  -1
M  END
> <s_m_source_file>
AV-unprocessed.smi

> <i_m_source_file_index>
2559

> <i_lp_mmshare_version>
43012

> <i_f3d_flags>
0

> <s_epik_input>
Tz1jMVtuSF1jKD1PKW4oW0NIM10pYyhjMTIpbmMobjJbQ0gyXVtDQEhdKFtPSF0pW0NIMl1bT0hdKU4zW0NIMl1bQ0gyXVtDSDJdW0NIMl1bQ0gyXTM=

> <s_epik_cmdline>
J2VwaWtfcHl0aG9uJywgJy1waCcsICc3LjAnLCAnLXRuJywgJzgnLCAnLW1hJywgJzIwMCcsICctbWV0YWxfYmluZGluZycsICctaW1hZScsICc8aW5maWxlLm1hZT4nLCAnLW9tYWUnLCAnPG91dGZpbGUubWFlPic=

> <r_lp_tautomer_probability>
1

> <r_epik_Ionization_Penalty>
5.90509

> <r_epik_Ionization_Penalty_Charging>
0.0759636

> <r_epik_Ionization_Penalty_Neutral>
5.82913

> <r_epik_State_Penalty>
5.18635

> <r_epik_Charging_Adjusted_Penalty>
5.26231

> <i_epik_Tot_Q>
-1

> <i_epik_Tot_abs_Q>
1

> <r_epik_Metal_State_Penalty>
1.25614

> <b_epik_Metal_Only>
1

> <s_lp_Force_Field>
OPLS_2005

> <r_lp_Energy>
44.2417

> <b_lp_Chiralities_Consistent>
1

> <s_lp_Variant>
AV-unprocessed.smi:2559-3

> <Gold.Version>
5.8.1

> <Gold.Id.Protein>
6NUR|6NUR_protein|mol2

> <Gold.PLP.Fitness>
50.9934

> <Gold.PLP.PLP>
-40.8847

> <Gold.PLP.part.hbond>
-6.2499

> <Gold.PLP.part.metal>
0.0000

> <Gold.PLP.part.buried>
-3.8754

> <Gold.PLP.part.nonpolar>
-32.5510

> <Gold.PLP.part.repulsive>
0.2240

> <Gold.PLP.ligand.clash>
0.0000

> <Gold.PLP.ligand.torsion>
2.2347

> <Gold.PLP.Chemscore.Hbond>
4.6400

> <Gold.PLP.Chemscore.CHOScore>
0.0000

> <Gold.PLP.Chemscore.Metal>
0.0000

> <Gold.Chemscore.Hbonds>
donor molecule, donor type, donor heavy atom, donor atom, acceptor molecule, acceptor atom, score
      L1  H    21    40       P1  7957  0.67
      L1  H    23    43       P1  8028  1.00
      P1  H  7989  7998       L1     7  0.93
      P1  H  8011  8017       L1    21  0.83
      P1  H 10752 10765       L1     4  1.00

> <Gold.PLP.Chemscore.Internal.Correction>
0.6581

> <Gold.Rescore>
     Score         DG    S(hbond)    S(metal)    S(lipo)     H(rot)  DE(clash)    DE(int)     intcor
     12.57     -19.36       3.54        0.00      81.74       2.93       3.22       3.56       ----

> <Gold.Chemscore.Fitness>
12.5731

> <Gold.Chemscore.DG>
-19.3583

> <Gold.Chemscore.ZeroCoef>
-5.4800

> <Gold.Chemscore.Hbond>
3.5399

> <Gold.Chemscore.Metal>
0.0000

> <Gold.Chemscore.Lipo>
81.7391

> <Gold.Chemscore.Internal_Hbond>
0.0000

> <Gold.Chemscore.DEClash>
3.2247

> <Gold.Chemscore.DEInternal>
3.5605

> <Gold.Chemscore.Rot>
2.9330

> <Gold.Chemscore.Internal.Correction>
   9.000000E+99

> <Gold.Chemscore.Hbonds>
donor molecule, donor type, donor heavy atom, donor atom, acceptor molecule, acceptor atom, score
      L1  H    21    40       P1  7957  0.66
      L1  H    23    43       P1  8028  0.45
      P1  H  7989  7998       L1     7  0.44
      P1  H  8011  8017       L1    21  0.14
      P1  H 10752 10765       L1     4  0.83

> <Gold.Chemscore.Hbond.Weighted>
-11.8232

> <Gold.Chemscore.Metal.Weighted>
-0.0000

> <Gold.Chemscore.Lipo.Weighted>
-9.5635

> <Gold.Chemscore.Internal_Hbond.Weighted>
0.0000

> <Gold.Chemscore.DEClash.Weighted>
3.2247

> <Gold.Chemscore.DEInternal.Weighted>
3.5605

> <Gold.Chemscore.Rot.Weighted>
7.5084

> <Gold.Chemscore.Internal.Correction.Weighted>
   9.000000E+99

> <Gold.Protein.RotatedTorsions>
[ 6907 6896 6895 6894 ] final  -98.83 input  -60.11 | X-H torsion
[ 7974 7965 7964 7962 ] final  168.24 input  175.53 | X-H torsion
[ 8008 7997 7996 7995 ] final  108.85 input   59.86 | X-H torsion
[ 10167 10162 10161 10158 ] final   82.98 input  -65.29 | X-H torsion
[ 10718 10713 10712 10709 ] final  133.26 input   66.30 | X-H torsion
[ 10763 10752 10751 10750 ] final -106.87 input  -60.55 | X-H torsion
[ 11005 11000 10999 10996 ] final -126.23 input  -57.11 | X-H torsion

> <Gold.Protein.ActiveResidues>
 VAL166  LYS551  ARG553  GLY616  TRP617  ASP618  TYR619  PRO620  LYS621  CYS622 
 ASP623  PHE694  ASN695  SER759  ASP760  ASP761  ALA762  ILE779  LEU786  VAL792 
 PHE793  MET794  SER795  GLU796  ALA797  LYS798  CYS799  TRP800  GLU811  SER814 

> <Gold.Protein.RotatedAtoms>
  150.7059  134.1135  159.4008 H   0  0  0  0  0  0  0  0  0  0  0  0  # atno 6907 bound_to 6896
  151.9121  135.0332  160.0524 H   0  0  0  0  0  0  0  0  0  0  0  0  # atno 6908 bound_to 6896
  152.2327  133.5035  159.5261 H   0  0  0  0  0  0  0  0  0  0  0  0  # atno 6909 bound_to 6896
  144.7395  139.8879  143.6401 H   0  0  0  0  0  0  0  0  0  0  0  0  # atno 7974 bound_to 7965
  156.1935  140.3069  155.9379 H   0  0  0  0  0  0  0  0  0  0  0  0  # atno 8008 bound_to 7997
  155.3120  140.0451  157.3052 H   0  0  0  0  0  0  0  0  0  0  0  0  # atno 8009 bound_to 7997
  154.5480  140.2282  155.8540 H   0  0  0  0  0  0  0  0  0  0  0  0  # atno 8010 bound_to 7997
  139.9232  144.6200  150.8419 H   0  0  0  0  0  0  0  0  0  0  0  0  # atno 10167 bound_to 10162
  157.4791  131.1085  150.9705 H   0  0  0  0  0  0  0  0  0  0  0  0  # atno 10718 bound_to 10713
  154.8040  135.4696  154.0345 H   0  0  0  0  0  0  0  0  0  0  0  0  # atno 10763 bound_to 10752
  153.1829  135.6843  153.8461 H   0  0  0  0  0  0  0  0  0  0  0  0  # atno 10764 bound_to 10752
  153.8006  135.3230  155.3367 H   0  0  0  0  0  0  0  0  0  0  0  0  # atno 10765 bound_to 10752
  140.9698  134.0821  157.3881 H   0  0  0  0  0  0  0  0  0  0  0  0  # atno 11005 bound_to 11000
  146.1164  139.4175  143.0256 LP  0  0  0  0  0  0  0  0  0  0  0  0  # atno 17320 bound_to 7965
  145.7369  141.0022  143.1322 LP  0  0  0  0  0  0  0  0  0  0  0  0  # atno 17321 bound_to 7965
  140.7657  143.3282  151.2468 LP  0  0  0  0  0  0  0  0  0  0  0  0  # atno 17342 bound_to 10162
  139.6844  143.9798  152.2826 LP  0  0  0  0  0  0  0  0  0  0  0  0  # atno 17343 bound_to 10162
  157.0445  130.5762  149.5361 LP  0  0  0  0  0  0  0  0  0  0  0  0  # atno 17370 bound_to 10713
  156.0112  130.5203  150.7993 LP  0  0  0  0  0  0  0  0  0  0  0  0  # atno 17371 bound_to 10713
  139.8908  135.0114  156.6756 LP  0  0  0  0  0  0  0  0  0  0  0  0  # atno 17394 bound_to 11000
  140.7346  133.9030  155.8235 LP  0  0  0  0  0  0  0  0  0  0  0  0  # atno 17395 bound_to 11000

$$$$
