AV-unprocessed.smi:2217|AV-procd|sdf|8974|dock8
  -GOLD-   2272012183D 1   1.00000     0.00000
 Structure written by MMmdl.
 45 48  0  0  0  0  0  0  0  0  1 V2000
  149.2433  129.7816  154.8648 C   0  0  0  0  0  0  0  0  0  0  0  0
  149.0319  131.2772  154.7586 C   0  0  0  0  0  0  0  0  0  0  0  0
  148.5075  131.8594  153.5891 C   0  0  0  0  0  0  0  0  0  0  0  0
  148.3346  133.2563  153.5451 C   0  0  0  0  0  0  0  0  0  0  0  0
  148.6860  134.0404  154.6672 C   0  0  0  0  0  0  0  0  0  0  0  0
  148.4752  135.4414  154.4992 N   0  0  0  0  0  0  0  0  0  0  0  0
  148.6890  136.4813  155.3337 C   0  0  0  0  0  0  0  0  0  0  0  0
  149.1454  136.3103  156.4628 O   0  0  0  0  0  0  0  0  0  0  0  0
  148.3780  137.6949  154.8554 N   0  0  0  0  0  0  0  0  0  0  0  0
  148.4998  138.9541  155.5953 C   0  0  2  0  0  0  0  0  0  0  0  0
  147.9849  140.1754  154.8277 C   0  0  2  0  0  0  0  0  0  0  0  0
  147.0561  140.3988  153.6891 C   0  0  0  0  0  0  0  0  0  0  0  0
  147.9035  141.4680  152.9501 C   0  0  0  0  0  0  0  0  0  0  0  0
  149.1912  141.4869  153.6170 O   0  0  0  0  0  0  0  0  0  0  0  0
  149.3316  140.1777  154.1343 C   0  0  1  0  0  0  0  0  0  0  0  0
  149.9120  139.6453  155.4665 C   0  0  0  0  0  0  0  0  0  0  0  0
  150.3033  140.6952  156.5264 C   0  0  0  0  0  0  0  0  0  0  0  0
  151.6629  140.3064  157.1081 C   0  0  0  0  0  0  0  0  0  0  0  0
  152.3166  139.4758  156.0139 C   0  0  0  0  0  0  0  0  0  0  0  0
  151.1449  138.7360  155.3746 C   0  0  0  0  0  0  0  0  0  0  0  0
  149.1949  133.4668  155.7878 N   0  0  0  0  0  0  0  0  0  0  0  0
  149.3608  132.1283  155.8306 C   0  0  0  0  0  0  0  0  0  0  0  0
  148.7625  129.2548  154.0398 H   0  0  0  0  0  0  0  0  0  0  0  0
  148.8252  129.4039  155.7984 H   0  0  0  0  0  0  0  0  0  0  0  0
  150.3082  129.5490  154.8458 H   0  0  0  0  0  0  0  0  0  0  0  0
  148.2417  131.2503  152.7375 H   0  0  0  0  0  0  0  0  0  0  0  0
  147.9338  133.7178  152.6541 H   0  0  0  0  0  0  0  0  0  0  0  0
  148.1437  135.7045  153.5827 H   0  0  0  0  0  0  0  0  0  0  0  0
  148.0095  137.7499  153.9161 H   0  0  0  0  0  0  0  0  0  0  0  0
  148.1391  138.8979  156.6236 H   0  0  0  0  0  0  0  0  0  0  0  0
  147.8837  141.0034  155.5367 H   0  0  0  0  0  0  0  0  0  0  0  0
  146.9173  139.5005  153.0861 H   0  0  0  0  0  0  0  0  0  0  0  0
  146.0824  140.7758  154.0026 H   0  0  0  0  0  0  0  0  0  0  0  0
  148.0241  141.2066  151.8979 H   0  0  0  0  0  0  0  0  0  0  0  0
  147.4490  142.4577  153.0033 H   0  0  0  0  0  0  0  0  0  0  0  0
  149.4209  139.4539  153.3173 H   0  0  0  0  0  0  0  0  0  0  0  0
  150.3833  141.6808  156.0660 H   0  0  0  0  0  0  0  0  0  0  0  0
  149.5593  140.7818  157.3190 H   0  0  0  0  0  0  0  0  0  0  0  0
  152.2616  141.1705  157.3978 H   0  0  0  0  0  0  0  0  0  0  0  0
  151.5169  139.6890  157.9956 H   0  0  0  0  0  0  0  0  0  0  0  0
  152.7806  140.1351  155.2792 H   0  0  0  0  0  0  0  0  0  0  0  0
  153.0853  138.8028  156.3947 H   0  0  0  0  0  0  0  0  0  0  0  0
  150.9679  137.8118  155.9264 H   0  0  0  0  0  0  0  0  0  0  0  0
  151.3758  138.4482  154.3483 H   0  0  0  0  0  0  0  0  0  0  0  0
  149.7685  131.7280  156.7472 H   0  0  0  0  0  0  0  0  0  0  0  0
  1  2  1  0  0  0  0
  1 23  1  0  0  0  0
  1 24  1  0  0  0  0
  1 25  1  0  0  0  0
  2 22  1  0  0  0  0
  2  3  2  0  0  0  0
  3  4  1  0  0  0  0
  3 26  1  0  0  0  0
  4  5  2  0  0  0  0
  4 27  1  0  0  0  0
  5  6  1  0  0  0  0
  5 21  1  0  0  0  0
  6  7  1  0  0  0  0
  6 28  1  0  0  0  0
  7  8  2  0  0  0  0
  7  9  1  0  0  0  0
  9 10  1  0  0  0  0
  9 29  1  0  0  0  0
 10 16  1  0  0  0  0
 10 11  1  0  0  0  0
 10 30  1  0  0  0  0
 11 15  1  0  0  0  0
 11 12  1  0  0  0  0
 11 31  1  0  0  0  0
 12 13  1  0  0  0  0
 12 32  1  0  0  0  0
 12 33  1  0  0  0  0
 13 14  1  0  0  0  0
 13 34  1  0  0  0  0
 13 35  1  0  0  0  0
 14 15  1  0  0  0  0
 15 16  1  0  0  0  0
 15 36  1  0  0  0  0
 16 20  1  0  0  0  0
 16 17  1  0  0  0  0
 17 18  1  0  0  0  0
 17 37  1  0  0  0  0
 17 38  1  0  0  0  0
 18 19  1  0  0  0  0
 18 39  1  0  0  0  0
 18 40  1  0  0  0  0
 19 20  1  0  0  0  0
 19 41  1  0  0  0  0
 19 42  1  0  0  0  0
 20 43  1  0  0  0  0
 20 44  1  0  0  0  0
 21 22  2  0  0  0  0
 22 45  1  0  0  0  0
M  END
> <s_m_source_file>
AV-unprocessed.smi

> <i_m_source_file_index>
2217

> <i_lp_mmshare_version>
43012

> <i_f3d_flags>
0

> <s_epik_input>
W0NIM11jMVtjSF1bY0hdYyhuW2NIXTEpW05IXUMoPU8pW05IXVtDQEBIXTJbQ0BASF0oW0NIMl1bQ0gyXU8zKVtDQEhdM0MyNFtDSDJdW0NIMl1bQ0gyXVtDSDJdNA==

> <s_epik_cmdline>
J2VwaWtfcHl0aG9uJywgJy1waCcsICc3LjAnLCAnLXRuJywgJzgnLCAnLW1hJywgJzIwMCcsICctbWV0YWxfYmluZGluZycsICctaW1hZScsICc8aW5maWxlLm1hZT4nLCAnLW9tYWUnLCAnPG91dGZpbGUubWFlPic=

> <r_lp_tautomer_probability>
1

> <r_epik_Ionization_Penalty>
6.14796e-05

> <r_epik_Ionization_Penalty_Charging>
0

> <r_epik_Ionization_Penalty_Neutral>
6.14796e-05

> <r_epik_State_Penalty>
-0

> <r_epik_Charging_Adjusted_Penalty>
0

> <i_epik_Tot_Q>
0

> <i_epik_Tot_abs_Q>
0

> <r_epik_Metal_State_Penalty>
-0

> <b_epik_Metal_Only>
0

> <s_lp_Force_Field>
OPLS_2005

> <r_lp_Energy>
82.2768

> <b_lp_Chiralities_Consistent>
1

> <s_lp_Variant>
AV-unprocessed.smi:2217-7

> <Gold.Version>
5.8.1

> <Gold.Id.Protein>
6NUR|6NUR_protein|mol2

> <Gold.PLP.Fitness>
37.0250

> <Gold.PLP.PLP>
-33.4438

> <Gold.PLP.part.hbond>
-2.0000

> <Gold.PLP.part.metal>
0.0000

> <Gold.PLP.part.buried>
-2.8781

> <Gold.PLP.part.nonpolar>
-28.8045

> <Gold.PLP.part.repulsive>
0.2214

> <Gold.PLP.ligand.clash>
0.0000

> <Gold.PLP.ligand.torsion>
0.1942

> <Gold.PLP.Chemscore.Hbond>
1.2320

> <Gold.PLP.Chemscore.CHOScore>
0.0000

> <Gold.PLP.Chemscore.Metal>
0.0000

> <Gold.Chemscore.Hbonds>
donor molecule, donor type, donor heavy atom, donor atom, acceptor molecule, acceptor atom, score
      L1  H     6    28       P1  7948  0.72
      P1  H  8011  8017       L1    14  0.37

> <Gold.PLP.Chemscore.Internal.Correction>
0.2736

> <Gold.Rescore>
     Score         DG    S(hbond)    S(metal)    S(lipo)     H(rot)  DE(clash)    DE(int)     intcor
     14.64     -16.60       1.33        0.00      79.10       1.00       0.50       1.46       ----

> <Gold.Chemscore.Fitness>
14.6369

> <Gold.Chemscore.DG>
-16.6005

> <Gold.Chemscore.ZeroCoef>
-5.4800

> <Gold.Chemscore.Hbond>
1.3251

> <Gold.Chemscore.Metal>
0.0000

> <Gold.Chemscore.Lipo>
79.0997

> <Gold.Chemscore.Internal_Hbond>
0.0000

> <Gold.Chemscore.DEClash>
0.5035

> <Gold.Chemscore.DEInternal>
1.4601

> <Gold.Chemscore.Rot>
1.0000

> <Gold.Chemscore.Internal.Correction>
   9.000000E+99

> <Gold.Chemscore.Hbonds>
donor molecule, donor type, donor heavy atom, donor atom, acceptor molecule, acceptor atom, score
      L1  H     6    28       P1  7948  0.71
      P1  H  8011  8017       L1    14  0.01

> <Gold.Chemscore.Hbond.Weighted>
-4.4259

> <Gold.Chemscore.Metal.Weighted>
-0.0000

> <Gold.Chemscore.Lipo.Weighted>
-9.2547

> <Gold.Chemscore.Internal_Hbond.Weighted>
0.0000

> <Gold.Chemscore.DEClash.Weighted>
0.5035

> <Gold.Chemscore.DEInternal.Weighted>
1.4601

> <Gold.Chemscore.Rot.Weighted>
2.5600

> <Gold.Chemscore.Internal.Correction.Weighted>
   9.000000E+99

> <Gold.Protein.RotatedTorsions>
[ 6907 6896 6895 6894 ] final  -41.33 input  -60.11 | X-H torsion
[ 7974 7965 7964 7962 ] final  117.02 input  175.53 | X-H torsion
[ 8008 7997 7996 7995 ] final -170.65 input   59.86 | X-H torsion
[ 10167 10162 10161 10158 ] final  -90.90 input  -65.29 | X-H torsion
[ 10718 10713 10712 10709 ] final  -34.96 input   66.30 | X-H torsion
[ 10763 10752 10751 10750 ] final -119.15 input  -60.55 | X-H torsion
[ 11005 11000 10999 10996 ] final  126.53 input  -57.11 | X-H torsion

> <Gold.Protein.ActiveResidues>
 VAL166  LYS551  ARG553  GLY616  TRP617  ASP618  TYR619  PRO620  LYS621  CYS622 
 ASP623  PHE694  ASN695  SER759  ASP760  ASP761  ALA762  ILE779  LEU786  VAL792 
 PHE793  MET794  SER795  GLU796  ALA797  LYS798  CYS799  TRP800  GLU811  SER814 

> <Gold.Protein.RotatedAtoms>
  150.9680  134.9058  159.7770 H   0  0  0  0  0  0  0  0  0  0  0  0  # atno 6907 bound_to 6896
  152.5180  134.3580  159.9284 H   0  0  0  0  0  0  0  0  0  0  0  0  # atno 6908 bound_to 6896
  151.3590  133.3856  159.2722 H   0  0  0  0  0  0  0  0  0  0  0  0  # atno 6909 bound_to 6896
  145.1724  139.3094  143.4460 H   0  0  0  0  0  0  0  0  0  0  0  0  # atno 7974 bound_to 7965
  155.9212  140.1074  157.1205 H   0  0  0  0  0  0  0  0  0  0  0  0  # atno 8008 bound_to 7997
  154.4054  140.1255  156.4746 H   0  0  0  0  0  0  0  0  0  0  0  0  # atno 8009 bound_to 7997
  155.7194  140.3470  155.5011 H   0  0  0  0  0  0  0  0  0  0  0  0  # atno 8010 bound_to 7997
  140.3502  143.2895  151.9734 H   0  0  0  0  0  0  0  0  0  0  0  0  # atno 10167 bound_to 10162
  156.3443  130.4298  149.7760 H   0  0  0  0  0  0  0  0  0  0  0  0  # atno 10718 bound_to 10713
  154.8609  135.4248  154.2254 H   0  0  0  0  0  0  0  0  0  0  0  0  # atno 10763 bound_to 10752
  153.3250  135.6984  153.7003 H   0  0  0  0  0  0  0  0  0  0  0  0  # atno 10764 bound_to 10752
  153.6043  135.3531  155.2930 H   0  0  0  0  0  0  0  0  0  0  0  0  # atno 10765 bound_to 10752
  139.9461  134.9629  156.8721 H   0  0  0  0  0  0  0  0  0  0  0  0  # atno 11005 bound_to 11000
  146.3466  140.1875  142.8589 LP  0  0  0  0  0  0  0  0  0  0  0  0  # atno 17320 bound_to 7965
  145.0219  140.8800  143.5162 LP  0  0  0  0  0  0  0  0  0  0  0  0  # atno 17321 bound_to 7965
  139.4827  144.6082  151.7482 LP  0  0  0  0  0  0  0  0  0  0  0  0  # atno 17342 bound_to 10162
  140.5226  144.0856  150.6027 LP  0  0  0  0  0  0  0  0  0  0  0  0  # atno 17343 bound_to 10162
  156.4984  130.8117  151.3123 LP  0  0  0  0  0  0  0  0  0  0  0  0  # atno 17370 bound_to 10713
  157.7451  130.9952  150.2737 LP  0  0  0  0  0  0  0  0  0  0  0  0  # atno 17371 bound_to 10713
  140.5832  134.0332  155.7471 LP  0  0  0  0  0  0  0  0  0  0  0  0  # atno 17394 bound_to 11000
  141.1111  133.9614  157.2908 LP  0  0  0  0  0  0  0  0  0  0  0  0  # atno 17395 bound_to 11000

$$$$
