AV-unprocessed.smi:1311|AV-procd|sdf|5446|dock8
  -GOLD-   22720 5 13D 1   1.00000     0.00000
 Structure written by MMmdl.
 46 47  0  0  0  0  0  0  0  0  2 V2000
  150.9476  132.4773  155.9245 C   0  0  0  0  0  0  0  0  0  0  0  0
  149.6222  132.7307  155.1879 C   0  0  0  0  0  0  0  0  0  0  0  0
  149.5111  134.1232  154.5084 C   0  0  2  0  0  0  0  0  0  0  0  0
  149.3467  135.2776  155.5331 C   0  0  0  0  0  0  0  0  0  0  0  0
  148.4185  134.9402  156.6096 N   0  0  0  0  0  0  0  0  0  0  0  0
  148.7244  134.8529  157.9137 C   0  0  0  0  0  0  0  0  0  0  0  0
  149.8502  135.0598  158.3651 O   0  0  0  0  0  0  0  0  0  0  0  0
  147.5837  134.4695  158.8561 C   0  0  0  0  0  0  0  0  0  0  0  0
  147.4134  135.5373  159.9045 C   0  0  0  0  0  0  0  0  0  0  0  0
  147.4747  135.3920  161.3203 C   0  0  0  0  0  0  0  0  0  0  0  0
  147.7245  134.1452  162.1194 C   0  0  0  0  0  0  0  0  0  0  0  0
  147.2792  136.5419  161.9438 N   0  0  0  0  0  0  0  0  0  0  0  0
  147.0798  137.4934  160.9390 O   0  0  0  0  0  0  0  0  0  0  0  0
  147.1648  136.8716  159.7355 C   0  0  0  0  0  0  0  0  0  0  0  0
  146.9782  137.7226  158.5252 C   0  0  0  0  0  0  0  0  0  0  0  0
  148.4294  134.1324  153.4785 N   0  3  0  0  0  0  0  0  0  0  0  0
  148.3593  132.9435  152.6008 C   0  0  0  0  0  0  0  0  0  0  0  0
  146.9512  132.9644  152.0177 C   0  0  0  0  0  0  0  0  0  0  0  0
  146.1068  133.4689  153.1816 C   0  0  0  0  0  0  0  0  0  0  0  0
  147.0563  134.3537  154.0011 C   0  0  0  0  0  0  0  0  0  0  0  0
  150.9552  131.4803  156.3654 H   0  0  0  0  0  0  0  0  0  0  0  0
  151.1008  133.1924  156.7326 H   0  0  0  0  0  0  0  0  0  0  0  0
  151.8038  132.5420  155.2546 H   0  0  0  0  0  0  0  0  0  0  0  0
  149.4779  131.9451  154.4463 H   0  0  0  0  0  0  0  0  0  0  0  0
  148.8031  132.5912  155.8928 H   0  0  0  0  0  0  0  0  0  0  0  0
  150.4495  134.3004  153.9802 H   0  0  0  0  0  0  0  0  0  0  0  0
  150.2962  135.4940  156.0216 H   0  0  0  0  0  0  0  0  0  0  0  0
  149.0547  136.1996  155.0282 H   0  0  0  0  0  0  0  0  0  0  0  0
  147.4645  134.7458  156.3408 H   0  0  0  0  0  0  0  0  0  0  0  0
  146.6737  134.3408  158.2691 H   0  0  0  0  0  0  0  0  0  0  0  0
  147.7900  133.4978  159.3073 H   0  0  0  0  0  0  0  0  0  0  0  0
  148.7384  133.7782  161.9593 H   0  0  0  0  0  0  0  0  0  0  0  0
  147.0356  133.3520  161.8294 H   0  0  0  0  0  0  0  0  0  0  0  0
  147.5986  134.3167  163.1891 H   0  0  0  0  0  0  0  0  0  0  0  0
  146.1787  137.3304  157.8971 H   0  0  0  0  0  0  0  0  0  0  0  0
  147.8916  137.7520  157.9314 H   0  0  0  0  0  0  0  0  0  0  0  0
  146.7202  138.7459  158.7988 H   0  0  0  0  0  0  0  0  0  0  0  0
  149.1215  132.9646  151.8215 H   0  0  0  0  0  0  0  0  0  0  0  0
  148.4978  132.0377  153.1936 H   0  0  0  0  0  0  0  0  0  0  0  0
  146.9023  133.6720  151.1890 H   0  0  0  0  0  0  0  0  0  0  0  0
  146.6290  131.9900  151.6495 H   0  0  0  0  0  0  0  0  0  0  0  0
  145.2164  134.0034  152.8493 H   0  0  0  0  0  0  0  0  0  0  0  0
  145.7784  132.6243  153.7885 H   0  0  0  0  0  0  0  0  0  0  0  0
  146.9770  134.0912  155.0569 H   0  0  0  0  0  0  0  0  0  0  0  0
  146.8008  135.4091  153.9008 H   0  0  0  0  0  0  0  0  0  0  0  0
  148.6192  134.9114  152.8640 H   0  0  0  0  0  0  0  0  0  0  0  0
  1  2  1  0  0  0  0
  1 21  1  0  0  0  0
  1 22  1  0  0  0  0
  1 23  1  0  0  0  0
  2  3  1  0  0  0  0
  2 24  1  0  0  0  0
  2 25  1  0  0  0  0
  3  4  1  0  0  0  0
  3 16  1  0  0  0  0
  3 26  1  0  0  0  0
  4  5  1  0  0  0  0
  4 27  1  0  0  0  0
  4 28  1  0  0  0  0
  5  6  1  0  0  0  0
  5 29  1  0  0  0  0
  6  7  2  0  0  0  0
  6  8  1  0  0  0  0
  8  9  1  0  0  0  0
  8 30  1  0  0  0  0
  8 31  1  0  0  0  0
  9 14  2  0  0  0  0
  9 10  1  0  0  0  0
 10 11  1  0  0  0  0
 10 12  2  0  0  0  0
 11 32  1  0  0  0  0
 11 33  1  0  0  0  0
 11 34  1  0  0  0  0
 12 13  1  0  0  0  0
 13 14  1  0  0  0  0
 14 15  1  0  0  0  0
 15 35  1  0  0  0  0
 15 36  1  0  0  0  0
 15 37  1  0  0  0  0
 16 20  1  0  0  0  0
 16 17  1  0  0  0  0
 16 46  1  0  0  0  0
 17 18  1  0  0  0  0
 17 38  1  0  0  0  0
 17 39  1  0  0  0  0
 18 19  1  0  0  0  0
 18 40  1  0  0  0  0
 18 41  1  0  0  0  0
 19 20  1  0  0  0  0
 19 42  1  0  0  0  0
 19 43  1  0  0  0  0
 20 44  1  0  0  0  0
 20 45  1  0  0  0  0
M  CHG  1  16   1
M  END
> <s_m_source_file>
AV-unprocessed.smi

> <i_m_source_file_index>
1311

> <i_lp_mmshare_version>
43012

> <i_f3d_flags>
0

> <s_epik_input>
W0NIMl0xW0NIMl1bQ0gyXVtDSDJdTjFbQ0BIXShbQ0gyXVtDSDNdKVtDSDJdW05IXUMoPU8pW0NIMl1jMmMoW0NIM10pbm9jMltDSDNd

> <s_epik_cmdline>
J2VwaWtfcHl0aG9uJywgJy1waCcsICc3LjAnLCAnLXRuJywgJzgnLCAnLW1hJywgJzIwMCcsICctbWV0YWxfYmluZGluZycsICctaW1hZScsICc8aW5maWxlLm1hZT4nLCAnLW9tYWUnLCAnPG91dGZpbGUubWFlPic=

> <r_epik_Ionization_Penalty>
0.00366311

> <r_epik_Ionization_Penalty_Charging>
0.00366302

> <r_epik_Ionization_Penalty_Neutral>
9.25085e-08

> <r_epik_State_Penalty>
0.00260703

> <r_epik_Charging_Adjusted_Penalty>
0.00627005

> <i_epik_Tot_Q>
1

> <i_epik_Tot_abs_Q>
1

> <r_epik_Metal_State_Penalty>
-0

> <b_epik_Metal_Only>
0

> <s_lp_Force_Field>
OPLS_2005

> <r_lp_Energy>
28.3188

> <b_lp_Chiralities_Consistent>
1

> <s_lp_Variant>
AV-unprocessed.smi:1311-1

> <Gold.Version>
5.8.1

> <Gold.Id.Protein>
6NUR|6NUR_protein|mol2

> <Gold.PLP.Fitness>
39.3344

> <Gold.PLP.PLP>
-28.4278

> <Gold.PLP.part.hbond>
-3.7109

> <Gold.PLP.part.metal>
0.0000

> <Gold.PLP.part.buried>
-2.7878

> <Gold.PLP.part.nonpolar>
-21.3285

> <Gold.PLP.part.repulsive>
0.0169

> <Gold.PLP.ligand.clash>
0.0000

> <Gold.PLP.ligand.torsion>
0.6057

> <Gold.PLP.Chemscore.Hbond>
4.0149

> <Gold.PLP.Chemscore.CHOScore>
0.0000

> <Gold.PLP.Chemscore.Metal>
0.0000

> <Gold.Chemscore.Hbonds>
donor molecule, donor type, donor heavy atom, donor atom, acceptor molecule, acceptor atom, score
      L1  H    16    46       P1  7948  2.00
      P1  H  6896  6909       L1     7  0.98
      P1  H  6934  6947       L1    13  1.00

> <Gold.PLP.Chemscore.Internal.Correction>
0.0732

> <Gold.Rescore>
     Score         DG    S(hbond)    S(metal)    S(lipo)     H(rot)  DE(clash)    DE(int)     intcor
     16.11     -17.76       2.91        0.00      61.22       1.80       0.00       1.65       ----

> <Gold.Chemscore.Fitness>
16.1050

> <Gold.Chemscore.DG>
-17.7584

> <Gold.Chemscore.ZeroCoef>
-5.4800

> <Gold.Chemscore.Hbond>
2.9115

> <Gold.Chemscore.Metal>
0.0000

> <Gold.Chemscore.Lipo>
61.2210

> <Gold.Chemscore.Internal_Hbond>
0.0000

> <Gold.Chemscore.DEClash>
0.0021

> <Gold.Chemscore.DEInternal>
1.6512

> <Gold.Chemscore.Rot>
1.8004

> <Gold.Chemscore.Internal.Correction>
   9.000000E+99

> <Gold.Chemscore.Hbonds>
donor molecule, donor type, donor heavy atom, donor atom, acceptor molecule, acceptor atom, score
      L1  H    16    46       P1  7948  0.35
      P1  H  6896  6909       L1     7  0.87
      P1  H  6934  6947       L1    13  0.88

> <Gold.Chemscore.Hbond.Weighted>
-9.7245

> <Gold.Chemscore.Metal.Weighted>
-0.0000

> <Gold.Chemscore.Lipo.Weighted>
-7.1629

> <Gold.Chemscore.Internal_Hbond.Weighted>
0.0000

> <Gold.Chemscore.DEClash.Weighted>
0.0021

> <Gold.Chemscore.DEInternal.Weighted>
1.6512

> <Gold.Chemscore.Rot.Weighted>
4.6090

> <Gold.Chemscore.Internal.Correction.Weighted>
   9.000000E+99

> <Gold.Protein.RotatedTorsions>
[ 6907 6896 6895 6894 ] final   51.38 input  -60.11 | X-H torsion
[ 7974 7965 7964 7962 ] final -176.81 input  175.53 | X-H torsion
[ 8008 7997 7996 7995 ] final  136.61 input   59.86 | X-H torsion
[ 10167 10162 10161 10158 ] final   85.34 input  -65.29 | X-H torsion
[ 10718 10713 10712 10709 ] final   42.79 input   66.30 | X-H torsion
[ 10763 10752 10751 10750 ] final  151.63 input  -60.55 | X-H torsion
[ 11005 11000 10999 10996 ] final -164.96 input  -57.11 | X-H torsion

> <Gold.Protein.ActiveResidues>
 VAL166  LYS551  ARG553  GLY616  TRP617  ASP618  TYR619  PRO620  LYS621  CYS622 
 ASP623  PHE694  ASN695  SER759  ASP760  ASP761  ALA762  ILE779  LEU786  VAL792 
 PHE793  MET794  SER795  GLU796  ALA797  LYS798  CYS799  TRP800  GLU811  SER814 

> <Gold.Protein.RotatedAtoms>
  152.3120  134.7485  160.0333 H   0  0  0  0  0  0  0  0  0  0  0  0  # atno 6907 bound_to 6896
  151.7963  133.3359  159.3522 H   0  0  0  0  0  0  0  0  0  0  0  0  # atno 6908 bound_to 6896
  150.7325  134.5726  159.5942 H   0  0  0  0  0  0  0  0  0  0  0  0  # atno 6909 bound_to 6896
  144.7127  140.1114  143.6411 H   0  0  0  0  0  0  0  0  0  0  0  0  # atno 7974 bound_to 7965
  156.3004  140.2441  156.3773 H   0  0  0  0  0  0  0  0  0  0  0  0  # atno 8008 bound_to 7997
  154.8733  140.0415  157.1757 H   0  0  0  0  0  0  0  0  0  0  0  0  # atno 8009 bound_to 7997
  154.8772  140.2944  155.5450 H   0  0  0  0  0  0  0  0  0  0  0  0  # atno 8010 bound_to 7997
  139.8987  144.6342  150.8660 H   0  0  0  0  0  0  0  0  0  0  0  0  # atno 10167 bound_to 10162
  157.4088  130.7902  149.7412 H   0  0  0  0  0  0  0  0  0  0  0  0  # atno 10718 bound_to 10713
  154.1069  135.2842  155.3239 H   0  0  0  0  0  0  0  0  0  0  0  0  # atno 10763 bound_to 10752
  154.6517  135.5366  153.7912 H   0  0  0  0  0  0  0  0  0  0  0  0  # atno 10764 bound_to 10752
  153.0359  135.6511  154.1230 H   0  0  0  0  0  0  0  0  0  0  0  0  # atno 10765 bound_to 10752
  140.5811  134.5140  157.5178 H   0  0  0  0  0  0  0  0  0  0  0  0  # atno 11005 bound_to 11000
  145.9451  139.2695  143.1245 LP  0  0  0  0  0  0  0  0  0  0  0  0  # atno 17320 bound_to 7965
  145.9383  140.8998  143.0321 LP  0  0  0  0  0  0  0  0  0  0  0  0  # atno 17321 bound_to 7965
  140.7711  143.3453  151.2123 LP  0  0  0  0  0  0  0  0  0  0  0  0  # atno 17342 bound_to 10162
  139.7044  143.9479  152.2920 LP  0  0  0  0  0  0  0  0  0  0  0  0  # atno 17343 bound_to 10162
  155.9844  130.3991  150.3312 LP  0  0  0  0  0  0  0  0  0  0  0  0  # atno 17370 bound_to 10713
  157.1448  131.0306  151.2912 LP  0  0  0  0  0  0  0  0  0  0  0  0  # atno 17371 bound_to 10713
  139.9317  134.7952  156.0913 LP  0  0  0  0  0  0  0  0  0  0  0  0  # atno 17394 bound_to 11000
  141.0995  133.6682  156.2723 LP  0  0  0  0  0  0  0  0  0  0  0  0  # atno 17395 bound_to 11000

$$$$
