AV-unprocessed.smi:2135|AV-procd|sdf|8701|dock9
  -GOLD-   2272011463D 1   1.00000     0.00000
 Structure written by MMmdl.
 43 44  0  0  0  0  0  0  0  0  2 V2000
  146.6107  134.8795  162.5478 C   0  0  0  0  0  0  0  0  0  0  0  0
  147.3200  136.3939  161.7817 S   0  0  0  0  0  0  0  0  0  0  0  0
  146.2069  137.2522  161.3480 O   0  0  0  0  0  0  0  0  0  0  0  0
  148.3431  136.9307  162.6919 O   0  0  0  0  0  0  0  0  0  0  0  0
  148.1310  135.8119  160.3560 N   0  0  0  0  0  0  0  0  0  0  0  0
  147.3781  135.0572  159.3336 C   0  0  0  0  0  0  0  0  0  0  0  0
  147.0327  135.9359  158.1185 C   0  0  0  0  0  0  0  0  0  0  0  0
  148.2857  136.6077  157.5447 C   0  0  0  0  0  0  0  0  0  0  0  0
  148.9888  137.4225  158.6452 C   0  0  2  0  0  0  0  0  0  0  0  0
  150.2558  138.1030  158.1105 C   0  0  0  0  0  0  0  0  0  0  0  0
  151.2309  137.4288  157.7766 O   0  0  0  0  0  0  0  0  0  0  0  0
  150.2321  139.4431  158.0389 N   0  0  0  0  0  0  0  0  0  0  0  0
  151.3357  140.2741  157.5737 C   0  0  0  0  0  0  0  0  0  0  0  0
  152.0360  140.9899  158.7406 C   0  0  0  0  0  0  0  0  0  0  0  0
  151.7543  142.4793  158.7465 C   0  0  0  0  0  0  0  0  0  0  0  0
  152.3084  143.3144  159.7417 C   0  0  0  0  0  0  0  0  0  0  0  0
  152.0230  144.6957  159.7224 C   0  0  0  0  0  0  0  0  0  0  0  0
  151.1890  145.2103  158.7087 C   0  0  0  0  0  0  0  0  0  0  0  0
  150.6770  144.3804  157.7733 N   0  3  0  0  0  0  0  0  0  0  0  0
  150.9269  143.0527  157.7568 C   0  0  0  0  0  0  0  0  0  0  0  0
  149.3274  136.5134  159.8473 C   0  0  0  0  0  0  0  0  0  0  0  0
  146.0960  135.1553  163.4680 H   0  0  0  0  0  0  0  0  0  0  0  0
  147.4071  134.1768  162.7862 H   0  0  0  0  0  0  0  0  0  0  0  0
  145.8955  134.4191  161.8689 H   0  0  0  0  0  0  0  0  0  0  0  0
  147.9894  134.2138  159.0105 H   0  0  0  0  0  0  0  0  0  0  0  0
  146.4721  134.6323  159.7647 H   0  0  0  0  0  0  0  0  0  0  0  0
  146.5555  135.3273  157.3500 H   0  0  0  0  0  0  0  0  0  0  0  0
  146.3049  136.6965  158.3981 H   0  0  0  0  0  0  0  0  0  0  0  0
  148.9555  135.8448  157.1445 H   0  0  0  0  0  0  0  0  0  0  0  0
  148.0093  137.2525  156.7096 H   0  0  0  0  0  0  0  0  0  0  0  0
  148.3031  138.2022  158.9763 H   0  0  0  0  0  0  0  0  0  0  0  0
  149.3912  139.9197  158.3314 H   0  0  0  0  0  0  0  0  0  0  0  0
  152.0480  139.6657  157.0137 H   0  0  0  0  0  0  0  0  0  0  0  0
  150.9362  141.0079  156.8731 H   0  0  0  0  0  0  0  0  0  0  0  0
  151.7169  140.5587  159.6907 H   0  0  0  0  0  0  0  0  0  0  0  0
  153.1153  140.8418  158.6845 H   0  0  0  0  0  0  0  0  0  0  0  0
  152.9443  142.9032  160.5124 H   0  0  0  0  0  0  0  0  0  0  0  0
  152.4374  145.3508  160.4748 H   0  0  0  0  0  0  0  0  0  0  0  0
  150.9180  146.2524  158.6184 H   0  0  0  0  0  0  0  0  0  0  0  0
  150.4592  142.4931  156.9595 H   0  0  0  0  0  0  0  0  0  0  0  0
  149.7898  137.0923  160.6467 H   0  0  0  0  0  0  0  0  0  0  0  0
  150.0606  135.7608  159.5535 H   0  0  0  0  0  0  0  0  0  0  0  0
  150.0755  144.7728  157.0484 H   0  0  0  0  0  0  0  0  0  0  0  0
  1  2  1  0  0  0  0
  1 22  1  0  0  0  0
  1 23  1  0  0  0  0
  1 24  1  0  0  0  0
  2  3  2  0  0  0  0
  2  4  2  0  0  0  0
  2  5  1  0  0  0  0
  5 21  1  0  0  0  0
  5  6  1  0  0  0  0
  6  7  1  0  0  0  0
  6 25  1  0  0  0  0
  6 26  1  0  0  0  0
  7  8  1  0  0  0  0
  7 27  1  0  0  0  0
  7 28  1  0  0  0  0
  8  9  1  0  0  0  0
  8 29  1  0  0  0  0
  8 30  1  0  0  0  0
  9 10  1  0  0  0  0
  9 21  1  0  0  0  0
  9 31  1  0  0  0  0
 10 11  2  0  0  0  0
 10 12  1  0  0  0  0
 12 13  1  0  0  0  0
 12 32  1  0  0  0  0
 13 14  1  0  0  0  0
 13 33  1  0  0  0  0
 13 34  1  0  0  0  0
 14 15  1  0  0  0  0
 14 35  1  0  0  0  0
 14 36  1  0  0  0  0
 15 20  1  0  0  0  0
 15 16  2  0  0  0  0
 16 17  1  0  0  0  0
 16 37  1  0  0  0  0
 17 18  2  0  0  0  0
 17 38  1  0  0  0  0
 18 19  1  0  0  0  0
 18 39  1  0  0  0  0
 19 20  2  0  0  0  0
 19 43  1  0  0  0  0
 20 40  1  0  0  0  0
 21 41  1  0  0  0  0
 21 42  1  0  0  0  0
M  CHG  1  19   1
M  END
> <s_m_source_file>
AV-unprocessed.smi

> <i_m_source_file_index>
2135

> <i_lp_mmshare_version>
43012

> <i_f3d_flags>
0

> <s_epik_input>
W0NIM11TKD1PKSg9TylOMVtDSDJdW0NIMl1bQ0gyXVtDQEhdKFtDSDJdMSlDKD1PKVtOSF1bQ0gyXVtDSDJdYzJbY0hdW2NIXVtjSF1uW2NIXTI=

> <s_epik_cmdline>
J2VwaWtfcHl0aG9uJywgJy1waCcsICc3LjAnLCAnLXRuJywgJzgnLCAnLW1hJywgJzIwMCcsICctbWV0YWxfYmluZGluZycsICctaW1hZScsICc8aW5maWxlLm1hZT4nLCAnLW9tYWUnLCAnPG91dGZpbGUubWFlPic=

> <r_epik_Ionization_Penalty>
2.24912

> <r_epik_Ionization_Penalty_Charging>
2.24912

> <r_epik_Ionization_Penalty_Neutral>
2.62834e-08

> <r_epik_State_Penalty>
2.39611

> <r_epik_Charging_Adjusted_Penalty>
4.64523

> <i_epik_Tot_Q>
1

> <i_epik_Tot_abs_Q>
1

> <r_epik_Metal_State_Penalty>
2.40934

> <b_epik_Metal_Only>
0

> <s_lp_Force_Field>
OPLS_2005

> <r_lp_Energy>
6.9467

> <b_lp_Chiralities_Consistent>
1

> <s_lp_Variant>
AV-unprocessed.smi:2135-4

> <Gold.Version>
5.8.1

> <Gold.Id.Protein>
6NUR|6NUR_protein|mol2

> <Gold.PLP.Fitness>
49.8920

> <Gold.PLP.PLP>
-39.5034

> <Gold.PLP.part.hbond>
-2.9664

> <Gold.PLP.part.metal>
0.0000

> <Gold.PLP.part.buried>
-6.3157

> <Gold.PLP.part.nonpolar>
-30.6341

> <Gold.PLP.part.repulsive>
0.2147

> <Gold.PLP.ligand.clash>
0.0000

> <Gold.PLP.ligand.torsion>
1.6377

> <Gold.PLP.Chemscore.Hbond>
3.8640

> <Gold.PLP.Chemscore.CHOScore>
0.0000

> <Gold.PLP.Chemscore.Metal>
0.0000

> <Gold.Chemscore.Hbonds>
donor molecule, donor type, donor heavy atom, donor atom, acceptor molecule, acceptor atom, score
      L1  H    19    43       P1  8028  2.00
      P1  H  6931  6943       L1     4  0.96
      P1  H  6934  6947       L1     3  0.94

> <Gold.PLP.Chemscore.Internal.Correction>
2.0719

> <Gold.Rescore>
     Score         DG    S(hbond)    S(metal)    S(lipo)     H(rot)  DE(clash)    DE(int)     intcor
     17.40     -19.07       2.17        0.00      90.35       1.65       0.00       1.66       ----

> <Gold.Chemscore.Fitness>
17.4012

> <Gold.Chemscore.DG>
-19.0658

> <Gold.Chemscore.ZeroCoef>
-5.4800

> <Gold.Chemscore.Hbond>
2.1704

> <Gold.Chemscore.Metal>
0.0000

> <Gold.Chemscore.Lipo>
90.3458

> <Gold.Chemscore.Internal_Hbond>
0.0000

> <Gold.Chemscore.DEClash>
0.0044

> <Gold.Chemscore.DEInternal>
1.6602

> <Gold.Chemscore.Rot>
1.6538

> <Gold.Chemscore.Internal.Correction>
   9.000000E+99

> <Gold.Chemscore.Hbonds>
donor molecule, donor type, donor heavy atom, donor atom, acceptor molecule, acceptor atom, score
      L1  H    19    43       P1  8028  0.30
      P1  H  6931  6943       L1     4  0.60
      P1  H  6934  6947       L1     3  0.31

> <Gold.Chemscore.Hbond.Weighted>
-7.2490

> <Gold.Chemscore.Metal.Weighted>
-0.0000

> <Gold.Chemscore.Lipo.Weighted>
-10.5705

> <Gold.Chemscore.Internal_Hbond.Weighted>
0.0000

> <Gold.Chemscore.DEClash.Weighted>
0.0044

> <Gold.Chemscore.DEInternal.Weighted>
1.6602

> <Gold.Chemscore.Rot.Weighted>
4.2337

> <Gold.Chemscore.Internal.Correction.Weighted>
   9.000000E+99

> <Gold.Protein.RotatedTorsions>
[ 6907 6896 6895 6894 ] final   70.91 input  -60.11 | X-H torsion
[ 7974 7965 7964 7962 ] final -164.88 input  175.53 | X-H torsion
[ 8008 7997 7996 7995 ] final   34.40 input   59.86 | X-H torsion
[ 10167 10162 10161 10158 ] final  -37.96 input  -65.29 | X-H torsion
[ 10718 10713 10712 10709 ] final  137.17 input   66.30 | X-H torsion
[ 10763 10752 10751 10750 ] final  157.52 input  -60.55 | X-H torsion
[ 11005 11000 10999 10996 ] final  -13.77 input  -57.11 | X-H torsion

> <Gold.Protein.ActiveResidues>
 VAL166  LYS551  ARG553  GLY616  TRP617  ASP618  TYR619  PRO620  LYS621  CYS622 
 ASP623  PHE694  ASN695  SER759  ASP760  ASP761  ALA762  ILE779  LEU786  VAL792 
 PHE793  MET794  SER795  GLU796  ALA797  LYS798  CYS799  TRP800  GLU811  SER814 

> <Gold.Protein.RotatedAtoms>
  152.4778  134.4799  159.9661 H   0  0  0  0  0  0  0  0  0  0  0  0  # atno 6907 bound_to 6896
  151.4811  133.3540  159.2846 H   0  0  0  0  0  0  0  0  0  0  0  0  # atno 6908 bound_to 6896
  150.8829  134.8249  159.7299 H   0  0  0  0  0  0  0  0  0  0  0  0  # atno 6909 bound_to 6896
  144.7284  140.2895  143.6223 H   0  0  0  0  0  0  0  0  0  0  0  0  # atno 7974 bound_to 7965
  155.1543  140.3277  155.4424 H   0  0  0  0  0  0  0  0  0  0  0  0  # atno 8008 bound_to 7997
  156.2564  140.1971  156.6603 H   0  0  0  0  0  0  0  0  0  0  0  0  # atno 8009 bound_to 7997
  154.6451  140.0565  156.9877 H   0  0  0  0  0  0  0  0  0  0  0  0  # atno 8010 bound_to 7997
  140.7105  143.3308  151.2574 H   0  0  0  0  0  0  0  0  0  0  0  0  # atno 10167 bound_to 10162
  157.4389  131.1056  151.0166 H   0  0  0  0  0  0  0  0  0  0  0  0  # atno 10718 bound_to 10713
  154.2015  135.2790  155.2989 H   0  0  0  0  0  0  0  0  0  0  0  0  # atno 10763 bound_to 10752
  154.5851  135.5577  153.7226 H   0  0  0  0  0  0  0  0  0  0  0  0  # atno 10764 bound_to 10752
  153.0087  135.6354  154.2153 H   0  0  0  0  0  0  0  0  0  0  0  0  # atno 10765 bound_to 10752
  140.7795  133.8374  155.9279 H   0  0  0  0  0  0  0  0  0  0  0  0  # atno 11005 bound_to 11000
  145.7869  139.1912  143.2125 LP  0  0  0  0  0  0  0  0  0  0  0  0  # atno 17320 bound_to 7965
  146.0788  140.7787  142.9652 LP  0  0  0  0  0  0  0  0  0  0  0  0  # atno 17321 bound_to 7965
  139.6789  143.9889  152.2797 LP  0  0  0  0  0  0  0  0  0  0  0  0  # atno 17342 bound_to 10162
  139.9512  144.6619  150.8170 LP  0  0  0  0  0  0  0  0  0  0  0  0  # atno 17343 bound_to 10162
  157.1036  130.5992  149.5465 LP  0  0  0  0  0  0  0  0  0  0  0  0  # atno 17370 bound_to 10713
  155.9941  130.5004  150.7407 LP  0  0  0  0  0  0  0  0  0  0  0  0  # atno 17371 bound_to 10713
  140.9496  134.1796  157.4737 LP  0  0  0  0  0  0  0  0  0  0  0  0  # atno 17394 bound_to 11000
  139.8744  134.9904  156.5500 LP  0  0  0  0  0  0  0  0  0  0  0  0  # atno 17395 bound_to 11000

$$$$
