AV-unprocessed.smi:2063|AV-procd|sdf|8412|dock9
  -GOLD-   2272011103D 1   1.00000     0.00000
 Structure written by MMmdl.
 38 39  0  0  0  0  0  0  0  0  2 V2000
  144.4350  132.9657  161.8718 C   0  0  0  0  0  0  0  0  0  0  0  0
  144.5823  134.1729  162.8095 C   0  0  0  0  0  0  0  0  0  0  0  0
  143.2381  134.8154  163.1806 C   0  0  0  0  0  0  0  0  0  0  0  0
  145.5626  135.1764  162.2873 C   0  0  0  0  0  0  0  0  0  0  0  0
  145.2738  136.4735  162.1427 N   0  0  0  0  0  0  0  0  0  0  0  0
  146.3445  137.1964  161.6380 N   0  0  0  0  0  0  0  0  0  0  0  0
  147.4303  136.4421  161.4169 C   0  0  0  0  0  0  0  0  0  0  0  0
  148.5729  136.9479  160.9241 N   0  5  0  0  0  0  0  0  0  0  0  0
  148.9247  136.7004  159.6417 C   0  0  0  0  0  0  0  0  0  0  0  0
  148.7406  135.6491  159.0244 O   0  0  0  0  0  0  0  0  0  0  0  0
  149.5222  137.7389  159.0397 N   0  0  0  0  0  0  0  0  0  0  0  0
  149.9905  137.7912  157.6557 C   0  0  2  0  0  0  0  0  0  0  0  0
  151.0294  136.6839  157.4198 C   0  0  0  0  0  0  0  0  0  0  0  0
  150.5593  139.1909  157.3554 C   0  0  2  0  0  0  0  0  0  0  0  0
  149.5626  140.3383  157.5460 C   0  0  0  0  0  0  0  0  0  0  0  0
  150.0413  141.4082  156.5756 C   0  0  0  0  0  0  0  0  0  0  0  0
  151.0994  140.6991  155.7275 C   0  0  0  0  0  0  0  0  0  0  0  0
  150.9027  139.3167  155.9840 O   0  0  0  0  0  0  0  0  0  0  0  0
  147.1946  134.7393  161.8078 S   0  0  0  0  0  0  0  0  0  0  0  0
  145.3994  132.4888  161.6931 H   0  0  0  0  0  0  0  0  0  0  0  0
  144.0255  133.2620  160.9056 H   0  0  0  0  0  0  0  0  0  0  0  0
  143.7691  132.2154  162.2988 H   0  0  0  0  0  0  0  0  0  0  0  0
  145.0042  133.7879  163.7389 H   0  0  0  0  0  0  0  0  0  0  0  0
  143.3730  135.6099  163.9152 H   0  0  0  0  0  0  0  0  0  0  0  0
  142.5571  134.0806  163.6105 H   0  0  0  0  0  0  0  0  0  0  0  0
  142.7510  135.2488  162.3065 H   0  0  0  0  0  0  0  0  0  0  0  0
  149.6523  138.5739  159.5919 H   0  0  0  0  0  0  0  0  0  0  0  0
  149.1509  137.6226  156.9791 H   0  0  0  0  0  0  0  0  0  0  0  0
  151.3815  136.6879  156.3879 H   0  0  0  0  0  0  0  0  0  0  0  0
  150.6047  135.6990  157.6166 H   0  0  0  0  0  0  0  0  0  0  0  0
  151.8968  136.8088  158.0687 H   0  0  0  0  0  0  0  0  0  0  0  0
  151.4508  139.3759  157.9583 H   0  0  0  0  0  0  0  0  0  0  0  0
  148.5581  140.0177  157.2663 H   0  0  0  0  0  0  0  0  0  0  0  0
  149.5246  140.6888  158.5780 H   0  0  0  0  0  0  0  0  0  0  0  0
  149.2131  141.7631  155.9615 H   0  0  0  0  0  0  0  0  0  0  0  0
  150.4676  142.2675  157.0942 H   0  0  0  0  0  0  0  0  0  0  0  0
  151.0056  140.9228  154.6646 H   0  0  0  0  0  0  0  0  0  0  0  0
  152.1026  140.9834  156.0487 H   0  0  0  0  0  0  0  0  0  0  0  0
  1  2  1  0  0  0  0
  1 20  1  0  0  0  0
  1 21  1  0  0  0  0
  1 22  1  0  0  0  0
  2  3  1  0  0  0  0
  2  4  1  0  0  0  0
  2 23  1  0  0  0  0
  3 24  1  0  0  0  0
  3 25  1  0  0  0  0
  3 26  1  0  0  0  0
  4 19  1  0  0  0  0
  4  5  2  0  0  0  0
  5  6  1  0  0  0  0
  6  7  2  0  0  0  0
  7  8  1  0  0  0  0
  7 19  1  0  0  0  0
  8  9  1  0  0  0  0
  9 10  2  0  0  0  0
  9 11  1  0  0  0  0
 11 12  1  0  0  0  0
 11 27  1  0  0  0  0
 12 13  1  0  0  0  0
 12 14  1  0  0  0  0
 12 28  1  0  0  0  0
 13 29  1  0  0  0  0
 13 30  1  0  0  0  0
 13 31  1  0  0  0  0
 14 18  1  0  0  0  0
 14 15  1  0  0  0  0
 14 32  1  0  0  0  0
 15 16  1  0  0  0  0
 15 33  1  0  0  0  0
 15 34  1  0  0  0  0
 16 17  1  0  0  0  0
 16 35  1  0  0  0  0
 16 36  1  0  0  0  0
 17 18  1  0  0  0  0
 17 37  1  0  0  0  0
 17 38  1  0  0  0  0
M  CHG  1   8  -1
M  END
> <s_m_source_file>
AV-unprocessed.smi

> <i_m_source_file_index>
2063

> <i_lp_mmshare_version>
43012

> <i_f3d_flags>
0

> <s_epik_input>
W0NIM11bQ0hdKFtDSDNdKWMxbm5jKHMxKVtOSF1DKD1PKVtOSF1bQ0BIXShbQ0gzXSlbQ0BASF0yW0NIMl1bQ0gyXVtDSDJdTzI=

> <s_epik_cmdline>
J2VwaWtfcHl0aG9uJywgJy1waCcsICc3LjAnLCAnLXRuJywgJzgnLCAnLW1hJywgJzIwMCcsICctbWV0YWxfYmluZGluZycsICctaW1hZScsICc8aW5maWxlLm1hZT4nLCAnLW9tYWUnLCAnPG91dGZpbGUubWFlPic=

> <r_lp_tautomer_probability>
1

> <r_epik_Ionization_Penalty>
4.37022

> <r_epik_Ionization_Penalty_Charging>
4.21437

> <r_epik_Ionization_Penalty_Neutral>
0.15585

> <r_epik_State_Penalty>
4.21389

> <r_epik_Charging_Adjusted_Penalty>
8.42826

> <i_epik_Tot_Q>
-1

> <i_epik_Tot_abs_Q>
1

> <r_epik_Metal_State_Penalty>
0.693772

> <b_epik_Metal_Only>
1

> <s_lp_Force_Field>
OPLS_2005

> <r_lp_Energy>
9.58619

> <b_lp_Chiralities_Consistent>
1

> <s_lp_Variant>
AV-unprocessed.smi:2063-5

> <Gold.Version>
5.8.1

> <Gold.Id.Protein>
6NUR|6NUR_protein|mol2

> <Gold.PLP.Fitness>
39.2758

> <Gold.PLP.PLP>
-29.2314

> <Gold.PLP.part.hbond>
-3.0747

> <Gold.PLP.part.metal>
0.0000

> <Gold.PLP.part.buried>
-4.8089

> <Gold.PLP.part.nonpolar>
-22.4987

> <Gold.PLP.part.repulsive>
0.2306

> <Gold.PLP.ligand.clash>
0.0000

> <Gold.PLP.ligand.torsion>
1.0275

> <Gold.PLP.Chemscore.Hbond>
3.9913

> <Gold.PLP.Chemscore.CHOScore>
0.0000

> <Gold.PLP.Chemscore.Metal>
0.0000

> <Gold.Chemscore.Hbonds>
donor molecule, donor type, donor heavy atom, donor atom, acceptor molecule, acceptor atom, score
      P1  H  6896  6907       L1    10  0.31
      P1  H  6931  6943       L1     8  2.00
      P1  H  6934  6947       L1     6  0.66

> <Gold.PLP.Chemscore.Internal.Correction>
0.1257

> <Gold.Rescore>
     Score         DG    S(hbond)    S(metal)    S(lipo)     H(rot)  DE(clash)    DE(int)     intcor
     14.18     -15.55       2.05        0.00      57.86       1.39       0.01       1.36       ----

> <Gold.Chemscore.Fitness>
14.1763

> <Gold.Chemscore.DG>
-15.5464

> <Gold.Chemscore.ZeroCoef>
-5.4800

> <Gold.Chemscore.Hbond>
2.0520

> <Gold.Chemscore.Metal>
0.0000

> <Gold.Chemscore.Lipo>
57.8577

> <Gold.Chemscore.Internal_Hbond>
0.0000

> <Gold.Chemscore.DEClash>
0.0073

> <Gold.Chemscore.DEInternal>
1.3628

> <Gold.Chemscore.Rot>
1.3893

> <Gold.Chemscore.Internal.Correction>
   9.000000E+99

> <Gold.Chemscore.Hbonds>
donor molecule, donor type, donor heavy atom, donor atom, acceptor molecule, acceptor atom, score
      P1  H  6896  6907       L1    10  0.12
      P1  H  6931  6943       L1     8  0.67
      P1  H  6934  6947       L1     6  0.11

> <Gold.Chemscore.Hbond.Weighted>
-6.8538

> <Gold.Chemscore.Metal.Weighted>
-0.0000

> <Gold.Chemscore.Lipo.Weighted>
-6.7693

> <Gold.Chemscore.Internal_Hbond.Weighted>
0.0000

> <Gold.Chemscore.DEClash.Weighted>
0.0073

> <Gold.Chemscore.DEInternal.Weighted>
1.3628

> <Gold.Chemscore.Rot.Weighted>
3.5567

> <Gold.Chemscore.Internal.Correction.Weighted>
   9.000000E+99

> <Gold.Protein.RotatedTorsions>
[ 6907 6896 6895 6894 ] final  -81.66 input  -60.11 | X-H torsion
[ 7974 7965 7964 7962 ] final -104.88 input  175.53 | X-H torsion
[ 8008 7997 7996 7995 ] final -130.35 input   59.86 | X-H torsion
[ 10167 10162 10161 10158 ] final  -55.93 input  -65.29 | X-H torsion
[ 10718 10713 10712 10709 ] final  126.28 input   66.30 | X-H torsion
[ 10763 10752 10751 10750 ] final  134.06 input  -60.55 | X-H torsion
[ 11005 11000 10999 10996 ] final   23.69 input  -57.11 | X-H torsion

> <Gold.Protein.ActiveResidues>
 VAL166  LYS551  ARG553  GLY616  TRP617  ASP618  TYR619  PRO620  LYS621  CYS622 
 ASP623  PHE694  ASN695  SER759  ASP760  ASP761  ALA762  ILE779  LEU786  VAL792 
 PHE793  MET794  SER795  GLU796  ALA797  LYS798  CYS799  TRP800  GLU811  SER814 

> <Gold.Protein.RotatedAtoms>
  150.6908  134.3783  159.5022 H   0  0  0  0  0  0  0  0  0  0  0  0  # atno 6907 bound_to 6896
  152.1589  134.8926  160.0552 H   0  0  0  0  0  0  0  0  0  0  0  0  # atno 6908 bound_to 6896
  151.9995  133.3785  159.4213 H   0  0  0  0  0  0  0  0  0  0  0  0  # atno 6909 bound_to 6896
  145.2375  140.9193  143.3169 H   0  0  0  0  0  0  0  0  0  0  0  0  # atno 7974 bound_to 7965
  155.2943  140.0450  157.3025 H   0  0  0  0  0  0  0  0  0  0  0  0  # atno 8008 bound_to 7997
  154.5523  140.2321  155.8433 H   0  0  0  0  0  0  0  0  0  0  0  0  # atno 8009 bound_to 7997
  156.1977  140.3034  155.9469 H   0  0  0  0  0  0  0  0  0  0  0  0  # atno 8010 bound_to 7997
  140.6346  143.2476  151.5151 H   0  0  0  0  0  0  0  0  0  0  0  0  # atno 10167 bound_to 10162
  157.5433  131.1096  150.8824 H   0  0  0  0  0  0  0  0  0  0  0  0  # atno 10718 bound_to 10713
  153.8174  135.3121  155.3407 H   0  0  0  0  0  0  0  0  0  0  0  0  # atno 10763 bound_to 10752
  154.8027  135.4717  154.0317 H   0  0  0  0  0  0  0  0  0  0  0  0  # atno 10764 bound_to 10752
  153.1715  135.6878  153.8691 H   0  0  0  0  0  0  0  0  0  0  0  0  # atno 10765 bound_to 10752
  140.3668  134.2065  155.7669 H   0  0  0  0  0  0  0  0  0  0  0  0  # atno 11005 bound_to 11000
  144.9620  139.3970  143.6351 LP  0  0  0  0  0  0  0  0  0  0  0  0  # atno 17320 bound_to 7965
  146.3337  139.8677  142.8845 LP  0  0  0  0  0  0  0  0  0  0  0  0  # atno 17321 bound_to 7965
  139.5557  144.2281  152.1608 LP  0  0  0  0  0  0  0  0  0  0  0  0  # atno 17342 bound_to 10162
  140.1534  144.5093  150.6674 LP  0  0  0  0  0  0  0  0  0  0  0  0  # atno 17343 bound_to 10162
  156.9370  130.5370  149.5279 LP  0  0  0  0  0  0  0  0  0  0  0  0  # atno 17370 bound_to 10713
  156.0514  130.5583  150.8998 LP  0  0  0  0  0  0  0  0  0  0  0  0  # atno 17371 bound_to 10713
  141.1967  133.8076  157.0661 LP  0  0  0  0  0  0  0  0  0  0  0  0  # atno 17394 bound_to 11000
  140.0583  134.9769  157.1259 LP  0  0  0  0  0  0  0  0  0  0  0  0  # atno 17395 bound_to 11000

$$$$
