AV-unprocessed.smi:621|AV-procd|sdf|3089|dock2
  -GOLD-   22720 0 13D 1   1.00000     0.00000
 Structure written by MMmdl.
 36 37  0  0  0  0  0  0  0  0  1 V2000
  150.8014  140.7608  156.5021 O   0  0  0  0  0  0  0  0  0  0  0  0
  150.2351  141.8321  156.2830 C   0  0  0  0  0  0  0  0  0  0  0  0
  149.2177  142.0130  155.4223 N   0  0  0  0  0  0  0  0  0  0  0  0
  148.5784  141.0462  154.6013 C   0  0  0  0  0  0  0  0  0  0  0  0
  147.5299  141.5454  153.7955 C   0  0  0  0  0  0  0  0  0  0  0  0
  146.8302  140.6666  152.9462 C   0  0  0  0  0  0  0  0  0  0  0  0
  147.1974  139.3093  152.9241 C   0  0  0  0  0  0  0  0  0  0  0  0
  148.2527  138.8944  153.7571 C   0  0  0  0  0  0  0  0  0  0  0  0
  148.9248  139.7349  154.5718 N   0  0  0  0  0  0  0  0  0  0  0  0
  150.5639  142.9819  156.8907 N   0  0  0  0  0  0  0  0  0  0  0  0
  151.6191  143.1462  157.8882 C   0  0  0  0  0  0  0  0  0  0  0  0
  151.5521  141.9912  158.9129 C   0  0  0  0  0  0  0  0  0  0  0  0
  152.8020  141.8984  159.8041 C   0  0  0  0  0  0  0  0  0  0  0  0
  152.7741  142.7587  161.0795 C   0  0  0  0  0  0  0  0  0  0  0  0
  152.1911  144.1757  160.9399 C   0  0  0  0  0  0  0  0  0  0  0  0
  152.4959  144.8869  159.6115 C   0  0  0  0  0  0  0  0  0  0  0  0
  151.4781  144.5490  158.5084 C   0  0  0  0  0  0  0  0  0  0  0  0
  148.8540  142.9515  155.3504 H   0  0  0  0  0  0  0  0  0  0  0  0
  147.2607  142.5914  153.8252 H   0  0  0  0  0  0  0  0  0  0  0  0
  146.0262  141.0286  152.3226 H   0  0  0  0  0  0  0  0  0  0  0  0
  146.6842  138.6048  152.2864 H   0  0  0  0  0  0  0  0  0  0  0  0
  148.5657  137.8609  153.7703 H   0  0  0  0  0  0  0  0  0  0  0  0
  150.0423  143.8111  156.6470 H   0  0  0  0  0  0  0  0  0  0  0  0
  152.5834  143.1054  157.3781 H   0  0  0  0  0  0  0  0  0  0  0  0
  150.6465  142.0525  159.5181 H   0  0  0  0  0  0  0  0  0  0  0  0
  151.4778  141.0508  158.3650 H   0  0  0  0  0  0  0  0  0  0  0  0
  152.9425  140.8604  160.1070 H   0  0  0  0  0  0  0  0  0  0  0  0
  153.6864  142.1440  159.2152 H   0  0  0  0  0  0  0  0  0  0  0  0
  152.2116  142.2346  161.8532 H   0  0  0  0  0  0  0  0  0  0  0  0
  153.7940  142.8296  161.4592 H   0  0  0  0  0  0  0  0  0  0  0  0
  151.1117  144.1418  161.0918 H   0  0  0  0  0  0  0  0  0  0  0  0
  152.5762  144.7791  161.7629 H   0  0  0  0  0  0  0  0  0  0  0  0
  152.4426  145.9616  159.7889 H   0  0  0  0  0  0  0  0  0  0  0  0
  153.5170  144.6911  159.2822 H   0  0  0  0  0  0  0  0  0  0  0  0
  151.5873  145.2856  157.7112 H   0  0  0  0  0  0  0  0  0  0  0  0
  150.4670  144.6853  158.8951 H   0  0  0  0  0  0  0  0  0  0  0  0
  1  2  2  0  0  0  0
  2  3  1  0  0  0  0
  2 10  1  0  0  0  0
  3  4  1  0  0  0  0
  3 18  1  0  0  0  0
  4  9  1  0  0  0  0
  4  5  2  0  0  0  0
  5  6  1  0  0  0  0
  5 19  1  0  0  0  0
  6  7  2  0  0  0  0
  6 20  1  0  0  0  0
  7  8  1  0  0  0  0
  7 21  1  0  0  0  0
  8  9  2  0  0  0  0
  8 22  1  0  0  0  0
 10 11  1  0  0  0  0
 10 23  1  0  0  0  0
 11 17  1  0  0  0  0
 11 12  1  0  0  0  0
 11 24  1  0  0  0  0
 12 13  1  0  0  0  0
 12 25  1  0  0  0  0
 12 26  1  0  0  0  0
 13 14  1  0  0  0  0
 13 27  1  0  0  0  0
 13 28  1  0  0  0  0
 14 15  1  0  0  0  0
 14 29  1  0  0  0  0
 14 30  1  0  0  0  0
 15 16  1  0  0  0  0
 15 31  1  0  0  0  0
 15 32  1  0  0  0  0
 16 17  1  0  0  0  0
 16 33  1  0  0  0  0
 16 34  1  0  0  0  0
 17 35  1  0  0  0  0
 17 36  1  0  0  0  0
M  END
> <s_m_source_file>
AV-unprocessed.smi

> <i_m_source_file_index>
621

> <i_lp_mmshare_version>
43012

> <i_f3d_flags>
0

> <s_epik_input>
bjFbY0hdW2NIXVtjSF1bY0hdYzFbTkhdQyg9TylbTkhdW0NIXTJbQ0gyXVtDSDJdW0NIMl1bQ0gyXVtDSDJdW0NIMl0y

> <s_epik_cmdline>
J2VwaWtfcHl0aG9uJywgJy1waCcsICc3LjAnLCAnLXRuJywgJzgnLCAnLW1hJywgJzIwMCcsICctbWV0YWxfYmluZGluZycsICctaW1hZScsICc8aW5maWxlLm1hZT4nLCAnLW9tYWUnLCAnPG91dGZpbGUubWFlPic=

> <r_lp_tautomer_probability>
1

> <r_epik_Ionization_Penalty>
5.35129e-05

> <r_epik_Ionization_Penalty_Charging>
0

> <r_epik_Ionization_Penalty_Neutral>
5.35129e-05

> <r_epik_State_Penalty>
-0

> <r_epik_Charging_Adjusted_Penalty>
0

> <i_epik_Tot_Q>
0

> <i_epik_Tot_abs_Q>
0

> <r_epik_Metal_State_Penalty>
-0

> <b_epik_Metal_Only>
0

> <s_lp_Force_Field>
OPLS_2005

> <r_lp_Energy>
17.2973

> <b_lp_Chiralities_Consistent>
1

> <s_lp_Variant>
AV-unprocessed.smi:621-1

> <Gold.Version>
5.8.1

> <Gold.Id.Protein>
6NUR|6NUR_protein|mol2

> <Gold.PLP.Fitness>
48.0103

> <Gold.PLP.PLP>
-39.3021

> <Gold.PLP.part.hbond>
-2.0000

> <Gold.PLP.part.metal>
0.0000

> <Gold.PLP.part.buried>
-3.6139

> <Gold.PLP.part.nonpolar>
-33.2600

> <Gold.PLP.part.repulsive>
0.3268

> <Gold.PLP.ligand.clash>
0.0000

> <Gold.PLP.ligand.torsion>
0.1527

> <Gold.PLP.Chemscore.Hbond>
2.0000

> <Gold.PLP.Chemscore.CHOScore>
1.0000

> <Gold.PLP.Chemscore.Metal>
0.0000

> <Gold.Chemscore.Hbonds>
donor molecule, donor type, donor heavy atom, donor atom, acceptor molecule, acceptor atom, score
      L1  H     3    18       P1  8028  1.00
      L1  H    10    23       P1  8028  1.00
      L1  C     8    22       P1  7948  1.00

> <Gold.PLP.Chemscore.Internal.Correction>
0.0135

> <Gold.Rescore>
     Score         DG    S(hbond)    S(metal)    S(lipo)     H(rot)  DE(clash)    DE(int)     intcor
     18.91     -22.13       1.96        0.00     108.35       1.00       0.41       2.81       ----

> <Gold.Chemscore.Fitness>
18.9107

> <Gold.Chemscore.DG>
-22.1271

> <Gold.Chemscore.ZeroCoef>
-5.4800

> <Gold.Chemscore.Hbond>
1.9552

> <Gold.Chemscore.Metal>
0.0000

> <Gold.Chemscore.Lipo>
108.3471

> <Gold.Chemscore.Internal_Hbond>
0.0000

> <Gold.Chemscore.DEClash>
0.4088

> <Gold.Chemscore.DEInternal>
2.8075

> <Gold.Chemscore.Rot>
1.0000

> <Gold.Chemscore.Internal.Correction>
   9.000000E+99

> <Gold.Chemscore.Hbonds>
donor molecule, donor type, donor heavy atom, donor atom, acceptor molecule, acceptor atom, score
      L1  H     3    18       P1  8028  0.98
      L1  H    10    23       P1  8028  0.98

> <Gold.Chemscore.Hbond.Weighted>
-6.5305

> <Gold.Chemscore.Metal.Weighted>
-0.0000

> <Gold.Chemscore.Lipo.Weighted>
-12.6766

> <Gold.Chemscore.Internal_Hbond.Weighted>
0.0000

> <Gold.Chemscore.DEClash.Weighted>
0.4088

> <Gold.Chemscore.DEInternal.Weighted>
2.8075

> <Gold.Chemscore.Rot.Weighted>
2.5600

> <Gold.Chemscore.Internal.Correction.Weighted>
   9.000000E+99

> <Gold.Protein.RotatedTorsions>
[ 6907 6896 6895 6894 ] final   36.64 input  -60.11 | X-H torsion
[ 7974 7965 7964 7962 ] final  -99.57 input  175.53 | X-H torsion
[ 8008 7997 7996 7995 ] final  143.42 input   59.86 | X-H torsion
[ 10167 10162 10161 10158 ] final -164.77 input  -65.29 | X-H torsion
[ 10718 10713 10712 10709 ] final -147.86 input   66.30 | X-H torsion
[ 10763 10752 10751 10750 ] final  162.19 input  -60.55 | X-H torsion
[ 11005 11000 10999 10996 ] final   41.91 input  -57.11 | X-H torsion

> <Gold.Protein.ActiveResidues>
 VAL166  LYS551  ARG553  GLY616  TRP617  ASP618  TYR619  PRO620  LYS621  CYS622 
 ASP623  PHE694  ASN695  SER759  ASP760  ASP761  ALA762  ILE779  LEU786  VAL792 
 PHE793  MET794  SER795  GLU796  ALA797  LYS798  CYS799  TRP800  GLU811  SER814 

> <Gold.Protein.RotatedAtoms>
  152.1325  134.9124  160.0557 H   0  0  0  0  0  0  0  0  0  0  0  0  # atno 6907 bound_to 6896
  152.0223  133.3899  159.4271 H   0  0  0  0  0  0  0  0  0  0  0  0  # atno 6908 bound_to 6896
  150.6857  134.3533  159.4962 H   0  0  0  0  0  0  0  0  0  0  0  0  # atno 6909 bound_to 6896
  145.3059  140.9388  143.2797 H   0  0  0  0  0  0  0  0  0  0  0  0  # atno 7974 bound_to 7965
  156.2930  140.2263  156.4887 H   0  0  0  0  0  0  0  0  0  0  0  0  # atno 8008 bound_to 7997
  154.7790  140.0461  157.1133 H   0  0  0  0  0  0  0  0  0  0  0  0  # atno 8009 bound_to 7997
  154.9782  140.3075  155.4961 H   0  0  0  0  0  0  0  0  0  0  0  0  # atno 8010 bound_to 7997
  139.6228  144.0592  152.1948 H   0  0  0  0  0  0  0  0  0  0  0  0  # atno 10167 bound_to 10162
  156.4129  130.7991  151.2209 H   0  0  0  0  0  0  0  0  0  0  0  0  # atno 10718 bound_to 10713
  154.2745  135.2765  155.2724 H   0  0  0  0  0  0  0  0  0  0  0  0  # atno 10763 bound_to 10752
  154.5272  135.5740  153.6732 H   0  0  0  0  0  0  0  0  0  0  0  0  # atno 10764 bound_to 10752
  152.9939  135.6219  154.2902 H   0  0  0  0  0  0  0  0  0  0  0  0  # atno 10765 bound_to 10752
  140.1790  134.4128  155.8211 H   0  0  0  0  0  0  0  0  0  0  0  0  # atno 11005 bound_to 11000
  144.9055  139.4594  143.6612 LP  0  0  0  0  0  0  0  0  0  0  0  0  # atno 17320 bound_to 7965
  146.3135  139.7834  142.9001 LP  0  0  0  0  0  0  0  0  0  0  0  0  # atno 17321 bound_to 7965
  140.0238  144.6133  150.7545 LP  0  0  0  0  0  0  0  0  0  0  0  0  # atno 17342 bound_to 10162
  140.7392  143.2788  151.3659 LP  0  0  0  0  0  0  0  0  0  0  0  0  # atno 17343 bound_to 10162
  157.7507  131.0252  150.3908 LP  0  0  0  0  0  0  0  0  0  0  0  0  # atno 17370 bound_to 10713
  156.4210  130.3953  149.6825 LP  0  0  0  0  0  0  0  0  0  0  0  0  # atno 17371 bound_to 10713
  141.2222  133.6991  156.7896 LP  0  0  0  0  0  0  0  0  0  0  0  0  # atno 17394 bound_to 11000
  140.2290  134.8700  157.3456 LP  0  0  0  0  0  0  0  0  0  0  0  0  # atno 17395 bound_to 11000

$$$$
