AV-unprocessed.smi:1375|AV-procd|sdf|5589|dock10
  -GOLD-   22720 5193D 1   1.00000     0.00000
 Structure written by MMmdl.
 36 37  0  0  0  0  0  0  0  0  1 V2000
  144.4931  145.3027  153.3400 C   0  0  0  0  0  0  0  0  0  0  0  0
  145.2330  144.2047  154.0239 C   0  0  0  0  0  0  0  0  0  0  0  0
  146.1207  143.4173  153.4112 N   0  0  0  0  0  0  0  0  0  0  0  0
  146.6772  142.4635  154.2695 C   0  0  0  0  0  0  0  0  0  0  0  0
  147.6978  141.4953  153.7534 C   0  0  0  0  0  0  0  0  0  0  0  0
  148.6227  140.9778  154.8675 C   0  0  0  0  0  0  0  0  0  0  0  0
  149.3260  142.0684  155.5324 N   0  0  0  0  0  0  0  0  0  0  0  0
  150.4086  141.9257  156.3156 C   0  0  0  0  0  0  0  0  0  0  0  0
  150.9273  140.8386  156.5632 O   0  0  0  0  0  0  0  0  0  0  0  0
  150.8999  143.0757  156.8105 N   0  0  0  0  0  0  0  0  0  0  0  0
  152.0590  143.2575  157.6874 C   0  0  0  0  0  0  0  0  0  0  0  0
  151.8452  142.6040  159.0700 C   0  0  0  0  0  0  0  0  0  0  0  0
  152.2053  143.6703  160.1059 C   0  0  0  0  0  0  0  0  0  0  0  0
  151.8877  144.9907  159.4121 C   0  0  0  0  0  0  0  0  0  0  0  0
  152.2968  144.7546  157.9582 C   0  0  0  0  0  0  0  0  0  0  0  0
  146.1959  142.5442  155.5525 C   0  0  0  0  0  0  0  0  0  0  0  0
  145.0234  143.8205  155.7280 S   0  0  0  0  0  0  0  0  0  0  0  0
  144.6465  145.2565  152.2613 H   0  0  0  0  0  0  0  0  0  0  0  0
  144.8435  146.2692  153.7024 H   0  0  0  0  0  0  0  0  0  0  0  0
  143.4258  145.2170  153.5444 H   0  0  0  0  0  0  0  0  0  0  0  0
  147.1955  140.6547  153.2730 H   0  0  0  0  0  0  0  0  0  0  0  0
  148.2966  141.9684  152.9739 H   0  0  0  0  0  0  0  0  0  0  0  0
  148.0392  140.4456  155.6192 H   0  0  0  0  0  0  0  0  0  0  0  0
  149.3405  140.2602  154.4663 H   0  0  0  0  0  0  0  0  0  0  0  0
  148.9693  143.0008  155.3818 H   0  0  0  0  0  0  0  0  0  0  0  0
  150.4221  143.9221  156.5365 H   0  0  0  0  0  0  0  0  0  0  0  0
  152.9492  142.8487  157.2059 H   0  0  0  0  0  0  0  0  0  0  0  0
  150.8001  142.3202  159.2037 H   0  0  0  0  0  0  0  0  0  0  0  0
  152.4413  141.6994  159.1939 H   0  0  0  0  0  0  0  0  0  0  0  0
  151.6618  143.5457  161.0429 H   0  0  0  0  0  0  0  0  0  0  0  0
  153.2718  143.6211  160.3299 H   0  0  0  0  0  0  0  0  0  0  0  0
  150.8159  145.1864  159.4661 H   0  0  0  0  0  0  0  0  0  0  0  0
  152.4055  145.8382  159.8621 H   0  0  0  0  0  0  0  0  0  0  0  0
  153.3593  144.9744  157.8465 H   0  0  0  0  0  0  0  0  0  0  0  0
  151.7618  145.4113  157.2703 H   0  0  0  0  0  0  0  0  0  0  0  0
  146.4609  141.9330  156.4025 H   0  0  0  0  0  0  0  0  0  0  0  0
  1  2  1  0  0  0  0
  1 18  1  0  0  0  0
  1 19  1  0  0  0  0
  1 20  1  0  0  0  0
  2 17  1  0  0  0  0
  2  3  2  0  0  0  0
  3  4  1  0  0  0  0
  4  5  1  0  0  0  0
  4 16  2  0  0  0  0
  5  6  1  0  0  0  0
  5 21  1  0  0  0  0
  5 22  1  0  0  0  0
  6  7  1  0  0  0  0
  6 23  1  0  0  0  0
  6 24  1  0  0  0  0
  7  8  1  0  0  0  0
  7 25  1  0  0  0  0
  8  9  2  0  0  0  0
  8 10  1  0  0  0  0
 10 11  1  0  0  0  0
 10 26  1  0  0  0  0
 11 15  1  0  0  0  0
 11 12  1  0  0  0  0
 11 27  1  0  0  0  0
 12 13  1  0  0  0  0
 12 28  1  0  0  0  0
 12 29  1  0  0  0  0
 13 14  1  0  0  0  0
 13 30  1  0  0  0  0
 13 31  1  0  0  0  0
 14 15  1  0  0  0  0
 14 32  1  0  0  0  0
 14 33  1  0  0  0  0
 15 34  1  0  0  0  0
 15 35  1  0  0  0  0
 16 17  1  0  0  0  0
 16 36  1  0  0  0  0
M  END
> <s_m_source_file>
AV-unprocessed.smi

> <i_m_source_file_index>
1375

> <i_lp_mmshare_version>
43012

> <i_f3d_flags>
0

> <s_epik_input>
W0NIM11jMW5jKFtjSF1zMSlbQ0gyXVtDSDJdW05IXUMoPU8pW05IXVtDSF0yW0NIMl1bQ0gyXVtDSDJdW0NIMl0y

> <s_epik_cmdline>
J2VwaWtfcHl0aG9uJywgJy1waCcsICc3LjAnLCAnLXRuJywgJzgnLCAnLW1hJywgJzIwMCcsICctbWV0YWxfYmluZGluZycsICctaW1hZScsICc8aW5maWxlLm1hZT4nLCAnLW9tYWUnLCAnPG91dGZpbGUubWFlPic=

> <r_epik_Ionization_Penalty>
0.00202185

> <r_epik_Ionization_Penalty_Charging>
0

> <r_epik_Ionization_Penalty_Neutral>
0.00202185

> <r_epik_State_Penalty>
0.00133629

> <r_epik_Charging_Adjusted_Penalty>
0.00133629

> <i_epik_Tot_Q>
0

> <i_epik_Tot_abs_Q>
0

> <r_epik_Metal_State_Penalty>
-0

> <b_epik_Metal_Only>
0

> <s_lp_Force_Field>
OPLS_2005

> <r_lp_Energy>
21.3593

> <b_lp_Chiralities_Consistent>
1

> <s_lp_Variant>
AV-unprocessed.smi:1375-1

> <Gold.Version>
5.8.1

> <Gold.Id.Protein>
6NUR|6NUR_protein|mol2

> <Gold.PLP.Fitness>
46.0641

> <Gold.PLP.PLP>
-41.0133

> <Gold.PLP.part.hbond>
-2.4424

> <Gold.PLP.part.metal>
0.0000

> <Gold.PLP.part.buried>
-6.9036

> <Gold.PLP.part.nonpolar>
-32.2321

> <Gold.PLP.part.repulsive>
0.4335

> <Gold.PLP.ligand.clash>
0.0000

> <Gold.PLP.ligand.torsion>
0.4708

> <Gold.PLP.Chemscore.Hbond>
1.9920

> <Gold.PLP.Chemscore.CHOScore>
0.0000

> <Gold.PLP.Chemscore.Metal>
0.0000

> <Gold.Chemscore.Hbonds>
donor molecule, donor type, donor heavy atom, donor atom, acceptor molecule, acceptor atom, score
      L1  H     7    25       P1  8028  1.00
      L1  H    10    26       P1  8028  0.98

> <Gold.PLP.Chemscore.Internal.Correction>
0.0163

> <Gold.Rescore>
     Score         DG    S(hbond)    S(metal)    S(lipo)     H(rot)  DE(clash)    DE(int)     intcor
     18.11     -19.89       1.90        0.00     101.98       1.51       1.44       0.34       ----

> <Gold.Chemscore.Fitness>
18.1121

> <Gold.Chemscore.DG>
-19.8933

> <Gold.Chemscore.ZeroCoef>
-5.4800

> <Gold.Chemscore.Hbond>
1.8971

> <Gold.Chemscore.Metal>
0.0000

> <Gold.Chemscore.Lipo>
101.9846

> <Gold.Chemscore.Internal_Hbond>
0.0000

> <Gold.Chemscore.DEClash>
1.4392

> <Gold.Chemscore.DEInternal>
0.3421

> <Gold.Chemscore.Rot>
1.5060

> <Gold.Chemscore.Internal.Correction>
   9.000000E+99

> <Gold.Chemscore.Hbonds>
donor molecule, donor type, donor heavy atom, donor atom, acceptor molecule, acceptor atom, score
      L1  H     7    25       P1  8028  0.99
      L1  H    10    26       P1  8028  0.93

> <Gold.Chemscore.Hbond.Weighted>
-6.3364

> <Gold.Chemscore.Metal.Weighted>
-0.0000

> <Gold.Chemscore.Lipo.Weighted>
-11.9322

> <Gold.Chemscore.Internal_Hbond.Weighted>
0.0000

> <Gold.Chemscore.DEClash.Weighted>
1.4392

> <Gold.Chemscore.DEInternal.Weighted>
0.3421

> <Gold.Chemscore.Rot.Weighted>
3.8553

> <Gold.Chemscore.Internal.Correction.Weighted>
   9.000000E+99

> <Gold.Protein.RotatedTorsions>
[ 6907 6896 6895 6894 ] final   65.12 input  -60.11 | X-H torsion
[ 7974 7965 7964 7962 ] final -114.81 input  175.53 | X-H torsion
[ 8008 7997 7996 7995 ] final  103.62 input   59.86 | X-H torsion
[ 10167 10162 10161 10158 ] final   40.81 input  -65.29 | X-H torsion
[ 10718 10713 10712 10709 ] final -133.32 input   66.30 | X-H torsion
[ 10763 10752 10751 10750 ] final  -57.90 input  -60.55 | X-H torsion
[ 11005 11000 10999 10996 ] final -152.90 input  -57.11 | X-H torsion

> <Gold.Protein.ActiveResidues>
 VAL166  LYS551  ARG553  GLY616  TRP617  ASP618  TYR619  PRO620  LYS621  CYS622 
 ASP623  PHE694  ASN695  SER759  ASP760  ASP761  ALA762  ILE779  LEU786  VAL792 
 PHE793  MET794  SER795  GLU796  ALA797  LYS798  CYS799  TRP800  GLU811  SER814 

> <Gold.Protein.RotatedAtoms>
  152.4384  134.5641  159.9902 H   0  0  0  0  0  0  0  0  0  0  0  0  # atno 6907 bound_to 6896
  151.5745  133.3380  159.3004 H   0  0  0  0  0  0  0  0  0  0  0  0  # atno 6908 bound_to 6896
  150.8286  134.7562  159.6898 H   0  0  0  0  0  0  0  0  0  0  0  0  # atno 6909 bound_to 6896
  145.1158  140.8639  143.3843 H   0  0  0  0  0  0  0  0  0  0  0  0  # atno 7974 bound_to 7965
  156.1500  140.3161  155.8633 H   0  0  0  0  0  0  0  0  0  0  0  0  # atno 8008 bound_to 7997
  155.3989  140.0498  157.3054 H   0  0  0  0  0  0  0  0  0  0  0  0  # atno 8009 bound_to 7997
  154.5050  140.2143  155.9281 H   0  0  0  0  0  0  0  0  0  0  0  0  # atno 8010 bound_to 7997
  140.3705  144.2110  150.6133 H   0  0  0  0  0  0  0  0  0  0  0  0  # atno 10167 bound_to 10162
  156.2437  130.7111  151.0983 H   0  0  0  0  0  0  0  0  0  0  0  0  # atno 10718 bound_to 10713
  154.2297  135.6363  153.5171 H   0  0  0  0  0  0  0  0  0  0  0  0  # atno 10763 bound_to 10752
  152.9951  135.5516  154.6025 H   0  0  0  0  0  0  0  0  0  0  0  0  # atno 10764 bound_to 10752
  154.5505  135.2901  155.0987 H   0  0  0  0  0  0  0  0  0  0  0  0  # atno 10765 bound_to 10752
  140.7139  134.3802  157.5193 H   0  0  0  0  0  0  0  0  0  0  0  0  # atno 11005 bound_to 11000
  145.0796  139.2970  143.5790 LP  0  0  0  0  0  0  0  0  0  0  0  0  # atno 17320 bound_to 7965
  146.3524  140.0298  142.8651 LP  0  0  0  0  0  0  0  0  0  0  0  0  # atno 17321 bound_to 7965
  140.5037  143.2310  151.8639 LP  0  0  0  0  0  0  0  0  0  0  0  0  # atno 17342 bound_to 10162
  139.4804  144.5029  151.9036 LP  0  0  0  0  0  0  0  0  0  0  0  0  # atno 17343 bound_to 10162
  157.7186  131.0695  150.6228 LP  0  0  0  0  0  0  0  0  0  0  0  0  # atno 17370 bound_to 10713
  156.6303  130.4430  149.5789 LP  0  0  0  0  0  0  0  0  0  0  0  0  # atno 17371 bound_to 10713
  139.8864  134.8909  156.2584 LP  0  0  0  0  0  0  0  0  0  0  0  0  # atno 17394 bound_to 11000
  141.0061  133.7123  156.1036 LP  0  0  0  0  0  0  0  0  0  0  0  0  # atno 17395 bound_to 11000

$$$$
