AV-unprocessed.smi:2696|AV-procd|sdf|10414|dock7
  -GOLD-   2272014453D 1   1.00000     0.00000
 Structure written by MMmdl.
 43 44  0  0  0  0  0  0  0  0  1 V2000
  154.9062  134.7871  164.4027 C   0  0  0  0  0  0  0  0  0  0  0  0
  156.0817  135.5398  163.7590 C   0  0  0  0  0  0  0  0  0  0  0  0
  157.1003  136.0075  164.8095 C   0  0  0  0  0  0  0  0  0  0  0  0
  155.6002  136.6969  162.8937 C   0  0  0  0  0  0  0  0  0  0  0  0
  156.4528  137.4856  162.1964 C   0  0  0  0  0  0  0  0  0  0  0  0
  155.9546  138.6025  161.3942 C   0  0  0  0  0  0  0  0  0  0  0  0
  156.7000  139.3204  160.7279 O   0  0  0  0  0  0  0  0  0  0  0  0
  154.6043  138.7945  161.4495 N   0  0  0  0  0  0  0  0  0  0  0  0
  153.9679  139.9305  160.7489 C   0  0  0  0  0  0  0  0  0  0  0  0
  153.3695  139.5835  159.3503 C   0  0  2  0  0  0  0  0  0  0  0  0
  152.5513  138.2772  159.4350 C   0  0  0  0  0  0  0  0  0  0  0  0
  154.4542  139.2115  158.5181 O   0  0  0  0  0  0  0  0  0  0  0  0
  152.5328  140.7261  158.7530 C   0  0  0  0  0  0  0  0  0  0  0  0
  151.8563  140.5697  157.5199 C   0  0  0  0  0  0  0  0  0  0  0  0
  151.1271  141.6369  156.9633 C   0  0  0  0  0  0  0  0  0  0  0  0
  151.0684  142.8743  157.6290 C   0  0  0  0  0  0  0  0  0  0  0  0
  151.7414  143.0537  158.8546 C   0  0  0  0  0  0  0  0  0  0  0  0
  151.6762  144.4020  159.5567 C   0  0  0  0  0  0  0  0  0  0  0  0
  152.3102  144.3829  160.7298 F   0  0  0  0  0  0  0  0  0  0  0  0
  152.2387  145.3383  158.7924 F   0  0  0  0  0  0  0  0  0  0  0  0
  150.4014  144.7279  159.7668 F   0  0  0  0  0  0  0  0  0  0  0  0
  152.4647  141.9764  159.4114 C   0  0  0  0  0  0  0  0  0  0  0  0
  153.7566  137.9190  162.1601 C   0  0  0  0  0  0  0  0  0  0  0  0
  154.2215  136.9272  162.8501 N   0  0  0  0  0  0  0  0  0  0  0  0
  154.1995  134.4447  163.6460 H   0  0  0  0  0  0  0  0  0  0  0  0
  154.3617  135.4161  165.1074 H   0  0  0  0  0  0  0  0  0  0  0  0
  155.2558  133.9095  164.9470 H   0  0  0  0  0  0  0  0  0  0  0  0
  156.5945  134.8327  163.1048 H   0  0  0  0  0  0  0  0  0  0  0  0
  157.9457  136.5095  164.3379 H   0  0  0  0  0  0  0  0  0  0  0  0
  157.4939  135.1628  165.3756 H   0  0  0  0  0  0  0  0  0  0  0  0
  156.6538  136.7028  165.5210 H   0  0  0  0  0  0  0  0  0  0  0  0
  157.5164  137.3013  162.2351 H   0  0  0  0  0  0  0  0  0  0  0  0
  153.2182  140.4036  161.3865 H   0  0  0  0  0  0  0  0  0  0  0  0
  154.7142  140.7154  160.6106 H   0  0  0  0  0  0  0  0  0  0  0  0
  151.7004  138.3652  160.1099 H   0  0  0  0  0  0  0  0  0  0  0  0
  153.1592  137.4505  159.8057 H   0  0  0  0  0  0  0  0  0  0  0  0
  152.1643  137.9874  158.4570 H   0  0  0  0  0  0  0  0  0  0  0  0
  154.7396  138.3446  158.7631 H   0  0  0  0  0  0  0  0  0  0  0  0
  151.8980  139.6365  156.9782 H   0  0  0  0  0  0  0  0  0  0  0  0
  150.6167  141.5069  156.0205 H   0  0  0  0  0  0  0  0  0  0  0  0
  150.5093  143.6897  157.1942 H   0  0  0  0  0  0  0  0  0  0  0  0
  152.9919  142.1174  160.3422 H   0  0  0  0  0  0  0  0  0  0  0  0
  152.6903  138.1418  162.0991 H   0  0  0  0  0  0  0  0  0  0  0  0
  1  2  1  0  0  0  0
  1 25  1  0  0  0  0
  1 26  1  0  0  0  0
  1 27  1  0  0  0  0
  2  3  1  0  0  0  0
  2  4  1  0  0  0  0
  2 28  1  0  0  0  0
  3 29  1  0  0  0  0
  3 30  1  0  0  0  0
  3 31  1  0  0  0  0
  4 24  1  0  0  0  0
  4  5  2  0  0  0  0
  5  6  1  0  0  0  0
  5 32  1  0  0  0  0
  6  7  2  0  0  0  0
  6  8  1  0  0  0  0
  8  9  1  0  0  0  0
  8 23  1  0  0  0  0
  9 10  1  0  0  0  0
  9 33  1  0  0  0  0
  9 34  1  0  0  0  0
 10 11  1  0  0  0  0
 10 12  1  0  0  0  0
 10 13  1  0  0  0  0
 11 35  1  0  0  0  0
 11 36  1  0  0  0  0
 11 37  1  0  0  0  0
 12 38  1  0  0  0  0
 13 22  1  0  0  0  0
 13 14  2  0  0  0  0
 14 15  1  0  0  0  0
 14 39  1  0  0  0  0
 15 16  2  0  0  0  0
 15 40  1  0  0  0  0
 16 17  1  0  0  0  0
 16 41  1  0  0  0  0
 17 18  1  0  0  0  0
 17 22  2  0  0  0  0
 18 19  1  0  0  0  0
 18 20  1  0  0  0  0
 18 21  1  0  0  0  0
 22 42  1  0  0  0  0
 23 24  2  0  0  0  0
 23 43  1  0  0  0  0
M  END
> <s_m_source_file>
AV-unprocessed.smi

> <i_m_source_file_index>
2696

> <i_lp_mmshare_version>
43012

> <i_f3d_flags>
0

> <s_epik_input>
W0NIM11bQ0hdKFtDSDNdKWMxW2NIXWMoPU8pbihbY0hdbjEpW0NIMl1bQ0BAXShbQ0gzXSkoW09IXSljMltjSF1bY0hdW2NIXWMoQyhGKShGKUYpW2NIXTI=

> <s_epik_cmdline>
J2VwaWtfcHl0aG9uJywgJy1waCcsICc3LjAnLCAnLXRuJywgJzgnLCAnLW1hJywgJzIwMCcsICctbWV0YWxfYmluZGluZycsICctaW1hZScsICc8aW5maWxlLm1hZT4nLCAnLW9tYWUnLCAnPG91dGZpbGUubWFlPic=

> <r_lp_tautomer_probability>
1

> <r_epik_Ionization_Penalty>
2.71388e-05

> <r_epik_Ionization_Penalty_Charging>
4.19927e-06

> <r_epik_Ionization_Penalty_Neutral>
2.29395e-05

> <r_epik_State_Penalty>
-0

> <r_epik_Charging_Adjusted_Penalty>
4.19927e-06

> <i_epik_Tot_Q>
0

> <i_epik_Tot_abs_Q>
0

> <r_epik_Metal_State_Penalty>
-0

> <b_epik_Metal_Only>
0

> <s_lp_Force_Field>
OPLS_2005

> <r_lp_Energy>
19.4026

> <b_lp_Chiralities_Consistent>
1

> <s_lp_Variant>
AV-unprocessed.smi:2696-2

> <Gold.Version>
5.8.1

> <Gold.Id.Protein>
6NUR|6NUR_protein|mol2

> <Gold.PLP.Fitness>
45.1357

> <Gold.PLP.PLP>
-42.8880

> <Gold.PLP.part.hbond>
-1.0000

> <Gold.PLP.part.metal>
0.0000

> <Gold.PLP.part.buried>
-6.8497

> <Gold.PLP.part.nonpolar>
-34.9960

> <Gold.PLP.part.repulsive>
0.0000

> <Gold.PLP.ligand.clash>
0.0591

> <Gold.PLP.ligand.torsion>
0.5386

> <Gold.PLP.Chemscore.Hbond>
1.0000

> <Gold.PLP.Chemscore.CHOScore>
0.0000

> <Gold.PLP.Chemscore.Metal>
0.0000

> <Gold.Chemscore.Hbonds>
donor molecule, donor type, donor heavy atom, donor atom, acceptor molecule, acceptor atom, score
      P1  H  7997  8009       L1    12  1.00

> <Gold.PLP.Chemscore.Internal.Correction>
0.3839

> <Gold.Rescore>
     Score         DG    S(hbond)    S(metal)    S(lipo)     H(rot)  DE(clash)    DE(int)     intcor
     13.55     -15.40       0.99        0.00     105.42       2.23       0.19       1.67       ----

> <Gold.Chemscore.Fitness>
13.5462

> <Gold.Chemscore.DG>
-15.4048

> <Gold.Chemscore.ZeroCoef>
-5.4800

> <Gold.Chemscore.Hbond>
0.9888

> <Gold.Chemscore.Metal>
0.0000

> <Gold.Chemscore.Lipo>
105.4192

> <Gold.Chemscore.Internal_Hbond>
0.0000

> <Gold.Chemscore.DEClash>
0.1850

> <Gold.Chemscore.DEInternal>
1.6736

> <Gold.Chemscore.Rot>
2.2312

> <Gold.Chemscore.Internal.Correction>
   9.000000E+99

> <Gold.Chemscore.Hbonds>
donor molecule, donor type, donor heavy atom, donor atom, acceptor molecule, acceptor atom, score
      P1  H  7997  8009       L1    12  0.96

> <Gold.Chemscore.Hbond.Weighted>
-3.3026

> <Gold.Chemscore.Metal.Weighted>
-0.0000

> <Gold.Chemscore.Lipo.Weighted>
-12.3341

> <Gold.Chemscore.Internal_Hbond.Weighted>
0.0000

> <Gold.Chemscore.DEClash.Weighted>
0.1850

> <Gold.Chemscore.DEInternal.Weighted>
1.6736

> <Gold.Chemscore.Rot.Weighted>
5.7118

> <Gold.Chemscore.Internal.Correction.Weighted>
   9.000000E+99

> <Gold.Protein.RotatedTorsions>
[ 6907 6896 6895 6894 ] final   98.94 input  -60.11 | X-H torsion
[ 7974 7965 7964 7962 ] final  150.95 input  175.53 | X-H torsion
[ 8008 7997 7996 7995 ] final  115.55 input   59.86 | X-H torsion
[ 10167 10162 10161 10158 ] final -164.32 input  -65.29 | X-H torsion
[ 10718 10713 10712 10709 ] final   25.84 input   66.30 | X-H torsion
[ 10763 10752 10751 10750 ] final  125.57 input  -60.55 | X-H torsion
[ 11005 11000 10999 10996 ] final  -15.19 input  -57.11 | X-H torsion

> <Gold.Protein.ActiveResidues>
 VAL166  LYS551  ARG553  GLY616  TRP617  ASP618  TYR619  PRO620  LYS621  CYS622 
 ASP623  PHE694  ASN695  SER759  ASP760  ASP761  ALA762  ILE779  LEU786  VAL792 
 PHE793  MET794  SER795  GLU796  ALA797  LYS798  CYS799  TRP800  GLU811  SER814 

> <Gold.Protein.RotatedAtoms>
  152.5401  134.0504  159.8107 H   0  0  0  0  0  0  0  0  0  0  0  0  # atno 6907 bound_to 6896
  151.0647  133.5508  159.2639 H   0  0  0  0  0  0  0  0  0  0  0  0  # atno 6908 bound_to 6896
  151.2393  135.0591  159.9072 H   0  0  0  0  0  0  0  0  0  0  0  0  # atno 6909 bound_to 6896
  144.8327  139.6474  143.6051 H   0  0  0  0  0  0  0  0  0  0  0  0  # atno 7974 bound_to 7965
  156.2388  140.2936  156.0386 H   0  0  0  0  0  0  0  0  0  0  0  0  # atno 8008 bound_to 7997
  155.2013  140.0409  157.2935 H   0  0  0  0  0  0  0  0  0  0  0  0  # atno 8009 bound_to 7997
  154.6128  140.2456  155.7654 H   0  0  0  0  0  0  0  0  0  0  0  0  # atno 8010 bound_to 7997
  139.6258  144.0534  152.1974 H   0  0  0  0  0  0  0  0  0  0  0  0  # atno 10167 bound_to 10162
  157.1988  130.6880  149.6180 H   0  0  0  0  0  0  0  0  0  0  0  0  # atno 10718 bound_to 10713
  153.6795  135.3317  155.3174 H   0  0  0  0  0  0  0  0  0  0  0  0  # atno 10763 bound_to 10752
  154.8470  135.4405  154.1621 H   0  0  0  0  0  0  0  0  0  0  0  0  # atno 10764 bound_to 10752
  153.2634  135.6993  153.7632 H   0  0  0  0  0  0  0  0  0  0  0  0  # atno 10765 bound_to 10752
  140.7941  133.8264  155.9408 H   0  0  0  0  0  0  0  0  0  0  0  0  # atno 11005 bound_to 11000
  146.2629  139.6451  142.9350 LP  0  0  0  0  0  0  0  0  0  0  0  0  # atno 17320 bound_to 7965
  145.4861  141.0438  143.2619 LP  0  0  0  0  0  0  0  0  0  0  0  0  # atno 17321 bound_to 7965
  140.0187  144.6169  150.7585 LP  0  0  0  0  0  0  0  0  0  0  0  0  # atno 17342 bound_to 10162
  140.7410  143.2812  151.3593 LP  0  0  0  0  0  0  0  0  0  0  0  0  # atno 17343 bound_to 10162
  155.9703  130.4590  150.6019 LP  0  0  0  0  0  0  0  0  0  0  0  0  # atno 17370 bound_to 10713
  157.3788  131.0777  151.1495 LP  0  0  0  0  0  0  0  0  0  0  0  0  # atno 17371 bound_to 10713
  140.9360  134.1962  157.4831 LP  0  0  0  0  0  0  0  0  0  0  0  0  # atno 17394 bound_to 11000
  139.8728  134.9852  156.5273 LP  0  0  0  0  0  0  0  0  0  0  0  0  # atno 17395 bound_to 11000

$$$$
