AV-unprocessed.smi:910|AV-procd|sdf|4123|dock6
  -GOLD-   22720 2 23D 1   1.00000     0.00000
 Structure written by MMmdl.
 46 47  0  0  0  0  0  0  0  0  1 V2000
  149.9362  132.9817  152.8567 C   0  0  0  0  0  0  0  0  0  0  0  0
  150.7883  133.9599  153.6354 C   0  0  0  0  0  0  0  0  0  0  0  0
  150.5217  135.3020  153.6502 N   0  0  0  0  0  0  0  0  0  0  0  0
  151.4762  135.9252  154.4391 C   0  0  0  0  0  0  0  0  0  0  0  0
  151.5775  137.1900  154.7086 N   0  0  0  0  0  0  0  0  0  0  0  0
  152.6160  137.6363  155.5127 C   0  0  0  0  0  0  0  0  0  0  0  0
  153.8097  137.3217  155.4716 O   0  0  0  0  0  0  0  0  0  0  0  0
  152.1501  138.5000  156.4270 N   0  0  0  0  0  0  0  0  0  0  0  0
  152.9432  139.1432  157.4699 C   0  0  0  0  0  0  0  0  0  0  0  0
  152.6726  140.6533  157.5349 C   0  0  0  0  0  0  0  0  0  0  0  0
  153.0322  141.1250  158.8252 O   0  0  0  0  0  0  0  0  0  0  0  0
  153.1378  142.5388  158.9319 C   0  0  1  0  0  0  0  0  0  0  0  0
  151.9262  143.2034  158.2455 C   0  0  0  0  0  0  0  0  0  0  0  0
  151.9217  144.7245  158.4584 C   0  0  0  0  0  0  0  0  0  0  0  0
  151.9635  145.0719  159.9529 C   0  0  0  0  0  0  0  0  0  0  0  0
  153.1753  144.4206  160.6368 C   0  0  0  0  0  0  0  0  0  0  0  0
  153.1931  142.8918  160.4353 C   0  0  2  0  0  0  0  0  0  0  0  0
  154.4204  142.2675  161.1205 C   0  0  0  0  0  0  0  0  0  0  0  0
  152.3104  134.9309  154.8966 O   0  0  0  0  0  0  0  0  0  0  0  0
  151.8650  133.7487  154.3887 C   0  0  0  0  0  0  0  0  0  0  0  0
  152.6165  132.4827  154.7337 C   0  0  0  0  0  0  0  0  0  0  0  0
  150.5427  132.4608  152.1156 H   0  0  0  0  0  0  0  0  0  0  0  0
  149.1249  133.4942  152.3389 H   0  0  0  0  0  0  0  0  0  0  0  0
  149.5023  132.2415  153.5291 H   0  0  0  0  0  0  0  0  0  0  0  0
  149.7514  135.7232  153.1518 H   0  0  0  0  0  0  0  0  0  0  0  0
  151.1628  138.7111  156.4143 H   0  0  0  0  0  0  0  0  0  0  0  0
  152.7351  138.6797  158.4355 H   0  0  0  0  0  0  0  0  0  0  0  0
  153.9979  138.9641  157.2607 H   0  0  0  0  0  0  0  0  0  0  0  0
  153.2434  141.1714  156.7627 H   0  0  0  0  0  0  0  0  0  0  0  0
  151.6172  140.8459  157.3427 H   0  0  0  0  0  0  0  0  0  0  0  0
  154.0607  142.8873  158.4640 H   0  0  0  0  0  0  0  0  0  0  0  0
  151.9280  142.9910  157.1768 H   0  0  0  0  0  0  0  0  0  0  0  0
  151.0031  142.7792  158.6427 H   0  0  0  0  0  0  0  0  0  0  0  0
  152.7818  145.1670  157.9542 H   0  0  0  0  0  0  0  0  0  0  0  0
  151.0345  145.1619  157.9996 H   0  0  0  0  0  0  0  0  0  0  0  0
  152.0002  146.1539  160.0824 H   0  0  0  0  0  0  0  0  0  0  0  0
  151.0451  144.7333  160.4341 H   0  0  0  0  0  0  0  0  0  0  0  0
  154.0927  144.8558  160.2374 H   0  0  0  0  0  0  0  0  0  0  0  0
  153.1618  144.6560  161.7016 H   0  0  0  0  0  0  0  0  0  0  0  0
  152.3020  142.4815  160.9130 H   0  0  0  0  0  0  0  0  0  0  0  0
  155.3489  142.6273  160.6760 H   0  0  0  0  0  0  0  0  0  0  0  0
  154.4134  141.1803  161.0371 H   0  0  0  0  0  0  0  0  0  0  0  0
  154.4433  142.5122  162.1826 H   0  0  0  0  0  0  0  0  0  0  0  0
  152.0087  131.6021  154.5247 H   0  0  0  0  0  0  0  0  0  0  0  0
  152.8805  132.4768  155.7912 H   0  0  0  0  0  0  0  0  0  0  0  0
  153.5330  132.4186  154.1473 H   0  0  0  0  0  0  0  0  0  0  0  0
  1 22  1  0  0  0  0
  1 23  1  0  0  0  0
  1 24  1  0  0  0  0
  1  2  1  0  0  0  0
  2  3  1  0  0  0  0
  2 20  2  0  0  0  0
  3 25  1  0  0  0  0
  3  4  1  0  0  0  0
  4 19  1  0  0  0  0
  4  5  2  0  0  0  0
  5  6  1  0  0  0  0
  6  8  1  0  0  0  0
  6  7  2  0  0  0  0
  8  9  1  0  0  0  0
  8 26  1  0  0  0  0
  9 10  1  0  0  0  0
  9 27  1  0  0  0  0
  9 28  1  0  0  0  0
 10 11  1  0  0  0  0
 10 29  1  0  0  0  0
 10 30  1  0  0  0  0
 11 12  1  0  0  0  0
 12 17  1  0  0  0  0
 12 13  1  0  0  0  0
 12 31  1  0  0  0  0
 13 14  1  0  0  0  0
 13 32  1  0  0  0  0
 13 33  1  0  0  0  0
 14 15  1  0  0  0  0
 14 34  1  0  0  0  0
 14 35  1  0  0  0  0
 15 16  1  0  0  0  0
 15 36  1  0  0  0  0
 15 37  1  0  0  0  0
 16 17  1  0  0  0  0
 16 38  1  0  0  0  0
 16 39  1  0  0  0  0
 17 18  1  0  0  0  0
 17 40  1  0  0  0  0
 18 41  1  0  0  0  0
 18 42  1  0  0  0  0
 18 43  1  0  0  0  0
 19 20  1  0  0  0  0
 20 21  1  0  0  0  0
 21 44  1  0  0  0  0
 21 45  1  0  0  0  0
 21 46  1  0  0  0  0
M  END
> <s_m_source_file>
AV-unprocessed.smi

> <i_m_source_file_index>
910

> <i_lp_mmshare_version>
43012

> <i_f3d_flags>
0

> <s_epik_input>
W0NIM11jMW5jKG9jMVtDSDNdKVtOSF1DKD1PKVtOSF1bQ0gyXVtDSDJdT1tDQEBIXTJbQ0gyXVtDSDJdW0NIMl1bQ0gyXVtDQEhdMltDSDNd

> <s_epik_cmdline>
J2VwaWtfcHl0aG9uJywgJy1waCcsICc3LjAnLCAnLXRuJywgJzgnLCAnLW1hJywgJzIwMCcsICctbWV0YWxfYmluZGluZycsICctaW1hZScsICc8aW5maWxlLm1hZT4nLCAnLW9tYWUnLCAnPG91dGZpbGUubWFlPic=

> <r_lp_tautomer_probability>
0.107061

> <r_epik_Ionization_Penalty>
0.727192

> <r_epik_Ionization_Penalty_Charging>
0.726719

> <r_epik_Ionization_Penalty_Neutral>
0.000473387

> <r_epik_State_Penalty>
2.53712

> <r_epik_Charging_Adjusted_Penalty>
3.26383

> <i_epik_Tot_Q>
0

> <i_epik_Tot_abs_Q>
0

> <r_epik_Metal_State_Penalty>
3.71015

> <b_epik_Metal_Only>
0

> <s_lp_Force_Field>
OPLS_2005

> <r_lp_Energy>
30.8064

> <b_lp_Chiralities_Consistent>
1

> <s_lp_Variant>
AV-unprocessed.smi:910-8

> <Gold.Version>
5.8.1

> <Gold.Id.Protein>
6NUR|6NUR_protein|mol2

> <Gold.PLP.Fitness>
47.0909

> <Gold.PLP.PLP>
-42.4544

> <Gold.PLP.part.hbond>
-2.2208

> <Gold.PLP.part.metal>
0.0000

> <Gold.PLP.part.buried>
-5.3670

> <Gold.PLP.part.nonpolar>
-34.4530

> <Gold.PLP.part.repulsive>
0.2110

> <Gold.PLP.ligand.clash>
0.0000

> <Gold.PLP.ligand.torsion>
0.7040

> <Gold.PLP.Chemscore.Hbond>
2.0000

> <Gold.PLP.Chemscore.CHOScore>
0.0000

> <Gold.PLP.Chemscore.Metal>
0.0000

> <Gold.Chemscore.Hbonds>
donor molecule, donor type, donor heavy atom, donor atom, acceptor molecule, acceptor atom, score
      L1  H     3    25       P1  7948  0.40
      P1  H 10752 10763       L1     7  0.04

> <Gold.PLP.Chemscore.Internal.Correction>
0.0445

> <Gold.Rescore>
     Score         DG    S(hbond)    S(metal)    S(lipo)     H(rot)  DE(clash)    DE(int)     intcor
     17.25     -19.10       1.69        0.00     104.35       1.66       0.03       1.82       ----

> <Gold.Chemscore.Fitness>
17.2495

> <Gold.Chemscore.DG>
-19.1026

> <Gold.Chemscore.ZeroCoef>
-5.4800

> <Gold.Chemscore.Hbond>
1.6936

> <Gold.Chemscore.Metal>
0.0000

> <Gold.Chemscore.Lipo>
104.3543

> <Gold.Chemscore.Internal_Hbond>
0.0000

> <Gold.Chemscore.DEClash>
0.0339

> <Gold.Chemscore.DEInternal>
1.8192

> <Gold.Chemscore.Rot>
1.6576

> <Gold.Chemscore.Internal.Correction>
   9.000000E+99

> <Gold.Chemscore.Hbonds>
donor molecule, donor type, donor heavy atom, donor atom, acceptor molecule, acceptor atom, score
      L1  H     3    25       P1  7948  0.01
      P1  H 10752 10763       L1     7  0.01

> <Gold.Chemscore.Hbond.Weighted>
-5.6567

> <Gold.Chemscore.Metal.Weighted>
-0.0000

> <Gold.Chemscore.Lipo.Weighted>
-12.2095

> <Gold.Chemscore.Internal_Hbond.Weighted>
0.0000

> <Gold.Chemscore.DEClash.Weighted>
0.0339

> <Gold.Chemscore.DEInternal.Weighted>
1.8192

> <Gold.Chemscore.Rot.Weighted>
4.2436

> <Gold.Chemscore.Internal.Correction.Weighted>
   9.000000E+99

> <Gold.Protein.RotatedTorsions>
[ 6907 6896 6895 6894 ] final  -90.59 input  -60.11 | X-H torsion
[ 7974 7965 7964 7962 ] final -158.69 input  175.53 | X-H torsion
[ 8008 7997 7996 7995 ] final  173.46 input   59.86 | X-H torsion
[ 10167 10162 10161 10158 ] final  164.46 input  -65.29 | X-H torsion
[ 10718 10713 10712 10709 ] final   64.51 input   66.30 | X-H torsion
[ 10763 10752 10751 10750 ] final  107.66 input  -60.55 | X-H torsion
[ 11005 11000 10999 10996 ] final  -75.46 input  -57.11 | X-H torsion

> <Gold.Protein.ActiveResidues>
 VAL166  LYS551  ARG553  GLY616  TRP617  ASP618  TYR619  PRO620  LYS621  CYS622 
 ASP623  PHE694  ASN695  SER759  ASP760  ASP761  ALA762  ILE779  LEU786  VAL792 
 PHE793  MET794  SER795  GLU796  ALA797  LYS798  CYS799  TRP800  GLU811  SER814 

> <Gold.Protein.RotatedAtoms>
  150.6883  134.2408  159.4471 H   0  0  0  0  0  0  0  0  0  0  0  0  # atno 6907 bound_to 6896
  152.0352  134.9741  160.0582 H   0  0  0  0  0  0  0  0  0  0  0  0  # atno 6908 bound_to 6896
  152.1265  133.4348  159.4737 H   0  0  0  0  0  0  0  0  0  0  0  0  # atno 6909 bound_to 6896
  144.7495  140.3792  143.6059 H   0  0  0  0  0  0  0  0  0  0  0  0  # atno 7974 bound_to 7965
  156.1073  140.1459  156.9387 H   0  0  0  0  0  0  0  0  0  0  0  0  # atno 8008 bound_to 7997
  154.4742  140.0900  156.7265 H   0  0  0  0  0  0  0  0  0  0  0  0  # atno 8009 bound_to 7997
  155.4658  140.3440  155.4321 H   0  0  0  0  0  0  0  0  0  0  0  0  # atno 8010 bound_to 7997
  139.4889  144.4233  151.9160 H   0  0  0  0  0  0  0  0  0  0  0  0  # atno 10167 bound_to 10162
  157.6044  130.9164  149.9856 H   0  0  0  0  0  0  0  0  0  0  0  0  # atno 10718 bound_to 10713
  153.4099  135.3837  155.2043 H   0  0  0  0  0  0  0  0  0  0  0  0  # atno 10763 bound_to 10752
  154.8737  135.3791  154.4514 H   0  0  0  0  0  0  0  0  0  0  0  0  # atno 10764 bound_to 10752
  153.5021  135.7088  153.5888 H   0  0  0  0  0  0  0  0  0  0  0  0  # atno 10765 bound_to 10752
  141.1645  133.6947  156.7520 H   0  0  0  0  0  0  0  0  0  0  0  0  # atno 11005 bound_to 11000
  145.6995  139.1658  143.2601 LP  0  0  0  0  0  0  0  0  0  0  0  0  # atno 17320 bound_to 7965
  146.1425  140.7037  142.9360 LP  0  0  0  0  0  0  0  0  0  0  0  0  # atno 17321 bound_to 7965
  140.3677  144.2894  150.5924 LP  0  0  0  0  0  0  0  0  0  0  0  0  # atno 17342 bound_to 10162
  140.5346  143.2236  151.8183 LP  0  0  0  0  0  0  0  0  0  0  0  0  # atno 17343 bound_to 10162
  156.1127  130.3649  150.0022 LP  0  0  0  0  0  0  0  0  0  0  0  0  # atno 17370 bound_to 10713
  156.8117  130.9327  151.3644 LP  0  0  0  0  0  0  0  0  0  0  0  0  # atno 17371 bound_to 10713
  140.2597  134.8476  157.3747 LP  0  0  0  0  0  0  0  0  0  0  0  0  # atno 17394 bound_to 11000
  140.1623  134.4713  155.7886 LP  0  0  0  0  0  0  0  0  0  0  0  0  # atno 17395 bound_to 11000

$$$$
