AV-unprocessed.smi:2411|AV-procd|sdf|9530|dock2
  -GOLD-   2272013163D 1   1.00000     0.00000
 Structure written by MMmdl.
 41 43  0  0  0  0  0  0  0  0  1 V2000
  146.4111  132.8203  150.4421 C   0  0  0  0  0  0  0  0  0  0  0  0
  147.0385  133.2889  151.6704 N   0  0  0  0  0  0  0  0  0  0  0  0
  146.3940  134.4191  152.3278 C   0  0  0  0  0  0  0  0  0  0  0  0
  147.4796  132.2446  152.5088 C   0  0  0  0  0  0  0  0  0  0  0  0
  146.9373  131.0151  152.3318 N   0  0  0  0  0  0  0  0  0  0  0  0
  147.3751  130.0274  153.1143 C   0  0  0  0  0  0  0  0  0  0  0  0
  148.2982  130.1188  154.0713 N   0  0  0  0  0  0  0  0  0  0  0  0
  148.8506  131.3339  154.2675 C   0  0  0  0  0  0  0  0  0  0  0  0
  148.4792  132.4607  153.4937 C   0  0  0  0  0  0  0  0  0  0  0  0
  149.0073  133.7624  153.7145 N   0  0  0  0  0  0  0  0  0  0  0  0
  149.7448  134.1817  154.7547 C   0  0  0  0  0  0  0  0  0  0  0  0
  150.0465  133.4958  155.7313 O   0  0  0  0  0  0  0  0  0  0  0  0
  150.1456  135.4486  154.5818 N   0  0  0  0  0  0  0  0  0  0  0  0
  151.0143  136.1948  155.4890 C   0  0  0  0  0  0  0  0  0  0  0  0
  151.3148  137.6520  155.1389 C   0  0  0  0  0  0  0  0  0  0  0  0
  150.0824  138.5489  155.1917 C   0  0  0  0  0  0  0  0  0  0  0  0
  149.1759  138.6559  153.9886 C   0  0  0  0  0  0  0  0  0  0  0  0
  149.9456  139.8680  154.4590 C   0  0  0  0  0  0  0  0  0  0  0  0
  152.6224  138.2814  155.5874 C   0  0  0  0  0  0  0  0  0  0  0  0
  152.4294  137.9271  154.1371 C   0  0  0  0  0  0  0  0  0  0  0  0
  147.0632  132.1511  149.8815 H   0  0  0  0  0  0  0  0  0  0  0  0
  146.1662  133.6630  149.7952 H   0  0  0  0  0  0  0  0  0  0  0  0
  145.4873  132.2859  150.6668 H   0  0  0  0  0  0  0  0  0  0  0  0
  146.9595  134.7339  153.2056 H   0  0  0  0  0  0  0  0  0  0  0  0
  145.3810  134.1622  152.6399 H   0  0  0  0  0  0  0  0  0  0  0  0
  146.3348  135.2681  151.6465 H   0  0  0  0  0  0  0  0  0  0  0  0
  146.9330  129.0547  152.9589 H   0  0  0  0  0  0  0  0  0  0  0  0
  149.5713  131.3961  155.0685 H   0  0  0  0  0  0  0  0  0  0  0  0
  148.9156  134.4049  152.9411 H   0  0  0  0  0  0  0  0  0  0  0  0
  149.8481  135.9288  153.7451 H   0  0  0  0  0  0  0  0  0  0  0  0
  150.5356  136.1803  156.4683 H   0  0  0  0  0  0  0  0  0  0  0  0
  151.9611  135.6679  155.6189 H   0  0  0  0  0  0  0  0  0  0  0  0
  149.5710  138.5241  156.1522 H   0  0  0  0  0  0  0  0  0  0  0  0
  149.5031  138.1834  153.0644 H   0  0  0  0  0  0  0  0  0  0  0  0
  148.1027  138.6386  154.1669 H   0  0  0  0  0  0  0  0  0  0  0  0
  149.3799  140.6548  154.9538 H   0  0  0  0  0  0  0  0  0  0  0  0
  150.7598  140.2197  153.8314 H   0  0  0  0  0  0  0  0  0  0  0  0
  152.6124  139.3386  155.8450 H   0  0  0  0  0  0  0  0  0  0  0  0
  153.3238  137.6799  156.1609 H   0  0  0  0  0  0  0  0  0  0  0  0
  153.0027  137.0853  153.7547 H   0  0  0  0  0  0  0  0  0  0  0  0
  152.3205  138.7465  153.4323 H   0  0  0  0  0  0  0  0  0  0  0  0
  1  2  1  0  0  0  0
  1 21  1  0  0  0  0
  1 22  1  0  0  0  0
  1 23  1  0  0  0  0
  2  3  1  0  0  0  0
  2  4  1  0  0  0  0
  3 24  1  0  0  0  0
  3 25  1  0  0  0  0
  3 26  1  0  0  0  0
  4  9  1  0  0  0  0
  4  5  2  0  0  0  0
  5  6  1  0  0  0  0
  6  7  2  0  0  0  0
  6 27  1  0  0  0  0
  7  8  1  0  0  0  0
  8  9  2  0  0  0  0
  8 28  1  0  0  0  0
  9 10  1  0  0  0  0
 10 11  1  0  0  0  0
 10 29  1  0  0  0  0
 11 12  2  0  0  0  0
 11 13  1  0  0  0  0
 13 14  1  0  0  0  0
 13 30  1  0  0  0  0
 14 15  1  0  0  0  0
 14 31  1  0  0  0  0
 14 32  1  0  0  0  0
 15 20  1  0  0  0  0
 15 16  1  0  0  0  0
 15 19  1  0  0  0  0
 16 18  1  0  0  0  0
 16 17  1  0  0  0  0
 16 33  1  0  0  0  0
 17 18  1  0  0  0  0
 17 34  1  0  0  0  0
 17 35  1  0  0  0  0
 18 36  1  0  0  0  0
 18 37  1  0  0  0  0
 19 20  1  0  0  0  0
 19 38  1  0  0  0  0
 19 39  1  0  0  0  0
 20 40  1  0  0  0  0
 20 41  1  0  0  0  0
M  END
> <s_m_source_file>
AV-unprocessed.smi

> <i_m_source_file_index>
2411

> <i_lp_mmshare_version>
43012

> <i_f3d_flags>
0

> <s_epik_input>
W0NIM11OKFtDSDNdKWMxbltjSF1uW2NIXWMxW05IXUMoPU8pW05IXVtDSDJdQzIoW0NIMl1bQ0gyXTIpW0NIXTNbQ0gyXVtDSDJdMw==

> <s_epik_cmdline>
J2VwaWtfcHl0aG9uJywgJy1waCcsICc3LjAnLCAnLXRuJywgJzgnLCAnLW1hJywgJzIwMCcsICctbWV0YWxfYmluZGluZycsICctaW1hZScsICc8aW5maWxlLm1hZT4nLCAnLW9tYWUnLCAnPG91dGZpbGUubWFlPic=

> <r_lp_tautomer_probability>
1

> <r_epik_Ionization_Penalty>
0.0183431

> <r_epik_Ionization_Penalty_Charging>
0

> <r_epik_Ionization_Penalty_Neutral>
0.0183431

> <r_epik_State_Penalty>
0.013978

> <r_epik_Charging_Adjusted_Penalty>
0.013978

> <i_epik_Tot_Q>
0

> <i_epik_Tot_abs_Q>
0

> <r_epik_Metal_State_Penalty>
0.0135734

> <b_epik_Metal_Only>
0

> <s_lp_Force_Field>
OPLS_2005

> <r_lp_Energy>
29.7017

> <b_lp_Chiralities_Consistent>
1

> <s_lp_Variant>
AV-unprocessed.smi:2411-1

> <Gold.Version>
5.8.1

> <Gold.Id.Protein>
6NUR|6NUR_protein|mol2

> <Gold.PLP.Fitness>
37.8482

> <Gold.PLP.PLP>
-32.3003

> <Gold.PLP.part.hbond>
-2.0281

> <Gold.PLP.part.metal>
0.0000

> <Gold.PLP.part.buried>
-3.6112

> <Gold.PLP.part.nonpolar>
-26.2710

> <Gold.PLP.part.repulsive>
0.7695

> <Gold.PLP.ligand.clash>
0.0000

> <Gold.PLP.ligand.torsion>
1.5885

> <Gold.PLP.Chemscore.Hbond>
1.9420

> <Gold.PLP.Chemscore.CHOScore>
0.0000

> <Gold.PLP.Chemscore.Metal>
0.0000

> <Gold.Chemscore.Hbonds>
donor molecule, donor type, donor heavy atom, donor atom, acceptor molecule, acceptor atom, score
      L1  H    10    29       P1  7948  0.46
      L1  H    13    30       P1  7948  0.73

> <Gold.PLP.Chemscore.Internal.Correction>
2.8989

> <Gold.Rescore>
     Score         DG    S(hbond)    S(metal)    S(lipo)     H(rot)  DE(clash)    DE(int)     intcor
     10.78     -13.91       1.67        0.00      60.92       1.68       0.04       3.09       ----

> <Gold.Chemscore.Fitness>
10.7820

> <Gold.Chemscore.DG>
-13.9119

> <Gold.Chemscore.ZeroCoef>
-5.4800

> <Gold.Chemscore.Hbond>
1.6749

> <Gold.Chemscore.Metal>
0.0000

> <Gold.Chemscore.Lipo>
60.9175

> <Gold.Chemscore.Internal_Hbond>
0.0000

> <Gold.Chemscore.DEClash>
0.0402

> <Gold.Chemscore.DEInternal>
3.0896

> <Gold.Chemscore.Rot>
1.6757

> <Gold.Chemscore.Internal.Correction>
   9.000000E+99

> <Gold.Chemscore.Hbonds>
donor molecule, donor type, donor heavy atom, donor atom, acceptor molecule, acceptor atom, score
      L1  H    10    29       P1  7948  0.02
      L1  H    13    30       P1  7948  0.10

> <Gold.Chemscore.Hbond.Weighted>
-5.5942

> <Gold.Chemscore.Metal.Weighted>
-0.0000

> <Gold.Chemscore.Lipo.Weighted>
-7.1273

> <Gold.Chemscore.Internal_Hbond.Weighted>
0.0000

> <Gold.Chemscore.DEClash.Weighted>
0.0402

> <Gold.Chemscore.DEInternal.Weighted>
3.0896

> <Gold.Chemscore.Rot.Weighted>
4.2897

> <Gold.Chemscore.Internal.Correction.Weighted>
   9.000000E+99

> <Gold.Protein.RotatedTorsions>
[ 6907 6896 6895 6894 ] final  -50.93 input  -60.11 | X-H torsion
[ 7974 7965 7964 7962 ] final  164.18 input  175.53 | X-H torsion
[ 8008 7997 7996 7995 ] final  165.67 input   59.86 | X-H torsion
[ 10167 10162 10161 10158 ] final  165.89 input  -65.29 | X-H torsion
[ 10718 10713 10712 10709 ] final -102.56 input   66.30 | X-H torsion
[ 10763 10752 10751 10750 ] final  -48.06 input  -60.55 | X-H torsion
[ 11005 11000 10999 10996 ] final  142.84 input  -57.11 | X-H torsion

> <Gold.Protein.ActiveResidues>
 VAL166  LYS551  ARG553  GLY616  TRP617  ASP618  TYR619  PRO620  LYS621  CYS622 
 ASP623  PHE694  ASN695  SER759  ASP760  ASP761  ALA762  ILE779  LEU786  VAL792 
 PHE793  MET794  SER795  GLU796  ALA797  LYS798  CYS799  TRP800  GLU811  SER814 

> <Gold.Protein.RotatedAtoms>
  150.8659  134.8022  159.7118 H   0  0  0  0  0  0  0  0  0  0  0  0  # atno 6907 bound_to 6896
  152.4681  134.5024  159.9738 H   0  0  0  0  0  0  0  0  0  0  0  0  # atno 6908 bound_to 6896
  151.5120  133.3444  159.2922 H   0  0  0  0  0  0  0  0  0  0  0  0  # atno 6909 bound_to 6896
  144.7557  139.8288  143.6351 H   0  0  0  0  0  0  0  0  0  0  0  0  # atno 7974 bound_to 7965
  156.1781  140.1664  156.8324 H   0  0  0  0  0  0  0  0  0  0  0  0  # atno 8008 bound_to 7997
  154.5330  140.0753  156.8411 H   0  0  0  0  0  0  0  0  0  0  0  0  # atno 8009 bound_to 7997
  155.3369  140.3382  155.4241 H   0  0  0  0  0  0  0  0  0  0  0  0  # atno 8010 bound_to 7997
  139.4914  144.4084  151.9328 H   0  0  0  0  0  0  0  0  0  0  0  0  # atno 10167 bound_to 10162
  156.0233  130.5426  150.7126 H   0  0  0  0  0  0  0  0  0  0  0  0  # atno 10718 bound_to 10713
  154.0715  135.6604  153.4825 H   0  0  0  0  0  0  0  0  0  0  0  0  # atno 10763 bound_to 10752
  153.0389  135.5158  154.7562 H   0  0  0  0  0  0  0  0  0  0  0  0  # atno 10764 bound_to 10752
  154.6629  135.3017  154.9810 H   0  0  0  0  0  0  0  0  0  0  0  0  # atno 10765 bound_to 10752
  140.0507  134.9257  157.1012 H   0  0  0  0  0  0  0  0  0  0  0  0  # atno 11005 bound_to 11000
  146.1563  139.4662  143.0017 LP  0  0  0  0  0  0  0  0  0  0  0  0  # atno 17320 bound_to 7965
  145.6789  141.0196  143.1617 LP  0  0  0  0  0  0  0  0  0  0  0  0  # atno 17321 bound_to 7965
  140.3525  144.3071  150.5947 LP  0  0  0  0  0  0  0  0  0  0  0  0  # atno 17342 bound_to 10162
  140.5473  143.2212  151.7986 LP  0  0  0  0  0  0  0  0  0  0  0  0  # atno 17343 bound_to 10162
  157.4760  131.0898  151.0589 LP  0  0  0  0  0  0  0  0  0  0  0  0  # atno 17370 bound_to 10713
  157.1036  130.5992  149.5466 LP  0  0  0  0  0  0  0  0  0  0  0  0  # atno 17371 bound_to 10713
  140.3921  134.2173  155.7166 LP  0  0  0  0  0  0  0  0  0  0  0  0  # atno 17394 bound_to 11000
  141.1929  133.8163  157.0821 LP  0  0  0  0  0  0  0  0  0  0  0  0  # atno 17395 bound_to 11000

$$$$
