AV-unprocessed.smi:1617|AV-procd|sdf|6485|dock8
  -GOLD-   22720 7143D 1   1.00000     0.00000
 Structure written by MMmdl.
 47 49  0  0  0  0  0  0  0  0  1 V2000
  146.3409  136.4311  153.3759 O   0  0  0  0  0  0  0  0  0  0  0  0
  145.7374  137.2357  152.6665 C   0  0  0  0  0  0  0  0  0  0  0  0
  145.8845  138.5709  152.7049 N   0  0  0  0  0  0  0  0  0  0  0  0
  146.7607  139.3414  153.5157 C   0  0  0  0  0  0  0  0  0  0  0  0
  147.2694  140.5422  152.9847 C   0  0  0  0  0  0  0  0  0  0  0  0
  148.1524  141.3185  153.7583 C   0  0  0  0  0  0  0  0  0  0  0  0
  148.5155  140.8694  155.0496 C   0  0  0  0  0  0  0  0  0  0  0  0
  149.3979  141.6325  155.8450 N   0  0  0  0  0  0  0  0  0  0  0  0
  149.0588  141.7177  157.2634 C   0  0  0  0  0  0  0  0  0  0  0  0
  149.8978  142.8094  157.9500 C   0  0  0  0  0  0  0  0  0  0  0  0
  151.2827  142.5669  157.7259 O   0  0  0  0  0  0  0  0  0  0  0  0
  151.6080  142.6011  156.3402 C   0  0  0  0  0  0  0  0  0  0  0  0
  150.8327  141.4991  155.5989 C   0  0  0  0  0  0  0  0  0  0  0  0
  148.0430  139.7022  155.5514 N   0  0  0  0  0  0  0  0  0  0  0  0
  147.1933  138.9620  154.8082 C   0  0  0  0  0  0  0  0  0  0  0  0
  144.8212  136.8764  151.7548 N   0  0  0  0  0  0  0  0  0  0  0  0
  144.4292  135.5002  151.4417 C   0  0  1  0  0  0  0  0  0  0  0  0
  145.7005  134.7422  150.9954 C   0  0  0  0  0  0  0  0  0  0  0  0
  145.4116  133.4965  150.1398 C   0  0  0  0  0  0  0  0  0  0  0  0
  144.6615  132.3700  150.8663 C   0  0  0  0  0  0  0  0  0  0  0  0
  143.2555  132.7708  151.3448 C   0  0  0  0  0  0  0  0  0  0  0  0
  143.2980  133.5811  152.5548 N   0  0  0  0  0  0  0  0  0  0  0  0
  143.8334  134.8041  152.6877 C   0  0  0  0  0  0  0  0  0  0  0  0
  143.8532  135.3574  153.7872 O   0  0  0  0  0  0  0  0  0  0  0  0
  145.2598  139.1030  152.1170 H   0  0  0  0  0  0  0  0  0  0  0  0
  146.9869  140.8697  151.9948 H   0  0  0  0  0  0  0  0  0  0  0  0
  148.5498  142.2348  153.3486 H   0  0  0  0  0  0  0  0  0  0  0  0
  148.0025  141.9349  157.4150 H   0  0  0  0  0  0  0  0  0  0  0  0
  149.2534  140.7507  157.7290 H   0  0  0  0  0  0  0  0  0  0  0  0
  149.6258  143.7988  157.5788 H   0  0  0  0  0  0  0  0  0  0  0  0
  149.7065  142.8094  159.0231 H   0  0  0  0  0  0  0  0  0  0  0  0
  151.3792  143.5844  155.9257 H   0  0  0  0  0  0  0  0  0  0  0  0
  152.6809  142.4485  156.2227 H   0  0  0  0  0  0  0  0  0  0  0  0
  151.1674  140.5166  155.9346 H   0  0  0  0  0  0  0  0  0  0  0  0
  151.0403  141.5683  154.5303 H   0  0  0  0  0  0  0  0  0  0  0  0
  146.8815  138.0379  155.2688 H   0  0  0  0  0  0  0  0  0  0  0  0
  144.3767  137.6057  151.2169 H   0  0  0  0  0  0  0  0  0  0  0  0
  143.6961  135.5139  150.6329 H   0  0  0  0  0  0  0  0  0  0  0  0
  146.3168  135.4080  150.3889 H   0  0  0  0  0  0  0  0  0  0  0  0
  146.3193  134.4757  151.8543 H   0  0  0  0  0  0  0  0  0  0  0  0
  144.8516  133.7900  149.2511 H   0  0  0  0  0  0  0  0  0  0  0  0
  146.3591  133.0999  149.7739 H   0  0  0  0  0  0  0  0  0  0  0  0
  144.5648  131.5300  150.1778 H   0  0  0  0  0  0  0  0  0  0  0  0
  145.2543  132.0015  151.7048 H   0  0  0  0  0  0  0  0  0  0  0  0
  142.7009  133.2847  150.5585 H   0  0  0  0  0  0  0  0  0  0  0  0
  142.6883  131.8708  151.5822 H   0  0  0  0  0  0  0  0  0  0  0  0
  142.9070  133.1607  153.3855 H   0  0  0  0  0  0  0  0  0  0  0  0
  1  2  2  0  0  0  0
  2  3  1  0  0  0  0
  2 16  1  0  0  0  0
  3  4  1  0  0  0  0
  3 25  1  0  0  0  0
  4 15  1  0  0  0  0
  4  5  2  0  0  0  0
  5  6  1  0  0  0  0
  5 26  1  0  0  0  0
  6  7  2  0  0  0  0
  6 27  1  0  0  0  0
  7  8  1  0  0  0  0
  7 14  1  0  0  0  0
  8 13  1  0  0  0  0
  8  9  1  0  0  0  0
  9 10  1  0  0  0  0
  9 28  1  0  0  0  0
  9 29  1  0  0  0  0
 10 11  1  0  0  0  0
 10 30  1  0  0  0  0
 10 31  1  0  0  0  0
 11 12  1  0  0  0  0
 12 13  1  0  0  0  0
 12 32  1  0  0  0  0
 12 33  1  0  0  0  0
 13 34  1  0  0  0  0
 13 35  1  0  0  0  0
 14 15  2  0  0  0  0
 15 36  1  0  0  0  0
 16 17  1  0  0  0  0
 16 37  1  0  0  0  0
 17 23  1  0  0  0  0
 17 18  1  0  0  0  0
 17 38  1  0  0  0  0
 18 19  1  0  0  0  0
 18 39  1  0  0  0  0
 18 40  1  0  0  0  0
 19 20  1  0  0  0  0
 19 41  1  0  0  0  0
 19 42  1  0  0  0  0
 20 21  1  0  0  0  0
 20 43  1  0  0  0  0
 20 44  1  0  0  0  0
 21 22  1  0  0  0  0
 21 45  1  0  0  0  0
 21 46  1  0  0  0  0
 22 23  1  0  0  0  0
 22 47  1  0  0  0  0
 23 24  2  0  0  0  0
M  END
> <s_m_source_file>
AV-unprocessed.smi

> <i_m_source_file_index>
1617

> <i_lp_mmshare_version>
43012

> <i_f3d_flags>
0

> <s_epik_input>
Tz1DMVtOSF1bQ0gyXVtDSDJdW0NIMl1bQ0gyXVtDQEhdMVtOSF1DKD1PKVtOSF1jMltjSF1bY0hdYyhuW2NIXTIpTjNbQ0gyXVtDSDJdT1tDSDJdW0NIMl0z

> <s_epik_cmdline>
J2VwaWtfcHl0aG9uJywgJy1waCcsICc3LjAnLCAnLXRuJywgJzgnLCAnLW1hJywgJzIwMCcsICctbWV0YWxfYmluZGluZycsICctaW1hZScsICc8aW5maWxlLm1hZT4nLCAnLW9tYWUnLCAnPG91dGZpbGUubWFlPic=

> <r_lp_tautomer_probability>
1

> <r_epik_Ionization_Penalty>
0.00171733

> <r_epik_Ionization_Penalty_Charging>
0

> <r_epik_Ionization_Penalty_Neutral>
0.00171733

> <r_epik_State_Penalty>
0.00113787

> <r_epik_Charging_Adjusted_Penalty>
0.00113787

> <i_epik_Tot_Q>
0

> <i_epik_Tot_abs_Q>
0

> <r_epik_Metal_State_Penalty>
-0

> <b_epik_Metal_Only>
0

> <s_lp_Force_Field>
OPLS_2005

> <r_lp_Energy>
26.8457

> <b_lp_Chiralities_Consistent>
1

> <s_lp_Variant>
AV-unprocessed.smi:1617-2

> <Gold.Version>
5.8.1

> <Gold.Id.Protein>
6NUR|6NUR_protein|mol2

> <Gold.PLP.Fitness>
41.2537

> <Gold.PLP.PLP>
-34.4151

> <Gold.PLP.part.hbond>
-3.0000

> <Gold.PLP.part.metal>
0.0000

> <Gold.PLP.part.buried>
-5.9540

> <Gold.PLP.part.nonpolar>
-26.5367

> <Gold.PLP.part.repulsive>
0.7302

> <Gold.PLP.ligand.clash>
0.0000

> <Gold.PLP.ligand.torsion>
0.7829

> <Gold.PLP.Chemscore.Hbond>
2.6880

> <Gold.PLP.Chemscore.CHOScore>
0.0000

> <Gold.PLP.Chemscore.Metal>
0.0000

> <Gold.Chemscore.Hbonds>
donor molecule, donor type, donor heavy atom, donor atom, acceptor molecule, acceptor atom, score
      L1  H     3    25       P1 10175  0.58
      L1  H    16    37       P1 10171  1.00
      L1  H    22    47       P1 10957  1.00

> <Gold.PLP.Chemscore.Internal.Correction>
0.3405

> <Gold.Rescore>
     Score         DG    S(hbond)    S(metal)    S(lipo)     H(rot)  DE(clash)    DE(int)     intcor
     14.33     -20.25       2.54        0.00      81.62       1.27       0.51       5.41       ----

> <Gold.Chemscore.Fitness>
14.3336

> <Gold.Chemscore.DG>
-20.2522

> <Gold.Chemscore.ZeroCoef>
-5.4800

> <Gold.Chemscore.Hbond>
2.5357

> <Gold.Chemscore.Metal>
0.0000

> <Gold.Chemscore.Lipo>
81.6239

> <Gold.Chemscore.Internal_Hbond>
0.0000

> <Gold.Chemscore.DEClash>
0.5130

> <Gold.Chemscore.DEInternal>
5.4056

> <Gold.Chemscore.Rot>
1.2684

> <Gold.Chemscore.Internal.Correction>
   9.000000E+99

> <Gold.Chemscore.Hbonds>
donor molecule, donor type, donor heavy atom, donor atom, acceptor molecule, acceptor atom, score
      L1  H     3    25       P1 10175  0.58
      L1  H    16    37       P1 10171  1.00
      L1  H    22    47       P1 10957  0.89

> <Gold.Chemscore.Hbond.Weighted>
-8.4693

> <Gold.Chemscore.Metal.Weighted>
-0.0000

> <Gold.Chemscore.Lipo.Weighted>
-9.5500

> <Gold.Chemscore.Internal_Hbond.Weighted>
0.0000

> <Gold.Chemscore.DEClash.Weighted>
0.5130

> <Gold.Chemscore.DEInternal.Weighted>
5.4056

> <Gold.Chemscore.Rot.Weighted>
3.2471

> <Gold.Chemscore.Internal.Correction.Weighted>
   9.000000E+99

> <Gold.Protein.RotatedTorsions>
[ 6907 6896 6895 6894 ] final   42.64 input  -60.11 | X-H torsion
[ 7974 7965 7964 7962 ] final  141.39 input  175.53 | X-H torsion
[ 8008 7997 7996 7995 ] final  -17.40 input   59.86 | X-H torsion
[ 10167 10162 10161 10158 ] final   17.31 input  -65.29 | X-H torsion
[ 10718 10713 10712 10709 ] final   65.78 input   66.30 | X-H torsion
[ 10763 10752 10751 10750 ] final -166.28 input  -60.55 | X-H torsion
[ 11005 11000 10999 10996 ] final  150.07 input  -57.11 | X-H torsion

> <Gold.Protein.ActiveResidues>
 VAL166  LYS551  ARG553  GLY616  TRP617  ASP618  TYR619  PRO620  LYS621  CYS622 
 ASP623  PHE694  ASN695  SER759  ASP760  ASP761  ALA762  ILE779  LEU786  VAL792 
 PHE793  MET794  SER795  GLU796  ALA797  LYS798  CYS799  TRP800  GLU811  SER814 

> <Gold.Protein.RotatedAtoms>
  152.2104  134.8506  160.0497 H   0  0  0  0  0  0  0  0  0  0  0  0  # atno 6907 bound_to 6896
  151.9327  133.3610  159.3945 H   0  0  0  0  0  0  0  0  0  0  0  0  # atno 6908 bound_to 6896
  150.6975  134.4446  159.5352 H   0  0  0  0  0  0  0  0  0  0  0  0  # atno 6909 bound_to 6896
  144.9100  139.5305  143.5713 H   0  0  0  0  0  0  0  0  0  0  0  0  # atno 7974 bound_to 7965
  154.4981  140.2143  155.9404 H   0  0  0  0  0  0  0  0  0  0  0  0  # atno 8008 bound_to 7997
  156.1397  140.3182  155.8444 H   0  0  0  0  0  0  0  0  0  0  0  0  # atno 8009 bound_to 7997
  155.4142  140.0492  157.3020 H   0  0  0  0  0  0  0  0  0  0  0  0  # atno 8010 bound_to 7997
  140.5735  143.9116  150.6732 H   0  0  0  0  0  0  0  0  0  0  0  0  # atno 10167 bound_to 10162
  157.6127  130.9232  150.0021 H   0  0  0  0  0  0  0  0  0  0  0  0  # atno 10718 bound_to 10713
  154.6849  135.2960  154.9562 H   0  0  0  0  0  0  0  0  0  0  0  0  # atno 10763 bound_to 10752
  154.0545  135.6640  153.4808 H   0  0  0  0  0  0  0  0  0  0  0  0  # atno 10764 bound_to 10752
  153.0572  135.5137  154.7910 H   0  0  0  0  0  0  0  0  0  0  0  0  # atno 10765 bound_to 10752
  140.1100  134.8930  157.1922 H   0  0  0  0  0  0  0  0  0  0  0  0  # atno 11005 bound_to 11000
  146.3154  139.7899  142.8988 LP  0  0  0  0  0  0  0  0  0  0  0  0  # atno 17320 bound_to 7965
  145.3470  141.0299  143.3360 LP  0  0  0  0  0  0  0  0  0  0  0  0  # atno 17321 bound_to 7965
  140.2597  143.3532  152.1333 LP  0  0  0  0  0  0  0  0  0  0  0  0  # atno 17342 bound_to 10162
  139.5130  144.6926  151.5719 LP  0  0  0  0  0  0  0  0  0  0  0  0  # atno 17343 bound_to 10162
  156.1236  130.3645  149.9846 LP  0  0  0  0  0  0  0  0  0  0  0  0  # atno 17370 bound_to 10713
  156.7921  130.9260  151.3646 LP  0  0  0  0  0  0  0  0  0  0  0  0  # atno 17371 bound_to 10713
  140.3104  134.3030  155.7268 LP  0  0  0  0  0  0  0  0  0  0  0  0  # atno 17394 bound_to 11000
  141.2128  133.7647  156.9769 LP  0  0  0  0  0  0  0  0  0  0  0  0  # atno 17395 bound_to 11000

$$$$
