AV-unprocessed.smi:196|AV-procd|sdf|1543|dock8
  -GOLD-   2262019403D 1   1.00000     0.00000
 Structure written by MMmdl.
 47 50  0  0  0  0  0  0  0  0  1 V2000
  150.9421  140.7944  157.3790 C   0  0  0  0  0  0  0  0  0  0  0  0
  151.3207  140.5058  155.9178 C   0  0  1  0  0  0  0  0  0  0  0  0
  152.4215  139.5999  155.9326 O   0  0  0  0  0  0  0  0  0  0  0  0
  152.3526  138.7730  154.7847 C   0  0  0  0  0  0  0  0  0  0  0  0
  150.8623  138.4916  154.6735 C   0  0  0  0  0  0  0  0  0  0  0  0
  150.2326  139.8347  155.0320 C   0  0  2  0  0  0  0  0  0  0  0  0
  150.1218  140.5901  153.8370 O   0  0  0  0  0  0  0  0  0  0  0  0
  148.8145  139.7157  155.6497 C   0  0  0  0  0  0  0  0  0  0  0  0
  147.8710  139.0080  154.7974 N   0  0  0  0  0  0  0  0  0  0  0  0
  147.3021  139.4722  153.6317 C   0  0  0  0  0  0  0  0  0  0  0  0
  146.4859  138.6428  153.0405 N   0  0  0  0  0  0  0  0  0  0  0  0
  146.4820  137.5293  153.8699 C   0  0  0  0  0  0  0  0  0  0  0  0
  145.8160  136.2774  153.8353 C   0  0  0  0  0  0  0  0  0  0  0  0
  144.9735  135.9468  152.8319 N   0  0  0  0  0  0  0  0  0  0  0  0
  145.5876  135.8283  151.5133 C   0  0  0  0  0  0  0  0  0  0  0  0
  144.9727  134.5853  150.8642 C   0  0  1  0  0  0  0  0  0  0  0  0
  145.7804  133.5411  151.0560 F   0  0  0  0  0  0  0  0  0  0  0  0
  143.6798  134.3778  151.6470 C   0  0  0  0  0  0  0  0  0  0  0  0
  144.0592  134.8270  153.0636 C   0  0  2  0  0  0  0  0  0  0  0  0
  142.8306  135.2423  153.8859 C   0  0  0  0  0  0  0  0  0  0  0  0
  142.0789  134.2567  154.3814 N   0  0  0  0  0  0  0  0  0  0  0  0
  142.5542  136.4278  154.0634 O   0  0  0  0  0  0  0  0  0  0  0  0
  146.0547  135.3986  154.8439 N   0  0  0  0  0  0  0  0  0  0  0  0
  146.8906  135.7315  155.8323 C   0  0  0  0  0  0  0  0  0  0  0  0
  147.5783  136.8637  155.9986 N   0  0  0  0  0  0  0  0  0  0  0  0
  147.3425  137.7423  154.9818 C   0  0  0  0  0  0  0  0  0  0  0  0
  144.8186  134.6889  149.7899 H   0  0  0  0  0  0  0  0  0  0  0  0
  144.5793  134.0104  153.5684 H   0  0  0  0  0  0  0  0  0  0  0  0
  150.1068  141.4919  157.4440 H   0  0  0  0  0  0  0  0  0  0  0  0
  151.7821  141.2410  157.9114 H   0  0  0  0  0  0  0  0  0  0  0  0
  150.6690  139.8819  157.9096 H   0  0  0  0  0  0  0  0  0  0  0  0
  151.6633  141.4362  155.4609 H   0  0  0  0  0  0  0  0  0  0  0  0
  152.7179  139.3177  153.9129 H   0  0  0  0  0  0  0  0  0  0  0  0
  152.9470  137.8669  154.9034 H   0  0  0  0  0  0  0  0  0  0  0  0
  150.5671  138.1108  153.6947 H   0  0  0  0  0  0  0  0  0  0  0  0
  150.5943  137.7405  155.4172 H   0  0  0  0  0  0  0  0  0  0  0  0
  149.7273  140.0436  153.1747 H   0  0  0  0  0  0  0  0  0  0  0  0
  148.8548  139.1900  156.6038 H   0  0  0  0  0  0  0  0  0  0  0  0
  148.4060  140.7050  155.8599 H   0  0  0  0  0  0  0  0  0  0  0  0
  147.5185  140.4504  153.2272 H   0  0  0  0  0  0  0  0  0  0  0  0
  145.3207  136.7193  150.9439 H   0  0  0  0  0  0  0  0  0  0  0  0
  146.6778  135.7734  151.5410 H   0  0  0  0  0  0  0  0  0  0  0  0
  142.8964  135.0152  151.2327 H   0  0  0  0  0  0  0  0  0  0  0  0
  143.3271  133.3465  151.6099 H   0  0  0  0  0  0  0  0  0  0  0  0
  141.2584  134.4740  154.9280 H   0  0  0  0  0  0  0  0  0  0  0  0
  142.3342  133.2958  154.2052 H   0  0  0  0  0  0  0  0  0  0  0  0
  147.0286  134.9837  156.5992 H   0  0  0  0  0  0  0  0  0  0  0  0
  1  2  1  0  0  0  0
  1 29  1  0  0  0  0
  1 30  1  0  0  0  0
  1 31  1  0  0  0  0
  2  6  1  0  0  0  0
  2  3  1  0  0  0  0
  2 32  1  0  0  0  0
  3  4  1  0  0  0  0
  4  5  1  0  0  0  0
  4 33  1  0  0  0  0
  4 34  1  0  0  0  0
  5  6  1  0  0  0  0
  5 35  1  0  0  0  0
  5 36  1  0  0  0  0
  6  7  1  0  0  0  0
  6  8  1  0  0  0  0
  7 37  1  0  0  0  0
  8  9  1  0  0  0  0
  8 38  1  0  0  0  0
  8 39  1  0  0  0  0
  9 26  1  0  0  0  0
  9 10  1  0  0  0  0
 10 11  2  0  0  0  0
 10 40  1  0  0  0  0
 11 12  1  0  0  0  0
 12 26  2  0  0  0  0
 12 13  1  0  0  0  0
 13 14  1  0  0  0  0
 13 23  2  0  0  0  0
 14 19  1  0  0  0  0
 14 15  1  0  0  0  0
 15 16  1  0  0  0  0
 15 41  1  0  0  0  0
 15 42  1  0  0  0  0
 16 27  1  0  0  0  0
 16 17  1  0  0  0  0
 16 18  1  0  0  0  0
 18 19  1  0  0  0  0
 18 43  1  0  0  0  0
 18 44  1  0  0  0  0
 19 28  1  0  0  0  0
 19 20  1  0  0  0  0
 20 21  1  0  0  0  0
 20 22  2  0  0  0  0
 21 45  1  0  0  0  0
 21 46  1  0  0  0  0
 23 24  1  0  0  0  0
 24 25  2  0  0  0  0
 24 47  1  0  0  0  0
 25 26  1  0  0  0  0
M  END
> <s_m_source_file>
AV-unprocessed.smi

> <i_m_source_file_index>
196

> <i_lp_mmshare_version>
43012

> <i_f3d_flags>
0

> <s_epik_input>
W0NIMl0xW0NIMl1PW0NAQEhdKFtDSDNdKVtDQEBdMShbT0hdKVtDSDJdbihbY0hdbjIpYyhjMjMpbltjSF1uYzNONFtDSDJdW0NASF0oRilbQ0gyXVtDQEhdNEMoPU8pW05IMl0=

> <s_epik_cmdline>
J2VwaWtfcHl0aG9uJywgJy1waCcsICc3LjAnLCAnLXRuJywgJzgnLCAnLW1hJywgJzIwMCcsICctbWV0YWxfYmluZGluZycsICctaW1hZScsICc8aW5maWxlLm1hZT4nLCAnLW9tYWUnLCAnPG91dGZpbGUubWFlPic=

> <r_lp_tautomer_probability>
1

> <r_epik_Ionization_Penalty>
0.000857933

> <r_epik_Ionization_Penalty_Charging>
0

> <r_epik_Ionization_Penalty_Neutral>
0.000857933

> <r_epik_State_Penalty>
0.000462053

> <r_epik_Charging_Adjusted_Penalty>
0.000462053

> <i_epik_Tot_Q>
0

> <i_epik_Tot_abs_Q>
0

> <r_epik_Metal_State_Penalty>
-0

> <b_epik_Metal_Only>
0

> <s_lp_Force_Field>
OPLS_2005

> <r_lp_Energy>
44.4191

> <b_lp_Chiralities_Consistent>
1

> <s_lp_Variant>
AV-unprocessed.smi:196-16

> <Gold.Version>
5.8.1

> <Gold.Id.Protein>
6NUR|6NUR_protein|mol2

> <Gold.PLP.Fitness>
47.4335

> <Gold.PLP.PLP>
-35.7671

> <Gold.PLP.part.hbond>
-4.7032

> <Gold.PLP.part.metal>
0.0000

> <Gold.PLP.part.buried>
-5.2363

> <Gold.PLP.part.nonpolar>
-25.6788

> <Gold.PLP.part.repulsive>
0.5416

> <Gold.PLP.ligand.clash>
0.0000

> <Gold.PLP.ligand.torsion>
0.7803

> <Gold.PLP.Chemscore.Hbond>
4.3463

> <Gold.PLP.Chemscore.CHOScore>
0.0000

> <Gold.PLP.Chemscore.Metal>
0.0000

> <Gold.Chemscore.Hbonds>
donor molecule, donor type, donor heavy atom, donor atom, acceptor molecule, acceptor atom, score
      L1  H     7    37       P1  7957  0.72
      L1  H    21    45       P1 11000  0.88
      L1  H    21    46       P1 10957  0.99
      P1  H  7989  7998       L1     7  0.64
      P1  H  7997  8008       L1     3  1.00
      P1  H  8011  8017       L1     7  0.04

> <Gold.PLP.Chemscore.Internal.Correction>
0.1881

> <Gold.Rescore>
     Score         DG    S(hbond)    S(metal)    S(lipo)     H(rot)  DE(clash)    DE(int)     intcor
     15.87     -16.50       3.55        0.00      59.29       3.04       0.03       0.60       ----

> <Gold.Chemscore.Fitness>
15.8715

> <Gold.Chemscore.DG>
-16.4986

> <Gold.Chemscore.ZeroCoef>
-5.4800

> <Gold.Chemscore.Hbond>
3.5529

> <Gold.Chemscore.Metal>
0.0000

> <Gold.Chemscore.Lipo>
59.2947

> <Gold.Chemscore.Internal_Hbond>
0.0000

> <Gold.Chemscore.DEClash>
0.0314

> <Gold.Chemscore.DEInternal>
0.5958

> <Gold.Chemscore.Rot>
3.0413

> <Gold.Chemscore.Internal.Correction>
   9.000000E+99

> <Gold.Chemscore.Hbonds>
donor molecule, donor type, donor heavy atom, donor atom, acceptor molecule, acceptor atom, score
      L1  H     7    37       P1  7957  0.68
      L1  H    21    45       P1 11000  0.75
      L1  H    21    46       P1 10957  0.93
      P1  H  7989  7998       L1     7  0.18
      P1  H  7997  8008       L1     3  0.73

> <Gold.Chemscore.Hbond.Weighted>
-11.8668

> <Gold.Chemscore.Metal.Weighted>
-0.0000

> <Gold.Chemscore.Lipo.Weighted>
-6.9375

> <Gold.Chemscore.Internal_Hbond.Weighted>
0.0000

> <Gold.Chemscore.DEClash.Weighted>
0.0314

> <Gold.Chemscore.DEInternal.Weighted>
0.5958

> <Gold.Chemscore.Rot.Weighted>
7.7856

> <Gold.Chemscore.Internal.Correction.Weighted>
   9.000000E+99

> <Gold.Protein.RotatedTorsions>
[ 6907 6896 6895 6894 ] final   54.43 input  -60.11 | X-H torsion
[ 7974 7965 7964 7962 ] final   30.45 input  175.53 | X-H torsion
[ 8008 7997 7996 7995 ] final  -43.10 input   59.86 | X-H torsion
[ 10167 10162 10161 10158 ] final   22.41 input  -65.29 | X-H torsion
[ 10718 10713 10712 10709 ] final   33.03 input   66.30 | X-H torsion
[ 10763 10752 10751 10750 ] final   70.62 input  -60.55 | X-H torsion
[ 11005 11000 10999 10996 ] final  151.71 input  -57.11 | X-H torsion

> <Gold.Protein.ActiveResidues>
 VAL166  LYS551  ARG553  GLY616  TRP617  ASP618  TYR619  PRO620  LYS621  CYS622 
 ASP623  PHE694  ASN695  SER759  ASP760  ASP761  ALA762  ILE779  LEU786  VAL792 
 PHE793  MET794  SER795  GLU796  ALA797  LYS798  CYS799  TRP800  GLU811  SER814 

> <Gold.Protein.RotatedAtoms>
  152.3438  134.7099  160.0256 H   0  0  0  0  0  0  0  0  0  0  0  0  # atno 6907 bound_to 6896
  151.7476  133.3320  159.3391 H   0  0  0  0  0  0  0  0  0  0  0  0  # atno 6908 bound_to 6896
  150.7496  134.6154  159.6153 H   0  0  0  0  0  0  0  0  0  0  0  0  # atno 6909 bound_to 6896
  146.1611  139.6787  142.9033 H   0  0  0  0  0  0  0  0  0  0  0  0  # atno 7974 bound_to 7965
  154.3997  140.1456  156.3463 H   0  0  0  0  0  0  0  0  0  0  0  0  # atno 8008 bound_to 7997
  155.8310  140.3466  155.5551 H   0  0  0  0  0  0  0  0  0  0  0  0  # atno 8009 bound_to 7997
  155.8188  140.0895  157.1851 H   0  0  0  0  0  0  0  0  0  0  0  0  # atno 8010 bound_to 7997
  140.5351  143.9775  150.6487 H   0  0  0  0  0  0  0  0  0  0  0  0  # atno 10167 bound_to 10162
  157.2927  130.7311  149.6620 H   0  0  0  0  0  0  0  0  0  0  0  0  # atno 10718 bound_to 10713
  153.0352  135.5167  154.7469 H   0  0  0  0  0  0  0  0  0  0  0  0  # atno 10763 bound_to 10752
  154.6451  135.2917  155.0058 H   0  0  0  0  0  0  0  0  0  0  0  0  # atno 10764 bound_to 10752
  154.0962  135.6643  153.4913 H   0  0  0  0  0  0  0  0  0  0  0  0  # atno 10765 bound_to 10752
  140.1243  134.8843  157.2115 H   0  0  0  0  0  0  0  0  0  0  0  0  # atno 11005 bound_to 11000
  145.4586  141.0432  143.2764 LP  0  0  0  0  0  0  0  0  0  0  0  0  # atno 17320 bound_to 7965
  144.8028  139.6108  143.7064 LP  0  0  0  0  0  0  0  0  0  0  0  0  # atno 17321 bound_to 7965
  140.3160  143.3167  152.0832 LP  0  0  0  0  0  0  0  0  0  0  0  0  # atno 17342 bound_to 10162
  139.4968  144.6605  151.6475 LP  0  0  0  0  0  0  0  0  0  0  0  0  # atno 17343 bound_to 10162
  155.9668  130.4304  150.4874 LP  0  0  0  0  0  0  0  0  0  0  0  0  # atno 17370 bound_to 10713
  157.2839  131.0612  151.2179 LP  0  0  0  0  0  0  0  0  0  0  0  0  # atno 17371 bound_to 10713
  140.2925  134.3224  155.7311 LP  0  0  0  0  0  0  0  0  0  0  0  0  # atno 17394 bound_to 11000
  141.2158  133.7543  156.9523 LP  0  0  0  0  0  0  0  0  0  0  0  0  # atno 17395 bound_to 11000

$$$$
