AV-unprocessed.smi:2004|AV-procd|sdf|8122|dock2
  -GOLD-   2272010353D 1   1.00000     0.00000
 Structure written by MMmdl.
 39 41  0  0  0  0  0  0  0  0  1 V2000
  152.6761  138.1134  157.3133 O   0  0  0  0  0  0  0  0  0  0  0  0
  151.7685  139.1802  157.1160 C   0  0  1  0  0  0  0  0  0  0  0  0
  152.3661  140.4483  157.7443 C   0  0  0  0  0  0  0  0  0  0  0  0
  152.0706  140.4556  159.1311 O   0  0  0  0  0  0  0  0  0  0  0  0
  152.9834  141.2351  159.8865 C   0  0  0  0  0  0  0  0  0  0  0  0
  152.5552  142.6881  159.9576 C   0  0  0  0  0  0  0  0  0  0  0  0
  152.2263  143.2690  161.2008 C   0  0  0  0  0  0  0  0  0  0  0  0
  151.8146  144.6145  161.2674 C   0  0  0  0  0  0  0  0  0  0  0  0
  151.7251  145.3831  160.0907 C   0  0  0  0  0  0  0  0  0  0  0  0
  152.0445  144.8046  158.8469 C   0  0  0  0  0  0  0  0  0  0  0  0
  152.4561  143.4590  158.7799 C   0  0  0  0  0  0  0  0  0  0  0  0
  151.5168  139.3490  155.6050 C   0  0  0  0  0  0  0  0  0  0  0  0
  150.4678  140.3122  155.3219 N   0  0  0  0  0  0  0  0  0  0  0  0
  150.4137  141.5984  155.7193 C   0  0  0  0  0  0  0  0  0  0  0  0
  149.3533  142.3080  155.3437 N   0  0  0  0  0  0  0  0  0  0  0  0
  148.6349  141.3734  154.6175 C   0  0  0  0  0  0  0  0  0  0  0  0
  147.3990  141.4894  153.9418 C   0  0  0  0  0  0  0  0  0  0  0  0
  146.8519  140.3833  153.2581 C   0  0  0  0  0  0  0  0  0  0  0  0
  147.5302  139.1471  153.2391 C   0  0  0  0  0  0  0  0  0  0  0  0
  148.7629  139.0072  153.9052 C   0  0  0  0  0  0  0  0  0  0  0  0
  149.3052  140.1132  154.5860 C   0  0  0  0  0  0  0  0  0  0  0  0
  152.4626  137.6885  158.1303 H   0  0  0  0  0  0  0  0  0  0  0  0
  150.8256  138.9386  157.6085 H   0  0  0  0  0  0  0  0  0  0  0  0
  153.4409  140.5102  157.5632 H   0  0  0  0  0  0  0  0  0  0  0  0
  151.9105  141.3316  157.2938 H   0  0  0  0  0  0  0  0  0  0  0  0
  153.0668  140.8267  160.8951 H   0  0  0  0  0  0  0  0  0  0  0  0
  153.9754  141.1917  159.4345 H   0  0  0  0  0  0  0  0  0  0  0  0
  152.2896  142.6841  162.1070 H   0  0  0  0  0  0  0  0  0  0  0  0
  151.5665  145.0563  162.2212 H   0  0  0  0  0  0  0  0  0  0  0  0
  151.4092  146.4148  160.1412 H   0  0  0  0  0  0  0  0  0  0  0  0
  151.9727  145.3926  157.9437 H   0  0  0  0  0  0  0  0  0  0  0  0
  152.6965  143.0228  157.8214 H   0  0  0  0  0  0  0  0  0  0  0  0
  152.4265  139.6849  155.1059 H   0  0  0  0  0  0  0  0  0  0  0  0
  151.2475  138.3931  155.1527 H   0  0  0  0  0  0  0  0  0  0  0  0
  151.1992  142.0393  156.3158 H   0  0  0  0  0  0  0  0  0  0  0  0
  146.8712  142.4316  153.9494 H   0  0  0  0  0  0  0  0  0  0  0  0
  145.9069  140.4841  152.7450 H   0  0  0  0  0  0  0  0  0  0  0  0
  147.1033  138.3061  152.7123 H   0  0  0  0  0  0  0  0  0  0  0  0
  149.2859  138.0625  153.8926 H   0  0  0  0  0  0  0  0  0  0  0  0
  1  2  1  0  0  0  0
  1 22  1  0  0  0  0
  2  3  1  0  0  0  0
  2 12  1  0  0  0  0
  2 23  1  0  0  0  0
  3  4  1  0  0  0  0
  3 24  1  0  0  0  0
  3 25  1  0  0  0  0
  4  5  1  0  0  0  0
  5  6  1  0  0  0  0
  5 26  1  0  0  0  0
  5 27  1  0  0  0  0
  6 11  1  0  0  0  0
  6  7  2  0  0  0  0
  7  8  1  0  0  0  0
  7 28  1  0  0  0  0
  8  9  2  0  0  0  0
  8 29  1  0  0  0  0
  9 10  1  0  0  0  0
  9 30  1  0  0  0  0
 10 11  2  0  0  0  0
 10 31  1  0  0  0  0
 11 32  1  0  0  0  0
 12 13  1  0  0  0  0
 12 33  1  0  0  0  0
 12 34  1  0  0  0  0
 13 21  1  0  0  0  0
 13 14  1  0  0  0  0
 14 15  2  0  0  0  0
 14 35  1  0  0  0  0
 15 16  1  0  0  0  0
 16 21  2  0  0  0  0
 16 17  1  0  0  0  0
 17 18  2  0  0  0  0
 17 36  1  0  0  0  0
 18 19  1  0  0  0  0
 18 37  1  0  0  0  0
 19 20  2  0  0  0  0
 19 38  1  0  0  0  0
 20 21  1  0  0  0  0
 20 39  1  0  0  0  0
M  END
> <s_m_source_file>
AV-unprocessed.smi

> <i_m_source_file_index>
2004

> <i_lp_mmshare_version>
43012

> <i_f3d_flags>
0

> <s_epik_input>
W2NIXTFbY0hdW2NIXVtjSF1jKGMxMiluKFtjSF1uMilbQ0gyXVtDQEhdKFtPSF0pW0NIMl1PW0NIMl1jM1tjSF1bY0hdW2NIXVtjSF1bY0hdMw==

> <s_epik_cmdline>
J2VwaWtfcHl0aG9uJywgJy1waCcsICc3LjAnLCAnLXRuJywgJzgnLCAnLW1hJywgJzIwMCcsICctbWV0YWxfYmluZGluZycsICctaW1hZScsICc8aW5maWxlLm1hZT4nLCAnLW9tYWUnLCAnPG91dGZpbGUubWFlPic=

> <r_epik_Ionization_Penalty>
0.0713119

> <r_epik_Ionization_Penalty_Charging>
0

> <r_epik_Ionization_Penalty_Neutral>
0.0713119

> <r_epik_State_Penalty>
0.06259

> <r_epik_Charging_Adjusted_Penalty>
0.06259

> <i_epik_Tot_Q>
0

> <i_epik_Tot_abs_Q>
0

> <r_epik_Metal_State_Penalty>
6.60119e-05

> <b_epik_Metal_Only>
0

> <s_lp_Force_Field>
OPLS_2005

> <r_lp_Energy>
14.5219

> <b_lp_Chiralities_Consistent>
1

> <s_lp_Variant>
AV-unprocessed.smi:2004-2

> <Gold.Version>
5.8.1

> <Gold.Id.Protein>
6NUR|6NUR_protein|mol2

> <Gold.PLP.Fitness>
47.4884

> <Gold.PLP.PLP>
-48.5328

> <Gold.PLP.part.hbond>
-0.1295

> <Gold.PLP.part.metal>
0.0000

> <Gold.PLP.part.buried>
-2.2857

> <Gold.PLP.part.nonpolar>
-49.4123

> <Gold.PLP.part.repulsive>
3.7002

> <Gold.PLP.ligand.clash>
0.0000

> <Gold.PLP.ligand.torsion>
0.5997

> <Gold.PLP.Chemscore.Hbond>
0.0000

> <Gold.PLP.Chemscore.CHOScore>
0.0000

> <Gold.PLP.Chemscore.Metal>
0.0000

> <Gold.PLP.Chemscore.Internal.Correction>
0.1550

> <Gold.Rescore>
     Score         DG    S(hbond)    S(metal)    S(lipo)     H(rot)  DE(clash)    DE(int)     intcor
     12.94     -15.78       0.00        0.00     139.01       2.33       2.16       0.68       ----

> <Gold.Chemscore.Fitness>
12.9385

> <Gold.Chemscore.DG>
-15.7822

> <Gold.Chemscore.ZeroCoef>
-5.4800

> <Gold.Chemscore.Hbond>
0.0000

> <Gold.Chemscore.Metal>
0.0000

> <Gold.Chemscore.Lipo>
139.0070

> <Gold.Chemscore.Internal_Hbond>
0.0000

> <Gold.Chemscore.DEClash>
2.1600

> <Gold.Chemscore.DEInternal>
0.6837

> <Gold.Chemscore.Rot>
2.3288

> <Gold.Chemscore.Internal.Correction>
   9.000000E+99

> <Gold.Chemscore.Hbond.Weighted>
-0.0000

> <Gold.Chemscore.Metal.Weighted>
-0.0000

> <Gold.Chemscore.Lipo.Weighted>
-16.2638

> <Gold.Chemscore.Internal_Hbond.Weighted>
0.0000

> <Gold.Chemscore.DEClash.Weighted>
2.1600

> <Gold.Chemscore.DEInternal.Weighted>
0.6837

> <Gold.Chemscore.Rot.Weighted>
5.9616

> <Gold.Chemscore.Internal.Correction.Weighted>
   9.000000E+99

> <Gold.Protein.RotatedTorsions>
[ 6907 6896 6895 6894 ] final  141.01 input  -60.11 | X-H torsion
[ 7974 7965 7964 7962 ] final  176.79 input  175.53 | X-H torsion
[ 8008 7997 7996 7995 ] final   99.77 input   59.86 | X-H torsion
[ 10167 10162 10161 10158 ] final  -83.02 input  -65.29 | X-H torsion
[ 10718 10713 10712 10709 ] final   41.32 input   66.30 | X-H torsion
[ 10763 10752 10751 10750 ] final   40.86 input  -60.55 | X-H torsion
[ 11005 11000 10999 10996 ] final  -52.11 input  -57.11 | X-H torsion

> <Gold.Protein.ActiveResidues>
 VAL166  LYS551  ARG553  GLY616  TRP617  ASP618  TYR619  PRO620  LYS621  CYS622 
 ASP623  PHE694  ASN695  SER759  ASP760  ASP761  ALA762  ILE779  LEU786  VAL792 
 PHE793  MET794  SER795  GLU796  ALA797  LYS798  CYS799  TRP800  GLU811  SER814 

> <Gold.Protein.RotatedAtoms>
  152.2361  133.5097  159.5243 H   0  0  0  0  0  0  0  0  0  0  0  0  # atno 6907 bound_to 6896
  150.7051  134.1151  159.4023 H   0  0  0  0  0  0  0  0  0  0  0  0  # atno 6908 bound_to 6896
  151.9072  135.0353  160.0562 H   0  0  0  0  0  0  0  0  0  0  0  0  # atno 6909 bound_to 6896
  144.7178  140.0150  143.6440 H   0  0  0  0  0  0  0  0  0  0  0  0  # atno 7974 bound_to 7965
  156.1138  140.3223  155.8110 H   0  0  0  0  0  0  0  0  0  0  0  0  # atno 8008 bound_to 7997
  155.4627  140.0540  157.3006 H   0  0  0  0  0  0  0  0  0  0  0  0  # atno 8009 bound_to 7997
  154.4778  140.2040  155.9850 H   0  0  0  0  0  0  0  0  0  0  0  0  # atno 8010 bound_to 7997
  140.4265  143.2564  151.8818 H   0  0  0  0  0  0  0  0  0  0  0  0  # atno 10167 bound_to 10162
  157.3923  130.7813  149.7279 H   0  0  0  0  0  0  0  0  0  0  0  0  # atno 10718 bound_to 10713
  152.9924  135.6179  154.2695 H   0  0  0  0  0  0  0  0  0  0  0  0  # atno 10763 bound_to 10752
  154.2428  135.2788  155.2849 H   0  0  0  0  0  0  0  0  0  0  0  0  # atno 10764 bound_to 10752
  154.5354  135.5776  153.6852 H   0  0  0  0  0  0  0  0  0  0  0  0  # atno 10765 bound_to 10752
  141.0907  133.6633  156.3975 H   0  0  0  0  0  0  0  0  0  0  0  0  # atno 11005 bound_to 11000
  146.0227  139.3265  143.0803 LP  0  0  0  0  0  0  0  0  0  0  0  0  # atno 17320 bound_to 7965
  145.8548  140.9508  143.0730 LP  0  0  0  0  0  0  0  0  0  0  0  0  # atno 17321 bound_to 7965
  139.4783  144.5381  151.8569 LP  0  0  0  0  0  0  0  0  0  0  0  0  # atno 17342 bound_to 10162
  140.4475  144.1901  150.5895 LP  0  0  0  0  0  0  0  0  0  0  0  0  # atno 17343 bound_to 10162
  155.9801  130.4033  150.3546 LP  0  0  0  0  0  0  0  0  0  0  0  0  # atno 17370 bound_to 10713
  157.1664  131.0358  151.2816 LP  0  0  0  0  0  0  0  0  0  0  0  0  # atno 17371 bound_to 10713
  140.5259  134.6259  157.5334 LP  0  0  0  0  0  0  0  0  0  0  0  0  # atno 17394 bound_to 11000
  139.9732  134.7258  156.0000 LP  0  0  0  0  0  0  0  0  0  0  0  0  # atno 17395 bound_to 11000

$$$$
