AV-unprocessed.smi:139|AV-procd|sdf|1181|dock2
  -GOLD-   2262018333D 1   1.00000     0.00000
 Structure written by MMmdl.
 50 53  0  0  0  0  0  0  0  0  1 V2000
  150.8251  136.4901  156.3942 O   0  0  0  0  0  0  0  0  0  0  0  0
  150.6039  136.6205  155.1895 C   0  0  0  0  0  0  0  0  0  0  0  0
  151.2233  137.7795  154.3942 C   0  0  0  0  0  0  0  0  0  0  0  0
  150.7038  139.1060  154.7920 N   0  0  0  0  0  0  0  0  0  0  0  0
  149.4071  139.4893  154.3686 C   0  0  0  0  0  0  0  0  0  0  0  0
  148.7077  138.7365  153.6893 O   0  0  0  0  0  0  0  0  0  0  0  0
  148.9775  140.8199  154.7836 C   0  0  0  0  0  0  0  0  0  0  0  0
  147.7615  141.2675  154.4275 F   0  0  0  0  0  0  0  0  0  0  0  0
  149.7830  141.6134  155.5193 C   0  0  0  0  0  0  0  0  0  0  0  0
  151.0479  141.2262  155.9256 N   0  0  0  0  0  0  0  0  0  0  0  0
  151.9483  142.1361  156.7352 C   0  0  2  0  0  0  0  0  0  0  0  0
  152.2860  141.4967  158.0958 C   0  0  0  0  0  0  0  0  0  0  0  0
  151.9306  142.5938  159.0798 C   0  0  0  0  0  0  0  0  0  0  0  0
  150.8202  143.3284  158.3446 C   0  0  0  0  0  0  0  0  0  0  0  0
  151.2904  143.3417  157.0032 O   0  0  0  0  0  0  0  0  0  0  0  0
  151.5395  139.9557  155.5554 C   0  0  0  0  0  0  0  0  0  0  0  0
  152.6723  139.5997  155.8884 O   0  0  0  0  0  0  0  0  0  0  0  0
  149.8310  135.7808  154.4844 N   0  0  0  0  0  0  0  0  0  0  0  0
  149.1037  134.6286  155.0131 C   0  0  2  0  0  0  0  0  0  0  0  0
  150.0933  133.6067  155.6043 C   0  0  0  0  0  0  0  0  0  0  0  0
  150.6822  132.6860  154.5318 C   0  0  0  0  0  0  0  0  0  0  0  0
  149.5784  131.9009  153.8136 C   0  0  0  0  0  0  0  0  0  0  0  0
  148.4124  132.7713  153.3709 C   0  0  0  0  0  0  0  0  0  0  0  0
  147.5397  132.2843  152.3751 C   0  0  0  0  0  0  0  0  0  0  0  0
  146.4461  133.0585  151.9440 C   0  0  0  0  0  0  0  0  0  0  0  0
  146.2180  134.3265  152.5086 C   0  0  0  0  0  0  0  0  0  0  0  0
  147.0826  134.8179  153.5045 C   0  0  0  0  0  0  0  0  0  0  0  0
  148.1809  134.0477  153.9456 C   0  0  0  0  0  0  0  0  0  0  0  0
  152.3074  137.7240  154.5008 H   0  0  0  0  0  0  0  0  0  0  0  0
  151.0541  137.6101  153.3292 H   0  0  0  0  0  0  0  0  0  0  0  0
  149.4053  142.5879  155.7885 H   0  0  0  0  0  0  0  0  0  0  0  0
  152.8169  142.3290  156.1029 H   0  0  0  0  0  0  0  0  0  0  0  0
  151.6634  140.6167  158.2660 H   0  0  0  0  0  0  0  0  0  0  0  0
  153.3350  141.2030  158.1409 H   0  0  0  0  0  0  0  0  0  0  0  0
  151.6195  142.2125  160.0526 H   0  0  0  0  0  0  0  0  0  0  0  0
  152.7837  143.2571  159.2276 H   0  0  0  0  0  0  0  0  0  0  0  0
  149.8807  142.7777  158.4094 H   0  0  0  0  0  0  0  0  0  0  0  0
  150.6571  144.3372  158.7238 H   0  0  0  0  0  0  0  0  0  0  0  0
  149.7136  135.9700  153.4993 H   0  0  0  0  0  0  0  0  0  0  0  0
  148.4551  134.9558  155.8276 H   0  0  0  0  0  0  0  0  0  0  0  0
  150.8831  134.1099  156.1637 H   0  0  0  0  0  0  0  0  0  0  0  0
  149.5647  132.9848  156.3281 H   0  0  0  0  0  0  0  0  0  0  0  0
  151.2315  133.2883  153.8071 H   0  0  0  0  0  0  0  0  0  0  0  0
  151.4041  131.9976  154.9723 H   0  0  0  0  0  0  0  0  0  0  0  0
  149.9976  131.3820  152.9506 H   0  0  0  0  0  0  0  0  0  0  0  0
  149.1850  131.1321  154.4795 H   0  0  0  0  0  0  0  0  0  0  0  0
  147.7075  131.3112  151.9373 H   0  0  0  0  0  0  0  0  0  0  0  0
  145.7834  132.6792  151.1802 H   0  0  0  0  0  0  0  0  0  0  0  0
  145.3806  134.9232  152.1782 H   0  0  0  0  0  0  0  0  0  0  0  0
  146.9021  135.7939  153.9313 H   0  0  0  0  0  0  0  0  0  0  0  0
  1  2  2  0  0  0  0
  2  3  1  0  0  0  0
  2 18  1  0  0  0  0
  3  4  1  0  0  0  0
  3 29  1  0  0  0  0
  3 30  1  0  0  0  0
  4 16  1  0  0  0  0
  4  5  1  0  0  0  0
  5  6  2  0  0  0  0
  5  7  1  0  0  0  0
  7  8  1  0  0  0  0
  7  9  2  0  0  0  0
  9 10  1  0  0  0  0
  9 31  1  0  0  0  0
 10 11  1  0  0  0  0
 10 16  1  0  0  0  0
 11 15  1  0  0  0  0
 11 12  1  0  0  0  0
 11 32  1  0  0  0  0
 12 13  1  0  0  0  0
 12 33  1  0  0  0  0
 12 34  1  0  0  0  0
 13 14  1  0  0  0  0
 13 35  1  0  0  0  0
 13 36  1  0  0  0  0
 14 15  1  0  0  0  0
 14 37  1  0  0  0  0
 14 38  1  0  0  0  0
 16 17  2  0  0  0  0
 18 19  1  0  0  0  0
 18 39  1  0  0  0  0
 19 28  1  0  0  0  0
 19 20  1  0  0  0  0
 19 40  1  0  0  0  0
 20 21  1  0  0  0  0
 20 41  1  0  0  0  0
 20 42  1  0  0  0  0
 21 22  1  0  0  0  0
 21 43  1  0  0  0  0
 21 44  1  0  0  0  0
 22 23  1  0  0  0  0
 22 45  1  0  0  0  0
 22 46  1  0  0  0  0
 23 28  2  0  0  0  0
 23 24  1  0  0  0  0
 24 25  2  0  0  0  0
 24 47  1  0  0  0  0
 25 26  1  0  0  0  0
 25 48  1  0  0  0  0
 26 27  2  0  0  0  0
 26 49  1  0  0  0  0
 27 28  1  0  0  0  0
 27 50  1  0  0  0  0
M  END
> <s_m_source_file>
AV-unprocessed.smi

> <i_m_source_file_index>
139

> <i_lp_mmshare_version>
43012

> <i_f3d_flags>
0

> <s_epik_input>
W2NIXTFbY0hdW2NIXVtjSF1jKGMxMilbQ0BASF0oW0NIMl1bQ0gyXVtDSDJdMilbTkhdQyg9TylbQ0gyXW4zYyg9TyljKEYpW2NIXW4oYzM9TylbQ0BASF00W0NIMl1bQ0gyXVtDSDJdTzQ=

> <s_epik_cmdline>
J2VwaWtfcHl0aG9uJywgJy1waCcsICc3LjAnLCAnLXRuJywgJzgnLCAnLW1hJywgJzIwMCcsICctbWV0YWxfYmluZGluZycsICctaW1hZScsICc8aW5maWxlLm1hZT4nLCAnLW9tYWUnLCAnPG91dGZpbGUubWFlPic=

> <r_lp_tautomer_probability>
1

> <r_epik_Ionization_Penalty>
3.261e-08

> <r_epik_Ionization_Penalty_Charging>
3.6725e-09

> <r_epik_Ionization_Penalty_Neutral>
2.89375e-08

> <r_epik_State_Penalty>
-0

> <r_epik_Charging_Adjusted_Penalty>
3.6725e-09

> <i_epik_Tot_Q>
0

> <i_epik_Tot_abs_Q>
0

> <r_epik_Metal_State_Penalty>
-0

> <b_epik_Metal_Only>
0

> <s_epik_Chemistry_Notes>
This compound contains an acetal/aminal-like group ( X-CH(R)-Y where X, Y are N, S, or O) that may be acid/base labile, releasing an aldehyde.

> <s_lp_Force_Field>
OPLS_2005

> <r_lp_Energy>
30.3029

> <b_lp_Chiralities_Consistent>
1

> <s_lp_Variant>
AV-unprocessed.smi:139-1

> <Gold.Version>
5.8.1

> <Gold.Id.Protein>
6NUR|6NUR_protein|mol2

> <Gold.PLP.Fitness>
52.7506

> <Gold.PLP.PLP>
-44.2522

> <Gold.PLP.part.hbond>
-2.0000

> <Gold.PLP.part.metal>
0.0000

> <Gold.PLP.part.buried>
-3.5779

> <Gold.PLP.part.nonpolar>
-39.1631

> <Gold.PLP.part.repulsive>
1.4479

> <Gold.PLP.ligand.clash>
0.0000

> <Gold.PLP.ligand.torsion>
0.2662

> <Gold.PLP.Chemscore.Hbond>
2.0000

> <Gold.PLP.Chemscore.CHOScore>
1.0000

> <Gold.PLP.Chemscore.Metal>
0.0000

> <Gold.Chemscore.Hbonds>
donor molecule, donor type, donor heavy atom, donor atom, acceptor molecule, acceptor atom, score
      L1  H    18    39       P1  7948  0.85
      P1  H  7997  8008       L1    17  1.00
      L1  C     9    31       P1  8028  1.00

> <Gold.PLP.Chemscore.Internal.Correction>
0.0307

> <Gold.Rescore>
     Score         DG    S(hbond)    S(metal)    S(lipo)     H(rot)  DE(clash)    DE(int)     intcor
     14.70     -17.77       1.89        0.00      90.76       1.82       1.67       1.39       ----

> <Gold.Chemscore.Fitness>
14.7023

> <Gold.Chemscore.DG>
-17.7674

> <Gold.Chemscore.ZeroCoef>
-5.4800

> <Gold.Chemscore.Hbond>
1.8925

> <Gold.Chemscore.Metal>
0.0000

> <Gold.Chemscore.Lipo>
90.7594

> <Gold.Chemscore.Internal_Hbond>
0.0000

> <Gold.Chemscore.DEClash>
1.6733

> <Gold.Chemscore.DEInternal>
1.3918

> <Gold.Chemscore.Rot>
1.8174

> <Gold.Chemscore.Internal.Correction>
   9.000000E+99

> <Gold.Chemscore.Hbonds>
donor molecule, donor type, donor heavy atom, donor atom, acceptor molecule, acceptor atom, score
      L1  H    18    39       P1  7948  0.15
      P1  H  7997  8008       L1    17  1.00

> <Gold.Chemscore.Hbond.Weighted>
-6.3210

> <Gold.Chemscore.Metal.Weighted>
-0.0000

> <Gold.Chemscore.Lipo.Weighted>
-10.6189

> <Gold.Chemscore.Internal_Hbond.Weighted>
0.0000

> <Gold.Chemscore.DEClash.Weighted>
1.6733

> <Gold.Chemscore.DEInternal.Weighted>
1.3918

> <Gold.Chemscore.Rot.Weighted>
4.6524

> <Gold.Chemscore.Internal.Correction.Weighted>
   9.000000E+99

> <Gold.Protein.RotatedTorsions>
[ 6907 6896 6895 6894 ] final  -78.41 input  -60.11 | X-H torsion
[ 7974 7965 7964 7962 ] final  137.72 input  175.53 | X-H torsion
[ 8008 7997 7996 7995 ] final  -40.01 input   59.86 | X-H torsion
[ 10167 10162 10161 10158 ] final   13.60 input  -65.29 | X-H torsion
[ 10718 10713 10712 10709 ] final -147.73 input   66.30 | X-H torsion
[ 10763 10752 10751 10750 ] final  118.00 input  -60.55 | X-H torsion
[ 11005 11000 10999 10996 ] final  -29.44 input  -57.11 | X-H torsion

> <Gold.Protein.ActiveResidues>
 VAL166  LYS551  ARG553  GLY616  TRP617  ASP618  TYR619  PRO620  LYS621  CYS622 
 ASP623  PHE694  ASN695  SER759  ASP760  ASP761  ALA762  ILE779  LEU786  VAL792 
 PHE793  MET794  SER795  GLU796  ALA797  LYS798  CYS799  TRP800  GLU811  SER814 

> <Gold.Protein.RotatedAtoms>
  150.6974  134.4277  159.5233 H   0  0  0  0  0  0  0  0  0  0  0  0  # atno 6907 bound_to 6896
  152.2009  134.8586  160.0517 H   0  0  0  0  0  0  0  0  0  0  0  0  # atno 6908 bound_to 6896
  151.9507  133.3630  159.4035 H   0  0  0  0  0  0  0  0  0  0  0  0  # atno 6909 bound_to 6896
  144.9441  139.4896  143.5557 H   0  0  0  0  0  0  0  0  0  0  0  0  # atno 7974 bound_to 7965
  154.4016  140.1536  156.2957 H   0  0  0  0  0  0  0  0  0  0  0  0  # atno 8008 bound_to 7997
  155.8745  140.3447  155.5822 H   0  0  0  0  0  0  0  0  0  0  0  0  # atno 8009 bound_to 7997
  155.7737  140.0834  157.2085 H   0  0  0  0  0  0  0  0  0  0  0  0  # atno 8010 bound_to 7997
  140.5992  143.8640  150.6948 H   0  0  0  0  0  0  0  0  0  0  0  0  # atno 10167 bound_to 10162
  156.4113  130.7983  151.2200 H   0  0  0  0  0  0  0  0  0  0  0  0  # atno 10718 bound_to 10713
  153.5609  135.3521  155.2799 H   0  0  0  0  0  0  0  0  0  0  0  0  # atno 10763 bound_to 10752
  154.8695  135.4136  154.2832 H   0  0  0  0  0  0  0  0  0  0  0  0  # atno 10764 bound_to 10752
  153.3577  135.7058  153.6806 H   0  0  0  0  0  0  0  0  0  0  0  0  # atno 10765 bound_to 10752
  140.9296  133.7346  156.0917 H   0  0  0  0  0  0  0  0  0  0  0  0  # atno 11005 bound_to 11000
  146.3297  139.8481  142.8878 LP  0  0  0  0  0  0  0  0  0  0  0  0  # atno 17320 bound_to 7965
  145.2945  141.0177  143.3644 LP  0  0  0  0  0  0  0  0  0  0  0  0  # atno 17321 bound_to 7965
  140.2181  143.3830  152.1664 LP  0  0  0  0  0  0  0  0  0  0  0  0  # atno 17342 bound_to 10162
  139.5279  144.7124  151.5162 LP  0  0  0  0  0  0  0  0  0  0  0  0  # atno 17343 bound_to 10162
  157.7507  131.0257  150.3929 LP  0  0  0  0  0  0  0  0  0  0  0  0  # atno 17370 bound_to 10713
  156.4228  130.3956  149.6813 LP  0  0  0  0  0  0  0  0  0  0  0  0  # atno 17371 bound_to 10713
  140.7880  134.3650  157.5471 LP  0  0  0  0  0  0  0  0  0  0  0  0  # atno 17394 bound_to 11000
  139.8793  134.9123  156.3056 LP  0  0  0  0  0  0  0  0  0  0  0  0  # atno 17395 bound_to 11000

$$$$
