AV-unprocessed.smi:1839|AV-procd|sdf|7486|dock7
  -GOLD-   22720 9183D 1   1.00000     0.00000
 Structure written by MMmdl.
 47 48  0  0  0  0  0  0  0  0  2 V2000
  151.8609  140.0302  157.0276 C   0  0  0  0  0  0  0  0  0  0  0  0
  150.5758  140.1756  156.3438 N   0  0  0  0  0  0  0  0  0  0  0  0
  149.4927  140.6711  157.2017 C   0  0  0  0  0  0  0  0  0  0  0  0
  150.3742  139.5890  155.1381 C   0  0  0  0  0  0  0  0  0  0  0  0
  151.0754  138.6552  154.7416 O   0  0  0  0  0  0  0  0  0  0  0  0
  149.3355  140.0626  154.4084 N   0  0  0  0  0  0  0  0  0  0  0  0
  148.9800  141.4880  154.3394 C   0  0  0  0  0  0  0  0  0  0  0  0
  147.4495  141.6428  154.3947 C   0  0  0  0  0  0  0  0  0  0  0  0
  146.7722  140.8205  153.2839 C   0  0  0  0  0  0  0  0  0  0  0  0
  147.2619  139.3558  153.2956 C   0  0  1  0  0  0  0  0  0  0  0  0
  146.6830  138.5489  152.1270 C   0  0  0  0  0  0  0  0  0  0  0  0
  146.9048  138.8863  150.9641 O   0  0  0  0  0  0  0  0  0  0  0  0
  145.9713  137.4591  152.4523 N   0  0  0  0  0  0  0  0  0  0  0  0
  145.4124  136.5016  151.5025 C   0  0  0  0  0  0  0  0  0  0  0  0
  144.3606  135.5584  152.1261 C   0  0  0  0  0  0  0  0  0  0  0  0
  144.4946  134.1084  151.6899 C   0  0  0  0  0  0  0  0  0  0  0  0
  145.6176  133.3239  152.0305 C   0  0  0  0  0  0  0  0  0  0  0  0
  145.6910  131.9914  151.5731 C   0  0  0  0  0  0  0  0  0  0  0  0
  144.6436  131.4727  150.7835 C   0  0  0  0  0  0  0  0  0  0  0  0
  143.5455  132.3002  150.4724 C   0  0  0  0  0  0  0  0  0  0  0  0
  143.5109  133.5700  150.9321 N   0  3  0  0  0  0  0  0  0  0  0  0
  148.8049  139.3113  153.2662 C   0  0  0  0  0  0  0  0  0  0  0  0
  152.6965  140.1231  156.3319 H   0  0  0  0  0  0  0  0  0  0  0  0
  151.9264  139.0559  157.5132 H   0  0  0  0  0  0  0  0  0  0  0  0
  151.9912  140.7995  157.7897 H   0  0  0  0  0  0  0  0  0  0  0  0
  148.5285  140.2258  156.9521 H   0  0  0  0  0  0  0  0  0  0  0  0
  149.4035  141.7544  157.1205 H   0  0  0  0  0  0  0  0  0  0  0  0
  149.6821  140.4342  158.2496 H   0  0  0  0  0  0  0  0  0  0  0  0
  149.4451  142.0768  155.1302 H   0  0  0  0  0  0  0  0  0  0  0  0
  149.3597  141.9020  153.4039 H   0  0  0  0  0  0  0  0  0  0  0  0
  147.0816  141.3156  155.3674 H   0  0  0  0  0  0  0  0  0  0  0  0
  147.1759  142.6939  154.2992 H   0  0  0  0  0  0  0  0  0  0  0  0
  145.6888  140.8603  153.4028 H   0  0  0  0  0  0  0  0  0  0  0  0
  146.9946  141.2821  152.3204 H   0  0  0  0  0  0  0  0  0  0  0  0
  146.9274  138.8974  154.2284 H   0  0  0  0  0  0  0  0  0  0  0  0
  145.8315  137.2620  153.4331 H   0  0  0  0  0  0  0  0  0  0  0  0
  144.9441  137.0806  150.7061 H   0  0  0  0  0  0  0  0  0  0  0  0
  146.2114  135.9251  151.0339 H   0  0  0  0  0  0  0  0  0  0  0  0
  144.4235  135.6090  153.2135 H   0  0  0  0  0  0  0  0  0  0  0  0
  143.3589  135.9069  151.8703 H   0  0  0  0  0  0  0  0  0  0  0  0
  146.4155  133.7381  152.6300 H   0  0  0  0  0  0  0  0  0  0  0  0
  146.5431  131.3756  151.8218 H   0  0  0  0  0  0  0  0  0  0  0  0
  144.6824  130.4559  150.4208 H   0  0  0  0  0  0  0  0  0  0  0  0
  142.7025  131.9894  149.8720 H   0  0  0  0  0  0  0  0  0  0  0  0
  149.1940  139.7366  152.3392 H   0  0  0  0  0  0  0  0  0  0  0  0
  149.1315  138.2705  153.2929 H   0  0  0  0  0  0  0  0  0  0  0  0
  142.7085  134.1530  150.6915 H   0  0  0  0  0  0  0  0  0  0  0  0
  1  2  1  0  0  0  0
  1 23  1  0  0  0  0
  1 24  1  0  0  0  0
  1 25  1  0  0  0  0
  2  3  1  0  0  0  0
  2  4  1  0  0  0  0
  3 26  1  0  0  0  0
  3 27  1  0  0  0  0
  3 28  1  0  0  0  0
  4  5  2  0  0  0  0
  4  6  1  0  0  0  0
  6 22  1  0  0  0  0
  6  7  1  0  0  0  0
  7  8  1  0  0  0  0
  7 29  1  0  0  0  0
  7 30  1  0  0  0  0
  8  9  1  0  0  0  0
  8 31  1  0  0  0  0
  8 32  1  0  0  0  0
  9 10  1  0  0  0  0
  9 33  1  0  0  0  0
  9 34  1  0  0  0  0
 10 11  1  0  0  0  0
 10 22  1  0  0  0  0
 10 35  1  0  0  0  0
 11 12  2  0  0  0  0
 11 13  1  0  0  0  0
 13 14  1  0  0  0  0
 13 36  1  0  0  0  0
 14 15  1  0  0  0  0
 14 37  1  0  0  0  0
 14 38  1  0  0  0  0
 15 16  1  0  0  0  0
 15 39  1  0  0  0  0
 15 40  1  0  0  0  0
 16 21  1  0  0  0  0
 16 17  2  0  0  0  0
 17 18  1  0  0  0  0
 17 41  1  0  0  0  0
 18 19  2  0  0  0  0
 18 42  1  0  0  0  0
 19 20  1  0  0  0  0
 19 43  1  0  0  0  0
 20 21  2  0  0  0  0
 20 44  1  0  0  0  0
 21 47  1  0  0  0  0
 22 45  1  0  0  0  0
 22 46  1  0  0  0  0
M  CHG  1  21   1
M  END
> <s_m_source_file>
AV-unprocessed.smi

> <i_m_source_file_index>
1839

> <i_lp_mmshare_version>
43012

> <i_f3d_flags>
0

> <s_epik_input>
W0NIM11OKFtDSDNdKUMoPU8pTjFbQ0gyXVtDSDJdW0NIMl1bQ0BIXShbQ0gyXTEpQyg9TylbTkhdW0NIMl1bQ0gyXWMyW2NIXVtjSF1bY0hdW2NIXW4y

> <s_epik_cmdline>
J2VwaWtfcHl0aG9uJywgJy1waCcsICc3LjAnLCAnLXRuJywgJzgnLCAnLW1hJywgJzIwMCcsICctbWV0YWxfYmluZGluZycsICctaW1hZScsICc8aW5maWxlLm1hZT4nLCAnLW9tYWUnLCAnPG91dGZpbGUubWFlPic=

> <r_epik_Ionization_Penalty>
1.8476

> <r_epik_Ionization_Penalty_Charging>
1.84754

> <r_epik_Ionization_Penalty_Neutral>
5.83857e-05

> <r_epik_State_Penalty>
1.96477

> <r_epik_Charging_Adjusted_Penalty>
3.81231

> <i_epik_Tot_Q>
1

> <i_epik_Tot_abs_Q>
1

> <r_epik_Metal_State_Penalty>
1.99061

> <b_epik_Metal_Only>
0

> <s_lp_Force_Field>
OPLS_2005

> <r_lp_Energy>
54.126

> <b_lp_Chiralities_Consistent>
1

> <s_lp_Variant>
AV-unprocessed.smi:1839-3

> <Gold.Version>
5.8.1

> <Gold.Id.Protein>
6NUR|6NUR_protein|mol2

> <Gold.PLP.Fitness>
45.8298

> <Gold.PLP.PLP>
-38.3371

> <Gold.PLP.part.hbond>
-2.1607

> <Gold.PLP.part.metal>
0.0000

> <Gold.PLP.part.buried>
1.7091

> <Gold.PLP.part.nonpolar>
-40.3769

> <Gold.PLP.part.repulsive>
1.9160

> <Gold.PLP.ligand.clash>
0.0000

> <Gold.PLP.ligand.torsion>
1.1081

> <Gold.PLP.Chemscore.Hbond>
2.8000

> <Gold.PLP.Chemscore.CHOScore>
0.0000

> <Gold.PLP.Chemscore.Metal>
0.0000

> <Gold.Chemscore.Hbonds>
donor molecule, donor type, donor heavy atom, donor atom, acceptor molecule, acceptor atom, score
      L1  H    21    47       P1 10186  1.84
      P1  H  7954  7966       L1    12  0.85

> <Gold.PLP.Chemscore.Internal.Correction>
1.3090

> <Gold.Rescore>
     Score         DG    S(hbond)    S(metal)    S(lipo)     H(rot)  DE(clash)    DE(int)     intcor
     14.73     -18.09       1.74        0.00      93.11       1.60       2.10       1.26       ----

> <Gold.Chemscore.Fitness>
14.7264

> <Gold.Chemscore.DG>
-18.0931

> <Gold.Chemscore.ZeroCoef>
-5.4800

> <Gold.Chemscore.Hbond>
1.7449

> <Gold.Chemscore.Metal>
0.0000

> <Gold.Chemscore.Lipo>
93.1082

> <Gold.Chemscore.Internal_Hbond>
0.0000

> <Gold.Chemscore.DEClash>
2.1048

> <Gold.Chemscore.DEInternal>
1.2620

> <Gold.Chemscore.Rot>
1.6049

> <Gold.Chemscore.Internal.Correction>
   9.000000E+99

> <Gold.Chemscore.Hbonds>
donor molecule, donor type, donor heavy atom, donor atom, acceptor molecule, acceptor atom, score
      L1  H    21    47       P1 10186  0.54
      P1  H  7954  7966       L1    12  0.81

> <Gold.Chemscore.Hbond.Weighted>
-5.8281

> <Gold.Chemscore.Metal.Weighted>
-0.0000

> <Gold.Chemscore.Lipo.Weighted>
-10.8937

> <Gold.Chemscore.Internal_Hbond.Weighted>
0.0000

> <Gold.Chemscore.DEClash.Weighted>
2.1048

> <Gold.Chemscore.DEInternal.Weighted>
1.2620

> <Gold.Chemscore.Rot.Weighted>
4.1087

> <Gold.Chemscore.Internal.Correction.Weighted>
   9.000000E+99

> <Gold.Protein.RotatedTorsions>
[ 6907 6896 6895 6894 ] final   98.03 input  -60.11 | X-H torsion
[ 7974 7965 7964 7962 ] final  170.06 input  175.53 | X-H torsion
[ 8008 7997 7996 7995 ] final   -0.64 input   59.86 | X-H torsion
[ 10167 10162 10161 10158 ] final   68.95 input  -65.29 | X-H torsion
[ 10718 10713 10712 10709 ] final   27.63 input   66.30 | X-H torsion
[ 10763 10752 10751 10750 ] final  -41.46 input  -60.55 | X-H torsion
[ 11005 11000 10999 10996 ] final   56.64 input  -57.11 | X-H torsion

> <Gold.Protein.ActiveResidues>
 VAL166  LYS551  ARG553  GLY616  TRP617  ASP618  TYR619  PRO620  LYS621  CYS622 
 ASP623  PHE694  ASN695  SER759  ASP760  ASP761  ALA762  ILE779  LEU786  VAL792 
 PHE793  MET794  SER795  GLU796  ALA797  LYS798  CYS799  TRP800  GLU811  SER814 

> <Gold.Protein.RotatedAtoms>
  152.5415  134.0643  159.8165 H   0  0  0  0  0  0  0  0  0  0  0  0  # atno 6907 bound_to 6896
  151.0766  133.5415  159.2630 H   0  0  0  0  0  0  0  0  0  0  0  0  # atno 6908 bound_to 6896
  151.2258  135.0544  159.9022 H   0  0  0  0  0  0  0  0  0  0  0  0  # atno 6909 bound_to 6896
  144.7335  139.9146  143.6417 H   0  0  0  0  0  0  0  0  0  0  0  0  # atno 7974 bound_to 7965
  154.6557  140.2579  155.7164 H   0  0  0  0  0  0  0  0  0  0  0  0  # atno 8008 bound_to 7997
  156.2596  140.2859  156.0931 H   0  0  0  0  0  0  0  0  0  0  0  0  # atno 8009 bound_to 7997
  155.1383  140.0380  157.2782 H   0  0  0  0  0  0  0  0  0  0  0  0  # atno 8010 bound_to 7997
  140.0731  144.5135  150.7213 H   0  0  0  0  0  0  0  0  0  0  0  0  # atno 10167 bound_to 10162
  157.2227  130.6986  149.6277 H   0  0  0  0  0  0  0  0  0  0  0  0  # atno 10718 bound_to 10713
  153.9629  135.6737  153.4745 H   0  0  0  0  0  0  0  0  0  0  0  0  # atno 10763 bound_to 10752
  153.0830  135.4913  154.8537 H   0  0  0  0  0  0  0  0  0  0  0  0  # atno 10764 bound_to 10752
  154.7263  135.3128  154.8926 H   0  0  0  0  0  0  0  0  0  0  0  0  # atno 10765 bound_to 10752
  140.0513  134.5733  155.9260 H   0  0  0  0  0  0  0  0  0  0  0  0  # atno 11005 bound_to 11000
  146.0975  139.3968  143.0367 LP  0  0  0  0  0  0  0  0  0  0  0  0  # atno 17320 bound_to 7965
  145.7625  140.9929  143.1192 LP  0  0  0  0  0  0  0  0  0  0  0  0  # atno 17321 bound_to 7965
  140.7115  143.2509  151.4565 LP  0  0  0  0  0  0  0  0  0  0  0  0  # atno 17342 bound_to 10162
  139.5824  144.1680  152.1985 LP  0  0  0  0  0  0  0  0  0  0  0  0  # atno 17343 bound_to 10162
  155.9681  130.4514  150.5736 LP  0  0  0  0  0  0  0  0  0  0  0  0  # atno 17370 bound_to 10713
  157.3559  131.0741  151.1676 LP  0  0  0  0  0  0  0  0  0  0  0  0  # atno 17371 bound_to 10713
  141.1931  133.6578  156.5535 LP  0  0  0  0  0  0  0  0  0  0  0  0  # atno 17394 bound_to 11000
  140.3913  134.7438  157.4723 LP  0  0  0  0  0  0  0  0  0  0  0  0  # atno 17395 bound_to 11000

$$$$
