AV-unprocessed.smi:1452|AV-procd|sdf|5910|dock10
  -GOLD-   22720 5593D 1   1.00000     0.00000
 Structure written by MMmdl.
 40 42  0  0  0  0  0  0  0  0  2 V2000
  146.1360  137.9708  154.5137 O   0  0  0  0  0  0  0  0  0  0  0  0
  146.9982  137.4820  153.7855 C   0  0  0  0  0  0  0  0  0  0  0  0
  148.2230  138.0411  153.6835 N   0  0  0  0  0  0  0  0  0  0  0  0
  148.7888  139.2000  154.2934 C   0  0  0  0  0  0  0  0  0  0  0  0
  150.1362  139.0507  154.6931 C   0  0  0  0  0  0  0  0  0  0  0  0
  150.8045  140.1274  155.3075 C   0  0  0  0  0  0  0  0  0  0  0  0
  150.1063  141.3308  155.5108 C   0  0  0  0  0  0  0  0  0  0  0  0
  148.7672  141.3989  155.0864 C   0  0  0  0  0  0  0  0  0  0  0  0
  148.1262  140.3681  154.4957 N   0  0  0  0  0  0  0  0  0  0  0  0
  146.7889  136.3705  153.0617 N   0  0  0  0  0  0  0  0  0  0  0  0
  145.5590  135.5862  153.0425 C   0  0  1  0  0  0  0  0  0  0  0  0
  144.3374  136.4015  152.5828 C   0  0  0  0  0  0  0  0  0  0  0  0
  143.5023  135.4361  151.7187 C   0  0  0  0  0  0  0  0  0  0  0  0
  144.1938  134.1358  151.8059 N   0  3  1  0  0  0  0  0  0  0  0  0
  143.9751  133.1805  150.6978 C   0  0  0  0  0  0  0  0  0  0  0  0
  144.7098  131.8615  151.0107 C   0  0  0  0  0  0  0  0  0  0  0  0
  146.1985  132.0991  151.3356 C   0  0  0  0  0  0  0  0  0  0  0  0
  146.3652  133.1702  152.4308 C   0  0  0  0  0  0  0  0  0  0  0  0
  145.6148  134.4484  152.0199 C   0  0  2  0  0  0  0  0  0  0  0  0
  148.8441  137.5649  153.0454 H   0  0  0  0  0  0  0  0  0  0  0  0
  150.6597  138.1194  154.5308 H   0  0  0  0  0  0  0  0  0  0  0  0
  151.8342  140.0300  155.6177 H   0  0  0  0  0  0  0  0  0  0  0  0
  150.5844  142.1786  155.9790 H   0  0  0  0  0  0  0  0  0  0  0  0
  148.1948  142.3042  155.2244 H   0  0  0  0  0  0  0  0  0  0  0  0
  147.5516  136.0394  152.4870 H   0  0  0  0  0  0  0  0  0  0  0  0
  145.3468  135.1781  154.0331 H   0  0  0  0  0  0  0  0  0  0  0  0
  143.7711  136.7744  153.4371 H   0  0  0  0  0  0  0  0  0  0  0  0
  144.6352  137.2655  151.9863 H   0  0  0  0  0  0  0  0  0  0  0  0
  142.4726  135.3503  152.0666 H   0  0  0  0  0  0  0  0  0  0  0  0
  143.4830  135.7828  150.6844 H   0  0  0  0  0  0  0  0  0  0  0  0
  142.9068  132.9969  150.5777 H   0  0  0  0  0  0  0  0  0  0  0  0
  144.3379  133.6077  149.7614 H   0  0  0  0  0  0  0  0  0  0  0  0
  144.2307  131.3748  151.8612 H   0  0  0  0  0  0  0  0  0  0  0  0
  144.6161  131.1733  150.1701 H   0  0  0  0  0  0  0  0  0  0  0  0
  146.6688  131.1662  151.6477 H   0  0  0  0  0  0  0  0  0  0  0  0
  146.7188  132.4204  150.4324 H   0  0  0  0  0  0  0  0  0  0  0  0
  145.9804  132.7960  153.3804 H   0  0  0  0  0  0  0  0  0  0  0  0
  147.4237  133.3821  152.5834 H   0  0  0  0  0  0  0  0  0  0  0  0
  146.0316  134.8287  151.0842 H   0  0  0  0  0  0  0  0  0  0  0  0
  143.8688  133.6940  152.6540 H   0  0  0  0  0  0  0  0  0  0  0  0
  1  2  2  0  0  0  0
  2  3  1  0  0  0  0
  2 10  1  0  0  0  0
  3  4  1  0  0  0  0
  3 20  1  0  0  0  0
  4  9  1  0  0  0  0
  4  5  2  0  0  0  0
  5  6  1  0  0  0  0
  5 21  1  0  0  0  0
  6  7  2  0  0  0  0
  6 22  1  0  0  0  0
  7  8  1  0  0  0  0
  7 23  1  0  0  0  0
  8  9  2  0  0  0  0
  8 24  1  0  0  0  0
 10 11  1  0  0  0  0
 10 25  1  0  0  0  0
 11 19  1  0  0  0  0
 11 12  1  0  0  0  0
 11 26  1  0  0  0  0
 12 13  1  0  0  0  0
 12 27  1  0  0  0  0
 12 28  1  0  0  0  0
 13 14  1  0  0  0  0
 13 29  1  0  0  0  0
 13 30  1  0  0  0  0
 14 19  1  0  0  0  0
 14 15  1  0  0  0  0
 14 40  1  0  0  0  0
 15 16  1  0  0  0  0
 15 31  1  0  0  0  0
 15 32  1  0  0  0  0
 16 17  1  0  0  0  0
 16 33  1  0  0  0  0
 16 34  1  0  0  0  0
 17 18  1  0  0  0  0
 17 35  1  0  0  0  0
 17 36  1  0  0  0  0
 18 19  1  0  0  0  0
 18 37  1  0  0  0  0
 18 38  1  0  0  0  0
 19 39  1  0  0  0  0
M  CHG  1  14   1
M  END
> <s_m_source_file>
AV-unprocessed.smi

> <i_m_source_file_index>
1452

> <i_lp_mmshare_version>
43012

> <i_f3d_flags>
0

> <s_epik_input>
W0NIMl0xW0NIMl1bQ0gyXVtDSDJdW0NASF0oTjEyKVtDQEBIXShbQ0gyXVtDSDJdMilbTkhdQyg9TylbTkhdYzNbY0hdW2NIXVtjSF1bY0hdbjM=

> <s_epik_cmdline>
J2VwaWtfcHl0aG9uJywgJy1waCcsICc3LjAnLCAnLXRuJywgJzgnLCAnLW1hJywgJzIwMCcsICctbWV0YWxfYmluZGluZycsICctaW1hZScsICc8aW5maWxlLm1hZT4nLCAnLW9tYWUnLCAnPG91dGZpbGUubWFlPic=

> <r_epik_Ionization_Penalty>
0.00100813

> <r_epik_Ionization_Penalty_Charging>
0.000974069

> <r_epik_Ionization_Penalty_Neutral>
3.40643e-05

> <r_epik_State_Penalty>
0.000633842

> <r_epik_Charging_Adjusted_Penalty>
0.00160791

> <i_epik_Tot_Q>
1

> <i_epik_Tot_abs_Q>
1

> <r_epik_Metal_State_Penalty>
-0

> <b_epik_Metal_Only>
0

> <s_lp_Force_Field>
OPLS_2005

> <r_lp_Energy>
38.162

> <b_lp_Chiralities_Consistent>
1

> <s_lp_Variant>
AV-unprocessed.smi:1452-8

> <Gold.Version>
5.8.1

> <Gold.Id.Protein>
6NUR|6NUR_protein|mol2

> <Gold.PLP.Fitness>
37.2028

> <Gold.PLP.PLP>
-29.0912

> <Gold.PLP.part.hbond>
-1.8063

> <Gold.PLP.part.metal>
0.0000

> <Gold.PLP.part.buried>
-2.6010

> <Gold.PLP.part.nonpolar>
-25.2605

> <Gold.PLP.part.repulsive>
0.2122

> <Gold.PLP.ligand.clash>
0.0000

> <Gold.PLP.ligand.torsion>
0.3158

> <Gold.PLP.Chemscore.Hbond>
1.9120

> <Gold.PLP.Chemscore.CHOScore>
0.9992

> <Gold.PLP.Chemscore.Metal>
0.0000

> <Gold.Chemscore.Hbonds>
donor molecule, donor type, donor heavy atom, donor atom, acceptor molecule, acceptor atom, score
      L1  H     3    20       P1  7948  0.91
      L1  H    10    25       P1  7948  1.00
      L1  C     8    24       P1  8028  0.99

> <Gold.PLP.Chemscore.Internal.Correction>
0.0096

> <Gold.Rescore>
     Score         DG    S(hbond)    S(metal)    S(lipo)     H(rot)  DE(clash)    DE(int)     intcor
     16.75     -17.60       1.90        0.00      71.24       1.00       0.01       0.84       ----

> <Gold.Chemscore.Fitness>
16.7507

> <Gold.Chemscore.DG>
-17.6030

> <Gold.Chemscore.ZeroCoef>
-5.4800

> <Gold.Chemscore.Hbond>
1.9005

> <Gold.Chemscore.Metal>
0.0000

> <Gold.Chemscore.Lipo>
71.2415

> <Gold.Chemscore.Internal_Hbond>
0.0000

> <Gold.Chemscore.DEClash>
0.0101

> <Gold.Chemscore.DEInternal>
0.8422

> <Gold.Chemscore.Rot>
1.0000

> <Gold.Chemscore.Internal.Correction>
   9.000000E+99

> <Gold.Chemscore.Hbonds>
donor molecule, donor type, donor heavy atom, donor atom, acceptor molecule, acceptor atom, score
      L1  H     3    20       P1  7948  0.88
      L1  H    10    25       P1  7948  0.90

> <Gold.Chemscore.Hbond.Weighted>
-6.3477

> <Gold.Chemscore.Metal.Weighted>
-0.0000

> <Gold.Chemscore.Lipo.Weighted>
-8.3353

> <Gold.Chemscore.Internal_Hbond.Weighted>
0.0000

> <Gold.Chemscore.DEClash.Weighted>
0.0101

> <Gold.Chemscore.DEInternal.Weighted>
0.8422

> <Gold.Chemscore.Rot.Weighted>
2.5600

> <Gold.Chemscore.Internal.Correction.Weighted>
   9.000000E+99

> <Gold.Protein.RotatedTorsions>
[ 6907 6896 6895 6894 ] final  -53.59 input  -60.11 | X-H torsion
[ 7974 7965 7964 7962 ] final  -78.84 input  175.53 | X-H torsion
[ 8008 7997 7996 7995 ] final -168.33 input   59.86 | X-H torsion
[ 10167 10162 10161 10158 ] final   26.23 input  -65.29 | X-H torsion
[ 10718 10713 10712 10709 ] final  -60.87 input   66.30 | X-H torsion
[ 10763 10752 10751 10750 ] final -122.33 input  -60.55 | X-H torsion
[ 11005 11000 10999 10996 ] final  153.84 input  -57.11 | X-H torsion

> <Gold.Protein.ActiveResidues>
 VAL166  LYS551  ARG553  GLY616  TRP617  ASP618  TYR619  PRO620  LYS621  CYS622 
 ASP623  PHE694  ASN695  SER759  ASP760  ASP761  ALA762  ILE779  LEU786  VAL792 
 PHE793  MET794  SER795  GLU796  ALA797  LYS798  CYS799  TRP800  GLU811  SER814 

> <Gold.Protein.RotatedAtoms>
  150.8413  134.7706  159.6934 H   0  0  0  0  0  0  0  0  0  0  0  0  # atno 6907 bound_to 6896
  152.4499  134.5411  159.9849 H   0  0  0  0  0  0  0  0  0  0  0  0  # atno 6908 bound_to 6896
  151.5551  133.3374  159.2996 H   0  0  0  0  0  0  0  0  0  0  0  0  # atno 6909 bound_to 6896
  145.5811  140.9448  143.1343 H   0  0  0  0  0  0  0  0  0  0  0  0  # atno 7974 bound_to 7965
  155.8899  140.1023  157.1426 H   0  0  0  0  0  0  0  0  0  0  0  0  # atno 8008 bound_to 7997
  154.4014  140.1313  156.4367 H   0  0  0  0  0  0  0  0  0  0  0  0  # atno 8009 bound_to 7997
  155.7545  140.3464  155.5169 H   0  0  0  0  0  0  0  0  0  0  0  0  # atno 8010 bound_to 7997
  140.5040  144.0269  150.6344 H   0  0  0  0  0  0  0  0  0  0  0  0  # atno 10167 bound_to 10162
  156.0961  130.4193  150.0914 H   0  0  0  0  0  0  0  0  0  0  0  0  # atno 10718 bound_to 10713
  154.8687  135.4136  154.2764 H   0  0  0  0  0  0  0  0  0  0  0  0  # atno 10763 bound_to 10752
  153.3665  135.7005  153.6677 H   0  0  0  0  0  0  0  0  0  0  0  0  # atno 10764 bound_to 10752
  153.5556  135.3620  155.2750 H   0  0  0  0  0  0  0  0  0  0  0  0  # atno 10765 bound_to 10752
  140.1435  134.8723  157.2362 H   0  0  0  0  0  0  0  0  0  0  0  0  # atno 11005 bound_to 11000
  144.7393  139.7494  143.7317 LP  0  0  0  0  0  0  0  0  0  0  0  0  # atno 17320 bound_to 7965
  146.1715  139.4868  142.9924 LP  0  0  0  0  0  0  0  0  0  0  0  0  # atno 17321 bound_to 7965
  140.3573  143.2928  152.0422 LP  0  0  0  0  0  0  0  0  0  0  0  0  # atno 17342 bound_to 10162
  139.4879  144.6329  151.7033 LP  0  0  0  0  0  0  0  0  0  0  0  0  # atno 17343 bound_to 10162
  156.8913  130.9589  151.3588 LP  0  0  0  0  0  0  0  0  0  0  0  0  # atno 17370 bound_to 10713
  157.6122  130.8591  149.8969 LP  0  0  0  0  0  0  0  0  0  0  0  0  # atno 17371 bound_to 10713
  140.2693  134.3479  155.7379 LP  0  0  0  0  0  0  0  0  0  0  0  0  # atno 17394 bound_to 11000
  141.2189  133.7414  156.9198 LP  0  0  0  0  0  0  0  0  0  0  0  0  # atno 17395 bound_to 11000

$$$$
