AV-unprocessed.smi:3168|AV-procd|sdf|12101|dock4
  -GOLD-   2272017533D 1   1.00000     0.00000
 Structure written by MMmdl.
 33 34  0  0  0  0  0  0  0  0  1 V2000
  148.0649  142.3776  158.1142 C   0  0  0  0  0  0  0  0  0  0  0  0
  149.1758  141.5559  157.4282 C   0  0  2  0  0  0  0  0  0  0  0  0
  150.5772  142.1635  157.6155 C   0  0  0  0  0  0  0  0  0  0  0  0
  151.4886  141.5035  158.1165 O   0  0  0  0  0  0  0  0  0  0  0  0
  150.7371  143.4277  157.1916 N   0  0  0  0  0  0  0  0  0  0  0  0
  151.9840  144.1821  157.2405 C   0  0  0  0  0  0  0  0  0  0  0  0
  152.4496  144.3961  158.6897 C   0  0  1  0  0  0  0  0  0  0  0  0
  151.3298  144.8210  159.6368 C   0  0  0  0  0  0  0  0  0  0  0  0
  151.8967  144.4133  160.9774 C   0  0  0  0  0  0  0  0  0  0  0  0
  152.6105  143.1071  160.6372 C   0  0  0  0  0  0  0  0  0  0  0  0
  152.9490  143.1865  159.2544 O   0  0  0  0  0  0  0  0  0  0  0  0
  148.8926  141.3318  156.0146 N   0  0  0  0  0  0  0  0  0  0  0  0
  147.9280  141.9387  155.2354 C   0  0  0  0  0  0  0  0  0  0  0  0
  148.0075  141.3954  153.9854 C   0  0  0  0  0  0  0  0  0  0  0  0
  149.0593  140.4443  154.0968 C   0  0  0  0  0  0  0  0  0  0  0  0
  149.5824  140.4034  155.3112 N   0  0  0  0  0  0  0  0  0  0  0  0
  148.2573  142.4857  159.1823 H   0  0  0  0  0  0  0  0  0  0  0  0
  147.0969  141.8876  158.0059 H   0  0  0  0  0  0  0  0  0  0  0  0
  147.9769  143.3793  157.6913 H   0  0  0  0  0  0  0  0  0  0  0  0
  149.1933  140.5772  157.9104 H   0  0  0  0  0  0  0  0  0  0  0  0
  149.9373  143.8972  156.7927 H   0  0  0  0  0  0  0  0  0  0  0  0
  152.7357  143.6097  156.6964 H   0  0  0  0  0  0  0  0  0  0  0  0
  151.8892  145.1367  156.7204 H   0  0  0  0  0  0  0  0  0  0  0  0
  153.2468  145.1409  158.7247 H   0  0  0  0  0  0  0  0  0  0  0  0
  151.1005  145.8851  159.5749 H   0  0  0  0  0  0  0  0  0  0  0  0
  150.4168  144.2599  159.4314 H   0  0  0  0  0  0  0  0  0  0  0  0
  152.6176  145.1576  161.3182 H   0  0  0  0  0  0  0  0  0  0  0  0
  151.1358  144.2958  161.7494 H   0  0  0  0  0  0  0  0  0  0  0  0
  153.4963  142.9510  161.2532 H   0  0  0  0  0  0  0  0  0  0  0  0
  151.9445  142.2558  160.7809 H   0  0  0  0  0  0  0  0  0  0  0  0
  147.2711  142.6992  155.6316 H   0  0  0  0  0  0  0  0  0  0  0  0
  147.4039  141.6381  153.1234 H   0  0  0  0  0  0  0  0  0  0  0  0
  149.4536  139.7846  153.3379 H   0  0  0  0  0  0  0  0  0  0  0  0
  1  2  1  0  0  0  0
  1 17  1  0  0  0  0
  1 18  1  0  0  0  0
  1 19  1  0  0  0  0
  2  3  1  0  0  0  0
  2 12  1  0  0  0  0
  2 20  1  0  0  0  0
  3  4  2  0  0  0  0
  3  5  1  0  0  0  0
  5  6  1  0  0  0  0
  5 21  1  0  0  0  0
  6  7  1  0  0  0  0
  6 22  1  0  0  0  0
  6 23  1  0  0  0  0
  7 11  1  0  0  0  0
  7  8  1  0  0  0  0
  7 24  1  0  0  0  0
  8  9  1  0  0  0  0
  8 25  1  0  0  0  0
  8 26  1  0  0  0  0
  9 10  1  0  0  0  0
  9 27  1  0  0  0  0
  9 28  1  0  0  0  0
 10 11  1  0  0  0  0
 10 29  1  0  0  0  0
 10 30  1  0  0  0  0
 12 16  1  0  0  0  0
 12 13  1  0  0  0  0
 13 14  2  0  0  0  0
 13 31  1  0  0  0  0
 14 15  1  0  0  0  0
 14 32  1  0  0  0  0
 15 16  2  0  0  0  0
 15 33  1  0  0  0  0
M  END
> <s_m_source_file>
AV-unprocessed.smi

> <i_m_source_file_index>
3168

> <i_lp_mmshare_version>
43012

> <i_f3d_flags>
0

> <s_epik_input>
bjFbY0hdW2NIXVtjSF1uMVtDQEhdKFtDSDNdKUMoPU8pW05IXVtDSDJdW0NAQEhdMltDSDJdW0NIMl1bQ0gyXU8y

> <s_epik_cmdline>
J2VwaWtfcHl0aG9uJywgJy1waCcsICc3LjAnLCAnLXRuJywgJzgnLCAnLW1hJywgJzIwMCcsICctbWV0YWxfYmluZGluZycsICctaW1hZScsICc8aW5maWxlLm1hZT4nLCAnLW9tYWUnLCAnPG91dGZpbGUubWFlPic=

> <r_lp_tautomer_probability>
1

> <r_epik_Ionization_Penalty>
4.14877e-05

> <r_epik_Ionization_Penalty_Charging>
0

> <r_epik_Ionization_Penalty_Neutral>
4.14877e-05

> <r_epik_State_Penalty>
-0

> <r_epik_Charging_Adjusted_Penalty>
0

> <i_epik_Tot_Q>
0

> <i_epik_Tot_abs_Q>
0

> <r_epik_Metal_State_Penalty>
-0

> <b_epik_Metal_Only>
0

> <s_lp_Force_Field>
OPLS_2005

> <r_lp_Energy>
21.5397

> <b_lp_Chiralities_Consistent>
1

> <s_lp_Variant>
AV-unprocessed.smi:3168-3

> <Gold.Version>
5.8.1

> <Gold.Id.Protein>
6NUR|6NUR_protein|mol2

> <Gold.PLP.Fitness>
41.3872

> <Gold.PLP.PLP>
-34.8370

> <Gold.PLP.part.hbond>
-1.0000

> <Gold.PLP.part.metal>
0.0000

> <Gold.PLP.part.buried>
-3.6099

> <Gold.PLP.part.nonpolar>
-30.8328

> <Gold.PLP.part.repulsive>
0.0820

> <Gold.PLP.ligand.clash>
0.0000

> <Gold.PLP.ligand.torsion>
0.3939

> <Gold.PLP.Chemscore.Hbond>
1.0000

> <Gold.PLP.Chemscore.CHOScore>
1.4113

> <Gold.PLP.Chemscore.Metal>
0.0000

> <Gold.Chemscore.Hbonds>
donor molecule, donor type, donor heavy atom, donor atom, acceptor molecule, acceptor atom, score
      L1  H     5    21       P1  8028  1.00
      L1  C    13    31       P1  8028  0.39
      L1  C    15    33       P1  7957  1.00

> <Gold.PLP.Chemscore.Internal.Correction>
0.1042

> <Gold.Rescore>
     Score         DG    S(hbond)    S(metal)    S(lipo)     H(rot)  DE(clash)    DE(int)     intcor
     12.82     -14.89       0.99        0.00      87.24       1.61       0.07       2.00       ----

> <Gold.Chemscore.Fitness>
12.8203

> <Gold.Chemscore.DG>
-14.8858

> <Gold.Chemscore.ZeroCoef>
-5.4800

> <Gold.Chemscore.Hbond>
0.9938

> <Gold.Chemscore.Metal>
0.0000

> <Gold.Chemscore.Lipo>
87.2364

> <Gold.Chemscore.Internal_Hbond>
0.0000

> <Gold.Chemscore.DEClash>
0.0650

> <Gold.Chemscore.DEInternal>
2.0004

> <Gold.Chemscore.Rot>
1.6094

> <Gold.Chemscore.Internal.Correction>
   9.000000E+99

> <Gold.Chemscore.Hbonds>
donor molecule, donor type, donor heavy atom, donor atom, acceptor molecule, acceptor atom, score
      L1  H     5    21       P1  8028  0.99

> <Gold.Chemscore.Hbond.Weighted>
-3.3192

> <Gold.Chemscore.Metal.Weighted>
-0.0000

> <Gold.Chemscore.Lipo.Weighted>
-10.2067

> <Gold.Chemscore.Internal_Hbond.Weighted>
0.0000

> <Gold.Chemscore.DEClash.Weighted>
0.0650

> <Gold.Chemscore.DEInternal.Weighted>
2.0004

> <Gold.Chemscore.Rot.Weighted>
4.1201

> <Gold.Chemscore.Internal.Correction.Weighted>
   9.000000E+99

> <Gold.Protein.RotatedTorsions>
[ 6907 6896 6895 6894 ] final -113.76 input  -60.11 | X-H torsion
[ 7974 7965 7964 7962 ] final   67.77 input  175.53 | X-H torsion
[ 8008 7997 7996 7995 ] final -101.33 input   59.86 | X-H torsion
[ 10167 10162 10161 10158 ] final   69.87 input  -65.29 | X-H torsion
[ 10718 10713 10712 10709 ] final  154.49 input   66.30 | X-H torsion
[ 10763 10752 10751 10750 ] final  -51.02 input  -60.55 | X-H torsion
[ 11005 11000 10999 10996 ] final -118.08 input  -57.11 | X-H torsion

> <Gold.Protein.ActiveResidues>
 VAL166  LYS551  ARG553  GLY616  TRP617  ASP618  TYR619  PRO620  LYS621  CYS622 
 ASP623  PHE694  ASN695  SER759  ASP760  ASP761  ALA762  ILE779  LEU786  VAL792 
 PHE793  MET794  SER795  GLU796  ALA797  LYS798  CYS799  TRP800  GLU811  SER814 

> <Gold.Protein.RotatedAtoms>
  150.7852  133.8899  159.3309 H   0  0  0  0  0  0  0  0  0  0  0  0  # atno 6907 bound_to 6896
  151.6751  135.0968  160.0215 H   0  0  0  0  0  0  0  0  0  0  0  0  # atno 6908 bound_to 6896
  152.3914  133.6646  159.6276 H   0  0  0  0  0  0  0  0  0  0  0  0  # atno 6909 bound_to 6896
  145.8107  139.3031  143.1101 H   0  0  0  0  0  0  0  0  0  0  0  0  # atno 7974 bound_to 7965
  154.8410  140.0435  157.1541 H   0  0  0  0  0  0  0  0  0  0  0  0  # atno 8008 bound_to 7997
  154.9047  140.3005  155.5278 H   0  0  0  0  0  0  0  0  0  0  0  0  # atno 8009 bound_to 7997
  156.2992  140.2369  156.4079 H   0  0  0  0  0  0  0  0  0  0  0  0  # atno 8010 bound_to 7997
  140.0630  144.5216  150.7280 H   0  0  0  0  0  0  0  0  0  0  0  0  # atno 10167 bound_to 10162
  157.2310  131.0739  151.1853 H   0  0  0  0  0  0  0  0  0  0  0  0  # atno 10718 bound_to 10713
  154.1198  135.6536  153.4901 H   0  0  0  0  0  0  0  0  0  0  0  0  # atno 10763 bound_to 10752
  153.0229  135.5267  154.7109 H   0  0  0  0  0  0  0  0  0  0  0  0  # atno 10764 bound_to 10752
  154.6313  135.2976  155.0183 H   0  0  0  0  0  0  0  0  0  0  0  0  # atno 10765 bound_to 10752
  141.0310  133.9981  157.3142 H   0  0  0  0  0  0  0  0  0  0  0  0  # atno 11005 bound_to 11000
  145.9780  140.8706  143.0128 LP  0  0  0  0  0  0  0  0  0  0  0  0  # atno 17320 bound_to 7965
  144.6758  140.2040  143.7384 LP  0  0  0  0  0  0  0  0  0  0  0  0  # atno 17321 bound_to 7965
  140.7162  143.2547  151.4425 LP  0  0  0  0  0  0  0  0  0  0  0  0  # atno 17342 bound_to 10162
  139.5882  144.1558  152.2055 LP  0  0  0  0  0  0  0  0  0  0  0  0  # atno 17343 bound_to 10162
  157.3478  130.7066  149.6422 LP  0  0  0  0  0  0  0  0  0  0  0  0  # atno 17370 bound_to 10713
  155.9675  130.4261  150.4684 LP  0  0  0  0  0  0  0  0  0  0  0  0  # atno 17371 bound_to 10713
  139.9208  135.0200  156.8056 LP  0  0  0  0  0  0  0  0  0  0  0  0  # atno 17394 bound_to 11000
  140.6406  133.9822  155.7706 LP  0  0  0  0  0  0  0  0  0  0  0  0  # atno 17395 bound_to 11000

$$$$
