AV-unprocessed.smi:1070|AV-procd|sdf|4676|dock3
  -GOLD-   22720 3193D 1   1.00000     0.00000
 Structure written by MMmdl.
 48 49  0  0  0  0  0  0  0  0  1 V2000
  146.7328  140.3486  153.5176 C   0  0  0  0  0  0  0  0  0  0  0  0
  147.4284  138.9861  153.4763 C   0  0  0  0  0  0  0  0  0  0  0  0
  146.4480  137.9766  153.3131 O   0  0  0  0  0  0  0  0  0  0  0  0
  145.9675  137.8854  151.9790 C   0  0  0  0  0  0  0  0  0  0  0  0
  145.4320  136.4749  151.7338 C   0  0  0  0  0  0  0  0  0  0  0  0
  144.2510  136.3187  151.4259 O   0  0  0  0  0  0  0  0  0  0  0  0
  146.3228  135.4776  151.8758 N   0  0  0  0  0  0  0  0  0  0  0  0
  146.0911  134.0754  151.8179 C   0  0  0  0  0  0  0  0  0  0  0  0
  145.2094  133.4916  150.8781 C   0  0  0  0  0  0  0  0  0  0  0  0
  145.0660  132.0927  150.8496 C   0  0  0  0  0  0  0  0  0  0  0  0
  145.8157  131.3169  151.7527 C   0  0  0  0  0  0  0  0  0  0  0  0
  145.6743  129.9446  151.7238 O   0  0  0  0  0  0  0  0  0  0  0  0
  146.4677  129.1661  152.6129 C   0  0  0  0  0  0  0  0  0  0  0  0
  146.6726  131.8676  152.6458 N   0  0  0  0  0  0  0  0  0  0  0  0
  146.8149  133.2138  152.6840 C   0  0  0  0  0  0  0  0  0  0  0  0
  147.7029  133.7424  153.6418 N   0  0  0  0  0  0  0  0  0  0  0  0
  149.1095  133.3498  153.5401 C   0  0  0  0  0  0  0  0  0  0  0  0
  149.9784  134.2056  154.4817 C   0  0  0  0  0  0  0  0  0  0  0  0
  149.4393  134.1172  155.8456 N   0  0  0  0  0  0  0  0  0  0  0  0
  150.1071  133.5241  156.8634 C   0  0  0  0  0  0  0  0  0  0  0  0
  151.5105  132.9673  156.6136 C   0  0  0  0  0  0  0  0  0  0  0  0
  149.6325  133.4101  157.9936 O   0  0  0  0  0  0  0  0  0  0  0  0
  148.0659  134.6362  155.9126 C   0  0  0  0  0  0  0  0  0  0  0  0
  147.1643  133.7832  155.0016 C   0  0  0  0  0  0  0  0  0  0  0  0
  147.4596  141.1541  153.6231 H   0  0  0  0  0  0  0  0  0  0  0  0
  146.0430  140.4094  154.3594 H   0  0  0  0  0  0  0  0  0  0  0  0
  146.1650  140.5270  152.6040 H   0  0  0  0  0  0  0  0  0  0  0  0
  148.1396  138.9542  152.6497 H   0  0  0  0  0  0  0  0  0  0  0  0
  147.9863  138.8257  154.4000 H   0  0  0  0  0  0  0  0  0  0  0  0
  145.1722  138.6139  151.8112 H   0  0  0  0  0  0  0  0  0  0  0  0
  146.7691  138.0921  151.2683 H   0  0  0  0  0  0  0  0  0  0  0  0
  147.2366  135.7522  152.2071 H   0  0  0  0  0  0  0  0  0  0  0  0
  144.6573  134.0909  150.1703 H   0  0  0  0  0  0  0  0  0  0  0  0
  144.3984  131.6235  150.1422 H   0  0  0  0  0  0  0  0  0  0  0  0
  146.2360  128.1103  152.4732 H   0  0  0  0  0  0  0  0  0  0  0  0
  146.2602  129.4147  153.6548 H   0  0  0  0  0  0  0  0  0  0  0  0
  147.5329  129.2998  152.4185 H   0  0  0  0  0  0  0  0  0  0  0  0
  149.2148  132.2950  153.7985 H   0  0  0  0  0  0  0  0  0  0  0  0
  149.4507  133.4670  152.5107 H   0  0  0  0  0  0  0  0  0  0  0  0
  151.0188  133.8858  154.4131 H   0  0  0  0  0  0  0  0  0  0  0  0
  149.9647  135.2480  154.1598 H   0  0  0  0  0  0  0  0  0  0  0  0
  152.1890  133.7582  156.2927 H   0  0  0  0  0  0  0  0  0  0  0  0
  151.4867  132.1878  155.8517 H   0  0  0  0  0  0  0  0  0  0  0  0
  151.9182  132.5289  157.5251 H   0  0  0  0  0  0  0  0  0  0  0  0
  147.6514  134.6604  156.9191 H   0  0  0  0  0  0  0  0  0  0  0  0
  148.0624  135.6716  155.5699 H   0  0  0  0  0  0  0  0  0  0  0  0
  146.1514  134.1855  155.0094 H   0  0  0  0  0  0  0  0  0  0  0  0
  147.0998  132.7648  155.3870 H   0  0  0  0  0  0  0  0  0  0  0  0
  1  2  1  0  0  0  0
  1 25  1  0  0  0  0
  1 26  1  0  0  0  0
  1 27  1  0  0  0  0
  2  3  1  0  0  0  0
  2 28  1  0  0  0  0
  2 29  1  0  0  0  0
  3  4  1  0  0  0  0
  4  5  1  0  0  0  0
  4 30  1  0  0  0  0
  4 31  1  0  0  0  0
  5  6  2  0  0  0  0
  5  7  1  0  0  0  0
  7  8  1  0  0  0  0
  7 32  1  0  0  0  0
  8 15  1  0  0  0  0
  8  9  2  0  0  0  0
  9 10  1  0  0  0  0
  9 33  1  0  0  0  0
 10 11  2  0  0  0  0
 10 34  1  0  0  0  0
 11 12  1  0  0  0  0
 11 14  1  0  0  0  0
 12 13  1  0  0  0  0
 13 35  1  0  0  0  0
 13 36  1  0  0  0  0
 13 37  1  0  0  0  0
 14 15  2  0  0  0  0
 15 16  1  0  0  0  0
 16 24  1  0  0  0  0
 16 17  1  0  0  0  0
 17 18  1  0  0  0  0
 17 38  1  0  0  0  0
 17 39  1  0  0  0  0
 18 19  1  0  0  0  0
 18 40  1  0  0  0  0
 18 41  1  0  0  0  0
 19 20  1  0  0  0  0
 19 23  1  0  0  0  0
 20 21  1  0  0  0  0
 20 22  2  0  0  0  0
 21 42  1  0  0  0  0
 21 43  1  0  0  0  0
 21 44  1  0  0  0  0
 23 24  1  0  0  0  0
 23 45  1  0  0  0  0
 23 46  1  0  0  0  0
 24 47  1  0  0  0  0
 24 48  1  0  0  0  0
M  END
> <s_m_source_file>
AV-unprocessed.smi

> <i_m_source_file_index>
1070

> <i_lp_mmshare_version>
43012

> <i_f3d_flags>
0

> <s_epik_input>
W0NIM11bQ0gyXU9bQ0gyXUMoPU8pW05IXWMxW2NIXVtjSF1jKE9bQ0gzXSluYzFOMltDSDJdW0NIMl1OKEMoPU8pW0NIM10pW0NIMl1bQ0gyXTI=

> <s_epik_cmdline>
J2VwaWtfcHl0aG9uJywgJy1waCcsICc3LjAnLCAnLXRuJywgJzgnLCAnLW1hJywgJzIwMCcsICctbWV0YWxfYmluZGluZycsICctaW1hZScsICc8aW5maWxlLm1hZT4nLCAnLW9tYWUnLCAnPG91dGZpbGUubWFlPic=

> <r_lp_tautomer_probability>
1

> <r_epik_Ionization_Penalty>
0.000131804

> <r_epik_Ionization_Penalty_Charging>
0

> <r_epik_Ionization_Penalty_Neutral>
0.000131804

> <r_epik_State_Penalty>
-0

> <r_epik_Charging_Adjusted_Penalty>
0

> <i_epik_Tot_Q>
0

> <i_epik_Tot_abs_Q>
0

> <r_epik_Metal_State_Penalty>
-0

> <b_epik_Metal_Only>
0

> <s_lp_Force_Field>
OPLS_2005

> <r_lp_Energy>
37.3921

> <b_lp_Chiralities_Consistent>
1

> <s_lp_Variant>
AV-unprocessed.smi:1070-1

> <Gold.Version>
5.8.1

> <Gold.Id.Protein>
6NUR|6NUR_protein|mol2

> <Gold.PLP.Fitness>
38.6268

> <Gold.PLP.PLP>
-33.7207

> <Gold.PLP.part.hbond>
-2.0000

> <Gold.PLP.part.metal>
0.0000

> <Gold.PLP.part.buried>
-6.5826

> <Gold.PLP.part.nonpolar>
-27.5523

> <Gold.PLP.part.repulsive>
2.5057

> <Gold.PLP.ligand.clash>
0.0000

> <Gold.PLP.ligand.torsion>
0.7538

> <Gold.PLP.Chemscore.Hbond>
1.9760

> <Gold.PLP.Chemscore.CHOScore>
0.0000

> <Gold.PLP.Chemscore.Metal>
0.0000

> <Gold.Chemscore.Hbonds>
donor molecule, donor type, donor heavy atom, donor atom, acceptor molecule, acceptor atom, score
      L1  H     7    32       P1  7948  0.98
      P1  H  6896  6909       L1    22  1.00

> <Gold.PLP.Chemscore.Internal.Correction>
0.4858

> <Gold.Rescore>
     Score         DG    S(hbond)    S(metal)    S(lipo)     H(rot)  DE(clash)    DE(int)     intcor
     12.00     -15.05       1.88        0.00      68.97       1.86       1.48       1.58       ----

> <Gold.Chemscore.Fitness>
11.9953

> <Gold.Chemscore.DG>
-15.0511

> <Gold.Chemscore.ZeroCoef>
-5.4800

> <Gold.Chemscore.Hbond>
1.8777

> <Gold.Chemscore.Metal>
0.0000

> <Gold.Chemscore.Lipo>
68.9677

> <Gold.Chemscore.Internal_Hbond>
0.0000

> <Gold.Chemscore.DEClash>
1.4799

> <Gold.Chemscore.DEInternal>
1.5759

> <Gold.Chemscore.Rot>
1.8631

> <Gold.Chemscore.Internal.Correction>
   9.000000E+99

> <Gold.Chemscore.Hbonds>
donor molecule, donor type, donor heavy atom, donor atom, acceptor molecule, acceptor atom, score
      L1  H     7    32       P1  7948  0.92
      P1  H  6896  6909       L1    22  0.88

> <Gold.Chemscore.Hbond.Weighted>
-6.2715

> <Gold.Chemscore.Metal.Weighted>
-0.0000

> <Gold.Chemscore.Lipo.Weighted>
-8.0692

> <Gold.Chemscore.Internal_Hbond.Weighted>
0.0000

> <Gold.Chemscore.DEClash.Weighted>
1.4799

> <Gold.Chemscore.DEInternal.Weighted>
1.5759

> <Gold.Chemscore.Rot.Weighted>
4.7696

> <Gold.Chemscore.Internal.Correction.Weighted>
   9.000000E+99

> <Gold.Protein.RotatedTorsions>
[ 6907 6896 6895 6894 ] final    4.09 input  -60.11 | X-H torsion
[ 7974 7965 7964 7962 ] final    3.02 input  175.53 | X-H torsion
[ 8008 7997 7996 7995 ] final  -11.03 input   59.86 | X-H torsion
[ 10167 10162 10161 10158 ] final   74.17 input  -65.29 | X-H torsion
[ 10718 10713 10712 10709 ] final   51.65 input   66.30 | X-H torsion
[ 10763 10752 10751 10750 ] final   59.32 input  -60.55 | X-H torsion
[ 11005 11000 10999 10996 ] final   -3.55 input  -57.11 | X-H torsion

> <Gold.Protein.ActiveResidues>
 VAL166  LYS551  ARG553  GLY616  TRP617  ASP618  TYR619  PRO620  LYS621  CYS622 
 ASP623  PHE694  ASN695  SER759  ASP760  ASP761  ALA762  ILE779  LEU786  VAL792 
 PHE793  MET794  SER795  GLU796  ALA797  LYS798  CYS799  TRP800  GLU811  SER814 

> <Gold.Protein.RotatedAtoms>
  151.6357  135.1018  160.0130 H   0  0  0  0  0  0  0  0  0  0  0  0  # atno 6907 bound_to 6896
  152.4082  133.6918  159.6383 H   0  0  0  0  0  0  0  0  0  0  0  0  # atno 6908 bound_to 6896
  150.7975  133.8588  159.3267 H   0  0  0  0  0  0  0  0  0  0  0  0  # atno 6909 bound_to 6896
  146.2445  140.0748  142.8360 H   0  0  0  0  0  0  0  0  0  0  0  0  # atno 7974 bound_to 7965
  154.5501  140.2313  155.8499 H   0  0  0  0  0  0  0  0  0  0  0  0  # atno 8008 bound_to 7997
  156.1939  140.3070  155.9348 H   0  0  0  0  0  0  0  0  0  0  0  0  # atno 8009 bound_to 7997
  155.3087  140.0434  157.3024 H   0  0  0  0  0  0  0  0  0  0  0  0  # atno 8010 bound_to 7997
  140.0166  144.5573  150.7615 H   0  0  0  0  0  0  0  0  0  0  0  0  # atno 10167 bound_to 10162
  157.5001  130.8432  149.8306 H   0  0  0  0  0  0  0  0  0  0  0  0  # atno 10718 bound_to 10713
  152.9892  135.5575  154.5694 H   0  0  0  0  0  0  0  0  0  0  0  0  # atno 10763 bound_to 10752
  154.5098  135.2801  155.1354 H   0  0  0  0  0  0  0  0  0  0  0  0  # atno 10764 bound_to 10752
  154.2751  135.6355  153.5378 H   0  0  0  0  0  0  0  0  0  0  0  0  # atno 10765 bound_to 10752
  140.6706  133.9240  155.8492 H   0  0  0  0  0  0  0  0  0  0  0  0  # atno 11005 bound_to 11000
  145.0784  140.9204  143.4840 LP  0  0  0  0  0  0  0  0  0  0  0  0  # atno 17320 bound_to 7965
  145.0896  139.2899  143.5741 LP  0  0  0  0  0  0  0  0  0  0  0  0  # atno 17321 bound_to 7965
  140.7360  143.2747  151.3778 LP  0  0  0  0  0  0  0  0  0  0  0  0  # atno 17342 bound_to 10162
  139.6168  144.0986  152.2353 LP  0  0  0  0  0  0  0  0  0  0  0  0  # atno 17343 bound_to 10162
  156.0224  130.3791  150.1923 LP  0  0  0  0  0  0  0  0  0  0  0  0  # atno 17370 bound_to 10713
  157.0112  130.9951  151.3365 LP  0  0  0  0  0  0  0  0  0  0  0  0  # atno 17371 bound_to 10713
  141.0395  134.0641  157.3919 LP  0  0  0  0  0  0  0  0  0  0  0  0  # atno 17394 bound_to 11000
  139.8983  135.0154  156.7141 LP  0  0  0  0  0  0  0  0  0  0  0  0  # atno 17395 bound_to 11000

$$$$
