AV-unprocessed.smi:2424|AV-procd|sdf|9568|dock9
  -GOLD-   2272013203D 1   1.00000     0.00000
 Structure written by MMmdl.
 49 50  0  0  0  0  0  0  0  0  2 V2000
  153.2481  137.7061  155.3743 C   0  0  0  0  0  0  0  0  0  0  0  0
  152.0919  138.4214  154.6580 C   0  0  0  0  0  0  0  0  0  0  0  0
  150.6761  138.0715  155.1712 C   0  0  0  0  0  0  0  0  0  0  0  0
  149.6244  138.7331  154.2415 C   0  0  0  0  0  0  0  0  0  0  0  0
  149.6633  140.2695  154.1942 C   0  0  0  0  0  0  0  0  0  0  0  0
  150.4601  136.5705  155.5064 C   0  0  2  0  0  0  0  0  0  0  0  0
  149.6622  135.8394  154.5253 N   0  0  0  0  0  0  0  0  0  0  0  0
  149.0556  134.6649  154.7418 C   0  0  0  0  0  0  0  0  0  0  0  0
  149.0860  134.0765  155.8221 O   0  0  0  0  0  0  0  0  0  0  0  0
  148.4283  134.2416  153.6303 N   0  0  0  0  0  0  0  0  0  0  0  0
  147.7190  133.0515  153.4256 C   0  0  0  0  0  0  0  0  0  0  0  0
  148.0532  131.9119  154.1288 C   0  0  0  0  0  0  0  0  0  0  0  0
  147.4923  130.6847  154.0707 N   0  5  0  0  0  0  0  0  0  0  0  0
  146.4463  130.4965  153.2158 C   0  0  0  0  0  0  0  0  0  0  0  0
  145.8880  129.4054  153.1064 O   0  0  0  0  0  0  0  0  0  0  0  0
  145.9755  131.6371  152.4043 C   0  0  0  0  0  0  0  0  0  0  0  0
  144.8041  131.4263  151.4601 C   0  0  0  0  0  0  0  0  0  0  0  0
  146.5913  132.8406  152.5182 C   0  0  0  0  0  0  0  0  0  0  0  0
  149.6399  136.9748  156.7346 C   0  0  1  0  0  0  0  0  0  0  0  0
  149.6691  136.1079  157.9870 C   0  0  0  0  0  0  0  0  0  0  0  0
  150.4164  138.3005  156.6907 C   0  0  1  0  0  0  0  0  0  0  0  0
  151.5839  138.2216  157.5008 O   0  0  0  0  0  0  0  0  0  0  0  0
  152.2316  139.4723  157.6617 C   0  0  0  0  0  0  0  0  0  0  0  0
  154.2067  138.0820  155.0161 H   0  0  0  0  0  0  0  0  0  0  0  0
  153.2394  136.6314  155.1963 H   0  0  0  0  0  0  0  0  0  0  0  0
  153.2164  137.8729  156.4499 H   0  0  0  0  0  0  0  0  0  0  0  0
  152.2672  139.4910  154.7756 H   0  0  0  0  0  0  0  0  0  0  0  0
  152.1733  138.2456  153.5863 H   0  0  0  0  0  0  0  0  0  0  0  0
  149.7043  138.3450  153.2265 H   0  0  0  0  0  0  0  0  0  0  0  0
  148.6203  138.4516  154.5588 H   0  0  0  0  0  0  0  0  0  0  0  0
  148.8210  140.6536  153.6188 H   0  0  0  0  0  0  0  0  0  0  0  0
  150.5698  140.6387  153.7155 H   0  0  0  0  0  0  0  0  0  0  0  0
  149.6050  140.7063  155.1909 H   0  0  0  0  0  0  0  0  0  0  0  0
  151.3882  136.0730  155.7985 H   0  0  0  0  0  0  0  0  0  0  0  0
  149.5792  136.2524  153.6082 H   0  0  0  0  0  0  0  0  0  0  0  0
  148.4717  134.8521  152.8276 H   0  0  0  0  0  0  0  0  0  0  0  0
  148.9015  131.9981  154.8419 H   0  0  0  0  0  0  0  0  0  0  0  0
  144.5510  132.3435  150.9277 H   0  0  0  0  0  0  0  0  0  0  0  0
  143.9216  131.1036  152.0132 H   0  0  0  0  0  0  0  0  0  0  0  0
  145.0451  130.6628  150.7198 H   0  0  0  0  0  0  0  0  0  0  0  0
  146.2151  133.6517  151.9165 H   0  0  0  0  0  0  0  0  0  0  0  0
  148.6055  137.1708  156.4459 H   0  0  0  0  0  0  0  0  0  0  0  0
  150.6885  135.8479  158.2729 H   0  0  0  0  0  0  0  0  0  0  0  0
  149.1271  135.1753  157.8298 H   0  0  0  0  0  0  0  0  0  0  0  0
  149.2083  136.6203  158.8317 H   0  0  0  0  0  0  0  0  0  0  0  0
  149.7790  139.1527  156.9325 H   0  0  0  0  0  0  0  0  0  0  0  0
  153.1402  139.3409  158.2490 H   0  0  0  0  0  0  0  0  0  0  0  0
  151.5894  140.1779  158.1901 H   0  0  0  0  0  0  0  0  0  0  0  0
  152.5103  139.9089  156.7027 H   0  0  0  0  0  0  0  0  0  0  0  0
  1  2  1  0  0  0  0
  1 24  1  0  0  0  0
  1 25  1  0  0  0  0
  1 26  1  0  0  0  0
  2  3  1  0  0  0  0
  2 27  1  0  0  0  0
  2 28  1  0  0  0  0
  3 21  1  0  0  0  0
  3  4  1  0  0  0  0
  3  6  1  0  0  0  0
  4  5  1  0  0  0  0
  4 29  1  0  0  0  0
  4 30  1  0  0  0  0
  5 31  1  0  0  0  0
  5 32  1  0  0  0  0
  5 33  1  0  0  0  0
  6  7  1  0  0  0  0
  6 19  1  0  0  0  0
  6 34  1  0  0  0  0
  7  8  1  0  0  0  0
  7 35  1  0  0  0  0
  8  9  2  0  0  0  0
  8 10  1  0  0  0  0
 10 11  1  0  0  0  0
 10 36  1  0  0  0  0
 11 18  1  0  0  0  0
 11 12  2  0  0  0  0
 12 13  1  0  0  0  0
 12 37  1  0  0  0  0
 13 14  1  0  0  0  0
 14 15  2  0  0  0  0
 14 16  1  0  0  0  0
 16 17  1  0  0  0  0
 16 18  2  0  0  0  0
 17 38  1  0  0  0  0
 17 39  1  0  0  0  0
 17 40  1  0  0  0  0
 18 41  1  0  0  0  0
 19 20  1  0  0  0  0
 19 21  1  0  0  0  0
 19 42  1  0  0  0  0
 20 43  1  0  0  0  0
 20 44  1  0  0  0  0
 20 45  1  0  0  0  0
 21 22  1  0  0  0  0
 21 46  1  0  0  0  0
 22 23  1  0  0  0  0
 23 47  1  0  0  0  0
 23 48  1  0  0  0  0
 23 49  1  0  0  0  0
M  CHG  1  13  -1
M  END
> <s_m_source_file>
AV-unprocessed.smi

> <i_m_source_file_index>
2424

> <i_lp_mmshare_version>
43012

> <i_f3d_flags>
0

> <s_epik_input>
W0NIM11PW0NAQEhdMVtDQEhdKFtDSDNdKVtDQEBIXShDMShbQ0gyXVtDSDNdKVtDSDJdW0NIM10pW05IXUMoPU8pW05IXWMyW2NIXVtuSF1jKD1PKWMoW0NIM10pW2NIXTI=

> <s_epik_cmdline>
J2VwaWtfcHl0aG9uJywgJy1waCcsICc3LjAnLCAnLXRuJywgJzgnLCAnLW1hJywgJzIwMCcsICctbWV0YWxfYmluZGluZycsICctaW1hZScsICc8aW5maWxlLm1hZT4nLCAnLW9tYWUnLCAnPG91dGZpbGUubWFlPic=

> <r_lp_tautomer_probability>
1

> <r_epik_Ionization_Penalty>
7.6122

> <r_epik_Ionization_Penalty_Charging>
1.53843

> <r_epik_Ionization_Penalty_Neutral>
6.07377

> <r_epik_State_Penalty>
6.07371

> <r_epik_Charging_Adjusted_Penalty>
7.61214

> <i_epik_Tot_Q>
-1

> <i_epik_Tot_abs_Q>
1

> <r_epik_Metal_State_Penalty>
2.02136

> <b_epik_Metal_Only>
1

> <s_lp_Force_Field>
OPLS_2005

> <r_lp_Energy>
41.6495

> <b_lp_Chiralities_Consistent>
1

> <s_lp_Variant>
AV-unprocessed.smi:2424-10

> <Gold.Version>
5.8.1

> <Gold.Id.Protein>
6NUR|6NUR_protein|mol2

> <Gold.PLP.Fitness>
37.4605

> <Gold.PLP.PLP>
-32.1952

> <Gold.PLP.part.hbond>
-2.0000

> <Gold.PLP.part.metal>
0.0000

> <Gold.PLP.part.buried>
-3.7499

> <Gold.PLP.part.nonpolar>
-27.7723

> <Gold.PLP.part.repulsive>
0.2549

> <Gold.PLP.ligand.clash>
0.0313

> <Gold.PLP.ligand.torsion>
0.6948

> <Gold.PLP.Chemscore.Hbond>
1.9920

> <Gold.PLP.Chemscore.CHOScore>
0.0000

> <Gold.PLP.Chemscore.Metal>
0.0000

> <Gold.Chemscore.Hbonds>
donor molecule, donor type, donor heavy atom, donor atom, acceptor molecule, acceptor atom, score
      L1  H     7    35       P1  7948  1.00
      L1  H    10    36       P1  7948  1.00

> <Gold.PLP.Chemscore.Internal.Correction>
0.7103

> <Gold.Rescore>
     Score         DG    S(hbond)    S(metal)    S(lipo)     H(rot)  DE(clash)    DE(int)     intcor
     12.65     -15.61       1.41        0.00      79.55       1.52       0.04       2.92       ----

> <Gold.Chemscore.Fitness>
12.6511

> <Gold.Chemscore.DG>
-15.6145

> <Gold.Chemscore.ZeroCoef>
-5.4800

> <Gold.Chemscore.Hbond>
1.4128

> <Gold.Chemscore.Metal>
0.0000

> <Gold.Chemscore.Lipo>
79.5548

> <Gold.Chemscore.Internal_Hbond>
0.0000

> <Gold.Chemscore.DEClash>
0.0391

> <Gold.Chemscore.DEInternal>
2.9242

> <Gold.Chemscore.Rot>
1.5204

> <Gold.Chemscore.Internal.Correction>
   9.000000E+99

> <Gold.Chemscore.Hbonds>
donor molecule, donor type, donor heavy atom, donor atom, acceptor molecule, acceptor atom, score
      L1  H     7    35       P1  7948  0.48
      L1  H    10    36       P1  7948  0.45

> <Gold.Chemscore.Hbond.Weighted>
-4.7188

> <Gold.Chemscore.Metal.Weighted>
-0.0000

> <Gold.Chemscore.Lipo.Weighted>
-9.3079

> <Gold.Chemscore.Internal_Hbond.Weighted>
0.0000

> <Gold.Chemscore.DEClash.Weighted>
0.0391

> <Gold.Chemscore.DEInternal.Weighted>
2.9242

> <Gold.Chemscore.Rot.Weighted>
3.8922

> <Gold.Chemscore.Internal.Correction.Weighted>
   9.000000E+99

> <Gold.Protein.RotatedTorsions>
[ 6907 6896 6895 6894 ] final   16.74 input  -60.11 | X-H torsion
[ 7974 7965 7964 7962 ] final   32.76 input  175.53 | X-H torsion
[ 8008 7997 7996 7995 ] final   21.12 input   59.86 | X-H torsion
[ 10167 10162 10161 10158 ] final  126.52 input  -65.29 | X-H torsion
[ 10718 10713 10712 10709 ] final  137.77 input   66.30 | X-H torsion
[ 10763 10752 10751 10750 ] final  110.22 input  -60.55 | X-H torsion
[ 11005 11000 10999 10996 ] final  -98.89 input  -57.11 | X-H torsion

> <Gold.Protein.ActiveResidues>
 VAL166  LYS551  ARG553  GLY616  TRP617  ASP618  TYR619  PRO620  LYS621  CYS622 
 ASP623  PHE694  ASN695  SER759  ASP760  ASP761  ALA762  ILE779  LEU786  VAL792 
 PHE793  MET794  SER795  GLU796  ALA797  LYS798  CYS799  TRP800  GLU811  SER814 

> <Gold.Protein.RotatedAtoms>
  151.8386  135.0598  160.0445 H   0  0  0  0  0  0  0  0  0  0  0  0  # atno 6907 bound_to 6896
  152.2826  133.5480  159.5515 H   0  0  0  0  0  0  0  0  0  0  0  0  # atno 6908 bound_to 6896
  150.7196  134.0458  159.3823 H   0  0  0  0  0  0  0  0  0  0  0  0  # atno 6909 bound_to 6896
  146.1465  139.6485  142.9127 H   0  0  0  0  0  0  0  0  0  0  0  0  # atno 7974 bound_to 7965
  154.9458  140.3059  155.5099 H   0  0  0  0  0  0  0  0  0  0  0  0  # atno 8008 bound_to 7997
  156.2992  140.2328  156.4468 H   0  0  0  0  0  0  0  0  0  0  0  0  # atno 8009 bound_to 7997
  154.8102  140.0429  157.1325 H   0  0  0  0  0  0  0  0  0  0  0  0  # atno 8010 bound_to 7997
  139.5627  144.6892  151.3998 H   0  0  0  0  0  0  0  0  0  0  0  0  # atno 10167 bound_to 10162
  157.4325  131.1050  151.0234 H   0  0  0  0  0  0  0  0  0  0  0  0  # atno 10718 bound_to 10713
  153.4459  135.3755  155.2255 H   0  0  0  0  0  0  0  0  0  0  0  0  # atno 10763 bound_to 10752
  154.8755  135.3874  154.4097 H   0  0  0  0  0  0  0  0  0  0  0  0  # atno 10764 bound_to 10752
  153.4649  135.7087  153.6091 H   0  0  0  0  0  0  0  0  0  0  0  0  # atno 10765 bound_to 10752
  141.1328  133.8279  157.0899 H   0  0  0  0  0  0  0  0  0  0  0  0  # atno 11005 bound_to 11000
  145.4924  141.0438  143.2586 LP  0  0  0  0  0  0  0  0  0  0  0  0  # atno 17320 bound_to 7965
  144.7853  139.6440  143.7137 LP  0  0  0  0  0  0  0  0  0  0  0  0  # atno 17321 bound_to 7965
  140.6908  143.7866  150.7252 LP  0  0  0  0  0  0  0  0  0  0  0  0  # atno 17342 bound_to 10162
  140.1348  143.4494  152.2231 LP  0  0  0  0  0  0  0  0  0  0  0  0  # atno 17343 bound_to 10162
  157.1126  130.6028  149.5485 LP  0  0  0  0  0  0  0  0  0  0  0  0  # atno 17370 bound_to 10713
  155.9918  130.4974  150.7315 LP  0  0  0  0  0  0  0  0  0  0  0  0  # atno 17371 bound_to 10713
  140.0399  134.9860  157.0941 LP  0  0  0  0  0  0  0  0  0  0  0  0  # atno 17394 bound_to 11000
  140.4152  134.1939  155.7163 LP  0  0  0  0  0  0  0  0  0  0  0  0  # atno 17395 bound_to 11000

$$$$
