AV-unprocessed.smi:2636|AV-procd|sdf|10259|dock7
  -GOLD-   2272014273D 1   1.00000     0.00000
 Structure written by MMmdl.
 35 36  0  0  0  0  0  0  0  0  2 V2000
  148.9403  141.3002  155.7723 C   0  0  0  0  0  0  0  0  0  0  0  0
  149.6772  139.9841  155.6015 C   0  0  0  0  0  0  0  0  0  0  0  0
  150.9510  139.8040  156.0077 C   0  0  0  0  0  0  0  0  0  0  0  0
  151.6220  138.5808  155.8473 N   0  0  0  0  0  0  0  0  0  0  0  0
  152.9740  138.4528  156.3636 C   0  0  0  0  0  0  0  0  0  0  0  0
  152.9112  138.1879  157.7264 O   0  0  0  0  0  0  0  0  0  0  0  0
  153.7389  139.0434  158.4983 C   0  0  0  0  0  0  0  0  0  0  0  0
  153.1685  140.4450  158.6047 C   0  0  0  0  0  0  0  0  0  0  0  0
  153.3155  141.2668  159.6616 C   0  0  0  0  0  0  0  0  0  0  0  0
  152.7730  142.6314  159.7941 C   0  0  0  0  0  0  0  0  0  0  0  0
  152.2954  143.3746  158.6882 C   0  0  0  0  0  0  0  0  0  0  0  0
  151.7850  144.6754  158.8660 C   0  0  0  0  0  0  0  0  0  0  0  0
  151.7437  145.2484  160.1504 C   0  0  0  0  0  0  0  0  0  0  0  0
  152.2145  144.5182  161.2573 C   0  0  0  0  0  0  0  0  0  0  0  0
  152.7261  143.2182  161.0778 C   0  0  0  0  0  0  0  0  0  0  0  0
  150.9774  137.5075  155.3003 C   0  0  0  0  0  0  0  0  0  0  0  0
  151.5719  136.4329  155.2032 O   0  0  0  0  0  0  0  0  0  0  0  0
  149.6879  137.6698  154.8724 N   0  5  0  0  0  0  0  0  0  0  0  0
  148.9978  138.8427  154.9828 C   0  0  0  0  0  0  0  0  0  0  0  0
  147.8397  138.9657  154.5851 O   0  0  0  0  0  0  0  0  0  0  0  0
  149.5794  142.0523  156.2355 H   0  0  0  0  0  0  0  0  0  0  0  0
  148.0624  141.1650  156.4050 H   0  0  0  0  0  0  0  0  0  0  0  0
  148.6131  141.6826  154.8051 H   0  0  0  0  0  0  0  0  0  0  0  0
  151.5286  140.5826  156.4840 H   0  0  0  0  0  0  0  0  0  0  0  0
  153.4816  137.6468  155.8291 H   0  0  0  0  0  0  0  0  0  0  0  0
  153.5229  139.3788  156.1845 H   0  0  0  0  0  0  0  0  0  0  0  0
  153.8553  138.6399  159.5052 H   0  0  0  0  0  0  0  0  0  0  0  0
  154.7318  139.1089  158.0514 H   0  0  0  0  0  0  0  0  0  0  0  0
  152.6069  140.7646  157.7406 H   0  0  0  0  0  0  0  0  0  0  0  0
  153.8844  140.9125  160.5093 H   0  0  0  0  0  0  0  0  0  0  0  0
  152.3121  142.9641  157.6906 H   0  0  0  0  0  0  0  0  0  0  0  0
  151.4244  145.2342  158.0148 H   0  0  0  0  0  0  0  0  0  0  0  0
  151.3519  146.2458  160.2860 H   0  0  0  0  0  0  0  0  0  0  0  0
  152.1849  144.9549  162.2445 H   0  0  0  0  0  0  0  0  0  0  0  0
  153.0850  142.6702  161.9372 H   0  0  0  0  0  0  0  0  0  0  0  0
  1  2  1  0  0  0  0
  1 21  1  0  0  0  0
  1 22  1  0  0  0  0
  1 23  1  0  0  0  0
  2 19  1  0  0  0  0
  2  3  2  0  0  0  0
  3  4  1  0  0  0  0
  3 24  1  0  0  0  0
  4  5  1  0  0  0  0
  4 16  1  0  0  0  0
  5  6  1  0  0  0  0
  5 25  1  0  0  0  0
  5 26  1  0  0  0  0
  6  7  1  0  0  0  0
  7  8  1  0  0  0  0
  7 27  1  0  0  0  0
  7 28  1  0  0  0  0
  8  9  2  0  0  0  0
  8 29  1  0  0  0  0
  9 10  1  0  0  0  0
  9 30  1  0  0  0  0
 10 15  1  0  0  0  0
 10 11  2  0  0  0  0
 11 12  1  0  0  0  0
 11 31  1  0  0  0  0
 12 13  2  0  0  0  0
 12 32  1  0  0  0  0
 13 14  1  0  0  0  0
 13 33  1  0  0  0  0
 14 15  2  0  0  0  0
 14 34  1  0  0  0  0
 15 35  1  0  0  0  0
 16 17  2  0  0  0  0
 16 18  1  0  0  0  0
 18 19  1  0  0  0  0
 19 20  2  0  0  0  0
M  CHG  1  18  -1
M  END
> <s_m_source_file>
AV-unprocessed.smi

> <i_m_source_file_index>
2636

> <i_lp_mmshare_version>
43012

> <i_f3d_flags>
0

> <s_epik_input>
Tz1jMVtuSF1jKD1PKW4oW2NIXWMxW0NIM10pW0NIMl1PW0NIMl0vW0NIXT1bQ0hdL2MyW2NIXVtjSF1bY0hdW2NIXVtjSF0y

> <s_epik_cmdline>
J2VwaWtfcHl0aG9uJywgJy1waCcsICc3LjAnLCAnLXRuJywgJzgnLCAnLW1hJywgJzIwMCcsICctbWV0YWxfYmluZGluZycsICctaW1hZScsICc8aW5maWxlLm1hZT4nLCAnLW9tYWUnLCAnPG91dGZpbGUubWFlPic=

> <r_lp_tautomer_probability>
0.999537

> <r_epik_Ionization_Penalty>
3.43625

> <r_epik_Ionization_Penalty_Charging>
7.29021e-08

> <r_epik_Ionization_Penalty_Neutral>
3.43625

> <r_epik_State_Penalty>
3.43567

> <r_epik_Charging_Adjusted_Penalty>
3.43567

> <i_epik_Tot_Q>
-1

> <i_epik_Tot_abs_Q>
1

> <r_epik_Metal_State_Penalty>
0.168611

> <b_epik_Metal_Only>
1

> <s_epik_Chemistry_Notes>
This compound contains an acetal/aminal-like group ( X-CH(R)-Y where X, Y are N, S, or O) that may be acid/base labile, releasing an aldehyde.

> <s_lp_Force_Field>
OPLS_2005

> <r_lp_Energy>
15.3134

> <b_lp_Chiralities_Consistent>
1

> <s_lp_Variant>
AV-unprocessed.smi:2636-3

> <Gold.Version>
5.8.1

> <Gold.Id.Protein>
6NUR|6NUR_protein|mol2

> <Gold.PLP.Fitness>
46.6277

> <Gold.PLP.PLP>
-45.5299

> <Gold.PLP.part.hbond>
-1.0000

> <Gold.PLP.part.metal>
0.0000

> <Gold.PLP.part.buried>
-3.5755

> <Gold.PLP.part.nonpolar>
-42.7246

> <Gold.PLP.part.repulsive>
1.4940

> <Gold.PLP.ligand.clash>
0.0000

> <Gold.PLP.ligand.torsion>
0.9720

> <Gold.PLP.Chemscore.Hbond>
1.0000

> <Gold.PLP.Chemscore.CHOScore>
0.0000

> <Gold.PLP.Chemscore.Metal>
0.0000

> <Gold.Chemscore.Hbonds>
donor molecule, donor type, donor heavy atom, donor atom, acceptor molecule, acceptor atom, score
      P1  H 10752 10763       L1    17  1.00

> <Gold.PLP.Chemscore.Internal.Correction>
0.0417

> <Gold.Rescore>
     Score         DG    S(hbond)    S(metal)    S(lipo)     H(rot)  DE(clash)    DE(int)     intcor
     16.49     -17.52       1.00        0.00     115.54       1.88       0.09       0.93       ----

> <Gold.Chemscore.Fitness>
16.4936

> <Gold.Chemscore.DG>
-17.5155

> <Gold.Chemscore.ZeroCoef>
-5.4800

> <Gold.Chemscore.Hbond>
0.9972

> <Gold.Chemscore.Metal>
0.0000

> <Gold.Chemscore.Lipo>
115.5355

> <Gold.Chemscore.Internal_Hbond>
0.0000

> <Gold.Chemscore.DEClash>
0.0904

> <Gold.Chemscore.DEInternal>
0.9315

> <Gold.Chemscore.Rot>
1.8800

> <Gold.Chemscore.Internal.Correction>
   9.000000E+99

> <Gold.Chemscore.Hbonds>
donor molecule, donor type, donor heavy atom, donor atom, acceptor molecule, acceptor atom, score
      P1  H 10752 10763       L1    17  1.00

> <Gold.Chemscore.Hbond.Weighted>
-3.3307

> <Gold.Chemscore.Metal.Weighted>
-0.0000

> <Gold.Chemscore.Lipo.Weighted>
-13.5177

> <Gold.Chemscore.Internal_Hbond.Weighted>
0.0000

> <Gold.Chemscore.DEClash.Weighted>
0.0904

> <Gold.Chemscore.DEInternal.Weighted>
0.9315

> <Gold.Chemscore.Rot.Weighted>
4.8129

> <Gold.Chemscore.Internal.Correction.Weighted>
   9.000000E+99

> <Gold.Protein.RotatedTorsions>
[ 6907 6896 6895 6894 ] final   21.33 input  -60.11 | X-H torsion
[ 7974 7965 7964 7962 ] final  -39.95 input  175.53 | X-H torsion
[ 8008 7997 7996 7995 ] final   81.87 input   59.86 | X-H torsion
[ 10167 10162 10161 10158 ] final  -48.87 input  -65.29 | X-H torsion
[ 10718 10713 10712 10709 ] final  173.03 input   66.30 | X-H torsion
[ 10763 10752 10751 10750 ] final   62.97 input  -60.55 | X-H torsion
[ 11005 11000 10999 10996 ] final  106.72 input  -57.11 | X-H torsion

> <Gold.Protein.ActiveResidues>
 VAL166  LYS551  ARG553  GLY616  TRP617  ASP618  TYR619  PRO620  LYS621  CYS622 
 ASP623  PHE694  ASN695  SER759  ASP760  ASP761  ALA762  ILE779  LEU786  VAL792 
 PHE793  MET794  SER795  GLU796  ALA797  LYS798  CYS799  TRP800  GLU811  SER814 

> <Gold.Protein.RotatedAtoms>
  151.9101  135.0342  160.0513 H   0  0  0  0  0  0  0  0  0  0  0  0  # atno 6907 bound_to 6896
  152.2287  133.5036  159.5211 H   0  0  0  0  0  0  0  0  0  0  0  0  # atno 6908 bound_to 6896
  150.7019  134.1162  159.4061 H   0  0  0  0  0  0  0  0  0  0  0  0  # atno 6909 bound_to 6896
  146.0349  140.6684  142.9115 H   0  0  0  0  0  0  0  0  0  0  0  0  # atno 7974 bound_to 7965
  155.9030  140.3432  155.6040 H   0  0  0  0  0  0  0  0  0  0  0  0  # atno 8008 bound_to 7997
  155.7478  140.0816  157.2234 H   0  0  0  0  0  0  0  0  0  0  0  0  # atno 8009 bound_to 7997
  154.4046  140.1559  156.2676 H   0  0  0  0  0  0  0  0  0  0  0  0  # atno 8010 bound_to 7997
  140.6711  143.2721  151.4133 H   0  0  0  0  0  0  0  0  0  0  0  0  # atno 10167 bound_to 10162
  156.9703  131.0088  151.2907 H   0  0  0  0  0  0  0  0  0  0  0  0  # atno 10718 bound_to 10713
  153.0001  135.5446  154.6278 H   0  0  0  0  0  0  0  0  0  0  0  0  # atno 10763 bound_to 10752
  154.5562  135.2830  155.0964 H   0  0  0  0  0  0  0  0  0  0  0  0  # atno 10764 bound_to 10752
  154.2184  135.6455  153.5189 H   0  0  0  0  0  0  0  0  0  0  0  0  # atno 10765 bound_to 10752
  139.8818  134.9378  156.5709 H   0  0  0  0  0  0  0  0  0  0  0  0  # atno 11005 bound_to 11000
  144.7047  140.3802  143.7128 LP  0  0  0  0  0  0  0  0  0  0  0  0  # atno 17320 bound_to 7965
  145.6980  139.1654  143.2609 LP  0  0  0  0  0  0  0  0  0  0  0  0  # atno 17321 bound_to 7965
  139.5980  144.1356  152.2166 LP  0  0  0  0  0  0  0  0  0  0  0  0  # atno 17342 bound_to 10162
  140.0731  144.5763  150.7177 LP  0  0  0  0  0  0  0  0  0  0  0  0  # atno 17343 bound_to 10162
  157.5597  130.8237  149.8250 LP  0  0  0  0  0  0  0  0  0  0  0  0  # atno 17370 bound_to 10713
  156.0285  130.3772  150.1753 LP  0  0  0  0  0  0  0  0  0  0  0  0  # atno 17371 bound_to 10713
  140.8099  133.8438  155.8800 LP  0  0  0  0  0  0  0  0  0  0  0  0  # atno 17394 bound_to 11000
  140.9516  134.1771  157.4723 LP  0  0  0  0  0  0  0  0  0  0  0  0  # atno 17395 bound_to 11000

$$$$
