AV-unprocessed.smi:1703|AV-procd|sdf|6879|dock3
  -GOLD-   22720 8 83D 1   1.00000     0.00000
 Structure written by MMmdl.
 50 52  0  0  0  0  0  0  0  0  3 V2000
  148.8131  132.2843  154.0957 C   0  0  0  0  0  0  0  0  0  0  0  0
  148.6220  133.8047  154.0769 C   0  0  2  0  0  0  0  0  0  0  0  0
  149.7589  134.5420  154.8099 C   0  0  0  0  0  0  0  0  0  0  0  0
  149.4985  136.0028  154.8360 N   0  3  2  0  0  0  0  0  0  0  0  0
  150.5750  136.7930  155.4877 C   0  0  0  0  0  0  0  0  0  0  0  0
  150.1162  138.1987  155.9266 C   0  0  1  0  0  0  0  0  0  0  0  0
  149.6561  138.1432  157.2634 O   0  0  0  0  0  0  0  0  0  0  0  0
  151.2670  139.2213  155.8349 C   0  0  0  0  0  0  0  0  0  0  0  0
  150.8527  140.5876  156.1937 N   0  0  0  0  0  0  0  0  0  0  0  0
  149.9708  141.4410  155.5935 C   0  0  0  0  0  0  0  0  0  0  0  0
  149.1701  141.1939  154.3574 C   0  0  0  0  0  0  0  0  0  0  0  0
  148.6213  142.3801  153.8287 O   0  0  0  0  0  0  0  0  0  0  0  0
  149.9574  142.5890  156.3282 N   0  3  0  0  0  0  0  0  0  0  0  0
  150.8306  142.4699  157.4094 C   0  0  0  0  0  0  0  0  0  0  0  0
  151.1530  143.3654  158.4244 C   0  0  0  0  0  0  0  0  0  0  0  0
  152.0896  142.9253  159.3827 C   0  0  0  0  0  0  0  0  0  0  0  0
  152.6675  141.6412  159.3091 C   0  0  0  0  0  0  0  0  0  0  0  0
  152.3343  140.7427  158.2741 C   0  0  0  0  0  0  0  0  0  0  0  0
  151.4072  141.1858  157.3311 C   0  0  0  0  0  0  0  0  0  0  0  0
  148.1663  136.2755  155.4253 C   0  0  0  0  0  0  0  0  0  0  0  0
  147.0717  135.4920  154.6763 C   0  0  2  0  0  0  0  0  0  0  0  0
  145.6881  135.6878  155.3051 C   0  0  0  0  0  0  0  0  0  0  0  0
  147.3857  134.1045  154.7154 O   0  0  0  0  0  0  0  0  0  0  0  0
  149.7418  131.9986  153.6011 H   0  0  0  0  0  0  0  0  0  0  0  0
  147.9944  131.7822  153.5795 H   0  0  0  0  0  0  0  0  0  0  0  0
  148.8461  131.9025  155.1166 H   0  0  0  0  0  0  0  0  0  0  0  0
  148.5787  134.1352  153.0376 H   0  0  0  0  0  0  0  0  0  0  0  0
  149.8492  134.1705  155.8322 H   0  0  0  0  0  0  0  0  0  0  0  0
  150.7030  134.3307  154.3096 H   0  0  0  0  0  0  0  0  0  0  0  0
  150.9387  136.2585  156.3669 H   0  0  0  0  0  0  0  0  0  0  0  0
  151.4237  136.8659  154.8057 H   0  0  0  0  0  0  0  0  0  0  0  0
  149.2950  138.5446  155.3006 H   0  0  0  0  0  0  0  0  0  0  0  0
  148.7910  138.5211  157.3066 H   0  0  0  0  0  0  0  0  0  0  0  0
  152.0861  138.9317  156.4934 H   0  0  0  0  0  0  0  0  0  0  0  0
  151.6848  139.2462  154.8274 H   0  0  0  0  0  0  0  0  0  0  0  0
  149.7905  140.7127  153.6017 H   0  0  0  0  0  0  0  0  0  0  0  0
  148.3580  140.5037  154.5868 H   0  0  0  0  0  0  0  0  0  0  0  0
  148.8808  143.1022  154.3813 H   0  0  0  0  0  0  0  0  0  0  0  0
  150.7114  144.3495  158.4831 H   0  0  0  0  0  0  0  0  0  0  0  0
  152.3698  143.5858  160.1907 H   0  0  0  0  0  0  0  0  0  0  0  0
  153.3810  141.3392  160.0622 H   0  0  0  0  0  0  0  0  0  0  0  0
  152.7832  139.7616  158.2273 H   0  0  0  0  0  0  0  0  0  0  0  0
  148.1728  136.0013  156.4817 H   0  0  0  0  0  0  0  0  0  0  0  0
  147.9524  137.3437  155.3718 H   0  0  0  0  0  0  0  0  0  0  0  0
  147.0295  135.8217  153.6366 H   0  0  0  0  0  0  0  0  0  0  0  0
  145.3961  136.7384  155.2932 H   0  0  0  0  0  0  0  0  0  0  0  0
  145.6722  135.3476  156.3412 H   0  0  0  0  0  0  0  0  0  0  0  0
  144.9293  135.1269  154.7592 H   0  0  0  0  0  0  0  0  0  0  0  0
  149.4494  136.3152  153.8769 H   0  0  0  0  0  0  0  0  0  0  0  0
  149.3903  143.3958  156.1014 H   0  0  0  0  0  0  0  0  0  0  0  0
  1  2  1  0  0  0  0
  1 24  1  0  0  0  0
  1 25  1  0  0  0  0
  1 26  1  0  0  0  0
  2 23  1  0  0  0  0
  2  3  1  0  0  0  0
  2 27  1  0  0  0  0
  3  4  1  0  0  0  0
  3 28  1  0  0  0  0
  3 29  1  0  0  0  0
  4  5  1  0  0  0  0
  4 20  1  0  0  0  0
  4 49  1  0  0  0  0
  5  6  1  0  0  0  0
  5 30  1  0  0  0  0
  5 31  1  0  0  0  0
  6  7  1  0  0  0  0
  6  8  1  0  0  0  0
  6 32  1  0  0  0  0
  7 33  1  0  0  0  0
  8  9  1  0  0  0  0
  8 34  1  0  0  0  0
  8 35  1  0  0  0  0
  9 19  1  0  0  0  0
  9 10  1  0  0  0  0
 10 11  1  0  0  0  0
 10 13  2  0  0  0  0
 11 12  1  0  0  0  0
 11 36  1  0  0  0  0
 11 37  1  0  0  0  0
 12 38  1  0  0  0  0
 13 14  1  0  0  0  0
 13 50  1  0  0  0  0
 14 19  2  0  0  0  0
 14 15  1  0  0  0  0
 15 16  2  0  0  0  0
 15 39  1  0  0  0  0
 16 17  1  0  0  0  0
 16 40  1  0  0  0  0
 17 18  2  0  0  0  0
 17 41  1  0  0  0  0
 18 19  1  0  0  0  0
 18 42  1  0  0  0  0
 20 21  1  0  0  0  0
 20 43  1  0  0  0  0
 20 44  1  0  0  0  0
 21 22  1  0  0  0  0
 21 23  1  0  0  0  0
 21 45  1  0  0  0  0
 22 46  1  0  0  0  0
 22 47  1  0  0  0  0
 22 48  1  0  0  0  0
M  CHG  1   4   1
M  CHG  1  13   1
M  END
> <s_m_source_file>
AV-unprocessed.smi

> <i_m_source_file_index>
1703

> <i_lp_mmshare_version>
43012

> <i_f3d_flags>
0

> <s_epik_input>
W0NIM11bQ0BASF0xW0NIMl1OKFtDSDJdW0NASF0oTzEpW0NIM10pW0NIMl1bQ0BIXShbT0hdKVtDSDJdbihjKG4yKVtDSDJdW09IXSljKGMyMylbY0hdW2NIXVtjSF1bY0hdMw==

> <s_epik_cmdline>
J2VwaWtfcHl0aG9uJywgJy1waCcsICc3LjAnLCAnLXRuJywgJzgnLCAnLW1hJywgJzIwMCcsICctbWV0YWxfYmluZGluZycsICctaW1hZScsICc8aW5maWxlLm1hZT4nLCAnLW9tYWUnLCAnPG91dGZpbGUubWFlPic=

> <r_epik_Ionization_Penalty>
2.22579

> <r_epik_Ionization_Penalty_Charging>
2.22492

> <r_epik_Ionization_Penalty_Neutral>
0.000870007

> <r_epik_State_Penalty>
2.3141

> <r_epik_Charging_Adjusted_Penalty>
4.53902

> <i_epik_Tot_Q>
2

> <i_epik_Tot_abs_Q>
2

> <r_epik_Metal_State_Penalty>
6.36517

> <b_epik_Metal_Only>
0

> <s_lp_Force_Field>
OPLS_2005

> <r_lp_Energy>
26.5271

> <b_lp_Chiralities_Consistent>
1

> <s_lp_Variant>
AV-unprocessed.smi:1703-27

> <Gold.Version>
5.8.1

> <Gold.Id.Protein>
6NUR|6NUR_protein|mol2

> <Gold.PLP.Fitness>
54.1236

> <Gold.PLP.PLP>
-40.1549

> <Gold.PLP.part.hbond>
-4.0000

> <Gold.PLP.part.metal>
0.0000

> <Gold.PLP.part.buried>
-4.2547

> <Gold.PLP.part.nonpolar>
-32.5815

> <Gold.PLP.part.repulsive>
0.1774

> <Gold.PLP.ligand.clash>
0.0000

> <Gold.PLP.ligand.torsion>
0.8426

> <Gold.PLP.Chemscore.Hbond>
5.1556

> <Gold.PLP.Chemscore.CHOScore>
0.0000

> <Gold.PLP.Chemscore.Metal>
0.0000

> <Gold.Chemscore.Hbonds>
donor molecule, donor type, donor heavy atom, donor atom, acceptor molecule, acceptor atom, score
      L1  H     4    49       P1  7948  1.92
      L1  H    12    38       P1  8028  0.99
      L1  H    13    50       P1  8028  1.76
      P1  H  8011  8017       L1    12  0.16

> <Gold.PLP.Chemscore.Internal.Correction>
0.1871

> <Gold.Rescore>
     Score         DG    S(hbond)    S(metal)    S(lipo)     H(rot)  DE(clash)    DE(int)     intcor
     16.64     -18.19       2.86        0.00      93.39       3.04       0.15       1.40       ----

> <Gold.Chemscore.Fitness>
16.6420

> <Gold.Chemscore.DG>
-18.1938

> <Gold.Chemscore.ZeroCoef>
-5.4800

> <Gold.Chemscore.Hbond>
2.8633

> <Gold.Chemscore.Metal>
0.0000

> <Gold.Chemscore.Lipo>
93.3945

> <Gold.Chemscore.Internal_Hbond>
0.0000

> <Gold.Chemscore.DEClash>
0.1474

> <Gold.Chemscore.DEInternal>
1.4045

> <Gold.Chemscore.Rot>
3.0378

> <Gold.Chemscore.Internal.Correction>
   9.000000E+99

> <Gold.Chemscore.Hbonds>
donor molecule, donor type, donor heavy atom, donor atom, acceptor molecule, acceptor atom, score
      L1  H     4    49       P1  7948  0.70
      L1  H    12    38       P1  8028  0.92
      L1  H    13    50       P1  8028  0.86
      P1  H  8011  8017       L1    12  0.01

> <Gold.Chemscore.Hbond.Weighted>
-9.5634

> <Gold.Chemscore.Metal.Weighted>
-0.0000

> <Gold.Chemscore.Lipo.Weighted>
-10.9272

> <Gold.Chemscore.Internal_Hbond.Weighted>
0.0000

> <Gold.Chemscore.DEClash.Weighted>
0.1474

> <Gold.Chemscore.DEInternal.Weighted>
1.4045

> <Gold.Chemscore.Rot.Weighted>
7.7767

> <Gold.Chemscore.Internal.Correction.Weighted>
   9.000000E+99

> <Gold.Protein.RotatedTorsions>
[ 6907 6896 6895 6894 ] final  -37.28 input  -60.11 | X-H torsion
[ 7974 7965 7964 7962 ] final  128.92 input  175.53 | X-H torsion
[ 8008 7997 7996 7995 ] final  -28.96 input   59.86 | X-H torsion
[ 10167 10162 10161 10158 ] final  149.11 input  -65.29 | X-H torsion
[ 10718 10713 10712 10709 ] final -132.79 input   66.30 | X-H torsion
[ 10763 10752 10751 10750 ] final   33.82 input  -60.55 | X-H torsion
[ 11005 11000 10999 10996 ] final  113.45 input  -57.11 | X-H torsion

> <Gold.Protein.ActiveResidues>
 VAL166  LYS551  ARG553  GLY616  TRP617  ASP618  TYR619  PRO620  LYS621  CYS622 
 ASP623  PHE694  ASN695  SER759  ASP760  ASP761  ALA762  ILE779  LEU786  VAL792 
 PHE793  MET794  SER795  GLU796  ALA797  LYS798  CYS799  TRP800  GLU811  SER814 

> <Gold.Protein.RotatedAtoms>
  151.0167  134.9438  159.8036 H   0  0  0  0  0  0  0  0  0  0  0  0  # atno 6907 bound_to 6896
  152.5315  134.2957  159.9070 H   0  0  0  0  0  0  0  0  0  0  0  0  # atno 6908 bound_to 6896
  151.2964  133.4100  159.2671 H   0  0  0  0  0  0  0  0  0  0  0  0  # atno 6909 bound_to 6896
  145.0343  139.4019  143.5134 H   0  0  0  0  0  0  0  0  0  0  0  0  # atno 7974 bound_to 7965
  154.4310  140.1831  156.1173 H   0  0  0  0  0  0  0  0  0  0  0  0  # atno 8008 bound_to 7997
  156.0171  140.3344  155.6975 H   0  0  0  0  0  0  0  0  0  0  0  0  # atno 8009 bound_to 7997
  155.6029  140.0642  157.2718 H   0  0  0  0  0  0  0  0  0  0  0  0  # atno 8010 bound_to 7997
  139.4866  144.5627  151.7201 H   0  0  0  0  0  0  0  0  0  0  0  0  # atno 10167 bound_to 10162
  156.2382  130.7079  151.0930 H   0  0  0  0  0  0  0  0  0  0  0  0  # atno 10718 bound_to 10713
  153.0193  135.6377  154.1572 H   0  0  0  0  0  0  0  0  0  0  0  0  # atno 10763 bound_to 10752
  154.1308  135.2840  155.3187 H   0  0  0  0  0  0  0  0  0  0  0  0  # atno 10764 bound_to 10752
  154.6196  135.5529  153.7622 H   0  0  0  0  0  0  0  0  0  0  0  0  # atno 10765 bound_to 10752
  139.8953  134.9550  156.6741 H   0  0  0  0  0  0  0  0  0  0  0  0  # atno 11005 bound_to 11000
  146.3502  139.9909  142.8686 LP  0  0  0  0  0  0  0  0  0  0  0  0  # atno 17320 bound_to 7965
  145.1730  140.9730  143.4310 LP  0  0  0  0  0  0  0  0  0  0  0  0  # atno 17321 bound_to 7965
  140.5200  144.0894  150.6020 LP  0  0  0  0  0  0  0  0  0  0  0  0  # atno 17342 bound_to 10162
  140.3848  143.2783  152.0128 LP  0  0  0  0  0  0  0  0  0  0  0  0  # atno 17343 bound_to 10162
  157.7164  131.0707  150.6311 LP  0  0  0  0  0  0  0  0  0  0  0  0  # atno 17370 bound_to 10713
  156.6383  130.4451  149.5762 LP  0  0  0  0  0  0  0  0  0  0  0  0  # atno 17371 bound_to 10713
  140.7350  133.9026  155.8238 LP  0  0  0  0  0  0  0  0  0  0  0  0  # atno 17394 bound_to 11000
  141.0123  134.1003  157.4208 LP  0  0  0  0  0  0  0  0  0  0  0  0  # atno 17395 bound_to 11000

$$$$
