AV-unprocessed.smi:2684|AV-procd|sdf|10381|dock7
  -GOLD-   2272014413D 1   1.00000     0.00000
 Structure written by MMmdl.
 44 45  0  0  0  0  0  0  0  0  1 V2000
  143.8993  132.4227  149.3279 C   0  0  0  0  0  0  0  0  0  0  0  0
  144.8932  133.0074  150.2899 C   0  0  0  0  0  0  0  0  0  0  0  0
  146.3095  132.8632  150.2766 C   0  0  0  0  0  0  0  0  0  0  0  0
  146.9022  133.5137  151.2646 N   0  0  0  0  0  0  0  0  0  0  0  0
  145.8878  134.0825  151.9509 N   0  0  0  0  0  0  0  0  0  0  0  0
  146.1686  134.8953  153.1216 C   0  0  0  0  0  0  0  0  0  0  0  0
  147.2503  134.3024  154.0551 C   0  0  1  0  0  0  0  0  0  0  0  0
  146.9032  132.8553  154.4321 C   0  0  0  0  0  0  0  0  0  0  0  0
  148.5560  134.2703  153.4006 N   0  0  0  0  0  0  0  0  0  0  0  0
  149.6502  133.9322  154.3219 C   0  0  0  0  0  0  0  0  0  0  0  0
  150.2790  135.1623  154.9935 C   0  0  0  0  0  0  0  0  0  0  0  0
  151.3144  135.0517  155.6488 O   0  0  0  0  0  0  0  0  0  0  0  0
  149.6784  136.3568  154.8555 N   0  0  0  0  0  0  0  0  0  0  0  0
  150.1116  137.6382  155.4104 C   0  0  0  0  0  0  0  0  0  0  0  0
  149.2949  138.7943  154.8085 C   0  0  0  0  0  0  0  0  0  0  0  0
  149.8480  140.1486  155.2793 C   0  0  0  0  0  0  0  0  0  0  0  0
  151.2264  140.2568  154.9389 O   0  0  0  0  0  0  0  0  0  0  0  0
  152.0348  139.2672  155.5669 C   0  0  0  0  0  0  0  0  0  0  0  0
  151.6005  137.8643  155.1105 C   0  0  0  0  0  0  0  0  0  0  0  0
  144.6653  133.7995  151.3795 C   0  0  0  0  0  0  0  0  0  0  0  0
  144.2142  132.5577  148.2931 H   0  0  0  0  0  0  0  0  0  0  0  0
  142.9173  132.8854  149.4275 H   0  0  0  0  0  0  0  0  0  0  0  0
  143.7670  131.3529  149.4867 H   0  0  0  0  0  0  0  0  0  0  0  0
  146.9212  132.3111  149.5784 H   0  0  0  0  0  0  0  0  0  0  0  0
  146.4858  135.8769  152.7672 H   0  0  0  0  0  0  0  0  0  0  0  0
  145.2382  135.0547  153.6686 H   0  0  0  0  0  0  0  0  0  0  0  0
  147.3009  134.8734  154.9838 H   0  0  0  0  0  0  0  0  0  0  0  0
  145.9444  132.8061  154.9492 H   0  0  0  0  0  0  0  0  0  0  0  0
  147.6548  132.4293  155.0978 H   0  0  0  0  0  0  0  0  0  0  0  0
  146.8369  132.2161  153.5507 H   0  0  0  0  0  0  0  0  0  0  0  0
  148.7206  135.1438  152.9216 H   0  0  0  0  0  0  0  0  0  0  0  0
  149.2812  133.2605  155.0929 H   0  0  0  0  0  0  0  0  0  0  0  0
  150.4333  133.4046  153.7756 H   0  0  0  0  0  0  0  0  0  0  0  0
  148.8257  136.3757  154.3148 H   0  0  0  0  0  0  0  0  0  0  0  0
  149.9920  137.6422  156.4948 H   0  0  0  0  0  0  0  0  0  0  0  0
  149.3355  138.7501  153.7193 H   0  0  0  0  0  0  0  0  0  0  0  0
  148.2441  138.7069  155.0825 H   0  0  0  0  0  0  0  0  0  0  0  0
  149.3039  140.9624  154.8002 H   0  0  0  0  0  0  0  0  0  0  0  0
  149.7159  140.2685  156.3557 H   0  0  0  0  0  0  0  0  0  0  0  0
  153.0769  139.4424  155.2990 H   0  0  0  0  0  0  0  0  0  0  0  0
  151.9658  139.3621  156.6516 H   0  0  0  0  0  0  0  0  0  0  0  0
  152.2065  137.1057  155.6071 H   0  0  0  0  0  0  0  0  0  0  0  0
  151.7857  137.7621  154.0402 H   0  0  0  0  0  0  0  0  0  0  0  0
  143.7428  134.1796  151.7931 H   0  0  0  0  0  0  0  0  0  0  0  0
  1  2  1  0  0  0  0
  1 21  1  0  0  0  0
  1 22  1  0  0  0  0
  1 23  1  0  0  0  0
  2 20  2  0  0  0  0
  2  3  1  0  0  0  0
  3  4  2  0  0  0  0
  3 24  1  0  0  0  0
  4  5  1  0  0  0  0
  5  6  1  0  0  0  0
  5 20  1  0  0  0  0
  6  7  1  0  0  0  0
  6 25  1  0  0  0  0
  6 26  1  0  0  0  0
  7  8  1  0  0  0  0
  7  9  1  0  0  0  0
  7 27  1  0  0  0  0
  8 28  1  0  0  0  0
  8 29  1  0  0  0  0
  8 30  1  0  0  0  0
  9 10  1  0  0  0  0
  9 31  1  0  0  0  0
 10 11  1  0  0  0  0
 10 32  1  0  0  0  0
 10 33  1  0  0  0  0
 11 12  2  0  0  0  0
 11 13  1  0  0  0  0
 13 14  1  0  0  0  0
 13 34  1  0  0  0  0
 14 19  1  0  0  0  0
 14 15  1  0  0  0  0
 14 35  1  0  0  0  0
 15 16  1  0  0  0  0
 15 36  1  0  0  0  0
 15 37  1  0  0  0  0
 16 17  1  0  0  0  0
 16 38  1  0  0  0  0
 16 39  1  0  0  0  0
 17 18  1  0  0  0  0
 18 19  1  0  0  0  0
 18 40  1  0  0  0  0
 18 41  1  0  0  0  0
 19 42  1  0  0  0  0
 19 43  1  0  0  0  0
 20 44  1  0  0  0  0
M  END
> <s_m_source_file>
AV-unprocessed.smi

> <i_m_source_file_index>
2684

> <i_lp_mmshare_version>
43012

> <i_f3d_flags>
0

> <s_epik_input>
W0NIM11jMVtjSF1ubihbY0hdMSlbQ0gyXVtDQEhdKFtDSDNdKVtOSF1bQ0gyXUMoPU8pW05IXVtDSF0yW0NIMl1bQ0gyXU9bQ0gyXVtDSDJdMg==

> <s_epik_cmdline>
J2VwaWtfcHl0aG9uJywgJy1waCcsICc3LjAnLCAnLXRuJywgJzgnLCAnLW1hJywgJzIwMCcsICctbWV0YWxfYmluZGluZycsICctaW1hZScsICc8aW5maWxlLm1hZT4nLCAnLW9tYWUnLCAnPG91dGZpbGUubWFlPic=

> <r_lp_tautomer_probability>
1

> <r_epik_Ionization_Penalty>
0.968507

> <r_epik_Ionization_Penalty_Charging>
0

> <r_epik_Ionization_Penalty_Neutral>
0.968507

> <r_epik_State_Penalty>
1.01412

> <r_epik_Charging_Adjusted_Penalty>
1.01412

> <i_epik_Tot_Q>
0

> <i_epik_Tot_abs_Q>
0

> <r_epik_Metal_State_Penalty>
1.01401

> <b_epik_Metal_Only>
0

> <s_lp_Force_Field>
OPLS_2005

> <r_lp_Energy>
12.4601

> <b_lp_Chiralities_Consistent>
1

> <s_lp_Variant>
AV-unprocessed.smi:2684-4

> <Gold.Version>
5.8.1

> <Gold.Id.Protein>
6NUR|6NUR_protein|mol2

> <Gold.PLP.Fitness>
44.4122

> <Gold.PLP.PLP>
-34.7873

> <Gold.PLP.part.hbond>
-3.3921

> <Gold.PLP.part.metal>
0.0000

> <Gold.PLP.part.buried>
-3.2391

> <Gold.PLP.part.nonpolar>
-27.7391

> <Gold.PLP.part.repulsive>
0.3718

> <Gold.PLP.ligand.clash>
0.0000

> <Gold.PLP.ligand.torsion>
0.6963

> <Gold.PLP.Chemscore.Hbond>
2.6620

> <Gold.PLP.Chemscore.CHOScore>
0.9951

> <Gold.PLP.Chemscore.Metal>
0.0000

> <Gold.Chemscore.Hbonds>
donor molecule, donor type, donor heavy atom, donor atom, acceptor molecule, acceptor atom, score
      L1  H     9    31       P1  7948  0.93
      P1  H  7989  7998       L1    17  1.00
      P1  H 10752 10765       L1    12  0.93
      L1  C     3    24       P1 10747  0.76

> <Gold.PLP.Chemscore.Internal.Correction>
0.0463

> <Gold.Rescore>
     Score         DG    S(hbond)    S(metal)    S(lipo)     H(rot)  DE(clash)    DE(int)     intcor
     16.21     -18.58       2.63        0.00      80.14       1.97       0.11       2.27       ----

> <Gold.Chemscore.Fitness>
16.2060

> <Gold.Chemscore.DG>
-18.5831

> <Gold.Chemscore.ZeroCoef>
-5.4800

> <Gold.Chemscore.Hbond>
2.6286

> <Gold.Chemscore.Metal>
0.0000

> <Gold.Chemscore.Lipo>
80.1370

> <Gold.Chemscore.Internal_Hbond>
0.0000

> <Gold.Chemscore.DEClash>
0.1118

> <Gold.Chemscore.DEInternal>
2.2653

> <Gold.Chemscore.Rot>
1.9736

> <Gold.Chemscore.Internal.Correction>
   9.000000E+99

> <Gold.Chemscore.Hbonds>
donor molecule, donor type, donor heavy atom, donor atom, acceptor molecule, acceptor atom, score
      L1  H     9    31       P1  7948  0.44
      L1  H    13    34       P1  7948  0.02
      P1  H  7989  7998       L1    17  0.94
      P1  H 10752 10765       L1    12  0.89

> <Gold.Chemscore.Hbond.Weighted>
-8.7794

> <Gold.Chemscore.Metal.Weighted>
-0.0000

> <Gold.Chemscore.Lipo.Weighted>
-9.3760

> <Gold.Chemscore.Internal_Hbond.Weighted>
0.0000

> <Gold.Chemscore.DEClash.Weighted>
0.1118

> <Gold.Chemscore.DEInternal.Weighted>
2.2653

> <Gold.Chemscore.Rot.Weighted>
5.0523

> <Gold.Chemscore.Internal.Correction.Weighted>
   9.000000E+99

> <Gold.Protein.RotatedTorsions>
[ 6907 6896 6895 6894 ] final -121.49 input  -60.11 | X-H torsion
[ 7974 7965 7964 7962 ] final   43.97 input  175.53 | X-H torsion
[ 8008 7997 7996 7995 ] final  115.53 input   59.86 | X-H torsion
[ 10167 10162 10161 10158 ] final -102.56 input  -65.29 | X-H torsion
[ 10718 10713 10712 10709 ] final   17.31 input   66.30 | X-H torsion
[ 10763 10752 10751 10750 ] final -161.16 input  -60.55 | X-H torsion
[ 11005 11000 10999 10996 ] final  115.30 input  -57.11 | X-H torsion

> <Gold.Protein.ActiveResidues>
 VAL166  LYS551  ARG553  GLY616  TRP617  ASP618  TYR619  PRO620  LYS621  CYS622 
 ASP623  PHE694  ASN695  SER759  ASP760  ASP761  ALA762  ILE779  LEU786  VAL792 
 PHE793  MET794  SER795  GLU796  ALA797  LYS798  CYS799  TRP800  GLU811  SER814 

> <Gold.Protein.RotatedAtoms>
  150.8488  133.7819  159.3032 H   0  0  0  0  0  0  0  0  0  0  0  0  # atno 6907 bound_to 6896
  151.5497  135.1066  159.9956 H   0  0  0  0  0  0  0  0  0  0  0  0  # atno 6908 bound_to 6896
  152.4536  133.7634  159.6815 H   0  0  0  0  0  0  0  0  0  0  0  0  # atno 6909 bound_to 6896
  146.0609  139.5127  142.9659 H   0  0  0  0  0  0  0  0  0  0  0  0  # atno 7974 bound_to 7965
  156.2387  140.2936  156.0384 H   0  0  0  0  0  0  0  0  0  0  0  0  # atno 8008 bound_to 7997
  155.2015  140.0410  157.2935 H   0  0  0  0  0  0  0  0  0  0  0  0  # atno 8009 bound_to 7997
  154.6127  140.2456  155.7656 H   0  0  0  0  0  0  0  0  0  0  0  0  # atno 8010 bound_to 7997
  140.2294  143.3618  152.0900 H   0  0  0  0  0  0  0  0  0  0  0  0  # atno 10167 bound_to 10162
  157.0804  130.6385  149.5825 H   0  0  0  0  0  0  0  0  0  0  0  0  # atno 10718 bound_to 10713
  154.7328  135.3050  154.8863 H   0  0  0  0  0  0  0  0  0  0  0  0  # atno 10763 bound_to 10752
  153.9701  135.6743  153.4751 H   0  0  0  0  0  0  0  0  0  0  0  0  # atno 10764 bound_to 10752
  153.0934  135.4948  154.8654 H   0  0  0  0  0  0  0  0  0  0  0  0  # atno 10765 bound_to 10752
  139.9006  134.9582  156.7025 H   0  0  0  0  0  0  0  0  0  0  0  0  # atno 11005 bound_to 11000
  145.6561  141.0251  143.1734 LP  0  0  0  0  0  0  0  0  0  0  0  0  # atno 17320 bound_to 7965
  144.7174  139.8147  143.7394 LP  0  0  0  0  0  0  0  0  0  0  0  0  # atno 17321 bound_to 7965
  139.5115  144.6902  151.5779 LP  0  0  0  0  0  0  0  0  0  0  0  0  # atno 17342 bound_to 10162
  140.6196  143.9283  150.6516 LP  0  0  0  0  0  0  0  0  0  0  0  0  # atno 17343 bound_to 10162
  155.9925  130.4983  150.7344 LP  0  0  0  0  0  0  0  0  0  0  0  0  # atno 17370 bound_to 10713
  157.4805  131.0902  151.0541 LP  0  0  0  0  0  0  0  0  0  0  0  0  # atno 17371 bound_to 10713
  140.7139  133.9199  155.8102 LP  0  0  0  0  0  0  0  0  0  0  0  0  # atno 17394 bound_to 11000
  141.0279  134.0797  157.4048 LP  0  0  0  0  0  0  0  0  0  0  0  0  # atno 17395 bound_to 11000

$$$$
