AV-unprocessed.smi:2100|AV-procd|sdf|8577|dock5
  -GOLD-   2272011303D 1   1.00000     0.00000
 Structure written by MMmdl.
 40 41  0  0  0  0  0  0  0  0  2 V2000
  151.3292  145.0013  158.5882 C   0  0  0  0  0  0  0  0  0  0  0  0
  151.3915  143.4925  158.8501 C   0  0  1  0  0  0  0  0  0  0  0  0
  151.4222  142.6801  157.5427 C   0  0  0  0  0  0  0  0  0  0  0  0
  151.6270  141.2471  157.8140 N   0  0  0  0  0  0  0  0  0  0  0  0
  151.3207  140.1158  156.5329 S   0  0  0  0  0  0  0  0  0  0  0  0
  150.8796  140.9107  155.3749 O   0  0  0  0  0  0  0  0  0  0  0  0
  152.5463  139.3131  156.3891 O   0  0  0  0  0  0  0  0  0  0  0  0
  150.1119  139.3174  157.2607 N   0  5  0  0  0  0  0  0  0  0  0  0
  148.7405  139.7029  156.9781 C   0  0  0  0  0  0  0  0  0  0  0  0
  148.6129  141.2411  157.0180 C   0  0  0  0  0  0  0  0  0  0  0  0
  147.5700  141.8098  156.0608 C   0  0  0  0  0  0  0  0  0  0  0  0
  147.7307  141.6774  154.6625 C   0  0  0  0  0  0  0  0  0  0  0  0
  146.7515  142.2300  153.8148 C   0  0  0  0  0  0  0  0  0  0  0  0
  145.6533  142.8966  154.3905 C   0  0  0  0  0  0  0  0  0  0  0  0
  145.5834  142.9819  155.7951 C   0  0  0  0  0  0  0  0  0  0  0  0
  146.5163  142.4565  156.6173 N   0  0  0  0  0  0  0  0  0  0  0  0
  152.7370  140.9687  158.7410 C   0  0  0  0  0  0  0  0  0  0  0  0
  152.6455  141.8569  159.9953 C   0  0  1  0  0  0  0  0  0  0  0  0
  153.8653  141.6911  160.9083 C   0  0  0  0  0  0  0  0  0  0  0  0
  152.5625  143.2220  159.6091 O   0  0  0  0  0  0  0  0  0  0  0  0
  150.4384  145.2637  158.0171 H   0  0  0  0  0  0  0  0  0  0  0  0
  152.1996  145.3406  158.0260 H   0  0  0  0  0  0  0  0  0  0  0  0
  151.2997  145.5585  159.5248 H   0  0  0  0  0  0  0  0  0  0  0  0
  150.5137  143.2091  159.4338 H   0  0  0  0  0  0  0  0  0  0  0  0
  150.4897  142.8228  156.9968 H   0  0  0  0  0  0  0  0  0  0  0  0
  152.2274  143.0334  156.8973 H   0  0  0  0  0  0  0  0  0  0  0  0
  148.4215  139.3464  155.9981 H   0  0  0  0  0  0  0  0  0  0  0  0
  148.0461  139.2670  157.6968 H   0  0  0  0  0  0  0  0  0  0  0  0
  148.3663  141.5639  158.0307 H   0  0  0  0  0  0  0  0  0  0  0  0
  149.5769  141.6957  156.7849 H   0  0  0  0  0  0  0  0  0  0  0  0
  148.5844  141.1600  154.2498 H   0  0  0  0  0  0  0  0  0  0  0  0
  146.8419  142.1446  152.7421 H   0  0  0  0  0  0  0  0  0  0  0  0
  144.8839  143.3329  153.7710 H   0  0  0  0  0  0  0  0  0  0  0  0
  144.7563  143.4879  156.2707 H   0  0  0  0  0  0  0  0  0  0  0  0
  152.7212  139.9181  159.0304 H   0  0  0  0  0  0  0  0  0  0  0  0
  153.6800  141.1434  158.2217 H   0  0  0  0  0  0  0  0  0  0  0  0
  151.7528  141.5912  160.5647 H   0  0  0  0  0  0  0  0  0  0  0  0
  153.9667  140.6587  161.2437 H   0  0  0  0  0  0  0  0  0  0  0  0
  153.7776  142.3211  161.7938 H   0  0  0  0  0  0  0  0  0  0  0  0
  154.7852  141.9678  160.3923 H   0  0  0  0  0  0  0  0  0  0  0  0
  1  2  1  0  0  0  0
  1 21  1  0  0  0  0
  1 22  1  0  0  0  0
  1 23  1  0  0  0  0
  2 20  1  0  0  0  0
  2  3  1  0  0  0  0
  2 24  1  0  0  0  0
  3  4  1  0  0  0  0
  3 25  1  0  0  0  0
  3 26  1  0  0  0  0
  4  5  1  0  0  0  0
  4 17  1  0  0  0  0
  5  6  2  0  0  0  0
  5  7  2  0  0  0  0
  5  8  1  0  0  0  0
  8  9  1  0  0  0  0
  9 10  1  0  0  0  0
  9 27  1  0  0  0  0
  9 28  1  0  0  0  0
 10 11  1  0  0  0  0
 10 29  1  0  0  0  0
 10 30  1  0  0  0  0
 11 16  1  0  0  0  0
 11 12  2  0  0  0  0
 12 13  1  0  0  0  0
 12 31  1  0  0  0  0
 13 14  2  0  0  0  0
 13 32  1  0  0  0  0
 14 15  1  0  0  0  0
 14 33  1  0  0  0  0
 15 16  2  0  0  0  0
 15 34  1  0  0  0  0
 17 18  1  0  0  0  0
 17 35  1  0  0  0  0
 17 36  1  0  0  0  0
 18 19  1  0  0  0  0
 18 20  1  0  0  0  0
 18 37  1  0  0  0  0
 19 38  1  0  0  0  0
 19 39  1  0  0  0  0
 19 40  1  0  0  0  0
M  CHG  1   8  -1
M  END
> <s_m_source_file>
AV-unprocessed.smi

> <i_m_source_file_index>
2100

> <i_lp_mmshare_version>
43012

> <i_f3d_flags>
0

> <s_epik_input>
W0NIM11bQ0BASF0xW0NIMl1OKFtDSDJdW0NASF0oTzEpW0NIM10pUyg9TykoPU8pW05IXVtDSDJdW0NIMl1jMltjSF1bY0hdW2NIXVtjSF1uMg==

> <s_epik_cmdline>
J2VwaWtfcHl0aG9uJywgJy1waCcsICc3LjAnLCAnLXRuJywgJzgnLCAnLW1hJywgJzIwMCcsICctbWV0YWxfYmluZGluZycsICctaW1hZScsICc8aW5maWxlLm1hZT4nLCAnLW9tYWUnLCAnPG91dGZpbGUubWFlPic=

> <r_epik_Ionization_Penalty>
1.27779

> <r_epik_Ionization_Penalty_Charging>
1.20871

> <r_epik_Ionization_Penalty_Neutral>
0.0690773

> <r_epik_State_Penalty>
1.64557

> <r_epik_Charging_Adjusted_Penalty>
2.85428

> <i_epik_Tot_Q>
-1

> <i_epik_Tot_abs_Q>
1

> <r_epik_Metal_State_Penalty>
0.643506

> <b_epik_Metal_Only>
0

> <s_lp_Force_Field>
OPLS_2005

> <r_lp_Energy>
4.91885

> <b_lp_Chiralities_Consistent>
1

> <s_lp_Variant>
AV-unprocessed.smi:2100-5

> <Gold.Version>
5.8.1

> <Gold.Id.Protein>
6NUR|6NUR_protein|mol2

> <Gold.PLP.Fitness>
42.5156

> <Gold.PLP.PLP>
-37.8871

> <Gold.PLP.part.hbond>
-2.0000

> <Gold.PLP.part.metal>
0.0000

> <Gold.PLP.part.buried>
-5.7993

> <Gold.PLP.part.nonpolar>
-29.7992

> <Gold.PLP.part.repulsive>
0.2124

> <Gold.PLP.ligand.clash>
0.0000

> <Gold.PLP.ligand.torsion>
1.8625

> <Gold.PLP.Chemscore.Hbond>
1.7520

> <Gold.PLP.Chemscore.CHOScore>
0.0000

> <Gold.PLP.Chemscore.Metal>
0.0000

> <Gold.Chemscore.Hbonds>
donor molecule, donor type, donor heavy atom, donor atom, acceptor molecule, acceptor atom, score
      P1  H  7989  7998       L1     6  0.75
      P1  H  7997  8008       L1     7  1.00

> <Gold.PLP.Chemscore.Internal.Correction>
3.0975

> <Gold.Rescore>
     Score         DG    S(hbond)    S(metal)    S(lipo)     H(rot)  DE(clash)    DE(int)     intcor
     15.78     -19.00       1.77        0.00      93.55       1.30       0.07       3.15       ----

> <Gold.Chemscore.Fitness>
15.7763

> <Gold.Chemscore.DG>
-18.9964

> <Gold.Chemscore.ZeroCoef>
-5.4800

> <Gold.Chemscore.Hbond>
1.7691

> <Gold.Chemscore.Metal>
0.0000

> <Gold.Chemscore.Lipo>
93.5506

> <Gold.Chemscore.Internal_Hbond>
0.0000

> <Gold.Chemscore.DEClash>
0.0717

> <Gold.Chemscore.DEInternal>
3.1484

> <Gold.Chemscore.Rot>
1.3039

> <Gold.Chemscore.Internal.Correction>
   9.000000E+99

> <Gold.Chemscore.Hbonds>
donor molecule, donor type, donor heavy atom, donor atom, acceptor molecule, acceptor atom, score
      P1  H  7989  7998       L1     6  0.72
      P1  H  7997  8008       L1     7  0.98

> <Gold.Chemscore.Hbond.Weighted>
-5.9089

> <Gold.Chemscore.Metal.Weighted>
-0.0000

> <Gold.Chemscore.Lipo.Weighted>
-10.9454

> <Gold.Chemscore.Internal_Hbond.Weighted>
0.0000

> <Gold.Chemscore.DEClash.Weighted>
0.0717

> <Gold.Chemscore.DEInternal.Weighted>
3.1484

> <Gold.Chemscore.Rot.Weighted>
3.3379

> <Gold.Chemscore.Internal.Correction.Weighted>
   9.000000E+99

> <Gold.Protein.RotatedTorsions>
[ 6907 6896 6895 6894 ] final -155.09 input  -60.11 | X-H torsion
[ 7974 7965 7964 7962 ] final  -74.70 input  175.53 | X-H torsion
[ 8008 7997 7996 7995 ] final  -51.13 input   59.86 | X-H torsion
[ 10167 10162 10161 10158 ] final  -93.99 input  -65.29 | X-H torsion
[ 10718 10713 10712 10709 ] final   48.72 input   66.30 | X-H torsion
[ 10763 10752 10751 10750 ] final   92.41 input  -60.55 | X-H torsion
[ 11005 11000 10999 10996 ] final  -34.30 input  -57.11 | X-H torsion

> <Gold.Protein.ActiveResidues>
 VAL166  LYS551  ARG553  GLY616  TRP617  ASP618  TYR619  PRO620  LYS621  CYS622 
 ASP623  PHE694  ASN695  SER759  ASP760  ASP761  ALA762  ILE779  LEU786  VAL792 
 PHE793  MET794  SER795  GLU796  ALA797  LYS798  CYS799  TRP800  GLU811  SER814 

> <Gold.Protein.RotatedAtoms>
  151.2672  133.4273  159.2619 H   0  0  0  0  0  0  0  0  0  0  0  0  # atno 6907 bound_to 6896
  151.0477  134.9652  159.8205 H   0  0  0  0  0  0  0  0  0  0  0  0  # atno 6908 bound_to 6896
  152.5377  134.2628  159.8994 H   0  0  0  0  0  0  0  0  0  0  0  0  # atno 6909 bound_to 6896
  145.6356  140.9325  143.1063 H   0  0  0  0  0  0  0  0  0  0  0  0  # atno 7974 bound_to 7965
  154.4076  140.1255  156.4778 H   0  0  0  0  0  0  0  0  0  0  0  0  # atno 8008 bound_to 7997
  155.7115  140.3494  155.4956 H   0  0  0  0  0  0  0  0  0  0  0  0  # atno 8009 bound_to 7997
  155.9296  140.1067  157.1133 H   0  0  0  0  0  0  0  0  0  0  0  0  # atno 8010 bound_to 7997
  140.3190  143.3060  152.0067 H   0  0  0  0  0  0  0  0  0  0  0  0  # atno 10167 bound_to 10162
  157.4715  130.8258  149.7993 H   0  0  0  0  0  0  0  0  0  0  0  0  # atno 10718 bound_to 10713
  153.2189  135.4362  155.0466 H   0  0  0  0  0  0  0  0  0  0  0  0  # atno 10763 bound_to 10752
  154.8239  135.3351  154.6957 H   0  0  0  0  0  0  0  0  0  0  0  0  # atno 10764 bound_to 10752
  153.7390  135.7006  153.5027 H   0  0  0  0  0  0  0  0  0  0  0  0  # atno 10765 bound_to 10752
  140.9705  133.7112  156.1516 H   0  0  0  0  0  0  0  0  0  0  0  0  # atno 11005 bound_to 11000
  144.7177  139.8140  143.7393 LP  0  0  0  0  0  0  0  0  0  0  0  0  # atno 17320 bound_to 7965
  146.1322  139.4359  143.0162 LP  0  0  0  0  0  0  0  0  0  0  0  0  # atno 17321 bound_to 7965
  139.4878  144.6326  151.7040 LP  0  0  0  0  0  0  0  0  0  0  0  0  # atno 17342 bound_to 10162
  140.5501  144.0440  150.6123 LP  0  0  0  0  0  0  0  0  0  0  0  0  # atno 17343 bound_to 10162
  156.0076  130.3848  150.2377 LP  0  0  0  0  0  0  0  0  0  0  0  0  # atno 17370 bound_to 10713
  157.0559  131.0076  151.3238 LP  0  0  0  0  0  0  0  0  0  0  0  0  # atno 17371 bound_to 10713
  140.7335  134.4228  157.5563 LP  0  0  0  0  0  0  0  0  0  0  0  0  # atno 17394 bound_to 11000
  139.8910  134.8789  156.2339 LP  0  0  0  0  0  0  0  0  0  0  0  0  # atno 17395 bound_to 11000

$$$$
