AV-unprocessed.smi:45|AV-procd|sdf|408|dock5
  -GOLD-   2262016263D 1   1.00000     0.00000
 Structure written by MMmdl.
 60 63  0  0  0  0  0  0  0  0  1 V2000
  147.0513  130.8794  161.4731 C   0  0  0  0  0  0  0  0  0  0  0  0
  146.4942  132.1782  161.6122 O   0  0  0  0  0  0  0  0  0  0  0  0
  147.2048  133.2503  161.1130 C   0  0  0  0  0  0  0  0  0  0  0  0
  148.0759  133.1689  159.9968 C   0  0  0  0  0  0  0  0  0  0  0  0
  148.7692  134.3081  159.5448 C   0  0  0  0  0  0  0  0  0  0  0  0
  148.6038  135.5467  160.1966 C   0  0  0  0  0  0  0  0  0  0  0  0
  149.3551  136.7739  159.7171 C   0  0  0  0  0  0  0  0  0  0  0  0
  150.0831  136.5597  158.4742 N   0  0  0  0  0  0  0  0  0  0  0  0
  150.8125  137.5992  157.8725 C   0  0  0  0  0  0  0  0  0  0  0  0
  150.9390  138.7583  158.5611 N   0  0  0  0  0  0  0  0  0  0  0  0
  151.6220  139.7627  158.0031 C   0  0  0  0  0  0  0  0  0  0  0  0
  151.7332  140.9505  158.7263 N   0  0  0  0  0  0  0  0  0  0  0  0
  152.8430  141.1822  159.6453 C   0  0  0  0  0  0  0  0  0  0  0  0
  153.1114  142.6855  159.6120 C   0  0  0  0  0  0  0  0  0  0  0  0
  151.7439  143.2679  159.2820 C   0  0  0  0  0  0  0  0  0  0  0  0
  151.1335  142.2273  158.3322 C   0  0  2  0  0  0  0  0  0  0  0  0
  149.5907  142.2174  158.3773 C   0  0  0  0  0  0  0  0  0  0  0  0
  149.0966  143.5393  158.3491 O   0  0  0  0  0  0  0  0  0  0  0  0
  152.1994  139.7279  156.7983 N   0  0  0  0  0  0  0  0  0  0  0  0
  152.0866  138.5853  156.0903 C   0  0  0  0  0  0  0  0  0  0  0  0
  151.3838  137.4595  156.5781 C   0  0  0  0  0  0  0  0  0  0  0  0
  151.3032  136.1946  155.7656 C   0  0  0  0  0  0  0  0  0  0  0  0
  151.6812  136.1594  154.5942 O   0  0  0  0  0  0  0  0  0  0  0  0
  150.8239  135.1255  156.4213 N   0  0  0  0  0  0  0  0  0  0  0  0
  150.6352  133.8031  155.8371 C   0  0  0  0  0  0  0  0  0  0  0  0
  149.4190  133.7359  154.9301 C   0  0  0  0  0  0  0  0  0  0  0  0
  149.4565  132.8332  153.9439 N   0  0  0  0  0  0  0  0  0  0  0  0
  148.3739  132.7632  153.1392 C   0  0  0  0  0  0  0  0  0  0  0  0
  147.2551  133.5996  153.3264 C   0  0  0  0  0  0  0  0  0  0  0  0
  147.3308  134.5115  154.3985 C   0  0  0  0  0  0  0  0  0  0  0  0
  148.4162  134.5780  155.1996 N   0  0  0  0  0  0  0  0  0  0  0  0
  147.7421  135.6343  161.3074 C   0  0  0  0  0  0  0  0  0  0  0  0
  147.0475  134.4959  161.7609 C   0  0  0  0  0  0  0  0  0  0  0  0
  145.9975  134.6396  163.1252 Cl  0  0  0  0  0  0  0  0  0  0  0  0
  151.4662  142.4422  157.3154 H   0  0  0  0  0  0  0  0  0  0  0  0
  146.3766  130.1494  161.9198 H   0  0  0  0  0  0  0  0  0  0  0  0
  148.0097  130.7993  161.9875 H   0  0  0  0  0  0  0  0  0  0  0  0
  147.1793  130.6107  160.4237 H   0  0  0  0  0  0  0  0  0  0  0  0
  148.2319  132.2405  159.4688 H   0  0  0  0  0  0  0  0  0  0  0  0
  149.4311  134.2272  158.6947 H   0  0  0  0  0  0  0  0  0  0  0  0
  148.6541  137.5987  159.5821 H   0  0  0  0  0  0  0  0  0  0  0  0
  150.0558  137.0739  160.4972 H   0  0  0  0  0  0  0  0  0  0  0  0
  150.1629  135.6202  158.1116 H   0  0  0  0  0  0  0  0  0  0  0  0
  152.5406  140.8660  160.6443 H   0  0  0  0  0  0  0  0  0  0  0  0
  153.7367  140.6220  159.3678 H   0  0  0  0  0  0  0  0  0  0  0  0
  153.5263  143.0646  160.5464 H   0  0  0  0  0  0  0  0  0  0  0  0
  153.8131  142.9186  158.8098 H   0  0  0  0  0  0  0  0  0  0  0  0
  151.1547  143.3436  160.1974 H   0  0  0  0  0  0  0  0  0  0  0  0
  151.8018  144.2618  158.8377 H   0  0  0  0  0  0  0  0  0  0  0  0
  149.1637  141.6880  157.5269 H   0  0  0  0  0  0  0  0  0  0  0  0
  149.2305  141.7170  159.2766 H   0  0  0  0  0  0  0  0  0  0  0  0
  149.3788  143.9820  159.1348 H   0  0  0  0  0  0  0  0  0  0  0  0
  152.5709  138.5747  155.1246 H   0  0  0  0  0  0  0  0  0  0  0  0
  150.5466  135.2388  157.3853 H   0  0  0  0  0  0  0  0  0  0  0  0
  151.5334  133.4984  155.2964 H   0  0  0  0  0  0  0  0  0  0  0  0
  150.5101  133.0850  156.6482 H   0  0  0  0  0  0  0  0  0  0  0  0
  148.4002  132.0354  152.3419 H   0  0  0  0  0  0  0  0  0  0  0  0
  146.3885  133.5449  152.6841 H   0  0  0  0  0  0  0  0  0  0  0  0
  146.5181  135.1891  154.6143 H   0  0  0  0  0  0  0  0  0  0  0  0
  147.6101  136.5778  161.8165 H   0  0  0  0  0  0  0  0  0  0  0  0
  1  2  1  0  0  0  0
  1 36  1  0  0  0  0
  1 37  1  0  0  0  0
  1 38  1  0  0  0  0
  2  3  1  0  0  0  0
  3 33  1  0  0  0  0
  3  4  2  0  0  0  0
  4  5  1  0  0  0  0
  4 39  1  0  0  0  0
  5  6  2  0  0  0  0
  5 40  1  0  0  0  0
  6  7  1  0  0  0  0
  6 32  1  0  0  0  0
  7  8  1  0  0  0  0
  7 41  1  0  0  0  0
  7 42  1  0  0  0  0
  8  9  1  0  0  0  0
  8 43  1  0  0  0  0
  9 21  1  0  0  0  0
  9 10  2  0  0  0  0
 10 11  1  0  0  0  0
 11 12  1  0  0  0  0
 11 19  2  0  0  0  0
 12 16  1  0  0  0  0
 12 13  1  0  0  0  0
 13 14  1  0  0  0  0
 13 44  1  0  0  0  0
 13 45  1  0  0  0  0
 14 15  1  0  0  0  0
 14 46  1  0  0  0  0
 14 47  1  0  0  0  0
 15 16  1  0  0  0  0
 15 48  1  0  0  0  0
 15 49  1  0  0  0  0
 16 35  1  0  0  0  0
 16 17  1  0  0  0  0
 17 18  1  0  0  0  0
 17 50  1  0  0  0  0
 17 51  1  0  0  0  0
 18 52  1  0  0  0  0
 19 20  1  0  0  0  0
 20 21  2  0  0  0  0
 20 53  1  0  0  0  0
 21 22  1  0  0  0  0
 22 23  2  0  0  0  0
 22 24  1  0  0  0  0
 24 25  1  0  0  0  0
 24 54  1  0  0  0  0
 25 26  1  0  0  0  0
 25 55  1  0  0  0  0
 25 56  1  0  0  0  0
 26 31  1  0  0  0  0
 26 27  2  0  0  0  0
 27 28  1  0  0  0  0
 28 29  2  0  0  0  0
 28 57  1  0  0  0  0
 29 30  1  0  0  0  0
 29 58  1  0  0  0  0
 30 31  2  0  0  0  0
 30 59  1  0  0  0  0
 32 33  2  0  0  0  0
 32 60  1  0  0  0  0
 33 34  1  0  0  0  0
M  END
> <s_m_source_file>
AV-unprocessed.smi

> <i_m_source_file_index>
45

> <i_lp_mmshare_version>
43012

> <i_f3d_flags>
0

> <s_epik_input>
W0NIM11PYzFbY0hdW2NIXWMoW2NIXWMxQ2wpW0NIMl1bTkhdYzJuYyhOM1tDSDJdW0NIMl1bQ0gyXVtDQEhdM1tDSDJdW09IXSluW2NIXWMyQyg9TylbTkhdW0NIMl1jNG5bY0hdW2NIXVtjSF1uNA==

> <s_epik_cmdline>
J2VwaWtfcHl0aG9uJywgJy1waCcsICc3LjAnLCAnLXRuJywgJzgnLCAnLW1hJywgJzIwMCcsICctbWV0YWxfYmluZGluZycsICctaW1hZScsICc8aW5maWxlLm1hZT4nLCAnLW9tYWUnLCAnPG91dGZpbGUubWFlPic=

> <r_lp_tautomer_probability>
1

> <r_epik_Ionization_Penalty>
0.0522664

> <r_epik_Ionization_Penalty_Charging>
0

> <r_epik_Ionization_Penalty_Neutral>
0.0522664

> <r_epik_State_Penalty>
0.0369431

> <r_epik_Charging_Adjusted_Penalty>
0.0369431

> <i_epik_Tot_Q>
0

> <i_epik_Tot_abs_Q>
0

> <r_epik_Metal_State_Penalty>
0.0404664

> <b_epik_Metal_Only>
0

> <s_epik_Chemistry_Notes>
This compound contains an electron-poor aromatic ring that is susceptible to covalent hydrolysis at low pH, typically resulting in measured values for nitrogen ring protonation that are around two units higher than predicted values.

> <s_lp_Force_Field>
OPLS_2005

> <r_lp_Energy>
32.9916

> <b_lp_Chiralities_Consistent>
1

> <s_lp_Variant>
AV-unprocessed.smi:45-2

> <Gold.Version>
5.8.1

> <Gold.Id.Protein>
6NUR|6NUR_protein|mol2

> <Gold.PLP.Fitness>
48.7886

> <Gold.PLP.PLP>
-46.9896

> <Gold.PLP.part.hbond>
-3.1622

> <Gold.PLP.part.metal>
0.0000

> <Gold.PLP.part.buried>
-5.7919

> <Gold.PLP.part.nonpolar>
-39.0237

> <Gold.PLP.part.repulsive>
1.9257

> <Gold.PLP.ligand.clash>
0.0000

> <Gold.PLP.ligand.torsion>
2.4422

> <Gold.PLP.Chemscore.Hbond>
1.0000

> <Gold.PLP.Chemscore.CHOScore>
1.0000

> <Gold.PLP.Chemscore.Metal>
0.0000

> <Gold.Chemscore.Hbonds>
donor molecule, donor type, donor heavy atom, donor atom, acceptor molecule, acceptor atom, score
      P1  H 10752 10765       L1    23  0.67
      L1  C    28    57       P1 10747  1.00

> <Gold.PLP.Chemscore.Internal.Correction>
0.6834

> <Gold.Rescore>
     Score         DG    S(hbond)    S(metal)    S(lipo)     H(rot)  DE(clash)    DE(int)     intcor
     11.05     -15.02       0.96        0.00     117.43       2.90       0.08       3.89       ----

> <Gold.Chemscore.Fitness>
11.0474

> <Gold.Chemscore.DG>
-15.0154

> <Gold.Chemscore.ZeroCoef>
-5.4800

> <Gold.Chemscore.Hbond>
0.9631

> <Gold.Chemscore.Metal>
0.0000

> <Gold.Chemscore.Lipo>
117.4322

> <Gold.Chemscore.Internal_Hbond>
0.0000

> <Gold.Chemscore.DEClash>
0.0760

> <Gold.Chemscore.DEInternal>
3.8919

> <Gold.Chemscore.Rot>
2.8988

> <Gold.Chemscore.Internal.Correction>
   9.000000E+99

> <Gold.Chemscore.Hbonds>
donor molecule, donor type, donor heavy atom, donor atom, acceptor molecule, acceptor atom, score
      P1  H 10752 10765       L1    23  0.65

> <Gold.Chemscore.Hbond.Weighted>
-3.2167

> <Gold.Chemscore.Metal.Weighted>
-0.0000

> <Gold.Chemscore.Lipo.Weighted>
-13.7396

> <Gold.Chemscore.Internal_Hbond.Weighted>
0.0000

> <Gold.Chemscore.DEClash.Weighted>
0.0760

> <Gold.Chemscore.DEInternal.Weighted>
3.8919

> <Gold.Chemscore.Rot.Weighted>
7.4209

> <Gold.Chemscore.Internal.Correction.Weighted>
   9.000000E+99

> <Gold.Protein.RotatedTorsions>
[ 6907 6896 6895 6894 ] final  104.19 input  -60.11 | X-H torsion
[ 7974 7965 7964 7962 ] final -128.17 input  175.53 | X-H torsion
[ 8008 7997 7996 7995 ] final  135.77 input   59.86 | X-H torsion
[ 10167 10162 10161 10158 ] final  -94.77 input  -65.29 | X-H torsion
[ 10718 10713 10712 10709 ] final  -58.06 input   66.30 | X-H torsion
[ 10763 10752 10751 10750 ] final  158.78 input  -60.55 | X-H torsion
[ 11005 11000 10999 10996 ] final  -67.69 input  -57.11 | X-H torsion

> <Gold.Protein.ActiveResidues>
 VAL166  LYS551  ARG553  GLY616  TRP617  ASP618  TYR619  PRO620  LYS621  CYS622 
 ASP623  PHE694  ASN695  SER759  ASP760  ASP761  ALA762  ILE779  LEU786  VAL792 
 PHE793  MET794  SER795  GLU796  ALA797  LYS798  CYS799  TRP800  GLU811  SER814 

> <Gold.Protein.RotatedAtoms>
  152.5272  133.9713  159.7763 H   0  0  0  0  0  0  0  0  0  0  0  0  # atno 6907 bound_to 6896
  150.9985  133.6071  159.2705 H   0  0  0  0  0  0  0  0  0  0  0  0  # atno 6908 bound_to 6896
  151.3189  135.0820  159.9352 H   0  0  0  0  0  0  0  0  0  0  0  0  # atno 6909 bound_to 6896
  144.9698  140.7533  143.4678 H   0  0  0  0  0  0  0  0  0  0  0  0  # atno 7974 bound_to 7965
  156.3003  140.2462  156.3636 H   0  0  0  0  0  0  0  0  0  0  0  0  # atno 8008 bound_to 7997
  154.8854  140.0411  157.1827 H   0  0  0  0  0  0  0  0  0  0  0  0  # atno 8009 bound_to 7997
  154.8652  140.2926  155.5518 H   0  0  0  0  0  0  0  0  0  0  0  0  # atno 8010 bound_to 7997
  140.3111  143.3105  152.0148 H   0  0  0  0  0  0  0  0  0  0  0  0  # atno 10167 bound_to 10162
  156.1163  130.4170  150.0526 H   0  0  0  0  0  0  0  0  0  0  0  0  # atno 10718 bound_to 10713
  154.2215  135.2782  155.2923 H   0  0  0  0  0  0  0  0  0  0  0  0  # atno 10763 bound_to 10752
  154.5698  135.5622  153.7088 H   0  0  0  0  0  0  0  0  0  0  0  0  # atno 10764 bound_to 10752
  153.0041  135.6318  154.2355 H   0  0  0  0  0  0  0  0  0  0  0  0  # atno 10765 bound_to 10752
  141.1514  133.6724  156.6331 H   0  0  0  0  0  0  0  0  0  0  0  0  # atno 11005 bound_to 11000
  145.2576  139.2005  143.4909 LP  0  0  0  0  0  0  0  0  0  0  0  0  # atno 17320 bound_to 7965
  146.3378  140.2501  142.8598 LP  0  0  0  0  0  0  0  0  0  0  0  0  # atno 17321 bound_to 7965
  139.4894  144.6384  151.6928 LP  0  0  0  0  0  0  0  0  0  0  0  0  # atno 17342 bound_to 10162
  140.5568  144.0335  150.6151 LP  0  0  0  0  0  0  0  0  0  0  0  0  # atno 17343 bound_to 10162
  156.8476  130.9447  151.3628 LP  0  0  0  0  0  0  0  0  0  0  0  0  # atno 17370 bound_to 10713
  157.6346  130.8757  149.9336 LP  0  0  0  0  0  0  0  0  0  0  0  0  # atno 17371 bound_to 10713
  140.3451  134.7816  157.4426 LP  0  0  0  0  0  0  0  0  0  0  0  0  # atno 17394 bound_to 11000
  140.0906  134.5606  155.8448 LP  0  0  0  0  0  0  0  0  0  0  0  0  # atno 17395 bound_to 11000

$$$$
