AV-unprocessed.smi:1107|AV-procd|sdf|4784|dock2
  -GOLD-   22720 3323D 1   1.00000     0.00000
 Structure written by MMmdl.
 49 50  0  0  0  0  0  0  0  0  2 V2000
  152.3589  140.6448  159.3392 C   0  0  0  0  0  0  0  0  0  0  0  0
  151.8580  140.1472  158.0013 C   0  0  0  0  0  0  0  0  0  0  0  0
  150.5329  139.7457  158.0179 N   0  0  0  0  0  0  0  0  0  0  0  0
  149.9878  139.2602  156.8425 C   0  0  0  0  0  0  0  0  0  0  0  0
  148.5374  138.8260  156.9565 C   0  0  0  0  0  0  0  0  0  0  0  0
  150.7253  139.1842  155.7053 C   0  0  0  0  0  0  0  0  0  0  0  0
  150.1768  138.6299  154.3920 C   0  0  0  0  0  0  0  0  0  0  0  0
  148.9738  139.3958  153.8458 C   0  0  0  0  0  0  0  0  0  0  0  0
  148.6033  140.4351  154.3896 O   0  0  0  0  0  0  0  0  0  0  0  0
  148.3459  138.8351  152.8003 N   0  0  0  0  0  0  0  0  0  0  0  0
  147.0640  139.2616  152.2407 C   0  0  1  0  0  0  0  0  0  0  0  0
  147.1241  140.7525  151.8824 C   0  0  0  0  0  0  0  0  0  0  0  0
  146.6920  138.3884  151.0202 C   0  0  0  0  0  0  0  0  0  0  0  0
  146.3451  136.9854  151.3732 N   0  3  0  0  0  0  0  0  0  0  0  0
  145.7249  136.2538  150.2384 C   0  0  0  0  0  0  0  0  0  0  0  0
  145.5265  134.7663  150.5761 C   0  0  0  0  0  0  0  0  0  0  0  0
  144.7093  134.5914  151.8628 C   0  0  0  0  0  0  0  0  0  0  0  0
  145.3464  135.3922  153.0056 C   0  0  0  0  0  0  0  0  0  0  0  0
  145.5284  136.8665  152.6103 C   0  0  0  0  0  0  0  0  0  0  0  0
  152.1392  139.6266  155.7510 C   0  0  0  0  0  0  0  0  0  0  0  0
  152.8663  139.5592  154.7607 O   0  0  0  0  0  0  0  0  0  0  0  0
  152.6429  140.1126  156.9676 N   0  0  0  0  0  0  0  0  0  0  0  0
  149.9490  139.7859  158.8412 H   0  0  0  0  0  0  0  0  0  0  0  0
  153.3919  140.9875  159.2672 H   0  0  0  0  0  0  0  0  0  0  0  0
  152.3162  139.8459  160.0804 H   0  0  0  0  0  0  0  0  0  0  0  0
  151.7476  141.4770  159.6895 H   0  0  0  0  0  0  0  0  0  0  0  0
  148.4329  137.7711  156.7033 H   0  0  0  0  0  0  0  0  0  0  0  0
  147.9101  139.4083  156.2814 H   0  0  0  0  0  0  0  0  0  0  0  0
  148.1550  138.9643  157.9686 H   0  0  0  0  0  0  0  0  0  0  0  0
  149.9187  137.5754  154.5002 H   0  0  0  0  0  0  0  0  0  0  0  0
  150.9626  138.6443  153.6368 H   0  0  0  0  0  0  0  0  0  0  0  0
  148.7511  137.9957  152.4106 H   0  0  0  0  0  0  0  0  0  0  0  0
  146.2769  139.1485  152.9876 H   0  0  0  0  0  0  0  0  0  0  0  0
  146.1716  141.0965  151.4783 H   0  0  0  0  0  0  0  0  0  0  0  0
  147.8942  140.9533  151.1369 H   0  0  0  0  0  0  0  0  0  0  0  0
  147.3459  141.3585  152.7616 H   0  0  0  0  0  0  0  0  0  0  0  0
  145.8760  138.8435  150.4568 H   0  0  0  0  0  0  0  0  0  0  0  0
  147.5520  138.3665  150.3489 H   0  0  0  0  0  0  0  0  0  0  0  0
  144.7685  136.7148  149.9866 H   0  0  0  0  0  0  0  0  0  0  0  0
  146.3594  136.3350  149.3548 H   0  0  0  0  0  0  0  0  0  0  0  0
  145.0309  134.2585  149.7481 H   0  0  0  0  0  0  0  0  0  0  0  0
  146.4975  134.2868  150.6921 H   0  0  0  0  0  0  0  0  0  0  0  0
  143.6866  134.9334  151.6989 H   0  0  0  0  0  0  0  0  0  0  0  0
  144.6484  133.5359  152.1299 H   0  0  0  0  0  0  0  0  0  0  0  0
  144.7295  135.3191  153.9016 H   0  0  0  0  0  0  0  0  0  0  0  0
  146.3147  134.9611  153.2613 H   0  0  0  0  0  0  0  0  0  0  0  0
  146.0062  137.3922  153.4358 H   0  0  0  0  0  0  0  0  0  0  0  0
  144.5572  137.3396  152.4557 H   0  0  0  0  0  0  0  0  0  0  0  0
  147.2218  136.5201  151.5602 H   0  0  0  0  0  0  0  0  0  0  0  0
  1 24  1  0  0  0  0
  1 25  1  0  0  0  0
  1 26  1  0  0  0  0
  1  2  1  0  0  0  0
  2  3  1  0  0  0  0
  2 22  2  0  0  0  0
  3  4  1  0  0  0  0
  3 23  1  0  0  0  0
  4  6  2  0  0  0  0
  4  5  1  0  0  0  0
  5 27  1  0  0  0  0
  5 28  1  0  0  0  0
  5 29  1  0  0  0  0
  6 20  1  0  0  0  0
  6  7  1  0  0  0  0
  7  8  1  0  0  0  0
  7 30  1  0  0  0  0
  7 31  1  0  0  0  0
  8  9  2  0  0  0  0
  8 10  1  0  0  0  0
 10 11  1  0  0  0  0
 10 32  1  0  0  0  0
 11 12  1  0  0  0  0
 11 13  1  0  0  0  0
 11 33  1  0  0  0  0
 12 34  1  0  0  0  0
 12 35  1  0  0  0  0
 12 36  1  0  0  0  0
 13 14  1  0  0  0  0
 13 37  1  0  0  0  0
 13 38  1  0  0  0  0
 14 19  1  0  0  0  0
 14 15  1  0  0  0  0
 14 49  1  0  0  0  0
 15 16  1  0  0  0  0
 15 39  1  0  0  0  0
 15 40  1  0  0  0  0
 16 17  1  0  0  0  0
 16 41  1  0  0  0  0
 16 42  1  0  0  0  0
 17 18  1  0  0  0  0
 17 43  1  0  0  0  0
 17 44  1  0  0  0  0
 18 19  1  0  0  0  0
 18 45  1  0  0  0  0
 18 46  1  0  0  0  0
 19 47  1  0  0  0  0
 19 48  1  0  0  0  0
 20 21  2  0  0  0  0
 20 22  1  0  0  0  0
M  CHG  1  14   1
M  END
> <s_m_source_file>
AV-unprocessed.smi

> <i_m_source_file_index>
1107

> <i_lp_mmshare_version>
43012

> <i_f3d_flags>
0

> <s_epik_input>
W0NIM11jMW5jKFtDSDNdKWMoYyg9TylbbkhdMSlbQ0gyXUMoPU8pW05IXVtDQEhdKFtDSDNdKVtDSDJdTjJbQ0gyXVtDSDJdW0NIMl1bQ0gyXVtDSDJdMg==

> <s_epik_cmdline>
J2VwaWtfcHl0aG9uJywgJy1waCcsICc3LjAnLCAnLXRuJywgJzgnLCAnLW1hJywgJzIwMCcsICctbWV0YWxfYmluZGluZycsICctaW1hZScsICc8aW5maWxlLm1hZT4nLCAnLW9tYWUnLCAnPG91dGZpbGUubWFlPic=

> <r_lp_tautomer_probability>
0.156392

> <r_epik_Ionization_Penalty>
0.0190033

> <r_epik_Ionization_Penalty_Charging>
0.0189172

> <r_epik_Ionization_Penalty_Neutral>
8.60838e-05

> <r_epik_State_Penalty>
1.15342

> <r_epik_Charging_Adjusted_Penalty>
1.17233

> <i_epik_Tot_Q>
1

> <i_epik_Tot_abs_Q>
1

> <r_epik_Metal_State_Penalty>
1.34593

> <b_epik_Metal_Only>
0

> <s_lp_Force_Field>
OPLS_2005

> <r_lp_Energy>
24.7354

> <b_lp_Chiralities_Consistent>
1

> <s_lp_Variant>
AV-unprocessed.smi:1107-4

> <Gold.Version>
5.8.1

> <Gold.Id.Protein>
6NUR|6NUR_protein|mol2

> <Gold.PLP.Fitness>
45.5679

> <Gold.PLP.PLP>
-33.0619

> <Gold.PLP.part.hbond>
-6.0000

> <Gold.PLP.part.metal>
0.0000

> <Gold.PLP.part.buried>
0.7077

> <Gold.PLP.part.nonpolar>
-27.4912

> <Gold.PLP.part.repulsive>
0.3553

> <Gold.PLP.ligand.clash>
0.0000

> <Gold.PLP.ligand.torsion>
0.2621

> <Gold.PLP.Chemscore.Hbond>
4.3087

> <Gold.PLP.Chemscore.CHOScore>
0.0000

> <Gold.PLP.Chemscore.Metal>
0.0000

> <Gold.Chemscore.Hbonds>
donor molecule, donor type, donor heavy atom, donor atom, acceptor molecule, acceptor atom, score
      L1  H    10    32       P1  7948  1.00
      L1  H    14    49       P1  7948  2.00
      P1  H  7989  7998       L1    21  0.26
      P1  H  7997  8008       L1    21  0.73

> <Gold.PLP.Chemscore.Internal.Correction>
0.1040

> <Gold.Rescore>
     Score         DG    S(hbond)    S(metal)    S(lipo)     H(rot)  DE(clash)    DE(int)     intcor
     16.28     -18.93       3.04        0.00      71.64       1.98       0.82       1.84       ----

> <Gold.Chemscore.Fitness>
16.2778

> <Gold.Chemscore.DG>
-18.9304

> <Gold.Chemscore.ZeroCoef>
-5.4800

> <Gold.Chemscore.Hbond>
3.0379

> <Gold.Chemscore.Metal>
0.0000

> <Gold.Chemscore.Lipo>
71.6414

> <Gold.Chemscore.Internal_Hbond>
0.0000

> <Gold.Chemscore.DEClash>
0.8171

> <Gold.Chemscore.DEInternal>
1.8354

> <Gold.Chemscore.Rot>
1.9837

> <Gold.Chemscore.Internal.Correction>
   9.000000E+99

> <Gold.Chemscore.Hbonds>
donor molecule, donor type, donor heavy atom, donor atom, acceptor molecule, acceptor atom, score
      L1  H    10    32       P1  7948  1.00
      L1  H    14    49       P1  7948  1.00
      P1  H  7989  7998       L1    21  0.04
      P1  H  7997  8008       L1    21  0.10

> <Gold.Chemscore.Hbond.Weighted>
-10.1466

> <Gold.Chemscore.Metal.Weighted>
-0.0000

> <Gold.Chemscore.Lipo.Weighted>
-8.3820

> <Gold.Chemscore.Internal_Hbond.Weighted>
0.0000

> <Gold.Chemscore.DEClash.Weighted>
0.8171

> <Gold.Chemscore.DEInternal.Weighted>
1.8354

> <Gold.Chemscore.Rot.Weighted>
5.0783

> <Gold.Chemscore.Internal.Correction.Weighted>
   9.000000E+99

> <Gold.Protein.RotatedTorsions>
[ 6907 6896 6895 6894 ] final  154.10 input  -60.11 | X-H torsion
[ 7974 7965 7964 7962 ] final  -86.06 input  175.53 | X-H torsion
[ 8008 7997 7996 7995 ] final   -2.91 input   59.86 | X-H torsion
[ 10167 10162 10161 10158 ] final  -72.41 input  -65.29 | X-H torsion
[ 10718 10713 10712 10709 ] final  -23.94 input   66.30 | X-H torsion
[ 10763 10752 10751 10750 ] final  -60.39 input  -60.55 | X-H torsion
[ 11005 11000 10999 10996 ] final  -80.86 input  -57.11 | X-H torsion

> <Gold.Protein.ActiveResidues>
 VAL166  LYS551  ARG553  GLY616  TRP617  ASP618  TYR619  PRO620  LYS621  CYS622 
 ASP623  PHE694  ASN695  SER759  ASP760  ASP761  ALA762  ILE779  LEU786  VAL792 
 PHE793  MET794  SER795  GLU796  ALA797  LYS798  CYS799  TRP800  GLU811  SER814 

> <Gold.Protein.RotatedAtoms>
  152.0633  133.4072  159.4426 H   0  0  0  0  0  0  0  0  0  0  0  0  # atno 6907 bound_to 6896
  150.6865  134.3175  159.4782 H   0  0  0  0  0  0  0  0  0  0  0  0  # atno 6908 bound_to 6896
  152.0999  134.9348  160.0620 H   0  0  0  0  0  0  0  0  0  0  0  0  # atno 6909 bound_to 6896
  145.4849  140.9555  143.1844 H   0  0  0  0  0  0  0  0  0  0  0  0  # atno 7974 bound_to 7965
  154.6306  140.2522  155.7438 H   0  0  0  0  0  0  0  0  0  0  0  0  # atno 8008 bound_to 7997
  156.2477  140.2908  156.0576 H   0  0  0  0  0  0  0  0  0  0  0  0  # atno 8009 bound_to 7997
  155.1751  140.0387  157.2861 H   0  0  0  0  0  0  0  0  0  0  0  0  # atno 8010 bound_to 7997
  140.5194  143.2333  151.7456 H   0  0  0  0  0  0  0  0  0  0  0  0  # atno 10167 bound_to 10162
  156.4843  130.4552  149.6793 H   0  0  0  0  0  0  0  0  0  0  0  0  # atno 10718 bound_to 10713
  154.2684  135.6295  153.5301 H   0  0  0  0  0  0  0  0  0  0  0  0  # atno 10763 bound_to 10752
  152.9884  135.5604  154.5627 H   0  0  0  0  0  0  0  0  0  0  0  0  # atno 10764 bound_to 10752
  154.5191  135.2881  155.1253 H   0  0  0  0  0  0  0  0  0  0  0  0  # atno 10765 bound_to 10752
  141.1667  133.7169  156.8336 H   0  0  0  0  0  0  0  0  0  0  0  0  # atno 11005 bound_to 11000
  144.7867  139.6412  143.7131 LP  0  0  0  0  0  0  0  0  0  0  0  0  # atno 17320 bound_to 7965
  146.2319  139.5829  142.9550 LP  0  0  0  0  0  0  0  0  0  0  0  0  # atno 17321 bound_to 7965
  139.4919  144.4276  151.9908 LP  0  0  0  0  0  0  0  0  0  0  0  0  # atno 17342 bound_to 10162
  140.3372  144.3246  150.5974 LP  0  0  0  0  0  0  0  0  0  0  0  0  # atno 17343 bound_to 10162
  156.3490  130.7422  151.2379 LP  0  0  0  0  0  0  0  0  0  0  0  0  # atno 17370 bound_to 10713
  157.7480  131.0382  150.4493 LP  0  0  0  0  0  0  0  0  0  0  0  0  # atno 17371 bound_to 10713
  140.2033  134.8881  157.3194 LP  0  0  0  0  0  0  0  0  0  0  0  0  # atno 17394 bound_to 11000
  140.2164  134.4077  155.7587 LP  0  0  0  0  0  0  0  0  0  0  0  0  # atno 17395 bound_to 11000

$$$$
