AV-unprocessed.smi:2630|AV-procd|sdf|10247|dock10
  -GOLD-   2272014253D 1   1.00000     0.00000
 Structure written by MMmdl.
 34 35  0  0  0  0  0  0  0  0  2 V2000
  145.3826  143.8594  153.7389 C   0  0  0  0  0  0  0  0  0  0  0  0
  145.6196  142.5934  154.3276 O   0  0  0  0  0  0  0  0  0  0  0  0
  147.0005  142.3160  154.4893 C   0  0  0  0  0  0  0  0  0  0  0  0
  147.1836  140.9556  155.1836 C   0  0  0  0  0  0  0  0  0  0  0  0
  148.6070  140.6667  155.4610 N   0  0  0  0  0  0  0  0  0  0  0  0
  149.0116  140.4385  156.8031 C   0  0  0  0  0  0  0  0  0  0  0  0
  148.0807  140.4929  157.8276 N   0  0  0  0  0  0  0  0  0  0  0  0
  150.3087  140.1634  157.0665 C   0  0  0  0  0  0  0  0  0  0  0  0
  150.9986  139.8307  158.6727 S   0  0  0  0  0  0  0  0  0  0  0  0
  151.8108  141.3581  159.0097 C   0  0  0  0  0  0  0  0  0  0  0  0
  152.7208  141.4496  160.0816 C   0  0  0  0  0  0  0  0  0  0  0  0
  153.3730  142.6699  160.3462 C   0  0  0  0  0  0  0  0  0  0  0  0
  153.1144  143.7967  159.5409 C   0  0  0  0  0  0  0  0  0  0  0  0
  152.2024  143.7044  158.4710 C   0  0  0  0  0  0  0  0  0  0  0  0
  151.5494  142.4851  158.2051 C   0  0  0  0  0  0  0  0  0  0  0  0
  151.2917  140.1060  155.9828 C   0  0  0  0  0  0  0  0  0  0  0  0
  152.4791  139.8678  156.2081 O   0  0  0  0  0  0  0  0  0  0  0  0
  150.8241  140.3262  154.7240 N   0  5  0  0  0  0  0  0  0  0  0  0
  149.5156  140.5963  154.4367 C   0  0  0  0  0  0  0  0  0  0  0  0
  149.1351  140.7773  153.2794 O   0  0  0  0  0  0  0  0  0  0  0  0
  144.3093  144.0214  153.6408 H   0  0  0  0  0  0  0  0  0  0  0  0
  145.8252  143.9210  152.7442 H   0  0  0  0  0  0  0  0  0  0  0  0
  145.7892  144.6626  154.3548 H   0  0  0  0  0  0  0  0  0  0  0  0
  147.4793  142.2903  153.5094 H   0  0  0  0  0  0  0  0  0  0  0  0
  147.4836  143.1084  155.0632 H   0  0  0  0  0  0  0  0  0  0  0  0
  146.5730  140.9229  156.0871 H   0  0  0  0  0  0  0  0  0  0  0  0
  146.7590  140.1680  154.5612 H   0  0  0  0  0  0  0  0  0  0  0  0
  147.1076  140.6930  157.6466 H   0  0  0  0  0  0  0  0  0  0  0  0
  148.3161  140.2241  158.7719 H   0  0  0  0  0  0  0  0  0  0  0  0
  152.9219  140.5868  160.6995 H   0  0  0  0  0  0  0  0  0  0  0  0
  154.0719  142.7415  161.1663 H   0  0  0  0  0  0  0  0  0  0  0  0
  153.6155  144.7318  159.7434 H   0  0  0  0  0  0  0  0  0  0  0  0
  152.0041  144.5678  157.8532 H   0  0  0  0  0  0  0  0  0  0  0  0
  150.8525  142.4157  157.3825 H   0  0  0  0  0  0  0  0  0  0  0  0
  1  2  1  0  0  0  0
  1 21  1  0  0  0  0
  1 22  1  0  0  0  0
  1 23  1  0  0  0  0
  2  3  1  0  0  0  0
  3  4  1  0  0  0  0
  3 24  1  0  0  0  0
  3 25  1  0  0  0  0
  4  5  1  0  0  0  0
  4 26  1  0  0  0  0
  4 27  1  0  0  0  0
  5 19  1  0  0  0  0
  5  6  1  0  0  0  0
  6  7  1  0  0  0  0
  6  8  2  0  0  0  0
  7 28  1  0  0  0  0
  7 29  1  0  0  0  0
  8  9  1  0  0  0  0
  8 16  1  0  0  0  0
  9 10  1  0  0  0  0
 10 15  1  0  0  0  0
 10 11  2  0  0  0  0
 11 12  1  0  0  0  0
 11 30  1  0  0  0  0
 12 13  2  0  0  0  0
 12 31  1  0  0  0  0
 13 14  1  0  0  0  0
 13 32  1  0  0  0  0
 14 15  2  0  0  0  0
 14 33  1  0  0  0  0
 15 34  1  0  0  0  0
 16 17  2  0  0  0  0
 16 18  1  0  0  0  0
 18 19  1  0  0  0  0
 19 20  2  0  0  0  0
M  CHG  1  18  -1
M  END
> <s_m_source_file>
AV-unprocessed.smi

> <i_m_source_file_index>
2630

> <i_lp_mmshare_version>
43012

> <i_f3d_flags>
0

> <s_epik_input>
W0NIM11PW0NIMl1bQ0gyXW4xYyhbTkgyXSljKGMoPU8pW25IXWMxPU8pU2MyW2NIXVtjSF1bY0hdW2NIXVtjSF0y

> <s_epik_cmdline>
J2VwaWtfcHl0aG9uJywgJy1waCcsICc3LjAnLCAnLXRuJywgJzgnLCAnLW1hJywgJzIwMCcsICctbWV0YWxfYmluZGluZycsICctaW1hZScsICc8aW5maWxlLm1hZT4nLCAnLW9tYWUnLCAnPG91dGZpbGUubWFlPic=

> <r_lp_tautomer_probability>
1

> <r_epik_Ionization_Penalty>
6.52921

> <r_epik_Ionization_Penalty_Charging>
0.111036

> <r_epik_Ionization_Penalty_Neutral>
6.41817

> <r_epik_State_Penalty>
6.41816

> <r_epik_Charging_Adjusted_Penalty>
6.5292

> <i_epik_Tot_Q>
-1

> <i_epik_Tot_abs_Q>
1

> <r_epik_Metal_State_Penalty>
2.337

> <b_epik_Metal_Only>
1

> <s_epik_Chemistry_Notes>
This compound has an imine and may undergo hydrolysis.

> <s_lp_Force_Field>
OPLS_2005

> <r_lp_Energy>
30.4306

> <b_lp_Chiralities_Consistent>
1

> <s_lp_Variant>
AV-unprocessed.smi:2630-2

> <Gold.Version>
5.8.1

> <Gold.Id.Protein>
6NUR|6NUR_protein|mol2

> <Gold.PLP.Fitness>
43.5978

> <Gold.PLP.PLP>
-35.3034

> <Gold.PLP.part.hbond>
-3.8736

> <Gold.PLP.part.metal>
0.0000

> <Gold.PLP.part.buried>
-4.6059

> <Gold.PLP.part.nonpolar>
-31.5100

> <Gold.PLP.part.repulsive>
5.8895

> <Gold.PLP.ligand.clash>
0.0000

> <Gold.PLP.ligand.torsion>
0.3565

> <Gold.PLP.Chemscore.Hbond>
2.9913

> <Gold.PLP.Chemscore.CHOScore>
0.0000

> <Gold.PLP.Chemscore.Metal>
0.0000

> <Gold.Chemscore.Hbonds>
donor molecule, donor type, donor heavy atom, donor atom, acceptor molecule, acceptor atom, score
      P1  H  7989  7998       L1    18  1.00
      P1  H  7997  8008       L1    17  1.00
      P1  H  8011  8017       L1    20  1.00

> <Gold.PLP.Chemscore.Internal.Correction>
0.0335

> <Gold.Rescore>
     Score         DG    S(hbond)    S(metal)    S(lipo)     H(rot)  DE(clash)    DE(int)     intcor
     16.51     -19.25       2.61        0.00      87.58       2.02       2.21       0.54       ----

> <Gold.Chemscore.Fitness>
16.5066

> <Gold.Chemscore.DG>
-19.2491

> <Gold.Chemscore.ZeroCoef>
-5.4800

> <Gold.Chemscore.Hbond>
2.6055

> <Gold.Chemscore.Metal>
0.0000

> <Gold.Chemscore.Lipo>
87.5775

> <Gold.Chemscore.Internal_Hbond>
0.0000

> <Gold.Chemscore.DEClash>
2.2059

> <Gold.Chemscore.DEInternal>
0.5366

> <Gold.Chemscore.Rot>
2.0234

> <Gold.Chemscore.Internal.Correction>
   9.000000E+99

> <Gold.Chemscore.Hbonds>
donor molecule, donor type, donor heavy atom, donor atom, acceptor molecule, acceptor atom, score
      P1  H  7989  7998       L1    18  0.48
      P1  H  7997  8008       L1    17  1.00
      P1  H  8011  8017       L1    20  0.92

> <Gold.Chemscore.Hbond.Weighted>
-8.7024

> <Gold.Chemscore.Metal.Weighted>
-0.0000

> <Gold.Chemscore.Lipo.Weighted>
-10.2466

> <Gold.Chemscore.Internal_Hbond.Weighted>
0.0000

> <Gold.Chemscore.DEClash.Weighted>
2.2059

> <Gold.Chemscore.DEInternal.Weighted>
0.5366

> <Gold.Chemscore.Rot.Weighted>
5.1798

> <Gold.Chemscore.Internal.Correction.Weighted>
   9.000000E+99

> <Gold.Protein.RotatedTorsions>
[ 6907 6896 6895 6894 ] final  121.49 input  -60.11 | X-H torsion
[ 7974 7965 7964 7962 ] final  123.49 input  175.53 | X-H torsion
[ 8008 7997 7996 7995 ] final  -42.39 input   59.86 | X-H torsion
[ 10167 10162 10161 10158 ] final  141.06 input  -65.29 | X-H torsion
[ 10718 10713 10712 10709 ] final   -4.61 input   66.30 | X-H torsion
[ 10763 10752 10751 10750 ] final  -36.00 input  -60.55 | X-H torsion
[ 11005 11000 10999 10996 ] final   34.22 input  -57.11 | X-H torsion

> <Gold.Protein.ActiveResidues>
 VAL166  LYS551  ARG553  GLY616  TRP617  ASP618  TYR619  PRO620  LYS621  CYS622 
 ASP623  PHE694  ASN695  SER759  ASP760  ASP761  ALA762  ILE779  LEU786  VAL792 
 PHE793  MET794  SER795  GLU796  ALA797  LYS798  CYS799  TRP800  GLU811  SER814 

> <Gold.Protein.RotatedAtoms>
  152.4318  133.7290  159.6576 H   0  0  0  0  0  0  0  0  0  0  0  0  # atno 6907 bound_to 6896
  150.8197  133.8263  159.3150 H   0  0  0  0  0  0  0  0  0  0  0  0  # atno 6908 bound_to 6896
  151.5949  135.1053  160.0099 H   0  0  0  0  0  0  0  0  0  0  0  0  # atno 6909 bound_to 6896
  145.0953  139.3557  143.4840 H   0  0  0  0  0  0  0  0  0  0  0  0  # atno 7974 bound_to 7965
  154.3999  140.1475  156.3347 H   0  0  0  0  0  0  0  0  0  0  0  0  # atno 8008 bound_to 7997
  155.8411  140.3462  155.5611 H   0  0  0  0  0  0  0  0  0  0  0  0  # atno 8009 bound_to 7997
  155.8085  140.0880  157.1907 H   0  0  0  0  0  0  0  0  0  0  0  0  # atno 8010 bound_to 7997
  139.5031  144.6195  151.6085 H   0  0  0  0  0  0  0  0  0  0  0  0  # atno 10167 bound_to 10162
  156.7588  130.5263  149.5789 H   0  0  0  0  0  0  0  0  0  0  0  0  # atno 10718 bound_to 10713
  153.8725  135.6829  153.4773 H   0  0  0  0  0  0  0  0  0  0  0  0  # atno 10763 bound_to 10752
  153.1279  135.4711  154.9299 H   0  0  0  0  0  0  0  0  0  0  0  0  # atno 10764 bound_to 10752
  154.7707  135.3238  154.8146 H   0  0  0  0  0  0  0  0  0  0  0  0  # atno 10765 bound_to 10752
  140.2551  134.3258  155.7877 H   0  0  0  0  0  0  0  0  0  0  0  0  # atno 11005 bound_to 11000
  146.3531  140.0806  142.8618 LP  0  0  0  0  0  0  0  0  0  0  0  0  # atno 17320 bound_to 7965
  145.1018  140.9350  143.4708 LP  0  0  0  0  0  0  0  0  0  0  0  0  # atno 17321 bound_to 7965
  140.5893  143.9808  150.6314 LP  0  0  0  0  0  0  0  0  0  0  0  0  # atno 17342 bound_to 10162
  140.2983  143.3277  152.0996 LP  0  0  0  0  0  0  0  0  0  0  0  0  # atno 17343 bound_to 10162
  156.1353  130.6207  151.0391 LP  0  0  0  0  0  0  0  0  0  0  0  0  # atno 17370 bound_to 10713
  157.6744  131.0854  150.7531 LP  0  0  0  0  0  0  0  0  0  0  0  0  # atno 17371 bound_to 10713
  141.2197  133.7376  156.9098 LP  0  0  0  0  0  0  0  0  0  0  0  0  # atno 17394 bound_to 11000
  140.1520  134.9224  157.2604 LP  0  0  0  0  0  0  0  0  0  0  0  0  # atno 17395 bound_to 11000

$$$$
