AV-unprocessed.smi:1986|AV-procd|sdf|8052|dock1
  -GOLD-   2272010253D 1   1.00000     0.00000
 Structure written by MMmdl.
 48 49  0  0  0  0  0  0  0  0  2 V2000
  150.1457  131.8359  155.0360 C   0  0  0  0  0  0  0  0  0  0  0  0
  149.3404  132.6937  154.0440 C   0  0  0  0  0  0  0  0  0  0  0  0
  148.3336  133.7034  154.6751 C   0  0  1  0  0  0  0  0  0  0  0  0
  147.4078  132.9449  155.6618 C   0  0  0  0  0  0  0  0  0  0  0  0
  149.1200  134.7808  155.4915 C   0  0  0  0  0  0  0  0  0  0  0  0
  148.3390  135.3889  156.5672 N   0  0  0  0  0  0  0  0  0  0  0  0
  148.5796  135.2719  157.8807 C   0  0  0  0  0  0  0  0  0  0  0  0
  149.5630  134.6972  158.3463 O   0  0  0  0  0  0  0  0  0  0  0  0
  147.5319  135.8907  158.8129 C   0  0  0  0  0  0  0  0  0  0  0  0
  147.4870  135.2084  160.1134 N   0  0  0  0  0  0  0  0  0  0  0  0
  147.4266  133.8261  160.0287 N   0  0  0  0  0  0  0  0  0  0  0  0
  147.3748  133.1159  161.1046 C   0  0  0  0  0  0  0  0  0  0  0  0
  147.3142  131.7502  160.9754 O   0  0  0  0  0  0  0  0  0  0  0  0
  147.3805  133.7357  162.4116 C   0  0  0  0  0  0  0  0  0  0  0  0
  147.4442  135.0832  162.4848 C   0  0  0  0  0  0  0  0  0  0  0  0
  147.5054  135.9185  161.2846 C   0  0  0  0  0  0  0  0  0  0  0  0
  147.5634  137.1485  161.3207 O   0  0  0  0  0  0  0  0  0  0  0  0
  147.4919  134.3658  153.6097 N   0  3  0  0  0  0  0  0  0  0  0  0
  146.7566  133.4424  152.7006 C   0  0  0  0  0  0  0  0  0  0  0  0
  146.1387  134.2267  151.5326 C   0  0  0  0  0  0  0  0  0  0  0  0
  145.2502  135.2091  152.0457 O   0  0  0  0  0  0  0  0  0  0  0  0
  145.9250  136.1548  152.8638 C   0  0  0  0  0  0  0  0  0  0  0  0
  146.5719  135.4464  154.0675 C   0  0  0  0  0  0  0  0  0  0  0  0
  147.2950  131.4153  161.8587 H   0  0  0  0  0  0  0  0  0  0  0  0
  150.8199  131.1691  154.4980 H   0  0  0  0  0  0  0  0  0  0  0  0
  149.5007  131.2094  155.6514 H   0  0  0  0  0  0  0  0  0  0  0  0
  150.7589  132.4462  155.6984 H   0  0  0  0  0  0  0  0  0  0  0  0
  150.0599  133.2247  153.4213 H   0  0  0  0  0  0  0  0  0  0  0  0
  148.8155  132.0128  153.3746 H   0  0  0  0  0  0  0  0  0  0  0  0
  147.9287  132.6725  156.5800 H   0  0  0  0  0  0  0  0  0  0  0  0
  147.0295  132.0148  155.2367 H   0  0  0  0  0  0  0  0  0  0  0  0
  146.5468  133.5477  155.9521 H   0  0  0  0  0  0  0  0  0  0  0  0
  150.0477  134.3717  155.8950 H   0  0  0  0  0  0  0  0  0  0  0  0
  149.4359  135.5918  154.8352 H   0  0  0  0  0  0  0  0  0  0  0  0
  147.5161  135.9044  156.2899 H   0  0  0  0  0  0  0  0  0  0  0  0
  147.7710  136.9482  158.9391 H   0  0  0  0  0  0  0  0  0  0  0  0
  146.5437  135.8655  158.3488 H   0  0  0  0  0  0  0  0  0  0  0  0
  147.3354  133.1260  163.3022 H   0  0  0  0  0  0  0  0  0  0  0  0
  147.4491  135.5584  163.4548 H   0  0  0  0  0  0  0  0  0  0  0  0
  147.4111  132.6753  152.2907 H   0  0  0  0  0  0  0  0  0  0  0  0
  145.9632  132.9287  153.2436 H   0  0  0  0  0  0  0  0  0  0  0  0
  146.9125  134.6940  150.9208 H   0  0  0  0  0  0  0  0  0  0  0  0
  145.5805  133.5537  150.8818 H   0  0  0  0  0  0  0  0  0  0  0  0
  146.6712  136.6921  152.2775 H   0  0  0  0  0  0  0  0  0  0  0  0
  145.2041  136.8958  153.2100 H   0  0  0  0  0  0  0  0  0  0  0  0
  145.7912  135.0321  154.7055 H   0  0  0  0  0  0  0  0  0  0  0  0
  147.0950  136.2036  154.6484 H   0  0  0  0  0  0  0  0  0  0  0  0
  148.1650  134.8357  153.0201 H   0  0  0  0  0  0  0  0  0  0  0  0
  1  2  1  0  0  0  0
  1 25  1  0  0  0  0
  1 26  1  0  0  0  0
  1 27  1  0  0  0  0
  2  3  1  0  0  0  0
  2 28  1  0  0  0  0
  2 29  1  0  0  0  0
  3  4  1  0  0  0  0
  3  5  1  0  0  0  0
  3 18  1  0  0  0  0
  4 30  1  0  0  0  0
  4 31  1  0  0  0  0
  4 32  1  0  0  0  0
  5  6  1  0  0  0  0
  5 33  1  0  0  0  0
  5 34  1  0  0  0  0
  6  7  1  0  0  0  0
  6 35  1  0  0  0  0
  7  8  2  0  0  0  0
  7  9  1  0  0  0  0
  9 36  1  0  0  0  0
  9 37  1  0  0  0  0
  9 10  1  0  0  0  0
 10 11  1  0  0  0  0
 10 16  1  0  0  0  0
 11 12  2  0  0  0  0
 12 13  1  0  0  0  0
 12 14  1  0  0  0  0
 13 24  1  0  0  0  0
 14 38  1  0  0  0  0
 14 15  2  0  0  0  0
 15 39  1  0  0  0  0
 15 16  1  0  0  0  0
 16 17  2  0  0  0  0
 18 23  1  0  0  0  0
 18 19  1  0  0  0  0
 18 48  1  0  0  0  0
 19 20  1  0  0  0  0
 19 40  1  0  0  0  0
 19 41  1  0  0  0  0
 20 21  1  0  0  0  0
 20 42  1  0  0  0  0
 20 43  1  0  0  0  0
 21 22  1  0  0  0  0
 22 23  1  0  0  0  0
 22 44  1  0  0  0  0
 22 45  1  0  0  0  0
 23 46  1  0  0  0  0
 23 47  1  0  0  0  0
M  CHG  1  18   1
M  END
> <s_m_source_file>
AV-unprocessed.smi

> <i_m_source_file_index>
1986

> <i_lp_mmshare_version>
43012

> <i_f3d_flags>
0

> <s_epik_input>
W0NIMl0xW0NIMl1PW0NIMl1bQ0gyXU4xW0NAQF0oW0NIM10pKFtDSDJdW0NIM10pW0NIMl1bTkhdQyg9TylbQ0gyXW4yW25IXWMoPU8pW2NIXVtjSF1jMj1P

> <s_epik_cmdline>
J2VwaWtfcHl0aG9uJywgJy1waCcsICc3LjAnLCAnLXRuJywgJzgnLCAnLW1hJywgJzIwMCcsICctbWV0YWxfYmluZGluZycsICctaW1hZScsICc8aW5maWxlLm1hZT4nLCAnLW9tYWUnLCAnPG91dGZpbGUubWFlPic=

> <r_lp_tautomer_probability>
0.9996

> <r_epik_Ionization_Penalty>
2.73198

> <r_epik_Ionization_Penalty_Charging>
0.519658

> <r_epik_Ionization_Penalty_Neutral>
2.21233

> <r_epik_State_Penalty>
2.2852

> <r_epik_Charging_Adjusted_Penalty>
2.80486

> <i_epik_Tot_Q>
1

> <i_epik_Tot_abs_Q>
1

> <r_epik_Metal_State_Penalty>
2.2852

> <b_epik_Metal_Only>
0

> <s_lp_Force_Field>
OPLS_2005

> <r_lp_Energy>
43.5621

> <b_lp_Chiralities_Consistent>
1

> <s_lp_Variant>
AV-unprocessed.smi:1986-7

> <Gold.Version>
5.8.1

> <Gold.Id.Protein>
6NUR|6NUR_protein|mol2

> <Gold.PLP.Fitness>
46.5340

> <Gold.PLP.PLP>
-33.5900

> <Gold.PLP.part.hbond>
-4.0000

> <Gold.PLP.part.metal>
0.0000

> <Gold.PLP.part.buried>
-4.4088

> <Gold.PLP.part.nonpolar>
-24.9990

> <Gold.PLP.part.repulsive>
0.1299

> <Gold.PLP.ligand.clash>
0.0000

> <Gold.PLP.ligand.torsion>
0.9765

> <Gold.PLP.Chemscore.Hbond>
4.8560

> <Gold.PLP.Chemscore.CHOScore>
0.0000

> <Gold.PLP.Chemscore.Metal>
0.0000

> <Gold.Chemscore.Hbonds>
donor molecule, donor type, donor heavy atom, donor atom, acceptor molecule, acceptor atom, score
      L1  H    18    48       P1  7948  2.00
      P1  H  6896  6909       L1     8  1.00
      P1  H  6931  6943       L1    17  0.96
      P1  H  6934  6947       L1    17  0.90

> <Gold.PLP.Chemscore.Internal.Correction>
0.3290

> <Gold.Rescore>
     Score         DG    S(hbond)    S(metal)    S(lipo)     H(rot)  DE(clash)    DE(int)     intcor
     13.51     -16.57       3.74        0.00      56.80       3.15       0.03       3.04       ----

> <Gold.Chemscore.Fitness>
13.5087

> <Gold.Chemscore.DG>
-16.5724

> <Gold.Chemscore.ZeroCoef>
-5.4800

> <Gold.Chemscore.Hbond>
3.7447

> <Gold.Chemscore.Metal>
0.0000

> <Gold.Chemscore.Lipo>
56.7967

> <Gold.Chemscore.Internal_Hbond>
0.0000

> <Gold.Chemscore.DEClash>
0.0282

> <Gold.Chemscore.DEInternal>
3.0355

> <Gold.Chemscore.Rot>
3.1485

> <Gold.Chemscore.Internal.Correction>
   9.000000E+99

> <Gold.Chemscore.Hbonds>
donor molecule, donor type, donor heavy atom, donor atom, acceptor molecule, acceptor atom, score
      L1  H    18    48       P1  7948  0.81
      P1  H  6896  6909       L1     8  0.97
      P1  H  6931  6943       L1    17  0.92
      P1  H  6934  6947       L1    17  0.87

> <Gold.Chemscore.Hbond.Weighted>
-12.5073

> <Gold.Chemscore.Metal.Weighted>
-0.0000

> <Gold.Chemscore.Lipo.Weighted>
-6.6452

> <Gold.Chemscore.Internal_Hbond.Weighted>
0.0000

> <Gold.Chemscore.DEClash.Weighted>
0.0282

> <Gold.Chemscore.DEInternal.Weighted>
3.0355

> <Gold.Chemscore.Rot.Weighted>
8.0601

> <Gold.Chemscore.Internal.Correction.Weighted>
   9.000000E+99

> <Gold.Protein.RotatedTorsions>
[ 6907 6896 6895 6894 ] final   21.95 input  -60.11 | X-H torsion
[ 7974 7965 7964 7962 ] final   45.12 input  175.53 | X-H torsion
[ 8008 7997 7996 7995 ] final  -31.57 input   59.86 | X-H torsion
[ 10167 10162 10161 10158 ] final  117.24 input  -65.29 | X-H torsion
[ 10718 10713 10712 10709 ] final -161.94 input   66.30 | X-H torsion
[ 10763 10752 10751 10750 ] final   84.58 input  -60.55 | X-H torsion
[ 11005 11000 10999 10996 ] final -111.02 input  -57.11 | X-H torsion

> <Gold.Protein.ActiveResidues>
 VAL166  LYS551  ARG553  GLY616  TRP617  ASP618  TYR619  PRO620  LYS621  CYS622 
 ASP623  PHE694  ASN695  SER759  ASP760  ASP761  ALA762  ILE779  LEU786  VAL792 
 PHE793  MET794  SER795  GLU796  ALA797  LYS798  CYS799  TRP800  GLU811  SER814 

> <Gold.Protein.RotatedAtoms>
  151.9197  135.0304  160.0520 H   0  0  0  0  0  0  0  0  0  0  0  0  # atno 6907 bound_to 6896
  152.2210  133.4979  159.5171 H   0  0  0  0  0  0  0  0  0  0  0  0  # atno 6908 bound_to 6896
  150.7000  134.1259  159.4094 H   0  0  0  0  0  0  0  0  0  0  0  0  # atno 6909 bound_to 6896
  146.0508  139.4999  142.9719 H   0  0  0  0  0  0  0  0  0  0  0  0  # atno 7974 bound_to 7965
  154.4209  140.1761  156.1588 H   0  0  0  0  0  0  0  0  0  0  0  0  # atno 8008 bound_to 7997
  155.9855  140.3373  155.6678 H   0  0  0  0  0  0  0  0  0  0  0  0  # atno 8009 bound_to 7997
  155.6443  140.0683  157.2599 H   0  0  0  0  0  0  0  0  0  0  0  0  # atno 8010 bound_to 7997
  139.6192  144.7098  151.2671 H   0  0  0  0  0  0  0  0  0  0  0  0  # atno 10167 bound_to 10162
  156.6033  130.8820  151.2919 H   0  0  0  0  0  0  0  0  0  0  0  0  # atno 10718 bound_to 10713
  153.1395  135.4649  154.9474 H   0  0  0  0  0  0  0  0  0  0  0  0  # atno 10763 bound_to 10752
  154.7735  135.3166  154.8144 H   0  0  0  0  0  0  0  0  0  0  0  0  # atno 10764 bound_to 10752
  153.8669  135.6907  153.4832 H   0  0  0  0  0  0  0  0  0  0  0  0  # atno 10765 bound_to 10752
  141.0758  133.9303  157.2392 H   0  0  0  0  0  0  0  0  0  0  0  0  # atno 11005 bound_to 11000
  145.6728  141.0212  143.1648 LP  0  0  0  0  0  0  0  0  0  0  0  0  # atno 17320 bound_to 7965
  144.7121  139.8330  143.7411 LP  0  0  0  0  0  0  0  0  0  0  0  0  # atno 17321 bound_to 7965
  140.7371  143.6688  150.8100 LP  0  0  0  0  0  0  0  0  0  0  0  0  # atno 17342 bound_to 10162
  140.0296  143.5458  152.2766 LP  0  0  0  0  0  0  0  0  0  0  0  0  # atno 17343 bound_to 10162
  157.7274  130.9642  150.1696 LP  0  0  0  0  0  0  0  0  0  0  0  0  # atno 17370 bound_to 10713
  156.2450  130.3695  149.8294 LP  0  0  0  0  0  0  0  0  0  0  0  0  # atno 17371 bound_to 10713
  139.9571  135.0163  156.9157 LP  0  0  0  0  0  0  0  0  0  0  0  0  # atno 17394 bound_to 11000
  140.5575  134.0567  155.7388 LP  0  0  0  0  0  0  0  0  0  0  0  0  # atno 17395 bound_to 11000

$$$$
