AV-unprocessed.smi:283|AV-procd|sdf|2148|dock4
  -GOLD-   2262021483D 1   1.00000     0.00000
 Structure written by MMmdl.
 48 51  0  0  0  0  0  0  0  0  1 V2000
  151.1671  143.6103  157.0578 C   0  0  0  0  0  0  0  0  0  0  0  0
  151.2588  142.3595  157.9504 C   0  0  1  0  0  0  0  0  0  0  0  0
  151.9539  141.2709  157.2640 N   0  0  0  0  0  0  0  0  0  0  0  0
  151.2816  140.2706  156.6521 C   0  0  0  0  0  0  0  0  0  0  0  0
  151.0129  140.3087  155.3210 N   0  0  0  0  0  0  0  0  0  0  0  0
  150.3463  139.3041  154.7448 C   0  0  0  0  0  0  0  0  0  0  0  0
  149.8606  138.1946  155.3060 N   0  0  0  0  0  0  0  0  0  0  0  0
  150.1160  138.1577  156.6461 C   0  0  0  0  0  0  0  0  0  0  0  0
  150.8238  139.1455  157.3851 C   0  0  0  0  0  0  0  0  0  0  0  0
  150.9167  138.7598  158.7152 N   0  0  0  0  0  0  0  0  0  0  0  0
  150.3053  137.6066  158.7524 C   0  0  0  0  0  0  0  0  0  0  0  0
  149.7561  137.1863  157.5583 N   0  0  0  0  0  0  0  0  0  0  0  0
  149.0203  135.9138  157.2560 C   0  0  1  0  0  0  0  0  0  0  0  0
  149.4613  135.4312  156.0188 O   0  0  0  0  0  0  0  0  0  0  0  0
  150.3813  134.3573  156.1931 C   0  0  1  0  0  0  0  0  0  0  0  0
  151.8246  134.9037  156.2775 C   0  0  0  0  0  0  0  0  0  0  0  0
  152.7215  133.8938  156.6911 O   0  0  0  0  0  0  0  0  0  0  0  0
  149.8406  133.6668  157.4523 C   0  0  1  0  0  0  0  0  0  0  0  0
  150.8230  132.9150  158.1379 O   0  0  0  0  0  0  0  0  0  0  0  0
  149.3250  134.8217  158.3035 C   0  0  2  0  0  0  0  0  0  0  0  0
  148.1588  134.4214  158.9955 O   0  0  0  0  0  0  0  0  0  0  0  0
  151.9037  142.7184  159.2886 C   0  0  0  0  0  0  0  0  0  0  0  0
  151.5142  143.8963  159.9694 C   0  0  0  0  0  0  0  0  0  0  0  0
  152.0950  144.2374  161.2055 C   0  0  0  0  0  0  0  0  0  0  0  0
  153.0680  143.4004  161.7799 C   0  0  0  0  0  0  0  0  0  0  0  0
  153.4541  142.2200  161.1191 C   0  0  0  0  0  0  0  0  0  0  0  0
  152.8764  141.8731  159.8813 C   0  0  0  0  0  0  0  0  0  0  0  0
  153.3783  140.4006  159.1257 Cl  0  0  0  0  0  0  0  0  0  0  0  0
  147.9734  136.2164  157.2065 H   0  0  0  0  0  0  0  0  0  0  0  0
  150.3015  133.6987  155.3272 H   0  0  0  0  0  0  0  0  0  0  0  0
  149.0192  133.0090  157.1624 H   0  0  0  0  0  0  0  0  0  0  0  0
  150.0909  135.1654  159.0006 H   0  0  0  0  0  0  0  0  0  0  0  0
  150.6057  144.4028  157.5536 H   0  0  0  0  0  0  0  0  0  0  0  0
  150.6633  143.4006  156.1143 H   0  0  0  0  0  0  0  0  0  0  0  0
  152.1573  144.0023  156.8239 H   0  0  0  0  0  0  0  0  0  0  0  0
  150.2499  142.0070  158.1604 H   0  0  0  0  0  0  0  0  0  0  0  0
  152.9591  141.3548  157.2222 H   0  0  0  0  0  0  0  0  0  0  0  0
  150.1757  139.4041  153.6830 H   0  0  0  0  0  0  0  0  0  0  0  0
  150.2389  137.0325  159.6645 H   0  0  0  0  0  0  0  0  0  0  0  0
  152.1541  135.2343  155.2929 H   0  0  0  0  0  0  0  0  0  0  0  0
  151.8954  135.7615  156.9467 H   0  0  0  0  0  0  0  0  0  0  0  0
  153.0284  134.1022  157.5603 H   0  0  0  0  0  0  0  0  0  0  0  0
  150.3871  132.2784  158.6837 H   0  0  0  0  0  0  0  0  0  0  0  0
  148.2845  133.5401  159.3115 H   0  0  0  0  0  0  0  0  0  0  0  0
  150.7613  144.5483  159.5516 H   0  0  0  0  0  0  0  0  0  0  0  0
  151.7912  145.1403  161.7142 H   0  0  0  0  0  0  0  0  0  0  0  0
  153.5141  143.6601  162.7285 H   0  0  0  0  0  0  0  0  0  0  0  0
  154.1959  141.5753  161.5671 H   0  0  0  0  0  0  0  0  0  0  0  0
  1  2  1  0  0  0  0
  1 33  1  0  0  0  0
  1 34  1  0  0  0  0
  1 35  1  0  0  0  0
  2  3  1  0  0  0  0
  2 22  1  0  0  0  0
  2 36  1  0  0  0  0
  3  4  1  0  0  0  0
  3 37  1  0  0  0  0
  4  9  1  0  0  0  0
  4  5  2  0  0  0  0
  5  6  1  0  0  0  0
  6  7  2  0  0  0  0
  6 38  1  0  0  0  0
  7  8  1  0  0  0  0
  8 12  1  0  0  0  0
  8  9  2  0  0  0  0
  9 10  1  0  0  0  0
 10 11  2  0  0  0  0
 11 12  1  0  0  0  0
 11 39  1  0  0  0  0
 12 13  1  0  0  0  0
 13 29  1  0  0  0  0
 13 20  1  0  0  0  0
 13 14  1  0  0  0  0
 14 15  1  0  0  0  0
 15 30  1  0  0  0  0
 15 16  1  0  0  0  0
 15 18  1  0  0  0  0
 16 17  1  0  0  0  0
 16 40  1  0  0  0  0
 16 41  1  0  0  0  0
 17 42  1  0  0  0  0
 18 31  1  0  0  0  0
 18 19  1  0  0  0  0
 18 20  1  0  0  0  0
 19 43  1  0  0  0  0
 20 32  1  0  0  0  0
 20 21  1  0  0  0  0
 21 44  1  0  0  0  0
 22 27  1  0  0  0  0
 22 23  2  0  0  0  0
 23 24  1  0  0  0  0
 23 45  1  0  0  0  0
 24 25  2  0  0  0  0
 24 46  1  0  0  0  0
 25 26  1  0  0  0  0
 25 47  1  0  0  0  0
 26 27  2  0  0  0  0
 26 48  1  0  0  0  0
 27 28  1  0  0  0  0
M  END
> <s_m_source_file>
AV-unprocessed.smi

> <i_m_source_file_index>
283

> <i_lp_mmshare_version>
43012

> <i_f3d_flags>
0

> <s_epik_input>
Q2xjMVtjSF1bY0hdW2NIXVtjSF1jMVtDQEhdKFtDSDNdKVtOSF1jKG5bY0hdbjIpYyhjMjMpbltjSF1uM1tDQEBIXTRPW0NASF0oW0NIMl1bT0hdKVtDQEBIXShbT0hdKVtDQEhdNFtPSF0=

> <s_epik_cmdline>
J2VwaWtfcHl0aG9uJywgJy1waCcsICc3LjAnLCAnLXRuJywgJzgnLCAnLW1hJywgJzIwMCcsICctbWV0YWxfYmluZGluZycsICctaW1hZScsICc8aW5maWxlLm1hZT4nLCAnLW9tYWUnLCAnPG91dGZpbGUubWFlPic=

> <r_lp_tautomer_probability>
1

> <r_epik_Ionization_Penalty>
0.000266407

> <r_epik_Ionization_Penalty_Charging>
0

> <r_epik_Ionization_Penalty_Neutral>
0.000266407

> <r_epik_State_Penalty>
-0

> <r_epik_Charging_Adjusted_Penalty>
0

> <i_epik_Tot_Q>
0

> <i_epik_Tot_abs_Q>
0

> <r_epik_Metal_State_Penalty>
-0

> <b_epik_Metal_Only>
0

> <s_epik_Chemistry_Notes>
This compound contains an acetal/aminal-like group ( X-CH(R)-Y where X, Y are N, S, or O) that may be acid/base labile, releasing an aldehyde.

> <s_lp_Force_Field>
OPLS_2005

> <r_lp_Energy>
43.8521

> <b_lp_Chiralities_Consistent>
1

> <s_lp_Variant>
AV-unprocessed.smi:283-24

> <Gold.Version>
5.8.1

> <Gold.Id.Protein>
6NUR|6NUR_protein|mol2

> <Gold.PLP.Fitness>
44.0537

> <Gold.PLP.PLP>
-41.0658

> <Gold.PLP.part.hbond>
-2.6892

> <Gold.PLP.part.metal>
0.0000

> <Gold.PLP.part.buried>
-4.7047

> <Gold.PLP.part.nonpolar>
-33.1423

> <Gold.PLP.part.repulsive>
0.2875

> <Gold.PLP.ligand.clash>
0.0000

> <Gold.PLP.ligand.torsion>
2.0023

> <Gold.PLP.Chemscore.Hbond>
1.3500

> <Gold.PLP.Chemscore.CHOScore>
0.9361

> <Gold.PLP.Chemscore.Metal>
0.0000

> <Gold.Chemscore.Hbonds>
donor molecule, donor type, donor heavy atom, donor atom, acceptor molecule, acceptor atom, score
      P1  H  6896  6908       L1    19  0.09
      P1  H  7989  7998       L1     5  0.45
      L1  C     6    38       P1  7957  0.69

> <Gold.PLP.Chemscore.Internal.Correction>
0.1344

> <Gold.Rescore>
     Score         DG    S(hbond)    S(metal)    S(lipo)     H(rot)  DE(clash)    DE(int)     intcor
      6.81     -13.51       1.80        0.00     106.82       4.10       1.75       4.94       ----

> <Gold.Chemscore.Fitness>
6.8072

> <Gold.Chemscore.DG>
-13.5058

> <Gold.Chemscore.ZeroCoef>
-5.4800

> <Gold.Chemscore.Hbond>
1.8010

> <Gold.Chemscore.Metal>
0.0000

> <Gold.Chemscore.Lipo>
106.8229

> <Gold.Chemscore.Internal_Hbond>
0.0000

> <Gold.Chemscore.DEClash>
1.7541

> <Gold.Chemscore.DEInternal>
4.9446

> <Gold.Chemscore.Rot>
4.0968

> <Gold.Chemscore.Internal.Correction>
   9.000000E+99

> <Gold.Chemscore.Hbonds>
donor molecule, donor type, donor heavy atom, donor atom, acceptor molecule, acceptor atom, score
      P1  H  7989  7998       L1     5  0.01

> <Gold.Chemscore.Hbond.Weighted>
-6.0155

> <Gold.Chemscore.Metal.Weighted>
-0.0000

> <Gold.Chemscore.Lipo.Weighted>
-12.4983

> <Gold.Chemscore.Internal_Hbond.Weighted>
0.0000

> <Gold.Chemscore.DEClash.Weighted>
1.7541

> <Gold.Chemscore.DEInternal.Weighted>
4.9446

> <Gold.Chemscore.Rot.Weighted>
10.4879

> <Gold.Chemscore.Internal.Correction.Weighted>
   9.000000E+99

> <Gold.Protein.RotatedTorsions>
[ 6907 6896 6895 6894 ] final  105.16 input  -60.11 | X-H torsion
[ 7974 7965 7964 7962 ] final -177.15 input  175.53 | X-H torsion
[ 8008 7997 7996 7995 ] final  -12.97 input   59.86 | X-H torsion
[ 10167 10162 10161 10158 ] final   58.53 input  -65.29 | X-H torsion
[ 10718 10713 10712 10709 ] final -153.45 input   66.30 | X-H torsion
[ 10763 10752 10751 10750 ] final -105.85 input  -60.55 | X-H torsion
[ 11005 11000 10999 10996 ] final  127.39 input  -57.11 | X-H torsion

> <Gold.Protein.ActiveResidues>
 VAL166  LYS551  ARG553  GLY616  TRP617  ASP618  TYR619  PRO620  LYS621  CYS622 
 ASP623  PHE694  ASN695  SER759  ASP760  ASP761  ALA762  ILE779  LEU786  VAL792 
 PHE793  MET794  SER795  GLU796  ALA797  LYS798  CYS799  TRP800  GLU811  SER814 

> <Gold.Protein.RotatedAtoms>
  152.5240  133.9570  159.7698 H   0  0  0  0  0  0  0  0  0  0  0  0  # atno 6907 bound_to 6896
  150.9868  133.6181  159.2721 H   0  0  0  0  0  0  0  0  0  0  0  0  # atno 6908 bound_to 6896
  151.3339  135.0854  159.9401 H   0  0  0  0  0  0  0  0  0  0  0  0  # atno 6909 bound_to 6896
  144.7127  140.1063  143.6413 H   0  0  0  0  0  0  0  0  0  0  0  0  # atno 7974 bound_to 7965
  154.5331  140.2262  155.8769 H   0  0  0  0  0  0  0  0  0  0  0  0  # atno 8008 bound_to 7997
  156.1784  140.3106  155.9066 H   0  0  0  0  0  0  0  0  0  0  0  0  # atno 8009 bound_to 7997
  155.3409  140.0450  157.3035 H   0  0  0  0  0  0  0  0  0  0  0  0  # atno 8010 bound_to 7997
  140.1863  144.4131  150.6592 H   0  0  0  0  0  0  0  0  0  0  0  0  # atno 10167 bound_to 10162
  156.4860  130.8325  151.2550 H   0  0  0  0  0  0  0  0  0  0  0  0  # atno 10718 bound_to 10713
  154.7973  135.4734  154.0192 H   0  0  0  0  0  0  0  0  0  0  0  0  # atno 10763 bound_to 10752
  153.1725  135.6827  153.8595 H   0  0  0  0  0  0  0  0  0  0  0  0  # atno 10764 bound_to 10752
  153.8173  135.3209  155.3384 H   0  0  0  0  0  0  0  0  0  0  0  0  # atno 10765 bound_to 10752
  139.9505  134.9623  156.8848 H   0  0  0  0  0  0  0  0  0  0  0  0  # atno 11005 bound_to 11000
  145.9494  139.2723  143.1221 LP  0  0  0  0  0  0  0  0  0  0  0  0  # atno 17320 bound_to 7965
  145.9339  140.9028  143.0342 LP  0  0  0  0  0  0  0  0  0  0  0  0  # atno 17321 bound_to 7965
  140.6486  143.2219  151.6129 LP  0  0  0  0  0  0  0  0  0  0  0  0  # atno 17342 bound_to 10162
  139.5275  144.3016  152.1069 LP  0  0  0  0  0  0  0  0  0  0  0  0  # atno 17343 bound_to 10162
  157.7478  131.0029  150.3018 LP  0  0  0  0  0  0  0  0  0  0  0  0  # atno 17370 bound_to 10713
  156.3474  130.3825  149.7358 LP  0  0  0  0  0  0  0  0  0  0  0  0  # atno 17371 bound_to 10713
  140.5730  134.0425  155.7437 LP  0  0  0  0  0  0  0  0  0  0  0  0  # atno 17394 bound_to 11000
  141.1167  133.9529  157.2809 LP  0  0  0  0  0  0  0  0  0  0  0  0  # atno 17395 bound_to 11000

$$$$
