AV-unprocessed.smi:2270|AV-procd|sdf|9156|dock5
  -GOLD-   2272012363D 1   1.00000     0.00000
 Structure written by MMmdl.
 53 54  0  0  0  0  0  0  0  0  2 V2000
  152.9510  141.6401  160.5514 C   0  0  0  0  0  0  0  0  0  0  0  0
  152.4187  142.5673  159.4790 C   0  0  0  0  0  0  0  0  0  0  0  0
  152.7021  143.9468  159.5084 C   0  0  0  0  0  0  0  0  0  0  0  0
  152.1816  144.7526  158.4800 C   0  0  0  0  0  0  0  0  0  0  0  0
  151.4064  144.1498  157.4705 C   0  0  0  0  0  0  0  0  0  0  0  0
  151.1703  142.7573  157.5142 C   0  0  0  0  0  0  0  0  0  0  0  0
  150.3792  142.2470  156.4511 N   0  0  0  0  0  0  0  0  0  0  0  0
  150.1837  140.9625  156.1048 C   0  0  0  0  0  0  0  0  0  0  0  0
  150.6758  139.9861  156.6705 O   0  0  0  0  0  0  0  0  0  0  0  0
  149.3560  140.8635  155.0547 N   0  0  0  0  0  0  0  0  0  0  0  0
  148.9546  139.6093  154.4240 C   0  0  0  0  0  0  0  0  0  0  0  0
  147.7445  139.7357  153.4494 C   0  0  2  0  0  0  0  0  0  0  0  0
  146.5810  140.5783  154.0481 C   0  0  0  0  0  0  0  0  0  0  0  0
  146.8540  142.0926  153.9455 C   0  0  0  0  0  0  0  0  0  0  0  0
  146.2791  140.2280  155.5180 C   0  0  0  0  0  0  0  0  0  0  0  0
  147.2158  138.4240  152.9586 N   0  3  0  0  0  0  0  0  0  0  0  0
  146.4797  138.4471  151.6693 C   0  0  0  0  0  0  0  0  0  0  0  0
  146.2448  137.0067  151.1690 C   0  0  0  0  0  0  0  0  0  0  0  0
  145.5342  136.1877  152.1543 N   0  0  0  0  0  0  0  0  0  0  0  0
  144.1301  136.5562  152.3025 C   0  0  0  0  0  0  0  0  0  0  0  0
  146.2641  136.1828  153.4241 C   0  0  0  0  0  0  0  0  0  0  0  0
  146.4952  137.6081  153.9671 C   0  0  0  0  0  0  0  0  0  0  0  0
  151.6747  141.9890  158.5115 N   0  0  0  0  0  0  0  0  0  0  0  0
  153.3459  142.2022  161.3979 H   0  0  0  0  0  0  0  0  0  0  0  0
  153.7523  141.0202  160.1488 H   0  0  0  0  0  0  0  0  0  0  0  0
  152.1609  140.9849  160.9197 H   0  0  0  0  0  0  0  0  0  0  0  0
  153.3026  144.3782  160.2958 H   0  0  0  0  0  0  0  0  0  0  0  0
  152.3742  145.8152  158.4641 H   0  0  0  0  0  0  0  0  0  0  0  0
  151.0010  144.7551  156.6727 H   0  0  0  0  0  0  0  0  0  0  0  0
  149.9076  142.9418  155.8916 H   0  0  0  0  0  0  0  0  0  0  0  0
  148.9990  141.7154  154.6468 H   0  0  0  0  0  0  0  0  0  0  0  0
  149.8207  139.1996  153.9038 H   0  0  0  0  0  0  0  0  0  0  0  0
  148.7311  138.9033  155.2237 H   0  0  0  0  0  0  0  0  0  0  0  0
  148.0909  140.2895  152.5755 H   0  0  0  0  0  0  0  0  0  0  0  0
  145.6750  140.3718  153.4776 H   0  0  0  0  0  0  0  0  0  0  0  0
  147.7743  142.3649  154.4635 H   0  0  0  0  0  0  0  0  0  0  0  0
  146.0423  142.6689  154.3906 H   0  0  0  0  0  0  0  0  0  0  0  0
  146.9425  142.4247  152.9110 H   0  0  0  0  0  0  0  0  0  0  0  0
  147.1721  140.3122  156.1382 H   0  0  0  0  0  0  0  0  0  0  0  0
  145.8860  139.2178  155.6260 H   0  0  0  0  0  0  0  0  0  0  0  0
  145.5254  140.8970  155.9348 H   0  0  0  0  0  0  0  0  0  0  0  0
  145.5304  138.9720  151.7706 H   0  0  0  0  0  0  0  0  0  0  0  0
  147.0606  138.9920  150.9253 H   0  0  0  0  0  0  0  0  0  0  0  0
  145.6898  137.0153  150.2304 H   0  0  0  0  0  0  0  0  0  0  0  0
  147.2050  136.5351  150.9552 H   0  0  0  0  0  0  0  0  0  0  0  0
  143.6332  135.8748  152.9937 H   0  0  0  0  0  0  0  0  0  0  0  0
  143.6180  136.4833  151.3427 H   0  0  0  0  0  0  0  0  0  0  0  0
  143.9988  137.5703  152.6778 H   0  0  0  0  0  0  0  0  0  0  0  0
  145.7259  135.5786  154.1556 H   0  0  0  0  0  0  0  0  0  0  0  0
  147.2264  135.6931  153.2677 H   0  0  0  0  0  0  0  0  0  0  0  0
  147.0881  137.5460  154.8801 H   0  0  0  0  0  0  0  0  0  0  0  0
  145.5475  138.0673  154.2409 H   0  0  0  0  0  0  0  0  0  0  0  0
  148.0500  137.8867  152.7710 H   0  0  0  0  0  0  0  0  0  0  0  0
  1  2  1  0  0  0  0
  1 24  1  0  0  0  0
  1 25  1  0  0  0  0
  1 26  1  0  0  0  0
  2 23  1  0  0  0  0
  2  3  2  0  0  0  0
  3  4  1  0  0  0  0
  3 27  1  0  0  0  0
  4  5  2  0  0  0  0
  4 28  1  0  0  0  0
  5  6  1  0  0  0  0
  5 29  1  0  0  0  0
  6  7  1  0  0  0  0
  6 23  2  0  0  0  0
  7  8  1  0  0  0  0
  7 30  1  0  0  0  0
  8  9  2  0  0  0  0
  8 10  1  0  0  0  0
 10 11  1  0  0  0  0
 10 31  1  0  0  0  0
 11 12  1  0  0  0  0
 11 32  1  0  0  0  0
 11 33  1  0  0  0  0
 12 13  1  0  0  0  0
 12 16  1  0  0  0  0
 12 34  1  0  0  0  0
 13 14  1  0  0  0  0
 13 15  1  0  0  0  0
 13 35  1  0  0  0  0
 14 36  1  0  0  0  0
 14 37  1  0  0  0  0
 14 38  1  0  0  0  0
 15 39  1  0  0  0  0
 15 40  1  0  0  0  0
 15 41  1  0  0  0  0
 16 22  1  0  0  0  0
 16 17  1  0  0  0  0
 16 53  1  0  0  0  0
 17 18  1  0  0  0  0
 17 42  1  0  0  0  0
 17 43  1  0  0  0  0
 18 19  1  0  0  0  0
 18 44  1  0  0  0  0
 18 45  1  0  0  0  0
 19 20  1  0  0  0  0
 19 21  1  0  0  0  0
 20 46  1  0  0  0  0
 20 47  1  0  0  0  0
 20 48  1  0  0  0  0
 21 22  1  0  0  0  0
 21 49  1  0  0  0  0
 21 50  1  0  0  0  0
 22 51  1  0  0  0  0
 22 52  1  0  0  0  0
M  CHG  1  16   1
M  END
> <s_m_source_file>
AV-unprocessed.smi

> <i_m_source_file_index>
2270

> <i_lp_mmshare_version>
43012

> <i_f3d_flags>
0

> <s_epik_input>
W0NIM11jMVtjSF1bY0hdW2NIXWMobjEpW05IXUMoPU8pW05IXVtDSDJdW0NASF0oW0NIXShbQ0gzXSlbQ0gzXSlOMltDSDJdW0NIMl1OKFtDSDNdKVtDSDJdW0NIMl0y

> <s_epik_cmdline>
J2VwaWtfcHl0aG9uJywgJy1waCcsICc3LjAnLCAnLXRuJywgJzgnLCAnLW1hJywgJzIwMCcsICctbWV0YWxfYmluZGluZycsICctaW1hZScsICc8aW5maWxlLm1hZT4nLCAnLW9tYWUnLCAnPG91dGZpbGUubWFlPic=

> <r_epik_Ionization_Penalty>
0.201855

> <r_epik_Ionization_Penalty_Charging>
0.20006

> <r_epik_Ionization_Penalty_Neutral>
0.00179462

> <r_epik_State_Penalty>
1.43207

> <r_epik_Charging_Adjusted_Penalty>
1.63213

> <i_epik_Tot_Q>
1

> <i_epik_Tot_abs_Q>
1

> <r_epik_Metal_State_Penalty>
1.43208

> <b_epik_Metal_Only>
0

> <s_lp_Force_Field>
OPLS_2005

> <r_lp_Energy>
33.4642

> <b_lp_Chiralities_Consistent>
1

> <s_lp_Variant>
AV-unprocessed.smi:2270-3

> <Gold.Version>
5.8.1

> <Gold.Id.Protein>
6NUR|6NUR_protein|mol2

> <Gold.PLP.Fitness>
49.4783

> <Gold.PLP.PLP>
-42.7821

> <Gold.PLP.part.hbond>
-2.0000

> <Gold.PLP.part.metal>
0.0000

> <Gold.PLP.part.buried>
0.8202

> <Gold.PLP.part.nonpolar>
-43.1600

> <Gold.PLP.part.repulsive>
0.4379

> <Gold.PLP.ligand.clash>
0.0000

> <Gold.PLP.ligand.torsion>
0.8466

> <Gold.PLP.Chemscore.Hbond>
2.7309

> <Gold.PLP.Chemscore.CHOScore>
0.0000

> <Gold.PLP.Chemscore.Metal>
0.0000

> <Gold.Chemscore.Hbonds>
donor molecule, donor type, donor heavy atom, donor atom, acceptor molecule, acceptor atom, score
      L1  H     7    30       P1  8028  0.93
      L1  H    16    53       P1  7948  1.74

> <Gold.PLP.Chemscore.Internal.Correction>
0.1966

> <Gold.Rescore>
     Score         DG    S(hbond)    S(metal)    S(lipo)     H(rot)  DE(clash)    DE(int)     intcor
     16.59     -19.74       1.61        0.00     111.20       1.61       0.33       2.83       ----

> <Gold.Chemscore.Fitness>
16.5924

> <Gold.Chemscore.DG>
-19.7431

> <Gold.Chemscore.ZeroCoef>
-5.4800

> <Gold.Chemscore.Hbond>
1.6068

> <Gold.Chemscore.Metal>
0.0000

> <Gold.Chemscore.Lipo>
111.2002

> <Gold.Chemscore.Internal_Hbond>
0.0000

> <Gold.Chemscore.DEClash>
0.3251

> <Gold.Chemscore.DEInternal>
2.8256

> <Gold.Chemscore.Rot>
1.6070

> <Gold.Chemscore.Internal.Correction>
   9.000000E+99

> <Gold.Chemscore.Hbonds>
donor molecule, donor type, donor heavy atom, donor atom, acceptor molecule, acceptor atom, score
      L1  H     7    30       P1  8028  0.86
      L1  H    16    53       P1  7948  0.80

> <Gold.Chemscore.Hbond.Weighted>
-5.3666

> <Gold.Chemscore.Metal.Weighted>
-0.0000

> <Gold.Chemscore.Lipo.Weighted>
-13.0104

> <Gold.Chemscore.Internal_Hbond.Weighted>
0.0000

> <Gold.Chemscore.DEClash.Weighted>
0.3251

> <Gold.Chemscore.DEInternal.Weighted>
2.8256

> <Gold.Chemscore.Rot.Weighted>
4.1140

> <Gold.Chemscore.Internal.Correction.Weighted>
   9.000000E+99

> <Gold.Protein.RotatedTorsions>
[ 6907 6896 6895 6894 ] final -106.64 input  -60.11 | X-H torsion
[ 7974 7965 7964 7962 ] final  -53.09 input  175.53 | X-H torsion
[ 8008 7997 7996 7995 ] final  -91.38 input   59.86 | X-H torsion
[ 10167 10162 10161 10158 ] final   33.57 input  -65.29 | X-H torsion
[ 10718 10713 10712 10709 ] final  -61.09 input   66.30 | X-H torsion
[ 10763 10752 10751 10750 ] final   44.88 input  -60.55 | X-H torsion
[ 11005 11000 10999 10996 ] final  -33.23 input  -57.11 | X-H torsion

> <Gold.Protein.ActiveResidues>
 VAL166  LYS551  ARG553  GLY616  TRP617  ASP618  TYR619  PRO620  LYS621  CYS622 
 ASP623  PHE694  ASN695  SER759  ASP760  ASP761  ALA762  ILE779  LEU786  VAL792 
 PHE793  MET794  SER795  GLU796  ALA797  LYS798  CYS799  TRP800  GLU811  SER814 

> <Gold.Protein.RotatedAtoms>
  150.7400  133.9946  159.3617 H   0  0  0  0  0  0  0  0  0  0  0  0  # atno 6907 bound_to 6896
  151.7896  135.0737  160.0394 H   0  0  0  0  0  0  0  0  0  0  0  0  # atno 6908 bound_to 6896
  152.3217  133.5824  159.5785 H   0  0  0  0  0  0  0  0  0  0  0  0  # atno 6909 bound_to 6896
  145.9006  140.7997  142.9745 H   0  0  0  0  0  0  0  0  0  0  0  0  # atno 7974 bound_to 7965
  154.7101  140.0520  157.0542 H   0  0  0  0  0  0  0  0  0  0  0  0  # atno 8008 bound_to 7997
  155.0567  140.3185  155.4655 H   0  0  0  0  0  0  0  0  0  0  0  0  # atno 8009 bound_to 7997
  156.2786  140.2106  156.5693 H   0  0  0  0  0  0  0  0  0  0  0  0  # atno 8010 bound_to 7997
  140.4395  144.1208  150.6172 H   0  0  0  0  0  0  0  0  0  0  0  0  # atno 10167 bound_to 10162
  156.0945  130.4195  150.0945 H   0  0  0  0  0  0  0  0  0  0  0  0  # atno 10718 bound_to 10713
  152.9833  135.6057  154.3347 H   0  0  0  0  0  0  0  0  0  0  0  0  # atno 10763 bound_to 10752
  154.3048  135.2772  155.2596 H   0  0  0  0  0  0  0  0  0  0  0  0  # atno 10764 bound_to 10752
  154.4832  135.5911  153.6461 H   0  0  0  0  0  0  0  0  0  0  0  0  # atno 10765 bound_to 10752
  140.9618  133.7160  156.1381 H   0  0  0  0  0  0  0  0  0  0  0  0  # atno 11005 bound_to 11000
  144.6735  140.1672  143.7417 LP  0  0  0  0  0  0  0  0  0  0  0  0  # atno 17320 bound_to 7965
  145.8795  139.2315  143.1614 LP  0  0  0  0  0  0  0  0  0  0  0  0  # atno 17321 bound_to 7965
  140.4334  143.2558  151.9566 LP  0  0  0  0  0  0  0  0  0  0  0  0  # atno 17342 bound_to 10162
  139.4789  144.5722  151.8069 LP  0  0  0  0  0  0  0  0  0  0  0  0  # atno 17343 bound_to 10162
  156.8947  130.9600  151.3584 LP  0  0  0  0  0  0  0  0  0  0  0  0  # atno 17370 bound_to 10713
  157.6103  130.8578  149.8941 LP  0  0  0  0  0  0  0  0  0  0  0  0  # atno 17371 bound_to 10713
  140.7456  134.4101  157.5549 LP  0  0  0  0  0  0  0  0  0  0  0  0  # atno 17394 bound_to 11000
  139.8881  134.8866  156.2494 LP  0  0  0  0  0  0  0  0  0  0  0  0  # atno 17395 bound_to 11000

$$$$
