AV-unprocessed.smi:3056|AV-procd|sdf|11649|dock7
  -GOLD-   2272017 43D 1   1.00000     0.00000
 Structure written by MMmdl.
 48 49  0  0  0  0  0  0  0  0  2 V2000
  143.7002  138.3802  155.3900 C   0  0  0  0  0  0  0  0  0  0  0  0
  144.9506  139.0425  155.8931 C   0  0  0  0  0  0  0  0  0  0  0  0
  145.5486  138.9172  157.1789 C   0  0  0  0  0  0  0  0  0  0  0  0
  146.6524  139.6350  157.3037 N   0  0  0  0  0  0  0  0  0  0  0  0
  146.8005  140.2433  156.1058 N   0  0  0  0  0  0  0  0  0  0  0  0
  147.9347  141.1272  155.8690 C   0  0  2  0  0  0  0  0  0  0  0  0
  148.8480  140.5203  154.7867 C   0  0  0  0  0  0  0  0  0  0  0  0
  148.6805  141.4766  157.1873 C   0  0  2  0  0  0  0  0  0  0  0  0
  147.7269  141.9718  158.2905 C   0  0  0  0  0  0  0  0  0  0  0  0
  149.7151  142.5130  156.9541 N   0  3  0  0  0  0  0  0  0  0  0  0
  151.0784  142.0047  156.6714 C   0  0  0  0  0  0  0  0  0  0  0  0
  151.8585  141.6097  157.9376 C   0  0  0  0  0  0  0  0  0  0  0  0
  151.9991  140.4139  158.1986 O   0  0  0  0  0  0  0  0  0  0  0  0
  152.3598  142.5853  158.7323 N   0  0  0  0  0  0  0  0  0  0  0  0
  152.1775  144.0287  158.5495 C   0  0  0  0  0  0  0  0  0  0  0  0
  151.3819  144.5726  159.7492 C   0  0  0  0  0  0  0  0  0  0  0  0
  152.0700  144.2684  160.9599 O   0  0  0  0  0  0  0  0  0  0  0  0
  152.2789  142.8711  161.1568 C   0  0  2  0  0  0  0  0  0  0  0  0
  152.9972  142.6769  162.4965 C   0  0  0  0  0  0  0  0  0  0  0  0
  153.0925  142.3122  159.9723 C   0  0  0  0  0  0  0  0  0  0  0  0
  145.7866  139.8998  155.2357 C   0  0  0  0  0  0  0  0  0  0  0  0
  143.0476  138.0745  156.2080 H   0  0  0  0  0  0  0  0  0  0  0  0
  143.9263  137.4869  154.8077 H   0  0  0  0  0  0  0  0  0  0  0  0
  143.1205  139.0448  154.7489 H   0  0  0  0  0  0  0  0  0  0  0  0
  145.2149  138.3285  158.0208 H   0  0  0  0  0  0  0  0  0  0  0  0
  147.5254  142.0542  155.4638 H   0  0  0  0  0  0  0  0  0  0  0  0
  149.6132  141.2260  154.4643 H   0  0  0  0  0  0  0  0  0  0  0  0
  148.2735  140.2473  153.9009 H   0  0  0  0  0  0  0  0  0  0  0  0
  149.3507  139.6208  155.1443 H   0  0  0  0  0  0  0  0  0  0  0  0
  149.1627  140.5748  157.5686 H   0  0  0  0  0  0  0  0  0  0  0  0
  147.0074  141.2057  158.5801 H   0  0  0  0  0  0  0  0  0  0  0  0
  147.1667  142.8493  157.9660 H   0  0  0  0  0  0  0  0  0  0  0  0
  148.2772  142.2453  159.1910 H   0  0  0  0  0  0  0  0  0  0  0  0
  149.4118  143.0865  156.1806 H   0  0  0  0  0  0  0  0  0  0  0  0
  151.0188  141.1613  155.9836 H   0  0  0  0  0  0  0  0  0  0  0  0
  151.6301  142.7990  156.1678 H   0  0  0  0  0  0  0  0  0  0  0  0
  153.1555  144.5100  158.5004 H   0  0  0  0  0  0  0  0  0  0  0  0
  151.6652  144.2988  157.6280 H   0  0  0  0  0  0  0  0  0  0  0  0
  151.2705  145.6540  159.6692 H   0  0  0  0  0  0  0  0  0  0  0  0
  150.3769  144.1483  159.7740 H   0  0  0  0  0  0  0  0  0  0  0  0
  151.3097  142.3714  161.2050 H   0  0  0  0  0  0  0  0  0  0  0  0
  153.1706  141.6200  162.6995 H   0  0  0  0  0  0  0  0  0  0  0  0
  152.4047  143.0798  163.3182 H   0  0  0  0  0  0  0  0  0  0  0  0
  153.9634  143.1821  162.5035 H   0  0  0  0  0  0  0  0  0  0  0  0
  153.2847  141.2493  160.1252 H   0  0  0  0  0  0  0  0  0  0  0  0
  154.0721  142.7905  159.9238 H   0  0  0  0  0  0  0  0  0  0  0  0
  145.7425  140.2903  154.2295 H   0  0  0  0  0  0  0  0  0  0  0  0
  149.7758  143.0941  157.7786 H   0  0  0  0  0  0  0  0  0  0  0  0
  1  2  1  0  0  0  0
  1 22  1  0  0  0  0
  1 23  1  0  0  0  0
  1 24  1  0  0  0  0
  2 21  2  0  0  0  0
  2  3  1  0  0  0  0
  3  4  2  0  0  0  0
  3 25  1  0  0  0  0
  4  5  1  0  0  0  0
  5  6  1  0  0  0  0
  5 21  1  0  0  0  0
  6  7  1  0  0  0  0
  6  8  1  0  0  0  0
  6 26  1  0  0  0  0
  7 27  1  0  0  0  0
  7 28  1  0  0  0  0
  7 29  1  0  0  0  0
  8  9  1  0  0  0  0
  8 10  1  0  0  0  0
  8 30  1  0  0  0  0
  9 31  1  0  0  0  0
  9 32  1  0  0  0  0
  9 33  1  0  0  0  0
 10 11  1  0  0  0  0
 10 34  1  0  0  0  0
 10 48  1  0  0  0  0
 11 12  1  0  0  0  0
 11 35  1  0  0  0  0
 11 36  1  0  0  0  0
 12 13  2  0  0  0  0
 12 14  1  0  0  0  0
 14 20  1  0  0  0  0
 14 15  1  0  0  0  0
 15 16  1  0  0  0  0
 15 37  1  0  0  0  0
 15 38  1  0  0  0  0
 16 17  1  0  0  0  0
 16 39  1  0  0  0  0
 16 40  1  0  0  0  0
 17 18  1  0  0  0  0
 18 19  1  0  0  0  0
 18 20  1  0  0  0  0
 18 41  1  0  0  0  0
 19 42  1  0  0  0  0
 19 43  1  0  0  0  0
 19 44  1  0  0  0  0
 20 45  1  0  0  0  0
 20 46  1  0  0  0  0
 21 47  1  0  0  0  0
M  CHG  1  10   1
M  END
> <s_m_source_file>
AV-unprocessed.smi

> <i_m_source_file_index>
3056

> <i_lp_mmshare_version>
43012

> <i_f3d_flags>
0

> <s_epik_input>
W0NIM11jMVtjSF1ubihbY0hdMSlbQ0BIXShbQ0gzXSlbQ0BIXShbQ0gzXSlbTkhdW0NIMl1DKD1PKU4yW0NIMl1bQ0gyXU9bQ0BASF0oW0NIM10pW0NIMl0y

> <s_epik_cmdline>
J2VwaWtfcHl0aG9uJywgJy1waCcsICc3LjAnLCAnLXRuJywgJzgnLCAnLW1hJywgJzIwMCcsICctbWV0YWxfYmluZGluZycsICctaW1hZScsICc8aW5maWxlLm1hZT4nLCAnLW9tYWUnLCAnPG91dGZpbGUubWFlPic=

> <r_lp_tautomer_probability>
1

> <r_epik_Ionization_Penalty>
0.233715

> <r_epik_Ionization_Penalty_Charging>
0.233698

> <r_epik_Ionization_Penalty_Neutral>
1.68157e-05

> <r_epik_State_Penalty>
0.225221

> <r_epik_Charging_Adjusted_Penalty>
0.458919

> <i_epik_Tot_Q>
1

> <i_epik_Tot_abs_Q>
1

> <r_epik_Metal_State_Penalty>
0.225535

> <b_epik_Metal_Only>
0

> <s_lp_Force_Field>
OPLS_2005

> <r_lp_Energy>
28.5623

> <b_lp_Chiralities_Consistent>
1

> <s_lp_Variant>
AV-unprocessed.smi:3056-5

> <Gold.Version>
5.8.1

> <Gold.Id.Protein>
6NUR|6NUR_protein|mol2

> <Gold.PLP.Fitness>
44.2137

> <Gold.PLP.PLP>
-37.1302

> <Gold.PLP.part.hbond>
-0.7517

> <Gold.PLP.part.metal>
0.0000

> <Gold.PLP.part.buried>
-6.4957

> <Gold.PLP.part.nonpolar>
-30.8720

> <Gold.PLP.part.repulsive>
0.1250

> <Gold.PLP.ligand.clash>
0.0000

> <Gold.PLP.ligand.torsion>
0.9711

> <Gold.PLP.Chemscore.Hbond>
2.0000

> <Gold.PLP.Chemscore.CHOScore>
0.9644

> <Gold.PLP.Chemscore.Metal>
0.0000

> <Gold.Chemscore.Hbonds>
donor molecule, donor type, donor heavy atom, donor atom, acceptor molecule, acceptor atom, score
      L1  H    10    34       P1  8028  1.82
      L1  C    21    47       P1 10175  0.55

> <Gold.PLP.Chemscore.Internal.Correction>
0.1325

> <Gold.Rescore>
     Score         DG    S(hbond)    S(metal)    S(lipo)     H(rot)  DE(clash)    DE(int)     intcor
     12.22     -14.57       0.97        0.00      88.04       1.74       0.02       2.33       ----

> <Gold.Chemscore.Fitness>
12.2177

> <Gold.Chemscore.DG>
-14.5664

> <Gold.Chemscore.ZeroCoef>
-5.4800

> <Gold.Chemscore.Hbond>
0.9665

> <Gold.Chemscore.Metal>
0.0000

> <Gold.Chemscore.Lipo>
88.0431

> <Gold.Chemscore.Internal_Hbond>
0.0000

> <Gold.Chemscore.DEClash>
0.0174

> <Gold.Chemscore.DEInternal>
2.3313

> <Gold.Chemscore.Rot>
1.7354

> <Gold.Chemscore.Internal.Correction>
   9.000000E+99

> <Gold.Chemscore.Hbonds>
donor molecule, donor type, donor heavy atom, donor atom, acceptor molecule, acceptor atom, score
      L1  H    10    34       P1  8028  0.90

> <Gold.Chemscore.Hbond.Weighted>
-3.2280

> <Gold.Chemscore.Metal.Weighted>
-0.0000

> <Gold.Chemscore.Lipo.Weighted>
-10.3010

> <Gold.Chemscore.Internal_Hbond.Weighted>
0.0000

> <Gold.Chemscore.DEClash.Weighted>
0.0174

> <Gold.Chemscore.DEInternal.Weighted>
2.3313

> <Gold.Chemscore.Rot.Weighted>
4.4426

> <Gold.Chemscore.Internal.Correction.Weighted>
   9.000000E+99

> <Gold.Protein.RotatedTorsions>
[ 6907 6896 6895 6894 ] final  131.50 input  -60.11 | X-H torsion
[ 7974 7965 7964 7962 ] final -146.20 input  175.53 | X-H torsion
[ 8008 7997 7996 7995 ] final -138.10 input   59.86 | X-H torsion
[ 10167 10162 10161 10158 ] final  155.01 input  -65.29 | X-H torsion
[ 10718 10713 10712 10709 ] final  101.21 input   66.30 | X-H torsion
[ 10763 10752 10751 10750 ] final  -99.49 input  -60.55 | X-H torsion
[ 11005 11000 10999 10996 ] final   31.75 input  -57.11 | X-H torsion

> <Gold.Protein.ActiveResidues>
 VAL166  LYS551  ARG553  GLY616  TRP617  ASP618  TYR619  PRO620  LYS621  CYS622 
 ASP623  PHE694  ASN695  SER759  ASP760  ASP761  ALA762  ILE779  LEU786  VAL792 
 PHE793  MET794  SER795  GLU796  ALA797  LYS798  CYS799  TRP800  GLU811  SER814 

> <Gold.Protein.RotatedAtoms>
  152.3420  133.6078  159.5883 H   0  0  0  0  0  0  0  0  0  0  0  0  # atno 6907 bound_to 6896
  150.7484  133.9707  159.3554 H   0  0  0  0  0  0  0  0  0  0  0  0  # atno 6908 bound_to 6896
  151.7570  135.0820  160.0391 H   0  0  0  0  0  0  0  0  0  0  0  0  # atno 6909 bound_to 6896
  144.8175  140.5486  143.5600 H   0  0  0  0  0  0  0  0  0  0  0  0  # atno 7974 bound_to 7965
  155.4227  140.0519  157.3024 H   0  0  0  0  0  0  0  0  0  0  0  0  # atno 8008 bound_to 7997
  154.4895  140.2114  155.9539 H   0  0  0  0  0  0  0  0  0  0  0  0  # atno 8009 bound_to 7997
  156.1322  140.3169  155.8371 H   0  0  0  0  0  0  0  0  0  0  0  0  # atno 8010 bound_to 7997
  139.4822  144.5136  151.7986 H   0  0  0  0  0  0  0  0  0  0  0  0  # atno 10167 bound_to 10162
  157.6835  131.0720  150.5218 H   0  0  0  0  0  0  0  0  0  0  0  0  # atno 10718 bound_to 10713
  154.7502  135.4970  153.9276 H   0  0  0  0  0  0  0  0  0  0  0  0  # atno 10763 bound_to 10752
  153.1135  135.6715  153.9466 H   0  0  0  0  0  0  0  0  0  0  0  0  # atno 10764 bound_to 10752
  153.9218  135.3087  155.3426 H   0  0  0  0  0  0  0  0  0  0  0  0  # atno 10765 bound_to 10752
  140.2806  134.2977  155.7802 H   0  0  0  0  0  0  0  0  0  0  0  0  # atno 11005 bound_to 11000
  145.5180  139.1477  143.3568 LP  0  0  0  0  0  0  0  0  0  0  0  0  # atno 17320 bound_to 7965
  146.2479  140.5320  142.8906 LP  0  0  0  0  0  0  0  0  0  0  0  0  # atno 17321 bound_to 7965
  140.4642  144.1679  150.5910 LP  0  0  0  0  0  0  0  0  0  0  0  0  # atno 17342 bound_to 10162
  140.4452  143.2510  151.9421 LP  0  0  0  0  0  0  0  0  0  0  0  0  # atno 17343 bound_to 10162
  156.5531  130.4236  149.6098 LP  0  0  0  0  0  0  0  0  0  0  0  0  # atno 17370 bound_to 10713
  156.2885  130.7111  151.1954 LP  0  0  0  0  0  0  0  0  0  0  0  0  # atno 17371 bound_to 10713
  141.2163  133.7523  156.9474 LP  0  0  0  0  0  0  0  0  0  0  0  0  # atno 17394 bound_to 11000
  140.1287  134.9370  157.2306 LP  0  0  0  0  0  0  0  0  0  0  0  0  # atno 17395 bound_to 11000

$$$$
