AV-unprocessed.smi:2524|AV-procd|sdf|9922|dock6
  -GOLD-   2272013563D 1   1.00000     0.00000
 Structure written by MMmdl.
 36 37  0  0  0  0  0  0  0  0  1 V2000
  144.0122  134.1814  163.0006 C   0  0  0  0  0  0  0  0  0  0  0  0
  145.1697  133.7254  162.4990 C   0  0  0  0  0  0  0  0  0  0  0  0
  146.4834  134.4765  162.5535 C   0  0  0  0  0  0  0  0  0  0  0  0
  147.0873  134.6695  161.1578 C   0  0  0  0  0  0  0  0  0  0  0  0
  147.5799  136.4220  160.8885 S   0  0  0  0  0  0  0  0  0  0  0  0
  146.3781  137.2638  160.9931 O   0  0  0  0  0  0  0  0  0  0  0  0
  148.7616  136.7233  161.7105 O   0  0  0  0  0  0  0  0  0  0  0  0
  148.0781  136.4132  159.2400 N   0  0  0  0  0  0  0  0  0  0  0  0
  148.7495  137.5968  158.7007 C   0  0  0  0  0  0  0  0  0  0  0  0
  148.0299  138.1204  157.4659 C   0  0  0  0  0  0  0  0  0  0  0  0
  149.0028  138.6247  156.4350 C   0  0  0  0  0  0  0  0  0  0  0  0
  150.1100  139.4216  156.7988 C   0  0  0  0  0  0  0  0  0  0  0  0
  150.9971  139.8537  155.7931 C   0  0  0  0  0  0  0  0  0  0  0  0
  150.8451  139.5450  154.4879 N   0  0  0  0  0  0  0  0  0  0  0  0
  149.7865  138.7825  154.1419 C   0  0  0  0  0  0  0  0  0  0  0  0
  148.8430  138.3008  155.0710 C   0  0  0  0  0  0  0  0  0  0  0  0
  146.7857  137.4024  156.9858 C   0  0  0  0  0  0  0  0  0  0  0  0
  146.6694  138.7730  157.6020 C   0  0  0  0  0  0  0  0  0  0  0  0
  143.9510  135.1435  163.4882 H   0  0  0  0  0  0  0  0  0  0  0  0
  143.1080  133.5953  162.9288 H   0  0  0  0  0  0  0  0  0  0  0  0
  145.1910  132.7578  162.0186 H   0  0  0  0  0  0  0  0  0  0  0  0
  146.3324  135.4453  163.0312 H   0  0  0  0  0  0  0  0  0  0  0  0
  147.1746  133.9178  163.1852 H   0  0  0  0  0  0  0  0  0  0  0  0
  147.9688  134.0426  161.0217 H   0  0  0  0  0  0  0  0  0  0  0  0
  146.3649  134.4011  160.3864 H   0  0  0  0  0  0  0  0  0  0  0  0
  148.5907  135.5618  159.0116 H   0  0  0  0  0  0  0  0  0  0  0  0
  148.7789  138.3857  159.4529 H   0  0  0  0  0  0  0  0  0  0  0  0
  149.7817  137.3415  158.4594 H   0  0  0  0  0  0  0  0  0  0  0  0
  150.2815  139.6925  157.8299 H   0  0  0  0  0  0  0  0  0  0  0  0
  151.8531  140.4620  156.0453 H   0  0  0  0  0  0  0  0  0  0  0  0
  149.6881  138.5472  153.0925 H   0  0  0  0  0  0  0  0  0  0  0  0
  148.0151  137.6902  154.7419 H   0  0  0  0  0  0  0  0  0  0  0  0
  146.6220  137.3241  155.9128 H   0  0  0  0  0  0  0  0  0  0  0  0
  146.4126  136.5680  157.5763 H   0  0  0  0  0  0  0  0  0  0  0  0
  146.2232  138.8266  158.5929 H   0  0  0  0  0  0  0  0  0  0  0  0
  146.4284  139.6001  156.9372 H   0  0  0  0  0  0  0  0  0  0  0  0
  1  2  2  0  0  0  0
  1 19  1  0  0  0  0
  1 20  1  0  0  0  0
  2  3  1  0  0  0  0
  2 21  1  0  0  0  0
  3  4  1  0  0  0  0
  3 22  1  0  0  0  0
  3 23  1  0  0  0  0
  4  5  1  0  0  0  0
  4 24  1  0  0  0  0
  4 25  1  0  0  0  0
  5  6  2  0  0  0  0
  5  7  2  0  0  0  0
  5  8  1  0  0  0  0
  8  9  1  0  0  0  0
  8 26  1  0  0  0  0
  9 10  1  0  0  0  0
  9 27  1  0  0  0  0
  9 28  1  0  0  0  0
 10 18  1  0  0  0  0
 10 11  1  0  0  0  0
 10 17  1  0  0  0  0
 11 16  1  0  0  0  0
 11 12  2  0  0  0  0
 12 13  1  0  0  0  0
 12 29  1  0  0  0  0
 13 14  2  0  0  0  0
 13 30  1  0  0  0  0
 14 15  1  0  0  0  0
 15 16  2  0  0  0  0
 15 31  1  0  0  0  0
 16 32  1  0  0  0  0
 17 18  1  0  0  0  0
 17 33  1  0  0  0  0
 17 34  1  0  0  0  0
 18 35  1  0  0  0  0
 18 36  1  0  0  0  0
M  END
> <s_m_source_file>
AV-unprocessed.smi

> <i_m_source_file_index>
2524

> <i_lp_mmshare_version>
43012

> <i_f3d_flags>
0

> <s_epik_input>
W0NIMl09W0NIXVtDSDJdW0NIMl1TKD1PKSg9TylbTkhdW0NIMl1DMShbQ0gyXVtDSDJdMSljMltjSF1bY0hdbltjSF1bY0hdMg==

> <s_epik_cmdline>
J2VwaWtfcHl0aG9uJywgJy1waCcsICc3LjAnLCAnLXRuJywgJzgnLCAnLW1hJywgJzIwMCcsICctbWV0YWxfYmluZGluZycsICctaW1hZScsICc8aW5maWxlLm1hZT4nLCAnLW9tYWUnLCAnPG91dGZpbGUubWFlPic=

> <r_epik_Ionization_Penalty>
0.0344299

> <r_epik_Ionization_Penalty_Charging>
0

> <r_epik_Ionization_Penalty_Neutral>
0.0344299

> <r_epik_State_Penalty>
0.0286381

> <r_epik_Charging_Adjusted_Penalty>
0.0286381

> <i_epik_Tot_Q>
0

> <i_epik_Tot_abs_Q>
0

> <r_epik_Metal_State_Penalty>
0.0327794

> <b_epik_Metal_Only>
0

> <s_lp_Force_Field>
OPLS_2005

> <r_lp_Energy>
10.3721

> <b_lp_Chiralities_Consistent>
1

> <s_lp_Variant>
AV-unprocessed.smi:2524-1

> <Gold.Version>
5.8.1

> <Gold.Id.Protein>
6NUR|6NUR_protein|mol2

> <Gold.PLP.Fitness>
36.8484

> <Gold.PLP.PLP>
-24.8833

> <Gold.PLP.part.hbond>
-3.0000

> <Gold.PLP.part.metal>
0.0000

> <Gold.PLP.part.buried>
-2.9131

> <Gold.PLP.part.nonpolar>
-19.8999

> <Gold.PLP.part.repulsive>
0.1283

> <Gold.PLP.ligand.clash>
0.0000

> <Gold.PLP.ligand.torsion>
2.0787

> <Gold.PLP.Chemscore.Hbond>
3.0000

> <Gold.PLP.Chemscore.CHOScore>
1.8442

> <Gold.PLP.Chemscore.Metal>
0.0000

> <Gold.Chemscore.Hbonds>
donor molecule, donor type, donor heavy atom, donor atom, acceptor molecule, acceptor atom, score
      P1  H  6931  6943       L1     7  1.00
      P1  H  6934  6947       L1     6  1.00
      P1  H  7989  7998       L1    14  1.00
      L1  C    15    31       P1  7948  0.63
      L1  C    15    31       P1  7957  1.00

> <Gold.PLP.Chemscore.Internal.Correction>
1.5902

> <Gold.Rescore>
     Score         DG    S(hbond)    S(metal)    S(lipo)     H(rot)  DE(clash)    DE(int)     intcor
     12.16     -14.19       2.08        0.00      55.50       1.85       0.01       2.02       ----

> <Gold.Chemscore.Fitness>
12.1624

> <Gold.Chemscore.DG>
-14.1881

> <Gold.Chemscore.ZeroCoef>
-5.4800

> <Gold.Chemscore.Hbond>
2.0785

> <Gold.Chemscore.Metal>
0.0000

> <Gold.Chemscore.Lipo>
55.4972

> <Gold.Chemscore.Internal_Hbond>
0.0000

> <Gold.Chemscore.DEClash>
0.0089

> <Gold.Chemscore.DEInternal>
2.0169

> <Gold.Chemscore.Rot>
1.8465

> <Gold.Chemscore.Internal.Correction>
   9.000000E+99

> <Gold.Chemscore.Hbonds>
donor molecule, donor type, donor heavy atom, donor atom, acceptor molecule, acceptor atom, score
      P1  H  6931  6943       L1     7  0.86
      P1  H  6934  6947       L1     6  0.30
      P1  H  7989  7998       L1    14  0.70

> <Gold.Chemscore.Hbond.Weighted>
-6.9421

> <Gold.Chemscore.Metal.Weighted>
-0.0000

> <Gold.Chemscore.Lipo.Weighted>
-6.4932

> <Gold.Chemscore.Internal_Hbond.Weighted>
0.0000

> <Gold.Chemscore.DEClash.Weighted>
0.0089

> <Gold.Chemscore.DEInternal.Weighted>
2.0169

> <Gold.Chemscore.Rot.Weighted>
4.7272

> <Gold.Chemscore.Internal.Correction.Weighted>
   9.000000E+99

> <Gold.Protein.RotatedTorsions>
[ 6907 6896 6895 6894 ] final  -35.38 input  -60.11 | X-H torsion
[ 7974 7965 7964 7962 ] final  -73.78 input  175.53 | X-H torsion
[ 8008 7997 7996 7995 ] final  -53.58 input   59.86 | X-H torsion
[ 10167 10162 10161 10158 ] final  -75.55 input  -65.29 | X-H torsion
[ 10718 10713 10712 10709 ] final -155.06 input   66.30 | X-H torsion
[ 10763 10752 10751 10750 ] final  170.93 input  -60.55 | X-H torsion
[ 11005 11000 10999 10996 ] final  -51.56 input  -57.11 | X-H torsion

> <Gold.Protein.ActiveResidues>
 VAL166  LYS551  ARG553  GLY616  TRP617  ASP618  TYR619  PRO620  LYS621  CYS622 
 ASP623  PHE694  ASN695  SER759  ASP760  ASP761  ALA762  ILE779  LEU786  VAL792 
 PHE793  MET794  SER795  GLU796  ALA797  LYS798  CYS799  TRP800  GLU811  SER814 

> <Gold.Protein.RotatedAtoms>
  151.0405  134.9604  159.8158 H   0  0  0  0  0  0  0  0  0  0  0  0  # atno 6907 bound_to 6896
  152.5363  134.2664  159.8965 H   0  0  0  0  0  0  0  0  0  0  0  0  # atno 6908 bound_to 6896
  151.2676  133.4228  159.2653 H   0  0  0  0  0  0  0  0  0  0  0  0  # atno 6909 bound_to 6896
  145.6477  140.9292  143.1001 H   0  0  0  0  0  0  0  0  0  0  0  0  # atno 7974 bound_to 7965
  154.4137  140.1196  156.5177 H   0  0  0  0  0  0  0  0  0  0  0  0  # atno 8008 bound_to 7997
  155.6734  140.3496  155.4808 H   0  0  0  0  0  0  0  0  0  0  0  0  # atno 8009 bound_to 7997
  155.9613  140.1123  157.0883 H   0  0  0  0  0  0  0  0  0  0  0  0  # atno 8010 bound_to 7997
  140.4933  143.2376  151.7871 H   0  0  0  0  0  0  0  0  0  0  0  0  # atno 10167 bound_to 10162
  156.5077  130.8420  151.2634 H   0  0  0  0  0  0  0  0  0  0  0  0  # atno 10718 bound_to 10713
  154.4047  135.2755  155.2074 H   0  0  0  0  0  0  0  0  0  0  0  0  # atno 10763 bound_to 10752
  154.4085  135.6028  153.5942 H   0  0  0  0  0  0  0  0  0  0  0  0  # atno 10764 bound_to 10752
  152.9831  135.5944  154.4320 H   0  0  0  0  0  0  0  0  0  0  0  0  # atno 10765 bound_to 10752
  141.0878  133.6639  156.3896 H   0  0  0  0  0  0  0  0  0  0  0  0  # atno 11005 bound_to 11000
  144.7134  139.8286  143.7407 LP  0  0  0  0  0  0  0  0  0  0  0  0  # atno 17320 bound_to 7965
  146.1229  139.4250  143.0217 LP  0  0  0  0  0  0  0  0  0  0  0  0  # atno 17321 bound_to 7965
  139.4856  144.4620  151.9530 LP  0  0  0  0  0  0  0  0  0  0  0  0  # atno 17342 bound_to 10162
  140.3707  144.2859  150.5920 LP  0  0  0  0  0  0  0  0  0  0  0  0  # atno 17343 bound_to 10162
  157.7454  130.9960  150.2764 LP  0  0  0  0  0  0  0  0  0  0  0  0  # atno 17370 bound_to 10713
  156.3270  130.3794  149.7524 LP  0  0  0  0  0  0  0  0  0  0  0  0  # atno 17371 bound_to 10713
  140.5323  134.6200  157.5354 LP  0  0  0  0  0  0  0  0  0  0  0  0  # atno 17394 bound_to 11000
  139.9698  134.7311  156.0064 LP  0  0  0  0  0  0  0  0  0  0  0  0  # atno 17395 bound_to 11000

$$$$
