AV-unprocessed.smi:1369|AV-procd|sdf|5579|dock5
  -GOLD-   22720 5173D 1   1.00000     0.00000
 Structure written by MMmdl.
 39 41  0  0  0  0  0  0  0  0  1 V2000
  151.3171  138.1116  154.8113 C   0  0  0  0  0  0  0  0  0  0  0  0
  151.1653  139.5371  155.3304 C   0  0  0  0  0  0  0  0  0  0  0  0
  150.6139  140.3815  154.6258 O   0  0  0  0  0  0  0  0  0  0  0  0
  151.6863  139.7697  156.5488 N   0  0  0  0  0  0  0  0  0  0  0  0
  151.7006  140.9816  157.2957 C   0  0  0  0  0  0  0  0  0  0  0  0
  150.8668  142.0830  156.9826 C   0  0  0  0  0  0  0  0  0  0  0  0
  150.9026  143.2487  157.7686 C   0  0  0  0  0  0  0  0  0  0  0  0
  151.7616  143.3206  158.8783 C   0  0  0  0  0  0  0  0  0  0  0  0
  152.5809  142.2251  159.2070 C   0  0  0  0  0  0  0  0  0  0  0  0
  152.5548  141.0436  158.4230 C   0  0  0  0  0  0  0  0  0  0  0  0
  153.3311  139.9350  158.6922 O   0  0  0  0  0  0  0  0  0  0  0  0
  153.8439  139.7644  160.0066 C   0  0  0  0  0  0  0  0  0  0  0  0
  154.7431  138.5208  160.0249 C   0  0  0  0  0  0  0  0  0  0  0  0
  154.7559  137.8945  161.3440 N   0  0  0  0  0  0  0  0  0  0  0  0
  154.5427  136.5366  161.5953 C   0  0  0  0  0  0  0  0  0  0  0  0
  154.2969  135.6442  160.7859 O   0  0  0  0  0  0  0  0  0  0  0  0
  154.6648  136.3612  162.9496 O   0  0  0  0  0  0  0  0  0  0  0  0
  154.9539  137.5632  163.5266 C   0  0  0  0  0  0  0  0  0  0  0  0
  155.1737  137.8709  164.8797 C   0  0  0  0  0  0  0  0  0  0  0  0
  155.4637  139.2159  165.2086 C   0  0  0  0  0  0  0  0  0  0  0  0
  155.5295  140.2111  164.2001 C   0  0  0  0  0  0  0  0  0  0  0  0
  155.3098  139.8798  162.8434 C   0  0  0  0  0  0  0  0  0  0  0  0
  155.0193  138.5359  162.5518 C   0  0  0  0  0  0  0  0  0  0  0  0
  150.9809  137.3924  155.5589 H   0  0  0  0  0  0  0  0  0  0  0  0
  152.3610  137.9056  154.5746 H   0  0  0  0  0  0  0  0  0  0  0  0
  150.7262  137.9626  153.9071 H   0  0  0  0  0  0  0  0  0  0  0  0
  152.1975  139.0041  156.9640 H   0  0  0  0  0  0  0  0  0  0  0  0
  150.1793  142.0510  156.1516 H   0  0  0  0  0  0  0  0  0  0  0  0
  150.2658  144.0857  157.5228 H   0  0  0  0  0  0  0  0  0  0  0  0
  151.7889  144.2154  159.4826 H   0  0  0  0  0  0  0  0  0  0  0  0
  153.2239  142.3178  160.0687 H   0  0  0  0  0  0  0  0  0  0  0  0
  154.4305  140.6383  160.2932 H   0  0  0  0  0  0  0  0  0  0  0  0
  153.0327  139.6500  160.7277 H   0  0  0  0  0  0  0  0  0  0  0  0
  154.4114  137.8045  159.2730 H   0  0  0  0  0  0  0  0  0  0  0  0
  155.7616  138.7988  159.7505 H   0  0  0  0  0  0  0  0  0  0  0  0
  155.1230  137.1071  165.6417 H   0  0  0  0  0  0  0  0  0  0  0  0
  155.6376  139.4879  166.2393 H   0  0  0  0  0  0  0  0  0  0  0  0
  155.7527  141.2325  164.4713 H   0  0  0  0  0  0  0  0  0  0  0  0
  155.3646  140.6303  162.0687 H   0  0  0  0  0  0  0  0  0  0  0  0
  1  2  1  0  0  0  0
  1 24  1  0  0  0  0
  1 25  1  0  0  0  0
  1 26  1  0  0  0  0
  2  3  2  0  0  0  0
  2  4  1  0  0  0  0
  4  5  1  0  0  0  0
  4 27  1  0  0  0  0
  5 10  1  0  0  0  0
  5  6  2  0  0  0  0
  6  7  1  0  0  0  0
  6 28  1  0  0  0  0
  7  8  2  0  0  0  0
  7 29  1  0  0  0  0
  8  9  1  0  0  0  0
  8 30  1  0  0  0  0
  9 10  2  0  0  0  0
  9 31  1  0  0  0  0
 10 11  1  0  0  0  0
 11 12  1  0  0  0  0
 12 13  1  0  0  0  0
 12 32  1  0  0  0  0
 12 33  1  0  0  0  0
 13 14  1  0  0  0  0
 13 34  1  0  0  0  0
 13 35  1  0  0  0  0
 14 23  1  0  0  0  0
 14 15  1  0  0  0  0
 15 16  2  0  0  0  0
 15 17  1  0  0  0  0
 17 18  1  0  0  0  0
 18 23  2  0  0  0  0
 18 19  1  0  0  0  0
 19 20  2  0  0  0  0
 19 36  1  0  0  0  0
 20 21  1  0  0  0  0
 20 37  1  0  0  0  0
 21 22  2  0  0  0  0
 21 38  1  0  0  0  0
 22 23  1  0  0  0  0
 22 39  1  0  0  0  0
M  END
> <s_m_source_file>
AV-unprocessed.smi

> <i_m_source_file_index>
1369

> <i_lp_mmshare_version>
43012

> <i_f3d_flags>
0

> <s_epik_input>
W0NIM11DKD1PKVtOSF1jMVtjSF1bY0hdW2NIXVtjSF1jMU9bQ0gyXVtDSDJdbihjKD1PKW8yKWMoYzIzKVtjSF1bY0hdW2NIXVtjSF0z

> <s_epik_cmdline>
J2VwaWtfcHl0aG9uJywgJy1waCcsICc3LjAnLCAnLXRuJywgJzgnLCAnLW1hJywgJzIwMCcsICctbWV0YWxfYmluZGluZycsICctaW1hZScsICc8aW5maWxlLm1hZT4nLCAnLW9tYWUnLCAnPG91dGZpbGUubWFlPic=

> <r_lp_tautomer_probability>
1

> <r_epik_Ionization_Penalty>
9.24277e-08

> <r_epik_Ionization_Penalty_Charging>
1.02615e-14

> <r_epik_Ionization_Penalty_Neutral>
9.24277e-08

> <r_epik_State_Penalty>
-0

> <r_epik_Charging_Adjusted_Penalty>
1.02615e-14

> <i_epik_Tot_Q>
0

> <i_epik_Tot_abs_Q>
0

> <r_epik_Metal_State_Penalty>
-0

> <b_epik_Metal_Only>
0

> <s_lp_Force_Field>
OPLS_2005

> <r_lp_Energy>
36.4772

> <b_lp_Chiralities_Consistent>
1

> <s_lp_Variant>
AV-unprocessed.smi:1369-1

> <Gold.Version>
5.8.1

> <Gold.Id.Protein>
6NUR|6NUR_protein|mol2

> <Gold.PLP.Fitness>
47.9080

> <Gold.PLP.PLP>
-40.1368

> <Gold.PLP.part.hbond>
-3.0000

> <Gold.PLP.part.metal>
0.0000

> <Gold.PLP.part.buried>
-4.2220

> <Gold.PLP.part.nonpolar>
-32.7307

> <Gold.PLP.part.repulsive>
0.2242

> <Gold.PLP.ligand.clash>
0.0000

> <Gold.PLP.ligand.torsion>
0.6035

> <Gold.PLP.Chemscore.Hbond>
2.9760

> <Gold.PLP.Chemscore.CHOScore>
0.0000

> <Gold.PLP.Chemscore.Metal>
0.0000

> <Gold.Chemscore.Hbonds>
donor molecule, donor type, donor heavy atom, donor atom, acceptor molecule, acceptor atom, score
      P1  H  6896  6908       L1    16  0.52
      P1  H  7989  7998       L1     3  1.00
      P1  H  7997  8008       L1    11  0.78

> <Gold.PLP.Chemscore.Internal.Correction>
0.0501

> <Gold.Rescore>
     Score         DG    S(hbond)    S(metal)    S(lipo)     H(rot)  DE(clash)    DE(int)     intcor
     18.76     -20.75       2.03        0.00     109.69       1.70       0.11       1.87       ----

> <Gold.Chemscore.Fitness>
18.7636

> <Gold.Chemscore.DG>
-20.7476

> <Gold.Chemscore.ZeroCoef>
-5.4800

> <Gold.Chemscore.Hbond>
2.0331

> <Gold.Chemscore.Metal>
0.0000

> <Gold.Chemscore.Lipo>
109.6909

> <Gold.Chemscore.Internal_Hbond>
0.0000

> <Gold.Chemscore.DEClash>
0.1109

> <Gold.Chemscore.DEInternal>
1.8731

> <Gold.Chemscore.Rot>
1.7019

> <Gold.Chemscore.Internal.Correction>
   9.000000E+99

> <Gold.Chemscore.Hbonds>
donor molecule, donor type, donor heavy atom, donor atom, acceptor molecule, acceptor atom, score
      P1  H  6896  6908       L1    16  0.52
      P1  H  7989  7998       L1     3  0.72
      P1  H  7997  8008       L1    11  0.14

> <Gold.Chemscore.Hbond.Weighted>
-6.7907

> <Gold.Chemscore.Metal.Weighted>
-0.0000

> <Gold.Chemscore.Lipo.Weighted>
-12.8338

> <Gold.Chemscore.Internal_Hbond.Weighted>
0.0000

> <Gold.Chemscore.DEClash.Weighted>
0.1109

> <Gold.Chemscore.DEInternal.Weighted>
1.8731

> <Gold.Chemscore.Rot.Weighted>
4.3569

> <Gold.Chemscore.Internal.Correction.Weighted>
   9.000000E+99

> <Gold.Protein.RotatedTorsions>
[ 6907 6896 6895 6894 ] final  -65.25 input  -60.11 | X-H torsion
[ 7974 7965 7964 7962 ] final -121.73 input  175.53 | X-H torsion
[ 8008 7997 7996 7995 ] final  -86.47 input   59.86 | X-H torsion
[ 10167 10162 10161 10158 ] final   56.83 input  -65.29 | X-H torsion
[ 10718 10713 10712 10709 ] final   66.43 input   66.30 | X-H torsion
[ 10763 10752 10751 10750 ] final  -70.32 input  -60.55 | X-H torsion
[ 11005 11000 10999 10996 ] final  -36.62 input  -57.11 | X-H torsion

> <Gold.Protein.ActiveResidues>
 VAL166  LYS551  ARG553  GLY616  TRP617  ASP618  TYR619  PRO620  LYS621  CYS622 
 ASP623  PHE694  ASN695  SER759  ASP760  ASP761  ALA762  ILE779  LEU786  VAL792 
 PHE793  MET794  SER795  GLU796  ALA797  LYS798  CYS799  TRP800  GLU811  SER814 

> <Gold.Protein.RotatedAtoms>
  150.7535  134.6186  159.6123 H   0  0  0  0  0  0  0  0  0  0  0  0  # atno 6907 bound_to 6896
  152.3499  134.7017  160.0248 H   0  0  0  0  0  0  0  0  0  0  0  0  # atno 6908 bound_to 6896
  151.7442  133.3287  159.3410 H   0  0  0  0  0  0  0  0  0  0  0  0  # atno 6909 bound_to 6896
  145.0372  140.8115  143.4288 H   0  0  0  0  0  0  0  0  0  0  0  0  # atno 7974 bound_to 7965
  154.6523  140.0578  156.9969 H   0  0  0  0  0  0  0  0  0  0  0  0  # atno 8008 bound_to 7997
  155.1353  140.3260  155.4446 H   0  0  0  0  0  0  0  0  0  0  0  0  # atno 8009 bound_to 7997
  156.2581  140.1973  156.6470 H   0  0  0  0  0  0  0  0  0  0  0  0  # atno 8010 bound_to 7997
  140.2045  144.3953  150.6514 H   0  0  0  0  0  0  0  0  0  0  0  0  # atno 10167 bound_to 10162
  157.6169  130.9267  150.0108 H   0  0  0  0  0  0  0  0  0  0  0  0  # atno 10718 bound_to 10713
  154.4160  135.5998  153.5981 H   0  0  0  0  0  0  0  0  0  0  0  0  # atno 10763 bound_to 10752
  152.9792  135.5941  154.4012 H   0  0  0  0  0  0  0  0  0  0  0  0  # atno 10764 bound_to 10752
  154.3831  135.2841  155.2178 H   0  0  0  0  0  0  0  0  0  0  0  0  # atno 10765 bound_to 10752
  140.9889  133.7016  156.1814 H   0  0  0  0  0  0  0  0  0  0  0  0  # atno 11005 bound_to 11000
  145.1694  139.2412  143.5350 LP  0  0  0  0  0  0  0  0  0  0  0  0  # atno 17320 bound_to 7965
  146.3505  140.1442  142.8594 LP  0  0  0  0  0  0  0  0  0  0  0  0  # atno 17321 bound_to 7965
  140.6367  143.2196  151.6380 LP  0  0  0  0  0  0  0  0  0  0  0  0  # atno 17342 bound_to 10162
  139.5204  144.3225  152.0898 LP  0  0  0  0  0  0  0  0  0  0  0  0  # atno 17343 bound_to 10162
  156.1295  130.3643  149.9755 LP  0  0  0  0  0  0  0  0  0  0  0  0  # atno 17370 bound_to 10713
  156.7819  130.9224  151.3646 LP  0  0  0  0  0  0  0  0  0  0  0  0  # atno 17371 bound_to 10713
  140.7072  134.4501  157.5583 LP  0  0  0  0  0  0  0  0  0  0  0  0  # atno 17394 bound_to 11000
  139.8983  134.8617  156.2008 LP  0  0  0  0  0  0  0  0  0  0  0  0  # atno 17395 bound_to 11000

$$$$
