AV-unprocessed.smi:560|AV-procd|sdf|2931|dock3
  -GOLD-   2262023423D 1   1.00000     0.00000
 Structure written by MMmdl.
 42 43  0  0  0  0  0  0  0  0  2 V2000
  149.3707  141.4378  158.3412 C   0  0  0  0  0  0  0  0  0  0  0  0
  150.8845  141.1549  158.2547 C   0  0  1  0  0  0  0  0  0  0  0  0
  151.2948  140.5001  156.9256 C   0  0  0  0  0  0  0  0  0  0  0  0
  152.4505  140.1173  156.7404 O   0  0  0  0  0  0  0  0  0  0  0  0
  150.3289  140.3816  156.0002 N   0  0  0  0  0  0  0  0  0  0  0  0
  150.4892  139.7698  154.6819 C   0  0  2  0  0  0  0  0  0  0  0  0
  149.2429  139.9719  153.7970 C   0  0  0  0  0  0  0  0  0  0  0  0
  148.0461  139.1425  154.2928 C   0  0  0  0  0  0  0  0  0  0  0  0
  148.3953  137.6994  154.3780 N   0  3  2  0  0  0  0  0  0  0  0  0
  147.2326  136.8375  154.7142 C   0  0  0  0  0  0  0  0  0  0  0  0
  146.0712  136.9861  153.7258 C   0  0  0  0  0  0  0  0  0  0  0  0
  146.3300  136.7099  152.4456 N   0  0  0  0  0  0  0  0  0  0  0  0
  144.9619  137.3572  154.1047 O   0  0  0  0  0  0  0  0  0  0  0  0
  149.5520  137.4698  155.2812 C   0  0  0  0  0  0  0  0  0  0  0  0
  150.7873  138.2667  154.8216 C   0  0  0  0  0  0  0  0  0  0  0  0
  151.6815  142.3520  158.4992 N   0  0  0  0  0  0  0  0  0  0  0  0
  152.6577  142.5409  159.4566 C   0  0  0  0  0  0  0  0  0  0  0  0
  153.1595  143.7997  159.2893 C   0  0  0  0  0  0  0  0  0  0  0  0
  152.4264  144.3113  158.1831 C   0  0  0  0  0  0  0  0  0  0  0  0
  151.5505  143.4417  157.7074 N   0  0  0  0  0  0  0  0  0  0  0  0
  148.7919  140.5221  158.2163 H   0  0  0  0  0  0  0  0  0  0  0  0
  149.0403  142.1432  157.5775 H   0  0  0  0  0  0  0  0  0  0  0  0
  149.1095  141.8583  159.3126 H   0  0  0  0  0  0  0  0  0  0  0  0
  151.1222  140.4443  159.0478 H   0  0  0  0  0  0  0  0  0  0  0  0
  149.4068  140.7147  156.2403 H   0  0  0  0  0  0  0  0  0  0  0  0
  151.3463  140.2409  154.1968 H   0  0  0  0  0  0  0  0  0  0  0  0
  148.9714  141.0268  153.7461 H   0  0  0  0  0  0  0  0  0  0  0  0
  149.4799  139.6749  152.7746 H   0  0  0  0  0  0  0  0  0  0  0  0
  147.7180  139.4991  155.2705 H   0  0  0  0  0  0  0  0  0  0  0  0
  147.2079  139.2873  153.6107 H   0  0  0  0  0  0  0  0  0  0  0  0
  147.5322  135.7890  154.6862 H   0  0  0  0  0  0  0  0  0  0  0  0
  146.8982  137.0412  155.7328 H   0  0  0  0  0  0  0  0  0  0  0  0
  145.6016  136.7864  151.7503 H   0  0  0  0  0  0  0  0  0  0  0  0
  147.2589  136.4190  152.1747 H   0  0  0  0  0  0  0  0  0  0  0  0
  149.2783  137.7438  156.3013 H   0  0  0  0  0  0  0  0  0  0  0  0
  149.8010  136.4082  155.2960 H   0  0  0  0  0  0  0  0  0  0  0  0
  151.1201  137.8789  153.8576 H   0  0  0  0  0  0  0  0  0  0  0  0
  151.6157  138.1077  155.5131 H   0  0  0  0  0  0  0  0  0  0  0  0
  152.9121  141.7719  160.1708 H   0  0  0  0  0  0  0  0  0  0  0  0
  153.9347  144.2810  159.8668 H   0  0  0  0  0  0  0  0  0  0  0  0
  152.5070  145.2795  157.7115 H   0  0  0  0  0  0  0  0  0  0  0  0
  148.6946  137.4145  153.4558 H   0  0  0  0  0  0  0  0  0  0  0  0
  1  2  1  0  0  0  0
  1 21  1  0  0  0  0
  1 22  1  0  0  0  0
  1 23  1  0  0  0  0
  2  3  1  0  0  0  0
  2 16  1  0  0  0  0
  2 24  1  0  0  0  0
  3  4  2  0  0  0  0
  3  5  1  0  0  0  0
  5  6  1  0  0  0  0
  5 25  1  0  0  0  0
  6 15  1  0  0  0  0
  6  7  1  0  0  0  0
  6 26  1  0  0  0  0
  7  8  1  0  0  0  0
  7 27  1  0  0  0  0
  7 28  1  0  0  0  0
  8  9  1  0  0  0  0
  8 29  1  0  0  0  0
  8 30  1  0  0  0  0
  9 10  1  0  0  0  0
  9 14  1  0  0  0  0
  9 42  1  0  0  0  0
 10 11  1  0  0  0  0
 10 31  1  0  0  0  0
 10 32  1  0  0  0  0
 11 12  1  0  0  0  0
 11 13  2  0  0  0  0
 12 33  1  0  0  0  0
 12 34  1  0  0  0  0
 14 15  1  0  0  0  0
 14 35  1  0  0  0  0
 14 36  1  0  0  0  0
 15 37  1  0  0  0  0
 15 38  1  0  0  0  0
 16 20  1  0  0  0  0
 16 17  1  0  0  0  0
 17 18  2  0  0  0  0
 17 39  1  0  0  0  0
 18 19  1  0  0  0  0
 18 40  1  0  0  0  0
 19 20  2  0  0  0  0
 19 41  1  0  0  0  0
M  CHG  1   9   1
M  END
> <s_m_source_file>
AV-unprocessed.smi

> <i_m_source_file_index>
560

> <i_lp_mmshare_version>
43012

> <i_f3d_flags>
0

> <s_epik_input>
bjFbY0hdW2NIXVtjSF1uMVtDQEhdKFtDSDNdKUMoPU8pW05IXVtDSF0yW0NIMl1bQ0gyXU4oW0NIMl1bQ0gyXTIpW0NIMl1DKD1PKVtOSDJd

> <s_epik_cmdline>
J2VwaWtfcHl0aG9uJywgJy1waCcsICc3LjAnLCAnLXRuJywgJzgnLCAnLW1hJywgJzIwMCcsICctbWV0YWxfYmluZGluZycsICctaW1hZScsICc8aW5maWxlLm1hZT4nLCAnLW9tYWUnLCAnPG91dGZpbGUubWFlPic=

> <r_lp_tautomer_probability>
1

> <r_epik_Ionization_Penalty>
1.02943

> <r_epik_Ionization_Penalty_Charging>
1.02936

> <r_epik_Ionization_Penalty_Neutral>
7.4537e-05

> <r_epik_State_Penalty>
1.08036

> <r_epik_Charging_Adjusted_Penalty>
2.10972

> <i_epik_Tot_Q>
1

> <i_epik_Tot_abs_Q>
1

> <r_epik_Metal_State_Penalty>
1.09347

> <b_epik_Metal_Only>
0

> <s_lp_Force_Field>
OPLS_2005

> <r_lp_Energy>
15.8217

> <b_lp_Chiralities_Consistent>
1

> <s_lp_Variant>
AV-unprocessed.smi:560-6

> <Gold.Version>
5.8.1

> <Gold.Id.Protein>
6NUR|6NUR_protein|mol2

> <Gold.PLP.Fitness>
41.5832

> <Gold.PLP.PLP>
-30.0962

> <Gold.PLP.part.hbond>
-2.9661

> <Gold.PLP.part.metal>
0.0000

> <Gold.PLP.part.buried>
0.5286

> <Gold.PLP.part.nonpolar>
-27.5113

> <Gold.PLP.part.repulsive>
0.2991

> <Gold.PLP.ligand.clash>
0.3180

> <Gold.PLP.ligand.torsion>
0.1616

> <Gold.PLP.Chemscore.Hbond>
4.0000

> <Gold.PLP.Chemscore.CHOScore>
0.0000

> <Gold.PLP.Chemscore.Metal>
0.0000

> <Gold.Chemscore.Hbonds>
donor molecule, donor type, donor heavy atom, donor atom, acceptor molecule, acceptor atom, score
      L1  H     9    42       P1  7948  2.00
      L1  H    12    34       P1  7948  1.00
      P1  H  7997  8010       L1     4  1.00

> <Gold.PLP.Chemscore.Internal.Correction>
0.1282

> <Gold.Rescore>
     Score         DG    S(hbond)    S(metal)    S(lipo)     H(rot)  DE(clash)    DE(int)     intcor
     16.51     -18.37       2.98        0.00      80.22       2.52       1.68       0.18       ----

> <Gold.Chemscore.Fitness>
16.5131

> <Gold.Chemscore.DG>
-18.3715

> <Gold.Chemscore.ZeroCoef>
-5.4800

> <Gold.Chemscore.Hbond>
2.9845

> <Gold.Chemscore.Metal>
0.0000

> <Gold.Chemscore.Lipo>
80.2164

> <Gold.Chemscore.Internal_Hbond>
0.0000

> <Gold.Chemscore.DEClash>
1.6803

> <Gold.Chemscore.DEInternal>
0.1781

> <Gold.Chemscore.Rot>
2.5243

> <Gold.Chemscore.Internal.Correction>
   9.000000E+99

> <Gold.Chemscore.Hbonds>
donor molecule, donor type, donor heavy atom, donor atom, acceptor molecule, acceptor atom, score
      L1  H     9    42       P1  7948  0.96
      L1  H    12    34       P1  7948  1.00
      P1  H  7997  8010       L1     4  0.98

> <Gold.Chemscore.Hbond.Weighted>
-9.9684

> <Gold.Chemscore.Metal.Weighted>
-0.0000

> <Gold.Chemscore.Lipo.Weighted>
-9.3853

> <Gold.Chemscore.Internal_Hbond.Weighted>
0.0000

> <Gold.Chemscore.DEClash.Weighted>
1.6803

> <Gold.Chemscore.DEInternal.Weighted>
0.1781

> <Gold.Chemscore.Rot.Weighted>
6.4622

> <Gold.Chemscore.Internal.Correction.Weighted>
   9.000000E+99

> <Gold.Protein.RotatedTorsions>
[ 6907 6896 6895 6894 ] final   49.07 input  -60.11 | X-H torsion
[ 7974 7965 7964 7962 ] final  -21.69 input  175.53 | X-H torsion
[ 8008 7997 7996 7995 ] final   64.55 input   59.86 | X-H torsion
[ 10167 10162 10161 10158 ] final -172.81 input  -65.29 | X-H torsion
[ 10718 10713 10712 10709 ] final  -97.04 input   66.30 | X-H torsion
[ 10763 10752 10751 10750 ] final  -31.68 input  -60.55 | X-H torsion
[ 11005 11000 10999 10996 ] final  -23.26 input  -57.11 | X-H torsion

> <Gold.Protein.ActiveResidues>
 VAL166  LYS551  ARG553  GLY616  TRP617  ASP618  TYR619  PRO620  LYS621  CYS622 
 ASP623  PHE694  ASN695  SER759  ASP760  ASP761  ALA762  ILE779  LEU786  VAL792 
 PHE793  MET794  SER795  GLU796  ALA797  LYS798  CYS799  TRP800  GLU811  SER814 

> <Gold.Protein.RotatedAtoms>
  152.2866  134.7769  160.0385 H   0  0  0  0  0  0  0  0  0  0  0  0  # atno 6907 bound_to 6896
  151.8329  133.3406  159.3627 H   0  0  0  0  0  0  0  0  0  0  0  0  # atno 6908 bound_to 6896
  150.7212  134.5394  159.5784 H   0  0  0  0  0  0  0  0  0  0  0  0  # atno 6909 bound_to 6896
  146.1718  140.4376  142.8529 H   0  0  0  0  0  0  0  0  0  0  0  0  # atno 7974 bound_to 7965
  155.6478  140.3497  155.4737 H   0  0  0  0  0  0  0  0  0  0  0  0  # atno 8008 bound_to 7997
  155.9873  140.1186  157.0694 H   0  0  0  0  0  0  0  0  0  0  0  0  # atno 8009 bound_to 7997
  154.4208  140.1126  156.5503 H   0  0  0  0  0  0  0  0  0  0  0  0  # atno 8010 bound_to 7997
  139.5723  144.1612  152.1402 H   0  0  0  0  0  0  0  0  0  0  0  0  # atno 10167 bound_to 10162
  156.0075  130.5177  150.6315 H   0  0  0  0  0  0  0  0  0  0  0  0  # atno 10718 bound_to 10713
  153.8013  135.6890  153.4855 H   0  0  0  0  0  0  0  0  0  0  0  0  # atno 10763 bound_to 10752
  153.1687  135.4551  154.9870 H   0  0  0  0  0  0  0  0  0  0  0  0  # atno 10764 bound_to 10752
  154.8005  135.3336  154.7501 H   0  0  0  0  0  0  0  0  0  0  0  0  # atno 10765 bound_to 10752
  140.8735  133.7704  156.0215 H   0  0  0  0  0  0  0  0  0  0  0  0  # atno 11005 bound_to 11000
  144.8175  140.6493  143.6375 LP  0  0  0  0  0  0  0  0  0  0  0  0  # atno 17320 bound_to 7965
  145.4319  139.1548  143.4018 LP  0  0  0  0  0  0  0  0  0  0  0  0  # atno 17321 bound_to 7965
  140.1148  144.5425  150.6901 LP  0  0  0  0  0  0  0  0  0  0  0  0  # atno 17342 bound_to 10162
  140.7007  143.2433  151.4872 LP  0  0  0  0  0  0  0  0  0  0  0  0  # atno 17343 bound_to 10162
  157.4112  131.0824  151.1219 LP  0  0  0  0  0  0  0  0  0  0  0  0  # atno 17370 bound_to 10713
  157.1850  130.6326  149.5685 LP  0  0  0  0  0  0  0  0  0  0  0  0  # atno 17371 bound_to 10713
  140.8546  134.2914  157.5261 LP  0  0  0  0  0  0  0  0  0  0  0  0  # atno 17394 bound_to 11000
  139.8714  134.9486  156.4000 LP  0  0  0  0  0  0  0  0  0  0  0  0  # atno 17395 bound_to 11000

$$$$
