AV-unprocessed.smi:1055|AV-procd|sdf|4628|dock4
  -GOLD-   22720 3133D 1   1.00000     0.00000
 Structure written by MMmdl.
 51 52  0  0  0  0  0  0  0  0  2 V2000
  149.7644  142.9535  157.6183 C   0  0  0  0  0  0  0  0  0  0  0  0
  151.0874  142.8742  157.8360 C   0  0  0  0  0  0  0  0  0  0  0  0
  151.9543  144.1112  157.9792 C   0  0  0  0  0  0  0  0  0  0  0  0
  151.8002  141.5369  157.9770 C   0  0  0  0  0  0  0  0  0  0  0  0
  151.1620  140.4525  157.2302 N   0  0  0  0  0  0  0  0  0  0  0  0
  151.5939  139.1371  157.7166 C   0  0  0  0  0  0  0  0  0  0  0  0
  150.8620  138.0166  156.9578 C   0  0  0  0  0  0  0  0  0  0  0  0
  151.1087  138.1197  155.4432 C   0  0  0  0  0  0  0  0  0  0  0  0
  150.3070  137.1401  154.7157 N   0  0  0  0  0  0  0  0  0  0  0  0
  150.3311  135.8163  154.9260 C   0  0  0  0  0  0  0  0  0  0  0  0
  151.0530  135.2752  155.7632 O   0  0  0  0  0  0  0  0  0  0  0  0
  149.4853  135.1758  154.1002 N   0  0  0  0  0  0  0  0  0  0  0  0
  149.1954  133.7858  154.0356 C   0  0  0  0  0  0  0  0  0  0  0  0
  149.8888  132.9258  154.9125 C   0  0  0  0  0  0  0  0  0  0  0  0
  149.6452  131.5374  154.8736 C   0  0  0  0  0  0  0  0  0  0  0  0
  148.7112  131.0114  153.9472 C   0  0  0  0  0  0  0  0  0  0  0  0
  148.4132  129.6353  153.8459 N   0  0  0  0  0  0  0  0  0  0  0  0
  147.0999  129.2097  153.3796 C   0  0  0  0  0  0  0  0  0  0  0  0
  149.4159  128.6465  154.2266 C   0  0  0  0  0  0  0  0  0  0  0  0
  148.0793  131.8764  153.1166 N   0  3  0  0  0  0  0  0  0  0  0  0
  148.2810  133.2114  153.1209 C   0  0  0  0  0  0  0  0  0  0  0  0
  150.7566  139.5387  154.9745 C   0  0  0  0  0  0  0  0  0  0  0  0
  151.4978  140.5951  155.8122 C   0  0  0  0  0  0  0  0  0  0  0  0
  149.2670  143.9080  157.5279 H   0  0  0  0  0  0  0  0  0  0  0  0
  149.1580  142.0644  157.5262 H   0  0  0  0  0  0  0  0  0  0  0  0
  152.4503  144.1138  158.9499 H   0  0  0  0  0  0  0  0  0  0  0  0
  151.3623  145.0236  157.8979 H   0  0  0  0  0  0  0  0  0  0  0  0
  152.7193  144.1362  157.2027 H   0  0  0  0  0  0  0  0  0  0  0  0
  152.8227  141.6670  157.6197 H   0  0  0  0  0  0  0  0  0  0  0  0
  151.8665  141.2668  159.0324 H   0  0  0  0  0  0  0  0  0  0  0  0
  152.6735  139.0312  157.5998 H   0  0  0  0  0  0  0  0  0  0  0  0
  151.3772  139.0341  158.7799 H   0  0  0  0  0  0  0  0  0  0  0  0
  151.1958  137.0472  157.3293 H   0  0  0  0  0  0  0  0  0  0  0  0
  149.7930  138.0767  157.1681 H   0  0  0  0  0  0  0  0  0  0  0  0
  152.1671  137.9443  155.2403 H   0  0  0  0  0  0  0  0  0  0  0  0
  149.6858  137.5006  154.0063 H   0  0  0  0  0  0  0  0  0  0  0  0
  149.0190  135.7493  153.4125 H   0  0  0  0  0  0  0  0  0  0  0  0
  150.6032  133.3246  155.6180 H   0  0  0  0  0  0  0  0  0  0  0  0
  150.1830  130.8976  155.5572 H   0  0  0  0  0  0  0  0  0  0  0  0
  146.3209  129.5711  154.0514 H   0  0  0  0  0  0  0  0  0  0  0  0
  147.0266  128.1228  153.3384 H   0  0  0  0  0  0  0  0  0  0  0  0
  146.9050  129.5938  152.3779 H   0  0  0  0  0  0  0  0  0  0  0  0
  149.7068  128.7768  155.2694 H   0  0  0  0  0  0  0  0  0  0  0  0
  150.3054  128.7437  153.6033 H   0  0  0  0  0  0  0  0  0  0  0  0
  149.0371  127.6309  154.1111 H   0  0  0  0  0  0  0  0  0  0  0  0
  147.7109  133.7562  152.3836 H   0  0  0  0  0  0  0  0  0  0  0  0
  151.0124  139.6591  153.9212 H   0  0  0  0  0  0  0  0  0  0  0  0
  149.6809  139.7046  155.0534 H   0  0  0  0  0  0  0  0  0  0  0  0
  151.2128  141.5898  155.4673 H   0  0  0  0  0  0  0  0  0  0  0  0
  152.5759  140.5038  155.6695 H   0  0  0  0  0  0  0  0  0  0  0  0
  147.4123  131.4969  152.4445 H   0  0  0  0  0  0  0  0  0  0  0  0
  1  2  2  0  0  0  0
  1 24  1  0  0  0  0
  1 25  1  0  0  0  0
  2  3  1  0  0  0  0
  2  4  1  0  0  0  0
  3 26  1  0  0  0  0
  3 27  1  0  0  0  0
  3 28  1  0  0  0  0
  4  5  1  0  0  0  0
  4 29  1  0  0  0  0
  4 30  1  0  0  0  0
  5 23  1  0  0  0  0
  5  6  1  0  0  0  0
  6  7  1  0  0  0  0
  6 31  1  0  0  0  0
  6 32  1  0  0  0  0
  7  8  1  0  0  0  0
  7 33  1  0  0  0  0
  7 34  1  0  0  0  0
  8  9  1  0  0  0  0
  8 22  1  0  0  0  0
  8 35  1  0  0  0  0
  9 10  1  0  0  0  0
  9 36  1  0  0  0  0
 10 11  2  0  0  0  0
 10 12  1  0  0  0  0
 12 13  1  0  0  0  0
 12 37  1  0  0  0  0
 13 21  1  0  0  0  0
 13 14  2  0  0  0  0
 14 15  1  0  0  0  0
 14 38  1  0  0  0  0
 15 16  2  0  0  0  0
 15 39  1  0  0  0  0
 16 17  1  0  0  0  0
 16 20  1  0  0  0  0
 17 18  1  0  0  0  0
 17 19  1  0  0  0  0
 18 40  1  0  0  0  0
 18 41  1  0  0  0  0
 18 42  1  0  0  0  0
 19 43  1  0  0  0  0
 19 44  1  0  0  0  0
 19 45  1  0  0  0  0
 20 21  2  0  0  0  0
 20 51  1  0  0  0  0
 21 46  1  0  0  0  0
 22 23  1  0  0  0  0
 22 47  1  0  0  0  0
 22 48  1  0  0  0  0
 23 49  1  0  0  0  0
 23 50  1  0  0  0  0
M  CHG  1  20   1
M  END
> <s_m_source_file>
AV-unprocessed.smi

> <i_m_source_file_index>
1055

> <i_lp_mmshare_version>
43012

> <i_f3d_flags>
0

> <s_epik_input>
W0NIMl09QyhbQ0gzXSlbQ0gyXU4xW0NIMl1bQ0gyXVtDSF0oW0NIMl1bQ0gyXTEpW05IXUMoPU8pW05IXWMyW2NIXVtjSF1jKE4oW0NIM10pW0NIM10pbltjSF0y

> <s_epik_cmdline>
J2VwaWtfcHl0aG9uJywgJy1waCcsICc3LjAnLCAnLXRuJywgJzgnLCAnLW1hJywgJzIwMCcsICctbWV0YWxfYmluZGluZycsICctaW1hZScsICc8aW5maWxlLm1hZT4nLCAnLW9tYWUnLCAnPG91dGZpbGUubWFlPic=

> <r_epik_Ionization_Penalty>
2.2313

> <r_epik_Ionization_Penalty_Charging>
0.252156

> <r_epik_Ionization_Penalty_Neutral>
1.97915

> <r_epik_State_Penalty>
2.37644

> <r_epik_Charging_Adjusted_Penalty>
2.62859

> <i_epik_Tot_Q>
1

> <i_epik_Tot_abs_Q>
1

> <r_epik_Metal_State_Penalty>
2.63815

> <b_epik_Metal_Only>
0

> <s_lp_Force_Field>
OPLS_2005

> <r_lp_Energy>
24.1414

> <b_lp_Chiralities_Consistent>
1

> <s_lp_Variant>
AV-unprocessed.smi:1055-5

> <Gold.Version>
5.8.1

> <Gold.Id.Protein>
6NUR|6NUR_protein|mol2

> <Gold.PLP.Fitness>
44.2815

> <Gold.PLP.PLP>
-39.9747

> <Gold.PLP.part.hbond>
-3.4620

> <Gold.PLP.part.metal>
0.0000

> <Gold.PLP.part.buried>
-4.0644

> <Gold.PLP.part.nonpolar>
-32.7898

> <Gold.PLP.part.repulsive>
0.1483

> <Gold.PLP.ligand.clash>
0.0000

> <Gold.PLP.ligand.torsion>
0.8628

> <Gold.PLP.Chemscore.Hbond>
2.0000

> <Gold.PLP.Chemscore.CHOScore>
0.0000

> <Gold.PLP.Chemscore.Metal>
0.0000

> <Gold.Chemscore.Hbonds>
donor molecule, donor type, donor heavy atom, donor atom, acceptor molecule, acceptor atom, score
      L1  H    12    37       P1  7948  0.90
      P1  H 10752 10763       L1    11  0.56

> <Gold.PLP.Chemscore.Internal.Correction>
0.0324

> <Gold.Rescore>
     Score         DG    S(hbond)    S(metal)    S(lipo)     H(rot)  DE(clash)    DE(int)     intcor
     15.31     -18.77       1.47        0.00     100.50       1.32       0.14       3.32       ----

> <Gold.Chemscore.Fitness>
15.3078

> <Gold.Chemscore.DG>
-18.7747

> <Gold.Chemscore.ZeroCoef>
-5.4800

> <Gold.Chemscore.Hbond>
1.4741

> <Gold.Chemscore.Metal>
0.0000

> <Gold.Chemscore.Lipo>
100.4983

> <Gold.Chemscore.Internal_Hbond>
0.0000

> <Gold.Chemscore.DEClash>
0.1450

> <Gold.Chemscore.DEInternal>
3.3219

> <Gold.Chemscore.Rot>
1.3231

> <Gold.Chemscore.Internal.Correction>
   9.000000E+99

> <Gold.Chemscore.Hbonds>
donor molecule, donor type, donor heavy atom, donor atom, acceptor molecule, acceptor atom, score
      L1  H    12    37       P1  7948  0.74
      P1  H 10752 10763       L1    11  0.31

> <Gold.Chemscore.Hbond.Weighted>
-4.9235

> <Gold.Chemscore.Metal.Weighted>
-0.0000

> <Gold.Chemscore.Lipo.Weighted>
-11.7583

> <Gold.Chemscore.Internal_Hbond.Weighted>
0.0000

> <Gold.Chemscore.DEClash.Weighted>
0.1450

> <Gold.Chemscore.DEInternal.Weighted>
3.3219

> <Gold.Chemscore.Rot.Weighted>
3.3871

> <Gold.Chemscore.Internal.Correction.Weighted>
   9.000000E+99

> <Gold.Protein.RotatedTorsions>
[ 6907 6896 6895 6894 ] final  111.50 input  -60.11 | X-H torsion
[ 7974 7965 7964 7962 ] final  -88.23 input  175.53 | X-H torsion
[ 8008 7997 7996 7995 ] final  141.53 input   59.86 | X-H torsion
[ 10167 10162 10161 10158 ] final  121.95 input  -65.29 | X-H torsion
[ 10718 10713 10712 10709 ] final  -64.64 input   66.30 | X-H torsion
[ 10763 10752 10751 10750 ] final   89.68 input  -60.55 | X-H torsion
[ 11005 11000 10999 10996 ] final -164.68 input  -57.11 | X-H torsion

> <Gold.Protein.ActiveResidues>
 VAL166  LYS551  ARG553  GLY616  TRP617  ASP618  TYR619  PRO620  LYS621  CYS622 
 ASP623  PHE694  ASN695  SER759  ASP760  ASP761  ALA762  ILE779  LEU786  VAL792 
 PHE793  MET794  SER795  GLU796  ALA797  LYS798  CYS799  TRP800  GLU811  SER814 

> <Gold.Protein.RotatedAtoms>
  152.4966  133.8649  159.7268 H   0  0  0  0  0  0  0  0  0  0  0  0  # atno 6907 bound_to 6896
  150.9151  133.6940  159.2852 H   0  0  0  0  0  0  0  0  0  0  0  0  # atno 6908 bound_to 6896
  151.4337  135.1017  159.9702 H   0  0  0  0  0  0  0  0  0  0  0  0  # atno 6909 bound_to 6896
  145.4559  140.9561  143.1996 H   0  0  0  0  0  0  0  0  0  0  0  0  # atno 7974 bound_to 7965
  156.2964  140.2313  156.4579 H   0  0  0  0  0  0  0  0  0  0  0  0  # atno 8008 bound_to 7997
  154.8044  140.0446  157.1317 H   0  0  0  0  0  0  0  0  0  0  0  0  # atno 8009 bound_to 7997
  154.9496  140.3040  155.5085 H   0  0  0  0  0  0  0  0  0  0  0  0  # atno 8010 bound_to 7997
  139.5888  144.7017  151.3342 H   0  0  0  0  0  0  0  0  0  0  0  0  # atno 10167 bound_to 10162
  156.0717  130.4236  150.1449 H   0  0  0  0  0  0  0  0  0  0  0  0  # atno 10718 bound_to 10713
  153.1896  135.4461  155.0132 H   0  0  0  0  0  0  0  0  0  0  0  0  # atno 10763 bound_to 10752
  154.8082  135.3283  154.7378 H   0  0  0  0  0  0  0  0  0  0  0  0  # atno 10764 bound_to 10752
  153.7834  135.6976  153.4939 H   0  0  0  0  0  0  0  0  0  0  0  0  # atno 10765 bound_to 10752
  140.5841  134.5111  157.5183 H   0  0  0  0  0  0  0  0  0  0  0  0  # atno 11005 bound_to 11000
  144.8033  139.6100  143.7062 LP  0  0  0  0  0  0  0  0  0  0  0  0  # atno 17320 bound_to 7965
  146.2478  139.6136  142.9447 LP  0  0  0  0  0  0  0  0  0  0  0  0  # atno 17321 bound_to 7965
  140.7155  143.7278  150.7647 LP  0  0  0  0  0  0  0  0  0  0  0  0  # atno 17342 bound_to 10162
  140.0828  143.4952  152.2521 LP  0  0  0  0  0  0  0  0  0  0  0  0  # atno 17343 bound_to 10162
  156.9499  130.9771  151.3500 LP  0  0  0  0  0  0  0  0  0  0  0  0  # atno 17370 bound_to 10713
  157.5791  130.8364  149.8497 LP  0  0  0  0  0  0  0  0  0  0  0  0  # atno 17371 bound_to 10713
  139.9303  134.7976  156.0949 LP  0  0  0  0  0  0  0  0  0  0  0  0  # atno 17394 bound_to 11000
  141.0977  133.6689  156.2683 LP  0  0  0  0  0  0  0  0  0  0  0  0  # atno 17395 bound_to 11000

$$$$
