AV-unprocessed.smi:1475|AV-procd|sdf|5978|dock10
  -GOLD-   22720 6 73D 1   1.00000     0.00000
 Structure written by MMmdl.
 50 51  0  0  0  0  0  0  0  0  2 V2000
  153.5487  141.3242  161.3970 C   0  0  0  0  0  0  0  0  0  0  0  0
  152.9221  142.3077  160.4533 C   0  0  0  0  0  0  0  0  0  0  0  0
  152.4155  143.6056  160.7422 C   0  0  0  0  0  0  0  0  0  0  0  0
  151.9603  144.0661  159.5390 C   0  0  0  0  0  0  0  0  0  0  0  0
  151.3151  145.3667  159.1888 C   0  0  0  0  0  0  0  0  0  0  0  0
  152.2029  143.0695  158.6101 N   0  0  0  0  0  0  0  0  0  0  0  0
  151.9219  143.0558  157.1833 C   0  0  0  0  0  0  0  0  0  0  0  0
  151.0247  141.8742  156.8128 C   0  0  0  0  0  0  0  0  0  0  0  0
  151.1803  140.7842  157.3629 O   0  0  0  0  0  0  0  0  0  0  0  0
  150.0866  142.1034  155.8807 N   0  0  0  0  0  0  0  0  0  0  0  0
  149.1126  141.1245  155.4136 C   0  0  0  0  0  0  0  0  0  0  0  0
  148.2759  141.6665  154.2369 C   0  0  0  0  0  0  0  0  0  0  0  0
  147.1989  142.5880  154.6785 N   0  3  1  0  0  0  0  0  0  0  0  0
  146.5668  143.2964  153.5352 C   0  0  0  0  0  0  0  0  0  0  0  0
  145.5713  144.3704  154.0155 C   0  0  1  0  0  0  0  0  0  0  0  0
  144.9124  145.0937  152.8322 C   0  0  0  0  0  0  0  0  0  0  0  0
  144.5155  143.7440  154.9440 C   0  0  0  0  0  0  0  0  0  0  0  0
  145.1650  142.9536  156.0946 C   0  0  2  0  0  0  0  0  0  0  0  0
  145.7812  143.8621  157.1733 C   0  0  0  0  0  0  0  0  0  0  0  0
  146.1797  141.9331  155.5422 C   0  0  0  0  0  0  0  0  0  0  0  0
  152.7935  141.9931  159.1747 N   0  0  0  0  0  0  0  0  0  0  0  0
  153.5582  141.7082  162.4171 H   0  0  0  0  0  0  0  0  0  0  0  0
  154.5794  141.1099  161.1136 H   0  0  0  0  0  0  0  0  0  0  0  0
  153.0007  140.3818  161.4030 H   0  0  0  0  0  0  0  0  0  0  0  0
  152.3896  144.1211  161.6909 H   0  0  0  0  0  0  0  0  0  0  0  0
  151.2552  146.0186  160.0603 H   0  0  0  0  0  0  0  0  0  0  0  0
  150.3020  145.2103  158.8180 H   0  0  0  0  0  0  0  0  0  0  0  0
  151.8829  145.8898  158.4195 H   0  0  0  0  0  0  0  0  0  0  0  0
  151.4486  143.9971  156.8981 H   0  0  0  0  0  0  0  0  0  0  0  0
  152.8609  142.9967  156.6324 H   0  0  0  0  0  0  0  0  0  0  0  0
  150.0264  143.0335  155.4908 H   0  0  0  0  0  0  0  0  0  0  0  0
  149.6403  140.2092  155.1455 H   0  0  0  0  0  0  0  0  0  0  0  0
  148.4592  140.8733  156.2494 H   0  0  0  0  0  0  0  0  0  0  0  0
  148.9500  142.1991  153.5642 H   0  0  0  0  0  0  0  0  0  0  0  0
  147.8390  140.8541  153.6542 H   0  0  0  0  0  0  0  0  0  0  0  0
  147.3392  143.7730  152.9299 H   0  0  0  0  0  0  0  0  0  0  0  0
  146.0646  142.5709  152.8926 H   0  0  0  0  0  0  0  0  0  0  0  0
  146.1276  145.1188  154.5812 H   0  0  0  0  0  0  0  0  0  0  0  0
  144.3384  144.4025  152.2140 H   0  0  0  0  0  0  0  0  0  0  0  0
  145.6590  145.5684  152.1950 H   0  0  0  0  0  0  0  0  0  0  0  0
  144.2324  145.8727  153.1782 H   0  0  0  0  0  0  0  0  0  0  0  0
  143.8534  144.5140  155.3423 H   0  0  0  0  0  0  0  0  0  0  0  0
  143.8829  143.0698  154.3644 H   0  0  0  0  0  0  0  0  0  0  0  0
  144.3713  142.3904  156.5872 H   0  0  0  0  0  0  0  0  0  0  0  0
  146.6154  144.4481  156.7876 H   0  0  0  0  0  0  0  0  0  0  0  0
  146.1546  143.2737  158.0120 H   0  0  0  0  0  0  0  0  0  0  0  0
  145.0413  144.5592  157.5678 H   0  0  0  0  0  0  0  0  0  0  0  0
  145.6577  141.1712  154.9609 H   0  0  0  0  0  0  0  0  0  0  0  0
  146.6507  141.4139  156.3757 H   0  0  0  0  0  0  0  0  0  0  0  0
  147.6454  143.2999  155.2388 H   0  0  0  0  0  0  0  0  0  0  0  0
  1  2  1  0  0  0  0
  1 22  1  0  0  0  0
  1 23  1  0  0  0  0
  1 24  1  0  0  0  0
  2 21  2  0  0  0  0
  2  3  1  0  0  0  0
  3  4  2  0  0  0  0
  3 25  1  0  0  0  0
  4  5  1  0  0  0  0
  4  6  1  0  0  0  0
  5 26  1  0  0  0  0
  5 27  1  0  0  0  0
  5 28  1  0  0  0  0
  6  7  1  0  0  0  0
  6 21  1  0  0  0  0
  7  8  1  0  0  0  0
  7 29  1  0  0  0  0
  7 30  1  0  0  0  0
  8  9  2  0  0  0  0
  8 10  1  0  0  0  0
 10 11  1  0  0  0  0
 10 31  1  0  0  0  0
 11 12  1  0  0  0  0
 11 32  1  0  0  0  0
 11 33  1  0  0  0  0
 12 13  1  0  0  0  0
 12 34  1  0  0  0  0
 12 35  1  0  0  0  0
 13 20  1  0  0  0  0
 13 14  1  0  0  0  0
 13 50  1  0  0  0  0
 14 15  1  0  0  0  0
 14 36  1  0  0  0  0
 14 37  1  0  0  0  0
 15 16  1  0  0  0  0
 15 17  1  0  0  0  0
 15 38  1  0  0  0  0
 16 39  1  0  0  0  0
 16 40  1  0  0  0  0
 16 41  1  0  0  0  0
 17 18  1  0  0  0  0
 17 42  1  0  0  0  0
 17 43  1  0  0  0  0
 18 19  1  0  0  0  0
 18 20  1  0  0  0  0
 18 44  1  0  0  0  0
 19 45  1  0  0  0  0
 19 46  1  0  0  0  0
 19 47  1  0  0  0  0
 20 48  1  0  0  0  0
 20 49  1  0  0  0  0
M  CHG  1  13   1
M  END
> <s_m_source_file>
AV-unprocessed.smi

> <i_m_source_file_index>
1475

> <i_lp_mmshare_version>
43012

> <i_f3d_flags>
0

> <s_epik_input>
W0NIM11jMVtjSF1jKFtDSDNdKW4objEpW0NIMl1DKD1PKVtOSF1bQ0gyXVtDSDJdTjJbQ0gyXVtDQEBIXShbQ0gzXSlbQ0gyXVtDQEBIXShbQ0gzXSlbQ0gyXTI=

> <s_epik_cmdline>
J2VwaWtfcHl0aG9uJywgJy1waCcsICc3LjAnLCAnLXRuJywgJzgnLCAnLW1hJywgJzIwMCcsICctbWV0YWxfYmluZGluZycsICctaW1hZScsICc8aW5maWxlLm1hZT4nLCAnLW9tYWUnLCAnPG91dGZpbGUubWFlPic=

> <r_lp_tautomer_probability>
1

> <r_epik_Ionization_Penalty>
0.00206431

> <r_epik_Ionization_Penalty_Charging>
0.00187095

> <r_epik_Ionization_Penalty_Neutral>
0.000193364

> <r_epik_State_Penalty>
-0

> <r_epik_Charging_Adjusted_Penalty>
0.00187095

> <i_epik_Tot_Q>
1

> <i_epik_Tot_abs_Q>
1

> <r_epik_Metal_State_Penalty>
-0

> <b_epik_Metal_Only>
0

> <s_lp_Force_Field>
OPLS_2005

> <r_lp_Energy>
16.2356

> <b_lp_Chiralities_Consistent>
1

> <s_lp_Variant>
AV-unprocessed.smi:1475-3

> <Gold.Version>
5.8.1

> <Gold.Id.Protein>
6NUR|6NUR_protein|mol2

> <Gold.PLP.Fitness>
53.9355

> <Gold.PLP.PLP>
-46.2196

> <Gold.PLP.part.hbond>
-2.0000

> <Gold.PLP.part.metal>
0.0000

> <Gold.PLP.part.buried>
-7.3639

> <Gold.PLP.part.nonpolar>
-37.0028

> <Gold.PLP.part.repulsive>
0.2424

> <Gold.PLP.ligand.clash>
0.0000

> <Gold.PLP.ligand.torsion>
0.4469

> <Gold.PLP.Chemscore.Hbond>
2.8608

> <Gold.PLP.Chemscore.CHOScore>
0.0000

> <Gold.PLP.Chemscore.Metal>
0.0000

> <Gold.Chemscore.Hbonds>
donor molecule, donor type, donor heavy atom, donor atom, acceptor molecule, acceptor atom, score
      L1  H    10    31       P1  8028  0.78
      L1  H    13    50       P1  8028  2.00

> <Gold.PLP.Chemscore.Internal.Correction>
0.0273

> <Gold.Rescore>
     Score         DG    S(hbond)    S(metal)    S(lipo)     H(rot)  DE(clash)    DE(int)     intcor
     14.63     -17.18       0.97        0.00     108.17       1.64       0.42       2.14       ----

> <Gold.Chemscore.Fitness>
14.6267

> <Gold.Chemscore.DG>
-17.1841

> <Gold.Chemscore.ZeroCoef>
-5.4800

> <Gold.Chemscore.Hbond>
0.9719

> <Gold.Chemscore.Metal>
0.0000

> <Gold.Chemscore.Lipo>
108.1712

> <Gold.Chemscore.Internal_Hbond>
0.0000

> <Gold.Chemscore.DEClash>
0.4188

> <Gold.Chemscore.DEInternal>
2.1386

> <Gold.Chemscore.Rot>
1.6399

> <Gold.Chemscore.Internal.Correction>
   9.000000E+99

> <Gold.Chemscore.Hbonds>
donor molecule, donor type, donor heavy atom, donor atom, acceptor molecule, acceptor atom, score
      L1  H    10    31       P1  8028  0.73
      L1  H    13    50       P1  8028  0.30

> <Gold.Chemscore.Hbond.Weighted>
-3.2463

> <Gold.Chemscore.Metal.Weighted>
-0.0000

> <Gold.Chemscore.Lipo.Weighted>
-12.6560

> <Gold.Chemscore.Internal_Hbond.Weighted>
0.0000

> <Gold.Chemscore.DEClash.Weighted>
0.4188

> <Gold.Chemscore.DEInternal.Weighted>
2.1386

> <Gold.Chemscore.Rot.Weighted>
4.1982

> <Gold.Chemscore.Internal.Correction.Weighted>
   9.000000E+99

> <Gold.Protein.RotatedTorsions>
[ 6907 6896 6895 6894 ] final   -7.49 input  -60.11 | X-H torsion
[ 7974 7965 7964 7962 ] final -172.90 input  175.53 | X-H torsion
[ 8008 7997 7996 7995 ] final  179.04 input   59.86 | X-H torsion
[ 10167 10162 10161 10158 ] final  -49.00 input  -65.29 | X-H torsion
[ 10718 10713 10712 10709 ] final   13.59 input   66.30 | X-H torsion
[ 10763 10752 10751 10750 ] final  164.36 input  -60.55 | X-H torsion
[ 11005 11000 10999 10996 ] final  164.08 input  -57.11 | X-H torsion

> <Gold.Protein.ActiveResidues>
 VAL166  LYS551  ARG553  GLY616  TRP617  ASP618  TYR619  PRO620  LYS621  CYS622 
 ASP623  PHE694  ASN695  SER759  ASP760  ASP761  ALA762  ILE779  LEU786  VAL792 
 PHE793  MET794  SER795  GLU796  ALA797  LYS798  CYS799  TRP800  GLU811  SER814 

> <Gold.Protein.RotatedAtoms>
  151.4487  135.1027  159.9691 H   0  0  0  0  0  0  0  0  0  0  0  0  # atno 6907 bound_to 6896
  152.4896  133.8460  159.7188 H   0  0  0  0  0  0  0  0  0  0  0  0  # atno 6908 bound_to 6896
  150.9037  133.7026  159.2899 H   0  0  0  0  0  0  0  0  0  0  0  0  # atno 6909 bound_to 6896
  144.7142  140.1702  143.6368 H   0  0  0  0  0  0  0  0  0  0  0  0  # atno 7974 bound_to 7965
  156.0479  140.1318  157.0083 H   0  0  0  0  0  0  0  0  0  0  0  0  # atno 8008 bound_to 7997
  154.4421  140.1017  156.6403 H   0  0  0  0  0  0  0  0  0  0  0  0  # atno 8009 bound_to 7997
  155.5568  140.3464  155.4484 H   0  0  0  0  0  0  0  0  0  0  0  0  # atno 8010 bound_to 7997
  140.6705  143.2716  151.4152 H   0  0  0  0  0  0  0  0  0  0  0  0  # atno 10167 bound_to 10162
  157.0268  130.6177  149.5729 H   0  0  0  0  0  0  0  0  0  0  0  0  # atno 10718 bound_to 10713
  154.3078  135.2758  155.2580 H   0  0  0  0  0  0  0  0  0  0  0  0  # atno 10763 bound_to 10752
  154.4989  135.5813  153.6519 H   0  0  0  0  0  0  0  0  0  0  0  0  # atno 10764 bound_to 10752
  152.9892  135.6153  154.3253 H   0  0  0  0  0  0  0  0  0  0  0  0  # atno 10765 bound_to 10752
  140.2423  134.8042  157.3422 H   0  0  0  0  0  0  0  0  0  0  0  0  # atno 11005 bound_to 11000
  145.8950  139.2397  143.1527 LP  0  0  0  0  0  0  0  0  0  0  0  0  # atno 17320 bound_to 7965
  145.9866  140.8638  143.0087 LP  0  0  0  0  0  0  0  0  0  0  0  0  # atno 17321 bound_to 7965
  139.5972  144.1373  152.2157 LP  0  0  0  0  0  0  0  0  0  0  0  0  # atno 17342 bound_to 10162
  140.0746  144.5751  150.7167 LP  0  0  0  0  0  0  0  0  0  0  0  0  # atno 17343 bound_to 10162
  156.0083  130.5172  150.7904 LP  0  0  0  0  0  0  0  0  0  0  0  0  # atno 17370 bound_to 10713
  157.5207  131.0931  151.0081 LP  0  0  0  0  0  0  0  0  0  0  0  0  # atno 17371 bound_to 10713
  140.1641  134.4691  155.7875 LP  0  0  0  0  0  0  0  0  0  0  0  0  # atno 17394 bound_to 11000
  141.2209  133.6914  156.7595 LP  0  0  0  0  0  0  0  0  0  0  0  0  # atno 17395 bound_to 11000

$$$$
