AV-unprocessed.smi:1019|AV-procd|sdf|4444|dock9
  -GOLD-   22720 2403D 1   1.00000     0.00000
 Structure written by MMmdl.
 44 46  0  0  0  0  0  0  0  0  2 V2000
  148.1704  138.6989  154.3612 C   0  0  0  0  0  0  0  0  0  0  0  0
  148.7191  137.3367  154.5794 N   0  3  2  0  0  0  0  0  0  0  0  0
  147.6821  136.3644  155.0099 C   0  0  0  0  0  0  0  0  0  0  0  0
  148.1142  134.9257  154.7866 C   0  0  0  0  0  0  0  0  0  0  0  0
  149.2232  134.4072  155.4882 C   0  0  0  0  0  0  0  0  0  0  0  0
  149.6299  133.0745  155.2835 C   0  0  0  0  0  0  0  0  0  0  0  0
  148.9283  132.2545  154.3790 C   0  0  0  0  0  0  0  0  0  0  0  0
  147.8189  132.7676  153.6792 C   0  0  0  0  0  0  0  0  0  0  0  0
  147.4116  134.1005  153.8826 C   0  0  0  0  0  0  0  0  0  0  0  0
  149.8997  137.3349  155.4818 C   0  0  0  0  0  0  0  0  0  0  0  0
  151.1144  138.0738  154.8737 C   0  0  2  0  0  0  0  0  0  0  0  0
  151.8671  137.1655  154.0946 O   0  0  0  0  0  0  0  0  0  0  0  0
  152.0629  138.6746  155.9314 C   0  0  0  0  0  0  0  0  0  0  0  0
  151.7031  140.0322  156.2997 N   0  0  0  0  0  0  0  0  0  0  0  0
  150.9194  140.8804  155.6055 C   0  0  0  0  0  0  0  0  0  0  0  0
  150.7311  142.0930  156.1174 N   0  0  0  0  0  0  0  0  0  0  0  0
  151.4653  142.0199  157.2884 C   0  0  0  0  0  0  0  0  0  0  0  0
  151.6803  142.9853  158.2978 C   0  0  0  0  0  0  0  0  0  0  0  0
  152.4788  142.6803  159.4198 C   0  0  0  0  0  0  0  0  0  0  0  0
  153.0714  141.4076  159.5510 C   0  0  0  0  0  0  0  0  0  0  0  0
  152.8728  140.4297  158.5576 C   0  0  0  0  0  0  0  0  0  0  0  0
  152.0794  140.7395  157.4370 C   0  0  0  0  0  0  0  0  0  0  0  0
  147.7432  139.0987  155.2819 H   0  0  0  0  0  0  0  0  0  0  0  0
  147.3899  138.6928  153.6006 H   0  0  0  0  0  0  0  0  0  0  0  0
  148.9372  139.3925  154.0189 H   0  0  0  0  0  0  0  0  0  0  0  0
  147.4810  136.4783  156.0761 H   0  0  0  0  0  0  0  0  0  0  0  0
  146.7420  136.5666  154.4935 H   0  0  0  0  0  0  0  0  0  0  0  0
  149.7656  135.0305  156.1840 H   0  0  0  0  0  0  0  0  0  0  0  0
  150.4803  132.6808  155.8210 H   0  0  0  0  0  0  0  0  0  0  0  0
  149.2398  131.2321  154.2231 H   0  0  0  0  0  0  0  0  0  0  0  0
  147.2799  132.1378  152.9866 H   0  0  0  0  0  0  0  0  0  0  0  0
  146.5601  134.4865  153.3412 H   0  0  0  0  0  0  0  0  0  0  0  0
  149.6001  137.7765  156.4331 H   0  0  0  0  0  0  0  0  0  0  0  0
  150.2054  136.3131  155.7120 H   0  0  0  0  0  0  0  0  0  0  0  0
  150.7834  138.8768  154.2174 H   0  0  0  0  0  0  0  0  0  0  0  0
  151.4446  137.0530  153.2572 H   0  0  0  0  0  0  0  0  0  0  0  0
  152.0609  138.0602  156.8333 H   0  0  0  0  0  0  0  0  0  0  0  0
  153.0890  138.6828  155.5613 H   0  0  0  0  0  0  0  0  0  0  0  0
  150.4709  140.5963  154.6647 H   0  0  0  0  0  0  0  0  0  0  0  0
  151.2287  143.9625  158.2100 H   0  0  0  0  0  0  0  0  0  0  0  0
  152.6350  143.4263  160.1853 H   0  0  0  0  0  0  0  0  0  0  0  0
  153.6777  141.1825  160.4163 H   0  0  0  0  0  0  0  0  0  0  0  0
  153.3241  139.4540  158.6582 H   0  0  0  0  0  0  0  0  0  0  0  0
  149.0512  137.0030  153.6860 H   0  0  0  0  0  0  0  0  0  0  0  0
  1  2  1  0  0  0  0
  1 23  1  0  0  0  0
  1 24  1  0  0  0  0
  1 25  1  0  0  0  0
  2  3  1  0  0  0  0
  2 10  1  0  0  0  0
  2 44  1  0  0  0  0
  3  4  1  0  0  0  0
  3 26  1  0  0  0  0
  3 27  1  0  0  0  0
  4  9  1  0  0  0  0
  4  5  2  0  0  0  0
  5  6  1  0  0  0  0
  5 28  1  0  0  0  0
  6  7  2  0  0  0  0
  6 29  1  0  0  0  0
  7  8  1  0  0  0  0
  7 30  1  0  0  0  0
  8  9  2  0  0  0  0
  8 31  1  0  0  0  0
  9 32  1  0  0  0  0
 10 11  1  0  0  0  0
 10 33  1  0  0  0  0
 10 34  1  0  0  0  0
 11 12  1  0  0  0  0
 11 13  1  0  0  0  0
 11 35  1  0  0  0  0
 12 36  1  0  0  0  0
 13 14  1  0  0  0  0
 13 37  1  0  0  0  0
 13 38  1  0  0  0  0
 14 22  1  0  0  0  0
 14 15  1  0  0  0  0
 15 16  2  0  0  0  0
 15 39  1  0  0  0  0
 16 17  1  0  0  0  0
 17 22  2  0  0  0  0
 17 18  1  0  0  0  0
 18 19  2  0  0  0  0
 18 40  1  0  0  0  0
 19 20  1  0  0  0  0
 19 41  1  0  0  0  0
 20 21  2  0  0  0  0
 20 42  1  0  0  0  0
 21 22  1  0  0  0  0
 21 43  1  0  0  0  0
M  CHG  1   2   1
M  END
> <s_m_source_file>
AV-unprocessed.smi

> <i_m_source_file_index>
1019

> <i_lp_mmshare_version>
43012

> <i_f3d_flags>
0

> <s_epik_input>
W2NIXTFbY0hdW2NIXVtjSF1bY0hdYzFbQ0gyXU4oW0NIM10pW0NIMl1bQ0BIXShbT0hdKVtDSDJdbihbY0hdbjIpYyhjMjMpW2NIXVtjSF1bY0hdW2NIXTM=

> <s_epik_cmdline>
J2VwaWtfcHl0aG9uJywgJy1waCcsICc3LjAnLCAnLXRuJywgJzgnLCAnLW1hJywgJzIwMCcsICctbWV0YWxfYmluZGluZycsICctaW1hZScsICc8aW5maWxlLm1hZT4nLCAnLW9tYWUnLCAnPG91dGZpbGUubWFlPic=

> <r_epik_Ionization_Penalty>
0.0996557

> <r_epik_Ionization_Penalty_Charging>
0.0475377

> <r_epik_Ionization_Penalty_Neutral>
0.0521179

> <r_epik_State_Penalty>
0.0851777

> <r_epik_Charging_Adjusted_Penalty>
0.132715

> <i_epik_Tot_Q>
1

> <i_epik_Tot_abs_Q>
1

> <r_epik_Metal_State_Penalty>
0.0423478

> <b_epik_Metal_Only>
0

> <s_lp_Force_Field>
OPLS_2005

> <r_lp_Energy>
17.6047

> <b_lp_Chiralities_Consistent>
1

> <s_lp_Variant>
AV-unprocessed.smi:1019-2

> <Gold.Version>
5.8.1

> <Gold.Id.Protein>
6NUR|6NUR_protein|mol2

> <Gold.PLP.Fitness>
51.7287

> <Gold.PLP.PLP>
-41.7447

> <Gold.PLP.part.hbond>
-3.0000

> <Gold.PLP.part.metal>
0.0000

> <Gold.PLP.part.buried>
-3.7720

> <Gold.PLP.part.nonpolar>
-34.5805

> <Gold.PLP.part.repulsive>
0.1022

> <Gold.PLP.ligand.clash>
0.0000

> <Gold.PLP.ligand.torsion>
1.1542

> <Gold.PLP.Chemscore.Hbond>
4.0000

> <Gold.PLP.Chemscore.CHOScore>
0.0000

> <Gold.PLP.Chemscore.Metal>
0.0000

> <Gold.Chemscore.Hbonds>
donor molecule, donor type, donor heavy atom, donor atom, acceptor molecule, acceptor atom, score
      L1  H     2    44       P1  7948  2.00
      L1  H    12    36       P1  7949  0.88
      P1  H 10752 10763       L1    12  0.89

> <Gold.PLP.Chemscore.Internal.Correction>
0.2924

> <Gold.Rescore>
     Score         DG    S(hbond)    S(metal)    S(lipo)     H(rot)  DE(clash)    DE(int)     intcor
     17.99     -19.21       2.34        0.00     102.32       2.36       0.09       1.13       ----

> <Gold.Chemscore.Fitness>
17.9943

> <Gold.Chemscore.DG>
-19.2136

> <Gold.Chemscore.ZeroCoef>
-5.4800

> <Gold.Chemscore.Hbond>
2.3377

> <Gold.Chemscore.Metal>
0.0000

> <Gold.Chemscore.Lipo>
102.3188

> <Gold.Chemscore.Internal_Hbond>
0.0000

> <Gold.Chemscore.DEClash>
0.0918

> <Gold.Chemscore.DEInternal>
1.1275

> <Gold.Chemscore.Rot>
2.3616

> <Gold.Chemscore.Internal.Correction>
   9.000000E+99

> <Gold.Chemscore.Hbonds>
donor molecule, donor type, donor heavy atom, donor atom, acceptor molecule, acceptor atom, score
      L1  H     2    44       P1  7948  0.98
      L1  H    12    36       P1  7949  0.70
      P1  H 10752 10763       L1    12  0.17

> <Gold.Chemscore.Hbond.Weighted>
-7.8081

> <Gold.Chemscore.Metal.Weighted>
-0.0000

> <Gold.Chemscore.Lipo.Weighted>
-11.9713

> <Gold.Chemscore.Internal_Hbond.Weighted>
0.0000

> <Gold.Chemscore.DEClash.Weighted>
0.0918

> <Gold.Chemscore.DEInternal.Weighted>
1.1275

> <Gold.Chemscore.Rot.Weighted>
6.0457

> <Gold.Chemscore.Internal.Correction.Weighted>
   9.000000E+99

> <Gold.Protein.RotatedTorsions>
[ 6907 6896 6895 6894 ] final    3.80 input  -60.11 | X-H torsion
[ 7974 7965 7964 7962 ] final   48.33 input  175.53 | X-H torsion
[ 8008 7997 7996 7995 ] final  124.89 input   59.86 | X-H torsion
[ 10167 10162 10161 10158 ] final -129.19 input  -65.29 | X-H torsion
[ 10718 10713 10712 10709 ] final    5.50 input   66.30 | X-H torsion
[ 10763 10752 10751 10750 ] final   22.52 input  -60.55 | X-H torsion
[ 11005 11000 10999 10996 ] final   27.70 input  -57.11 | X-H torsion

> <Gold.Protein.ActiveResidues>
 VAL166  LYS551  ARG553  GLY616  TRP617  ASP618  TYR619  PRO620  LYS621  CYS622 
 ASP623  PHE694  ASN695  SER759  ASP760  ASP761  ALA762  ILE779  LEU786  VAL792 
 PHE793  MET794  SER795  GLU796  ALA797  LYS798  CYS799  TRP800  GLU811  SER814 

> <Gold.Protein.RotatedAtoms>
  151.6309  135.1023  160.0121 H   0  0  0  0  0  0  0  0  0  0  0  0  # atno 6907 bound_to 6896
  152.4107  133.6954  159.6403 H   0  0  0  0  0  0  0  0  0  0  0  0  # atno 6908 bound_to 6896
  150.7997  133.8547  159.3256 H   0  0  0  0  0  0  0  0  0  0  0  0  # atno 6909 bound_to 6896
  146.0214  139.4655  142.9895 H   0  0  0  0  0  0  0  0  0  0  0  0  # atno 7974 bound_to 7965
  156.2816  140.2729  156.1860 H   0  0  0  0  0  0  0  0  0  0  0  0  # atno 8008 bound_to 7997
  155.0507  140.0386  157.2560 H   0  0  0  0  0  0  0  0  0  0  0  0  # atno 8009 bound_to 7997
  154.7197  140.2685  155.6558 H   0  0  0  0  0  0  0  0  0  0  0  0  # atno 8010 bound_to 7997
  139.9424  143.6148  152.2499 H   0  0  0  0  0  0  0  0  0  0  0  0  # atno 10167 bound_to 10162
  156.9083  130.5747  149.5647 H   0  0  0  0  0  0  0  0  0  0  0  0  # atno 10718 bound_to 10713
  153.0909  135.6646  153.9856 H   0  0  0  0  0  0  0  0  0  0  0  0  # atno 10763 bound_to 10752
  153.9452  135.2989  155.3442 H   0  0  0  0  0  0  0  0  0  0  0  0  # atno 10764 bound_to 10752
  154.7323  135.5117  153.9058 H   0  0  0  0  0  0  0  0  0  0  0  0  # atno 10765 bound_to 10752
  140.3235  134.2517  155.7713 H   0  0  0  0  0  0  0  0  0  0  0  0  # atno 11005 bound_to 11000
  145.7187  141.0082  143.1414 LP  0  0  0  0  0  0  0  0  0  0  0  0  # atno 17320 bound_to 7965
  144.6991  139.8844  143.7449 LP  0  0  0  0  0  0  0  0  0  0  0  0  # atno 17321 bound_to 7965
  139.6694  144.7661  151.1812 LP  0  0  0  0  0  0  0  0  0  0  0  0  # atno 17342 bound_to 10162
  140.7607  143.5888  150.8817 LP  0  0  0  0  0  0  0  0  0  0  0  0  # atno 17343 bound_to 10162
  156.0548  130.5611  150.9068 LP  0  0  0  0  0  0  0  0  0  0  0  0  # atno 17370 bound_to 10713
  157.5983  131.0942  150.9003 LP  0  0  0  0  0  0  0  0  0  0  0  0  # atno 17371 bound_to 10713
  141.2081  133.7787  157.0080 LP  0  0  0  0  0  0  0  0  0  0  0  0  # atno 17394 bound_to 11000
  140.0922  134.9586  157.1793 LP  0  0  0  0  0  0  0  0  0  0  0  0  # atno 17395 bound_to 11000

$$$$
