AV-unprocessed.smi:501|AV-procd|sdf|2743|dock1
  -GOLD-   2262023203D 1   1.00000     0.00000
 Structure written by MMmdl.
 46 48  0  0  0  0  0  0  0  0  2 V2000
  151.6225  144.6889  159.7902 C   0  0  0  0  0  0  0  0  0  0  0  0
  152.3029  143.3370  159.8601 C   0  0  0  0  0  0  0  0  0  0  0  0
  152.9850  142.9416  161.0281 C   0  0  0  0  0  0  0  0  0  0  0  0
  153.6150  141.6848  161.0819 C   0  0  0  0  0  0  0  0  0  0  0  0
  153.5635  140.8225  159.9704 C   0  0  0  0  0  0  0  0  0  0  0  0
  152.8845  141.2012  158.7942 C   0  0  0  0  0  0  0  0  0  0  0  0
  152.8834  140.2970  157.7535 O   0  0  0  0  0  0  0  0  0  0  0  0
  151.8010  140.3383  156.8359 C   0  0  0  0  0  0  0  0  0  0  0  0
  151.0656  138.9948  156.8686 C   0  0  0  0  0  0  0  0  0  0  0  0
  150.2330  138.8085  155.6721 N   0  0  0  0  0  0  0  0  0  0  0  0
  150.2957  137.8678  154.6843 C   0  0  0  0  0  0  0  0  0  0  0  0
  151.2674  136.7312  154.5762 C   0  0  0  0  0  0  0  0  0  0  0  0
  150.6596  135.3694  154.9702 C   0  0  0  0  0  0  0  0  0  0  0  0
  149.9187  134.7353  153.8824 N   0  0  0  0  0  0  0  0  0  0  0  0
  149.9244  133.4218  153.6136 C   0  0  0  0  0  0  0  0  0  0  0  0
  150.5801  132.5884  154.2364 O   0  0  0  0  0  0  0  0  0  0  0  0
  149.2826  138.1364  153.8113 N   0  3  0  0  0  0  0  0  0  0  0  0
  148.5890  139.2740  154.2245 C   0  0  0  0  0  0  0  0  0  0  0  0
  147.5036  139.9355  153.6582 C   0  0  0  0  0  0  0  0  0  0  0  0
  147.0363  141.0806  154.3361 C   0  0  0  0  0  0  0  0  0  0  0  0
  147.6442  141.5273  155.5276 C   0  0  0  0  0  0  0  0  0  0  0  0
  148.7432  140.8475  156.0927 C   0  0  0  0  0  0  0  0  0  0  0  0
  149.1971  139.7145  155.4175 C   0  0  0  0  0  0  0  0  0  0  0  0
  152.2526  142.4704  158.7491 C   0  0  0  0  0  0  0  0  0  0  0  0
  151.7552  145.2512  160.7150 H   0  0  0  0  0  0  0  0  0  0  0  0
  150.5532  144.5647  159.6180 H   0  0  0  0  0  0  0  0  0  0  0  0
  152.0365  145.2782  158.9716 H   0  0  0  0  0  0  0  0  0  0  0  0
  153.0285  143.5985  161.8845 H   0  0  0  0  0  0  0  0  0  0  0  0
  154.1389  141.3815  161.9763 H   0  0  0  0  0  0  0  0  0  0  0  0
  154.0513  139.8601  160.0209 H   0  0  0  0  0  0  0  0  0  0  0  0
  151.1157  141.1458  157.0986 H   0  0  0  0  0  0  0  0  0  0  0  0
  152.1718  140.5200  155.8276 H   0  0  0  0  0  0  0  0  0  0  0  0
  151.7792  138.1721  156.9154 H   0  0  0  0  0  0  0  0  0  0  0  0
  150.4426  138.9069  157.7589 H   0  0  0  0  0  0  0  0  0  0  0  0
  151.6490  136.6733  153.5571 H   0  0  0  0  0  0  0  0  0  0  0  0
  152.1266  136.9481  155.2109 H   0  0  0  0  0  0  0  0  0  0  0  0
  151.4429  134.6985  155.3265 H   0  0  0  0  0  0  0  0  0  0  0  0
  149.9713  135.5025  155.8053 H   0  0  0  0  0  0  0  0  0  0  0  0
  149.3403  135.3336  153.3103 H   0  0  0  0  0  0  0  0  0  0  0  0
  149.2672  133.1918  152.7608 H   0  0  0  0  0  0  0  0  0  0  0  0
  147.0381  139.5961  152.7443 H   0  0  0  0  0  0  0  0  0  0  0  0
  146.1962  141.6284  153.9342 H   0  0  0  0  0  0  0  0  0  0  0  0
  147.2600  142.4099  156.0186 H   0  0  0  0  0  0  0  0  0  0  0  0
  149.2023  141.2007  157.0042 H   0  0  0  0  0  0  0  0  0  0  0  0
  151.7217  142.8030  157.8702 H   0  0  0  0  0  0  0  0  0  0  0  0
  149.0868  137.5823  152.9877 H   0  0  0  0  0  0  0  0  0  0  0  0
  1  2  1  0  0  0  0
  1 25  1  0  0  0  0
  1 26  1  0  0  0  0
  1 27  1  0  0  0  0
  2 24  1  0  0  0  0
  2  3  2  0  0  0  0
  3  4  1  0  0  0  0
  3 28  1  0  0  0  0
  4  5  2  0  0  0  0
  4 29  1  0  0  0  0
  5  6  1  0  0  0  0
  5 30  1  0  0  0  0
  6  7  1  0  0  0  0
  6 24  2  0  0  0  0
  7  8  1  0  0  0  0
  8  9  1  0  0  0  0
  8 31  1  0  0  0  0
  8 32  1  0  0  0  0
  9 10  1  0  0  0  0
  9 33  1  0  0  0  0
  9 34  1  0  0  0  0
 10 23  1  0  0  0  0
 10 11  1  0  0  0  0
 11 12  1  0  0  0  0
 11 17  2  0  0  0  0
 12 13  1  0  0  0  0
 12 35  1  0  0  0  0
 12 36  1  0  0  0  0
 13 14  1  0  0  0  0
 13 37  1  0  0  0  0
 13 38  1  0  0  0  0
 14 15  1  0  0  0  0
 14 39  1  0  0  0  0
 15 16  2  0  0  0  0
 15 40  1  0  0  0  0
 17 18  1  0  0  0  0
 17 46  1  0  0  0  0
 18 23  2  0  0  0  0
 18 19  1  0  0  0  0
 19 20  2  0  0  0  0
 19 41  1  0  0  0  0
 20 21  1  0  0  0  0
 20 42  1  0  0  0  0
 21 22  2  0  0  0  0
 21 43  1  0  0  0  0
 22 23  1  0  0  0  0
 22 44  1  0  0  0  0
 24 45  1  0  0  0  0
M  CHG  1  17   1
M  END
> <s_m_source_file>
AV-unprocessed.smi

> <i_m_source_file_index>
501

> <i_lp_mmshare_version>
43012

> <i_f3d_flags>
0

> <s_epik_input>
W0NIM11jMVtjSF1bY0hdW2NIXWMoW2NIXTEpT1tDSDJdW0NIMl1uKGMobjIpW0NIMl1bQ0gyXVtOSF1bQ0hdPU8pYyhjMjMpW2NIXVtjSF1bY0hdW2NIXTM=

> <s_epik_cmdline>
J2VwaWtfcHl0aG9uJywgJy1waCcsICc3LjAnLCAnLXRuJywgJzgnLCAnLW1hJywgJzIwMCcsICctbWV0YWxfYmluZGluZycsICctaW1hZScsICc8aW5maWxlLm1hZT4nLCAnLW9tYWUnLCAnPG91dGZpbGUubWFlPic=

> <r_lp_tautomer_probability>
1

> <r_epik_Ionization_Penalty>
1.14747

> <r_epik_Ionization_Penalty_Charging>
1.14747

> <r_epik_Ionization_Penalty_Neutral>
1.55554e-08

> <r_epik_State_Penalty>
1.20856

> <r_epik_Charging_Adjusted_Penalty>
2.35603

> <i_epik_Tot_Q>
1

> <i_epik_Tot_abs_Q>
1

> <r_epik_Metal_State_Penalty>
1.28951

> <b_epik_Metal_Only>
0

> <s_lp_Force_Field>
OPLS_2005

> <r_lp_Energy>
21.7567

> <b_lp_Chiralities_Consistent>
1

> <s_lp_Variant>
AV-unprocessed.smi:501-2

> <Gold.Version>
5.8.1

> <Gold.Id.Protein>
6NUR|6NUR_protein|mol2

> <Gold.PLP.Fitness>
57.1026

> <Gold.PLP.PLP>
-47.7077

> <Gold.PLP.part.hbond>
-3.4456

> <Gold.PLP.part.metal>
0.0000

> <Gold.PLP.part.buried>
-0.4943

> <Gold.PLP.part.nonpolar>
-44.0969

> <Gold.PLP.part.repulsive>
0.0956

> <Gold.PLP.ligand.clash>
0.0000

> <Gold.PLP.ligand.torsion>
1.3041

> <Gold.PLP.Chemscore.Hbond>
3.9199

> <Gold.PLP.Chemscore.CHOScore>
0.0000

> <Gold.PLP.Chemscore.Metal>
0.0000

> <Gold.Chemscore.Hbonds>
donor molecule, donor type, donor heavy atom, donor atom, acceptor molecule, acceptor atom, score
      L1  H    14    39       P1  7948  0.80
      L1  H    17    46       P1  7948  2.00
      P1  H  7997  8010       L1     7  0.93

> <Gold.PLP.Chemscore.Internal.Correction>
0.2434

> <Gold.Rescore>
     Score         DG    S(hbond)    S(metal)    S(lipo)     H(rot)  DE(clash)    DE(int)     intcor
     20.16     -21.50       2.34        0.00     128.81       2.68       0.18       1.16       ----

> <Gold.Chemscore.Fitness>
20.1627

> <Gold.Chemscore.DG>
-21.5012

> <Gold.Chemscore.ZeroCoef>
-5.4800

> <Gold.Chemscore.Hbond>
2.3420

> <Gold.Chemscore.Metal>
0.0000

> <Gold.Chemscore.Lipo>
128.8090

> <Gold.Chemscore.Internal_Hbond>
0.0000

> <Gold.Chemscore.DEClash>
0.1775

> <Gold.Chemscore.DEInternal>
1.1610

> <Gold.Chemscore.Rot>
2.6843

> <Gold.Chemscore.Internal.Correction>
   9.000000E+99

> <Gold.Chemscore.Hbonds>
donor molecule, donor type, donor heavy atom, donor atom, acceptor molecule, acceptor atom, score
      L1  H    14    39       P1  7948  0.11
      L1  H    17    46       P1  7948  1.00
      P1  H  7997  8010       L1     7  0.56

> <Gold.Chemscore.Hbond.Weighted>
-7.8223

> <Gold.Chemscore.Metal.Weighted>
-0.0000

> <Gold.Chemscore.Lipo.Weighted>
-15.0707

> <Gold.Chemscore.Internal_Hbond.Weighted>
0.0000

> <Gold.Chemscore.DEClash.Weighted>
0.1775

> <Gold.Chemscore.DEInternal.Weighted>
1.1610

> <Gold.Chemscore.Rot.Weighted>
6.8718

> <Gold.Chemscore.Internal.Correction.Weighted>
   9.000000E+99

> <Gold.Protein.RotatedTorsions>
[ 6907 6896 6895 6894 ] final  -95.55 input  -60.11 | X-H torsion
[ 7974 7965 7964 7962 ] final -124.34 input  175.53 | X-H torsion
[ 8008 7997 7996 7995 ] final   51.29 input   59.86 | X-H torsion
[ 10167 10162 10161 10158 ] final  -44.98 input  -65.29 | X-H torsion
[ 10718 10713 10712 10709 ] final  -25.55 input   66.30 | X-H torsion
[ 10763 10752 10751 10750 ] final  118.70 input  -60.55 | X-H torsion
[ 11005 11000 10999 10996 ] final -171.48 input  -57.11 | X-H torsion

> <Gold.Protein.ActiveResidues>
 VAL166  LYS551  ARG553  GLY616  TRP617  ASP618  TYR619  PRO620  LYS621  CYS622 
 ASP623  PHE694  ASN695  SER759  ASP760  ASP761  ALA762  ILE779  LEU786  VAL792 
 PHE793  MET794  SER795  GLU796  ALA797  LYS798  CYS799  TRP800  GLU811  SER814 

> <Gold.Protein.RotatedAtoms>
  150.6966  134.1641  159.4186 H   0  0  0  0  0  0  0  0  0  0  0  0  # atno 6907 bound_to 6896
  151.9620  135.0116  160.0557 H   0  0  0  0  0  0  0  0  0  0  0  0  # atno 6908 bound_to 6896
  152.1918  133.4743  159.5049 H   0  0  0  0  0  0  0  0  0  0  0  0  # atno 6909 bound_to 6896
  145.0091  140.7890  143.4449 H   0  0  0  0  0  0  0  0  0  0  0  0  # atno 7974 bound_to 7965
  155.4328  140.3451  155.4282 H   0  0  0  0  0  0  0  0  0  0  0  0  # atno 8008 bound_to 7997
  156.1326  140.1518  156.9073 H   0  0  0  0  0  0  0  0  0  0  0  0  # atno 8009 bound_to 7997
  154.4906  140.0842  156.7566 H   0  0  0  0  0  0  0  0  0  0  0  0  # atno 8010 bound_to 7997
  140.6876  143.2903  151.3573 H   0  0  0  0  0  0  0  0  0  0  0  0  # atno 10167 bound_to 10162
  156.4629  130.4508  149.6917 H   0  0  0  0  0  0  0  0  0  0  0  0  # atno 10718 bound_to 10713
  153.5716  135.3501  155.2840 H   0  0  0  0  0  0  0  0  0  0  0  0  # atno 10763 bound_to 10752
  154.8681  135.4161  154.2719 H   0  0  0  0  0  0  0  0  0  0  0  0  # atno 10764 bound_to 10752
  153.3486  135.7054  153.6877 H   0  0  0  0  0  0  0  0  0  0  0  0  # atno 10765 bound_to 10752
  140.5078  134.5831  157.5009 H   0  0  0  0  0  0  0  0  0  0  0  0  # atno 11005 bound_to 11000
  145.2047  139.2234  143.5174 LP  0  0  0  0  0  0  0  0  0  0  0  0  # atno 17320 bound_to 7965
  146.3466  140.1872  142.8589 LP  0  0  0  0  0  0  0  0  0  0  0  0  # atno 17321 bound_to 7965
  139.6248  144.0835  152.2424 LP  0  0  0  0  0  0  0  0  0  0  0  0  # atno 17342 bound_to 10162
  140.0291  144.6094  150.7502 LP  0  0  0  0  0  0  0  0  0  0  0  0  # atno 17343 bound_to 10162
  156.3698  130.7524  151.2506 LP  0  0  0  0  0  0  0  0  0  0  0  0  # atno 17370 bound_to 10713
  157.7496  131.0326  150.4235 LP  0  0  0  0  0  0  0  0  0  0  0  0  # atno 17371 bound_to 10713
  139.9676  134.7346  156.0106 LP  0  0  0  0  0  0  0  0  0  0  0  0  # atno 17394 bound_to 11000
  141.1402  133.6566  156.3707 LP  0  0  0  0  0  0  0  0  0  0  0  0  # atno 17395 bound_to 11000

$$$$
