AV-unprocessed.smi:101|AV-procd|sdf|938|dock1
  -GOLD-   2262017453D 1   1.00000     0.00000
 Structure written by MMmdl.
 43 45  0  0  0  0  0  0  0  0  2 V2000
  144.3747  141.6341  157.9001 C   0  0  0  0  0  0  0  0  0  0  0  0
  144.8268  142.2663  156.5954 C   0  0  0  0  0  0  0  0  0  0  0  0
  145.8622  141.7769  155.8774 C   0  0  0  0  0  0  0  0  0  0  0  0
  146.2700  142.3584  154.6895 N   0  0  0  0  0  0  0  0  0  0  0  0
  147.4186  141.7822  153.8945 C   0  0  1  0  0  0  0  0  0  0  0  0
  148.5460  141.7029  154.7156 O   0  0  0  0  0  0  0  0  0  0  0  0
  149.1887  140.4497  154.5270 C   0  0  1  0  0  0  0  0  0  0  0  0
  150.0472  140.0784  155.7444 C   0  0  0  0  0  0  0  0  0  0  0  0
  150.6917  141.2421  156.2354 O   0  0  0  0  0  0  0  0  0  0  0  0
  151.7522  141.1282  157.0581 C   0  0  0  0  0  0  0  0  0  0  0  0
  152.5090  140.1550  157.0642 O   0  0  0  0  0  0  0  0  0  0  0  0
  151.9180  142.3058  157.9585 C   0  0  0  0  0  0  0  0  0  0  0  0
  151.3030  143.5325  157.6153 C   0  0  0  0  0  0  0  0  0  0  0  0
  151.4399  144.6611  158.4467 C   0  0  0  0  0  0  0  0  0  0  0  0
  152.1937  144.5767  159.6317 C   0  0  0  0  0  0  0  0  0  0  0  0
  152.8125  143.3629  159.9833 C   0  0  0  0  0  0  0  0  0  0  0  0
  152.6773  142.2333  159.1528 C   0  0  0  0  0  0  0  0  0  0  0  0
  148.0358  139.4898  154.2122 C   0  0  1  0  0  0  0  0  0  0  0  0
  147.4141  139.0290  155.3986 O   0  0  0  0  0  0  0  0  0  0  0  0
  147.0760  140.3608  153.4122 C   0  0  2  0  0  0  0  0  0  0  0  0
  147.3232  140.2216  152.0278 O   0  0  0  0  0  0  0  0  0  0  0  0
  145.5680  143.4804  154.1788 C   0  0  0  0  0  0  0  0  0  0  0  0
  145.9272  143.9442  153.0960 O   0  0  0  0  0  0  0  0  0  0  0  0
  144.5275  143.9860  154.9001 N   0  5  0  0  0  0  0  0  0  0  0  0
  144.1187  143.4466  156.0846 C   0  0  0  0  0  0  0  0  0  0  0  0
  143.1808  143.9168  156.7281 O   0  0  0  0  0  0  0  0  0  0  0  0
  144.9925  140.7734  158.1581 H   0  0  0  0  0  0  0  0  0  0  0  0
  143.3405  141.2975  157.8225 H   0  0  0  0  0  0  0  0  0  0  0  0
  144.4428  142.3550  158.7153 H   0  0  0  0  0  0  0  0  0  0  0  0
  146.3776  140.9021  156.2449 H   0  0  0  0  0  0  0  0  0  0  0  0
  147.6207  142.4914  153.0899 H   0  0  0  0  0  0  0  0  0  0  0  0
  149.8207  140.5254  153.6401 H   0  0  0  0  0  0  0  0  0  0  0  0
  149.4348  139.6224  156.5239 H   0  0  0  0  0  0  0  0  0  0  0  0
  150.8069  139.3522  155.4520 H   0  0  0  0  0  0  0  0  0  0  0  0
  150.7182  143.6213  156.7110 H   0  0  0  0  0  0  0  0  0  0  0  0
  150.9651  145.5921  158.1744 H   0  0  0  0  0  0  0  0  0  0  0  0
  152.2976  145.4418  160.2699 H   0  0  0  0  0  0  0  0  0  0  0  0
  153.3926  143.2969  160.8919 H   0  0  0  0  0  0  0  0  0  0  0  0
  153.1669  141.3178  159.4515 H   0  0  0  0  0  0  0  0  0  0  0  0
  148.3759  138.6171  153.6528 H   0  0  0  0  0  0  0  0  0  0  0  0
  147.7696  138.1810  155.6149 H   0  0  0  0  0  0  0  0  0  0  0  0
  146.0300  140.1135  153.6026 H   0  0  0  0  0  0  0  0  0  0  0  0
  148.2384  140.0130  151.9127 H   0  0  0  0  0  0  0  0  0  0  0  0
  1  2  1  0  0  0  0
  1 27  1  0  0  0  0
  1 28  1  0  0  0  0
  1 29  1  0  0  0  0
  2 25  1  0  0  0  0
  2  3  2  0  0  0  0
  3  4  1  0  0  0  0
  3 30  1  0  0  0  0
  4  5  1  0  0  0  0
  4 22  1  0  0  0  0
  5 20  1  0  0  0  0
  5  6  1  0  0  0  0
  5 31  1  0  0  0  0
  6  7  1  0  0  0  0
  7  8  1  0  0  0  0
  7 18  1  0  0  0  0
  7 32  1  0  0  0  0
  8  9  1  0  0  0  0
  8 33  1  0  0  0  0
  8 34  1  0  0  0  0
  9 10  1  0  0  0  0
 10 11  2  0  0  0  0
 10 12  1  0  0  0  0
 12 17  1  0  0  0  0
 12 13  2  0  0  0  0
 13 14  1  0  0  0  0
 13 35  1  0  0  0  0
 14 15  2  0  0  0  0
 14 36  1  0  0  0  0
 15 16  1  0  0  0  0
 15 37  1  0  0  0  0
 16 17  2  0  0  0  0
 16 38  1  0  0  0  0
 17 39  1  0  0  0  0
 18 19  1  0  0  0  0
 18 20  1  0  0  0  0
 18 40  1  0  0  0  0
 19 41  1  0  0  0  0
 20 21  1  0  0  0  0
 20 42  1  0  0  0  0
 21 43  1  0  0  0  0
 22 23  2  0  0  0  0
 22 24  1  0  0  0  0
 24 25  1  0  0  0  0
 25 26  2  0  0  0  0
M  CHG  1  24  -1
M  END
> <s_m_source_file>
AV-unprocessed.smi

> <i_m_source_file_index>
101

> <i_lp_mmshare_version>
43012

> <i_f3d_flags>
0

> <s_epik_input>
Tz1jMVtuSF1jKD1PKW4oW2NIXWMxW0NIM10pW0NAQEhdMk9bQ0BIXShbQ0BASF0oW09IXSlbQ0BIXTJbT0hdKVtDSDJdT0MoPU8pYzNbY0hdW2NIXVtjSF1bY0hdW2NIXTM=

> <s_epik_cmdline>
J2VwaWtfcHl0aG9uJywgJy1waCcsICc3LjAnLCAnLXRuJywgJzgnLCAnLW1hJywgJzIwMCcsICctbWV0YWxfYmluZGluZycsICctaW1hZScsICc8aW5maWxlLm1hZT4nLCAnLW9tYWUnLCAnPG91dGZpbGUubWFlPic=

> <r_lp_tautomer_probability>
0.999537

> <r_epik_Ionization_Penalty>
3.21006

> <r_epik_Ionization_Penalty_Charging>
5.75142e-08

> <r_epik_Ionization_Penalty_Neutral>
3.21006

> <r_epik_State_Penalty>
3.20925

> <r_epik_Charging_Adjusted_Penalty>
3.20925

> <i_epik_Tot_Q>
-1

> <i_epik_Tot_abs_Q>
1

> <r_epik_Metal_State_Penalty>
0.119957

> <b_epik_Metal_Only>
1

> <s_epik_Chemistry_Notes>
This compound has an ester and may undergo hydrolysis at high or low pH. This compound contains an acetal/aminal-like group ( X-CH(R)-Y where X, Y are N, S, or O) that may be acid/base labile, releasing an aldehyde.

> <s_lp_Force_Field>
OPLS_2005

> <r_lp_Energy>
38.3605

> <b_lp_Chiralities_Consistent>
1

> <s_lp_Variant>
AV-unprocessed.smi:101-26

> <Gold.Version>
5.8.1

> <Gold.Id.Protein>
6NUR|6NUR_protein|mol2

> <Gold.PLP.Fitness>
49.2291

> <Gold.PLP.PLP>
-44.7730

> <Gold.PLP.part.hbond>
-2.5818

> <Gold.PLP.part.metal>
0.0000

> <Gold.PLP.part.buried>
-5.0547

> <Gold.PLP.part.nonpolar>
-36.1768

> <Gold.PLP.part.repulsive>
0.5948

> <Gold.PLP.ligand.clash>
0.0000

> <Gold.PLP.ligand.torsion>
0.8903

> <Gold.PLP.Chemscore.Hbond>
2.0000

> <Gold.PLP.Chemscore.CHOScore>
0.0000

> <Gold.PLP.Chemscore.Metal>
0.0000

> <Gold.Chemscore.Hbonds>
donor molecule, donor type, donor heavy atom, donor atom, acceptor molecule, acceptor atom, score
      L1  H    21    43       P1  7957  1.00
      P1  H  7997  8010       L1    11  1.00

> <Gold.PLP.Chemscore.Internal.Correction>
0.2368

> <Gold.Rescore>
     Score         DG    S(hbond)    S(metal)    S(lipo)     H(rot)  DE(clash)    DE(int)     intcor
     13.83     -15.15       1.93        0.00      99.15       3.27       0.43       0.89       ----

> <Gold.Chemscore.Fitness>
13.8315

> <Gold.Chemscore.DG>
-15.1525

> <Gold.Chemscore.ZeroCoef>
-5.4800

> <Gold.Chemscore.Hbond>
1.9258

> <Gold.Chemscore.Metal>
0.0000

> <Gold.Chemscore.Lipo>
99.1455

> <Gold.Chemscore.Internal_Hbond>
0.0000

> <Gold.Chemscore.DEClash>
0.4299

> <Gold.Chemscore.DEInternal>
0.8911

> <Gold.Chemscore.Rot>
3.2656

> <Gold.Chemscore.Internal.Correction>
   9.000000E+99

> <Gold.Chemscore.Hbonds>
donor molecule, donor type, donor heavy atom, donor atom, acceptor molecule, acceptor atom, score
      L1  H    21    43       P1  7957  0.92
      P1  H  7997  8010       L1    11  0.97

> <Gold.Chemscore.Hbond.Weighted>
-6.4323

> <Gold.Chemscore.Metal.Weighted>
-0.0000

> <Gold.Chemscore.Lipo.Weighted>
-11.6000

> <Gold.Chemscore.Internal_Hbond.Weighted>
0.0000

> <Gold.Chemscore.DEClash.Weighted>
0.4299

> <Gold.Chemscore.DEInternal.Weighted>
0.8911

> <Gold.Chemscore.Rot.Weighted>
8.3598

> <Gold.Chemscore.Internal.Correction.Weighted>
   9.000000E+99

> <Gold.Protein.RotatedTorsions>
[ 6907 6896 6895 6894 ] final -149.27 input  -60.11 | X-H torsion
[ 7974 7965 7964 7962 ] final   96.01 input  175.53 | X-H torsion
[ 8008 7997 7996 7995 ] final   56.97 input   59.86 | X-H torsion
[ 10167 10162 10161 10158 ] final  -29.47 input  -65.29 | X-H torsion
[ 10718 10713 10712 10709 ] final  103.22 input   66.30 | X-H torsion
[ 10763 10752 10751 10750 ] final  -53.90 input  -60.55 | X-H torsion
[ 11005 11000 10999 10996 ] final   13.10 input  -57.11 | X-H torsion

> <Gold.Protein.ActiveResidues>
 VAL166  LYS551  ARG553  GLY616  TRP617  ASP618  TYR619  PRO620  LYS621  CYS622 
 ASP623  PHE694  ASN695  SER759  ASP760  ASP761  ALA762  ILE779  LEU786  VAL792 
 PHE793  MET794  SER795  GLU796  ALA797  LYS798  CYS799  TRP800  GLU811  SER814 

> <Gold.Protein.RotatedAtoms>
  151.1817  133.4721  159.2593 H   0  0  0  0  0  0  0  0  0  0  0  0  # atno 6907 bound_to 6896
  151.1252  135.0101  159.8567 H   0  0  0  0  0  0  0  0  0  0  0  0  # atno 6908 bound_to 6896
  152.5458  134.1725  159.8655 H   0  0  0  0  0  0  0  0  0  0  0  0  # atno 6909 bound_to 6896
  145.4446  139.2298  143.3073 H   0  0  0  0  0  0  0  0  0  0  0  0  # atno 7974 bound_to 7965
  155.5262  140.3481  155.4417 H   0  0  0  0  0  0  0  0  0  0  0  0  # atno 8008 bound_to 7997
  156.0750  140.1372  156.9809 H   0  0  0  0  0  0  0  0  0  0  0  0  # atno 8009 bound_to 7997
  154.4548  140.0958  156.6701 H   0  0  0  0  0  0  0  0  0  0  0  0  # atno 8010 bound_to 7997
  140.7260  143.3926  151.1403 H   0  0  0  0  0  0  0  0  0  0  0  0  # atno 10167 bound_to 10162
  157.6779  131.0773  150.5523 H   0  0  0  0  0  0  0  0  0  0  0  0  # atno 10718 bound_to 10713
  154.1662  135.6466  153.4998 H   0  0  0  0  0  0  0  0  0  0  0  0  # atno 10763 bound_to 10752
  153.0097  135.5372  154.6659 H   0  0  0  0  0  0  0  0  0  0  0  0  # atno 10764 bound_to 10752
  154.5986  135.2941  155.0531 H   0  0  0  0  0  0  0  0  0  0  0  0  # atno 10765 bound_to 10752
  140.4846  134.0901  155.7758 H   0  0  0  0  0  0  0  0  0  0  0  0  # atno 11005 bound_to 11000
  146.2538  140.5198  142.8882 LP  0  0  0  0  0  0  0  0  0  0  0  0  # atno 17320 bound_to 7965
  144.8100  140.6368  143.6422 LP  0  0  0  0  0  0  0  0  0  0  0  0  # atno 17321 bound_to 7965
  139.7534  143.8744  152.3082 LP  0  0  0  0  0  0  0  0  0  0  0  0  # atno 17342 bound_to 10162
  139.8606  144.7119  150.9104 LP  0  0  0  0  0  0  0  0  0  0  0  0  # atno 17343 bound_to 10162
  156.5827  130.4308  149.5970 LP  0  0  0  0  0  0  0  0  0  0  0  0  # atno 17370 bound_to 10713
  156.2648  130.6983  151.1762 LP  0  0  0  0  0  0  0  0  0  0  0  0  # atno 17371 bound_to 10713
  141.1514  133.8961  157.2087 LP  0  0  0  0  0  0  0  0  0  0  0  0  # atno 17394 bound_to 11000
  139.9806  135.0099  156.9739 LP  0  0  0  0  0  0  0  0  0  0  0  0  # atno 17395 bound_to 11000

$$$$
