AV-unprocessed.smi:1135|AV-procd|sdf|4858|dock3
  -GOLD-   22720 3433D 1   1.00000     0.00000
 Structure written by MMmdl.
 45 46  0  0  0  0  0  0  0  0  1 V2000
  150.2630  141.7097  157.5798 C   0  0  0  0  0  0  0  0  0  0  0  0
  149.3933  141.0673  156.4900 C   0  0  2  0  0  0  0  0  0  0  0  0
  149.6064  141.7481  155.1281 C   0  0  0  0  0  0  0  0  0  0  0  0
  148.7301  141.1162  154.0322 C   0  0  0  0  0  0  0  0  0  0  0  0
  147.2185  141.0886  154.3737 C   0  0  1  0  0  0  0  0  0  0  0  0
  146.6248  142.5163  154.2970 C   0  0  0  0  0  0  0  0  0  0  0  0
  146.5914  140.2346  153.3556 N   0  0  0  0  0  0  0  0  0  0  0  0
  146.9472  138.9983  152.9675 C   0  0  0  0  0  0  0  0  0  0  0  0
  147.8963  138.3643  153.4289 O   0  0  0  0  0  0  0  0  0  0  0  0
  146.1333  138.5305  152.0112 N   0  0  0  0  0  0  0  0  0  0  0  0
  146.2388  137.2114  151.3981 C   0  0  0  0  0  0  0  0  0  0  0  0
  145.5561  136.1353  152.2586 C   0  0  0  0  0  0  0  0  0  0  0  0
  145.6118  134.7622  151.6158 C   0  0  0  0  0  0  0  0  0  0  0  0
  144.4261  134.0480  151.3405 C   0  0  0  0  0  0  0  0  0  0  0  0
  144.5319  132.7758  150.7457 C   0  0  0  0  0  0  0  0  0  0  0  0
  145.8124  132.2685  150.4527 C   0  0  0  0  0  0  0  0  0  0  0  0
  146.9350  133.0594  150.7689 C   0  0  0  0  0  0  0  0  0  0  0  0
  146.8447  134.2814  151.3376 N   0  0  0  0  0  0  0  0  0  0  0  0
  147.0221  140.4584  155.7797 C   0  0  0  0  0  0  0  0  0  0  0  0
  147.9030  141.0972  156.8677 C   0  0  0  0  0  0  0  0  0  0  0  0
  150.0075  142.7603  157.7224 H   0  0  0  0  0  0  0  0  0  0  0  0
  151.3206  141.6567  157.3196 H   0  0  0  0  0  0  0  0  0  0  0  0
  150.1336  141.2030  158.5365 H   0  0  0  0  0  0  0  0  0  0  0  0
  149.6974  140.0235  156.3978 H   0  0  0  0  0  0  0  0  0  0  0  0
  149.3935  142.8144  155.2071 H   0  0  0  0  0  0  0  0  0  0  0  0
  150.6550  141.6716  154.8382 H   0  0  0  0  0  0  0  0  0  0  0  0
  148.8929  141.6398  153.0892 H   0  0  0  0  0  0  0  0  0  0  0  0
  149.0828  140.0960  153.8698 H   0  0  0  0  0  0  0  0  0  0  0  0
  147.1233  143.2039  154.9788 H   0  0  0  0  0  0  0  0  0  0  0  0
  145.5668  142.5337  154.5577 H   0  0  0  0  0  0  0  0  0  0  0  0
  146.7219  142.9306  153.2930 H   0  0  0  0  0  0  0  0  0  0  0  0
  145.7901  140.6373  152.8919 H   0  0  0  0  0  0  0  0  0  0  0  0
  145.3814  139.1235  151.6915 H   0  0  0  0  0  0  0  0  0  0  0  0
  145.7683  137.2574  150.4155 H   0  0  0  0  0  0  0  0  0  0  0  0
  147.2867  136.9575  151.2293 H   0  0  0  0  0  0  0  0  0  0  0  0
  146.0264  136.0856  153.2417 H   0  0  0  0  0  0  0  0  0  0  0  0
  144.5126  136.4023  152.4316 H   0  0  0  0  0  0  0  0  0  0  0  0
  143.4579  134.4633  151.5795 H   0  0  0  0  0  0  0  0  0  0  0  0
  143.6471  132.1994  150.5196 H   0  0  0  0  0  0  0  0  0  0  0  0
  145.9313  131.2961  149.9979 H   0  0  0  0  0  0  0  0  0  0  0  0
  147.9319  132.7005  150.5604 H   0  0  0  0  0  0  0  0  0  0  0  0
  145.9782  140.5224  156.0878 H   0  0  0  0  0  0  0  0  0  0  0  0
  147.2559  139.3935  155.7336 H   0  0  0  0  0  0  0  0  0  0  0  0
  147.7501  140.5693  157.8094 H   0  0  0  0  0  0  0  0  0  0  0  0
  147.5847  142.1251  157.0432 H   0  0  0  0  0  0  0  0  0  0  0  0
  1  2  1  0  0  0  0
  1 21  1  0  0  0  0
  1 22  1  0  0  0  0
  1 23  1  0  0  0  0
  2 20  1  0  0  0  0
  2  3  1  0  0  0  0
  2 24  1  0  0  0  0
  3  4  1  0  0  0  0
  3 25  1  0  0  0  0
  3 26  1  0  0  0  0
  4  5  1  0  0  0  0
  4 27  1  0  0  0  0
  4 28  1  0  0  0  0
  5  6  1  0  0  0  0
  5  7  1  0  0  0  0
  5 19  1  0  0  0  0
  6 29  1  0  0  0  0
  6 30  1  0  0  0  0
  6 31  1  0  0  0  0
  7  8  1  0  0  0  0
  7 32  1  0  0  0  0
  8  9  2  0  0  0  0
  8 10  1  0  0  0  0
 10 11  1  0  0  0  0
 10 33  1  0  0  0  0
 11 12  1  0  0  0  0
 11 34  1  0  0  0  0
 11 35  1  0  0  0  0
 12 13  1  0  0  0  0
 12 36  1  0  0  0  0
 12 37  1  0  0  0  0
 13 18  1  0  0  0  0
 13 14  2  0  0  0  0
 14 15  1  0  0  0  0
 14 38  1  0  0  0  0
 15 16  2  0  0  0  0
 15 39  1  0  0  0  0
 16 17  1  0  0  0  0
 16 40  1  0  0  0  0
 17 18  2  0  0  0  0
 17 41  1  0  0  0  0
 19 20  1  0  0  0  0
 19 42  1  0  0  0  0
 19 43  1  0  0  0  0
 20 44  1  0  0  0  0
 20 45  1  0  0  0  0
M  END
> <s_m_source_file>
AV-unprocessed.smi

> <i_m_source_file_index>
1135

> <i_lp_mmshare_version>
43012

> <i_f3d_flags>
0

> <s_epik_input>
W0NIMl0xW0NIMl1bQ0BIXShbQ0gzXSlbQ0gyXVtDSDJdW0NAQF0xKFtDSDNdKVtOSF1DKD1PKVtOSF1bQ0gyXVtDSDJdYzJbY0hdW2NIXVtjSF1bY0hdbjI=

> <s_epik_cmdline>
J2VwaWtfcHl0aG9uJywgJy1waCcsICc3LjAnLCAnLXRuJywgJzgnLCAnLW1hJywgJzIwMCcsICctbWV0YWxfYmluZGluZycsICctaW1hZScsICc8aW5maWxlLm1hZT4nLCAnLW9tYWUnLCAnPG91dGZpbGUubWFlPic=

> <r_epik_Ionization_Penalty>
0.0448679

> <r_epik_Ionization_Penalty_Charging>
0

> <r_epik_Ionization_Penalty_Neutral>
0.0448679

> <r_epik_State_Penalty>
0.0379931

> <r_epik_Charging_Adjusted_Penalty>
0.0379931

> <i_epik_Tot_Q>
0

> <i_epik_Tot_abs_Q>
0

> <r_epik_Metal_State_Penalty>
0.0353093

> <b_epik_Metal_Only>
0

> <s_lp_Force_Field>
OPLS_2005

> <r_lp_Energy>
8.69074

> <b_lp_Chiralities_Consistent>
1

> <s_lp_Variant>
AV-unprocessed.smi:1135-1

> <Gold.Version>
5.8.1

> <Gold.Id.Protein>
6NUR|6NUR_protein|mol2

> <Gold.PLP.Fitness>
43.2400

> <Gold.PLP.PLP>
-35.5424

> <Gold.PLP.part.hbond>
-3.0000

> <Gold.PLP.part.metal>
0.0000

> <Gold.PLP.part.buried>
-2.0369

> <Gold.PLP.part.nonpolar>
-32.7278

> <Gold.PLP.part.repulsive>
1.9846

> <Gold.PLP.ligand.clash>
0.0000

> <Gold.PLP.ligand.torsion>
0.2801

> <Gold.PLP.Chemscore.Hbond>
1.7440

> <Gold.PLP.Chemscore.CHOScore>
1.0000

> <Gold.PLP.Chemscore.Metal>
0.0000

> <Gold.Chemscore.Hbonds>
donor molecule, donor type, donor heavy atom, donor atom, acceptor molecule, acceptor atom, score
      L1  H     7    32       P1 10175  0.69
      L1  H    10    33       P1 10175  0.31
      L1  C    17    41       P1 10747  1.00

> <Gold.PLP.Chemscore.Internal.Correction>
0.0258

> <Gold.Rescore>
     Score         DG    S(hbond)    S(metal)    S(lipo)     H(rot)  DE(clash)    DE(int)     intcor
     16.24     -17.69       1.80        0.00      83.93       1.42       1.28       0.16       ----

> <Gold.Chemscore.Fitness>
16.2424

> <Gold.Chemscore.DG>
-17.6889

> <Gold.Chemscore.ZeroCoef>
-5.4800

> <Gold.Chemscore.Hbond>
1.8045

> <Gold.Chemscore.Metal>
0.0000

> <Gold.Chemscore.Lipo>
83.9346

> <Gold.Chemscore.Internal_Hbond>
0.0000

> <Gold.Chemscore.DEClash>
1.2835

> <Gold.Chemscore.DEInternal>
0.1631

> <Gold.Chemscore.Rot>
1.4213

> <Gold.Chemscore.Internal.Correction>
   9.000000E+99

> <Gold.Chemscore.Hbonds>
donor molecule, donor type, donor heavy atom, donor atom, acceptor molecule, acceptor atom, score
      L1  H     7    32       P1 10175  0.43
      L1  H    10    33       P1 10175  0.30

> <Gold.Chemscore.Hbond.Weighted>
-6.0271

> <Gold.Chemscore.Metal.Weighted>
-0.0000

> <Gold.Chemscore.Lipo.Weighted>
-9.8204

> <Gold.Chemscore.Internal_Hbond.Weighted>
0.0000

> <Gold.Chemscore.DEClash.Weighted>
1.2835

> <Gold.Chemscore.DEInternal.Weighted>
0.1631

> <Gold.Chemscore.Rot.Weighted>
3.6385

> <Gold.Chemscore.Internal.Correction.Weighted>
   9.000000E+99

> <Gold.Protein.RotatedTorsions>
[ 6907 6896 6895 6894 ] final  -85.13 input  -60.11 | X-H torsion
[ 7974 7965 7964 7962 ] final   -1.13 input  175.53 | X-H torsion
[ 8008 7997 7996 7995 ] final  133.95 input   59.86 | X-H torsion
[ 10167 10162 10161 10158 ] final  -55.29 input  -65.29 | X-H torsion
[ 10718 10713 10712 10709 ] final   -0.43 input   66.30 | X-H torsion
[ 10763 10752 10751 10750 ] final   77.59 input  -60.55 | X-H torsion
[ 11005 11000 10999 10996 ] final   45.61 input  -57.11 | X-H torsion

> <Gold.Protein.ActiveResidues>
 VAL166  LYS551  ARG553  GLY616  TRP617  ASP618  TYR619  PRO620  LYS621  CYS622 
 ASP623  PHE694  ASN695  SER759  ASP760  ASP761  ALA762  ILE779  LEU786  VAL792 
 PHE793  MET794  SER795  GLU796  ALA797  LYS798  CYS799  TRP800  GLU811  SER814 

> <Gold.Protein.RotatedAtoms>
  150.6872  134.3252  159.4803 H   0  0  0  0  0  0  0  0  0  0  0  0  # atno 6907 bound_to 6896
  152.1123  134.9263  160.0575 H   0  0  0  0  0  0  0  0  0  0  0  0  # atno 6908 bound_to 6896
  152.0501  133.3980  159.4410 H   0  0  0  0  0  0  0  0  0  0  0  0  # atno 6909 bound_to 6896
  146.2420  140.1375  142.8336 H   0  0  0  0  0  0  0  0  0  0  0  0  # atno 7974 bound_to 7965
  156.2996  140.2508  156.3336 H   0  0  0  0  0  0  0  0  0  0  0  0  # atno 8008 bound_to 7997
  154.9121  140.0403  157.1971 H   0  0  0  0  0  0  0  0  0  0  0  0  # atno 8009 bound_to 7997
  154.8395  140.2888  155.5673 H   0  0  0  0  0  0  0  0  0  0  0  0  # atno 8010 bound_to 7997
  140.6383  143.2494  151.5058 H   0  0  0  0  0  0  0  0  0  0  0  0  # atno 10167 bound_to 10162
  156.8206  130.5455  149.5698 H   0  0  0  0  0  0  0  0  0  0  0  0  # atno 10718 bound_to 10713
  153.0810  135.4909  154.8502 H   0  0  0  0  0  0  0  0  0  0  0  0  # atno 10763 bound_to 10752
  154.7150  135.3027  154.9140 H   0  0  0  0  0  0  0  0  0  0  0  0  # atno 10764 bound_to 10752
  153.9822  135.6788  153.4803 H   0  0  0  0  0  0  0  0  0  0  0  0  # atno 10765 bound_to 10752
  140.1444  134.4542  155.8426 H   0  0  0  0  0  0  0  0  0  0  0  0  # atno 11005 bound_to 11000
  145.0275  140.8844  143.5130 LP  0  0  0  0  0  0  0  0  0  0  0  0  # atno 17320 bound_to 7965
  145.1433  139.2559  143.5479 LP  0  0  0  0  0  0  0  0  0  0  0  0  # atno 17321 bound_to 7965
  139.5593  144.2197  152.1664 LP  0  0  0  0  0  0  0  0  0  0  0  0  # atno 17342 bound_to 10162
  140.1460  144.5158  150.6715 LP  0  0  0  0  0  0  0  0  0  0  0  0  # atno 17343 bound_to 10162
  156.0991  130.5955  150.9864 LP  0  0  0  0  0  0  0  0  0  0  0  0  # atno 17370 bound_to 10713
  157.6459  131.0904  150.8155 LP  0  0  0  0  0  0  0  0  0  0  0  0  # atno 17371 bound_to 10713
  141.2190  133.6846  156.7306 LP  0  0  0  0  0  0  0  0  0  0  0  0  # atno 17394 bound_to 11000
  140.2682  134.8413  157.3823 LP  0  0  0  0  0  0  0  0  0  0  0  0  # atno 17395 bound_to 11000

$$$$
