AV-unprocessed.smi:141|AV-procd|sdf|1188|dock3
  -GOLD-   2262018343D 1   1.00000     0.00000
 Structure written by MMmdl.
 56 59  0  0  0  0  0  0  0  0  1 V2000
  150.3696  136.9194  159.9615 O   0  0  0  0  0  0  0  0  0  0  0  0
  149.9284  137.0876  158.8228 C   0  0  0  0  0  0  0  0  0  0  0  0
  148.6928  136.2793  158.3722 C   0  0  0  0  0  0  0  0  0  0  0  0
  148.1501  135.3881  159.4226 N   0  0  0  0  0  0  0  0  0  0  0  0
  147.7966  135.9496  160.6751 C   0  0  0  0  0  0  0  0  0  0  0  0
  147.9180  137.1565  160.8908 O   0  0  0  0  0  0  0  0  0  0  0  0
  147.3005  135.0067  161.6714 C   0  0  0  0  0  0  0  0  0  0  0  0
  146.9493  135.4501  162.8903 F   0  0  0  0  0  0  0  0  0  0  0  0
  147.1941  133.6917  161.3909 C   0  0  0  0  0  0  0  0  0  0  0  0
  147.5387  133.1581  160.1626 N   0  0  0  0  0  0  0  0  0  0  0  0
  147.4268  131.6747  159.8892 C   0  0  1  0  0  0  0  0  0  0  0  0
  148.8202  131.0676  159.6875 C   0  0  0  0  0  0  0  0  0  0  0  0
  149.1424  130.5599  161.0760 C   0  0  0  0  0  0  0  0  0  0  0  0
  147.7687  130.1151  161.5638 C   0  0  0  0  0  0  0  0  0  0  0  0
  146.8501  131.0467  160.9985 O   0  0  0  0  0  0  0  0  0  0  0  0
  148.0422  134.0032  159.1500 C   0  0  0  0  0  0  0  0  0  0  0  0
  148.3905  133.5417  158.0610 O   0  0  0  0  0  0  0  0  0  0  0  0
  150.4937  137.9628  157.9554 N   0  0  0  0  0  0  0  0  0  0  0  0
  150.0031  138.2704  156.6052 C   0  0  0  0  0  0  0  0  0  0  0  0
  149.4478  139.7061  156.5939 C   0  0  0  0  0  0  0  0  0  0  0  0
  150.5147  140.7241  157.0560 C   0  0  0  0  0  0  0  0  0  0  0  0
  149.9530  142.1616  157.1313 C   0  0  0  0  0  0  0  0  0  0  0  0
  150.8189  143.0825  157.9711 C   0  0  0  0  0  0  0  0  0  0  0  0
  151.7385  143.9524  157.3486 C   0  0  0  0  0  0  0  0  0  0  0  0
  152.5363  144.8132  158.1273 C   0  0  0  0  0  0  0  0  0  0  0  0
  152.4158  144.8080  159.5306 C   0  0  0  0  0  0  0  0  0  0  0  0
  151.4965  143.9426  160.1549 C   0  0  0  0  0  0  0  0  0  0  0  0
  150.6990  143.0808  159.3766 C   0  0  0  0  0  0  0  0  0  0  0  0
  151.1458  140.2785  158.3935 C   0  0  0  0  0  0  0  0  0  0  0  0
  151.6289  138.8187  158.3220 C   0  0  0  0  0  0  0  0  0  0  0  0
  147.9235  136.9734  158.0301 H   0  0  0  0  0  0  0  0  0  0  0  0
  148.9554  135.7022  157.4845 H   0  0  0  0  0  0  0  0  0  0  0  0
  146.8297  133.0393  162.1704 H   0  0  0  0  0  0  0  0  0  0  0  0
  146.7678  131.5714  159.0256 H   0  0  0  0  0  0  0  0  0  0  0  0
  148.7392  130.2363  158.9860 H   0  0  0  0  0  0  0  0  0  0  0  0
  149.5388  131.7901  159.2985 H   0  0  0  0  0  0  0  0  0  0  0  0
  149.8780  129.7553  161.0790 H   0  0  0  0  0  0  0  0  0  0  0  0
  149.5214  131.3726  161.6966 H   0  0  0  0  0  0  0  0  0  0  0  0
  147.5359  129.1196  161.1831 H   0  0  0  0  0  0  0  0  0  0  0  0
  147.6958  130.0895  162.6513 H   0  0  0  0  0  0  0  0  0  0  0  0
  150.8293  138.1859  155.8977 H   0  0  0  0  0  0  0  0  0  0  0  0
  149.2438  137.5797  156.2427 H   0  0  0  0  0  0  0  0  0  0  0  0
  149.1018  139.9599  155.5912 H   0  0  0  0  0  0  0  0  0  0  0  0
  148.5748  139.7590  157.2463 H   0  0  0  0  0  0  0  0  0  0  0  0
  151.3158  140.7034  156.3147 H   0  0  0  0  0  0  0  0  0  0  0  0
  149.8495  142.5915  156.1340 H   0  0  0  0  0  0  0  0  0  0  0  0
  148.9451  142.1604  157.5489 H   0  0  0  0  0  0  0  0  0  0  0  0
  151.8328  143.9636  156.2723 H   0  0  0  0  0  0  0  0  0  0  0  0
  153.2397  145.4780  157.6481 H   0  0  0  0  0  0  0  0  0  0  0  0
  153.0271  145.4687  160.1275 H   0  0  0  0  0  0  0  0  0  0  0  0
  151.4023  143.9403  161.2308 H   0  0  0  0  0  0  0  0  0  0  0  0
  149.9936  142.4207  159.8603 H   0  0  0  0  0  0  0  0  0  0  0  0
  151.9817  140.9315  158.6468 H   0  0  0  0  0  0  0  0  0  0  0  0
  150.4178  140.3786  159.2001 H   0  0  0  0  0  0  0  0  0  0  0  0
  152.0883  138.5351  159.2695 H   0  0  0  0  0  0  0  0  0  0  0  0
  152.4147  138.7190  157.5718 H   0  0  0  0  0  0  0  0  0  0  0  0
  1  2  2  0  0  0  0
  2  3  1  0  0  0  0
  2 18  1  0  0  0  0
  3  4  1  0  0  0  0
  3 31  1  0  0  0  0
  3 32  1  0  0  0  0
  4 16  1  0  0  0  0
  4  5  1  0  0  0  0
  5  6  2  0  0  0  0
  5  7  1  0  0  0  0
  7  8  1  0  0  0  0
  7  9  2  0  0  0  0
  9 10  1  0  0  0  0
  9 33  1  0  0  0  0
 10 11  1  0  0  0  0
 10 16  1  0  0  0  0
 11 15  1  0  0  0  0
 11 12  1  0  0  0  0
 11 34  1  0  0  0  0
 12 13  1  0  0  0  0
 12 35  1  0  0  0  0
 12 36  1  0  0  0  0
 13 14  1  0  0  0  0
 13 37  1  0  0  0  0
 13 38  1  0  0  0  0
 14 15  1  0  0  0  0
 14 39  1  0  0  0  0
 14 40  1  0  0  0  0
 16 17  2  0  0  0  0
 18 30  1  0  0  0  0
 18 19  1  0  0  0  0
 19 20  1  0  0  0  0
 19 41  1  0  0  0  0
 19 42  1  0  0  0  0
 20 21  1  0  0  0  0
 20 43  1  0  0  0  0
 20 44  1  0  0  0  0
 21 22  1  0  0  0  0
 21 29  1  0  0  0  0
 21 45  1  0  0  0  0
 22 23  1  0  0  0  0
 22 46  1  0  0  0  0
 22 47  1  0  0  0  0
 23 28  1  0  0  0  0
 23 24  2  0  0  0  0
 24 25  1  0  0  0  0
 24 48  1  0  0  0  0
 25 26  2  0  0  0  0
 25 49  1  0  0  0  0
 26 27  1  0  0  0  0
 26 50  1  0  0  0  0
 27 28  2  0  0  0  0
 27 51  1  0  0  0  0
 28 52  1  0  0  0  0
 29 30  1  0  0  0  0
 29 53  1  0  0  0  0
 29 54  1  0  0  0  0
 30 55  1  0  0  0  0
 30 56  1  0  0  0  0
M  END
> <s_m_source_file>
AV-unprocessed.smi

> <i_m_source_file_index>
141

> <i_lp_mmshare_version>
43012

> <i_f3d_flags>
0

> <s_epik_input>
W2NIXTFbY0hdW2NIXVtjSF1bY0hdYzFbQ0gyXVtDSF0oW0NIMl1bQ0gyXTIpW0NIMl1bQ0gyXU4yQyg9TylbQ0gyXW4zYyg9TyljKEYpW2NIXW4oYzM9TylbQ0BASF00W0NIMl1bQ0gyXVtDSDJdTzQ=

> <s_epik_cmdline>
J2VwaWtfcHl0aG9uJywgJy1waCcsICc3LjAnLCAnLXRuJywgJzgnLCAnLW1hJywgJzIwMCcsICctbWV0YWxfYmluZGluZycsICctaW1hZScsICc8aW5maWxlLm1hZT4nLCAnLW9tYWUnLCAnPG91dGZpbGUubWFlPic=

> <r_lp_tautomer_probability>
1

> <r_epik_Ionization_Penalty>
3.78313e-08

> <r_epik_Ionization_Penalty_Charging>
4.95074e-09

> <r_epik_Ionization_Penalty_Neutral>
3.28806e-08

> <r_epik_State_Penalty>
-0

> <r_epik_Charging_Adjusted_Penalty>
4.95074e-09

> <i_epik_Tot_Q>
0

> <i_epik_Tot_abs_Q>
0

> <r_epik_Metal_State_Penalty>
-0

> <b_epik_Metal_Only>
0

> <s_epik_Chemistry_Notes>
This compound contains an acetal/aminal-like group ( X-CH(R)-Y where X, Y are N, S, or O) that may be acid/base labile, releasing an aldehyde.

> <s_lp_Force_Field>
OPLS_2005

> <r_lp_Energy>
51.0645

> <b_lp_Chiralities_Consistent>
1

> <s_lp_Variant>
AV-unprocessed.smi:141-2

> <Gold.Version>
5.8.1

> <Gold.Id.Protein>
6NUR|6NUR_protein|mol2

> <Gold.PLP.Fitness>
56.5158

> <Gold.PLP.PLP>
-49.6525

> <Gold.PLP.part.hbond>
-3.6680

> <Gold.PLP.part.metal>
0.0000

> <Gold.PLP.part.buried>
-4.4890

> <Gold.PLP.part.nonpolar>
-43.0272

> <Gold.PLP.part.repulsive>
0.0042

> <Gold.PLP.ligand.clash>
0.0000

> <Gold.PLP.ligand.torsion>
0.5706

> <Gold.PLP.Chemscore.Hbond>
2.6472

> <Gold.PLP.Chemscore.CHOScore>
0.0000

> <Gold.PLP.Chemscore.Metal>
0.0000

> <Gold.Chemscore.Hbonds>
donor molecule, donor type, donor heavy atom, donor atom, acceptor molecule, acceptor atom, score
      P1  H  6896  6909       L1     1  1.00
      P1  H  6931  6943       L1     6  0.91
      P1  H  6934  6947       L1     6  0.80

> <Gold.PLP.Chemscore.Internal.Correction>
0.0630

> <Gold.Rescore>
     Score         DG    S(hbond)    S(metal)    S(lipo)     H(rot)  DE(clash)    DE(int)     intcor
     16.93     -22.97       2.28        0.00     124.83       1.85       0.12       5.92       ----

> <Gold.Chemscore.Fitness>
16.9294

> <Gold.Chemscore.DG>
-22.9696

> <Gold.Chemscore.ZeroCoef>
-5.4800

> <Gold.Chemscore.Hbond>
2.2786

> <Gold.Chemscore.Metal>
0.0000

> <Gold.Chemscore.Lipo>
124.8286

> <Gold.Chemscore.Internal_Hbond>
0.0000

> <Gold.Chemscore.DEClash>
0.1222

> <Gold.Chemscore.DEInternal>
5.9180

> <Gold.Chemscore.Rot>
1.8461

> <Gold.Chemscore.Internal.Correction>
   9.000000E+99

> <Gold.Chemscore.Hbonds>
donor molecule, donor type, donor heavy atom, donor atom, acceptor molecule, acceptor atom, score
      P1  H  6896  6909       L1     1  0.39
      P1  H  6931  6943       L1     6  0.88
      P1  H  6934  6947       L1     6  0.76

> <Gold.Chemscore.Hbond.Weighted>
-7.6106

> <Gold.Chemscore.Metal.Weighted>
-0.0000

> <Gold.Chemscore.Lipo.Weighted>
-14.6049

> <Gold.Chemscore.Internal_Hbond.Weighted>
0.0000

> <Gold.Chemscore.DEClash.Weighted>
0.1222

> <Gold.Chemscore.DEInternal.Weighted>
5.9180

> <Gold.Chemscore.Rot.Weighted>
4.7260

> <Gold.Chemscore.Internal.Correction.Weighted>
   9.000000E+99

> <Gold.Protein.RotatedTorsions>
[ 6907 6896 6895 6894 ] final   93.33 input  -60.11 | X-H torsion
[ 7974 7965 7964 7962 ] final  -36.20 input  175.53 | X-H torsion
[ 8008 7997 7996 7995 ] final -157.41 input   59.86 | X-H torsion
[ 10167 10162 10161 10158 ] final   33.38 input  -65.29 | X-H torsion
[ 10718 10713 10712 10709 ] final  -83.02 input   66.30 | X-H torsion
[ 10763 10752 10751 10750 ] final   98.01 input  -60.55 | X-H torsion
[ 11005 11000 10999 10996 ] final  -95.68 input  -57.11 | X-H torsion

> <Gold.Protein.ActiveResidues>
 VAL166  LYS551  ARG553  GLY616  TRP617  ASP618  TYR619  PRO620  LYS621  CYS622 
 ASP623  PHE694  ASN695  SER759  ASP760  ASP761  ALA762  ILE779  LEU786  VAL792 
 PHE793  MET794  SER795  GLU796  ALA797  LYS798  CYS799  TRP800  GLU811  SER814 

> <Gold.Protein.RotatedAtoms>
  152.5452  134.1365  159.8460 H   0  0  0  0  0  0  0  0  0  0  0  0  # atno 6907 bound_to 6896
  151.1405  133.4967  159.2604 H   0  0  0  0  0  0  0  0  0  0  0  0  # atno 6908 bound_to 6896
  151.1578  135.0269  159.8751 H   0  0  0  0  0  0  0  0  0  0  0  0  # atno 6909 bound_to 6896
  146.0682  140.6250  142.8965 H   0  0  0  0  0  0  0  0  0  0  0  0  # atno 7974 bound_to 7965
  155.7320  140.0803  157.2284 H   0  0  0  0  0  0  0  0  0  0  0  0  # atno 8008 bound_to 7997
  154.4032  140.1593  156.2574 H   0  0  0  0  0  0  0  0  0  0  0  0  # atno 8009 bound_to 7997
  155.9100  140.3404  155.6094 H   0  0  0  0  0  0  0  0  0  0  0  0  # atno 8010 bound_to 7997
  140.4412  144.1184  150.6174 H   0  0  0  0  0  0  0  0  0  0  0  0  # atno 10167 bound_to 10162
  156.0024  130.4652  150.4194 H   0  0  0  0  0  0  0  0  0  0  0  0  # atno 10718 bound_to 10713
  153.2839  135.4163  155.1104 H   0  0  0  0  0  0  0  0  0  0  0  0  # atno 10763 bound_to 10752
  154.8498  135.3502  154.6074 H   0  0  0  0  0  0  0  0  0  0  0  0  # atno 10764 bound_to 10752
  153.6496  135.7053  153.5271 H   0  0  0  0  0  0  0  0  0  0  0  0  # atno 10765 bound_to 10752
  141.1434  133.8043  157.0468 H   0  0  0  0  0  0  0  0  0  0  0  0  # atno 11005 bound_to 11000
  144.7215  140.4389  143.7004 LP  0  0  0  0  0  0  0  0  0  0  0  0  # atno 17320 bound_to 7965
  145.6439  139.1554  143.2900 LP  0  0  0  0  0  0  0  0  0  0  0  0  # atno 17321 bound_to 7965
  140.4316  143.2566  151.9588 LP  0  0  0  0  0  0  0  0  0  0  0  0  # atno 17342 bound_to 10162
  139.4790  144.5739  151.8044 LP  0  0  0  0  0  0  0  0  0  0  0  0  # atno 17343 bound_to 10162
  157.2251  131.0491  151.2524 LP  0  0  0  0  0  0  0  0  0  0  0  0  # atno 17370 bound_to 10713
  157.3764  130.7208  149.6600 LP  0  0  0  0  0  0  0  0  0  0  0  0  # atno 17371 bound_to 10713
  140.0657  134.9730  157.1382 LP  0  0  0  0  0  0  0  0  0  0  0  0  # atno 17394 bound_to 11000
  140.3783  134.2315  155.7172 LP  0  0  0  0  0  0  0  0  0  0  0  0  # atno 17395 bound_to 11000

$$$$
