AV-unprocessed.smi:2481|AV-procd|sdf|9771|dock4
  -GOLD-   2272013413D 1   1.00000     0.00000
 Structure written by MMmdl.
 37 38  0  0  0  0  0  0  0  0  1 V2000
  150.7523  136.9015  154.7391 C   0  0  0  0  0  0  0  0  0  0  0  0
  150.7402  135.5522  155.2703 N   0  0  0  0  0  0  0  0  0  0  0  0
  151.5667  135.1950  156.2813 N   0  0  0  0  0  0  0  0  0  0  0  0
  151.2583  133.9121  156.4730 C   0  0  0  0  0  0  0  0  0  0  0  0
  150.2886  133.4009  155.6583 N   0  0  0  0  0  0  0  0  0  0  0  0
  150.0133  134.4821  154.9353 C   0  0  0  0  0  0  0  0  0  0  0  0
  149.0516  134.5699  153.8933 N   0  0  0  0  0  0  0  0  0  0  0  0
  147.9841  133.7794  153.6891 C   0  0  0  0  0  0  0  0  0  0  0  0
  147.6670  132.8211  154.3942 O   0  0  0  0  0  0  0  0  0  0  0  0
  147.2922  134.1704  152.6084 N   0  0  0  0  0  0  0  0  0  0  0  0
  146.0861  133.5309  152.0820 C   0  0  2  0  0  0  0  0  0  0  0  0
  146.4053  132.0474  151.8070 C   0  0  0  0  0  0  0  0  0  0  0  0
  145.2105  131.3097  151.1886 C   0  0  0  0  0  0  0  0  0  0  0  0
  144.7418  132.0111  149.9084 C   0  0  0  0  0  0  0  0  0  0  0  0
  144.3969  133.4818  150.1840 C   0  0  0  0  0  0  0  0  0  0  0  0
  145.5844  134.2552  150.8030 C   0  0  1  0  0  0  0  0  0  0  0  0
  145.2041  135.7288  151.0730 C   0  0  0  0  0  0  0  0  0  0  0  0
  145.1765  136.4720  149.8720 O   0  0  0  0  0  0  0  0  0  0  0  0
  149.7461  137.3193  154.7736 H   0  0  0  0  0  0  0  0  0  0  0  0
  151.0973  136.8845  153.7051 H   0  0  0  0  0  0  0  0  0  0  0  0
  151.4177  137.5379  155.3240 H   0  0  0  0  0  0  0  0  0  0  0  0
  151.7517  133.3214  157.2307 H   0  0  0  0  0  0  0  0  0  0  0  0
  149.1931  135.3184  153.2314 H   0  0  0  0  0  0  0  0  0  0  0  0
  147.6305  134.9732  152.0986 H   0  0  0  0  0  0  0  0  0  0  0  0
  145.2872  133.5640  152.8253 H   0  0  0  0  0  0  0  0  0  0  0  0
  147.2605  131.9719  151.1336 H   0  0  0  0  0  0  0  0  0  0  0  0
  146.6987  131.5517  152.7332 H   0  0  0  0  0  0  0  0  0  0  0  0
  145.4827  130.2768  150.9696 H   0  0  0  0  0  0  0  0  0  0  0  0
  144.3908  131.2694  151.9071 H   0  0  0  0  0  0  0  0  0  0  0  0
  145.5226  131.9527  149.1489 H   0  0  0  0  0  0  0  0  0  0  0  0
  143.8724  131.4956  149.4992 H   0  0  0  0  0  0  0  0  0  0  0  0
  144.0840  133.9517  149.2512 H   0  0  0  0  0  0  0  0  0  0  0  0
  143.5379  133.5312  150.8544 H   0  0  0  0  0  0  0  0  0  0  0  0
  146.4005  134.2491  150.0781 H   0  0  0  0  0  0  0  0  0  0  0  0
  144.2314  135.7944  151.5616 H   0  0  0  0  0  0  0  0  0  0  0  0
  145.9254  136.2095  151.7330 H   0  0  0  0  0  0  0  0  0  0  0  0
  144.7855  137.3140  150.0489 H   0  0  0  0  0  0  0  0  0  0  0  0
  1  2  1  0  0  0  0
  1 19  1  0  0  0  0
  1 20  1  0  0  0  0
  1 21  1  0  0  0  0
  2  6  1  0  0  0  0
  2  3  1  0  0  0  0
  3  4  2  0  0  0  0
  4  5  1  0  0  0  0
  4 22  1  0  0  0  0
  5  6  2  0  0  0  0
  6  7  1  0  0  0  0
  7  8  1  0  0  0  0
  7 23  1  0  0  0  0
  8  9  2  0  0  0  0
  8 10  1  0  0  0  0
 10 11  1  0  0  0  0
 10 24  1  0  0  0  0
 11 16  1  0  0  0  0
 11 12  1  0  0  0  0
 11 25  1  0  0  0  0
 12 13  1  0  0  0  0
 12 26  1  0  0  0  0
 12 27  1  0  0  0  0
 13 14  1  0  0  0  0
 13 28  1  0  0  0  0
 13 29  1  0  0  0  0
 14 15  1  0  0  0  0
 14 30  1  0  0  0  0
 14 31  1  0  0  0  0
 15 16  1  0  0  0  0
 15 32  1  0  0  0  0
 15 33  1  0  0  0  0
 16 17  1  0  0  0  0
 16 34  1  0  0  0  0
 17 18  1  0  0  0  0
 17 35  1  0  0  0  0
 17 36  1  0  0  0  0
 18 37  1  0  0  0  0
M  END
> <s_m_source_file>
AV-unprocessed.smi

> <i_m_source_file_index>
2481

> <i_lp_mmshare_version>
43012

> <i_f3d_flags>
0

> <s_epik_input>
W0NIM11uMW5bY0hdbmMxW05IXUMoPU8pW05IXVtDQEBIXTJbQ0gyXVtDSDJdW0NIMl1bQ0gyXVtDQEhdMltDSDJdW09IXQ==

> <s_epik_cmdline>
J2VwaWtfcHl0aG9uJywgJy1waCcsICc3LjAnLCAnLXRuJywgJzgnLCAnLW1hJywgJzIwMCcsICctbWV0YWxfYmluZGluZycsICctaW1hZScsICc8aW5maWxlLm1hZT4nLCAnLW9tYWUnLCAnPG91dGZpbGUubWFlPic=

> <r_lp_tautomer_probability>
1

> <r_epik_Ionization_Penalty>
2.32704e-05

> <r_epik_Ionization_Penalty_Charging>
0

> <r_epik_Ionization_Penalty_Neutral>
2.32704e-05

> <r_epik_State_Penalty>
-0

> <r_epik_Charging_Adjusted_Penalty>
0

> <i_epik_Tot_Q>
0

> <i_epik_Tot_abs_Q>
0

> <r_epik_Metal_State_Penalty>
-0

> <b_epik_Metal_Only>
0

> <s_lp_Force_Field>
OPLS_2005

> <r_lp_Energy>
13.3573

> <b_lp_Chiralities_Consistent>
1

> <s_lp_Variant>
AV-unprocessed.smi:2481-1

> <Gold.Version>
5.8.1

> <Gold.Id.Protein>
6NUR|6NUR_protein|mol2

> <Gold.PLP.Fitness>
43.2832

> <Gold.PLP.PLP>
-32.7288

> <Gold.PLP.part.hbond>
-4.7875

> <Gold.PLP.part.metal>
0.0000

> <Gold.PLP.part.buried>
-2.9483

> <Gold.PLP.part.nonpolar>
-24.3057

> <Gold.PLP.part.repulsive>
0.0608

> <Gold.PLP.ligand.clash>
0.0000

> <Gold.PLP.ligand.torsion>
0.2579

> <Gold.PLP.Chemscore.Hbond>
3.6873

> <Gold.PLP.Chemscore.CHOScore>
0.0000

> <Gold.PLP.Chemscore.Metal>
0.0000

> <Gold.Chemscore.Hbonds>
donor molecule, donor type, donor heavy atom, donor atom, acceptor molecule, acceptor atom, score
      L1  H     7    23       P1  7948  0.95
      L1  H    10    24       P1  7948  0.98
      L1  H    18    37       P1 10171  1.00
      P1  H 10752 10764       L1     3  0.75

> <Gold.PLP.Chemscore.Internal.Correction>
0.0084

> <Gold.Rescore>
     Score         DG    S(hbond)    S(metal)    S(lipo)     H(rot)  DE(clash)    DE(int)     intcor
     14.21     -15.65       2.50        0.00      59.08       1.99       0.03       1.41       ----

> <Gold.Chemscore.Fitness>
14.2103

> <Gold.Chemscore.DG>
-15.6517

> <Gold.Chemscore.ZeroCoef>
-5.4800

> <Gold.Chemscore.Hbond>
2.4993

> <Gold.Chemscore.Metal>
0.0000

> <Gold.Chemscore.Lipo>
59.0828

> <Gold.Chemscore.Internal_Hbond>
0.0000

> <Gold.Chemscore.DEClash>
0.0332

> <Gold.Chemscore.DEInternal>
1.4082

> <Gold.Chemscore.Rot>
1.9877

> <Gold.Chemscore.Internal.Correction>
   9.000000E+99

> <Gold.Chemscore.Hbonds>
donor molecule, donor type, donor heavy atom, donor atom, acceptor molecule, acceptor atom, score
      L1  H     7    23       P1  7948  0.21
      L1  H    10    24       P1  7948  0.81
      L1  H    18    37       P1 10171  0.95
      P1  H 10752 10764       L1     3  0.08

> <Gold.Chemscore.Hbond.Weighted>
-8.3476

> <Gold.Chemscore.Metal.Weighted>
-0.0000

> <Gold.Chemscore.Lipo.Weighted>
-6.9127

> <Gold.Chemscore.Internal_Hbond.Weighted>
0.0000

> <Gold.Chemscore.DEClash.Weighted>
0.0332

> <Gold.Chemscore.DEInternal.Weighted>
1.4082

> <Gold.Chemscore.Rot.Weighted>
5.0885

> <Gold.Chemscore.Internal.Correction.Weighted>
   9.000000E+99

> <Gold.Protein.RotatedTorsions>
[ 6907 6896 6895 6894 ] final  -11.99 input  -60.11 | X-H torsion
[ 7974 7965 7964 7962 ] final -144.53 input  175.53 | X-H torsion
[ 8008 7997 7996 7995 ] final  -11.63 input   59.86 | X-H torsion
[ 10167 10162 10161 10158 ] final  -36.68 input  -65.29 | X-H torsion
[ 10718 10713 10712 10709 ] final -107.01 input   66.30 | X-H torsion
[ 10763 10752 10751 10750 ] final  -15.79 input  -60.55 | X-H torsion
[ 11005 11000 10999 10996 ] final   65.56 input  -57.11 | X-H torsion

> <Gold.Protein.ActiveResidues>
 VAL166  LYS551  ARG553  GLY616  TRP617  ASP618  TYR619  PRO620  LYS621  CYS622 
 ASP623  PHE694  ASN695  SER759  ASP760  ASP761  ALA762  ILE779  LEU786  VAL792 
 PHE793  MET794  SER795  GLU796  ALA797  LYS798  CYS799  TRP800  GLU811  SER814 

> <Gold.Protein.RotatedAtoms>
  151.3775  135.0934  159.9485 H   0  0  0  0  0  0  0  0  0  0  0  0  # atno 6907 bound_to 6896
  152.5118  133.9104  159.7495 H   0  0  0  0  0  0  0  0  0  0  0  0  # atno 6908 bound_to 6896
  150.9531  133.6473  159.2797 H   0  0  0  0  0  0  0  0  0  0  0  0  # atno 6909 bound_to 6896
  144.8291  140.5698  143.5527 H   0  0  0  0  0  0  0  0  0  0  0  0  # atno 7974 bound_to 7965
  154.5448  140.2297  155.8581 H   0  0  0  0  0  0  0  0  0  0  0  0  # atno 8008 bound_to 7997
  156.1892  140.3081  155.9261 H   0  0  0  0  0  0  0  0  0  0  0  0  # atno 8009 bound_to 7997
  155.3186  140.0439  157.3029 H   0  0  0  0  0  0  0  0  0  0  0  0  # atno 8010 bound_to 7997
  140.7137  143.3392  151.2394 H   0  0  0  0  0  0  0  0  0  0  0  0  # atno 10167 bound_to 10162
  156.0416  130.5641  150.7762 H   0  0  0  0  0  0  0  0  0  0  0  0  # atno 10718 bound_to 10713
  153.5487  135.7012  153.5601 H   0  0  0  0  0  0  0  0  0  0  0  0  # atno 10763 bound_to 10752
  153.3535  135.3989  155.1664 H   0  0  0  0  0  0  0  0  0  0  0  0  # atno 10764 bound_to 10752
  154.8664  135.3771  154.4997 H   0  0  0  0  0  0  0  0  0  0  0  0  # atno 10765 bound_to 10752
  139.9887  134.6626  156.0130 H   0  0  0  0  0  0  0  0  0  0  0  0  # atno 11005 bound_to 11000
  145.4935  139.1487  143.3696 LP  0  0  0  0  0  0  0  0  0  0  0  0  # atno 17320 bound_to 7965
  146.2595  140.5073  142.8859 LP  0  0  0  0  0  0  0  0  0  0  0  0  # atno 17321 bound_to 7965
  139.6895  143.9715  152.2852 LP  0  0  0  0  0  0  0  0  0  0  0  0  # atno 17342 bound_to 10162
  139.9372  144.6704  150.8302 LP  0  0  0  0  0  0  0  0  0  0  0  0  # atno 17343 bound_to 10162
  157.5242  131.0933  151.0039 LP  0  0  0  0  0  0  0  0  0  0  0  0  # atno 17370 bound_to 10713
  157.0362  130.5731  149.5350 LP  0  0  0  0  0  0  0  0  0  0  0  0  # atno 17371 bound_to 10713
  141.1547  133.6544  156.4123 LP  0  0  0  0  0  0  0  0  0  0  0  0  # atno 17394 bound_to 11000
  140.4951  134.6538  157.5226 LP  0  0  0  0  0  0  0  0  0  0  0  0  # atno 17395 bound_to 11000

$$$$
