AV-unprocessed.smi:1748|AV-procd|sdf|7039|dock7
  -GOLD-   22720 8253D 1   1.00000     0.00000
 Structure written by MMmdl.
 40 41  0  0  0  0  0  0  0  0  2 V2000
  141.7419  134.7915  153.4990 C   0  0  0  0  0  0  0  0  0  0  0  0
  142.7084  135.2274  152.4681 N   0  3  2  0  0  0  0  0  0  0  0  0
  143.6487  134.1454  152.0825 C   0  0  0  0  0  0  0  0  0  0  0  0
  144.5584  134.5905  150.9251 C   0  0  0  0  0  0  0  0  0  0  0  0
  145.3122  135.8797  151.2799 C   0  0  0  0  0  0  0  0  0  0  0  0
  144.3180  136.9744  151.6998 C   0  0  2  0  0  0  0  0  0  0  0  0
  145.0412  138.1807  152.0916 N   0  0  0  0  0  0  0  0  0  0  0  0
  146.1545  138.2032  152.8386 C   0  0  0  0  0  0  0  0  0  0  0  0
  146.6970  137.1848  153.2675 O   0  0  0  0  0  0  0  0  0  0  0  0
  146.5868  139.4641  153.0226 N   0  0  0  0  0  0  0  0  0  0  0  0
  147.6922  139.9237  153.7585 C   0  0  0  0  0  0  0  0  0  0  0  0
  148.7570  139.1596  154.1169 C   0  0  0  0  0  0  0  0  0  0  0  0
  149.8628  139.6933  154.8941 C   0  0  0  0  0  0  0  0  0  0  0  0
  151.0808  138.8440  155.2228 C   0  0  0  0  0  0  0  0  0  0  0  0
  152.2011  139.3944  154.7530 F   0  0  0  0  0  0  0  0  0  0  0  0
  151.2011  138.7180  156.5438 F   0  0  0  0  0  0  0  0  0  0  0  0
  150.9622  137.6233  154.7000 F   0  0  0  0  0  0  0  0  0  0  0  0
  149.7839  140.9925  155.2368 C   0  0  0  0  0  0  0  0  0  0  0  0
  148.6829  141.7793  154.8904 N   0  0  0  0  0  0  0  0  0  0  0  0
  147.6256  141.3342  154.1750 C   0  0  0  0  0  0  0  0  0  0  0  0
  146.6915  142.0903  153.9098 O   0  0  0  0  0  0  0  0  0  0  0  0
  143.4194  136.4731  152.8505 C   0  0  0  0  0  0  0  0  0  0  0  0
  148.6907  142.7408  155.1989 H   0  0  0  0  0  0  0  0  0  0  0  0
  142.2509  134.5345  154.4289 H   0  0  0  0  0  0  0  0  0  0  0  0
  141.1856  133.9170  153.1602 H   0  0  0  0  0  0  0  0  0  0  0  0
  141.0209  135.5818  153.7102 H   0  0  0  0  0  0  0  0  0  0  0  0
  144.2518  133.8600  152.9460 H   0  0  0  0  0  0  0  0  0  0  0  0
  143.0853  133.2608  151.7828 H   0  0  0  0  0  0  0  0  0  0  0  0
  145.2678  133.7988  150.6825 H   0  0  0  0  0  0  0  0  0  0  0  0
  143.9579  134.7528  150.0289 H   0  0  0  0  0  0  0  0  0  0  0  0
  146.0149  135.6808  152.0906 H   0  0  0  0  0  0  0  0  0  0  0  0
  145.9046  136.2110  150.4262 H   0  0  0  0  0  0  0  0  0  0  0  0
  143.6898  137.2086  150.8377 H   0  0  0  0  0  0  0  0  0  0  0  0
  144.6634  139.0624  151.7755 H   0  0  0  0  0  0  0  0  0  0  0  0
  146.0750  140.1899  152.5420 H   0  0  0  0  0  0  0  0  0  0  0  0
  148.8056  138.1154  153.8539 H   0  0  0  0  0  0  0  0  0  0  0  0
  150.5443  141.5245  155.7894 H   0  0  0  0  0  0  0  0  0  0  0  0
  142.6845  137.2375  153.1070 H   0  0  0  0  0  0  0  0  0  0  0  0
  144.0145  136.2921  153.7474 H   0  0  0  0  0  0  0  0  0  0  0  0
  142.1676  135.4475  151.6438 H   0  0  0  0  0  0  0  0  0  0  0  0
  1  2  1  0  0  0  0
  1 24  1  0  0  0  0
  1 25  1  0  0  0  0
  1 26  1  0  0  0  0
  2 22  1  0  0  0  0
  2  3  1  0  0  0  0
  2 40  1  0  0  0  0
  3  4  1  0  0  0  0
  3 27  1  0  0  0  0
  3 28  1  0  0  0  0
  4  5  1  0  0  0  0
  4 29  1  0  0  0  0
  4 30  1  0  0  0  0
  5  6  1  0  0  0  0
  5 31  1  0  0  0  0
  5 32  1  0  0  0  0
  6  7  1  0  0  0  0
  6 22  1  0  0  0  0
  6 33  1  0  0  0  0
  7  8  1  0  0  0  0
  7 34  1  0  0  0  0
  8  9  2  0  0  0  0
  8 10  1  0  0  0  0
 10 11  1  0  0  0  0
 10 35  1  0  0  0  0
 11 20  1  0  0  0  0
 11 12  2  0  0  0  0
 12 13  1  0  0  0  0
 12 36  1  0  0  0  0
 13 14  1  0  0  0  0
 13 18  2  0  0  0  0
 14 15  1  0  0  0  0
 14 16  1  0  0  0  0
 14 17  1  0  0  0  0
 18 19  1  0  0  0  0
 18 37  1  0  0  0  0
 19 23  1  0  0  0  0
 19 20  1  0  0  0  0
 20 21  2  0  0  0  0
 22 38  1  0  0  0  0
 22 39  1  0  0  0  0
M  CHG  1   2   1
M  END
> <s_m_source_file>
AV-unprocessed.smi

> <i_m_source_file_index>
1748

> <i_lp_mmshare_version>
43012

> <i_f3d_flags>
0

> <s_epik_input>
W0NIM11OMVtDSDJdW0NIMl1bQ0gyXVtDQEhdKFtDSDJdMSlbTkhdQyg9TylbTkhdYzJbY0hdYyhDKEYpKEYpRilbY0hdW25IXWMyPU8=

> <s_epik_cmdline>
J2VwaWtfcHl0aG9uJywgJy1waCcsICc3LjAnLCAnLXRuJywgJzgnLCAnLW1hJywgJzIwMCcsICctbWV0YWxfYmluZGluZycsICctaW1hZScsICc8aW5maWxlLm1hZT4nLCAnLW9tYWUnLCAnPG91dGZpbGUubWFlPic=

> <r_lp_tautomer_probability>
1

> <r_epik_Ionization_Penalty>
0.00746315

> <r_epik_Ionization_Penalty_Charging>
0.00744398

> <r_epik_Ionization_Penalty_Neutral>
1.91704e-05

> <r_epik_State_Penalty>
-0

> <r_epik_Charging_Adjusted_Penalty>
0.00744398

> <i_epik_Tot_Q>
1

> <i_epik_Tot_abs_Q>
1

> <r_epik_Metal_State_Penalty>
0.379332

> <b_epik_Metal_Only>
0

> <s_lp_Force_Field>
OPLS_2005

> <r_lp_Energy>
25.4307

> <b_lp_Chiralities_Consistent>
1

> <s_lp_Variant>
AV-unprocessed.smi:1748-4

> <Gold.Version>
5.8.1

> <Gold.Id.Protein>
6NUR|6NUR_protein|mol2

> <Gold.PLP.Fitness>
39.8472

> <Gold.PLP.PLP>
-35.2179

> <Gold.PLP.part.hbond>
-3.6728

> <Gold.PLP.part.metal>
0.0000

> <Gold.PLP.part.buried>
-0.3424

> <Gold.PLP.part.nonpolar>
-34.7193

> <Gold.PLP.part.repulsive>
2.5111

> <Gold.PLP.ligand.clash>
0.0000

> <Gold.PLP.ligand.torsion>
0.3921

> <Gold.PLP.Chemscore.Hbond>
1.7945

> <Gold.PLP.Chemscore.CHOScore>
0.0000

> <Gold.PLP.Chemscore.Metal>
0.0000

> <Gold.Chemscore.Hbonds>
donor molecule, donor type, donor heavy atom, donor atom, acceptor molecule, acceptor atom, score
      L1  H     7    34       P1 10175  0.78
      L1  H    10    35       P1 10175  0.04
      L1  H    19    23       P1  8028  1.00

> <Gold.PLP.Chemscore.Internal.Correction>
0.0298

> <Gold.Rescore>
     Score         DG    S(hbond)    S(metal)    S(lipo)     H(rot)  DE(clash)    DE(int)     intcor
     13.37     -17.98       2.47        0.00      58.36       1.00       1.65       2.96       ----

> <Gold.Chemscore.Fitness>
13.3747

> <Gold.Chemscore.DG>
-17.9813

> <Gold.Chemscore.ZeroCoef>
-5.4800

> <Gold.Chemscore.Hbond>
2.4650

> <Gold.Chemscore.Metal>
0.0000

> <Gold.Chemscore.Lipo>
58.3594

> <Gold.Chemscore.Internal_Hbond>
0.0000

> <Gold.Chemscore.DEClash>
1.6452

> <Gold.Chemscore.DEInternal>
2.9615

> <Gold.Chemscore.Rot>
1.0000

> <Gold.Chemscore.Internal.Correction>
   9.000000E+99

> <Gold.Chemscore.Hbonds>
donor molecule, donor type, donor heavy atom, donor atom, acceptor molecule, acceptor atom, score
      L1  H     7    34       P1 10175  0.76
      L1  H    10    35       P1 10175  0.05
      L1  H    19    23       P1  8028  0.93

> <Gold.Chemscore.Hbond.Weighted>
-8.2333

> <Gold.Chemscore.Metal.Weighted>
-0.0000

> <Gold.Chemscore.Lipo.Weighted>
-6.8281

> <Gold.Chemscore.Internal_Hbond.Weighted>
0.0000

> <Gold.Chemscore.DEClash.Weighted>
1.6452

> <Gold.Chemscore.DEInternal.Weighted>
2.9615

> <Gold.Chemscore.Rot.Weighted>
2.5600

> <Gold.Chemscore.Internal.Correction.Weighted>
   9.000000E+99

> <Gold.Protein.RotatedTorsions>
[ 6907 6896 6895 6894 ] final   79.36 input  -60.11 | X-H torsion
[ 7974 7965 7964 7962 ] final  -25.36 input  175.53 | X-H torsion
[ 8008 7997 7996 7995 ] final   -2.76 input   59.86 | X-H torsion
[ 10167 10162 10161 10158 ] final  -66.71 input  -65.29 | X-H torsion
[ 10718 10713 10712 10709 ] final  168.49 input   66.30 | X-H torsion
[ 10763 10752 10751 10750 ] final  108.40 input  -60.55 | X-H torsion
[ 11005 11000 10999 10996 ] final  -90.59 input  -57.11 | X-H torsion

> <Gold.Protein.ActiveResidues>
 VAL166  LYS551  ARG553  GLY616  TRP617  ASP618  TYR619  PRO620  LYS621  CYS622 
 ASP623  PHE694  ASN695  SER759  ASP760  ASP761  ALA762  ILE779  LEU786  VAL792 
 PHE793  MET794  SER795  GLU796  ALA797  LYS798  CYS799  TRP800  GLU811  SER814 

> <Gold.Protein.RotatedAtoms>
  152.5195  134.3523  159.9255 H   0  0  0  0  0  0  0  0  0  0  0  0  # atno 6907 bound_to 6896
  151.3474  133.3932  159.2684 H   0  0  0  0  0  0  0  0  0  0  0  0  # atno 6908 bound_to 6896
  150.9755  134.9138  159.7871 H   0  0  0  0  0  0  0  0  0  0  0  0  # atno 6909 bound_to 6896
  146.1496  140.4875  142.8617 H   0  0  0  0  0  0  0  0  0  0  0  0  # atno 7974 bound_to 7965
  154.6323  140.2526  155.7419 H   0  0  0  0  0  0  0  0  0  0  0  0  # atno 8008 bound_to 7997
  156.2486  140.2904  156.0600 H   0  0  0  0  0  0  0  0  0  0  0  0  # atno 8009 bound_to 7997
  155.1726  140.0387  157.2856 H   0  0  0  0  0  0  0  0  0  0  0  0  # atno 8010 bound_to 7997
  140.5637  143.2314  151.6678 H   0  0  0  0  0  0  0  0  0  0  0  0  # atno 10167 bound_to 10162
  157.0363  131.0274  151.2728 H   0  0  0  0  0  0  0  0  0  0  0  0  # atno 10718 bound_to 10713
  153.4201  135.3813  155.2106 H   0  0  0  0  0  0  0  0  0  0  0  0  # atno 10763 bound_to 10752
  154.8744  135.3815  154.4394 H   0  0  0  0  0  0  0  0  0  0  0  0  # atno 10764 bound_to 10752
  153.4913  135.7088  153.5945 H   0  0  0  0  0  0  0  0  0  0  0  0  # atno 10765 bound_to 10752
  141.1562  133.7702  156.9759 H   0  0  0  0  0  0  0  0  0  0  0  0  # atno 11005 bound_to 11000
  144.7888  140.5990  143.6555 LP  0  0  0  0  0  0  0  0  0  0  0  0  # atno 17320 bound_to 7965
  145.4855  139.1492  143.3738 LP  0  0  0  0  0  0  0  0  0  0  0  0  # atno 17321 bound_to 7965
  139.5082  144.3619  152.0554 LP  0  0  0  0  0  0  0  0  0  0  0  0  # atno 17342 bound_to 10162
  140.2748  144.3925  150.6139 LP  0  0  0  0  0  0  0  0  0  0  0  0  # atno 17343 bound_to 10162
  157.5139  130.7955  149.7734 LP  0  0  0  0  0  0  0  0  0  0  0  0  # atno 17370 bound_to 10713
  156.0052  130.3859  150.2456 LP  0  0  0  0  0  0  0  0  0  0  0  0  # atno 17371 bound_to 10713
  140.1098  134.9484  157.2048 LP  0  0  0  0  0  0  0  0  0  0  0  0  # atno 17394 bound_to 11000
  140.3209  134.2918  155.7246 LP  0  0  0  0  0  0  0  0  0  0  0  0  # atno 17395 bound_to 11000

$$$$
