AV-unprocessed.smi:101|AV-procd|sdf|936|dock3
  -GOLD-   2262017453D 1   1.00000     0.00000
 Structure written by MMmdl.
 43 45  0  0  0  0  0  0  0  0  2 V2000
  145.4819  142.2050  158.4796 C   0  0  0  0  0  0  0  0  0  0  0  0
  145.6898  142.4278  156.9916 C   0  0  0  0  0  0  0  0  0  0  0  0
  146.7320  141.8885  156.3215 C   0  0  0  0  0  0  0  0  0  0  0  0
  146.9205  142.0951  154.9646 N   0  0  0  0  0  0  0  0  0  0  0  0
  148.1034  141.4971  154.2219 C   0  0  1  0  0  0  0  0  0  0  0  0
  149.2709  141.6985  154.9644 O   0  0  0  0  0  0  0  0  0  0  0  0
  149.6665  140.4777  155.5789 C   0  0  2  0  0  0  0  0  0  0  0  0
  151.1404  140.5218  156.0022 C   0  0  0  0  0  0  0  0  0  0  0  0
  151.2919  141.5447  156.9726 O   0  0  0  0  0  0  0  0  0  0  0  0
  152.1729  141.4026  157.9797 C   0  0  0  0  0  0  0  0  0  0  0  0
  152.8962  140.4144  158.1202 O   0  0  0  0  0  0  0  0  0  0  0  0
  152.1811  142.5703  158.9082 C   0  0  0  0  0  0  0  0  0  0  0  0
  151.8723  143.8567  158.4076 C   0  0  0  0  0  0  0  0  0  0  0  0
  151.8737  144.9777  159.2605 C   0  0  0  0  0  0  0  0  0  0  0  0
  152.1849  144.8263  160.6244 C   0  0  0  0  0  0  0  0  0  0  0  0
  152.4926  143.5518  161.1350 C   0  0  0  0  0  0  0  0  0  0  0  0
  152.4906  142.4292  160.2840 C   0  0  0  0  0  0  0  0  0  0  0  0
  149.2963  139.4344  154.5232 C   0  0  2  0  0  0  0  0  0  0  0  0
  150.2757  139.3853  153.5021 O   0  0  0  0  0  0  0  0  0  0  0  0
  147.9756  139.9694  153.9803 C   0  0  1  0  0  0  0  0  0  0  0  0
  146.8999  139.3635  154.6768 O   0  0  0  0  0  0  0  0  0  0  0  0
  146.0039  142.9083  154.2475 C   0  0  0  0  0  0  0  0  0  0  0  0
  146.2042  143.0805  153.0448 O   0  0  0  0  0  0  0  0  0  0  0  0
  144.9481  143.4548  154.9151 N   0  5  0  0  0  0  0  0  0  0  0  0
  144.7354  143.2585  156.2480 C   0  0  0  0  0  0  0  0  0  0  0  0
  143.7763  143.7550  156.8377 O   0  0  0  0  0  0  0  0  0  0  0  0
  146.2689  141.5791  158.9016 H   0  0  0  0  0  0  0  0  0  0  0  0
  144.5257  141.7132  158.6605 H   0  0  0  0  0  0  0  0  0  0  0  0
  145.4864  143.1571  159.0113 H   0  0  0  0  0  0  0  0  0  0  0  0
  147.4324  141.2856  156.8777 H   0  0  0  0  0  0  0  0  0  0  0  0
  148.1917  142.0761  153.3012 H   0  0  0  0  0  0  0  0  0  0  0  0
  149.0446  140.3014  156.4583 H   0  0  0  0  0  0  0  0  0  0  0  0
  151.4334  139.5690  156.4450 H   0  0  0  0  0  0  0  0  0  0  0  0
  151.7843  140.7021  155.1400 H   0  0  0  0  0  0  0  0  0  0  0  0
  151.6305  143.9982  157.3640 H   0  0  0  0  0  0  0  0  0  0  0  0
  151.6358  145.9550  158.8670 H   0  0  0  0  0  0  0  0  0  0  0  0
  152.1867  145.6862  161.2779 H   0  0  0  0  0  0  0  0  0  0  0  0
  152.7309  143.4339  162.1818 H   0  0  0  0  0  0  0  0  0  0  0  0
  152.7313  141.4657  160.7095 H   0  0  0  0  0  0  0  0  0  0  0  0
  149.2046  138.4351  154.9514 H   0  0  0  0  0  0  0  0  0  0  0  0
  149.8341  139.3819  152.6664 H   0  0  0  0  0  0  0  0  0  0  0  0
  147.8528  139.7700  152.9148 H   0  0  0  0  0  0  0  0  0  0  0  0
  146.1475  139.3434  154.1055 H   0  0  0  0  0  0  0  0  0  0  0  0
  1  2  1  0  0  0  0
  1 27  1  0  0  0  0
  1 28  1  0  0  0  0
  1 29  1  0  0  0  0
  2 25  1  0  0  0  0
  2  3  2  0  0  0  0
  3  4  1  0  0  0  0
  3 30  1  0  0  0  0
  4  5  1  0  0  0  0
  4 22  1  0  0  0  0
  5 20  1  0  0  0  0
  5  6  1  0  0  0  0
  5 31  1  0  0  0  0
  6  7  1  0  0  0  0
  7  8  1  0  0  0  0
  7 18  1  0  0  0  0
  7 32  1  0  0  0  0
  8  9  1  0  0  0  0
  8 33  1  0  0  0  0
  8 34  1  0  0  0  0
  9 10  1  0  0  0  0
 10 11  2  0  0  0  0
 10 12  1  0  0  0  0
 12 17  1  0  0  0  0
 12 13  2  0  0  0  0
 13 14  1  0  0  0  0
 13 35  1  0  0  0  0
 14 15  2  0  0  0  0
 14 36  1  0  0  0  0
 15 16  1  0  0  0  0
 15 37  1  0  0  0  0
 16 17  2  0  0  0  0
 16 38  1  0  0  0  0
 17 39  1  0  0  0  0
 18 19  1  0  0  0  0
 18 20  1  0  0  0  0
 18 40  1  0  0  0  0
 19 41  1  0  0  0  0
 20 21  1  0  0  0  0
 20 42  1  0  0  0  0
 21 43  1  0  0  0  0
 22 23  2  0  0  0  0
 22 24  1  0  0  0  0
 24 25  1  0  0  0  0
 25 26  2  0  0  0  0
M  CHG  1  24  -1
M  END
> <s_m_source_file>
AV-unprocessed.smi

> <i_m_source_file_index>
101

> <i_lp_mmshare_version>
43012

> <i_f3d_flags>
0

> <s_epik_input>
Tz1jMVtuSF1jKD1PKW4oW2NIXWMxW0NIM10pW0NAQEhdMk9bQ0BIXShbQ0BASF0oW09IXSlbQ0BIXTJbT0hdKVtDSDJdT0MoPU8pYzNbY0hdW2NIXVtjSF1bY0hdW2NIXTM=

> <s_epik_cmdline>
J2VwaWtfcHl0aG9uJywgJy1waCcsICc3LjAnLCAnLXRuJywgJzgnLCAnLW1hJywgJzIwMCcsICctbWV0YWxfYmluZGluZycsICctaW1hZScsICc8aW5maWxlLm1hZT4nLCAnLW9tYWUnLCAnPG91dGZpbGUubWFlPic=

> <r_lp_tautomer_probability>
0.999537

> <r_epik_Ionization_Penalty>
3.21006

> <r_epik_Ionization_Penalty_Charging>
5.75142e-08

> <r_epik_Ionization_Penalty_Neutral>
3.21006

> <r_epik_State_Penalty>
3.20925

> <r_epik_Charging_Adjusted_Penalty>
3.20925

> <i_epik_Tot_Q>
-1

> <i_epik_Tot_abs_Q>
1

> <r_epik_Metal_State_Penalty>
0.119957

> <b_epik_Metal_Only>
1

> <s_epik_Chemistry_Notes>
This compound has an ester and may undergo hydrolysis at high or low pH. This compound contains an acetal/aminal-like group ( X-CH(R)-Y where X, Y are N, S, or O) that may be acid/base labile, releasing an aldehyde.

> <s_lp_Force_Field>
OPLS_2005

> <r_lp_Energy>
44.1701

> <b_lp_Chiralities_Consistent>
1

> <s_lp_Variant>
AV-unprocessed.smi:101-24

> <Gold.Version>
5.8.1

> <Gold.Id.Protein>
6NUR|6NUR_protein|mol2

> <Gold.PLP.Fitness>
51.1479

> <Gold.PLP.PLP>
-44.6508

> <Gold.PLP.part.hbond>
-3.1809

> <Gold.PLP.part.metal>
0.0000

> <Gold.PLP.part.buried>
-1.9609

> <Gold.PLP.part.nonpolar>
-39.0856

> <Gold.PLP.part.repulsive>
0.7038

> <Gold.PLP.ligand.clash>
0.0000

> <Gold.PLP.ligand.torsion>
0.9357

> <Gold.PLP.Chemscore.Hbond>
2.7202

> <Gold.PLP.Chemscore.CHOScore>
0.0000

> <Gold.PLP.Chemscore.Metal>
0.0000

> <Gold.Chemscore.Hbonds>
donor molecule, donor type, donor heavy atom, donor atom, acceptor molecule, acceptor atom, score
      L1  H    19    41       P1  7957  0.99
      P1  H  7989  7998       L1    19  0.82
      P1  H  7997  8008       L1    11  0.86

> <Gold.PLP.Chemscore.Internal.Correction>
0.2080

> <Gold.Rescore>
     Score         DG    S(hbond)    S(metal)    S(lipo)     H(rot)  DE(clash)    DE(int)     intcor
     12.52     -16.38       2.26        0.00      99.97       3.27       2.83       1.03       ----

> <Gold.Chemscore.Fitness>
12.5167

> <Gold.Chemscore.DG>
-16.3770

> <Gold.Chemscore.ZeroCoef>
-5.4800

> <Gold.Chemscore.Hbond>
2.2636

> <Gold.Chemscore.Metal>
0.0000

> <Gold.Chemscore.Lipo>
99.9685

> <Gold.Chemscore.Internal_Hbond>
0.0000

> <Gold.Chemscore.DEClash>
2.8348

> <Gold.Chemscore.DEInternal>
1.0256

> <Gold.Chemscore.Rot>
3.2656

> <Gold.Chemscore.Internal.Correction>
   9.000000E+99

> <Gold.Chemscore.Hbonds>
donor molecule, donor type, donor heavy atom, donor atom, acceptor molecule, acceptor atom, score
      L1  H    19    41       P1  7957  0.92
      P1  H  7989  7998       L1    19  0.45
      P1  H  7997  8008       L1    11  0.78

> <Gold.Chemscore.Hbond.Weighted>
-7.5605

> <Gold.Chemscore.Metal.Weighted>
-0.0000

> <Gold.Chemscore.Lipo.Weighted>
-11.6963

> <Gold.Chemscore.Internal_Hbond.Weighted>
0.0000

> <Gold.Chemscore.DEClash.Weighted>
2.8348

> <Gold.Chemscore.DEInternal.Weighted>
1.0256

> <Gold.Chemscore.Rot.Weighted>
8.3598

> <Gold.Chemscore.Internal.Correction.Weighted>
   9.000000E+99

> <Gold.Protein.RotatedTorsions>
[ 6907 6896 6895 6894 ] final   67.66 input  -60.11 | X-H torsion
[ 7974 7965 7964 7962 ] final  -70.41 input  175.53 | X-H torsion
[ 8008 7997 7996 7995 ] final  -77.57 input   59.86 | X-H torsion
[ 10167 10162 10161 10158 ] final  101.61 input  -65.29 | X-H torsion
[ 10718 10713 10712 10709 ] final  166.82 input   66.30 | X-H torsion
[ 10763 10752 10751 10750 ] final -150.69 input  -60.55 | X-H torsion
[ 11005 11000 10999 10996 ] final   84.10 input  -57.11 | X-H torsion

> <Gold.Protein.ActiveResidues>
 VAL166  LYS551  ARG553  GLY616  TRP617  ASP618  TYR619  PRO620  LYS621  CYS622 
 ASP623  PHE694  ASN695  SER759  ASP760  ASP761  ALA762  ILE779  LEU786  VAL792 
 PHE793  MET794  SER795  GLU796  ALA797  LYS798  CYS799  TRP800  GLU811  SER814 

> <Gold.Protein.RotatedAtoms>
  152.4567  134.5275  159.9800 H   0  0  0  0  0  0  0  0  0  0  0  0  # atno 6907 bound_to 6896
  151.5334  133.3439  159.2930 H   0  0  0  0  0  0  0  0  0  0  0  0  # atno 6908 bound_to 6896
  150.8514  134.7870  159.7074 H   0  0  0  0  0  0  0  0  0  0  0  0  # atno 6909 bound_to 6896
  145.6913  140.9152  143.0780 H   0  0  0  0  0  0  0  0  0  0  0  0  # atno 7974 bound_to 7965
  154.5609  140.0708  156.8817 H   0  0  0  0  0  0  0  0  0  0  0  0  # atno 8008 bound_to 7997
  155.2814  140.3372  155.4240 H   0  0  0  0  0  0  0  0  0  0  0  0  # atno 8009 bound_to 7997
  156.2041  140.1733  156.7823 H   0  0  0  0  0  0  0  0  0  0  0  0  # atno 8010 bound_to 7997
  139.7422  144.7008  151.0558 H   0  0  0  0  0  0  0  0  0  0  0  0  # atno 10167 bound_to 10162
  157.0603  131.0338  151.2649 H   0  0  0  0  0  0  0  0  0  0  0  0  # atno 10718 bound_to 10713
  154.8103  135.3278  154.7322 H   0  0  0  0  0  0  0  0  0  0  0  0  # atno 10763 bound_to 10752
  153.7972  135.6906  153.4866 H   0  0  0  0  0  0  0  0  0  0  0  0  # atno 10764 bound_to 10752
  153.1878  135.4562  155.0056 H   0  0  0  0  0  0  0  0  0  0  0  0  # atno 10765 bound_to 10752
  139.9010  134.8192  156.2399 H   0  0  0  0  0  0  0  0  0  0  0  0  # atno 11005 bound_to 11000
  144.6996  139.8825  143.7448 LP  0  0  0  0  0  0  0  0  0  0  0  0  # atno 17320 bound_to 7965
  146.0879  139.3868  143.0424 LP  0  0  0  0  0  0  0  0  0  0  0  0  # atno 17321 bound_to 7965
  140.7787  143.4910  150.9893 LP  0  0  0  0  0  0  0  0  0  0  0  0  # atno 17342 bound_to 10162
  139.8598  143.7329  152.3174 LP  0  0  0  0  0  0  0  0  0  0  0  0  # atno 17343 bound_to 10162
  157.4959  130.7850  149.7555 LP  0  0  0  0  0  0  0  0  0  0  0  0  # atno 17370 bound_to 10713
  155.9980  130.3896  150.2717 LP  0  0  0  0  0  0  0  0  0  0  0  0  # atno 17371 bound_to 10713
  141.0291  133.6998  156.1399 LP  0  0  0  0  0  0  0  0  0  0  0  0  # atno 17394 bound_to 11000
  140.7122  134.4449  157.5581 LP  0  0  0  0  0  0  0  0  0  0  0  0  # atno 17395 bound_to 11000

$$$$
