AV-unprocessed.smi:72|AV-procd|sdf|719|dock1
  -GOLD-   2262017 43D 1   1.00000     0.00000
 Structure written by MMmdl.
 28 29  0  0  0  0  0  0  0  0  2 V2000
  153.4402  139.2761  159.3407 N   0  0  0  0  0  0  0  0  0  0  0  0
  152.7754  139.4377  158.2819 C   0  0  0  0  0  0  0  0  0  0  0  0
  151.4759  140.0724  158.3299 N   0  0  0  0  0  0  0  0  0  0  0  0
  150.8406  140.2338  157.2098 C   0  0  0  0  0  0  0  0  0  0  0  0
  151.4076  139.8080  155.9375 N   0  0  0  0  0  0  0  0  0  0  0  0
  150.6499  140.0010  154.6392 C   0  0  2  0  0  0  0  0  0  0  0  0
  149.7142  141.0206  154.8047 O   0  0  0  0  0  0  0  0  0  0  0  0
  148.6088  140.7626  153.9533 C   0  0  2  0  0  0  0  0  0  0  0  0
  147.3792  141.5455  154.4393 C   0  0  0  0  0  0  0  0  0  0  0  0
  147.5051  142.9105  154.1022 O   0  0  0  0  0  0  0  0  0  0  0  0
  148.4496  139.2428  154.0666 C   0  0  1  0  0  0  0  0  0  0  0  0
  147.8256  138.7236  152.9093 O   0  0  0  0  0  0  0  0  0  0  0  0
  149.8864  138.7397  154.1744 C   0  0  2  0  0  0  0  0  0  0  0  0
  149.9596  137.6425  155.0672 O   0  0  0  0  0  0  0  0  0  0  0  0
  152.6691  139.1570  155.9237 C   0  0  0  0  0  0  0  0  0  0  0  0
  153.1062  138.7589  154.8437 O   0  0  0  0  0  0  0  0  0  0  0  0
  153.3303  138.9892  157.1033 N   0  5  0  0  0  0  0  0  0  0  0  0
  151.3763  140.3474  153.9022 H   0  0  0  0  0  0  0  0  0  0  0  0
  148.8752  141.0344  152.9292 H   0  0  0  0  0  0  0  0  0  0  0  0
  147.8780  138.9888  154.9612 H   0  0  0  0  0  0  0  0  0  0  0  0
  150.2901  138.4482  153.2035 H   0  0  0  0  0  0  0  0  0  0  0  0
  152.9594  139.6331  160.1537 H   0  0  0  0  0  0  0  0  0  0  0  0
  149.8505  140.6873  157.1502 H   0  0  0  0  0  0  0  0  0  0  0  0
  146.4798  141.1714  153.9496 H   0  0  0  0  0  0  0  0  0  0  0  0
  147.2346  141.4295  155.5140 H   0  0  0  0  0  0  0  0  0  0  0  0
  148.0121  143.3402  154.7738 H   0  0  0  0  0  0  0  0  0  0  0  0
  148.1605  137.8526  152.7581 H   0  0  0  0  0  0  0  0  0  0  0  0
  150.7467  137.1547  154.8750 H   0  0  0  0  0  0  0  0  0  0  0  0
  1  2  2  0  0  0  0
  1 22  1  0  0  0  0
  2 17  1  0  0  0  0
  2  3  1  0  0  0  0
  3  4  2  0  0  0  0
  4  5  1  0  0  0  0
  4 23  1  0  0  0  0
  5  6  1  0  0  0  0
  5 15  1  0  0  0  0
  6 18  1  0  0  0  0
  6 13  1  0  0  0  0
  6  7  1  0  0  0  0
  7  8  1  0  0  0  0
  8 19  1  0  0  0  0
  8  9  1  0  0  0  0
  8 11  1  0  0  0  0
  9 10  1  0  0  0  0
  9 24  1  0  0  0  0
  9 25  1  0  0  0  0
 10 26  1  0  0  0  0
 11 20  1  0  0  0  0
 11 12  1  0  0  0  0
 11 13  1  0  0  0  0
 12 27  1  0  0  0  0
 13 21  1  0  0  0  0
 13 14  1  0  0  0  0
 14 28  1  0  0  0  0
 15 16  2  0  0  0  0
 15 17  1  0  0  0  0
M  CHG  1  17  -1
M  END
> <s_m_source_file>
AV-unprocessed.smi

> <i_m_source_file_index>
72

> <i_lp_mmshare_version>
43012

> <i_f3d_flags>
0

> <s_epik_input>
W05IMl1jMW5bY0hdbihjKD1PKW4xKVtDQEBIXTJPW0NASF0oW0NIMl1bT0hdKVtDQEBIXShbT0hdKVtDQEhdMltPSF0=

> <s_epik_cmdline>
J2VwaWtfcHl0aG9uJywgJy1waCcsICc3LjAnLCAnLXRuJywgJzgnLCAnLW1hJywgJzIwMCcsICctbWV0YWxfYmluZGluZycsICctaW1hZScsICc8aW5maWxlLm1hZT4nLCAnLW9tYWUnLCAnPG91dGZpbGUubWFlPic=

> <r_lp_tautomer_probability>
7.17554e-07

> <r_epik_Ionization_Penalty>
12.8705

> <r_epik_Ionization_Penalty_Charging>
5.64144

> <r_epik_Ionization_Penalty_Neutral>
7.22905

> <r_epik_State_Penalty>
3.30104

> <r_epik_Charging_Adjusted_Penalty>
8.94249

> <i_epik_Tot_Q>
-1

> <i_epik_Tot_abs_Q>
1

> <r_epik_Metal_State_Penalty>
0.529074

> <b_epik_Metal_Only>
1

> <s_epik_Chemistry_Notes>
This compound contains an acetal/aminal-like group ( X-CH(R)-Y where X, Y are N, S, or O) that may be acid/base labile, releasing an aldehyde.

> <s_lp_Force_Field>
OPLS_2005

> <r_lp_Energy>
37.3643

> <b_lp_Chiralities_Consistent>
1

> <s_lp_Variant>
AV-unprocessed.smi:72-57

> <Gold.Version>
5.8.1

> <Gold.Id.Protein>
6NUR|6NUR_protein|mol2

> <Gold.PLP.Fitness>
36.2831

> <Gold.PLP.PLP>
-25.3420

> <Gold.PLP.part.hbond>
-6.7124

> <Gold.PLP.part.metal>
0.0000

> <Gold.PLP.part.buried>
2.4603

> <Gold.PLP.part.nonpolar>
-21.1310

> <Gold.PLP.part.repulsive>
0.1326

> <Gold.PLP.ligand.clash>
0.0000

> <Gold.PLP.ligand.torsion>
0.6880

> <Gold.PLP.Chemscore.Hbond>
4.0000

> <Gold.PLP.Chemscore.CHOScore>
0.0000

> <Gold.PLP.Chemscore.Metal>
0.0000

> <Gold.Chemscore.Hbonds>
donor molecule, donor type, donor heavy atom, donor atom, acceptor molecule, acceptor atom, score
      L1  H    10    26       P1  8028  1.00
      L1  H    12    27       P1  7948  1.00
      P1  H  7997  8010       L1    17  2.00

> <Gold.PLP.Chemscore.Internal.Correction>
0.3172

> <Gold.Rescore>
     Score         DG    S(hbond)    S(metal)    S(lipo)     H(rot)  DE(clash)    DE(int)     intcor
      3.09      -4.75       1.92        0.00      27.30       4.04       1.18       0.47       ----

> <Gold.Chemscore.Fitness>
3.0915

> <Gold.Chemscore.DG>
-4.7510

> <Gold.Chemscore.ZeroCoef>
-5.4800

> <Gold.Chemscore.Hbond>
1.9220

> <Gold.Chemscore.Metal>
0.0000

> <Gold.Chemscore.Lipo>
27.3037

> <Gold.Chemscore.Internal_Hbond>
0.0000

> <Gold.Chemscore.DEClash>
1.1848

> <Gold.Chemscore.DEInternal>
0.4747

> <Gold.Chemscore.Rot>
4.0403

> <Gold.Chemscore.Internal.Correction>
   9.000000E+99

> <Gold.Chemscore.Hbonds>
donor molecule, donor type, donor heavy atom, donor atom, acceptor molecule, acceptor atom, score
      L1  H    10    26       P1  8028  0.84
      L1  H    12    27       P1  7948  0.96
      P1  H  7997  8010       L1    17  0.09

> <Gold.Chemscore.Hbond.Weighted>
-6.4196

> <Gold.Chemscore.Metal.Weighted>
-0.0000

> <Gold.Chemscore.Lipo.Weighted>
-3.1945

> <Gold.Chemscore.Internal_Hbond.Weighted>
0.0000

> <Gold.Chemscore.DEClash.Weighted>
1.1848

> <Gold.Chemscore.DEInternal.Weighted>
0.4747

> <Gold.Chemscore.Rot.Weighted>
10.3431

> <Gold.Chemscore.Internal.Correction.Weighted>
   9.000000E+99

> <Gold.Protein.RotatedTorsions>
[ 6907 6896 6895 6894 ] final -108.26 input  -60.11 | X-H torsion
[ 7974 7965 7964 7962 ] final  155.91 input  175.53 | X-H torsion
[ 8008 7997 7996 7995 ] final   42.36 input   59.86 | X-H torsion
[ 10167 10162 10161 10158 ] final   57.50 input  -65.29 | X-H torsion
[ 10718 10713 10712 10709 ] final  -96.91 input   66.30 | X-H torsion
[ 10763 10752 10751 10750 ] final  152.41 input  -60.55 | X-H torsion
[ 11005 11000 10999 10996 ] final   26.95 input  -57.11 | X-H torsion

> <Gold.Protein.ActiveResidues>
 VAL166  LYS551  ARG553  GLY616  TRP617  ASP618  TYR619  PRO620  LYS621  CYS622 
 ASP623  PHE694  ASN695  SER759  ASP760  ASP761  ALA762  ILE779  LEU786  VAL792 
 PHE793  MET794  SER795  GLU796  ALA797  LYS798  CYS799  TRP800  GLU811  SER814 

> <Gold.Protein.RotatedAtoms>
  150.7491  133.9703  159.3543 H   0  0  0  0  0  0  0  0  0  0  0  0  # atno 6907 bound_to 6896
  151.7637  135.0802  160.0359 H   0  0  0  0  0  0  0  0  0  0  0  0  # atno 6908 bound_to 6896
  152.3386  133.6003  159.5896 H   0  0  0  0  0  0  0  0  0  0  0  0  # atno 6909 bound_to 6896
  144.7995  139.7132  143.6188 H   0  0  0  0  0  0  0  0  0  0  0  0  # atno 7974 bound_to 7965
  155.2849  140.3375  155.4256 H   0  0  0  0  0  0  0  0  0  0  0  0  # atno 8008 bound_to 7997
  156.2073  140.1756  156.7813 H   0  0  0  0  0  0  0  0  0  0  0  0  # atno 8009 bound_to 7997
  154.5638  140.0682  156.8844 H   0  0  0  0  0  0  0  0  0  0  0  0  # atno 8010 bound_to 7997
  140.1973  144.4024  150.6544 H   0  0  0  0  0  0  0  0  0  0  0  0  # atno 10167 bound_to 10162
  156.0072  130.5171  150.6296 H   0  0  0  0  0  0  0  0  0  0  0  0  # atno 10718 bound_to 10713
  154.1196  135.2833  155.3211 H   0  0  0  0  0  0  0  0  0  0  0  0  # atno 10763 bound_to 10752
  154.6432  135.5395  153.7817 H   0  0  0  0  0  0  0  0  0  0  0  0  # atno 10764 bound_to 10752
  153.0317  135.6491  154.1351 H   0  0  0  0  0  0  0  0  0  0  0  0  # atno 10765 bound_to 10752
  140.3315  134.2433  155.7702 H   0  0  0  0  0  0  0  0  0  0  0  0  # atno 11005 bound_to 11000
  146.2273  139.5747  142.9578 LP  0  0  0  0  0  0  0  0  0  0  0  0  # atno 17320 bound_to 7965
  145.5588  141.0406  143.2238 LP  0  0  0  0  0  0  0  0  0  0  0  0  # atno 17321 bound_to 7965
  140.6414  143.2204  151.6281 LP  0  0  0  0  0  0  0  0  0  0  0  0  # atno 17342 bound_to 10162
  139.5231  144.3142  152.0966 LP  0  0  0  0  0  0  0  0  0  0  0  0  # atno 17343 bound_to 10162
  157.4096  131.0822  151.1233 LP  0  0  0  0  0  0  0  0  0  0  0  0  # atno 17370 bound_to 10713
  157.1868  130.6334  149.5691 LP  0  0  0  0  0  0  0  0  0  0  0  0  # atno 17371 bound_to 10713
  141.2062  133.7839  157.0189 LP  0  0  0  0  0  0  0  0  0  0  0  0  # atno 17394 bound_to 11000
  140.0857  134.9622  157.1696 LP  0  0  0  0  0  0  0  0  0  0  0  0  # atno 17395 bound_to 11000

$$$$
