AV-unprocessed.smi:1230|AV-procd|sdf|5155|dock9
  -GOLD-   22720 4223D 1   1.00000     0.00000
 Structure written by MMmdl.
 38 39  0  0  0  0  0  0  0  0  2 V2000
  152.7643  141.1594  159.7710 C   0  0  0  0  0  0  0  0  0  0  0  0
  152.0341  142.5107  159.7021 C   0  0  1  0  0  0  0  0  0  0  0  0
  152.5988  143.4868  160.7537 C   0  0  0  0  0  0  0  0  0  0  0  0
  151.8933  144.8502  160.7037 C   0  0  0  0  0  0  0  0  0  0  0  0
  151.9797  145.4625  159.2991 C   0  0  0  0  0  0  0  0  0  0  0  0
  151.4067  144.5041  158.2449 C   0  0  0  0  0  0  0  0  0  0  0  0
  152.1050  143.1278  158.2866 C   0  0  2  0  0  0  0  0  0  0  0  0
  151.4515  142.2368  157.3909 O   0  0  0  0  0  0  0  0  0  0  0  0
  150.0359  142.2291  157.4960 C   0  0  0  0  0  0  0  0  0  0  0  0
  149.4754  141.2694  156.4371 C   0  0  0  0  0  0  0  0  0  0  0  0
  150.2908  140.0529  156.3287 N   0  0  0  0  0  0  0  0  0  0  0  0
  150.6295  139.3895  157.5203 C   0  0  0  0  0  0  0  0  0  0  0  0
  151.3735  138.2673  157.5169 C   0  0  0  0  0  0  0  0  0  0  0  0
  151.7314  137.5753  158.7112 C   0  0  0  0  0  0  0  0  0  0  0  0
  152.0303  136.9886  159.6637 N   0  0  0  0  0  0  0  0  0  0  0  0
  151.8357  137.7377  156.2362 C   0  0  0  0  0  0  0  0  0  0  0  0
  152.5106  136.7094  156.2028 O   0  0  0  0  0  0  0  0  0  0  0  0
  151.4871  138.4291  155.1111 N   0  5  0  0  0  0  0  0  0  0  0  0
  150.7317  139.5718  155.1277 C   0  0  0  0  0  0  0  0  0  0  0  0
  150.4374  140.1807  154.0989 O   0  0  0  0  0  0  0  0  0  0  0  0
  153.8220  141.2676  159.5292 H   0  0  0  0  0  0  0  0  0  0  0  0
  152.3356  140.4397  159.0733 H   0  0  0  0  0  0  0  0  0  0  0  0
  152.6939  140.7263  160.7692 H   0  0  0  0  0  0  0  0  0  0  0  0
  150.9846  142.3327  159.9415 H   0  0  0  0  0  0  0  0  0  0  0  0
  152.4936  143.0604  161.7519 H   0  0  0  0  0  0  0  0  0  0  0  0
  153.6683  143.6267  160.5903 H   0  0  0  0  0  0  0  0  0  0  0  0
  150.8471  144.7331  160.9895 H   0  0  0  0  0  0  0  0  0  0  0  0
  152.3396  145.5272  161.4327 H   0  0  0  0  0  0  0  0  0  0  0  0
  151.4405  146.4098  159.2723 H   0  0  0  0  0  0  0  0  0  0  0  0
  153.0194  145.6902  159.0607 H   0  0  0  0  0  0  0  0  0  0  0  0
  150.3371  144.3755  158.4165 H   0  0  0  0  0  0  0  0  0  0  0  0
  151.5071  144.9567  157.2588 H   0  0  0  0  0  0  0  0  0  0  0  0
  153.1554  143.2401  158.0105 H   0  0  0  0  0  0  0  0  0  0  0  0
  149.7243  141.9137  158.4917 H   0  0  0  0  0  0  0  0  0  0  0  0
  149.6469  143.2351  157.3317 H   0  0  0  0  0  0  0  0  0  0  0  0
  148.4469  141.0090  156.6908 H   0  0  0  0  0  0  0  0  0  0  0  0
  149.4109  141.7746  155.4719 H   0  0  0  0  0  0  0  0  0  0  0  0
  150.2544  139.8462  158.4246 H   0  0  0  0  0  0  0  0  0  0  0  0
  1  2  1  0  0  0  0
  1 21  1  0  0  0  0
  1 22  1  0  0  0  0
  1 23  1  0  0  0  0
  2  7  1  0  0  0  0
  2  3  1  0  0  0  0
  2 24  1  0  0  0  0
  3  4  1  0  0  0  0
  3 25  1  0  0  0  0
  3 26  1  0  0  0  0
  4  5  1  0  0  0  0
  4 27  1  0  0  0  0
  4 28  1  0  0  0  0
  5  6  1  0  0  0  0
  5 29  1  0  0  0  0
  5 30  1  0  0  0  0
  6  7  1  0  0  0  0
  6 31  1  0  0  0  0
  6 32  1  0  0  0  0
  7  8  1  0  0  0  0
  7 33  1  0  0  0  0
  8  9  1  0  0  0  0
  9 10  1  0  0  0  0
  9 34  1  0  0  0  0
  9 35  1  0  0  0  0
 10 11  1  0  0  0  0
 10 36  1  0  0  0  0
 10 37  1  0  0  0  0
 11 19  1  0  0  0  0
 11 12  1  0  0  0  0
 12 13  2  0  0  0  0
 12 38  1  0  0  0  0
 13 14  1  0  0  0  0
 13 16  1  0  0  0  0
 14 15  3  0  0  0  0
 16 17  2  0  0  0  0
 16 18  1  0  0  0  0
 18 19  1  0  0  0  0
 19 20  2  0  0  0  0
M  CHG  1  18  -1
M  END
> <s_m_source_file>
AV-unprocessed.smi

> <i_m_source_file_index>
1230

> <i_lp_mmshare_version>
43012

> <i_f3d_flags>
0

> <s_epik_input>
W0NIM11bQ0BASF0xW0NIMl1bQ0gyXVtDSDJdW0NIMl1bQ0BIXTFPW0NIMl1bQ0gyXW4yW2NIXWMoQyNOKWMoPU8pW25IXWMyPU8=

> <s_epik_cmdline>
J2VwaWtfcHl0aG9uJywgJy1waCcsICc3LjAnLCAnLXRuJywgJzgnLCAnLW1hJywgJzIwMCcsICctbWV0YWxfYmluZGluZycsICctaW1hZScsICc8aW5maWxlLm1hZT4nLCAnLW9tYWUnLCAnPG91dGZpbGUubWFlPic=

> <r_epik_Ionization_Penalty>
0.400014

> <r_epik_Ionization_Penalty_Charging>
4.81474e-10

> <r_epik_Ionization_Penalty_Neutral>
0.400014

> <r_epik_State_Penalty>
0.399305

> <r_epik_Charging_Adjusted_Penalty>
0.399305

> <i_epik_Tot_Q>
-1

> <i_epik_Tot_abs_Q>
1

> <r_epik_Metal_State_Penalty>
0.00056968

> <b_epik_Metal_Only>
0

> <s_lp_Force_Field>
OPLS_2005

> <r_lp_Energy>
22.5171

> <b_lp_Chiralities_Consistent>
1

> <s_lp_Variant>
AV-unprocessed.smi:1230-4

> <Gold.Version>
5.8.1

> <Gold.Id.Protein>
6NUR|6NUR_protein|mol2

> <Gold.PLP.Fitness>
46.9655

> <Gold.PLP.PLP>
-38.5664

> <Gold.PLP.part.hbond>
-3.0000

> <Gold.PLP.part.metal>
0.0000

> <Gold.PLP.part.buried>
-6.3724

> <Gold.PLP.part.nonpolar>
-30.8441

> <Gold.PLP.part.repulsive>
0.3454

> <Gold.PLP.ligand.clash>
0.0000

> <Gold.PLP.ligand.torsion>
0.2924

> <Gold.PLP.Chemscore.Hbond>
2.9920

> <Gold.PLP.Chemscore.CHOScore>
0.0000

> <Gold.PLP.Chemscore.Metal>
0.0000

> <Gold.Chemscore.Hbonds>
donor molecule, donor type, donor heavy atom, donor atom, acceptor molecule, acceptor atom, score
      P1  H  6896  6908       L1    15  1.00
      P1  H  7989  7998       L1    20  0.91
      P1  H 10752 10764       L1    17  0.99

> <Gold.PLP.Chemscore.Internal.Correction>
0.0079

> <Gold.Rescore>
     Score         DG    S(hbond)    S(metal)    S(lipo)     H(rot)  DE(clash)    DE(int)     intcor
     21.76     -21.92       2.97        0.00      97.20       1.90       0.02       0.14       ----

> <Gold.Chemscore.Fitness>
21.7568

> <Gold.Chemscore.DG>
-21.9158

> <Gold.Chemscore.ZeroCoef>
-5.4800

> <Gold.Chemscore.Hbond>
2.9709

> <Gold.Chemscore.Metal>
0.0000

> <Gold.Chemscore.Lipo>
97.2030

> <Gold.Chemscore.Internal_Hbond>
0.0000

> <Gold.Chemscore.DEClash>
0.0215

> <Gold.Chemscore.DEInternal>
0.1374

> <Gold.Chemscore.Rot>
1.8984

> <Gold.Chemscore.Internal.Correction>
   9.000000E+99

> <Gold.Chemscore.Hbonds>
donor molecule, donor type, donor heavy atom, donor atom, acceptor molecule, acceptor atom, score
      P1  H  6896  6908       L1    15  0.98
      P1  H  7989  7998       L1    20  0.73
      P1  H 10752 10764       L1    17  0.94

> <Gold.Chemscore.Hbond.Weighted>
-9.9229

> <Gold.Chemscore.Metal.Weighted>
-0.0000

> <Gold.Chemscore.Lipo.Weighted>
-11.3728

> <Gold.Chemscore.Internal_Hbond.Weighted>
0.0000

> <Gold.Chemscore.DEClash.Weighted>
0.0215

> <Gold.Chemscore.DEInternal.Weighted>
0.1374

> <Gold.Chemscore.Rot.Weighted>
4.8598

> <Gold.Chemscore.Internal.Correction.Weighted>
   9.000000E+99

> <Gold.Protein.RotatedTorsions>
[ 6907 6896 6895 6894 ] final  -99.50 input  -60.11 | X-H torsion
[ 7974 7965 7964 7962 ] final   65.35 input  175.53 | X-H torsion
[ 8008 7997 7996 7995 ] final   85.00 input   59.86 | X-H torsion
[ 10167 10162 10161 10158 ] final  100.25 input  -65.29 | X-H torsion
[ 10718 10713 10712 10709 ] final   58.98 input   66.30 | X-H torsion
[ 10763 10752 10751 10750 ] final  -18.22 input  -60.55 | X-H torsion
[ 11005 11000 10999 10996 ] final  -84.29 input  -57.11 | X-H torsion

> <Gold.Protein.ActiveResidues>
 VAL166  LYS551  ARG553  GLY616  TRP617  ASP618  TYR619  PRO620  LYS621  CYS622 
 ASP623  PHE694  ASN695  SER759  ASP760  ASP761  ALA762  ILE779  LEU786  VAL792 
 PHE793  MET794  SER795  GLU796  ALA797  LYS798  CYS799  TRP800  GLU811  SER814 

> <Gold.Protein.RotatedAtoms>
  150.7082  134.1031  159.3972 H   0  0  0  0  0  0  0  0  0  0  0  0  # atno 6907 bound_to 6896
  151.9018  135.0373  160.0516 H   0  0  0  0  0  0  0  0  0  0  0  0  # atno 6908 bound_to 6896
  152.2408  133.5098  159.5305 H   0  0  0  0  0  0  0  0  0  0  0  0  # atno 6909 bound_to 6896
  145.8395  139.3187  143.0940 H   0  0  0  0  0  0  0  0  0  0  0  0  # atno 7974 bound_to 7965
  155.9444  140.3405  155.6354 H   0  0  0  0  0  0  0  0  0  0  0  0  # atno 8008 bound_to 7997
  155.6999  140.0759  157.2433 H   0  0  0  0  0  0  0  0  0  0  0  0  # atno 8009 bound_to 7997
  154.4109  140.1642  156.2167 H   0  0  0  0  0  0  0  0  0  0  0  0  # atno 8010 bound_to 7997
  139.7544  144.6974  151.0384 H   0  0  0  0  0  0  0  0  0  0  0  0  # atno 10167 bound_to 10162
  157.5640  130.8857  149.9156 H   0  0  0  0  0  0  0  0  0  0  0  0  # atno 10718 bound_to 10713
  153.5860  135.7004  153.5443 H   0  0  0  0  0  0  0  0  0  0  0  0  # atno 10763 bound_to 10752
  153.3220  135.4071  155.1424 H   0  0  0  0  0  0  0  0  0  0  0  0  # atno 10764 bound_to 10752
  154.8609  135.3698  154.5390 H   0  0  0  0  0  0  0  0  0  0  0  0  # atno 10765 bound_to 10752
  141.1651  133.7338  156.8846 H   0  0  0  0  0  0  0  0  0  0  0  0  # atno 11005 bound_to 11000
  145.9481  140.8929  143.0273 LP  0  0  0  0  0  0  0  0  0  0  0  0  # atno 17320 bound_to 7965
  144.6734  140.1642  143.7420 LP  0  0  0  0  0  0  0  0  0  0  0  0  # atno 17321 bound_to 7965
  140.7801  143.4770  151.0069 LP  0  0  0  0  0  0  0  0  0  0  0  0  # atno 17342 bound_to 10162
  139.8457  143.7504  152.3179 LP  0  0  0  0  0  0  0  0  0  0  0  0  # atno 17343 bound_to 10162
  156.0689  130.3688  150.0817 LP  0  0  0  0  0  0  0  0  0  0  0  0  # atno 17370 bound_to 10713
  156.8978  130.9610  151.3580 LP  0  0  0  0  0  0  0  0  0  0  0  0  # atno 17371 bound_to 10713
  140.1691  134.9113  157.2810 LP  0  0  0  0  0  0  0  0  0  0  0  0  # atno 17394 bound_to 11000
  140.2523  134.3668  155.7437 LP  0  0  0  0  0  0  0  0  0  0  0  0  # atno 17395 bound_to 11000

$$$$
