AV-unprocessed.smi:1456|AV-procd|sdf|5918|dock6
  -GOLD-   22720 6 03D 1   1.00000     0.00000
 Structure written by MMmdl.
 41 42  0  0  0  0  0  0  0  0  3 V2000
  148.0003  139.2262  156.0154 C   0  0  0  0  0  0  0  0  0  0  0  0
  148.5720  138.7394  154.6651 C   0  0  0  0  0  0  0  0  0  0  0  0
  147.4370  138.8839  153.6322 C   0  0  0  0  0  0  0  0  0  0  0  0
  149.7682  139.6001  154.1814 C   0  0  0  0  0  0  0  0  0  0  0  0
  151.1144  139.2791  154.8494 C   0  0  0  0  0  0  0  0  0  0  0  0
  151.1894  139.8241  156.2024 N   0  0  0  0  0  0  0  0  0  0  0  0
  152.1607  139.6089  157.1001 C   0  0  0  0  0  0  0  0  0  0  0  0
  153.1330  138.9119  156.8028 O   0  0  0  0  0  0  0  0  0  0  0  0
  151.9334  140.2081  158.2902 N   0  5  0  0  0  0  0  0  0  0  0  0
  151.8430  141.5458  158.3620 C   0  0  0  0  0  0  0  0  0  0  0  0
  151.1642  142.2800  157.4733 N   0  0  0  0  0  0  0  0  0  0  0  0
  151.1966  143.6492  157.7447 C   0  0  0  0  0  0  0  0  0  0  0  0
  151.9088  143.9635  158.8718 C   0  0  0  0  0  0  0  0  0  0  0  0
  152.5637  142.5408  159.6309 S   0  0  0  0  0  0  0  0  0  0  0  0
  151.3904  137.7648  154.7793 C   0  0  0  0  0  0  0  0  0  0  0  0
  150.2355  136.8619  155.2811 C   0  0  0  0  0  0  0  0  0  0  0  0
  150.4936  135.4329  154.7649 C   0  0  0  0  0  0  0  0  0  0  0  0
  150.1850  136.7695  156.8226 C   0  0  0  0  0  0  0  0  0  0  0  0
  148.9269  137.2926  154.7126 N   0  3  0  0  0  0  0  0  0  0  0  0
  147.6094  140.2407  155.9278 H   0  0  0  0  0  0  0  0  0  0  0  0
  148.7294  139.2534  156.8182 H   0  0  0  0  0  0  0  0  0  0  0  0
  147.1781  138.5918  156.3484 H   0  0  0  0  0  0  0  0  0  0  0  0
  147.1273  139.9242  153.5232 H   0  0  0  0  0  0  0  0  0  0  0  0
  146.5564  138.3093  153.9226 H   0  0  0  0  0  0  0  0  0  0  0  0
  147.7433  138.5307  152.6466 H   0  0  0  0  0  0  0  0  0  0  0  0
  149.9012  139.4402  153.1101 H   0  0  0  0  0  0  0  0  0  0  0  0
  149.5396  140.6617  154.2871 H   0  0  0  0  0  0  0  0  0  0  0  0
  151.8884  139.7879  154.2716 H   0  0  0  0  0  0  0  0  0  0  0  0
  150.4243  140.4131  156.4967 H   0  0  0  0  0  0  0  0  0  0  0  0
  150.6828  144.3291  157.0816 H   0  0  0  0  0  0  0  0  0  0  0  0
  152.0867  144.9381  159.3005 H   0  0  0  0  0  0  0  0  0  0  0  0
  151.5832  137.5297  153.7314 H   0  0  0  0  0  0  0  0  0  0  0  0
  152.3164  137.5158  155.2991 H   0  0  0  0  0  0  0  0  0  0  0  0
  151.4538  135.0509  155.1142 H   0  0  0  0  0  0  0  0  0  0  0  0
  150.5064  135.3959  153.6748 H   0  0  0  0  0  0  0  0  0  0  0  0
  149.7228  134.7394  155.1042 H   0  0  0  0  0  0  0  0  0  0  0  0
  151.0898  136.3010  157.2121 H   0  0  0  0  0  0  0  0  0  0  0  0
  149.3397  136.1663  157.1560 H   0  0  0  0  0  0  0  0  0  0  0  0
  150.1107  137.7313  157.3188 H   0  0  0  0  0  0  0  0  0  0  0  0
  148.1858  136.7880  155.1775 H   0  0  0  0  0  0  0  0  0  0  0  0
  148.9451  136.9919  153.7489 H   0  0  0  0  0  0  0  0  0  0  0  0
  1  2  1  0  0  0  0
  1 20  1  0  0  0  0
  1 21  1  0  0  0  0
  1 22  1  0  0  0  0
  2 19  1  0  0  0  0
  2  3  1  0  0  0  0
  2  4  1  0  0  0  0
  3 23  1  0  0  0  0
  3 24  1  0  0  0  0
  3 25  1  0  0  0  0
  4  5  1  0  0  0  0
  4 26  1  0  0  0  0
  4 27  1  0  0  0  0
  5  6  1  0  0  0  0
  5 15  1  0  0  0  0
  5 28  1  0  0  0  0
  6  7  1  0  0  0  0
  6 29  1  0  0  0  0
  7  8  2  0  0  0  0
  7  9  1  0  0  0  0
  9 10  1  0  0  0  0
 10 14  1  0  0  0  0
 10 11  2  0  0  0  0
 11 12  1  0  0  0  0
 12 13  2  0  0  0  0
 12 30  1  0  0  0  0
 13 14  1  0  0  0  0
 13 31  1  0  0  0  0
 15 16  1  0  0  0  0
 15 32  1  0  0  0  0
 15 33  1  0  0  0  0
 16 17  1  0  0  0  0
 16 18  1  0  0  0  0
 16 19  1  0  0  0  0
 17 34  1  0  0  0  0
 17 35  1  0  0  0  0
 17 36  1  0  0  0  0
 18 37  1  0  0  0  0
 18 38  1  0  0  0  0
 18 39  1  0  0  0  0
 19 40  1  0  0  0  0
 19 41  1  0  0  0  0
M  CHG  1   9  -1
M  CHG  1  19   1
M  END
> <s_m_source_file>
AV-unprocessed.smi

> <i_m_source_file_index>
1456

> <i_lp_mmshare_version>
43012

> <i_f3d_flags>
0

> <s_epik_input>
W0NIM11DMShbQ0gzXSlbQ0gyXVtDSF0oW0NIMl1DKFtDSDNdKShbQ0gzXSlbTkhdMSlbTkhdQyg9TylbTkhdYzJuW2NIXVtjSF1zMg==

> <s_epik_cmdline>
J2VwaWtfcHl0aG9uJywgJy1waCcsICc3LjAnLCAnLXRuJywgJzgnLCAnLW1hJywgJzIwMCcsICctbWV0YWxfYmluZGluZycsICctaW1hZScsICc8aW5maWxlLm1hZT4nLCAnLW9tYWUnLCAnPG91dGZpbGUubWFlPic=

> <r_lp_tautomer_probability>
1

> <r_epik_Ionization_Penalty>
7.98581

> <r_epik_Ionization_Penalty_Charging>
6.48842

> <r_epik_Ionization_Penalty_Neutral>
1.49739

> <r_epik_State_Penalty>
6.48831

> <r_epik_Charging_Adjusted_Penalty>
12.9767

> <i_epik_Tot_Q>
0

> <i_epik_Tot_abs_Q>
2

> <r_epik_Metal_State_Penalty>
2.41622

> <b_epik_Metal_Only>
1

> <s_lp_Force_Field>
OPLS_2005

> <r_lp_Energy>
15.6093

> <b_lp_Chiralities_Consistent>
1

> <s_lp_Variant>
AV-unprocessed.smi:1456-2

> <Gold.Version>
5.8.1

> <Gold.Id.Protein>
6NUR|6NUR_protein|mol2

> <Gold.PLP.Fitness>
40.7051

> <Gold.PLP.PLP>
-30.7341

> <Gold.PLP.part.hbond>
-2.0000

> <Gold.PLP.part.metal>
0.0000

> <Gold.PLP.part.buried>
-1.7316

> <Gold.PLP.part.nonpolar>
-27.7146

> <Gold.PLP.part.repulsive>
0.1668

> <Gold.PLP.ligand.clash>
0.0000

> <Gold.PLP.ligand.torsion>
1.0240

> <Gold.PLP.Chemscore.Hbond>
3.0000

> <Gold.PLP.Chemscore.CHOScore>
1.0000

> <Gold.PLP.Chemscore.Metal>
0.0000

> <Gold.Chemscore.Hbonds>
donor molecule, donor type, donor heavy atom, donor atom, acceptor molecule, acceptor atom, score
      L1  H    19    41       P1  7948  2.00
      P1  H  7997  8009       L1     8  1.00
      L1  C    12    30       P1  8028  1.00

> <Gold.PLP.Chemscore.Internal.Correction>
0.0189

> <Gold.Rescore>
     Score         DG    S(hbond)    S(metal)    S(lipo)     H(rot)  DE(clash)    DE(int)     intcor
     15.72     -18.13       1.89        0.00      76.16       1.00       0.16       2.25       ----

> <Gold.Chemscore.Fitness>
15.7167

> <Gold.Chemscore.DG>
-18.1315

> <Gold.Chemscore.ZeroCoef>
-5.4800

> <Gold.Chemscore.Hbond>
1.8863

> <Gold.Chemscore.Metal>
0.0000

> <Gold.Chemscore.Lipo>
76.1646

> <Gold.Chemscore.Internal_Hbond>
0.0000

> <Gold.Chemscore.DEClash>
0.1609

> <Gold.Chemscore.DEInternal>
2.2539

> <Gold.Chemscore.Rot>
1.0000

> <Gold.Chemscore.Internal.Correction>
   9.000000E+99

> <Gold.Chemscore.Hbonds>
donor molecule, donor type, donor heavy atom, donor atom, acceptor molecule, acceptor atom, score
      L1  H    19    41       P1  7948  0.94
      P1  H  7997  8009       L1     8  0.40

> <Gold.Chemscore.Hbond.Weighted>
-6.3002

> <Gold.Chemscore.Metal.Weighted>
-0.0000

> <Gold.Chemscore.Lipo.Weighted>
-8.9113

> <Gold.Chemscore.Internal_Hbond.Weighted>
0.0000

> <Gold.Chemscore.DEClash.Weighted>
0.1609

> <Gold.Chemscore.DEInternal.Weighted>
2.2539

> <Gold.Chemscore.Rot.Weighted>
2.5600

> <Gold.Chemscore.Internal.Correction.Weighted>
   9.000000E+99

> <Gold.Protein.RotatedTorsions>
[ 6907 6896 6895 6894 ] final   11.38 input  -60.11 | X-H torsion
[ 7974 7965 7964 7962 ] final   73.69 input  175.53 | X-H torsion
[ 8008 7997 7996 7995 ] final  175.74 input   59.86 | X-H torsion
[ 10167 10162 10161 10158 ] final  -86.75 input  -65.29 | X-H torsion
[ 10718 10713 10712 10709 ] final -115.34 input   66.30 | X-H torsion
[ 10763 10752 10751 10750 ] final   32.37 input  -60.55 | X-H torsion
[ 11005 11000 10999 10996 ] final   66.79 input  -57.11 | X-H torsion

> <Gold.Protein.ActiveResidues>
 VAL166  LYS551  ARG553  GLY616  TRP617  ASP618  TYR619  PRO620  LYS621  CYS622 
 ASP623  PHE694  ASN695  SER759  ASP760  ASP761  ALA762  ILE779  LEU786  VAL792 
 PHE793  MET794  SER795  GLU796  ALA797  LYS798  CYS799  TRP800  GLU811  SER814 

> <Gold.Protein.RotatedAtoms>
  151.7534  135.0827  160.0334 H   0  0  0  0  0  0  0  0  0  0  0  0  # atno 6907 bound_to 6896
  152.3402  133.6053  159.5879 H   0  0  0  0  0  0  0  0  0  0  0  0  # atno 6908 bound_to 6896
  150.7474  133.9651  159.3569 H   0  0  0  0  0  0  0  0  0  0  0  0  # atno 6909 bound_to 6896
  145.7376  139.2708  143.1505 H   0  0  0  0  0  0  0  0  0  0  0  0  # atno 7974 bound_to 7965
  156.0838  140.1401  156.9678 H   0  0  0  0  0  0  0  0  0  0  0  0  # atno 8008 bound_to 7997
  154.4601  140.0946  156.6917 H   0  0  0  0  0  0  0  0  0  0  0  0  # atno 8009 bound_to 7997
  155.5031  140.3451  155.4377 H   0  0  0  0  0  0  0  0  0  0  0  0  # atno 8010 bound_to 7997
  140.3911  143.2704  151.9263 H   0  0  0  0  0  0  0  0  0  0  0  0  # atno 10167 bound_to 10162
  156.0889  130.6075  150.8893 H   0  0  0  0  0  0  0  0  0  0  0  0  # atno 10718 bound_to 10713
  153.0266  135.6415  154.1345 H   0  0  0  0  0  0  0  0  0  0  0  0  # atno 10763 bound_to 10752
  154.1073  135.2855  155.3240 H   0  0  0  0  0  0  0  0  0  0  0  0  # atno 10764 bound_to 10752
  154.6356  135.5477  153.7793 H   0  0  0  0  0  0  0  0  0  0  0  0  # atno 10765 bound_to 10752
  139.9810  134.6744  156.0263 H   0  0  0  0  0  0  0  0  0  0  0  0  # atno 11005 bound_to 11000
  146.0478  140.8100  142.9796 LP  0  0  0  0  0  0  0  0  0  0  0  0  # atno 17320 bound_to 7965
  144.6878  140.3007  143.7264 LP  0  0  0  0  0  0  0  0  0  0  0  0  # atno 17321 bound_to 7965
  139.4789  144.5726  151.8064 LP  0  0  0  0  0  0  0  0  0  0  0  0  # atno 17342 bound_to 10162
  140.4838  144.1410  150.5937 LP  0  0  0  0  0  0  0  0  0  0  0  0  # atno 17343 bound_to 10162
  157.6032  131.0940  150.8924 LP  0  0  0  0  0  0  0  0  0  0  0  0  # atno 17370 bound_to 10713
  156.9077  130.5269  149.5281 LP  0  0  0  0  0  0  0  0  0  0  0  0  # atno 17371 bound_to 10713
  141.1482  133.6552  156.3931 LP  0  0  0  0  0  0  0  0  0  0  0  0  # atno 17394 bound_to 11000
  140.5097  134.6407  157.5279 LP  0  0  0  0  0  0  0  0  0  0  0  0  # atno 17395 bound_to 11000

$$$$
