AV-unprocessed.smi:2645|AV-procd|sdf|10279|dock1
  -GOLD-   2272014293D 1   1.00000     0.00000
 Structure written by MMmdl.
 49 51  0  0  0  0  0  0  0  0  1 V2000
  144.9913  136.9741  152.1744 O   0  0  0  0  0  0  0  0  0  0  0  0
  146.1703  136.6175  152.1634 C   0  0  0  0  0  0  0  0  0  0  0  0
  147.1882  137.4266  152.4916 N   0  0  0  0  0  0  0  0  0  0  0  0
  147.0465  138.8202  152.8963 C   0  0  0  0  0  0  0  0  0  0  0  0
  147.4592  139.0170  154.3686 C   0  0  0  0  0  0  0  0  0  0  0  0
  148.7930  139.6014  154.5014 N   0  0  0  0  0  0  0  0  0  0  0  0
  149.7083  138.6847  155.1937 C   0  0  0  0  0  0  0  0  0  0  0  0
  151.0954  139.3360  155.3524 C   0  0  0  0  0  0  0  0  0  0  0  0
  150.9509  140.5748  156.1227 N   0  0  0  0  0  0  0  0  0  0  0  0
  151.4672  140.8204  157.3512 C   0  0  0  0  0  0  0  0  0  0  0  0
  152.1474  139.9871  157.9516 O   0  0  0  0  0  0  0  0  0  0  0  0
  151.2325  142.2013  157.9956 C   0  0  0  0  0  0  0  0  0  0  0  0
  151.8405  143.4108  157.2551 C   0  0  0  0  0  0  0  0  0  0  0  0
  152.3023  143.9498  158.6116 C   0  0  0  0  0  0  0  0  0  0  0  0
  152.1895  142.5234  159.1562 C   0  0  0  0  0  0  0  0  0  0  0  0
  150.0719  141.5103  155.4157 C   0  0  0  0  0  0  0  0  0  0  0  0
  148.6854  140.8582  155.2502 C   0  0  0  0  0  0  0  0  0  0  0  0
  146.6094  135.3907  151.8294 N   0  0  0  0  0  0  0  0  0  0  0  0
  145.8459  134.2727  151.3986 C   0  0  0  0  0  0  0  0  0  0  0  0
  146.5695  133.0651  151.2725 C   0  0  0  0  0  0  0  0  0  0  0  0
  145.9034  131.8991  150.8477 C   0  0  0  0  0  0  0  0  0  0  0  0
  144.5291  131.9712  150.5583 C   0  0  0  0  0  0  0  0  0  0  0  0
  143.8837  133.2122  150.7096 C   0  0  0  0  0  0  0  0  0  0  0  0
  144.5201  134.3306  151.1169 N   0  0  0  0  0  0  0  0  0  0  0  0
  148.1261  137.0549  152.4566 H   0  0  0  0  0  0  0  0  0  0  0  0
  147.6339  139.4446  152.2227 H   0  0  0  0  0  0  0  0  0  0  0  0
  146.0039  139.1082  152.7598 H   0  0  0  0  0  0  0  0  0  0  0  0
  146.7345  139.6880  154.8324 H   0  0  0  0  0  0  0  0  0  0  0  0
  147.4084  138.0758  154.9184 H   0  0  0  0  0  0  0  0  0  0  0  0
  149.3050  138.4161  156.1715 H   0  0  0  0  0  0  0  0  0  0  0  0
  149.8200  137.7610  154.6276 H   0  0  0  0  0  0  0  0  0  0  0  0
  151.7843  138.6213  155.7980 H   0  0  0  0  0  0  0  0  0  0  0  0
  151.5146  139.5700  154.3726 H   0  0  0  0  0  0  0  0  0  0  0  0
  150.1861  142.3884  158.2431 H   0  0  0  0  0  0  0  0  0  0  0  0
  152.6821  143.1789  156.6004 H   0  0  0  0  0  0  0  0  0  0  0  0
  151.1103  144.0451  156.7521 H   0  0  0  0  0  0  0  0  0  0  0  0
  153.3116  144.3625  158.6197 H   0  0  0  0  0  0  0  0  0  0  0  0
  151.5803  144.6327  159.0621 H   0  0  0  0  0  0  0  0  0  0  0  0
  151.7383  142.4618  160.1468 H   0  0  0  0  0  0  0  0  0  0  0  0
  153.1333  141.9762  159.1122 H   0  0  0  0  0  0  0  0  0  0  0  0
  149.9638  142.4633  155.9348 H   0  0  0  0  0  0  0  0  0  0  0  0
  150.5005  141.7475  154.4406 H   0  0  0  0  0  0  0  0  0  0  0  0
  148.0248  141.5443  154.7187 H   0  0  0  0  0  0  0  0  0  0  0  0
  148.2380  140.6752  156.2288 H   0  0  0  0  0  0  0  0  0  0  0  0
  147.6060  135.2415  151.8818 H   0  0  0  0  0  0  0  0  0  0  0  0
  147.6255  133.0274  151.4983 H   0  0  0  0  0  0  0  0  0  0  0  0
  146.4384  130.9664  150.7447 H   0  0  0  0  0  0  0  0  0  0  0  0
  143.9836  131.0989  150.2297 H   0  0  0  0  0  0  0  0  0  0  0  0
  142.8292  133.3104  150.4975 H   0  0  0  0  0  0  0  0  0  0  0  0
  1  2  2  0  0  0  0
  2  3  1  0  0  0  0
  2 18  1  0  0  0  0
  3  4  1  0  0  0  0
  3 25  1  0  0  0  0
  4  5  1  0  0  0  0
  4 26  1  0  0  0  0
  4 27  1  0  0  0  0
  5  6  1  0  0  0  0
  5 28  1  0  0  0  0
  5 29  1  0  0  0  0
  6 17  1  0  0  0  0
  6  7  1  0  0  0  0
  7  8  1  0  0  0  0
  7 30  1  0  0  0  0
  7 31  1  0  0  0  0
  8  9  1  0  0  0  0
  8 32  1  0  0  0  0
  8 33  1  0  0  0  0
  9 10  1  0  0  0  0
  9 16  1  0  0  0  0
 10 11  2  0  0  0  0
 10 12  1  0  0  0  0
 12 15  1  0  0  0  0
 12 13  1  0  0  0  0
 12 34  1  0  0  0  0
 13 14  1  0  0  0  0
 13 35  1  0  0  0  0
 13 36  1  0  0  0  0
 14 15  1  0  0  0  0
 14 37  1  0  0  0  0
 14 38  1  0  0  0  0
 15 39  1  0  0  0  0
 15 40  1  0  0  0  0
 16 17  1  0  0  0  0
 16 41  1  0  0  0  0
 16 42  1  0  0  0  0
 17 43  1  0  0  0  0
 17 44  1  0  0  0  0
 18 19  1  0  0  0  0
 18 45  1  0  0  0  0
 19 24  1  0  0  0  0
 19 20  2  0  0  0  0
 20 21  1  0  0  0  0
 20 46  1  0  0  0  0
 21 22  2  0  0  0  0
 21 47  1  0  0  0  0
 22 23  1  0  0  0  0
 22 48  1  0  0  0  0
 23 24  2  0  0  0  0
 23 49  1  0  0  0  0
M  END
> <s_m_source_file>
AV-unprocessed.smi

> <i_m_source_file_index>
2645

> <i_lp_mmshare_version>
43012

> <i_f3d_flags>
0

> <s_epik_input>
bjFbY0hdW2NIXVtjSF1bY0hdYzFbTkhdQyg9TylbTkhdW0NIMl1bQ0gyXU4yW0NIMl1bQ0gyXU4oW0NIMl1bQ0gyXTIpQyg9TylbQ0hdM1tDSDJdW0NIMl1bQ0gyXTM=

> <s_epik_cmdline>
J2VwaWtfcHl0aG9uJywgJy1waCcsICc3LjAnLCAnLXRuJywgJzgnLCAnLW1hJywgJzIwMCcsICctbWV0YWxfYmluZGluZycsICctaW1hZScsICc8aW5maWxlLm1hZT4nLCAnLW9tYWUnLCAnPG91dGZpbGUubWFlPic=

> <r_epik_Ionization_Penalty>
0.278001

> <r_epik_Ionization_Penalty_Charging>
0

> <r_epik_Ionization_Penalty_Neutral>
0.278001

> <r_epik_State_Penalty>
0.270395

> <r_epik_Charging_Adjusted_Penalty>
0.270395

> <i_epik_Tot_Q>
0

> <i_epik_Tot_abs_Q>
0

> <r_epik_Metal_State_Penalty>
0.270393

> <b_epik_Metal_Only>
0

> <s_lp_Force_Field>
OPLS_2005

> <r_lp_Energy>
44.6335

> <b_lp_Chiralities_Consistent>
1

> <s_lp_Variant>
AV-unprocessed.smi:2645-1

> <Gold.Version>
5.8.1

> <Gold.Id.Protein>
6NUR|6NUR_protein|mol2

> <Gold.PLP.Fitness>
54.2998

> <Gold.PLP.PLP>
-44.4484

> <Gold.PLP.part.hbond>
-3.0000

> <Gold.PLP.part.metal>
0.0000

> <Gold.PLP.part.buried>
-3.5276

> <Gold.PLP.part.nonpolar>
-38.5202

> <Gold.PLP.part.repulsive>
0.5627

> <Gold.PLP.ligand.clash>
0.0000

> <Gold.PLP.ligand.torsion>
1.3217

> <Gold.PLP.Chemscore.Hbond>
2.9920

> <Gold.PLP.Chemscore.CHOScore>
1.0000

> <Gold.PLP.Chemscore.Metal>
0.0000

> <Gold.Chemscore.Hbonds>
donor molecule, donor type, donor heavy atom, donor atom, acceptor molecule, acceptor atom, score
      L1  H     3    25       P1  7948  0.39
      L1  H    18    45       P1  7948  0.72
      L1  C    23    49       P1 10186  1.00

> <Gold.PLP.Chemscore.Internal.Correction>
0.5189

> <Gold.Rescore>
     Score         DG    S(hbond)    S(metal)    S(lipo)     H(rot)  DE(clash)    DE(int)     intcor
     20.18     -22.97       2.91        0.00     104.85       1.75       0.25       2.54       ----

> <Gold.Chemscore.Fitness>
20.1829

> <Gold.Chemscore.DG>
-22.9727

> <Gold.Chemscore.ZeroCoef>
-5.4800

> <Gold.Chemscore.Hbond>
2.9067

> <Gold.Chemscore.Metal>
0.0000

> <Gold.Chemscore.Lipo>
104.8497

> <Gold.Chemscore.Internal_Hbond>
0.0000

> <Gold.Chemscore.DEClash>
0.2539

> <Gold.Chemscore.DEInternal>
2.5359

> <Gold.Chemscore.Rot>
1.7512

> <Gold.Chemscore.Internal.Correction>
   9.000000E+99

> <Gold.Chemscore.Hbonds>
donor molecule, donor type, donor heavy atom, donor atom, acceptor molecule, acceptor atom, score
      L1  H     3    25       P1  7948  0.39
      L1  H    18    45       P1  7948  0.67

> <Gold.Chemscore.Hbond.Weighted>
-9.7083

> <Gold.Chemscore.Metal.Weighted>
-0.0000

> <Gold.Chemscore.Lipo.Weighted>
-12.2674

> <Gold.Chemscore.Internal_Hbond.Weighted>
0.0000

> <Gold.Chemscore.DEClash.Weighted>
0.2539

> <Gold.Chemscore.DEInternal.Weighted>
2.5359

> <Gold.Chemscore.Rot.Weighted>
4.4830

> <Gold.Chemscore.Internal.Correction.Weighted>
   9.000000E+99

> <Gold.Protein.RotatedTorsions>
[ 6907 6896 6895 6894 ] final   36.20 input  -60.11 | X-H torsion
[ 7974 7965 7964 7962 ] final   91.11 input  175.53 | X-H torsion
[ 8008 7997 7996 7995 ] final   64.25 input   59.86 | X-H torsion
[ 10167 10162 10161 10158 ] final  -94.79 input  -65.29 | X-H torsion
[ 10718 10713 10712 10709 ] final  133.77 input   66.30 | X-H torsion
[ 10763 10752 10751 10750 ] final   74.81 input  -60.55 | X-H torsion
[ 11005 11000 10999 10996 ] final   28.57 input  -57.11 | X-H torsion

> <Gold.Protein.ActiveResidues>
 VAL166  LYS551  ARG553  GLY616  TRP617  ASP618  TYR619  PRO620  LYS621  CYS622 
 ASP623  PHE694  ASN695  SER759  ASP760  ASP761  ALA762  ILE779  LEU786  VAL792 
 PHE793  MET794  SER795  GLU796  ALA797  LYS798  CYS799  TRP800  GLU811  SER814 

> <Gold.Protein.RotatedAtoms>
  152.1265  134.9167  160.0560 H   0  0  0  0  0  0  0  0  0  0  0  0  # atno 6907 bound_to 6896
  152.0287  133.3923  159.4296 H   0  0  0  0  0  0  0  0  0  0  0  0  # atno 6908 bound_to 6896
  150.6853  134.3466  159.4934 H   0  0  0  0  0  0  0  0  0  0  0  0  # atno 6909 bound_to 6896
  145.5100  139.2277  143.2729 H   0  0  0  0  0  0  0  0  0  0  0  0  # atno 7974 bound_to 7965
  155.6431  140.3497  155.4722 H   0  0  0  0  0  0  0  0  0  0  0  0  # atno 8008 bound_to 7997
  155.9909  140.1193  157.0662 H   0  0  0  0  0  0  0  0  0  0  0  0  # atno 8009 bound_to 7997
  154.4219  140.1119  156.5551 H   0  0  0  0  0  0  0  0  0  0  0  0  # atno 8010 bound_to 7997
  140.3108  143.3106  152.0151 H   0  0  0  0  0  0  0  0  0  0  0  0  # atno 10167 bound_to 10162
  157.4740  131.1082  150.9767 H   0  0  0  0  0  0  0  0  0  0  0  0  # atno 10718 bound_to 10713
  153.0612  135.5012  154.8097 H   0  0  0  0  0  0  0  0  0  0  0  0  # atno 10763 bound_to 10752
  154.6885  135.2980  154.9516 H   0  0  0  0  0  0  0  0  0  0  0  0  # atno 10764 bound_to 10752
  154.0279  135.6733  153.4831 H   0  0  0  0  0  0  0  0  0  0  0  0  # atno 10765 bound_to 10752
  140.3142  134.2616  155.7728 H   0  0  0  0  0  0  0  0  0  0  0  0  # atno 11005 bound_to 11000
  146.2172  140.5907  142.9033 LP  0  0  0  0  0  0  0  0  0  0  0  0  # atno 17320 bound_to 7965
  144.7732  140.5684  143.6656 LP  0  0  0  0  0  0  0  0  0  0  0  0  # atno 17321 bound_to 7965
  139.4894  144.6386  151.6924 LP  0  0  0  0  0  0  0  0  0  0  0  0  # atno 17342 bound_to 10162
  140.5570  144.0332  150.6152 LP  0  0  0  0  0  0  0  0  0  0  0  0  # atno 17343 bound_to 10162
  157.0522  130.5792  149.5372 LP  0  0  0  0  0  0  0  0  0  0  0  0  # atno 17370 bound_to 10713
  156.0087  130.5177  150.7918 LP  0  0  0  0  0  0  0  0  0  0  0  0  # atno 17371 bound_to 10713
  141.2101  133.7728  156.9951 LP  0  0  0  0  0  0  0  0  0  0  0  0  # atno 17394 bound_to 11000
  140.0998  134.9542  157.1906 LP  0  0  0  0  0  0  0  0  0  0  0  0  # atno 17395 bound_to 11000

$$$$
