AV-unprocessed.smi:66|AV-procd|sdf|621|dock1
  -GOLD-   2262016513D 1   1.00000     0.00000
 Structure written by MMmdl.
 28 30  0  0  0  0  0  0  0  0  2 V2000
  152.9238  139.4936  155.0740 O   0  0  0  0  0  0  0  0  0  0  0  0
  152.0389  138.6602  155.3669 C   0  0  0  0  0  0  0  0  0  0  0  0
  152.1148  137.4266  155.1715 O   0  5  0  0  0  0  0  0  0  0  0  0
  150.7623  139.2133  156.0222 C   0  0  2  0  0  0  0  0  0  0  0  0
  149.5398  139.0741  155.0973 C   0  0  0  0  0  0  0  0  0  0  0  0
  149.4472  140.4378  154.4132 C   0  0  1  0  0  0  0  0  0  0  0  0
  148.1461  140.7247  153.9451 O   0  0  0  0  0  0  0  0  0  0  0  0
  149.8969  141.3986  155.5141 C   0  0  0  0  0  0  0  0  0  0  0  0
  150.8725  140.6469  156.2954 N   0  0  0  0  0  0  0  0  0  0  0  0
  151.3811  141.1694  157.5057 C   0  0  0  0  0  0  0  0  0  0  0  0
  152.2259  140.3976  158.2318 N   0  0  0  0  0  0  0  0  0  0  0  0
  152.7161  140.8874  159.3775 C   0  0  0  0  0  0  0  0  0  0  0  0
  152.4942  142.0787  159.9520 N   0  0  0  0  0  0  0  0  0  0  0  0
  151.6557  142.8563  159.2547 C   0  0  0  0  0  0  0  0  0  0  0  0
  151.2447  144.1327  159.6145 N   0  0  0  0  0  0  0  0  0  0  0  0
  150.4290  144.4511  158.6116 C   0  0  0  0  0  0  0  0  0  0  0  0
  150.2773  143.5264  157.6507 N   0  0  0  0  0  0  0  0  0  0  0  0
  151.0664  142.4483  158.0191 C   0  0  0  0  0  0  0  0  0  0  0  0
  149.6797  143.6132  156.8389 H   0  0  0  0  0  0  0  0  0  0  0  0
  150.5679  138.6646  156.9441 H   0  0  0  0  0  0  0  0  0  0  0  0
  149.6158  138.2515  154.3846 H   0  0  0  0  0  0  0  0  0  0  0  0
  148.6511  138.8983  155.7054 H   0  0  0  0  0  0  0  0  0  0  0  0
  150.1474  140.4781  153.5776 H   0  0  0  0  0  0  0  0  0  0  0  0
  147.5321  140.5294  154.6364 H   0  0  0  0  0  0  0  0  0  0  0  0
  150.3265  142.3112  155.0990 H   0  0  0  0  0  0  0  0  0  0  0  0
  149.0578  141.6721  156.1562 H   0  0  0  0  0  0  0  0  0  0  0  0
  153.3857  140.2312  159.9135 H   0  0  0  0  0  0  0  0  0  0  0  0
  149.9143  145.3999  158.5744 H   0  0  0  0  0  0  0  0  0  0  0  0
  1  2  2  0  0  0  0
  2  3  1  0  0  0  0
  2  4  1  0  0  0  0
  4  9  1  0  0  0  0
  4  5  1  0  0  0  0
  4 20  1  0  0  0  0
  5  6  1  0  0  0  0
  5 21  1  0  0  0  0
  5 22  1  0  0  0  0
  6  7  1  0  0  0  0
  6  8  1  0  0  0  0
  6 23  1  0  0  0  0
  7 24  1  0  0  0  0
  8  9  1  0  0  0  0
  8 25  1  0  0  0  0
  8 26  1  0  0  0  0
  9 10  1  0  0  0  0
 10 18  1  0  0  0  0
 10 11  2  0  0  0  0
 11 12  1  0  0  0  0
 12 13  2  0  0  0  0
 12 27  1  0  0  0  0
 13 14  1  0  0  0  0
 14 18  2  0  0  0  0
 14 15  1  0  0  0  0
 15 16  2  0  0  0  0
 16 17  1  0  0  0  0
 16 28  1  0  0  0  0
 17 19  1  0  0  0  0
 17 18  1  0  0  0  0
M  CHG  1   3  -1
M  END
> <s_m_source_file>
AV-unprocessed.smi

> <i_m_source_file_index>
66

> <i_lp_mmshare_version>
43012

> <i_f3d_flags>
0

> <s_epik_input>
Tz1DKFtPSF0pW0NAQEhdMVtDSDJdW0NAQEhdKFtPSF0pW0NIMl1OMWMobltjSF1uMiljKGMyMylbbkhdW2NIXW4z

> <s_epik_cmdline>
J2VwaWtfcHl0aG9uJywgJy1waCcsICc3LjAnLCAnLXRuJywgJzgnLCAnLW1hJywgJzIwMCcsICctbWV0YWxfYmluZGluZycsICctaW1hZScsICc8aW5maWxlLm1hZT4nLCAnLW9tYWUnLCAnPG91dGZpbGUubWFlPic=

> <r_lp_tautomer_probability>
0.0419193

> <r_epik_Ionization_Penalty>
0.0157405

> <r_epik_Ionization_Penalty_Charging>
0.000248217

> <r_epik_Ionization_Penalty_Neutral>
0.0154923

> <r_epik_State_Penalty>
1.99742

> <r_epik_Charging_Adjusted_Penalty>
1.99767

> <i_epik_Tot_Q>
-1

> <i_epik_Tot_abs_Q>
1

> <r_epik_Metal_State_Penalty>
2.31035

> <b_epik_Metal_Only>
0

> <s_lp_Force_Field>
OPLS_2005

> <r_lp_Energy>
19.7315

> <b_lp_Chiralities_Consistent>
1

> <s_lp_Variant>
AV-unprocessed.smi:66-5

> <Gold.Version>
5.8.1

> <Gold.Id.Protein>
6NUR|6NUR_protein|mol2

> <Gold.PLP.Fitness>
48.6337

> <Gold.PLP.PLP>
-32.6391

> <Gold.PLP.part.hbond>
-4.8352

> <Gold.PLP.part.metal>
0.0000

> <Gold.PLP.part.buried>
-5.9295

> <Gold.PLP.part.nonpolar>
-23.1704

> <Gold.PLP.part.repulsive>
0.1516

> <Gold.PLP.ligand.clash>
0.0000

> <Gold.PLP.ligand.torsion>
0.2149

> <Gold.PLP.Chemscore.Hbond>
4.5616

> <Gold.PLP.Chemscore.CHOScore>
0.8515

> <Gold.PLP.Chemscore.Metal>
0.0000

> <Gold.Chemscore.Hbonds>
donor molecule, donor type, donor heavy atom, donor atom, acceptor molecule, acceptor atom, score
      L1  H    17    19       P1  8028  0.91
      P1  H  7989  7998       L1     1  0.01
      P1  H  7997  8010       L1     1  2.00
      P1  H 10752 10763       L1     3  1.40
      L1  C    16    28       P1  8029  0.95

> <Gold.PLP.Chemscore.Internal.Correction>
0.1852

> <Gold.Rescore>
     Score         DG    S(hbond)    S(metal)    S(lipo)     H(rot)  DE(clash)    DE(int)     intcor
     13.15     -14.14       2.77        0.00      33.86       1.78       0.02       0.97       ----

> <Gold.Chemscore.Fitness>
13.1534

> <Gold.Chemscore.DG>
-14.1419

> <Gold.Chemscore.ZeroCoef>
-5.4800

> <Gold.Chemscore.Hbond>
2.7749

> <Gold.Chemscore.Metal>
0.0000

> <Gold.Chemscore.Lipo>
33.8575

> <Gold.Chemscore.Internal_Hbond>
0.0000

> <Gold.Chemscore.DEClash>
0.0222

> <Gold.Chemscore.DEInternal>
0.9663

> <Gold.Chemscore.Rot>
1.7842

> <Gold.Chemscore.Internal.Correction>
   9.000000E+99

> <Gold.Chemscore.Hbonds>
donor molecule, donor type, donor heavy atom, donor atom, acceptor molecule, acceptor atom, score
      L1  H    17    19       P1  8028  0.89
      P1  H  7989  7998       L1     1  0.01
      P1  H  7997  8010       L1     1  1.00
      P1  H 10752 10763       L1     3  0.68

> <Gold.Chemscore.Hbond.Weighted>
-9.2682

> <Gold.Chemscore.Metal.Weighted>
-0.0000

> <Gold.Chemscore.Lipo.Weighted>
-3.9613

> <Gold.Chemscore.Internal_Hbond.Weighted>
0.0000

> <Gold.Chemscore.DEClash.Weighted>
0.0222

> <Gold.Chemscore.DEInternal.Weighted>
0.9663

> <Gold.Chemscore.Rot.Weighted>
4.5676

> <Gold.Chemscore.Internal.Correction.Weighted>
   9.000000E+99

> <Gold.Protein.RotatedTorsions>
[ 6907 6896 6895 6894 ] final   86.16 input  -60.11 | X-H torsion
[ 7974 7965 7964 7962 ] final   24.25 input  175.53 | X-H torsion
[ 8008 7997 7996 7995 ] final   95.22 input   59.86 | X-H torsion
[ 10167 10162 10161 10158 ] final   81.15 input  -65.29 | X-H torsion
[ 10718 10713 10712 10709 ] final -155.59 input   66.30 | X-H torsion
[ 10763 10752 10751 10750 ] final   60.98 input  -60.55 | X-H torsion
[ 11005 11000 10999 10996 ] final   22.33 input  -57.11 | X-H torsion

> <Gold.Protein.ActiveResidues>
 VAL166  LYS551  ARG553  GLY616  TRP617  ASP618  TYR619  PRO620  LYS621  CYS622 
 ASP623  PHE694  ASN695  SER759  ASP760  ASP761  ALA762  ILE779  LEU786  VAL792 
 PHE793  MET794  SER795  GLU796  ALA797  LYS798  CYS799  TRP800  GLU811  SER814 

> <Gold.Protein.RotatedAtoms>
  152.5389  134.2474  159.8885 H   0  0  0  0  0  0  0  0  0  0  0  0  # atno 6907 bound_to 6896
  151.2439  133.4378  159.2616 H   0  0  0  0  0  0  0  0  0  0  0  0  # atno 6908 bound_to 6896
  151.0601  134.9745  159.8312 H   0  0  0  0  0  0  0  0  0  0  0  0  # atno 6909 bound_to 6896
  146.1946  139.7631  142.8806 H   0  0  0  0  0  0  0  0  0  0  0  0  # atno 7974 bound_to 7965
  156.0666  140.3289  155.7525 H   0  0  0  0  0  0  0  0  0  0  0  0  # atno 8008 bound_to 7997
  155.5372  140.0598  157.2894 H   0  0  0  0  0  0  0  0  0  0  0  0  # atno 8009 bound_to 7997
  154.4508  140.1917  156.0543 H   0  0  0  0  0  0  0  0  0  0  0  0  # atno 8010 bound_to 7997
  139.9423  144.6082  150.8240 H   0  0  0  0  0  0  0  0  0  0  0  0  # atno 10167 bound_to 10162
  156.5149  130.8452  151.2660 H   0  0  0  0  0  0  0  0  0  0  0  0  # atno 10718 bound_to 10713
  152.9937  135.5517  154.5961 H   0  0  0  0  0  0  0  0  0  0  0  0  # atno 10763 bound_to 10752
  154.5312  135.2813  155.1180 H   0  0  0  0  0  0  0  0  0  0  0  0  # atno 10764 bound_to 10752
  154.2495  135.6401  153.5288 H   0  0  0  0  0  0  0  0  0  0  0  0  # atno 10765 bound_to 10752
  140.3817  134.1913  155.7663 H   0  0  0  0  0  0  0  0  0  0  0  0  # atno 11005 bound_to 11000
  145.3684  141.0338  143.3245 LP  0  0  0  0  0  0  0  0  0  0  0  0  # atno 17320 bound_to 7965
  144.8555  139.5257  143.6837 LP  0  0  0  0  0  0  0  0  0  0  0  0  # atno 17321 bound_to 7965
  140.7607  143.3158  151.2737 LP  0  0  0  0  0  0  0  0  0  0  0  0  # atno 17342 bound_to 10162
  139.6695  144.0046  152.2744 LP  0  0  0  0  0  0  0  0  0  0  0  0  # atno 17343 bound_to 10162
  157.7445  130.9937  150.2681 LP  0  0  0  0  0  0  0  0  0  0  0  0  # atno 17370 bound_to 10713
  156.3204  130.3785  149.7580 LP  0  0  0  0  0  0  0  0  0  0  0  0  # atno 17371 bound_to 10713
  141.1921  133.8181  157.0853 LP  0  0  0  0  0  0  0  0  0  0  0  0  # atno 17394 bound_to 11000
  140.0473  134.9824  157.1072 LP  0  0  0  0  0  0  0  0  0  0  0  0  # atno 17395 bound_to 11000

$$$$
