AV-unprocessed.smi:1220|AV-procd|sdf|5115|dock9
  -GOLD-   22720 4173D 1   1.00000     0.00000
 Structure written by MMmdl.
 35 36  0  0  0  0  0  0  0  0  1 V2000
  145.4799  136.9416  152.1792 C   0  0  0  0  0  0  0  0  0  0  0  0
  145.7834  135.4352  152.1258 C   0  0  1  0  0  0  0  0  0  0  0  0
  145.8046  134.8725  150.6867 C   0  0  0  0  0  0  0  0  0  0  0  0
  145.3564  133.4940  150.6095 N   0  0  0  0  0  0  0  0  0  0  0  0
  146.1015  132.3408  150.7383 C   0  0  0  0  0  0  0  0  0  0  0  0
  145.2450  131.2866  150.5990 C   0  0  0  0  0  0  0  0  0  0  0  0
  143.9799  131.9040  150.3910 C   0  0  0  0  0  0  0  0  0  0  0  0
  144.0495  133.2254  150.4007 N   0  0  0  0  0  0  0  0  0  0  0  0
  147.0618  135.1814  152.7841 N   0  0  0  0  0  0  0  0  0  0  0  0
  147.3807  134.0650  153.4580 C   0  0  0  0  0  0  0  0  0  0  0  0
  146.6072  133.1175  153.5999 O   0  0  0  0  0  0  0  0  0  0  0  0
  148.7914  134.0093  154.0573 C   0  0  2  0  0  0  0  0  0  0  0  0
  149.1376  132.6018  154.5887 C   0  0  0  0  0  0  0  0  0  0  0  0
  150.4031  132.7053  155.4450 C   0  0  0  0  0  0  0  0  0  0  0  0
  150.2988  134.3318  156.2784 S   0  0  0  0  0  0  0  0  0  0  0  0
  149.7714  134.1495  157.6390 O   0  0  0  0  0  0  0  0  0  0  0  0
  151.5473  135.0728  156.0429 O   0  0  0  0  0  0  0  0  0  0  0  0
  148.9695  135.0106  155.2140 C   0  0  0  0  0  0  0  0  0  0  0  0
  144.4928  137.1655  151.7739 H   0  0  0  0  0  0  0  0  0  0  0  0
  146.2117  137.5140  151.6084 H   0  0  0  0  0  0  0  0  0  0  0  0
  145.4969  137.3084  153.2060 H   0  0  0  0  0  0  0  0  0  0  0  0
  144.9991  134.9260  152.6892 H   0  0  0  0  0  0  0  0  0  0  0  0
  145.1687  135.4762  150.0377 H   0  0  0  0  0  0  0  0  0  0  0  0
  146.8113  134.9242  150.2691 H   0  0  0  0  0  0  0  0  0  0  0  0
  147.1669  132.3658  150.9142 H   0  0  0  0  0  0  0  0  0  0  0  0
  145.4849  130.2345  150.6411 H   0  0  0  0  0  0  0  0  0  0  0  0
  143.0195  131.4348  150.2358 H   0  0  0  0  0  0  0  0  0  0  0  0
  147.7581  135.9098  152.7193 H   0  0  0  0  0  0  0  0  0  0  0  0
  149.5215  134.2589  153.2851 H   0  0  0  0  0  0  0  0  0  0  0  0
  148.3240  132.2269  155.2121 H   0  0  0  0  0  0  0  0  0  0  0  0
  149.2714  131.8865  153.7764 H   0  0  0  0  0  0  0  0  0  0  0  0
  150.4904  131.9067  156.1819 H   0  0  0  0  0  0  0  0  0  0  0  0
  151.2953  132.7031  154.8182 H   0  0  0  0  0  0  0  0  0  0  0  0
  149.2536  136.0036  154.8654 H   0  0  0  0  0  0  0  0  0  0  0  0
  148.0693  135.1051  155.8232 H   0  0  0  0  0  0  0  0  0  0  0  0
  1  2  1  0  0  0  0
  1 19  1  0  0  0  0
  1 20  1  0  0  0  0
  1 21  1  0  0  0  0
  2  3  1  0  0  0  0
  2  9  1  0  0  0  0
  2 22  1  0  0  0  0
  3  4  1  0  0  0  0
  3 23  1  0  0  0  0
  3 24  1  0  0  0  0
  4  8  1  0  0  0  0
  4  5  1  0  0  0  0
  5  6  2  0  0  0  0
  5 25  1  0  0  0  0
  6  7  1  0  0  0  0
  6 26  1  0  0  0  0
  7  8  2  0  0  0  0
  7 27  1  0  0  0  0
  9 10  1  0  0  0  0
  9 28  1  0  0  0  0
 10 11  2  0  0  0  0
 10 12  1  0  0  0  0
 12 18  1  0  0  0  0
 12 13  1  0  0  0  0
 12 29  1  0  0  0  0
 13 14  1  0  0  0  0
 13 30  1  0  0  0  0
 13 31  1  0  0  0  0
 14 15  1  0  0  0  0
 14 32  1  0  0  0  0
 14 33  1  0  0  0  0
 15 16  2  0  0  0  0
 15 17  2  0  0  0  0
 15 18  1  0  0  0  0
 18 34  1  0  0  0  0
 18 35  1  0  0  0  0
M  END
> <s_m_source_file>
AV-unprocessed.smi

> <i_m_source_file_index>
1220

> <i_lp_mmshare_version>
43012

> <i_f3d_flags>
0

> <s_epik_input>
bjFbY0hdW2NIXVtjSF1uMVtDSDJdW0NAQEhdKFtDSDNdKVtOSF1DKD1PKVtDQEBIXShbQ0gyXTIpW0NIMl1bQ0gyXVMyKD1PKT1P

> <s_epik_cmdline>
J2VwaWtfcHl0aG9uJywgJy1waCcsICc3LjAnLCAnLXRuJywgJzgnLCAnLW1hJywgJzIwMCcsICctbWV0YWxfYmluZGluZycsICctaW1hZScsICc8aW5maWxlLm1hZT4nLCAnLW9tYWUnLCAnPG91dGZpbGUubWFlPic=

> <r_lp_tautomer_probability>
1

> <r_epik_Ionization_Penalty>
0.000293905

> <r_epik_Ionization_Penalty_Charging>
0

> <r_epik_Ionization_Penalty_Neutral>
0.000293905

> <r_epik_State_Penalty>
-0

> <r_epik_Charging_Adjusted_Penalty>
0

> <i_epik_Tot_Q>
0

> <i_epik_Tot_abs_Q>
0

> <r_epik_Metal_State_Penalty>
-0

> <b_epik_Metal_Only>
0

> <s_lp_Force_Field>
OPLS_2005

> <r_lp_Energy>
2.06683

> <b_lp_Chiralities_Consistent>
1

> <s_lp_Variant>
AV-unprocessed.smi:1220-2

> <Gold.Version>
5.8.1

> <Gold.Id.Protein>
6NUR|6NUR_protein|mol2

> <Gold.PLP.Fitness>
40.9975

> <Gold.PLP.PLP>
-29.2303

> <Gold.PLP.part.hbond>
-2.7526

> <Gold.PLP.part.metal>
0.0000

> <Gold.PLP.part.buried>
-2.6315

> <Gold.PLP.part.nonpolar>
-23.6383

> <Gold.PLP.part.repulsive>
0.2914

> <Gold.PLP.ligand.clash>
0.0000

> <Gold.PLP.ligand.torsion>
1.2892

> <Gold.PLP.Chemscore.Hbond>
2.7760

> <Gold.PLP.Chemscore.CHOScore>
2.0000

> <Gold.PLP.Chemscore.Metal>
0.0000

> <Gold.Chemscore.Hbonds>
donor molecule, donor type, donor heavy atom, donor atom, acceptor molecule, acceptor atom, score
      L1  H     9    28       P1  7948  0.66
      P1  H  6896  6908       L1    16  1.00
      P1  H 10752 10764       L1    17  1.00
      L1  C     5    25       P1 10747  1.00
      L1  C     7    27       P1 10952  0.97

> <Gold.PLP.Chemscore.Internal.Correction>
0.0176

> <Gold.Rescore>
     Score         DG    S(hbond)    S(metal)    S(lipo)     H(rot)  DE(clash)    DE(int)     intcor
     16.63     -17.86       2.72        0.00      66.48       1.75       0.08       1.15       ----

> <Gold.Chemscore.Fitness>
16.6292

> <Gold.Chemscore.DG>
-17.8582

> <Gold.Chemscore.ZeroCoef>
-5.4800

> <Gold.Chemscore.Hbond>
2.7155

> <Gold.Chemscore.Metal>
0.0000

> <Gold.Chemscore.Lipo>
66.4786

> <Gold.Chemscore.Internal_Hbond>
0.0000

> <Gold.Chemscore.DEClash>
0.0773

> <Gold.Chemscore.DEInternal>
1.1517

> <Gold.Chemscore.Rot>
1.7460

> <Gold.Chemscore.Internal.Correction>
   9.000000E+99

> <Gold.Chemscore.Hbonds>
donor molecule, donor type, donor heavy atom, donor atom, acceptor molecule, acceptor atom, score
      L1  H     9    28       P1  7948  0.64
      P1  H  6896  6908       L1    16  0.95
      P1  H 10752 10764       L1    17  0.95

> <Gold.Chemscore.Hbond.Weighted>
-9.0699

> <Gold.Chemscore.Metal.Weighted>
-0.0000

> <Gold.Chemscore.Lipo.Weighted>
-7.7780

> <Gold.Chemscore.Internal_Hbond.Weighted>
0.0000

> <Gold.Chemscore.DEClash.Weighted>
0.0773

> <Gold.Chemscore.DEInternal.Weighted>
1.1517

> <Gold.Chemscore.Rot.Weighted>
4.4697

> <Gold.Chemscore.Internal.Correction.Weighted>
   9.000000E+99

> <Gold.Protein.RotatedTorsions>
[ 6907 6896 6895 6894 ] final  122.14 input  -60.11 | X-H torsion
[ 7974 7965 7964 7962 ] final   35.63 input  175.53 | X-H torsion
[ 8008 7997 7996 7995 ] final -152.98 input   59.86 | X-H torsion
[ 10167 10162 10161 10158 ] final  -59.48 input  -65.29 | X-H torsion
[ 10718 10713 10712 10709 ] final -169.35 input   66.30 | X-H torsion
[ 10763 10752 10751 10750 ] final  -32.02 input  -60.55 | X-H torsion
[ 11005 11000 10999 10996 ] final  -77.41 input  -57.11 | X-H torsion

> <Gold.Protein.ActiveResidues>
 VAL166  LYS551  ARG553  GLY616  TRP617  ASP618  TYR619  PRO620  LYS621  CYS622 
 ASP623  PHE694  ASN695  SER759  ASP760  ASP761  ALA762  ILE779  LEU786  VAL792 
 PHE793  MET794  SER795  GLU796  ALA797  LYS798  CYS799  TRP800  GLU811  SER814 

> <Gold.Protein.RotatedAtoms>
  152.4266  133.7206  159.6530 H   0  0  0  0  0  0  0  0  0  0  0  0  # atno 6907 bound_to 6896
  150.8143  133.8355  159.3174 H   0  0  0  0  0  0  0  0  0  0  0  0  # atno 6908 bound_to 6896
  151.6056  135.1046  160.0121 H   0  0  0  0  0  0  0  0  0  0  0  0  # atno 6909 bound_to 6896
  146.1269  139.6118  142.9252 H   0  0  0  0  0  0  0  0  0  0  0  0  # atno 7974 bound_to 7965
  155.6637  140.0725  157.2545 H   0  0  0  0  0  0  0  0  0  0  0  0  # atno 8008 bound_to 7997
  154.4137  140.1711  156.1854 H   0  0  0  0  0  0  0  0  0  0  0  0  # atno 8009 bound_to 7997
  155.9676  140.3364  155.6549 H   0  0  0  0  0  0  0  0  0  0  0  0  # atno 8010 bound_to 7997
  140.6132  143.2394  151.5660 H   0  0  0  0  0  0  0  0  0  0  0  0  # atno 10167 bound_to 10162
  156.7102  130.9230  151.3088 H   0  0  0  0  0  0  0  0  0  0  0  0  # atno 10718 bound_to 10713
  153.8070  135.6885  153.4847 H   0  0  0  0  0  0  0  0  0  0  0  0  # atno 10763 bound_to 10752
  153.1652  135.4564  154.9826 H   0  0  0  0  0  0  0  0  0  0  0  0  # atno 10764 bound_to 10752
  154.7983  135.3328  154.7554 H   0  0  0  0  0  0  0  0  0  0  0  0  # atno 10765 bound_to 10752
  141.1660  133.7021  156.7816 H   0  0  0  0  0  0  0  0  0  0  0  0  # atno 11005 bound_to 11000
  145.5346  141.0425  143.2364 LP  0  0  0  0  0  0  0  0  0  0  0  0  # atno 17320 bound_to 7965
  144.7651  139.6864  143.7218 LP  0  0  0  0  0  0  0  0  0  0  0  0  # atno 17321 bound_to 7965
  139.5377  144.2733  152.1287 LP  0  0  0  0  0  0  0  0  0  0  0  0  # atno 17342 bound_to 10162
  140.1937  144.4727  150.6466 LP  0  0  0  0  0  0  0  0  0  0  0  0  # atno 17343 bound_to 10162
  157.6939  130.9261  150.0590 LP  0  0  0  0  0  0  0  0  0  0  0  0  # atno 17370 bound_to 10713
  156.1666  130.3645  149.9223 LP  0  0  0  0  0  0  0  0  0  0  0  0  # atno 17371 bound_to 10713
  140.2390  134.8628  157.3554 LP  0  0  0  0  0  0  0  0  0  0  0  0  # atno 17394 bound_to 11000
  140.1815  134.4484  155.7769 LP  0  0  0  0  0  0  0  0  0  0  0  0  # atno 17395 bound_to 11000

$$$$
