AV-unprocessed.smi:2750|AV-procd|sdf|10590|dock5
  -GOLD-   2272015 43D 1   1.00000     0.00000
 Structure written by MMmdl.
 25 26  0  0  0  0  0  0  0  0  2 V2000
  153.1356  136.0372  157.2565 O   0  0  0  0  0  0  0  0  0  0  0  0
  153.0300  136.9012  158.1546 C   0  0  0  0  0  0  0  0  0  0  0  0
  152.8580  136.6637  159.3711 O   0  5  0  0  0  0  0  0  0  0  0  0
  153.1470  138.3663  157.7228 C   0  0  0  0  0  0  0  0  0  0  0  0
  152.3747  138.6758  156.5312 N   0  0  0  0  0  0  0  0  0  0  0  0
  151.1012  138.2608  156.1989 C   0  0  0  0  0  0  0  0  0  0  0  0
  150.8822  138.8467  154.9850 C   0  0  0  0  0  0  0  0  0  0  0  0
  149.6673  138.7774  154.1080 C   0  0  0  0  0  0  0  0  0  0  0  0
  148.5816  139.8008  154.4992 C   0  0  1  0  0  0  0  0  0  0  0  0
  148.3737  139.8956  155.9347 N   0  0  0  0  0  0  0  0  0  0  0  0
  148.5992  141.1299  156.4045 C   0  0  0  0  0  0  0  0  0  0  0  0
  148.4979  141.4867  157.5759 O   0  0  0  0  0  0  0  0  0  0  0  0
  148.9561  141.9046  155.3743 N   0  0  0  0  0  0  0  0  0  0  0  0
  148.9919  141.2358  154.2230 C   0  0  0  0  0  0  0  0  0  0  0  0
  149.3003  141.6792  153.1184 O   0  0  0  0  0  0  0  0  0  0  0  0
  152.0126  139.5853  154.6347 N   0  0  0  0  0  0  0  0  0  0  0  0
  152.9031  139.4711  155.5697 N   0  0  0  0  0  0  0  0  0  0  0  0
  152.7995  139.0029  158.5369 H   0  0  0  0  0  0  0  0  0  0  0  0
  154.1929  138.6221  157.5446 H   0  0  0  0  0  0  0  0  0  0  0  0
  150.5007  137.6162  156.8232 H   0  0  0  0  0  0  0  0  0  0  0  0
  149.9584  138.9249  153.0666 H   0  0  0  0  0  0  0  0  0  0  0  0
  149.2447  137.7729  154.1545 H   0  0  0  0  0  0  0  0  0  0  0  0
  147.6354  139.5806  154.0033 H   0  0  0  0  0  0  0  0  0  0  0  0
  148.1016  139.1060  156.5025 H   0  0  0  0  0  0  0  0  0  0  0  0
  149.1856  142.8839  155.4623 H   0  0  0  0  0  0  0  0  0  0  0  0
  1  2  2  0  0  0  0
  2  3  1  0  0  0  0
  2  4  1  0  0  0  0
  4  5  1  0  0  0  0
  4 18  1  0  0  0  0
  4 19  1  0  0  0  0
  5 17  1  0  0  0  0
  5  6  1  0  0  0  0
  6  7  2  0  0  0  0
  6 20  1  0  0  0  0
  7  8  1  0  0  0  0
  7 16  1  0  0  0  0
  8  9  1  0  0  0  0
  8 21  1  0  0  0  0
  8 22  1  0  0  0  0
  9 14  1  0  0  0  0
  9 10  1  0  0  0  0
  9 23  1  0  0  0  0
 10 11  1  0  0  0  0
 10 24  1  0  0  0  0
 11 12  2  0  0  0  0
 11 13  1  0  0  0  0
 13 14  1  0  0  0  0
 13 25  1  0  0  0  0
 14 15  2  0  0  0  0
 16 17  2  0  0  0  0
M  CHG  1   3  -1
M  END
> <s_m_source_file>
AV-unprocessed.smi

> <i_m_source_file_index>
2750

> <i_lp_mmshare_version>
43012

> <i_f3d_flags>
0

> <s_epik_input>
Tz1DKFtPSF0pW0NIMl1uMVtjSF1jKG5uMSlbQ0gyXVtDQEBIXTJbTkhdQyg9TylbTkhdQzI9Tw==

> <s_epik_cmdline>
J2VwaWtfcHl0aG9uJywgJy1waCcsICc3LjAnLCAnLXRuJywgJzgnLCAnLW1hJywgJzIwMCcsICctbWV0YWxfYmluZGluZycsICctaW1hZScsICc8aW5maWxlLm1hZT4nLCAnLW9tYWUnLCAnPG91dGZpbGUubWFlPic=

> <r_lp_tautomer_probability>
1

> <r_epik_Ionization_Penalty>
0.019671

> <r_epik_Ionization_Penalty_Charging>
2.66176e-05

> <r_epik_Ionization_Penalty_Neutral>
0.0196444

> <r_epik_State_Penalty>
0.0155882

> <r_epik_Charging_Adjusted_Penalty>
0.0156148

> <i_epik_Tot_Q>
-1

> <i_epik_Tot_abs_Q>
1

> <r_epik_Metal_State_Penalty>
0.396229

> <b_epik_Metal_Only>
0

> <s_lp_Force_Field>
OPLS_2005

> <r_lp_Energy>
18.3652

> <b_lp_Chiralities_Consistent>
1

> <s_lp_Variant>
AV-unprocessed.smi:2750-2

> <Gold.Version>
5.8.1

> <Gold.Id.Protein>
6NUR|6NUR_protein|mol2

> <Gold.PLP.Fitness>
41.0722

> <Gold.PLP.PLP>
-19.9803

> <Gold.PLP.part.hbond>
-6.8666

> <Gold.PLP.part.metal>
0.0000

> <Gold.PLP.part.buried>
-3.9455

> <Gold.PLP.part.nonpolar>
-10.1897

> <Gold.PLP.part.repulsive>
0.8016

> <Gold.PLP.ligand.clash>
0.0000

> <Gold.PLP.ligand.torsion>
0.8661

> <Gold.PLP.Chemscore.Hbond>
7.6000

> <Gold.PLP.Chemscore.CHOScore>
0.0000

> <Gold.PLP.Chemscore.Metal>
0.0000

> <Gold.Chemscore.Hbonds>
donor molecule, donor type, donor heavy atom, donor atom, acceptor molecule, acceptor atom, score
      L1  H    13    25       P1  8028  1.00
      P1  H  6896  6907       L1     3  2.00
      P1  H  7989  7998       L1    16  0.90
      P1  H  7997  8010       L1    17  1.00
      P1  H  8011  8017       L1    15  0.12
      P1  H 10752 10763       L1     1  1.82

> <Gold.PLP.Chemscore.Internal.Correction>
0.0241

> <Gold.Rescore>
     Score         DG    S(hbond)    S(metal)    S(lipo)     H(rot)  DE(clash)    DE(int)     intcor
     17.91     -18.83       5.27        0.00      25.65       2.84       0.00       0.91       ----

> <Gold.Chemscore.Fitness>
17.9114

> <Gold.Chemscore.DG>
-18.8265

> <Gold.Chemscore.ZeroCoef>
-5.4800

> <Gold.Chemscore.Hbond>
5.2707

> <Gold.Chemscore.Metal>
0.0000

> <Gold.Chemscore.Lipo>
25.6497

> <Gold.Chemscore.Internal_Hbond>
0.0000

> <Gold.Chemscore.DEClash>
0.0015

> <Gold.Chemscore.DEInternal>
0.9136

> <Gold.Chemscore.Rot>
2.8354

> <Gold.Chemscore.Internal.Correction>
   9.000000E+99

> <Gold.Chemscore.Hbonds>
donor molecule, donor type, donor heavy atom, donor atom, acceptor molecule, acceptor atom, score
      L1  H    13    25       P1  8028  0.99
      P1  H  6896  6907       L1     3  0.94
      P1  H  7989  7998       L1    16  0.75
      P1  H  7997  8010       L1    17  0.74
      P1  H  8011  8017       L1    15  0.14
      P1  H 10752 10763       L1     1  0.87

> <Gold.Chemscore.Hbond.Weighted>
-17.6040

> <Gold.Chemscore.Metal.Weighted>
-0.0000

> <Gold.Chemscore.Lipo.Weighted>
-3.0010

> <Gold.Chemscore.Internal_Hbond.Weighted>
0.0000

> <Gold.Chemscore.DEClash.Weighted>
0.0015

> <Gold.Chemscore.DEInternal.Weighted>
0.9136

> <Gold.Chemscore.Rot.Weighted>
7.2586

> <Gold.Chemscore.Internal.Correction.Weighted>
   9.000000E+99

> <Gold.Protein.RotatedTorsions>
[ 6907 6896 6895 6894 ] final   38.28 input  -60.11 | X-H torsion
[ 7974 7965 7964 7962 ] final   88.87 input  175.53 | X-H torsion
[ 8008 7997 7996 7995 ] final   90.18 input   59.86 | X-H torsion
[ 10167 10162 10161 10158 ] final -103.79 input  -65.29 | X-H torsion
[ 10718 10713 10712 10709 ] final    5.17 input   66.30 | X-H torsion
[ 10763 10752 10751 10750 ] final  115.90 input  -60.55 | X-H torsion
[ 11005 11000 10999 10996 ] final -121.14 input  -57.11 | X-H torsion

> <Gold.Protein.ActiveResidues>
 VAL166  LYS551  ARG553  GLY616  TRP617  ASP618  TYR619  PRO620  LYS621  CYS622 
 ASP623  PHE694  ASN695  SER759  ASP760  ASP761  ALA762  ILE779  LEU786  VAL792 
 PHE793  MET794  SER795  GLU796  ALA797  LYS798  CYS799  TRP800  GLU811  SER814 

> <Gold.Protein.RotatedAtoms>
  152.1543  134.8963  160.0545 H   0  0  0  0  0  0  0  0  0  0  0  0  # atno 6907 bound_to 6896
  151.9983  133.3811  159.4180 H   0  0  0  0  0  0  0  0  0  0  0  0  # atno 6908 bound_to 6896
  150.6879  134.3784  159.5067 H   0  0  0  0  0  0  0  0  0  0  0  0  # atno 6909 bound_to 6896
  145.5399  139.2288  143.2571 H   0  0  0  0  0  0  0  0  0  0  0  0  # atno 7974 bound_to 7965
  156.0089  140.3352  155.6920 H   0  0  0  0  0  0  0  0  0  0  0  0  # atno 8008 bound_to 7997
  155.6186  140.0672  157.2703 H   0  0  0  0  0  0  0  0  0  0  0  0  # atno 8009 bound_to 7997
  154.4274  140.1780  156.1335 H   0  0  0  0  0  0  0  0  0  0  0  0  # atno 8010 bound_to 7997
  140.2162  143.3710  152.1009 H   0  0  0  0  0  0  0  0  0  0  0  0  # atno 10167 bound_to 10162
  156.9034  130.5730  149.5648 H   0  0  0  0  0  0  0  0  0  0  0  0  # atno 10718 bound_to 10713
  153.5292  135.3582  155.2668 H   0  0  0  0  0  0  0  0  0  0  0  0  # atno 10763 bound_to 10752
  154.8728  135.4064  154.3171 H   0  0  0  0  0  0  0  0  0  0  0  0  # atno 10764 bound_to 10752
  153.3856  135.7070  153.6600 H   0  0  0  0  0  0  0  0  0  0  0  0  # atno 10765 bound_to 10752
  141.0092  134.0290  157.3437 H   0  0  0  0  0  0  0  0  0  0  0  0  # atno 11005 bound_to 11000
  146.1988  140.6219  142.9112 LP  0  0  0  0  0  0  0  0  0  0  0  0  # atno 17320 bound_to 7965
  144.7582  140.5359  143.6754 LP  0  0  0  0  0  0  0  0  0  0  0  0  # atno 17321 bound_to 7965
  139.5161  144.6973  151.5595 LP  0  0  0  0  0  0  0  0  0  0  0  0  # atno 17342 bound_to 10162
  140.6288  143.9116  150.6587 LP  0  0  0  0  0  0  0  0  0  0  0  0  # atno 17343 bound_to 10162
  156.0571  130.5630  150.9114 LP  0  0  0  0  0  0  0  0  0  0  0  0  # atno 17370 bound_to 10713
  157.6012  131.0941  150.8957 LP  0  0  0  0  0  0  0  0  0  0  0  0  # atno 17371 bound_to 10713
  139.9080  135.0184  156.7570 LP  0  0  0  0  0  0  0  0  0  0  0  0  # atno 17394 bound_to 11000
  140.6762  133.9515  155.7884 LP  0  0  0  0  0  0  0  0  0  0  0  0  # atno 17395 bound_to 11000

$$$$
