AV-unprocessed.smi:2728|AV-procd|sdf|10525|dock7
  -GOLD-   2272014573D 1   1.00000     0.00000
 Structure written by MMmdl.
 34 35  0  0  0  0  0  0  0  0  1 V2000
  150.6169  140.5591  156.5679 O   0  0  0  0  0  0  0  0  0  0  0  0
  150.2031  141.7077  156.4063 C   0  0  0  0  0  0  0  0  0  0  0  0
  149.4683  142.0863  155.3502 N   0  0  0  0  0  0  0  0  0  0  0  0
  149.0518  141.2084  154.2629 C   0  0  0  0  0  0  0  0  0  0  0  0
  147.5609  140.8459  154.3692 C   0  0  0  0  0  0  0  0  0  0  0  0
  147.1123  139.9005  153.2721 C   0  0  0  0  0  0  0  0  0  0  0  0
  147.1432  140.1350  151.9610 C   0  0  0  0  0  0  0  0  0  0  0  0
  146.6421  138.9708  151.1514 C   0  0  0  0  0  0  0  0  0  0  0  0
  146.2660  137.9117  152.2116 C   0  0  0  0  0  0  0  0  0  0  0  0
  146.5885  138.5242  153.5933 C   0  0  0  0  0  0  0  0  0  0  0  0
  150.4181  142.7378  157.2439 N   0  0  0  0  0  0  0  0  0  0  0  0
  151.1280  142.7360  158.4743 C   0  0  0  0  0  0  0  0  0  0  0  0
  151.0929  143.9562  159.1871 C   0  0  0  0  0  0  0  0  0  0  0  0
  151.7629  144.0573  160.4221 C   0  0  0  0  0  0  0  0  0  0  0  0
  152.4516  142.9331  160.9111 C   0  0  0  0  0  0  0  0  0  0  0  0
  153.1097  142.9822  162.0936 F   0  0  0  0  0  0  0  0  0  0  0  0
  152.4391  141.7563  160.1399 C   0  0  0  0  0  0  0  0  0  0  0  0
  151.7970  141.6582  158.9562 N   0  0  0  0  0  0  0  0  0  0  0  0
  149.1708  143.0494  155.2958 H   0  0  0  0  0  0  0  0  0  0  0  0
  149.2707  141.6772  153.3020 H   0  0  0  0  0  0  0  0  0  0  0  0
  149.6570  140.3027  154.3114 H   0  0  0  0  0  0  0  0  0  0  0  0
  147.3636  140.3807  155.3361 H   0  0  0  0  0  0  0  0  0  0  0  0
  146.9450  141.7449  154.3228 H   0  0  0  0  0  0  0  0  0  0  0  0
  147.4887  141.0479  151.4986 H   0  0  0  0  0  0  0  0  0  0  0  0
  145.7807  139.2689  150.5532 H   0  0  0  0  0  0  0  0  0  0  0  0
  147.4251  138.6129  150.4826 H   0  0  0  0  0  0  0  0  0  0  0  0
  145.2074  137.6594  152.1419 H   0  0  0  0  0  0  0  0  0  0  0  0
  146.8287  136.9908  152.0554 H   0  0  0  0  0  0  0  0  0  0  0  0
  147.3471  137.9467  154.1224 H   0  0  0  0  0  0  0  0  0  0  0  0
  145.6982  138.5849  154.2198 H   0  0  0  0  0  0  0  0  0  0  0  0
  150.0191  143.6247  156.9746 H   0  0  0  0  0  0  0  0  0  0  0  0
  150.5574  144.8093  158.7963 H   0  0  0  0  0  0  0  0  0  0  0  0
  151.7474  144.9802  160.9827 H   0  0  0  0  0  0  0  0  0  0  0  0
  152.9560  140.8715  160.4806 H   0  0  0  0  0  0  0  0  0  0  0  0
  1  2  2  0  0  0  0
  2  3  1  0  0  0  0
  2 11  1  0  0  0  0
  3  4  1  0  0  0  0
  3 19  1  0  0  0  0
  4  5  1  0  0  0  0
  4 20  1  0  0  0  0
  4 21  1  0  0  0  0
  5  6  1  0  0  0  0
  5 22  1  0  0  0  0
  5 23  1  0  0  0  0
  6 10  1  0  0  0  0
  6  7  2  0  0  0  0
  7  8  1  0  0  0  0
  7 24  1  0  0  0  0
  8  9  1  0  0  0  0
  8 25  1  0  0  0  0
  8 26  1  0  0  0  0
  9 10  1  0  0  0  0
  9 27  1  0  0  0  0
  9 28  1  0  0  0  0
 10 29  1  0  0  0  0
 10 30  1  0  0  0  0
 11 12  1  0  0  0  0
 11 31  1  0  0  0  0
 12 18  1  0  0  0  0
 12 13  2  0  0  0  0
 13 14  1  0  0  0  0
 13 32  1  0  0  0  0
 14 15  2  0  0  0  0
 14 33  1  0  0  0  0
 15 16  1  0  0  0  0
 15 17  1  0  0  0  0
 17 18  2  0  0  0  0
 17 34  1  0  0  0  0
M  END
> <s_m_source_file>
AV-unprocessed.smi

> <i_m_source_file_index>
2728

> <i_lp_mmshare_version>
43012

> <i_f3d_flags>
0

> <s_epik_input>
bjFbY0hdYyhGKVtjSF1bY0hdYzFbTkhdQyg9TylbTkhdW0NIMl1bQ0gyXUMyPVtDSF1bQ0gyXVtDSDJdW0NIMl0y

> <s_epik_cmdline>
J2VwaWtfcHl0aG9uJywgJy1waCcsICc3LjAnLCAnLXRuJywgJzgnLCAnLW1hJywgJzIwMCcsICctbWV0YWxfYmluZGluZycsICctaW1hZScsICc8aW5maWxlLm1hZT4nLCAnLW9tYWUnLCAnPG91dGZpbGUubWFlPic=

> <r_lp_tautomer_probability>
1

> <r_epik_Ionization_Penalty>
3.75783e-05

> <r_epik_Ionization_Penalty_Charging>
0

> <r_epik_Ionization_Penalty_Neutral>
3.75783e-05

> <r_epik_State_Penalty>
-0

> <r_epik_Charging_Adjusted_Penalty>
0

> <i_epik_Tot_Q>
0

> <i_epik_Tot_abs_Q>
0

> <r_epik_Metal_State_Penalty>
-0

> <b_epik_Metal_Only>
0

> <s_lp_Force_Field>
OPLS_2005

> <r_lp_Energy>
20.4042

> <b_lp_Chiralities_Consistent>
1

> <s_lp_Variant>
AV-unprocessed.smi:2728-1

> <Gold.Version>
5.8.1

> <Gold.Id.Protein>
6NUR|6NUR_protein|mol2

> <Gold.PLP.Fitness>
44.0099

> <Gold.PLP.PLP>
-38.2603

> <Gold.PLP.part.hbond>
-2.0000

> <Gold.PLP.part.metal>
0.0000

> <Gold.PLP.part.buried>
1.3038

> <Gold.PLP.part.nonpolar>
-37.2299

> <Gold.PLP.part.repulsive>
0.2179

> <Gold.PLP.ligand.clash>
0.0000

> <Gold.PLP.ligand.torsion>
0.1021

> <Gold.PLP.Chemscore.Hbond>
1.9833

> <Gold.PLP.Chemscore.CHOScore>
0.0000

> <Gold.PLP.Chemscore.Metal>
0.0000

> <Gold.Chemscore.Hbonds>
donor molecule, donor type, donor heavy atom, donor atom, acceptor molecule, acceptor atom, score
      L1  H     3    19       P1  8028  1.00
      L1  H    11    31       P1  8028  0.98

> <Gold.PLP.Chemscore.Internal.Correction>
0.0039

> <Gold.Rescore>
     Score         DG    S(hbond)    S(metal)    S(lipo)     H(rot)  DE(clash)    DE(int)     intcor
     16.22     -19.94       1.97        0.00      99.88       1.48       2.31       1.41       ----

> <Gold.Chemscore.Fitness>
16.2167

> <Gold.Chemscore.DG>
-19.9392

> <Gold.Chemscore.ZeroCoef>
-5.4800

> <Gold.Chemscore.Hbond>
1.9661

> <Gold.Chemscore.Metal>
0.0000

> <Gold.Chemscore.Lipo>
99.8784

> <Gold.Chemscore.Internal_Hbond>
0.0000

> <Gold.Chemscore.DEClash>
2.3117

> <Gold.Chemscore.DEInternal>
1.4107

> <Gold.Chemscore.Rot>
1.4818

> <Gold.Chemscore.Internal.Correction>
   9.000000E+99

> <Gold.Chemscore.Hbonds>
donor molecule, donor type, donor heavy atom, donor atom, acceptor molecule, acceptor atom, score
      L1  H     3    19       P1  8028  1.00
      L1  H    11    31       P1  8028  0.86

> <Gold.Chemscore.Hbond.Weighted>
-6.5667

> <Gold.Chemscore.Metal.Weighted>
-0.0000

> <Gold.Chemscore.Lipo.Weighted>
-11.6858

> <Gold.Chemscore.Internal_Hbond.Weighted>
0.0000

> <Gold.Chemscore.DEClash.Weighted>
2.3117

> <Gold.Chemscore.DEInternal.Weighted>
1.4107

> <Gold.Chemscore.Rot.Weighted>
3.7933

> <Gold.Chemscore.Internal.Correction.Weighted>
   9.000000E+99

> <Gold.Protein.RotatedTorsions>
[ 6907 6896 6895 6894 ] final   41.84 input  -60.11 | X-H torsion
[ 7974 7965 7964 7962 ] final -134.39 input  175.53 | X-H torsion
[ 8008 7997 7996 7995 ] final   79.11 input   59.86 | X-H torsion
[ 10167 10162 10161 10158 ] final   80.41 input  -65.29 | X-H torsion
[ 10718 10713 10712 10709 ] final   73.50 input   66.30 | X-H torsion
[ 10763 10752 10751 10750 ] final -162.37 input  -60.55 | X-H torsion
[ 11005 11000 10999 10996 ] final -156.31 input  -57.11 | X-H torsion

> <Gold.Protein.ActiveResidues>
 VAL166  LYS551  ARG553  GLY616  TRP617  ASP618  TYR619  PRO620  LYS621  CYS622 
 ASP623  PHE694  ASN695  SER759  ASP760  ASP761  ALA762  ILE779  LEU786  VAL792 
 PHE793  MET794  SER795  GLU796  ALA797  LYS798  CYS799  TRP800  GLU811  SER814 

> <Gold.Protein.RotatedAtoms>
  152.2004  134.8593  160.0508 H   0  0  0  0  0  0  0  0  0  0  0  0  # atno 6907 bound_to 6896
  151.9449  133.3643  159.3987 H   0  0  0  0  0  0  0  0  0  0  0  0  # atno 6908 bound_to 6896
  150.6953  134.4325  159.5299 H   0  0  0  0  0  0  0  0  0  0  0  0  # atno 6909 bound_to 6896
  144.9107  140.6892  143.5026 H   0  0  0  0  0  0  0  0  0  0  0  0  # atno 7974 bound_to 7965
  155.8651  140.3452  155.5783 H   0  0  0  0  0  0  0  0  0  0  0  0  # atno 8008 bound_to 7997
  155.7890  140.0869  157.2038 H   0  0  0  0  0  0  0  0  0  0  0  0  # atno 8009 bound_to 7997
  154.4014  140.1486  156.3128 H   0  0  0  0  0  0  0  0  0  0  0  0  # atno 8010 bound_to 7997
  139.9500  144.6032  150.8170 H   0  0  0  0  0  0  0  0  0  0  0  0  # atno 10167 bound_to 10162
  157.6550  130.9631  150.1078 H   0  0  0  0  0  0  0  0  0  0  0  0  # atno 10718 bound_to 10713
  154.7220  135.3028  154.9032 H   0  0  0  0  0  0  0  0  0  0  0  0  # atno 10763 bound_to 10752
  153.9901  135.6720  153.4758 H   0  0  0  0  0  0  0  0  0  0  0  0  # atno 10764 bound_to 10752
  153.0842  135.4993  154.8482 H   0  0  0  0  0  0  0  0  0  0  0  0  # atno 10765 bound_to 10752
  140.6770  134.4186  157.5229 H   0  0  0  0  0  0  0  0  0  0  0  0  # atno 11005 bound_to 11000
  145.3458  139.1719  143.4461 LP  0  0  0  0  0  0  0  0  0  0  0  0  # atno 17320 bound_to 7965
  146.3157  140.3505  142.8656 LP  0  0  0  0  0  0  0  0  0  0  0  0  # atno 17321 bound_to 7965
  140.7586  143.3110  151.2846 LP  0  0  0  0  0  0  0  0  0  0  0  0  # atno 17342 bound_to 10162
  139.6636  144.0145  152.2708 LP  0  0  0  0  0  0  0  0  0  0  0  0  # atno 17343 bound_to 10162
  156.1983  130.3658  149.8821 LP  0  0  0  0  0  0  0  0  0  0  0  0  # atno 17370 bound_to 10713
  156.6731  130.8828  151.3565 LP  0  0  0  0  0  0  0  0  0  0  0  0  # atno 17371 bound_to 10713
  139.8963  134.8662  156.2091 LP  0  0  0  0  0  0  0  0  0  0  0  0  # atno 17394 bound_to 11000
  141.0347  133.6969  156.1492 LP  0  0  0  0  0  0  0  0  0  0  0  0  # atno 17395 bound_to 11000

$$$$
