AV-unprocessed.smi:568|AV-procd|sdf|2958|dock8
  -GOLD-   2262023463D 1   1.00000     0.00000
 Structure written by MMmdl.
 35 36  0  0  0  0  0  0  0  0  1 V2000
  149.0638  135.9462  155.3208 C   0  0  0  0  0  0  0  0  0  0  0  0
  149.6659  134.6841  155.8686 C   0  0  0  0  0  0  0  0  0  0  0  0
  150.0837  134.6605  157.1230 N   0  0  0  0  0  0  0  0  0  0  0  0
  150.5843  133.3730  157.3365 O   0  0  0  0  0  0  0  0  0  0  0  0
  150.4479  132.6629  156.1884 C   0  0  0  0  0  0  0  0  0  0  0  0
  150.9283  131.2517  156.2213 C   0  0  0  0  0  0  0  0  0  0  0  0
  149.8737  133.4345  155.2150 C   0  0  0  0  0  0  0  0  0  0  0  0
  149.5353  133.0624  153.7942 C   0  0  0  0  0  0  0  0  0  0  0  0
  148.0168  132.9868  153.6330 C   0  0  0  0  0  0  0  0  0  0  0  0
  147.3832  132.0930  154.1940 O   0  0  0  0  0  0  0  0  0  0  0  0
  147.4487  133.9261  152.8606 N   0  0  0  0  0  0  0  0  0  0  0  0
  146.0245  134.0284  152.5578 C   0  0  0  0  0  0  0  0  0  0  0  0
  145.7241  133.7139  151.0799 C   0  0  1  0  0  0  0  0  0  0  0  0
  146.1656  132.3308  150.6468 C   0  0  0  0  0  0  0  0  0  0  0  0
  145.3632  132.1240  149.3650 C   0  0  0  0  0  0  0  0  0  0  0  0
  144.1673  132.8824  149.5236 O   0  0  0  0  0  0  0  0  0  0  0  0
  144.2404  133.6652  150.7109 C   0  0  0  0  0  0  0  0  0  0  0  0
  148.5288  135.7624  154.3893 H   0  0  0  0  0  0  0  0  0  0  0  0
  149.8342  136.6905  155.1190 H   0  0  0  0  0  0  0  0  0  0  0  0
  148.3543  136.3825  156.0242 H   0  0  0  0  0  0  0  0  0  0  0  0
  150.6003  130.7036  155.3382 H   0  0  0  0  0  0  0  0  0  0  0  0
  150.5441  130.7332  157.0999 H   0  0  0  0  0  0  0  0  0  0  0  0
  152.0171  131.2160  156.2560 H   0  0  0  0  0  0  0  0  0  0  0  0
  149.9278  133.7944  153.0878 H   0  0  0  0  0  0  0  0  0  0  0  0
  149.9830  132.1082  153.5137 H   0  0  0  0  0  0  0  0  0  0  0  0
  148.0519  134.6194  152.4423 H   0  0  0  0  0  0  0  0  0  0  0  0
  145.5027  133.3127  153.1934 H   0  0  0  0  0  0  0  0  0  0  0  0
  145.6391  135.0124  152.8302 H   0  0  0  0  0  0  0  0  0  0  0  0
  146.2202  134.4491  150.4438 H   0  0  0  0  0  0  0  0  0  0  0  0
  147.2417  132.2527  150.4897 H   0  0  0  0  0  0  0  0  0  0  0  0
  145.8748  131.5882  151.3915 H   0  0  0  0  0  0  0  0  0  0  0  0
  145.9095  132.5151  148.5058 H   0  0  0  0  0  0  0  0  0  0  0  0
  145.1456  131.0724  149.1773 H   0  0  0  0  0  0  0  0  0  0  0  0
  143.6652  133.1621  151.4896 H   0  0  0  0  0  0  0  0  0  0  0  0
  143.8116  134.6562  150.5600 H   0  0  0  0  0  0  0  0  0  0  0  0
  1  2  1  0  0  0  0
  1 18  1  0  0  0  0
  1 19  1  0  0  0  0
  1 20  1  0  0  0  0
  2  7  1  0  0  0  0
  2  3  2  0  0  0  0
  3  4  1  0  0  0  0
  4  5  1  0  0  0  0
  5  6  1  0  0  0  0
  5  7  2  0  0  0  0
  6 21  1  0  0  0  0
  6 22  1  0  0  0  0
  6 23  1  0  0  0  0
  7  8  1  0  0  0  0
  8  9  1  0  0  0  0
  8 24  1  0  0  0  0
  8 25  1  0  0  0  0
  9 10  2  0  0  0  0
  9 11  1  0  0  0  0
 11 12  1  0  0  0  0
 11 26  1  0  0  0  0
 12 13  1  0  0  0  0
 12 27  1  0  0  0  0
 12 28  1  0  0  0  0
 13 17  1  0  0  0  0
 13 14  1  0  0  0  0
 13 29  1  0  0  0  0
 14 15  1  0  0  0  0
 14 30  1  0  0  0  0
 14 31  1  0  0  0  0
 15 16  1  0  0  0  0
 15 32  1  0  0  0  0
 15 33  1  0  0  0  0
 16 17  1  0  0  0  0
 17 34  1  0  0  0  0
 17 35  1  0  0  0  0
M  END
> <s_m_source_file>
AV-unprocessed.smi

> <i_m_source_file_index>
568

> <i_lp_mmshare_version>
43012

> <i_f3d_flags>
0

> <s_epik_input>
W0NIM11jMW5vYyhbQ0gzXSljMVtDSDJdQyg9TylbTkhdW0NIMl1bQ0BASF0yW0NIMl1bQ0gyXU9bQ0gyXTI=

> <s_epik_cmdline>
J2VwaWtfcHl0aG9uJywgJy1waCcsICc3LjAnLCAnLXRuJywgJzgnLCAnLW1hJywgJzIwMCcsICctbWV0YWxfYmluZGluZycsICctaW1hZScsICc8aW5maWxlLm1hZT4nLCAnLW9tYWUnLCAnPG91dGZpbGUubWFlPic=

> <r_lp_tautomer_probability>
1

> <r_epik_Ionization_Penalty>
2.07075e-08

> <r_epik_Ionization_Penalty_Charging>
0

> <r_epik_Ionization_Penalty_Neutral>
2.07075e-08

> <r_epik_State_Penalty>
-0

> <r_epik_Charging_Adjusted_Penalty>
0

> <i_epik_Tot_Q>
0

> <i_epik_Tot_abs_Q>
0

> <r_epik_Metal_State_Penalty>
-0

> <b_epik_Metal_Only>
0

> <s_lp_Force_Field>
OPLS_2005

> <r_lp_Energy>
12.1953

> <b_lp_Chiralities_Consistent>
1

> <s_lp_Variant>
AV-unprocessed.smi:568-2

> <Gold.Version>
5.8.1

> <Gold.Id.Protein>
6NUR|6NUR_protein|mol2

> <Gold.PLP.Fitness>
33.7132

> <Gold.PLP.PLP>
-28.3551

> <Gold.PLP.part.hbond>
-2.5046

> <Gold.PLP.part.metal>
0.0000

> <Gold.PLP.part.buried>
-5.0060

> <Gold.PLP.part.nonpolar>
-21.7583

> <Gold.PLP.part.repulsive>
0.2698

> <Gold.PLP.ligand.clash>
0.0000

> <Gold.PLP.ligand.torsion>
0.1964

> <Gold.PLP.Chemscore.Hbond>
1.9120

> <Gold.PLP.Chemscore.CHOScore>
0.0000

> <Gold.PLP.Chemscore.Metal>
0.0000

> <Gold.Chemscore.Hbonds>
donor molecule, donor type, donor heavy atom, donor atom, acceptor molecule, acceptor atom, score
      L1  H    11    26       P1  7948  1.00
      P1  H  6896  6907       L1     4  0.91

> <Gold.PLP.Chemscore.Internal.Correction>
0.0150

> <Gold.Rescore>
     Score         DG    S(hbond)    S(metal)    S(lipo)     H(rot)  DE(clash)    DE(int)     intcor
     13.97     -14.31       1.51        0.00      66.47       1.56       0.01       0.33       ----

> <Gold.Chemscore.Fitness>
13.9733

> <Gold.Chemscore.DG>
-14.3108

> <Gold.Chemscore.ZeroCoef>
-5.4800

> <Gold.Chemscore.Hbond>
1.5073

> <Gold.Chemscore.Metal>
0.0000

> <Gold.Chemscore.Lipo>
66.4721

> <Gold.Chemscore.Internal_Hbond>
0.0000

> <Gold.Chemscore.DEClash>
0.0106

> <Gold.Chemscore.DEInternal>
0.3268

> <Gold.Chemscore.Rot>
1.5551

> <Gold.Chemscore.Internal.Correction>
   9.000000E+99

> <Gold.Chemscore.Hbonds>
donor molecule, donor type, donor heavy atom, donor atom, acceptor molecule, acceptor atom, score
      L1  H    11    26       P1  7948  0.45
      P1  H  6896  6907       L1     4  0.23

> <Gold.Chemscore.Hbond.Weighted>
-5.0345

> <Gold.Chemscore.Metal.Weighted>
-0.0000

> <Gold.Chemscore.Lipo.Weighted>
-7.7772

> <Gold.Chemscore.Internal_Hbond.Weighted>
0.0000

> <Gold.Chemscore.DEClash.Weighted>
0.0106

> <Gold.Chemscore.DEInternal.Weighted>
0.3268

> <Gold.Chemscore.Rot.Weighted>
3.9809

> <Gold.Chemscore.Internal.Correction.Weighted>
   9.000000E+99

> <Gold.Protein.RotatedTorsions>
[ 6907 6896 6895 6894 ] final -144.36 input  -60.11 | X-H torsion
[ 7974 7965 7964 7962 ] final   14.14 input  175.53 | X-H torsion
[ 8008 7997 7996 7995 ] final    3.24 input   59.86 | X-H torsion
[ 10167 10162 10161 10158 ] final  -71.10 input  -65.29 | X-H torsion
[ 10718 10713 10712 10709 ] final -114.05 input   66.30 | X-H torsion
[ 10763 10752 10751 10750 ] final   50.29 input  -60.55 | X-H torsion
[ 11005 11000 10999 10996 ] final  157.30 input  -57.11 | X-H torsion

> <Gold.Protein.ActiveResidues>
 VAL166  LYS551  ARG553  GLY616  TRP617  ASP618  TYR619  PRO620  LYS621  CYS622 
 ASP623  PHE694  ASN695  SER759  ASP760  ASP761  ALA762  ILE779  LEU786  VAL792 
 PHE793  MET794  SER795  GLU796  ALA797  LYS798  CYS799  TRP800  GLU811  SER814 

> <Gold.Protein.RotatedAtoms>
  151.1131  133.5159  159.2604 H   0  0  0  0  0  0  0  0  0  0  0  0  # atno 6907 bound_to 6896
  151.1945  135.0416  159.8856 H   0  0  0  0  0  0  0  0  0  0  0  0  # atno 6908 bound_to 6896
  152.5451  134.0967  159.8353 H   0  0  0  0  0  0  0  0  0  0  0  0  # atno 6909 bound_to 6896
  146.2312  139.9085  142.8528 H   0  0  0  0  0  0  0  0  0  0  0  0  # atno 7974 bound_to 7965
  154.7012  140.2673  155.6717 H   0  0  0  0  0  0  0  0  0  0  0  0  # atno 8008 bound_to 7997
  156.2765  140.2772  156.1547 H   0  0  0  0  0  0  0  0  0  0  0  0  # atno 8009 bound_to 7997
  155.0761  140.0372  157.2614 H   0  0  0  0  0  0  0  0  0  0  0  0  # atno 8010 bound_to 7997
  140.5300  143.2322  151.7279 H   0  0  0  0  0  0  0  0  0  0  0  0  # atno 10167 bound_to 10162
  156.0805  130.6006  150.8723 H   0  0  0  0  0  0  0  0  0  0  0  0  # atno 10718 bound_to 10713
  152.9785  135.5884  154.4228 H   0  0  0  0  0  0  0  0  0  0  0  0  # atno 10763 bound_to 10752
  154.3851  135.2767  155.2190 H   0  0  0  0  0  0  0  0  0  0  0  0  # atno 10764 bound_to 10752
  154.4087  135.6086  153.5994 H   0  0  0  0  0  0  0  0  0  0  0  0  # atno 10765 bound_to 10752
  140.1756  134.8512  157.2743 H   0  0  0  0  0  0  0  0  0  0  0  0  # atno 11005 bound_to 11000
  145.2253  140.9951  143.4022 LP  0  0  0  0  0  0  0  0  0  0  0  0  # atno 17320 bound_to 7965
  144.9576  139.4014  143.6371 LP  0  0  0  0  0  0  0  0  0  0  0  0  # atno 17321 bound_to 7965
  139.4951  144.4129  152.0061 LP  0  0  0  0  0  0  0  0  0  0  0  0  # atno 17342 bound_to 10162
  140.3230  144.3405  150.6005 LP  0  0  0  0  0  0  0  0  0  0  0  0  # atno 17343 bound_to 10162
  157.5920  131.0944  150.9103 LP  0  0  0  0  0  0  0  0  0  0  0  0  # atno 17370 bound_to 10713
  156.9277  130.5338  149.5279 LP  0  0  0  0  0  0  0  0  0  0  0  0  # atno 17371 bound_to 10713
  140.2326  134.3891  155.7515 LP  0  0  0  0  0  0  0  0  0  0  0  0  # atno 17394 bound_to 11000
  141.2220  133.7223  156.8664 LP  0  0  0  0  0  0  0  0  0  0  0  0  # atno 17395 bound_to 11000

$$$$
