AV-unprocessed.smi:1661|AV-procd|sdf|6656|dock9
  -GOLD-   22720 7363D 1   1.00000     0.00000
 Structure written by MMmdl.
 37 38  0  0  0  0  0  0  0  0  3 V2000
  144.0886  132.6361  151.3980 C   0  0  0  0  0  0  0  0  0  0  0  0
  145.4149  133.2576  150.9264 C   0  0  2  0  0  0  0  0  0  0  0  0
  146.4971  133.2547  152.0211 C   0  0  0  0  0  0  0  0  0  0  0  0
  146.2293  134.3105  153.1088 C   0  0  0  0  0  0  0  0  0  0  0  0
  146.0865  135.6677  152.5211 N   0  3  2  0  0  0  0  0  0  0  0  0
  145.9581  136.7171  153.5628 C   0  0  0  0  0  0  0  0  0  0  0  0
  146.3848  138.1059  153.0513 C   0  0  0  0  0  0  0  0  0  0  0  0
  147.8265  138.2915  153.1642 N   0  0  0  0  0  0  0  0  0  0  0  0
  148.4520  138.9929  154.1202 C   0  0  0  0  0  0  0  0  0  0  0  0
  147.7955  139.5426  155.0076 O   0  0  0  0  0  0  0  0  0  0  0  0
  149.7965  139.0181  153.9841 N   0  5  0  0  0  0  0  0  0  0  0  0
  150.5743  139.2734  155.0493 C   0  0  0  0  0  0  0  0  0  0  0  0
  151.8529  139.6648  154.9274 N   0  0  0  0  0  0  0  0  0  0  0  0
  152.4769  139.8803  156.1488 N   0  0  0  0  0  0  0  0  0  0  0  0
  151.6459  139.6523  157.1656 C   0  0  0  0  0  0  0  0  0  0  0  0
  150.0257  139.1565  156.7235 S   0  0  0  0  0  0  0  0  0  0  0  0
  145.0006  135.7131  151.5061 C   0  0  0  0  0  0  0  0  0  0  0  0
  145.2419  134.6876  150.3837 C   0  0  0  0  0  0  0  0  0  0  0  0
  143.6444  133.1901  152.2243 H   0  0  0  0  0  0  0  0  0  0  0  0
  144.2365  131.6088  151.7323 H   0  0  0  0  0  0  0  0  0  0  0  0
  143.3594  132.6128  150.5877 H   0  0  0  0  0  0  0  0  0  0  0  0
  145.7730  132.6340  150.1063 H   0  0  0  0  0  0  0  0  0  0  0  0
  146.5771  132.2646  152.4713 H   0  0  0  0  0  0  0  0  0  0  0  0
  147.4668  133.4575  151.5647 H   0  0  0  0  0  0  0  0  0  0  0  0
  145.3317  134.0597  153.6757 H   0  0  0  0  0  0  0  0  0  0  0  0
  147.0587  134.3035  153.8168 H   0  0  0  0  0  0  0  0  0  0  0  0
  144.9358  136.7404  153.9436 H   0  0  0  0  0  0  0  0  0  0  0  0
  146.5934  136.4535  154.4095 H   0  0  0  0  0  0  0  0  0  0  0  0
  146.0698  138.2489  152.0163 H   0  0  0  0  0  0  0  0  0  0  0  0
  145.9131  138.8976  153.6314 H   0  0  0  0  0  0  0  0  0  0  0  0
  148.4025  137.8528  152.4605 H   0  0  0  0  0  0  0  0  0  0  0  0
  151.9875  139.7802  158.1818 H   0  0  0  0  0  0  0  0  0  0  0  0
  144.0397  135.5311  151.9891 H   0  0  0  0  0  0  0  0  0  0  0  0
  144.9407  136.7058  151.0616 H   0  0  0  0  0  0  0  0  0  0  0  0
  146.1397  134.9719  149.8331 H   0  0  0  0  0  0  0  0  0  0  0  0
  144.4234  134.7216  149.6637 H   0  0  0  0  0  0  0  0  0  0  0  0
  146.9528  135.8549  152.0369 H   0  0  0  0  0  0  0  0  0  0  0  0
  1  2  1  0  0  0  0
  1 19  1  0  0  0  0
  1 20  1  0  0  0  0
  1 21  1  0  0  0  0
  2 18  1  0  0  0  0
  2  3  1  0  0  0  0
  2 22  1  0  0  0  0
  3  4  1  0  0  0  0
  3 23  1  0  0  0  0
  3 24  1  0  0  0  0
  4  5  1  0  0  0  0
  4 25  1  0  0  0  0
  4 26  1  0  0  0  0
  5  6  1  0  0  0  0
  5 17  1  0  0  0  0
  5 37  1  0  0  0  0
  6  7  1  0  0  0  0
  6 27  1  0  0  0  0
  6 28  1  0  0  0  0
  7  8  1  0  0  0  0
  7 29  1  0  0  0  0
  7 30  1  0  0  0  0
  8  9  1  0  0  0  0
  8 31  1  0  0  0  0
  9 10  2  0  0  0  0
  9 11  1  0  0  0  0
 11 12  1  0  0  0  0
 12 16  1  0  0  0  0
 12 13  2  0  0  0  0
 13 14  1  0  0  0  0
 14 15  2  0  0  0  0
 15 16  1  0  0  0  0
 15 32  1  0  0  0  0
 17 18  1  0  0  0  0
 17 33  1  0  0  0  0
 17 34  1  0  0  0  0
 18 35  1  0  0  0  0
 18 36  1  0  0  0  0
M  CHG  1   5   1
M  CHG  1  11  -1
M  END
> <s_m_source_file>
AV-unprocessed.smi

> <i_m_source_file_index>
1661

> <i_lp_mmshare_version>
43012

> <i_f3d_flags>
0

> <s_epik_input>
W0NIM11bQ0hdMVtDSDJdW0NIMl1OKFtDSDJdW0NIMl0xKVtDSDJdW0NIMl1bTkhdQyg9TylbTkhdYzJubltjSF1zMg==

> <s_epik_cmdline>
J2VwaWtfcHl0aG9uJywgJy1waCcsICc3LjAnLCAnLXRuJywgJzgnLCAnLW1hJywgJzIwMCcsICctbWV0YWxfYmluZGluZycsICctaW1hZScsICc8aW5maWxlLm1hZT4nLCAnLW9tYWUnLCAnPG91dGZpbGUubWFlPic=

> <r_lp_tautomer_probability>
1

> <r_epik_Ionization_Penalty>
3.04466

> <r_epik_Ionization_Penalty_Charging>
3.01305

> <r_epik_Ionization_Penalty_Neutral>
0.0316037

> <r_epik_State_Penalty>
3.00821

> <r_epik_Charging_Adjusted_Penalty>
6.02127

> <i_epik_Tot_Q>
0

> <i_epik_Tot_abs_Q>
2

> <r_epik_Metal_State_Penalty>
0.454395

> <b_epik_Metal_Only>
1

> <s_lp_Force_Field>
OPLS_2005

> <r_lp_Energy>
9.834

> <b_lp_Chiralities_Consistent>
1

> <s_lp_Variant>
AV-unprocessed.smi:1661-4

> <Gold.Version>
5.8.1

> <Gold.Id.Protein>
6NUR|6NUR_protein|mol2

> <Gold.PLP.Fitness>
38.4679

> <Gold.PLP.PLP>
-25.0448

> <Gold.PLP.part.hbond>
-4.5206

> <Gold.PLP.part.metal>
0.0000

> <Gold.PLP.part.buried>
-4.0353

> <Gold.PLP.part.nonpolar>
-18.3269

> <Gold.PLP.part.repulsive>
1.3273

> <Gold.PLP.ligand.clash>
0.0000

> <Gold.PLP.ligand.torsion>
0.6296

> <Gold.PLP.Chemscore.Hbond>
4.8720

> <Gold.PLP.Chemscore.CHOScore>
0.0000

> <Gold.PLP.Chemscore.Metal>
0.0000

> <Gold.Chemscore.Hbonds>
donor molecule, donor type, donor heavy atom, donor atom, acceptor molecule, acceptor atom, score
      L1  H     5    37       P1  7948  2.00
      L1  H     8    31       P1  7948  0.88
      P1  H  7989  7998       L1    13  0.94
      P1  H  7997  8010       L1    14  1.00

> <Gold.PLP.Chemscore.Internal.Correction>
0.0662

> <Gold.Rescore>
     Score         DG    S(hbond)    S(metal)    S(lipo)     H(rot)  DE(clash)    DE(int)     intcor
     15.45     -17.99       3.36        0.00      47.84       1.68       0.64       1.90       ----

> <Gold.Chemscore.Fitness>
15.4486

> <Gold.Chemscore.DG>
-17.9946

> <Gold.Chemscore.ZeroCoef>
-5.4800

> <Gold.Chemscore.Hbond>
3.3570

> <Gold.Chemscore.Metal>
0.0000

> <Gold.Chemscore.Lipo>
47.8396

> <Gold.Chemscore.Internal_Hbond>
0.0000

> <Gold.Chemscore.DEClash>
0.6424

> <Gold.Chemscore.DEInternal>
1.9036

> <Gold.Chemscore.Rot>
1.6777

> <Gold.Chemscore.Internal.Correction>
   9.000000E+99

> <Gold.Chemscore.Hbonds>
donor molecule, donor type, donor heavy atom, donor atom, acceptor molecule, acceptor atom, score
      L1  H     5    37       P1  7948  0.94
      L1  H     8    31       P1  7948  0.87
      P1  H  7989  7998       L1    13  0.20
      P1  H  7997  8010       L1    14  0.93

> <Gold.Chemscore.Hbond.Weighted>
-11.2123

> <Gold.Chemscore.Metal.Weighted>
-0.0000

> <Gold.Chemscore.Lipo.Weighted>
-5.5972

> <Gold.Chemscore.Internal_Hbond.Weighted>
0.0000

> <Gold.Chemscore.DEClash.Weighted>
0.6424

> <Gold.Chemscore.DEInternal.Weighted>
1.9036

> <Gold.Chemscore.Rot.Weighted>
4.2950

> <Gold.Chemscore.Internal.Correction.Weighted>
   9.000000E+99

> <Gold.Protein.RotatedTorsions>
[ 6907 6896 6895 6894 ] final -139.45 input  -60.11 | X-H torsion
[ 7974 7965 7964 7962 ] final -142.17 input  175.53 | X-H torsion
[ 8008 7997 7996 7995 ] final   92.14 input   59.86 | X-H torsion
[ 10167 10162 10161 10158 ] final -142.90 input  -65.29 | X-H torsion
[ 10718 10713 10712 10709 ] final  -38.27 input   66.30 | X-H torsion
[ 10763 10752 10751 10750 ] final  -90.79 input  -60.55 | X-H torsion
[ 11005 11000 10999 10996 ] final  124.94 input  -57.11 | X-H torsion

> <Gold.Protein.ActiveResidues>
 VAL166  LYS551  ARG553  GLY616  TRP617  ASP618  TYR619  PRO620  LYS621  CYS622 
 ASP623  PHE694  ASN695  SER759  ASP760  ASP761  ALA762  ILE779  LEU786  VAL792 
 PHE793  MET794  SER795  GLU796  ALA797  LYS798  CYS799  TRP800  GLU811  SER814 

> <Gold.Protein.RotatedAtoms>
  151.0480  133.5649  159.2644 H   0  0  0  0  0  0  0  0  0  0  0  0  # atno 6907 bound_to 6896
  151.2670  135.0672  159.9130 H   0  0  0  0  0  0  0  0  0  0  0  0  # atno 6908 bound_to 6896
  152.5376  134.0216  159.8038 H   0  0  0  0  0  0  0  0  0  0  0  0  # atno 6909 bound_to 6896
  144.8464  140.5991  143.5419 H   0  0  0  0  0  0  0  0  0  0  0  0  # atno 7974 bound_to 7965
  156.0319  140.3329  155.7149 H   0  0  0  0  0  0  0  0  0  0  0  0  # atno 8008 bound_to 7997
  155.5872  140.0642  157.2785 H   0  0  0  0  0  0  0  0  0  0  0  0  # atno 8009 bound_to 7997
  154.4356  140.1833  156.1026 H   0  0  0  0  0  0  0  0  0  0  0  0  # atno 8010 bound_to 7997
  139.8045  143.7788  152.2660 H   0  0  0  0  0  0  0  0  0  0  0  0  # atno 10167 bound_to 10162
  156.3057  130.4246  149.8099 H   0  0  0  0  0  0  0  0  0  0  0  0  # atno 10718 bound_to 10713
  154.6694  135.5291  153.8119 H   0  0  0  0  0  0  0  0  0  0  0  0  # atno 10763 bound_to 10752
  153.0492  135.6525  154.0748 H   0  0  0  0  0  0  0  0  0  0  0  0  # atno 10764 bound_to 10752
  154.0648  135.2959  155.3298 H   0  0  0  0  0  0  0  0  0  0  0  0  # atno 10765 bound_to 10752
  139.9382  134.9638  156.8484 H   0  0  0  0  0  0  0  0  0  0  0  0  # atno 11005 bound_to 11000
  145.4589  139.1515  143.3877 LP  0  0  0  0  0  0  0  0  0  0  0  0  # atno 17320 bound_to 7965
  146.2747  140.4718  142.8800 LP  0  0  0  0  0  0  0  0  0  0  0  0  # atno 17321 bound_to 7965
  139.7918  144.7407  150.9945 LP  0  0  0  0  0  0  0  0  0  0  0  0  # atno 17342 bound_to 10162
  140.7819  143.4434  151.0517 LP  0  0  0  0  0  0  0  0  0  0  0  0  # atno 17343 bound_to 10162
  156.5461  130.8321  151.3284 LP  0  0  0  0  0  0  0  0  0  0  0  0  # atno 17370 bound_to 10713
  157.7379  130.9804  150.2220 LP  0  0  0  0  0  0  0  0  0  0  0  0  # atno 17371 bound_to 10713
  140.6019  134.0164  155.7541 LP  0  0  0  0  0  0  0  0  0  0  0  0  # atno 17394 bound_to 11000
  141.1006  133.9774  157.3085 LP  0  0  0  0  0  0  0  0  0  0  0  0  # atno 17395 bound_to 11000

$$$$
