AV-unprocessed.smi:1033|AV-procd|sdf|4508|dock1
  -GOLD-   22720 2513D 1   1.00000     0.00000
 Structure written by MMmdl.
 57 59  0  0  0  0  0  0  0  0  3 V2000
  152.7542  142.8995  161.8594 C   0  0  0  0  0  0  0  0  0  0  0  0
  152.2474  142.4956  160.4860 C   0  0  0  0  0  0  0  0  0  0  0  0
  152.7468  141.3164  159.8885 C   0  0  0  0  0  0  0  0  0  0  0  0
  152.3021  140.9070  158.6125 C   0  0  0  0  0  0  0  0  0  0  0  0
  152.6502  139.8058  157.8491 N   0  0  0  0  0  0  0  0  0  0  0  0
  151.9004  139.9820  156.7654 C   0  0  0  0  0  0  0  0  0  0  0  0
  151.0991  141.0648  156.7395 N   0  0  0  0  0  0  0  0  0  0  0  0
  150.1982  141.4659  155.6736 C   0  0  0  0  0  0  0  0  0  0  0  0
  149.6448  140.2636  154.8845 C   0  0  2  0  0  0  0  0  0  0  0  0
  150.6130  139.8325  153.9476 O   0  0  0  0  0  0  0  0  0  0  0  0
  148.3530  140.6269  154.1264 C   0  0  0  0  0  0  0  0  0  0  0  0
  147.7025  139.4457  153.5021 N   0  3  2  0  0  0  0  0  0  0  0  0
  147.2224  139.7279  152.1267 C   0  0  0  0  0  0  0  0  0  0  0  0
  146.6400  138.4650  151.4679 C   0  0  0  0  0  0  0  0  0  0  0  0
  145.5547  137.8805  152.2965 N   0  3  1  0  0  0  0  0  0  0  0  0
  144.8978  136.7043  151.6688 C   0  0  0  0  0  0  0  0  0  0  0  0
  145.8577  135.9046  150.7660 C   0  0  1  0  0  0  0  0  0  0  0  0
  145.5185  134.4086  150.7420 C   0  0  0  0  0  0  0  0  0  0  0  0
  145.7683  136.3988  149.4449 O   0  0  0  0  0  0  0  0  0  0  0  0
  146.0340  137.5960  153.6716 C   0  0  0  0  0  0  0  0  0  0  0  0
  146.6196  138.8574  154.3316 C   0  0  0  0  0  0  0  0  0  0  0  0
  151.3359  141.7156  157.9456 C   0  0  0  0  0  0  0  0  0  0  0  0
  150.8326  142.8918  158.5286 C   0  0  0  0  0  0  0  0  0  0  0  0
  151.2879  143.2864  159.8041 C   0  0  0  0  0  0  0  0  0  0  0  0
  150.7400  144.5589  160.4260 C   0  0  0  0  0  0  0  0  0  0  0  0
  153.4598  142.1685  162.2550 H   0  0  0  0  0  0  0  0  0  0  0  0
  151.9267  142.9799  162.5645 H   0  0  0  0  0  0  0  0  0  0  0  0
  153.2623  143.8628  161.8096 H   0  0  0  0  0  0  0  0  0  0  0  0
  153.4794  140.7150  160.4065 H   0  0  0  0  0  0  0  0  0  0  0  0
  151.9326  139.2809  155.9440 H   0  0  0  0  0  0  0  0  0  0  0  0
  149.3798  142.0325  156.1199 H   0  0  0  0  0  0  0  0  0  0  0  0
  150.7256  142.1513  155.0080 H   0  0  0  0  0  0  0  0  0  0  0  0
  149.4602  139.4470  155.5813 H   0  0  0  0  0  0  0  0  0  0  0  0
  150.1858  139.6968  153.1147 H   0  0  0  0  0  0  0  0  0  0  0  0
  147.6428  141.1188  154.7929 H   0  0  0  0  0  0  0  0  0  0  0  0
  148.6026  141.3594  153.3567 H   0  0  0  0  0  0  0  0  0  0  0  0
  146.4684  140.5163  152.1586 H   0  0  0  0  0  0  0  0  0  0  0  0
  148.0468  140.1015  151.5178 H   0  0  0  0  0  0  0  0  0  0  0  0
  146.2674  138.7227  150.4773 H   0  0  0  0  0  0  0  0  0  0  0  0
  147.4280  137.7237  151.3241 H   0  0  0  0  0  0  0  0  0  0  0  0
  144.4826  136.0652  152.4498 H   0  0  0  0  0  0  0  0  0  0  0  0
  144.0501  137.0327  151.0647 H   0  0  0  0  0  0  0  0  0  0  0  0
  146.8876  136.0162  151.1029 H   0  0  0  0  0  0  0  0  0  0  0  0
  145.5940  133.9739  151.7392 H   0  0  0  0  0  0  0  0  0  0  0  0
  146.2035  133.8605  150.0938 H   0  0  0  0  0  0  0  0  0  0  0  0
  144.5050  134.2332  150.3795 H   0  0  0  0  0  0  0  0  0  0  0  0
  145.1476  137.1121  149.4282 H   0  0  0  0  0  0  0  0  0  0  0  0
  145.2084  137.2237  154.2797 H   0  0  0  0  0  0  0  0  0  0  0  0
  146.7857  136.8055  153.6385 H   0  0  0  0  0  0  0  0  0  0  0  0
  146.9955  138.5964  155.3201 H   0  0  0  0  0  0  0  0  0  0  0  0
  145.8322  139.5983  154.4794 H   0  0  0  0  0  0  0  0  0  0  0  0
  150.1043  143.4864  157.9981 H   0  0  0  0  0  0  0  0  0  0  0  0
  150.0374  145.0586  159.7584 H   0  0  0  0  0  0  0  0  0  0  0  0
  151.5489  145.2569  160.6432 H   0  0  0  0  0  0  0  0  0  0  0  0
  150.2171  144.3344  161.3560 H   0  0  0  0  0  0  0  0  0  0  0  0
  144.8359  138.5853  152.3868 H   0  0  0  0  0  0  0  0  0  0  0  0
  148.4258  138.7457  153.4120 H   0  0  0  0  0  0  0  0  0  0  0  0
  1  2  1  0  0  0  0
  1 26  1  0  0  0  0
  1 27  1  0  0  0  0
  1 28  1  0  0  0  0
  2 24  1  0  0  0  0
  2  3  2  0  0  0  0
  3  4  1  0  0  0  0
  3 29  1  0  0  0  0
  4 22  2  0  0  0  0
  4  5  1  0  0  0  0
  5  6  2  0  0  0  0
  6  7  1  0  0  0  0
  6 30  1  0  0  0  0
  7  8  1  0  0  0  0
  7 22  1  0  0  0  0
  8  9  1  0  0  0  0
  8 31  1  0  0  0  0
  8 32  1  0  0  0  0
  9 10  1  0  0  0  0
  9 11  1  0  0  0  0
  9 33  1  0  0  0  0
 10 34  1  0  0  0  0
 11 12  1  0  0  0  0
 11 35  1  0  0  0  0
 11 36  1  0  0  0  0
 12 21  1  0  0  0  0
 12 13  1  0  0  0  0
 12 57  1  0  0  0  0
 13 14  1  0  0  0  0
 13 37  1  0  0  0  0
 13 38  1  0  0  0  0
 14 15  1  0  0  0  0
 14 39  1  0  0  0  0
 14 40  1  0  0  0  0
 15 16  1  0  0  0  0
 15 20  1  0  0  0  0
 15 56  1  0  0  0  0
 16 17  1  0  0  0  0
 16 41  1  0  0  0  0
 16 42  1  0  0  0  0
 17 18  1  0  0  0  0
 17 19  1  0  0  0  0
 17 43  1  0  0  0  0
 18 44  1  0  0  0  0
 18 45  1  0  0  0  0
 18 46  1  0  0  0  0
 19 47  1  0  0  0  0
 20 21  1  0  0  0  0
 20 48  1  0  0  0  0
 20 49  1  0  0  0  0
 21 50  1  0  0  0  0
 21 51  1  0  0  0  0
 22 23  1  0  0  0  0
 23 24  2  0  0  0  0
 23 52  1  0  0  0  0
 24 25  1  0  0  0  0
 25 53  1  0  0  0  0
 25 54  1  0  0  0  0
 25 55  1  0  0  0  0
M  CHG  1  12   1
M  CHG  1  15   1
M  END
> <s_m_source_file>
AV-unprocessed.smi

> <i_m_source_file_index>
1033

> <i_lp_mmshare_version>
43012

> <i_f3d_flags>
0

> <s_epik_input>
W0NIM11jKFtjSF0xKWMoW0NIM10pW2NIXWMoYzEyKW4oW2NIXW4yKVtDSDJdW0NASF0oW09IXSlbQ0gyXU4zW0NIMl1bQ0gyXU4oW0NIMl1bQ0gyXTMpW0NIMl1bQ0BIXShbQ0gzXSlbT0hd

> <s_epik_cmdline>
J2VwaWtfcHl0aG9uJywgJy1waCcsICc3LjAnLCAnLXRuJywgJzgnLCAnLW1hJywgJzIwMCcsICctbWV0YWxfYmluZGluZycsICctaW1hZScsICc8aW5maWxlLm1hZT4nLCAnLW9tYWUnLCAnPG91dGZpbGUubWFlPic=

> <r_epik_Ionization_Penalty>
3.16016

> <r_epik_Ionization_Penalty_Charging>
3.07679

> <r_epik_Ionization_Penalty_Neutral>
0.083365

> <r_epik_State_Penalty>
2.09701

> <r_epik_Charging_Adjusted_Penalty>
5.1738

> <i_epik_Tot_Q>
2

> <i_epik_Tot_abs_Q>
2

> <r_epik_Metal_State_Penalty>
2.02534

> <b_epik_Metal_Only>
0

> <s_lp_Force_Field>
OPLS_2005

> <r_lp_Energy>
26.7324

> <b_lp_Chiralities_Consistent>
1

> <s_lp_Variant>
AV-unprocessed.smi:1033-19

> <Gold.Version>
5.8.1

> <Gold.Id.Protein>
6NUR|6NUR_protein|mol2

> <Gold.PLP.Fitness>
67.2116

> <Gold.PLP.PLP>
-52.4974

> <Gold.PLP.part.hbond>
-7.2360

> <Gold.PLP.part.metal>
0.0000

> <Gold.PLP.part.buried>
0.8796

> <Gold.PLP.part.nonpolar>
-46.1222

> <Gold.PLP.part.repulsive>
0.0221

> <Gold.PLP.ligand.clash>
0.0000

> <Gold.PLP.ligand.torsion>
1.9780

> <Gold.PLP.Chemscore.Hbond>
6.0000

> <Gold.PLP.Chemscore.CHOScore>
0.0000

> <Gold.PLP.Chemscore.Metal>
0.0000

> <Gold.Chemscore.Hbonds>
donor molecule, donor type, donor heavy atom, donor atom, acceptor molecule, acceptor atom, score
      L1  H    10    34       P1  7957  0.93
      L1  H    15    56       P1 10175  1.17
      L1  H    19    47       P1 10171  1.00
      P1  H  7989  7998       L1    10  0.81
      P1  H  7997  8008       L1     5  0.76

> <Gold.PLP.Chemscore.Internal.Correction>
0.6703

> <Gold.Rescore>
     Score         DG    S(hbond)    S(metal)    S(lipo)     H(rot)  DE(clash)    DE(int)     intcor
     21.50     -25.63       3.69        0.00     135.67       3.14       1.84       2.29       ----

> <Gold.Chemscore.Fitness>
21.5043

> <Gold.Chemscore.DG>
-25.6343

> <Gold.Chemscore.ZeroCoef>
-5.4800

> <Gold.Chemscore.Hbond>
3.6868

> <Gold.Chemscore.Metal>
0.0000

> <Gold.Chemscore.Lipo>
135.6719

> <Gold.Chemscore.Internal_Hbond>
0.0000

> <Gold.Chemscore.DEClash>
1.8380

> <Gold.Chemscore.DEInternal>
2.2919

> <Gold.Chemscore.Rot>
3.1380

> <Gold.Chemscore.Internal.Correction>
   9.000000E+99

> <Gold.Chemscore.Hbonds>
donor molecule, donor type, donor heavy atom, donor atom, acceptor molecule, acceptor atom, score
      L1  H    10    34       P1  7957  0.87
      L1  H    15    56       P1 10175  0.58
      L1  H    19    47       P1 10171  0.99
      P1  H  7989  7998       L1    10  0.12
      P1  H  7997  8008       L1     5  0.17

> <Gold.Chemscore.Hbond.Weighted>
-12.3139

> <Gold.Chemscore.Metal.Weighted>
-0.0000

> <Gold.Chemscore.Lipo.Weighted>
-15.8736

> <Gold.Chemscore.Internal_Hbond.Weighted>
0.0000

> <Gold.Chemscore.DEClash.Weighted>
1.8380

> <Gold.Chemscore.DEInternal.Weighted>
2.2919

> <Gold.Chemscore.Rot.Weighted>
8.0332

> <Gold.Chemscore.Internal.Correction.Weighted>
   9.000000E+99

> <Gold.Protein.RotatedTorsions>
[ 6907 6896 6895 6894 ] final   55.16 input  -60.11 | X-H torsion
[ 7974 7965 7964 7962 ] final  142.46 input  175.53 | X-H torsion
[ 8008 7997 7996 7995 ] final  -87.22 input   59.86 | X-H torsion
[ 10167 10162 10161 10158 ] final  108.57 input  -65.29 | X-H torsion
[ 10718 10713 10712 10709 ] final   78.10 input   66.30 | X-H torsion
[ 10763 10752 10751 10750 ] final  -20.38 input  -60.55 | X-H torsion
[ 11005 11000 10999 10996 ] final   53.72 input  -57.11 | X-H torsion

> <Gold.Protein.ActiveResidues>
 VAL166  LYS551  ARG553  GLY616  TRP617  ASP618  TYR619  PRO620  LYS621  CYS622 
 ASP623  PHE694  ASN695  SER759  ASP760  ASP761  ALA762  ILE779  LEU786  VAL792 
 PHE793  MET794  SER795  GLU796  ALA797  LYS798  CYS799  TRP800  GLU811  SER814 

> <Gold.Protein.RotatedAtoms>
  152.3511  134.7004  160.0235 H   0  0  0  0  0  0  0  0  0  0  0  0  # atno 6907 bound_to 6896
  151.7357  133.3314  159.3360 H   0  0  0  0  0  0  0  0  0  0  0  0  # atno 6908 bound_to 6896
  150.7541  134.6256  159.6204 H   0  0  0  0  0  0  0  0  0  0  0  0  # atno 6909 bound_to 6896
  144.9006  139.5429  143.5755 H   0  0  0  0  0  0  0  0  0  0  0  0  # atno 7974 bound_to 7965
  154.6608  140.0568  157.0059 H   0  0  0  0  0  0  0  0  0  0  0  0  # atno 8008 bound_to 7997
  155.1232  140.3249  155.4473 H   0  0  0  0  0  0  0  0  0  0  0  0  # atno 8009 bound_to 7997
  156.2617  140.1994  156.6353 H   0  0  0  0  0  0  0  0  0  0  0  0  # atno 8010 bound_to 7997
  139.6836  144.7116  151.1472 H   0  0  0  0  0  0  0  0  0  0  0  0  # atno 10167 bound_to 10162
  157.6733  130.9852  150.1737 H   0  0  0  0  0  0  0  0  0  0  0  0  # atno 10718 bound_to 10713
  153.6196  135.6993  153.5315 H   0  0  0  0  0  0  0  0  0  0  0  0  # atno 10763 bound_to 10752
  153.2949  135.4146  155.1200 H   0  0  0  0  0  0  0  0  0  0  0  0  # atno 10764 bound_to 10752
  154.8546  135.3634  154.5736 H   0  0  0  0  0  0  0  0  0  0  0  0  # atno 10765 bound_to 10752
  140.0744  134.5425  155.9012 H   0  0  0  0  0  0  0  0  0  0  0  0  # atno 11005 bound_to 11000
  146.3106  139.7733  142.9023 LP  0  0  0  0  0  0  0  0  0  0  0  0  # atno 17320 bound_to 7965
  145.3623  141.0328  143.3278 LP  0  0  0  0  0  0  0  0  0  0  0  0  # atno 17321 bound_to 7965
  140.7660  143.5663  150.9044 LP  0  0  0  0  0  0  0  0  0  0  0  0  # atno 17342 bound_to 10162
  139.9336  143.6464  152.3070 LP  0  0  0  0  0  0  0  0  0  0  0  0  # atno 17343 bound_to 10162
  156.2485  130.3698  149.8258 LP  0  0  0  0  0  0  0  0  0  0  0  0  # atno 17370 bound_to 10713
  156.6038  130.8558  151.3438 LP  0  0  0  0  0  0  0  0  0  0  0  0  # atno 17371 bound_to 10713
  141.2024  133.6625  156.6004 LP  0  0  0  0  0  0  0  0  0  0  0  0  # atno 17394 bound_to 11000
  140.3579  134.7713  157.4513 LP  0  0  0  0  0  0  0  0  0  0  0  0  # atno 17395 bound_to 11000

$$$$
