AV-unprocessed.smi:1317|AV-procd|sdf|5456|dock2
  -GOLD-   22720 5 23D 1   1.00000     0.00000
 Structure written by MMmdl.
 31 32  0  0  0  0  0  0  0  0  1 V2000
  153.4207  142.0654  161.9834 C   0  0  0  0  0  0  0  0  0  0  0  0
  152.7070  142.9735  161.0415 C   0  0  0  0  0  0  0  0  0  0  0  0
  152.5297  142.7041  159.7455 N   0  0  0  0  0  0  0  0  0  0  0  0
  151.8357  143.7164  159.0751 C   0  0  0  0  0  0  0  0  0  0  0  0
  151.5508  143.5873  157.6094 C   0  0  0  0  0  0  0  0  0  0  0  0
  151.0035  142.1973  157.2446 C   0  0  0  0  0  0  0  0  0  0  0  0
  149.9569  142.2780  156.2322 N   0  0  0  0  0  0  0  0  0  0  0  0
  149.7683  141.3932  155.2421 C   0  0  0  0  0  0  0  0  0  0  0  0
  150.4787  140.4001  155.0806 O   0  0  0  0  0  0  0  0  0  0  0  0
  148.5963  141.6852  154.2955 C   0  0  0  0  0  0  0  0  0  0  0  0
  147.2790  142.0405  155.0064 C   0  0  0  0  0  0  0  0  0  0  0  0
  146.5477  141.1217  154.0233 C   0  0  0  0  0  0  0  0  0  0  0  0
  147.8879  140.4375  153.7380 C   0  0  0  0  0  0  0  0  0  0  0  0
  151.4866  144.7641  159.8906 C   0  0  0  0  0  0  0  0  0  0  0  0
  152.0186  144.5167  161.5309 S   0  0  0  0  0  0  0  0  0  0  0  0
  153.5456  141.0759  161.5426 H   0  0  0  0  0  0  0  0  0  0  0  0
  152.8531  141.9660  162.9087 H   0  0  0  0  0  0  0  0  0  0  0  0
  154.4047  142.4719  162.2172 H   0  0  0  0  0  0  0  0  0  0  0  0
  150.8397  144.3558  157.3031 H   0  0  0  0  0  0  0  0  0  0  0  0
  152.4602  143.7789  157.0385 H   0  0  0  0  0  0  0  0  0  0  0  0
  151.8067  141.5773  156.8451 H   0  0  0  0  0  0  0  0  0  0  0  0
  150.6287  141.6858  158.1329 H   0  0  0  0  0  0  0  0  0  0  0  0
  149.3273  143.0653  156.2896 H   0  0  0  0  0  0  0  0  0  0  0  0
  148.8406  142.4008  153.5079 H   0  0  0  0  0  0  0  0  0  0  0  0
  147.2167  141.6889  156.0378 H   0  0  0  0  0  0  0  0  0  0  0  0
  146.9952  143.0903  154.9272 H   0  0  0  0  0  0  0  0  0  0  0  0
  145.7951  140.4766  154.4772 H   0  0  0  0  0  0  0  0  0  0  0  0
  146.1550  141.6576  153.1577 H   0  0  0  0  0  0  0  0  0  0  0  0
  148.0731  140.2519  152.6797 H   0  0  0  0  0  0  0  0  0  0  0  0
  148.0322  139.5326  154.3305 H   0  0  0  0  0  0  0  0  0  0  0  0
  150.9517  145.6643  159.6264 H   0  0  0  0  0  0  0  0  0  0  0  0
  1  2  1  0  0  0  0
  1 16  1  0  0  0  0
  1 17  1  0  0  0  0
  1 18  1  0  0  0  0
  2 15  1  0  0  0  0
  2  3  2  0  0  0  0
  3  4  1  0  0  0  0
  4  5  1  0  0  0  0
  4 14  2  0  0  0  0
  5  6  1  0  0  0  0
  5 19  1  0  0  0  0
  5 20  1  0  0  0  0
  6  7  1  0  0  0  0
  6 21  1  0  0  0  0
  6 22  1  0  0  0  0
  7  8  1  0  0  0  0
  7 23  1  0  0  0  0
  8  9  2  0  0  0  0
  8 10  1  0  0  0  0
 10 13  1  0  0  0  0
 10 11  1  0  0  0  0
 10 24  1  0  0  0  0
 11 12  1  0  0  0  0
 11 25  1  0  0  0  0
 11 26  1  0  0  0  0
 12 13  1  0  0  0  0
 12 27  1  0  0  0  0
 12 28  1  0  0  0  0
 13 29  1  0  0  0  0
 13 30  1  0  0  0  0
 14 15  1  0  0  0  0
 14 31  1  0  0  0  0
M  END
> <s_m_source_file>
AV-unprocessed.smi

> <i_m_source_file_index>
1317

> <i_lp_mmshare_version>
43012

> <i_f3d_flags>
0

> <s_epik_input>
W0NIM11jMW5jKFtjSF1zMSlbQ0gyXVtDSDJdW05IXUMoPU8pW0NIXTJbQ0gyXVtDSDJdW0NIMl0y

> <s_epik_cmdline>
J2VwaWtfcHl0aG9uJywgJy1waCcsICc3LjAnLCAnLXRuJywgJzgnLCAnLW1hJywgJzIwMCcsICctbWV0YWxfYmluZGluZycsICctaW1hZScsICc8aW5maWxlLm1hZT4nLCAnLW9tYWUnLCAnPG91dGZpbGUubWFlPic=

> <r_epik_Ionization_Penalty>
0.00109666

> <r_epik_Ionization_Penalty_Charging>
0

> <r_epik_Ionization_Penalty_Neutral>
0.00109666

> <r_epik_State_Penalty>
0.000719322

> <r_epik_Charging_Adjusted_Penalty>
0.000719322

> <i_epik_Tot_Q>
0

> <i_epik_Tot_abs_Q>
0

> <r_epik_Metal_State_Penalty>
-0

> <b_epik_Metal_Only>
0

> <s_lp_Force_Field>
OPLS_2005

> <r_lp_Energy>
5.86325

> <b_lp_Chiralities_Consistent>
1

> <s_lp_Variant>
AV-unprocessed.smi:1317-1

> <Gold.Version>
5.8.1

> <Gold.Id.Protein>
6NUR|6NUR_protein|mol2

> <Gold.PLP.Fitness>
42.9329

> <Gold.PLP.PLP>
-38.8525

> <Gold.PLP.part.hbond>
-2.0000

> <Gold.PLP.part.metal>
0.0000

> <Gold.PLP.part.buried>
-2.3169

> <Gold.PLP.part.nonpolar>
-33.8806

> <Gold.PLP.part.repulsive>
0.1623

> <Gold.PLP.ligand.clash>
0.0000

> <Gold.PLP.ligand.torsion>
1.1010

> <Gold.PLP.Chemscore.Hbond>
1.9600

> <Gold.PLP.Chemscore.CHOScore>
0.0000

> <Gold.PLP.Chemscore.Metal>
0.0000

> <Gold.Chemscore.Hbonds>
donor molecule, donor type, donor heavy atom, donor atom, acceptor molecule, acceptor atom, score
      L1  H     7    23       P1  8028  0.94
      P1  H  7989  7998       L1     9  1.00

> <Gold.PLP.Chemscore.Internal.Correction>
0.4024

> <Gold.Rescore>
     Score         DG    S(hbond)    S(metal)    S(lipo)     H(rot)  DE(clash)    DE(int)     intcor
     18.09     -19.30       1.60        0.00     104.01       1.44       0.11       1.10       ----

> <Gold.Chemscore.Fitness>
18.0852

> <Gold.Chemscore.DG>
-19.2995

> <Gold.Chemscore.ZeroCoef>
-5.4800

> <Gold.Chemscore.Hbond>
1.5966

> <Gold.Chemscore.Metal>
0.0000

> <Gold.Chemscore.Lipo>
104.0089

> <Gold.Chemscore.Internal_Hbond>
0.0000

> <Gold.Chemscore.DEClash>
0.1123

> <Gold.Chemscore.DEInternal>
1.1020

> <Gold.Chemscore.Rot>
1.4383

> <Gold.Chemscore.Internal.Correction>
   9.000000E+99

> <Gold.Chemscore.Hbonds>
donor molecule, donor type, donor heavy atom, donor atom, acceptor molecule, acceptor atom, score
      L1  H     7    23       P1  8028  0.91
      P1  H  7989  7998       L1     9  0.41

> <Gold.Chemscore.Hbond.Weighted>
-5.3325

> <Gold.Chemscore.Metal.Weighted>
-0.0000

> <Gold.Chemscore.Lipo.Weighted>
-12.1690

> <Gold.Chemscore.Internal_Hbond.Weighted>
0.0000

> <Gold.Chemscore.DEClash.Weighted>
0.1123

> <Gold.Chemscore.DEInternal.Weighted>
1.1020

> <Gold.Chemscore.Rot.Weighted>
3.6820

> <Gold.Chemscore.Internal.Correction.Weighted>
   9.000000E+99

> <Gold.Protein.RotatedTorsions>
[ 6907 6896 6895 6894 ] final -117.89 input  -60.11 | X-H torsion
[ 7974 7965 7964 7962 ] final  -82.44 input  175.53 | X-H torsion
[ 8008 7997 7996 7995 ] final  113.94 input   59.86 | X-H torsion
[ 10167 10162 10161 10158 ] final  -65.81 input  -65.29 | X-H torsion
[ 10718 10713 10712 10709 ] final  -51.76 input   66.30 | X-H torsion
[ 10763 10752 10751 10750 ] final   94.91 input  -60.55 | X-H torsion
[ 11005 11000 10999 10996 ] final  -13.46 input  -57.11 | X-H torsion

> <Gold.Protein.ActiveResidues>
 VAL166  LYS551  ARG553  GLY616  TRP617  ASP618  TYR619  PRO620  LYS621  CYS622 
 ASP623  PHE694  ASN695  SER759  ASP760  ASP761  ALA762  ILE779  LEU786  VAL792 
 PHE793  MET794  SER795  GLU796  ALA797  LYS798  CYS799  TRP800  GLU811  SER814 

> <Gold.Protein.RotatedAtoms>
  150.8174  133.8312  159.3153 H   0  0  0  0  0  0  0  0  0  0  0  0  # atno 6907 bound_to 6896
  151.6080  135.1040  160.0084 H   0  0  0  0  0  0  0  0  0  0  0  0  # atno 6908 bound_to 6896
  152.4265  133.7163  159.6564 H   0  0  0  0  0  0  0  0  0  0  0  0  # atno 6909 bound_to 6896
  145.5332  140.9519  143.1591 H   0  0  0  0  0  0  0  0  0  0  0  0  # atno 7974 bound_to 7965
  156.2290  140.2969  156.0139 H   0  0  0  0  0  0  0  0  0  0  0  0  # atno 8008 bound_to 7997
  155.2278  140.0418  157.2975 H   0  0  0  0  0  0  0  0  0  0  0  0  # atno 8009 bound_to 7997
  154.5963  140.2415  155.7860 H   0  0  0  0  0  0  0  0  0  0  0  0  # atno 8010 bound_to 7997
  140.5703  143.2317  151.6552 H   0  0  0  0  0  0  0  0  0  0  0  0  # atno 10167 bound_to 10162
  156.1681  130.4149  149.9689 H   0  0  0  0  0  0  0  0  0  0  0  0  # atno 10718 bound_to 10713
  153.2471  135.4273  155.0759 H   0  0  0  0  0  0  0  0  0  0  0  0  # atno 10763 bound_to 10752
  154.8366  135.3417  154.6566 H   0  0  0  0  0  0  0  0  0  0  0  0  # atno 10764 bound_to 10752
  153.6988  135.7029  153.5125 H   0  0  0  0  0  0  0  0  0  0  0  0  # atno 10765 bound_to 10752
  140.7764  133.8398  155.9252 H   0  0  0  0  0  0  0  0  0  0  0  0  # atno 11005 bound_to 11000
  144.7615  139.6946  143.7232 LP  0  0  0  0  0  0  0  0  0  0  0  0  # atno 17320 bound_to 7965
  146.2030  139.5336  142.9731 LP  0  0  0  0  0  0  0  0  0  0  0  0  # atno 17321 bound_to 7965
  139.5114  144.3511  152.0651 LP  0  0  0  0  0  0  0  0  0  0  0  0  # atno 17342 bound_to 10162
  140.2648  144.4028  150.6172 LP  0  0  0  0  0  0  0  0  0  0  0  0  # atno 17343 bound_to 10162
  156.7497  130.9111  151.3637 LP  0  0  0  0  0  0  0  0  0  0  0  0  # atno 17370 bound_to 10713
  157.6783  130.9115  150.0204 LP  0  0  0  0  0  0  0  0  0  0  0  0  # atno 17371 bound_to 10713
  140.9525  134.1760  157.4717 LP  0  0  0  0  0  0  0  0  0  0  0  0  # atno 17394 bound_to 11000
  139.8748  134.9914  156.5549 LP  0  0  0  0  0  0  0  0  0  0  0  0  # atno 17395 bound_to 11000

$$$$
