AV-unprocessed.smi:3019|AV-procd|sdf|11485|dock5
  -GOLD-   2272016423D 1   1.00000     0.00000
 Structure written by MMmdl.
 31 32  0  0  0  0  0  0  0  0  2 V2000
  152.0609  144.6464  158.0166 C   0  0  0  0  0  0  0  0  0  0  0  0
  151.5701  143.2957  158.5579 C   0  0  0  0  0  0  0  0  0  0  0  0
  152.5563  142.6855  159.5646 C   0  0  0  0  0  0  0  0  0  0  0  0
  151.2464  142.3397  157.4505 C   0  0  0  0  0  0  0  0  0  0  0  0
  150.2978  142.5927  156.5460 N   0  0  0  0  0  0  0  0  0  0  0  0
  150.2193  141.5623  155.6778 N   0  0  0  0  0  0  0  0  0  0  0  0
  151.1710  140.7460  156.1283 C   0  0  0  0  0  0  0  0  0  0  0  0
  151.4178  139.4224  155.4743 C   0  0  2  0  0  0  0  0  0  0  0  0
  150.4510  139.1609  154.3036 C   0  0  0  0  0  0  0  0  0  0  0  0
  150.6741  137.8059  153.7629 N   0  3  0  0  0  0  0  0  0  0  0  0
  150.5691  136.7784  154.8182 C   0  0  0  0  0  0  0  0  0  0  0  0
  151.5171  137.1142  155.9835 C   0  0  0  0  0  0  0  0  0  0  0  0
  151.2357  138.4211  156.4732 O   0  0  0  0  0  0  0  0  0  0  0  0
  151.8382  141.1663  157.2466 N   0  0  0  0  0  0  0  0  0  0  0  0
  151.3210  145.0953  157.3535 H   0  0  0  0  0  0  0  0  0  0  0  0
  152.9886  144.5357  157.4541 H   0  0  0  0  0  0  0  0  0  0  0  0
  152.2468  145.3505  158.8279 H   0  0  0  0  0  0  0  0  0  0  0  0
  150.6427  143.4888  159.0993 H   0  0  0  0  0  0  0  0  0  0  0  0
  152.1657  141.7575  159.9832 H   0  0  0  0  0  0  0  0  0  0  0  0
  152.7435  143.3681  160.3939 H   0  0  0  0  0  0  0  0  0  0  0  0
  153.5152  142.4621  159.0958 H   0  0  0  0  0  0  0  0  0  0  0  0
  152.4510  139.3932  155.1216 H   0  0  0  0  0  0  0  0  0  0  0  0
  149.4157  139.2461  154.6370 H   0  0  0  0  0  0  0  0  0  0  0  0
  150.5963  139.8955  153.5111 H   0  0  0  0  0  0  0  0  0  0  0  0
  149.9955  137.6161  153.0390 H   0  0  0  0  0  0  0  0  0  0  0  0
  149.5384  136.7322  155.1726 H   0  0  0  0  0  0  0  0  0  0  0  0
  150.8092  135.8018  154.3971 H   0  0  0  0  0  0  0  0  0  0  0  0
  151.3853  136.3970  156.7939 H   0  0  0  0  0  0  0  0  0  0  0  0
  152.5597  137.0496  155.6682 H   0  0  0  0  0  0  0  0  0  0  0  0
  151.6012  137.7663  153.3641 H   0  0  0  0  0  0  0  0  0  0  0  0
  149.7050  143.4089  156.4897 H   0  0  0  0  0  0  0  0  0  0  0  0
  1  2  1  0  0  0  0
  1 15  1  0  0  0  0
  1 16  1  0  0  0  0
  1 17  1  0  0  0  0
  2  3  1  0  0  0  0
  2  4  1  0  0  0  0
  2 18  1  0  0  0  0
  3 19  1  0  0  0  0
  3 20  1  0  0  0  0
  3 21  1  0  0  0  0
  4 14  2  0  0  0  0
  4  5  1  0  0  0  0
  5  6  1  0  0  0  0
  5 31  1  0  0  0  0
  6  7  2  0  0  0  0
  7  8  1  0  0  0  0
  7 14  1  0  0  0  0
  8 13  1  0  0  0  0
  8  9  1  0  0  0  0
  8 22  1  0  0  0  0
  9 10  1  0  0  0  0
  9 23  1  0  0  0  0
  9 24  1  0  0  0  0
 10 11  1  0  0  0  0
 10 25  1  0  0  0  0
 10 30  1  0  0  0  0
 11 12  1  0  0  0  0
 11 26  1  0  0  0  0
 11 27  1  0  0  0  0
 12 13  1  0  0  0  0
 12 28  1  0  0  0  0
 12 29  1  0  0  0  0
M  CHG  1  10   1
M  END
> <s_m_source_file>
AV-unprocessed.smi

> <i_m_source_file_index>
3019

> <i_lp_mmshare_version>
43012

> <i_f3d_flags>
0

> <s_epik_input>
W0NIM11bQ0hdKFtDSDNdKWMxbltuSF1jKG4xKVtDQEBIXTJbQ0gyXVtOSF1bQ0gyXVtDSDJdTzI=

> <s_epik_cmdline>
J2VwaWtfcHl0aG9uJywgJy1waCcsICc3LjAnLCAnLXRuJywgJzgnLCAnLW1hJywgJzIwMCcsICctbWV0YWxfYmluZGluZycsICctaW1hZScsICc8aW5maWxlLm1hZT4nLCAnLW9tYWUnLCAnPG91dGZpbGUubWFlPic=

> <r_lp_tautomer_probability>
0.948284

> <r_epik_Ionization_Penalty>
0.108767

> <r_epik_Ionization_Penalty_Charging>
0.100865

> <r_epik_Ionization_Penalty_Neutral>
0.00790271

> <r_epik_State_Penalty>
0.197684

> <r_epik_Charging_Adjusted_Penalty>
0.298549

> <i_epik_Tot_Q>
1

> <i_epik_Tot_abs_Q>
1

> <r_epik_Metal_State_Penalty>
0.508163

> <b_epik_Metal_Only>
0

> <s_lp_Force_Field>
OPLS_2005

> <r_lp_Energy>
9.87406

> <b_lp_Chiralities_Consistent>
1

> <s_lp_Variant>
AV-unprocessed.smi:3019-1

> <Gold.Version>
5.8.1

> <Gold.Id.Protein>
6NUR|6NUR_protein|mol2

> <Gold.PLP.Fitness>
37.7284

> <Gold.PLP.PLP>
-28.8609

> <Gold.PLP.part.hbond>
-3.0000

> <Gold.PLP.part.metal>
0.0000

> <Gold.PLP.part.buried>
-3.2858

> <Gold.PLP.part.nonpolar>
-22.9126

> <Gold.PLP.part.repulsive>
0.2386

> <Gold.PLP.ligand.clash>
0.0000

> <Gold.PLP.ligand.torsion>
0.0816

> <Gold.PLP.Chemscore.Hbond>
2.9920

> <Gold.PLP.Chemscore.CHOScore>
0.0000

> <Gold.PLP.Chemscore.Metal>
0.0000

> <Gold.Chemscore.Hbonds>
donor molecule, donor type, donor heavy atom, donor atom, acceptor molecule, acceptor atom, score
      L1  H     5    31       P1  8028  1.00
      L1  H    10    25       P1  7948  1.87

> <Gold.PLP.Chemscore.Internal.Correction>
0.0547

> <Gold.Rescore>
     Score         DG    S(hbond)    S(metal)    S(lipo)     H(rot)  DE(clash)    DE(int)     intcor
     14.71     -15.18       1.70        0.00      62.26       1.28       0.24       0.23       ----

> <Gold.Chemscore.Fitness>
14.7060

> <Gold.Chemscore.DG>
-15.1760

> <Gold.Chemscore.ZeroCoef>
-5.4800

> <Gold.Chemscore.Hbond>
1.7028

> <Gold.Chemscore.Metal>
0.0000

> <Gold.Chemscore.Lipo>
62.2557

> <Gold.Chemscore.Internal_Hbond>
0.0000

> <Gold.Chemscore.DEClash>
0.2424

> <Gold.Chemscore.DEInternal>
0.2275

> <Gold.Chemscore.Rot>
1.2795

> <Gold.Chemscore.Internal.Correction>
   9.000000E+99

> <Gold.Chemscore.Hbonds>
donor molecule, donor type, donor heavy atom, donor atom, acceptor molecule, acceptor atom, score
      L1  H     5    31       P1  8028  0.98
      L1  H    10    25       P1  7948  0.22

> <Gold.Chemscore.Hbond.Weighted>
-5.6875

> <Gold.Chemscore.Metal.Weighted>
-0.0000

> <Gold.Chemscore.Lipo.Weighted>
-7.2839

> <Gold.Chemscore.Internal_Hbond.Weighted>
0.0000

> <Gold.Chemscore.DEClash.Weighted>
0.2424

> <Gold.Chemscore.DEInternal.Weighted>
0.2275

> <Gold.Chemscore.Rot.Weighted>
3.2754

> <Gold.Chemscore.Internal.Correction.Weighted>
   9.000000E+99

> <Gold.Protein.RotatedTorsions>
[ 6907 6896 6895 6894 ] final   39.79 input  -60.11 | X-H torsion
[ 7974 7965 7964 7962 ] final  173.86 input  175.53 | X-H torsion
[ 8008 7997 7996 7995 ] final  176.79 input   59.86 | X-H torsion
[ 10167 10162 10161 10158 ] final   45.81 input  -65.29 | X-H torsion
[ 10718 10713 10712 10709 ] final   25.15 input   66.30 | X-H torsion
[ 10763 10752 10751 10750 ] final -135.94 input  -60.55 | X-H torsion
[ 11005 11000 10999 10996 ] final  -74.43 input  -57.11 | X-H torsion

> <Gold.Protein.ActiveResidues>
 VAL166  LYS551  ARG553  GLY616  TRP617  ASP618  TYR619  PRO620  LYS621  CYS622 
 ASP623  PHE694  ASN695  SER759  ASP760  ASP761  ALA762  ILE779  LEU786  VAL792 
 PHE793  MET794  SER795  GLU796  ALA797  LYS798  CYS799  TRP800  GLU811  SER814 

> <Gold.Protein.RotatedAtoms>
  152.1741  134.8809  160.0531 H   0  0  0  0  0  0  0  0  0  0  0  0  # atno 6907 bound_to 6896
  151.9758  133.3736  159.4097 H   0  0  0  0  0  0  0  0  0  0  0  0  # atno 6908 bound_to 6896
  150.6906  134.4014  159.5164 H   0  0  0  0  0  0  0  0  0  0  0  0  # atno 6909 bound_to 6896
  144.7234  139.9710  143.6437 H   0  0  0  0  0  0  0  0  0  0  0  0  # atno 7974 bound_to 7965
  156.0726  140.1374  156.9810 H   0  0  0  0  0  0  0  0  0  0  0  0  # atno 8008 bound_to 7997
  154.4540  140.0968  156.6754 H   0  0  0  0  0  0  0  0  0  0  0  0  # atno 8009 bound_to 7997
  155.5204  140.3456  155.4408 H   0  0  0  0  0  0  0  0  0  0  0  0  # atno 8010 bound_to 7997
  140.3204  144.2713  150.6184 H   0  0  0  0  0  0  0  0  0  0  0  0  # atno 10167 bound_to 10162
  157.1895  130.6839  149.6144 H   0  0  0  0  0  0  0  0  0  0  0  0  # atno 10718 bound_to 10713
  154.8693  135.3688  154.4980 H   0  0  0  0  0  0  0  0  0  0  0  0  # atno 10763 bound_to 10752
  153.5622  135.7022  153.5547 H   0  0  0  0  0  0  0  0  0  0  0  0  # atno 10764 bound_to 10752
  153.3617  135.4044  155.1687 H   0  0  0  0  0  0  0  0  0  0  0  0  # atno 10765 bound_to 10752
  141.1635  133.6911  156.7363 H   0  0  0  0  0  0  0  0  0  0  0  0  # atno 11005 bound_to 11000
  146.0563  139.3559  143.0609 LP  0  0  0  0  0  0  0  0  0  0  0  0  # atno 17320 bound_to 7965
  145.8151  140.9707  143.0928 LP  0  0  0  0  0  0  0  0  0  0  0  0  # atno 17321 bound_to 7965
  140.5489  143.2210  151.7961 LP  0  0  0  0  0  0  0  0  0  0  0  0  # atno 17342 bound_to 10162
  139.4875  144.4503  151.9662 LP  0  0  0  0  0  0  0  0  0  0  0  0  # atno 17343 bound_to 10162
  155.9713  130.4619  150.6128 LP  0  0  0  0  0  0  0  0  0  0  0  0  # atno 17370 bound_to 10713
  157.3874  131.0790  151.1423 LP  0  0  0  0  0  0  0  0  0  0  0  0  # atno 17371 bound_to 10713
  140.2708  134.8394  157.3845 LP  0  0  0  0  0  0  0  0  0  0  0  0  # atno 17394 bound_to 11000
  140.1523  134.4833  155.7952 LP  0  0  0  0  0  0  0  0  0  0  0  0  # atno 17395 bound_to 11000

$$$$
