AV-unprocessed.smi:919|AV-procd|sdf|4165|dock1
  -GOLD-   22720 2 73D 1   1.00000     0.00000
 Structure written by MMmdl.
 43 45  0  0  0  0  0  0  0  0  1 V2000
  148.0892  137.6405  155.0107 C   0  0  0  0  0  0  0  0  0  0  0  0
  149.5859  137.6830  154.8944 C   0  0  0  0  0  0  0  0  0  0  0  0
  150.2556  136.5489  154.7760 N   0  0  0  0  0  0  0  0  0  0  0  0
  151.6038  136.9070  154.6790 O   0  0  0  0  0  0  0  0  0  0  0  0
  151.6932  138.2599  154.7418 C   0  0  0  0  0  0  0  0  0  0  0  0
  153.0592  138.8507  154.6460 C   0  0  0  0  0  0  0  0  0  0  0  0
  150.4516  138.8145  154.8820 C   0  0  0  0  0  0  0  0  0  0  0  0
  150.0904  140.2713  154.9861 C   0  0  0  0  0  0  0  0  0  0  0  0
  149.7748  140.6660  156.4371 C   0  0  0  0  0  0  0  0  0  0  0  0
  149.8726  142.1067  156.6338 N   0  0  0  0  0  0  0  0  0  0  0  0
  150.2646  142.7045  157.7716 C   0  0  0  0  0  0  0  0  0  0  0  0
  150.5776  142.0878  158.7884 O   0  0  0  0  0  0  0  0  0  0  0  0
  150.2972  144.0475  157.7176 N   0  0  0  0  0  0  0  0  0  0  0  0
  150.6775  144.9814  158.7809 C   0  0  1  0  0  0  0  0  0  0  0  0
  150.2808  144.4342  160.1702 C   0  0  0  0  0  0  0  0  0  0  0  0
  151.6213  144.3951  160.9272 C   0  0  1  0  0  0  0  0  0  0  0  0
  152.5013  143.2634  160.3627 C   0  0  0  0  0  0  0  0  0  0  0  0
  152.9473  143.8257  158.9999 C   0  0  0  0  0  0  0  0  0  0  0  0
  152.2085  145.1797  158.9362 C   0  0  2  0  0  0  0  0  0  0  0  0
  152.3167  145.6372  160.3870 C   0  0  0  0  0  0  0  0  0  0  0  0
  147.6802  138.6144  155.2785 H   0  0  0  0  0  0  0  0  0  0  0  0
  147.7737  136.9300  155.7752 H   0  0  0  0  0  0  0  0  0  0  0  0
  147.6335  137.3391  154.0673 H   0  0  0  0  0  0  0  0  0  0  0  0
  153.0873  139.6323  153.8864 H   0  0  0  0  0  0  0  0  0  0  0  0
  153.7986  138.0951  154.3798 H   0  0  0  0  0  0  0  0  0  0  0  0
  153.3545  139.2942  155.5967 H   0  0  0  0  0  0  0  0  0  0  0  0
  150.8979  140.8982  154.6070 H   0  0  0  0  0  0  0  0  0  0  0  0
  149.2296  140.4923  154.3537 H   0  0  0  0  0  0  0  0  0  0  0  0
  148.7798  140.3181  156.7209 H   0  0  0  0  0  0  0  0  0  0  0  0
  150.4775  140.1822  157.1162 H   0  0  0  0  0  0  0  0  0  0  0  0
  149.6368  142.6930  155.8466 H   0  0  0  0  0  0  0  0  0  0  0  0
  150.0350  144.4686  156.8381 H   0  0  0  0  0  0  0  0  0  0  0  0
  150.1851  145.9428  158.6230 H   0  0  0  0  0  0  0  0  0  0  0  0
  149.5828  145.1144  160.6601 H   0  0  0  0  0  0  0  0  0  0  0  0
  149.8075  143.4520  160.1310 H   0  0  0  0  0  0  0  0  0  0  0  0
  151.5096  144.3632  162.0114 H   0  0  0  0  0  0  0  0  0  0  0  0
  153.3654  143.0821  161.0031 H   0  0  0  0  0  0  0  0  0  0  0  0
  151.9531  142.3255  160.2657 H   0  0  0  0  0  0  0  0  0  0  0  0
  154.0267  143.9824  158.9915 H   0  0  0  0  0  0  0  0  0  0  0  0
  152.7125  143.1581  158.1708 H   0  0  0  0  0  0  0  0  0  0  0  0
  152.6360  145.8725  158.2110 H   0  0  0  0  0  0  0  0  0  0  0  0
  151.7733  146.5613  160.5918 H   0  0  0  0  0  0  0  0  0  0  0  0
  153.3461  145.7432  160.7341 H   0  0  0  0  0  0  0  0  0  0  0  0
  1  2  1  0  0  0  0
  1 21  1  0  0  0  0
  1 22  1  0  0  0  0
  1 23  1  0  0  0  0
  2  7  1  0  0  0  0
  2  3  2  0  0  0  0
  3  4  1  0  0  0  0
  4  5  1  0  0  0  0
  5  6  1  0  0  0  0
  5  7  2  0  0  0  0
  6 24  1  0  0  0  0
  6 25  1  0  0  0  0
  6 26  1  0  0  0  0
  7  8  1  0  0  0  0
  8  9  1  0  0  0  0
  8 27  1  0  0  0  0
  8 28  1  0  0  0  0
  9 10  1  0  0  0  0
  9 29  1  0  0  0  0
  9 30  1  0  0  0  0
 10 11  1  0  0  0  0
 10 31  1  0  0  0  0
 11 12  2  0  0  0  0
 11 13  1  0  0  0  0
 13 14  1  0  0  0  0
 13 32  1  0  0  0  0
 14 19  1  0  0  0  0
 14 15  1  0  0  0  0
 14 33  1  0  0  0  0
 15 16  1  0  0  0  0
 15 34  1  0  0  0  0
 15 35  1  0  0  0  0
 16 20  1  0  0  0  0
 16 17  1  0  0  0  0
 16 36  1  0  0  0  0
 17 18  1  0  0  0  0
 17 37  1  0  0  0  0
 17 38  1  0  0  0  0
 18 19  1  0  0  0  0
 18 39  1  0  0  0  0
 18 40  1  0  0  0  0
 19 20  1  0  0  0  0
 19 41  1  0  0  0  0
 20 42  1  0  0  0  0
 20 43  1  0  0  0  0
M  END
> <s_m_source_file>
AV-unprocessed.smi

> <i_m_source_file_index>
919

> <i_lp_mmshare_version>
43012

> <i_f3d_flags>
0

> <s_epik_input>
W0NIM11jMW5vYyhbQ0gzXSljMVtDSDJdW0NIMl1bTkhdQyg9TylbTkhdW0NASF0oW0NIMl1bQ0BASF0yMylbQ0BASF0oW0NIMl0zKVtDSDJdW0NIMl0y

> <s_epik_cmdline>
J2VwaWtfcHl0aG9uJywgJy1waCcsICc3LjAnLCAnLXRuJywgJzgnLCAnLW1hJywgJzIwMCcsICctbWV0YWxfYmluZGluZycsICctaW1hZScsICc8aW5maWxlLm1hZT4nLCAnLW9tYWUnLCAnPG91dGZpbGUubWFlPic=

> <r_lp_tautomer_probability>
1

> <r_epik_Ionization_Penalty>
6.40771e-05

> <r_epik_Ionization_Penalty_Charging>
0

> <r_epik_Ionization_Penalty_Neutral>
6.40771e-05

> <r_epik_State_Penalty>
-0

> <r_epik_Charging_Adjusted_Penalty>
0

> <i_epik_Tot_Q>
0

> <i_epik_Tot_abs_Q>
0

> <r_epik_Metal_State_Penalty>
-0

> <b_epik_Metal_Only>
0

> <s_lp_Force_Field>
OPLS_2005

> <r_lp_Energy>
47.6346

> <b_lp_Chiralities_Consistent>
1

> <s_lp_Variant>
AV-unprocessed.smi:919-2

> <Gold.Version>
5.8.1

> <Gold.Id.Protein>
6NUR|6NUR_protein|mol2

> <Gold.PLP.Fitness>
47.1599

> <Gold.PLP.PLP>
-41.9625

> <Gold.PLP.part.hbond>
-3.9620

> <Gold.PLP.part.metal>
0.0000

> <Gold.PLP.part.buried>
-5.1095

> <Gold.PLP.part.nonpolar>
-34.0705

> <Gold.PLP.part.repulsive>
0.4224

> <Gold.PLP.ligand.clash>
0.4014

> <Gold.PLP.ligand.torsion>
0.8444

> <Gold.PLP.Chemscore.Hbond>
2.4179

> <Gold.PLP.Chemscore.CHOScore>
0.0000

> <Gold.PLP.Chemscore.Metal>
0.0000

> <Gold.Chemscore.Hbonds>
donor molecule, donor type, donor heavy atom, donor atom, acceptor molecule, acceptor atom, score
      L1  H    10    31       P1  8028  0.44
      L1  H    13    32       P1  8028  1.00
      P1  H 10752 10763       L1     4  1.00

> <Gold.PLP.Chemscore.Internal.Correction>
0.0339

> <Gold.Rescore>
     Score         DG    S(hbond)    S(metal)    S(lipo)     H(rot)  DE(clash)    DE(int)     intcor
     18.49     -22.56       2.03        0.00     121.27       1.52       0.48       3.59       ----

> <Gold.Chemscore.Fitness>
18.4923

> <Gold.Chemscore.DG>
-22.5597

> <Gold.Chemscore.ZeroCoef>
-5.4800

> <Gold.Chemscore.Hbond>
2.0277

> <Gold.Chemscore.Metal>
0.0000

> <Gold.Chemscore.Lipo>
121.2693

> <Gold.Chemscore.Internal_Hbond>
0.0000

> <Gold.Chemscore.DEClash>
0.4761

> <Gold.Chemscore.DEInternal>
3.5913

> <Gold.Chemscore.Rot>
1.5161

> <Gold.Chemscore.Internal.Correction>
   9.000000E+99

> <Gold.Chemscore.Hbonds>
donor molecule, donor type, donor heavy atom, donor atom, acceptor molecule, acceptor atom, score
      L1  H    10    31       P1  8028  0.44
      L1  H    13    32       P1  8028  0.74
      P1  H 10752 10763       L1     4  0.95

> <Gold.Chemscore.Hbond.Weighted>
-6.7725

> <Gold.Chemscore.Metal.Weighted>
-0.0000

> <Gold.Chemscore.Lipo.Weighted>
-14.1885

> <Gold.Chemscore.Internal_Hbond.Weighted>
0.0000

> <Gold.Chemscore.DEClash.Weighted>
0.4761

> <Gold.Chemscore.DEInternal.Weighted>
3.5913

> <Gold.Chemscore.Rot.Weighted>
3.8813

> <Gold.Chemscore.Internal.Correction.Weighted>
   9.000000E+99

> <Gold.Protein.RotatedTorsions>
[ 6907 6896 6895 6894 ] final   51.01 input  -60.11 | X-H torsion
[ 7974 7965 7964 7962 ] final   10.30 input  175.53 | X-H torsion
[ 8008 7997 7996 7995 ] final   73.81 input   59.86 | X-H torsion
[ 10167 10162 10161 10158 ] final   27.44 input  -65.29 | X-H torsion
[ 10718 10713 10712 10709 ] final   10.45 input   66.30 | X-H torsion
[ 10763 10752 10751 10750 ] final   65.65 input  -60.55 | X-H torsion
[ 11005 11000 10999 10996 ] final  107.00 input  -57.11 | X-H torsion

> <Gold.Protein.ActiveResidues>
 VAL166  LYS551  ARG553  GLY616  TRP617  ASP618  TYR619  PRO620  LYS621  CYS622 
 ASP623  PHE694  ASN695  SER759  ASP760  ASP761  ALA762  ILE779  LEU786  VAL792 
 PHE793  MET794  SER795  GLU796  ALA797  LYS798  CYS799  TRP800  GLU811  SER814 

> <Gold.Protein.RotatedAtoms>
  152.3081  134.7531  160.0342 H   0  0  0  0  0  0  0  0  0  0  0  0  # atno 6907 bound_to 6896
  151.8021  133.3366  159.3538 H   0  0  0  0  0  0  0  0  0  0  0  0  # atno 6908 bound_to 6896
  150.7306  134.5674  159.5917 H   0  0  0  0  0  0  0  0  0  0  0  0  # atno 6909 bound_to 6896
  146.2390  139.9655  142.8453 H   0  0  0  0  0  0  0  0  0  0  0  0  # atno 7974 bound_to 7965
  155.7891  140.3480  155.5339 H   0  0  0  0  0  0  0  0  0  0  0  0  # atno 8008 bound_to 7997
  155.8652  140.0977  157.1607 H   0  0  0  0  0  0  0  0  0  0  0  0  # atno 8009 bound_to 7997
  154.4014  140.1351  156.3997 H   0  0  0  0  0  0  0  0  0  0  0  0  # atno 8010 bound_to 7997
  140.4938  144.0424  150.6307 H   0  0  0  0  0  0  0  0  0  0  0  0  # atno 10167 bound_to 10162
  156.9811  130.6006  149.5677 H   0  0  0  0  0  0  0  0  0  0  0  0  # atno 10718 bound_to 10713
  153.0105  135.5349  154.6700 H   0  0  0  0  0  0  0  0  0  0  0  0  # atno 10763 bound_to 10752
  154.5887  135.2857  155.0660 H   0  0  0  0  0  0  0  0  0  0  0  0  # atno 10764 bound_to 10752
  154.1761  135.6524  153.5074 H   0  0  0  0  0  0  0  0  0  0  0  0  # atno 10765 bound_to 10752
  139.8822  134.9387  156.5752 H   0  0  0  0  0  0  0  0  0  0  0  0  # atno 11005 bound_to 11000
  145.1730  140.9730  143.4310 LP  0  0  0  0  0  0  0  0  0  0  0  0  # atno 17320 bound_to 7965
  145.0011  139.3598  143.6167 LP  0  0  0  0  0  0  0  0  0  0  0  0  # atno 17321 bound_to 7965
  140.3701  143.2859  152.0288 LP  0  0  0  0  0  0  0  0  0  0  0  0  # atno 17342 bound_to 10162
  139.4857  144.6237  151.7207 LP  0  0  0  0  0  0  0  0  0  0  0  0  # atno 17343 bound_to 10162
  156.0244  130.5338  150.8365 LP  0  0  0  0  0  0  0  0  0  0  0  0  # atno 17370 bound_to 10713
  157.5525  131.0944  150.9675 LP  0  0  0  0  0  0  0  0  0  0  0  0  # atno 17371 bound_to 10713
  140.8068  133.8461  155.8775 LP  0  0  0  0  0  0  0  0  0  0  0  0  # atno 17394 bound_to 11000
  140.9542  134.1739  157.4704 LP  0  0  0  0  0  0  0  0  0  0  0  0  # atno 17395 bound_to 11000

$$$$
