AV-unprocessed.smi:1199|AV-procd|sdf|5015|dock1
  -GOLD-   22720 4 33D 1   1.00000     0.00000
 Structure written by MMmdl.
 40 41  0  0  0  0  0  0  0  0  2 V2000
  153.5991  139.2511  160.1118 C   0  0  0  0  0  0  0  0  0  0  0  0
  152.6681  140.3784  159.6313 C   0  0  1  0  0  0  0  0  0  0  0  0
  153.1644  141.7835  160.0546 C   0  0  0  0  0  0  0  0  0  0  0  0
  152.2722  142.9026  159.7426 N   0  0  0  0  0  0  0  0  0  0  0  0
  152.4266  144.0401  160.6452 C   0  0  0  0  0  0  0  0  0  0  0  0
  151.5107  145.2159  160.2604 C   0  0  0  0  0  0  0  0  0  0  0  0
  151.7499  145.5941  158.9093 O   0  0  0  0  0  0  0  0  0  0  0  0
  151.5428  144.5199  157.9989 C   0  0  0  0  0  0  0  0  0  0  0  0
  152.4723  143.3516  158.3681 C   0  0  0  0  0  0  0  0  0  0  0  0
  152.6013  140.2920  158.1749 N   0  0  0  0  0  0  0  0  0  0  0  0
  152.1935  139.2202  157.4774 C   0  0  0  0  0  0  0  0  0  0  0  0
  151.8267  138.1712  158.0098 O   0  0  0  0  0  0  0  0  0  0  0  0
  152.2193  139.3721  155.9483 C   0  0  0  0  0  0  0  0  0  0  0  0
  150.8941  139.2988  155.3157 N   0  0  0  0  0  0  0  0  0  0  0  0
  150.3800  140.5910  154.8713 N   0  5  0  0  0  0  0  0  0  0  0  0
  149.1766  140.6438  154.2412 C   0  0  0  0  0  0  0  0  0  0  0  0
  148.6906  141.6908  153.8195 O   0  0  0  0  0  0  0  0  0  0  0  0
  148.4389  139.4031  154.0700 C   0  0  0  0  0  0  0  0  0  0  0  0
  148.9245  138.2283  154.5174 C   0  0  0  0  0  0  0  0  0  0  0  0
  150.2136  138.1235  155.1902 C   0  0  0  0  0  0  0  0  0  0  0  0
  150.6593  137.0552  155.6097 O   0  0  0  0  0  0  0  0  0  0  0  0
  153.6924  139.2222  161.1955 H   0  0  0  0  0  0  0  0  0  0  0  0
  154.6034  139.3660  159.7021 H   0  0  0  0  0  0  0  0  0  0  0  0
  153.2244  138.2767  159.7963 H   0  0  0  0  0  0  0  0  0  0  0  0
  151.6686  140.2036  160.0344 H   0  0  0  0  0  0  0  0  0  0  0  0
  153.4077  141.7849  161.1183 H   0  0  0  0  0  0  0  0  0  0  0  0
  154.1122  141.9744  159.5487 H   0  0  0  0  0  0  0  0  0  0  0  0
  152.1799  143.7438  161.6633 H   0  0  0  0  0  0  0  0  0  0  0  0
  153.4657  144.3732  160.6494 H   0  0  0  0  0  0  0  0  0  0  0  0
  150.4617  144.9440  160.3879 H   0  0  0  0  0  0  0  0  0  0  0  0
  151.6996  146.0713  160.9090 H   0  0  0  0  0  0  0  0  0  0  0  0
  150.4978  144.2065  158.0234 H   0  0  0  0  0  0  0  0  0  0  0  0
  151.7505  144.8651  156.9860 H   0  0  0  0  0  0  0  0  0  0  0  0
  153.5095  143.6605  158.2277 H   0  0  0  0  0  0  0  0  0  0  0  0
  152.2978  142.5245  157.6791 H   0  0  0  0  0  0  0  0  0  0  0  0
  152.8890  141.1087  157.6560 H   0  0  0  0  0  0  0  0  0  0  0  0
  152.6904  140.3226  155.6911 H   0  0  0  0  0  0  0  0  0  0  0  0
  152.8777  138.6011  155.5443 H   0  0  0  0  0  0  0  0  0  0  0  0
  147.4789  139.4246  153.5756 H   0  0  0  0  0  0  0  0  0  0  0  0
  148.3415  137.3315  154.3702 H   0  0  0  0  0  0  0  0  0  0  0  0
  1  2  1  0  0  0  0
  1 22  1  0  0  0  0
  1 23  1  0  0  0  0
  1 24  1  0  0  0  0
  2  3  1  0  0  0  0
  2 10  1  0  0  0  0
  2 25  1  0  0  0  0
  3  4  1  0  0  0  0
  3 26  1  0  0  0  0
  3 27  1  0  0  0  0
  4  9  1  0  0  0  0
  4  5  1  0  0  0  0
  5  6  1  0  0  0  0
  5 28  1  0  0  0  0
  5 29  1  0  0  0  0
  6  7  1  0  0  0  0
  6 30  1  0  0  0  0
  6 31  1  0  0  0  0
  7  8  1  0  0  0  0
  8  9  1  0  0  0  0
  8 32  1  0  0  0  0
  8 33  1  0  0  0  0
  9 34  1  0  0  0  0
  9 35  1  0  0  0  0
 10 11  1  0  0  0  0
 10 36  1  0  0  0  0
 11 12  2  0  0  0  0
 11 13  1  0  0  0  0
 13 37  1  0  0  0  0
 13 38  1  0  0  0  0
 13 14  1  0  0  0  0
 14 15  1  0  0  0  0
 14 20  1  0  0  0  0
 15 16  1  0  0  0  0
 16 17  2  0  0  0  0
 16 18  1  0  0  0  0
 18 39  1  0  0  0  0
 18 19  2  0  0  0  0
 19 40  1  0  0  0  0
 19 20  1  0  0  0  0
 20 21  2  0  0  0  0
M  CHG  1  15  -1
M  END
> <s_m_source_file>
AV-unprocessed.smi

> <i_m_source_file_index>
1199

> <i_lp_mmshare_version>
43012

> <i_f3d_flags>
0

> <s_epik_input>
W0NIMl0xW0NIMl1PW0NIMl1bQ0gyXU4xW0NIMl1bQ0BASF0oW0NIM10pW05IXUMoPU8pW0NIMl1uMltuSF1jKD1PKVtjSF1bY0hdYzI9Tw==

> <s_epik_cmdline>
J2VwaWtfcHl0aG9uJywgJy1waCcsICc3LjAnLCAnLXRuJywgJzgnLCAnLW1hJywgJzIwMCcsICctbWV0YWxfYmluZGluZycsICctaW1hZScsICc8aW5maWxlLm1hZT4nLCAnLW9tYWUnLCAnPG91dGZpbGUubWFlPic=

> <r_lp_tautomer_probability>
1

> <r_epik_Ionization_Penalty>
0.334996

> <r_epik_Ionization_Penalty_Charging>
0.0976136

> <r_epik_Ionization_Penalty_Neutral>
0.237382

> <r_epik_State_Penalty>
0.26804

> <r_epik_Charging_Adjusted_Penalty>
0.365653

> <i_epik_Tot_Q>
-1

> <i_epik_Tot_abs_Q>
1

> <r_epik_Metal_State_Penalty>
0.26804

> <b_epik_Metal_Only>
0

> <s_lp_Force_Field>
OPLS_2005

> <r_lp_Energy>
39.9629

> <b_lp_Chiralities_Consistent>
1

> <s_lp_Variant>
AV-unprocessed.smi:1199-2

> <Gold.Version>
5.8.1

> <Gold.Id.Protein>
6NUR|6NUR_protein|mol2

> <Gold.PLP.Fitness>
43.5288

> <Gold.PLP.PLP>
-39.7689

> <Gold.PLP.part.hbond>
-3.0000

> <Gold.PLP.part.metal>
0.0000

> <Gold.PLP.part.buried>
-4.4679

> <Gold.PLP.part.nonpolar>
-32.6112

> <Gold.PLP.part.repulsive>
0.5650

> <Gold.PLP.ligand.clash>
0.0000

> <Gold.PLP.ligand.torsion>
0.4935

> <Gold.PLP.Chemscore.Hbond>
1.5360

> <Gold.PLP.Chemscore.CHOScore>
0.0000

> <Gold.PLP.Chemscore.Metal>
0.0000

> <Gold.Chemscore.Hbonds>
donor molecule, donor type, donor heavy atom, donor atom, acceptor molecule, acceptor atom, score
      P1  H  7989  7998       L1    15  0.85
      P1  H  8011  8017       L1    17  0.61

> <Gold.PLP.Chemscore.Internal.Correction>
0.1391

> <Gold.Rescore>
     Score         DG    S(hbond)    S(metal)    S(lipo)     H(rot)  DE(clash)    DE(int)     intcor
      9.54     -13.10       0.84        0.00      91.32       2.30       0.53       3.03       ----

> <Gold.Chemscore.Fitness>
9.5421

> <Gold.Chemscore.DG>
-13.1017

> <Gold.Chemscore.ZeroCoef>
-5.4800

> <Gold.Chemscore.Hbond>
0.8425

> <Gold.Chemscore.Metal>
0.0000

> <Gold.Chemscore.Lipo>
91.3196

> <Gold.Chemscore.Internal_Hbond>
0.0000

> <Gold.Chemscore.DEClash>
0.5300

> <Gold.Chemscore.DEInternal>
3.0296

> <Gold.Chemscore.Rot>
2.2955

> <Gold.Chemscore.Internal.Correction>
   9.000000E+99

> <Gold.Chemscore.Hbonds>
donor molecule, donor type, donor heavy atom, donor atom, acceptor molecule, acceptor atom, score
      P1  H  7989  7998       L1    15  0.07
      P1  H  8011  8017       L1    17  0.46

> <Gold.Chemscore.Hbond.Weighted>
-2.8139

> <Gold.Chemscore.Metal.Weighted>
-0.0000

> <Gold.Chemscore.Lipo.Weighted>
-10.6844

> <Gold.Chemscore.Internal_Hbond.Weighted>
0.0000

> <Gold.Chemscore.DEClash.Weighted>
0.5300

> <Gold.Chemscore.DEInternal.Weighted>
3.0296

> <Gold.Chemscore.Rot.Weighted>
5.8766

> <Gold.Chemscore.Internal.Correction.Weighted>
   9.000000E+99

> <Gold.Protein.RotatedTorsions>
[ 6907 6896 6895 6894 ] final   69.30 input  -60.11 | X-H torsion
[ 7974 7965 7964 7962 ] final   49.59 input  175.53 | X-H torsion
[ 8008 7997 7996 7995 ] final   84.37 input   59.86 | X-H torsion
[ 10167 10162 10161 10158 ] final  116.81 input  -65.29 | X-H torsion
[ 10718 10713 10712 10709 ] final  104.42 input   66.30 | X-H torsion
[ 10763 10752 10751 10750 ] final   39.19 input  -60.55 | X-H torsion
[ 11005 11000 10999 10996 ] final  -15.31 input  -57.11 | X-H torsion

> <Gold.Protein.ActiveResidues>
 VAL166  LYS551  ARG553  GLY616  TRP617  ASP618  TYR619  PRO620  LYS621  CYS622 
 ASP623  PHE694  ASN695  SER759  ASP760  ASP761  ALA762  ILE779  LEU786  VAL792 
 PHE793  MET794  SER795  GLU796  ALA797  LYS798  CYS799  TRP800  GLU811  SER814 

> <Gold.Protein.RotatedAtoms>
  152.4677  134.5036  159.9732 H   0  0  0  0  0  0  0  0  0  0  0  0  # atno 6907 bound_to 6896
  151.5070  133.3487  159.2886 H   0  0  0  0  0  0  0  0  0  0  0  0  # atno 6908 bound_to 6896
  150.8670  134.8063  159.7188 H   0  0  0  0  0  0  0  0  0  0  0  0  # atno 6909 bound_to 6896
  146.0094  139.4526  142.9966 H   0  0  0  0  0  0  0  0  0  0  0  0  # atno 7974 bound_to 7965
  155.9361  140.3411  155.6289 H   0  0  0  0  0  0  0  0  0  0  0  0  # atno 8008 bound_to 7997
  155.7097  140.0770  157.2395 H   0  0  0  0  0  0  0  0  0  0  0  0  # atno 8009 bound_to 7997
  154.4094  140.1625  156.2270 H   0  0  0  0  0  0  0  0  0  0  0  0  # atno 8010 bound_to 7997
  139.6221  144.7102  151.2611 H   0  0  0  0  0  0  0  0  0  0  0  0  # atno 10167 bound_to 10162
  157.6741  131.0803  150.5703 H   0  0  0  0  0  0  0  0  0  0  0  0  # atno 10718 bound_to 10713
  152.9975  135.6228  154.2425 H   0  0  0  0  0  0  0  0  0  0  0  0  # atno 10763 bound_to 10752
  154.2165  135.2797  155.2942 H   0  0  0  0  0  0  0  0  0  0  0  0  # atno 10764 bound_to 10752
  154.5564  135.5718  153.7026 H   0  0  0  0  0  0  0  0  0  0  0  0  # atno 10765 bound_to 10752
  140.7953  133.8256  155.9418 H   0  0  0  0  0  0  0  0  0  0  0  0  # atno 11005 bound_to 11000
  145.7366  141.0023  143.1323 LP  0  0  0  0  0  0  0  0  0  0  0  0  # atno 17320 bound_to 7965
  144.6947  139.9048  143.7460 LP  0  0  0  0  0  0  0  0  0  0  0  0  # atno 17321 bound_to 7965
  140.7388  143.6635  150.8143 LP  0  0  0  0  0  0  0  0  0  0  0  0  # atno 17342 bound_to 10162
  140.0248  143.5505  152.2785 LP  0  0  0  0  0  0  0  0  0  0  0  0  # atno 17343 bound_to 10162
  156.6004  130.4353  149.5899 LP  0  0  0  0  0  0  0  0  0  0  0  0  # atno 17370 bound_to 10713
  156.2511  130.6907  151.1645 LP  0  0  0  0  0  0  0  0  0  0  0  0  # atno 17371 bound_to 10713
  140.9349  134.1975  157.4838 LP  0  0  0  0  0  0  0  0  0  0  0  0  # atno 17394 bound_to 11000
  139.8727  134.9848  156.5255 LP  0  0  0  0  0  0  0  0  0  0  0  0  # atno 17395 bound_to 11000

$$$$
