AV-unprocessed.smi:99|AV-procd|sdf|879|dock5
  -GOLD-   2262017353D 1   1.00000     0.00000
 Structure written by MMmdl.
 53 56  0  0  0  0  0  0  0  0  1 V2000
  147.0271  132.6568  159.0203 O   0  0  0  0  0  0  0  0  0  0  0  0
  147.1199  133.8850  159.0662 C   0  0  0  0  0  0  0  0  0  0  0  0
  147.3919  134.6528  157.9937 O   0  0  0  0  0  0  0  0  0  0  0  0
  147.5486  134.0556  156.7179 C   0  0  0  0  0  0  0  0  0  0  0  0
  148.9354  133.3927  156.6383 C   0  0  2  0  0  0  0  0  0  0  0  0
  149.8749  134.1373  157.4146 O   0  0  0  0  0  0  0  0  0  0  0  0
  150.6445  134.9945  156.6142 C   0  0  2  0  0  0  0  0  0  0  0  0
  150.4789  136.4251  157.0894 N   0  0  0  0  0  0  0  0  0  0  0  0
  149.6767  136.7673  158.1719 C   0  0  0  0  0  0  0  0  0  0  0  0
  149.5240  138.0415  158.6039 C   0  0  0  0  0  0  0  0  0  0  0  0
  150.2168  139.1387  157.9365 C   0  0  0  0  0  0  0  0  0  0  0  0
  150.1406  140.3233  158.2551 O   0  0  0  0  0  0  0  0  0  0  0  0
  151.0161  138.7495  156.8580 N   0  0  0  0  0  0  0  0  0  0  0  0
  151.1806  137.4403  156.4035 C   0  0  0  0  0  0  0  0  0  0  0  0
  151.9102  137.2073  155.4404 O   0  0  0  0  0  0  0  0  0  0  0  0
  150.2085  134.7799  155.1468 C   0  0  2  0  0  0  0  0  0  0  0  0
  149.2956  135.7647  154.6858 O   0  0  0  0  0  0  0  0  0  0  0  0
  149.5642  133.4046  155.2459 C   0  0  2  0  0  0  0  0  0  0  0  0
  148.6613  133.1014  154.1875 O   0  0  0  0  0  0  0  0  0  0  0  0
  148.0957  131.8808  154.0826 C   0  0  0  0  0  0  0  0  0  0  0  0
  148.3110  130.9575  154.8702 O   0  0  0  0  0  0  0  0  0  0  0  0
  147.1869  131.7665  152.9060 C   0  0  0  0  0  0  0  0  0  0  0  0
  147.0409  132.8690  152.0319 C   0  0  0  0  0  0  0  0  0  0  0  0
  146.1867  132.7902  150.9148 C   0  0  0  0  0  0  0  0  0  0  0  0
  145.4672  131.6084  150.6587 C   0  0  0  0  0  0  0  0  0  0  0  0
  145.6037  130.5047  151.5206 C   0  0  0  0  0  0  0  0  0  0  0  0
  146.4582  130.5811  152.6376 C   0  0  0  0  0  0  0  0  0  0  0  0
  146.9429  134.6780  160.3163 C   0  0  0  0  0  0  0  0  0  0  0  0
  147.0460  136.0879  160.2632 C   0  0  0  0  0  0  0  0  0  0  0  0
  146.8855  136.8631  161.4281 C   0  0  0  0  0  0  0  0  0  0  0  0
  146.6215  136.2377  162.6607 C   0  0  0  0  0  0  0  0  0  0  0  0
  146.5183  134.8359  162.7270 C   0  0  0  0  0  0  0  0  0  0  0  0
  146.6777  134.0590  161.5629 C   0  0  0  0  0  0  0  0  0  0  0  0
  151.5154  139.4765  156.3666 H   0  0  0  0  0  0  0  0  0  0  0  0
  146.7665  133.3071  156.5857 H   0  0  0  0  0  0  0  0  0  0  0  0
  147.4213  134.8021  155.9343 H   0  0  0  0  0  0  0  0  0  0  0  0
  148.8689  132.3699  157.0107 H   0  0  0  0  0  0  0  0  0  0  0  0
  151.6938  134.7464  156.7880 H   0  0  0  0  0  0  0  0  0  0  0  0
  149.1403  136.0045  158.7136 H   0  0  0  0  0  0  0  0  0  0  0  0
  148.8863  138.2503  159.4507 H   0  0  0  0  0  0  0  0  0  0  0  0
  151.0825  134.7777  154.4948 H   0  0  0  0  0  0  0  0  0  0  0  0
  149.1164  135.6035  153.7721 H   0  0  0  0  0  0  0  0  0  0  0  0
  150.3617  132.6596  155.2606 H   0  0  0  0  0  0  0  0  0  0  0  0
  147.5824  133.7873  152.2087 H   0  0  0  0  0  0  0  0  0  0  0  0
  146.0834  133.6382  150.2537 H   0  0  0  0  0  0  0  0  0  0  0  0
  144.8112  131.5488  149.8026 H   0  0  0  0  0  0  0  0  0  0  0  0
  145.0513  129.5972  151.3262 H   0  0  0  0  0  0  0  0  0  0  0  0
  146.5385  129.7153  153.2787 H   0  0  0  0  0  0  0  0  0  0  0  0
  147.2480  136.5903  159.3279 H   0  0  0  0  0  0  0  0  0  0  0  0
  146.9647  137.9388  161.3753 H   0  0  0  0  0  0  0  0  0  0  0  0
  146.4981  136.8322  163.5538 H   0  0  0  0  0  0  0  0  0  0  0  0
  146.3163  134.3545  163.6726 H   0  0  0  0  0  0  0  0  0  0  0  0
  146.5948  132.9853  161.6495 H   0  0  0  0  0  0  0  0  0  0  0  0
  1  2  2  0  0  0  0
  2  3  1  0  0  0  0
  2 28  1  0  0  0  0
  3  4  1  0  0  0  0
  4  5  1  0  0  0  0
  4 35  1  0  0  0  0
  4 36  1  0  0  0  0
  5 18  1  0  0  0  0
  5  6  1  0  0  0  0
  5 37  1  0  0  0  0
  6  7  1  0  0  0  0
  7  8  1  0  0  0  0
  7 16  1  0  0  0  0
  7 38  1  0  0  0  0
  8 14  1  0  0  0  0
  8  9  1  0  0  0  0
  9 10  2  0  0  0  0
  9 39  1  0  0  0  0
 10 11  1  0  0  0  0
 10 40  1  0  0  0  0
 11 12  2  0  0  0  0
 11 13  1  0  0  0  0
 13 34  1  0  0  0  0
 13 14  1  0  0  0  0
 14 15  2  0  0  0  0
 16 17  1  0  0  0  0
 16 18  1  0  0  0  0
 16 41  1  0  0  0  0
 17 42  1  0  0  0  0
 18 19  1  0  0  0  0
 18 43  1  0  0  0  0
 19 20  1  0  0  0  0
 20 21  2  0  0  0  0
 20 22  1  0  0  0  0
 22 27  1  0  0  0  0
 22 23  2  0  0  0  0
 23 24  1  0  0  0  0
 23 44  1  0  0  0  0
 24 25  2  0  0  0  0
 24 45  1  0  0  0  0
 25 26  1  0  0  0  0
 25 46  1  0  0  0  0
 26 27  2  0  0  0  0
 26 47  1  0  0  0  0
 27 48  1  0  0  0  0
 28 33  1  0  0  0  0
 28 29  2  0  0  0  0
 29 30  1  0  0  0  0
 29 49  1  0  0  0  0
 30 31  2  0  0  0  0
 30 50  1  0  0  0  0
 31 32  1  0  0  0  0
 31 51  1  0  0  0  0
 32 33  2  0  0  0  0
 32 52  1  0  0  0  0
 33 53  1  0  0  0  0
M  END
> <s_m_source_file>
AV-unprocessed.smi

> <i_m_source_file_index>
99

> <i_lp_mmshare_version>
43012

> <i_f3d_flags>
0

> <s_epik_input>
W2NIXTFbY0hdW2NIXVtjSF1bY0hdYzFDKD1PKU9bQ0gyXVtDQEBIXTJPW0NAQEhdKG4zW2NIXVtjSF1jKD1PKVtuSF1jMz1PKVtDQEBIXShbT0hdKVtDQEhdMk9DKD1PKWM0W2NIXVtjSF1bY0hdW2NIXVtjSF00

> <s_epik_cmdline>
J2VwaWtfcHl0aG9uJywgJy1waCcsICc3LjAnLCAnLXRuJywgJzgnLCAnLW1hJywgJzIwMCcsICctbWV0YWxfYmluZGluZycsICctaW1hZScsICc8aW5maWxlLm1hZT4nLCAnLW9tYWUnLCAnPG91dGZpbGUubWFlPic=

> <r_lp_tautomer_probability>
1

> <r_epik_Ionization_Penalty>
0.00454555

> <r_epik_Ionization_Penalty_Charging>
0.0045191

> <r_epik_Ionization_Penalty_Neutral>
2.64449e-05

> <r_epik_State_Penalty>
-0

> <r_epik_Charging_Adjusted_Penalty>
0.0045191

> <i_epik_Tot_Q>
0

> <i_epik_Tot_abs_Q>
0

> <r_epik_Metal_State_Penalty>
1.27877

> <b_epik_Metal_Only>
0

> <s_epik_Chemistry_Notes>
This compound has an ester and may undergo hydrolysis at high or low pH. This compound contains an acetal/aminal-like group ( X-CH(R)-Y where X, Y are N, S, or O) that may be acid/base labile, releasing an aldehyde.

> <s_lp_Force_Field>
OPLS_2005

> <r_lp_Energy>
46.8858

> <b_lp_Chiralities_Consistent>
1

> <s_lp_Variant>
AV-unprocessed.smi:99-15

> <Gold.Version>
5.8.1

> <Gold.Id.Protein>
6NUR|6NUR_protein|mol2

> <Gold.PLP.Fitness>
57.7891

> <Gold.PLP.PLP>
-50.9232

> <Gold.PLP.part.hbond>
-3.0000

> <Gold.PLP.part.metal>
0.0000

> <Gold.PLP.part.buried>
-7.5040

> <Gold.PLP.part.nonpolar>
-41.1607

> <Gold.PLP.part.repulsive>
0.2485

> <Gold.PLP.ligand.clash>
0.0000

> <Gold.PLP.ligand.torsion>
0.4630

> <Gold.PLP.Chemscore.Hbond>
2.5105

> <Gold.PLP.Chemscore.CHOScore>
0.0000

> <Gold.PLP.Chemscore.Metal>
0.0000

> <Gold.Chemscore.Hbonds>
donor molecule, donor type, donor heavy atom, donor atom, acceptor molecule, acceptor atom, score
      L1  H    17    42       P1  7948  1.00
      P1  H  6896  6909       L1     6  0.80
      P1  H 10752 10764       L1    15  0.74

> <Gold.PLP.Chemscore.Internal.Correction>
0.2604

> <Gold.Rescore>
     Score         DG    S(hbond)    S(metal)    S(lipo)     H(rot)  DE(clash)    DE(int)     intcor
     17.32     -18.16       2.15        0.00     116.71       3.19       0.01       0.82       ----

> <Gold.Chemscore.Fitness>
17.3221

> <Gold.Chemscore.DG>
-18.1601

> <Gold.Chemscore.ZeroCoef>
-5.4800

> <Gold.Chemscore.Hbond>
2.1535

> <Gold.Chemscore.Metal>
0.0000

> <Gold.Chemscore.Lipo>
116.7055

> <Gold.Chemscore.Internal_Hbond>
0.0000

> <Gold.Chemscore.DEClash>
0.0136

> <Gold.Chemscore.DEInternal>
0.8244

> <Gold.Chemscore.Rot>
3.1903

> <Gold.Chemscore.Internal.Correction>
   9.000000E+99

> <Gold.Chemscore.Hbonds>
donor molecule, donor type, donor heavy atom, donor atom, acceptor molecule, acceptor atom, score
      L1  H    17    42       P1  7948  0.69
      P1  H  6896  6909       L1     6  0.60
      P1  H 10752 10764       L1    15  0.72

> <Gold.Chemscore.Hbond.Weighted>
-7.1926

> <Gold.Chemscore.Metal.Weighted>
-0.0000

> <Gold.Chemscore.Lipo.Weighted>
-13.6545

> <Gold.Chemscore.Internal_Hbond.Weighted>
0.0000

> <Gold.Chemscore.DEClash.Weighted>
0.0136

> <Gold.Chemscore.DEInternal.Weighted>
0.8244

> <Gold.Chemscore.Rot.Weighted>
8.1671

> <Gold.Chemscore.Internal.Correction.Weighted>
   9.000000E+99

> <Gold.Protein.RotatedTorsions>
[ 6907 6896 6895 6894 ] final   -0.59 input  -60.11 | X-H torsion
[ 7974 7965 7964 7962 ] final  -32.24 input  175.53 | X-H torsion
[ 8008 7997 7996 7995 ] final  -78.95 input   59.86 | X-H torsion
[ 10167 10162 10161 10158 ] final    3.82 input  -65.29 | X-H torsion
[ 10718 10713 10712 10709 ] final -131.71 input   66.30 | X-H torsion
[ 10763 10752 10751 10750 ] final  -63.87 input  -60.55 | X-H torsion
[ 11005 11000 10999 10996 ] final   79.21 input  -57.11 | X-H torsion

> <Gold.Protein.ActiveResidues>
 VAL166  LYS551  ARG553  GLY616  TRP617  ASP618  TYR619  PRO620  LYS621  CYS622 
 ASP623  PHE694  ASN695  SER759  ASP760  ASP761  ALA762  ILE779  LEU786  VAL792 
 PHE793  MET794  SER795  GLU796  ALA797  LYS798  CYS799  TRP800  GLU811  SER814 

> <Gold.Protein.RotatedAtoms>
  151.5598  135.1066  159.9969 H   0  0  0  0  0  0  0  0  0  0  0  0  # atno 6907 bound_to 6896
  152.4452  133.7518  159.6709 H   0  0  0  0  0  0  0  0  0  0  0  0  # atno 6908 bound_to 6896
  150.8366  133.7936  159.3101 H   0  0  0  0  0  0  0  0  0  0  0  0  # atno 6909 bound_to 6896
  146.1005  140.5768  142.8823 H   0  0  0  0  0  0  0  0  0  0  0  0  # atno 7974 bound_to 7965
  154.5738  140.0686  156.9004 H   0  0  0  0  0  0  0  0  0  0  0  0  # atno 8008 bound_to 7997
  155.2585  140.3357  155.4257 H   0  0  0  0  0  0  0  0  0  0  0  0  # atno 8009 bound_to 7997
  156.2139  140.1770  156.7619 H   0  0  0  0  0  0  0  0  0  0  0  0  # atno 8010 bound_to 7997
  140.6566  143.7411  150.7665 H   0  0  0  0  0  0  0  0  0  0  0  0  # atno 10167 bound_to 10162
  156.2272  130.7015  151.0819 H   0  0  0  0  0  0  0  0  0  0  0  0  # atno 10718 bound_to 10713
  154.3216  135.6195  153.5510 H   0  0  0  0  0  0  0  0  0  0  0  0  # atno 10763 bound_to 10752
  152.9819  135.5725  154.5064 H   0  0  0  0  0  0  0  0  0  0  0  0  # atno 10764 bound_to 10752
  154.4733  135.2860  155.1603 H   0  0  0  0  0  0  0  0  0  0  0  0  # atno 10765 bound_to 10752
  139.9182  134.7824  156.1749 H   0  0  0  0  0  0  0  0  0  0  0  0  # atno 11005 bound_to 11000
  144.7429  140.4990  143.6856 LP  0  0  0  0  0  0  0  0  0  0  0  0  # atno 17320 bound_to 7965
  145.5864  139.1492  143.3207 LP  0  0  0  0  0  0  0  0  0  0  0  0  # atno 17321 bound_to 7965
  140.1072  143.4733  152.2391 LP  0  0  0  0  0  0  0  0  0  0  0  0  # atno 17342 bound_to 10162
  139.5790  144.7501  151.3688 LP  0  0  0  0  0  0  0  0  0  0  0  0  # atno 17343 bound_to 10162
  157.7116  131.0731  150.6480 LP  0  0  0  0  0  0  0  0  0  0  0  0  # atno 17370 bound_to 10713
  156.6546  130.4495  149.5708 LP  0  0  0  0  0  0  0  0  0  0  0  0  # atno 17371 bound_to 10713
  141.0678  133.6811  156.2079 LP  0  0  0  0  0  0  0  0  0  0  0  0  # atno 17394 bound_to 11000
  140.6557  134.5020  157.5580 LP  0  0  0  0  0  0  0  0  0  0  0  0  # atno 17395 bound_to 11000

$$$$
