AV-unprocessed.smi:107|AV-procd|sdf|1021|dock1
  -GOLD-   2262018 23D 1   1.00000     0.00000
 Structure written by MMmdl.
 30 31  0  0  0  0  0  0  0  0  2 V2000
  151.7578  144.7637  158.5075 C   0  0  0  0  0  0  0  0  0  0  0  0
  151.6148  143.2526  158.5630 C   0  0  0  0  0  0  0  0  0  0  0  0
  150.9037  142.5612  157.6445 C   0  0  0  0  0  0  0  0  0  0  0  0
  150.7777  141.1822  157.6972 N   0  0  0  0  0  0  0  0  0  0  0  0
  149.9724  140.4106  156.6677 C   0  0  2  0  0  0  0  0  0  0  0  0
  150.5650  140.5940  155.2576 C   0  0  0  0  0  0  0  0  0  0  0  0
  149.3849  141.0960  154.4431 C   0  0  1  0  0  0  0  0  0  0  0  0
  148.7263  140.0200  153.7994 O   0  0  0  0  0  0  0  0  0  0  0  0
  148.4998  141.7588  155.5038 C   0  0  1  0  0  0  0  0  0  0  0  0
  147.0160  141.9154  155.1290 C   0  0  0  0  0  0  0  0  0  0  0  0
  146.8587  142.9663  154.1995 O   0  0  0  0  0  0  0  0  0  0  0  0
  148.6610  140.8949  156.6237 O   0  0  0  0  0  0  0  0  0  0  0  0
  151.3910  140.4657  158.7587 C   0  0  0  0  0  0  0  0  0  0  0  0
  151.2438  139.2435  158.7915 O   0  0  0  0  0  0  0  0  0  0  0  0
  152.1124  141.1545  159.6882 N   0  5  0  0  0  0  0  0  0  0  0  0
  152.2659  142.5090  159.6480 C   0  0  0  0  0  0  0  0  0  0  0  0
  152.9274  143.1174  160.4889 O   0  0  0  0  0  0  0  0  0  0  0  0
  151.2011  145.1847  157.6697 H   0  0  0  0  0  0  0  0  0  0  0  0
  152.8054  145.0423  158.3913 H   0  0  0  0  0  0  0  0  0  0  0  0
  151.3803  145.2165  159.4248 H   0  0  0  0  0  0  0  0  0  0  0  0
  150.4241  143.1164  156.8535 H   0  0  0  0  0  0  0  0  0  0  0  0
  149.9654  139.3772  157.0181 H   0  0  0  0  0  0  0  0  0  0  0  0
  151.3525  141.3493  155.2809 H   0  0  0  0  0  0  0  0  0  0  0  0
  150.9918  139.6608  154.8875 H   0  0  0  0  0  0  0  0  0  0  0  0
  149.6973  141.8093  153.6797 H   0  0  0  0  0  0  0  0  0  0  0  0
  148.9303  140.0500  152.8773 H   0  0  0  0  0  0  0  0  0  0  0  0
  148.9308  142.7339  155.7385 H   0  0  0  0  0  0  0  0  0  0  0  0
  146.6504  141.0044  154.6545 H   0  0  0  0  0  0  0  0  0  0  0  0
  146.3994  142.0950  156.0103 H   0  0  0  0  0  0  0  0  0  0  0  0
  147.4255  143.6787  154.4525 H   0  0  0  0  0  0  0  0  0  0  0  0
  1  2  1  0  0  0  0
  1 18  1  0  0  0  0
  1 19  1  0  0  0  0
  1 20  1  0  0  0  0
  2 16  1  0  0  0  0
  2  3  2  0  0  0  0
  3  4  1  0  0  0  0
  3 21  1  0  0  0  0
  4  5  1  0  0  0  0
  4 13  1  0  0  0  0
  5 12  1  0  0  0  0
  5  6  1  0  0  0  0
  5 22  1  0  0  0  0
  6  7  1  0  0  0  0
  6 23  1  0  0  0  0
  6 24  1  0  0  0  0
  7  8  1  0  0  0  0
  7  9  1  0  0  0  0
  7 25  1  0  0  0  0
  8 26  1  0  0  0  0
  9 10  1  0  0  0  0
  9 12  1  0  0  0  0
  9 27  1  0  0  0  0
 10 11  1  0  0  0  0
 10 28  1  0  0  0  0
 10 29  1  0  0  0  0
 11 30  1  0  0  0  0
 13 14  2  0  0  0  0
 13 15  1  0  0  0  0
 15 16  1  0  0  0  0
 16 17  2  0  0  0  0
M  CHG  1  15  -1
M  END
> <s_m_source_file>
AV-unprocessed.smi

> <i_m_source_file_index>
107

> <i_lp_mmshare_version>
43012

> <i_f3d_flags>
0

> <s_epik_input>
Tz1jMVtuSF1jKD1PKW4oW2NIXWMxW0NIM10pW0NAQEhdMltDSDJdW0NAQEhdKFtPSF0pW0NASF0oTzIpW0NIMl1bT0hd

> <s_epik_cmdline>
J2VwaWtfcHl0aG9uJywgJy1waCcsICc3LjAnLCAnLXRuJywgJzgnLCAnLW1hJywgJzIwMCcsICctbWV0YWxfYmluZGluZycsICctaW1hZScsICc8aW5maWxlLm1hZT4nLCAnLW9tYWUnLCAnPG91dGZpbGUubWFlPic=

> <r_lp_tautomer_probability>
0.999537

> <r_epik_Ionization_Penalty>
3.66603

> <r_epik_Ionization_Penalty_Charging>
1.09773e-07

> <r_epik_Ionization_Penalty_Neutral>
3.66603

> <r_epik_State_Penalty>
3.66562

> <r_epik_Charging_Adjusted_Penalty>
3.66562

> <i_epik_Tot_Q>
-1

> <i_epik_Tot_abs_Q>
1

> <r_epik_Metal_State_Penalty>
0.234536

> <b_epik_Metal_Only>
1

> <s_epik_Chemistry_Notes>
This compound contains an acetal/aminal-like group ( X-CH(R)-Y where X, Y are N, S, or O) that may be acid/base labile, releasing an aldehyde.

> <s_lp_Force_Field>
OPLS_2005

> <r_lp_Energy>
39.3758

> <b_lp_Chiralities_Consistent>
1

> <s_lp_Variant>
AV-unprocessed.smi:107-9

> <Gold.Version>
5.8.1

> <Gold.Id.Protein>
6NUR|6NUR_protein|mol2

> <Gold.PLP.Fitness>
39.2019

> <Gold.PLP.PLP>
-30.7644

> <Gold.PLP.part.hbond>
-2.8645

> <Gold.PLP.part.metal>
0.0000

> <Gold.PLP.part.buried>
0.0542

> <Gold.PLP.part.nonpolar>
-27.2378

> <Gold.PLP.part.repulsive>
0.0587

> <Gold.PLP.ligand.clash>
0.0000

> <Gold.PLP.ligand.torsion>
0.1000

> <Gold.PLP.Chemscore.Hbond>
2.0000

> <Gold.PLP.Chemscore.CHOScore>
0.8759

> <Gold.PLP.Chemscore.Metal>
0.0000

> <Gold.Chemscore.Hbonds>
donor molecule, donor type, donor heavy atom, donor atom, acceptor molecule, acceptor atom, score
      L1  H     8    26       P1  7957  1.00
      L1  H    11    30       P1  8028  0.66
      L1  C     3    21       P1  8028  1.00

> <Gold.PLP.Chemscore.Internal.Correction>
0.0097

> <Gold.Rescore>
     Score         DG    S(hbond)    S(metal)    S(lipo)     H(rot)  DE(clash)    DE(int)     intcor
      9.45      -9.63       1.27        0.00      58.13       2.69       0.15       0.03       ----

> <Gold.Chemscore.Fitness>
9.4505

> <Gold.Chemscore.DG>
-9.6349

> <Gold.Chemscore.ZeroCoef>
-5.4800

> <Gold.Chemscore.Hbond>
1.2674

> <Gold.Chemscore.Metal>
0.0000

> <Gold.Chemscore.Lipo>
58.1271

> <Gold.Chemscore.Internal_Hbond>
0.0000

> <Gold.Chemscore.DEClash>
0.1509

> <Gold.Chemscore.DEInternal>
0.0335

> <Gold.Chemscore.Rot>
2.6871

> <Gold.Chemscore.Internal.Correction>
   9.000000E+99

> <Gold.Chemscore.Hbonds>
donor molecule, donor type, donor heavy atom, donor atom, acceptor molecule, acceptor atom, score
      L1  H     8    26       P1  7957  1.00
      L1  H    11    30       P1  8028  0.09

> <Gold.Chemscore.Hbond.Weighted>
-4.2331

> <Gold.Chemscore.Metal.Weighted>
-0.0000

> <Gold.Chemscore.Lipo.Weighted>
-6.8009

> <Gold.Chemscore.Internal_Hbond.Weighted>
0.0000

> <Gold.Chemscore.DEClash.Weighted>
0.1509

> <Gold.Chemscore.DEInternal.Weighted>
0.0335

> <Gold.Chemscore.Rot.Weighted>
6.8791

> <Gold.Chemscore.Internal.Correction.Weighted>
   9.000000E+99

> <Gold.Protein.RotatedTorsions>
[ 6907 6896 6895 6894 ] final -171.86 input  -60.11 | X-H torsion
[ 7974 7965 7964 7962 ] final  -79.37 input  175.53 | X-H torsion
[ 8008 7997 7996 7995 ] final  -15.42 input   59.86 | X-H torsion
[ 10167 10162 10161 10158 ] final   87.97 input  -65.29 | X-H torsion
[ 10718 10713 10712 10709 ] final  -41.86 input   66.30 | X-H torsion
[ 10763 10752 10751 10750 ] final  -91.81 input  -60.55 | X-H torsion
[ 11005 11000 10999 10996 ] final -136.03 input  -57.11 | X-H torsion

> <Gold.Protein.ActiveResidues>
 VAL166  LYS551  ARG553  GLY616  TRP617  ASP618  TYR619  PRO620  LYS621  CYS622 
 ASP623  PHE694  ASN695  SER759  ASP760  ASP761  ALA762  ILE779  LEU786  VAL792 
 PHE793  MET794  SER795  GLU796  ALA797  LYS798  CYS799  TRP800  GLU811  SER814 

> <Gold.Protein.RotatedAtoms>
  151.5307  133.3449  159.2917 H   0  0  0  0  0  0  0  0  0  0  0  0  # atno 6907 bound_to 6896
  150.8595  134.7946  159.7083 H   0  0  0  0  0  0  0  0  0  0  0  0  # atno 6908 bound_to 6896
  152.4619  134.5173  159.9824 H   0  0  0  0  0  0  0  0  0  0  0  0  # atno 6909 bound_to 6896
  145.5741  140.9460  143.1379 H   0  0  0  0  0  0  0  0  0  0  0  0  # atno 7974 bound_to 7965
  154.5132  140.2197  155.9116 H   0  0  0  0  0  0  0  0  0  0  0  0  # atno 8008 bound_to 7997
  156.1577  140.3148  155.8719 H   0  0  0  0  0  0  0  0  0  0  0  0  # atno 8009 bound_to 7997
  155.3814  140.0472  157.3034 H   0  0  0  0  0  0  0  0  0  0  0  0  # atno 8010 bound_to 7997
  139.8720  144.6488  150.8939 H   0  0  0  0  0  0  0  0  0  0  0  0  # atno 10167 bound_to 10162
  156.2658  130.4201  149.8492 H   0  0  0  0  0  0  0  0  0  0  0  0  # atno 10718 bound_to 10713
  154.6798  135.5254  153.8247 H   0  0  0  0  0  0  0  0  0  0  0  0  # atno 10763 bound_to 10752
  153.0557  135.6549  154.0594 H   0  0  0  0  0  0  0  0  0  0  0  0  # atno 10764 bound_to 10752
  154.0483  135.2971  155.3324 H   0  0  0  0  0  0  0  0  0  0  0  0  # atno 10765 bound_to 10752
  140.8843  134.1892  157.4570 H   0  0  0  0  0  0  0  0  0  0  0  0  # atno 11005 bound_to 11000
  144.7424  139.7412  143.7305 LP  0  0  0  0  0  0  0  0  0  0  0  0  # atno 17320 bound_to 7965
  146.1763  139.4935  142.9895 LP  0  0  0  0  0  0  0  0  0  0  0  0  # atno 17321 bound_to 7965
  140.7759  143.3656  151.1745 LP  0  0  0  0  0  0  0  0  0  0  0  0  # atno 17342 bound_to 10162
  139.7275  143.9125  152.3008 LP  0  0  0  0  0  0  0  0  0  0  0  0  # atno 17343 bound_to 10162
  156.5991  130.8539  151.3427 LP  0  0  0  0  0  0  0  0  0  0  0  0  # atno 17370 bound_to 10713
  157.7267  130.9632  150.1666 LP  0  0  0  0  0  0  0  0  0  0  0  0  # atno 17371 bound_to 10713
  139.8723  134.9831  156.5184 LP  0  0  0  0  0  0  0  0  0  0  0  0  # atno 17394 bound_to 11000
  140.8423  133.8195  155.9087 LP  0  0  0  0  0  0  0  0  0  0  0  0  # atno 17395 bound_to 11000

$$$$
