AV-unprocessed.smi:2826|AV-procd|sdf|10895|dock4
  -GOLD-   2272015343D 1   1.00000     0.00000
 Structure written by MMmdl.
 50 51  0  0  0  0  0  0  0  0  1 V2000
  145.9294  128.7886  152.1898 C   0  0  0  0  0  0  0  0  0  0  0  0
  146.9968  128.9541  153.1166 O   0  0  0  0  0  0  0  0  0  0  0  0
  147.4920  130.2251  153.3249 C   0  0  0  0  0  0  0  0  0  0  0  0
  148.5717  130.3910  154.2130 C   0  0  0  0  0  0  0  0  0  0  0  0
  149.0781  131.6854  154.4331 C   0  0  0  0  0  0  0  0  0  0  0  0
  148.4827  132.7818  153.7641 C   0  0  0  0  0  0  0  0  0  0  0  0
  148.9375  134.1222  153.9091 N   0  0  0  0  0  0  0  0  0  0  0  0
  149.4048  134.7274  155.0143 C   0  0  0  0  0  0  0  0  0  0  0  0
  149.5181  134.2000  156.1207 O   0  0  0  0  0  0  0  0  0  0  0  0
  149.7169  136.0078  154.7696 N   0  0  0  0  0  0  0  0  0  0  0  0
  150.2257  136.9585  155.7574 C   0  0  1  0  0  0  0  0  0  0  0  0
  151.6562  137.3909  155.3996 C   0  0  0  0  0  0  0  0  0  0  0  0
  151.6687  138.3486  154.1959 C   0  0  0  0  0  0  0  0  0  0  0  0
  150.8231  139.4643  154.4526 O   0  0  0  0  0  0  0  0  0  0  0  0
  149.4533  139.1084  154.6235 C   0  0  2  0  0  0  0  0  0  0  0  0
  148.6243  140.3981  154.7694 C   0  0  0  0  0  0  0  0  0  0  0  0
  148.0765  140.9707  153.4437 C   0  0  0  0  0  0  0  0  0  0  0  0
  147.2607  142.2465  153.7033 C   0  0  0  0  0  0  0  0  0  0  0  0
  147.2351  139.9494  152.6594 C   0  0  0  0  0  0  0  0  0  0  0  0
  149.3246  138.2031  155.8657 C   0  0  0  0  0  0  0  0  0  0  0  0
  147.4132  132.5084  152.8773 C   0  0  0  0  0  0  0  0  0  0  0  0
  146.7268  133.6172  152.0989 C   0  0  0  0  0  0  0  0  0  0  0  0
  146.9262  131.2658  152.6660 N   0  0  0  0  0  0  0  0  0  0  0  0
  145.6499  127.7361  152.1462 H   0  0  0  0  0  0  0  0  0  0  0  0
  146.2234  129.0946  151.1849 H   0  0  0  0  0  0  0  0  0  0  0  0
  145.0463  129.3529  152.4927 H   0  0  0  0  0  0  0  0  0  0  0  0
  149.0073  129.5394  154.7144 H   0  0  0  0  0  0  0  0  0  0  0  0
  149.9194  131.8095  155.0972 H   0  0  0  0  0  0  0  0  0  0  0  0
  148.8188  134.7102  153.0971 H   0  0  0  0  0  0  0  0  0  0  0  0
  149.5866  136.3563  153.8312 H   0  0  0  0  0  0  0  0  0  0  0  0
  150.2551  136.4559  156.7260 H   0  0  0  0  0  0  0  0  0  0  0  0
  152.0996  137.8993  156.2569 H   0  0  0  0  0  0  0  0  0  0  0  0
  152.2839  136.5212  155.2017 H   0  0  0  0  0  0  0  0  0  0  0  0
  152.6815  138.7105  154.0185 H   0  0  0  0  0  0  0  0  0  0  0  0
  151.3511  137.8396  153.2845 H   0  0  0  0  0  0  0  0  0  0  0  0
  149.1100  138.5573  153.7475 H   0  0  0  0  0  0  0  0  0  0  0  0
  147.7920  140.2168  155.4510 H   0  0  0  0  0  0  0  0  0  0  0  0
  149.2463  141.1531  155.2524 H   0  0  0  0  0  0  0  0  0  0  0  0
  148.9233  141.2556  152.8181 H   0  0  0  0  0  0  0  0  0  0  0  0
  146.3891  142.0400  154.3251 H   0  0  0  0  0  0  0  0  0  0  0  0
  146.9071  142.6851  152.7697 H   0  0  0  0  0  0  0  0  0  0  0  0
  147.8608  143.0018  154.2116 H   0  0  0  0  0  0  0  0  0  0  0  0
  146.3998  139.5817  153.2562 H   0  0  0  0  0  0  0  0  0  0  0  0
  147.8288  139.0904  152.3482 H   0  0  0  0  0  0  0  0  0  0  0  0
  146.8238  140.3958  151.7535 H   0  0  0  0  0  0  0  0  0  0  0  0
  148.2844  137.9126  156.0186 H   0  0  0  0  0  0  0  0  0  0  0  0
  149.6128  138.7702  156.7518 H   0  0  0  0  0  0  0  0  0  0  0  0
  146.2993  134.3521  152.7816 H   0  0  0  0  0  0  0  0  0  0  0  0
  145.9213  133.2300  151.4736 H   0  0  0  0  0  0  0  0  0  0  0  0
  147.4419  134.1231  151.4500 H   0  0  0  0  0  0  0  0  0  0  0  0
  1  2  1  0  0  0  0
  1 24  1  0  0  0  0
  1 25  1  0  0  0  0
  1 26  1  0  0  0  0
  2  3  1  0  0  0  0
  3 23  1  0  0  0  0
  3  4  2  0  0  0  0
  4  5  1  0  0  0  0
  4 27  1  0  0  0  0
  5  6  2  0  0  0  0
  5 28  1  0  0  0  0
  6  7  1  0  0  0  0
  6 21  1  0  0  0  0
  7  8  1  0  0  0  0
  7 29  1  0  0  0  0
  8  9  2  0  0  0  0
  8 10  1  0  0  0  0
 10 11  1  0  0  0  0
 10 30  1  0  0  0  0
 11 20  1  0  0  0  0
 11 12  1  0  0  0  0
 11 31  1  0  0  0  0
 12 13  1  0  0  0  0
 12 32  1  0  0  0  0
 12 33  1  0  0  0  0
 13 14  1  0  0  0  0
 13 34  1  0  0  0  0
 13 35  1  0  0  0  0
 14 15  1  0  0  0  0
 15 16  1  0  0  0  0
 15 20  1  0  0  0  0
 15 36  1  0  0  0  0
 16 17  1  0  0  0  0
 16 37  1  0  0  0  0
 16 38  1  0  0  0  0
 17 18  1  0  0  0  0
 17 19  1  0  0  0  0
 17 39  1  0  0  0  0
 18 40  1  0  0  0  0
 18 41  1  0  0  0  0
 18 42  1  0  0  0  0
 19 43  1  0  0  0  0
 19 44  1  0  0  0  0
 19 45  1  0  0  0  0
 20 46  1  0  0  0  0
 20 47  1  0  0  0  0
 21 22  1  0  0  0  0
 21 23  2  0  0  0  0
 22 48  1  0  0  0  0
 22 49  1  0  0  0  0
 22 50  1  0  0  0  0
M  END
> <s_m_source_file>
AV-unprocessed.smi

> <i_m_source_file_index>
2826

> <i_lp_mmshare_version>
43012

> <i_f3d_flags>
0

> <s_epik_input>
W0NIM11PYzFbY0hdW2NIXWMoYyhuMSlbQ0gzXSlbTkhdQyg9TylbTkhdW0NAQEhdMltDSDJdW0NIMl1PW0NASF0oW0NIMl0yKVtDSDJdW0NIXShbQ0gzXSlbQ0gzXQ==

> <s_epik_cmdline>
J2VwaWtfcHl0aG9uJywgJy1waCcsICc3LjAnLCAnLXRuJywgJzgnLCAnLW1hJywgJzIwMCcsICctbWV0YWxfYmluZGluZycsICctaW1hZScsICc8aW5maWxlLm1hZT4nLCAnLW9tYWUnLCAnPG91dGZpbGUubWFlPic=

> <r_lp_tautomer_probability>
1

> <r_epik_Ionization_Penalty>
0.000249977

> <r_epik_Ionization_Penalty_Charging>
0

> <r_epik_Ionization_Penalty_Neutral>
0.000249977

> <r_epik_State_Penalty>
-0

> <r_epik_Charging_Adjusted_Penalty>
0

> <i_epik_Tot_Q>
0

> <i_epik_Tot_abs_Q>
0

> <r_epik_Metal_State_Penalty>
-0

> <b_epik_Metal_Only>
0

> <s_lp_Force_Field>
OPLS_2005

> <r_lp_Energy>
13.0858

> <b_lp_Chiralities_Consistent>
1

> <s_lp_Variant>
AV-unprocessed.smi:2826-4

> <Gold.Version>
5.8.1

> <Gold.Id.Protein>
6NUR|6NUR_protein|mol2

> <Gold.PLP.Fitness>
45.9043

> <Gold.PLP.PLP>
-38.9254

> <Gold.PLP.part.hbond>
-3.0000

> <Gold.PLP.part.metal>
0.0000

> <Gold.PLP.part.buried>
-3.4969

> <Gold.PLP.part.nonpolar>
-33.1030

> <Gold.PLP.part.repulsive>
0.9878

> <Gold.PLP.ligand.clash>
0.0000

> <Gold.PLP.ligand.torsion>
0.6701

> <Gold.PLP.Chemscore.Hbond>
2.7500

> <Gold.PLP.Chemscore.CHOScore>
0.0000

> <Gold.PLP.Chemscore.Metal>
0.0000

> <Gold.Chemscore.Hbonds>
donor molecule, donor type, donor heavy atom, donor atom, acceptor molecule, acceptor atom, score
      L1  H     7    29       P1  7948  0.85
      L1  H    10    30       P1  7948  0.98
      P1  H  7989  7998       L1    14  1.00

> <Gold.PLP.Chemscore.Internal.Correction>
0.0692

> <Gold.Rescore>
     Score         DG    S(hbond)    S(metal)    S(lipo)     H(rot)  DE(clash)    DE(int)     intcor
     15.14     -17.15       1.54        0.00      88.74       1.51       0.63       1.38       ----

> <Gold.Chemscore.Fitness>
15.1397

> <Gold.Chemscore.DG>
-17.1457

> <Gold.Chemscore.ZeroCoef>
-5.4800

> <Gold.Chemscore.Hbond>
1.5383

> <Gold.Chemscore.Metal>
0.0000

> <Gold.Chemscore.Lipo>
88.7400

> <Gold.Chemscore.Internal_Hbond>
0.0000

> <Gold.Chemscore.DEClash>
0.6251

> <Gold.Chemscore.DEInternal>
1.3808

> <Gold.Chemscore.Rot>
1.5057

> <Gold.Chemscore.Internal.Correction>
   9.000000E+99

> <Gold.Chemscore.Hbonds>
donor molecule, donor type, donor heavy atom, donor atom, acceptor molecule, acceptor atom, score
      L1  H     7    29       P1  7948  0.15
      L1  H    10    30       P1  7948  0.58
      P1  H  7989  7998       L1    14  0.40

> <Gold.Chemscore.Hbond.Weighted>
-5.1378

> <Gold.Chemscore.Metal.Weighted>
-0.0000

> <Gold.Chemscore.Lipo.Weighted>
-10.3826

> <Gold.Chemscore.Internal_Hbond.Weighted>
0.0000

> <Gold.Chemscore.DEClash.Weighted>
0.6251

> <Gold.Chemscore.DEInternal.Weighted>
1.3808

> <Gold.Chemscore.Rot.Weighted>
3.8547

> <Gold.Chemscore.Internal.Correction.Weighted>
   9.000000E+99

> <Gold.Protein.RotatedTorsions>
[ 6907 6896 6895 6894 ] final  -51.63 input  -60.11 | X-H torsion
[ 7974 7965 7964 7962 ] final   50.68 input  175.53 | X-H torsion
[ 8008 7997 7996 7995 ] final  160.88 input   59.86 | X-H torsion
[ 10167 10162 10161 10158 ] final  104.97 input  -65.29 | X-H torsion
[ 10718 10713 10712 10709 ] final    0.12 input   66.30 | X-H torsion
[ 10763 10752 10751 10750 ] final  105.01 input  -60.55 | X-H torsion
[ 11005 11000 10999 10996 ] final -178.85 input  -57.11 | X-H torsion

> <Gold.Protein.ActiveResidues>
 VAL166  LYS551  ARG553  GLY616  TRP617  ASP618  TYR619  PRO620  LYS621  CYS622 
 ASP623  PHE694  ASN695  SER759  ASP760  ASP761  ALA762  ILE779  LEU786  VAL792 
 PHE793  MET794  SER795  GLU796  ALA797  LYS798  CYS799  TRP800  GLU811  SER814 

> <Gold.Protein.RotatedAtoms>
  150.8593  134.7941  159.7070 H   0  0  0  0  0  0  0  0  0  0  0  0  # atno 6907 bound_to 6896
  152.4635  134.5126  159.9768 H   0  0  0  0  0  0  0  0  0  0  0  0  # atno 6908 bound_to 6896
  151.5233  133.3424  159.2941 H   0  0  0  0  0  0  0  0  0  0  0  0  # atno 6909 bound_to 6896
  145.9988  139.4417  143.0028 H   0  0  0  0  0  0  0  0  0  0  0  0  # atno 7974 bound_to 7965
  156.2142  140.1792  156.7626 H   0  0  0  0  0  0  0  0  0  0  0  0  # atno 8008 bound_to 7997
  154.5767  140.0673  156.9074 H   0  0  0  0  0  0  0  0  0  0  0  0  # atno 8009 bound_to 7997
  155.2575  140.3333  155.4278 H   0  0  0  0  0  0  0  0  0  0  0  0  # atno 8010 bound_to 7997
  139.7132  144.7073  151.0993 H   0  0  0  0  0  0  0  0  0  0  0  0  # atno 10167 bound_to 10162
  156.8286  130.5481  149.5689 H   0  0  0  0  0  0  0  0  0  0  0  0  # atno 10718 bound_to 10713
  153.3736  135.3924  155.1806 H   0  0  0  0  0  0  0  0  0  0  0  0  # atno 10763 bound_to 10752
  154.8698  135.3708  154.4946 H   0  0  0  0  0  0  0  0  0  0  0  0  # atno 10764 bound_to 10752
  153.5416  135.7084  153.5694 H   0  0  0  0  0  0  0  0  0  0  0  0  # atno 10765 bound_to 10752
  140.4251  134.6570  157.4684 H   0  0  0  0  0  0  0  0  0  0  0  0  # atno 11005 bound_to 11000
  145.7519  140.9969  143.1246 LP  0  0  0  0  0  0  0  0  0  0  0  0  # atno 17320 bound_to 7965
  144.6912  139.9224  143.7468 LP  0  0  0  0  0  0  0  0  0  0  0  0  # atno 17321 bound_to 7965
  140.7738  143.5265  150.9474 LP  0  0  0  0  0  0  0  0  0  0  0  0  # atno 17342 bound_to 10162
  139.8950  143.6906  152.3140 LP  0  0  0  0  0  0  0  0  0  0  0  0  # atno 17343 bound_to 10162
  156.0947  130.5923  150.9793 LP  0  0  0  0  0  0  0  0  0  0  0  0  # atno 17370 bound_to 10713
  157.6419  131.0909  150.8234 LP  0  0  0  0  0  0  0  0  0  0  0  0  # atno 17371 bound_to 10713
  140.0173  134.6600  155.9291 LP  0  0  0  0  0  0  0  0  0  0  0  0  # atno 17394 bound_to 11000
  141.1768  133.6541  156.4861 LP  0  0  0  0  0  0  0  0  0  0  0  0  # atno 17395 bound_to 11000

$$$$
