AV-unprocessed.smi:2153|AV-procd|sdf|8769|dock6
  -GOLD-   2272011553D 1   1.00000     0.00000
 Structure written by MMmdl.
 48 49  0  0  0  0  0  0  0  0  1 V2000
  152.4821  143.8255  162.2602 C   0  0  0  0  0  0  0  0  0  0  0  0
  151.8907  143.8294  160.8415 C   0  0  1  0  0  0  0  0  0  0  0  0
  151.7047  145.2732  160.3324 C   0  0  0  0  0  0  0  0  0  0  0  0
  151.1138  145.3074  158.9150 C   0  0  0  0  0  0  0  0  0  0  0  0
  151.9841  144.5052  157.9396 C   0  0  0  0  0  0  0  0  0  0  0  0
  152.1698  143.0639  158.4314 C   0  0  0  0  0  0  0  0  0  0  0  0
  152.7545  143.0055  159.8593 C   0  0  2  0  0  0  0  0  0  0  0  0
  152.7430  141.6552  160.3041 O   0  0  0  0  0  0  0  0  0  0  0  0
  153.4993  140.7576  159.5029 C   0  0  0  0  0  0  0  0  0  0  0  0
  152.9969  139.3267  159.7560 C   0  0  0  0  0  0  0  0  0  0  0  0
  154.0969  138.4173  160.0627 N   0  0  0  0  0  0  0  0  0  0  0  0
  153.9988  137.0832  160.1656 C   0  0  0  0  0  0  0  0  0  0  0  0
  152.9662  136.4575  159.9274 O   0  0  0  0  0  0  0  0  0  0  0  0
  155.2605  136.3422  160.6192 C   0  0  0  0  0  0  0  0  0  0  0  0
  155.0193  135.5921  161.8582 N   0  0  0  0  0  0  0  0  0  0  0  0
  154.6752  136.2771  163.0099 C   0  0  0  0  0  0  0  0  0  0  0  0
  154.4003  135.6706  164.1854 C   0  0  0  0  0  0  0  0  0  0  0  0
  154.4434  134.2185  164.3071 C   0  0  0  0  0  0  0  0  0  0  0  0
  154.2002  133.6268  165.3591 O   0  0  0  0  0  0  0  0  0  0  0  0
  154.7906  133.5413  163.1132 N   0  0  0  0  0  0  0  0  0  0  0  0
  154.8585  132.0948  163.1254 C   0  0  0  0  0  0  0  0  0  0  0  0
  155.1008  134.1829  161.8933 C   0  0  0  0  0  0  0  0  0  0  0  0
  155.4272  133.5455  160.8892 O   0  0  0  0  0  0  0  0  0  0  0  0
  153.4812  144.2621  162.2739 H   0  0  0  0  0  0  0  0  0  0  0  0
  152.5569  142.8126  162.6569 H   0  0  0  0  0  0  0  0  0  0  0  0
  151.8587  144.3986  162.9467 H   0  0  0  0  0  0  0  0  0  0  0  0
  150.9037  143.3665  160.8931 H   0  0  0  0  0  0  0  0  0  0  0  0
  151.0533  145.8263  161.0098 H   0  0  0  0  0  0  0  0  0  0  0  0
  152.6645  145.7916  160.3365 H   0  0  0  0  0  0  0  0  0  0  0  0
  150.1030  144.8978  158.9275 H   0  0  0  0  0  0  0  0  0  0  0  0
  151.0255  146.3387  158.5723 H   0  0  0  0  0  0  0  0  0  0  0  0
  151.5271  144.5031  156.9497 H   0  0  0  0  0  0  0  0  0  0  0  0
  152.9578  144.9848  157.8323 H   0  0  0  0  0  0  0  0  0  0  0  0
  151.2059  142.5596  158.4290 H   0  0  0  0  0  0  0  0  0  0  0  0
  152.7975  142.5231  157.7244 H   0  0  0  0  0  0  0  0  0  0  0  0
  153.7730  143.3991  159.8643 H   0  0  0  0  0  0  0  0  0  0  0  0
  153.4180  140.9927  158.4421 H   0  0  0  0  0  0  0  0  0  0  0  0
  154.5547  140.8448  159.7618 H   0  0  0  0  0  0  0  0  0  0  0  0
  152.2672  139.3163  160.5666 H   0  0  0  0  0  0  0  0  0  0  0  0
  152.4863  138.9526  158.8684 H   0  0  0  0  0  0  0  0  0  0  0  0
  154.9884  138.8420  160.2724 H   0  0  0  0  0  0  0  0  0  0  0  0
  155.5947  135.6740  159.8237 H   0  0  0  0  0  0  0  0  0  0  0  0
  156.0734  137.0562  160.7613 H   0  0  0  0  0  0  0  0  0  0  0  0
  154.6187  137.3554  162.9696 H   0  0  0  0  0  0  0  0  0  0  0  0
  154.1379  136.2677  165.0464 H   0  0  0  0  0  0  0  0  0  0  0  0
  154.3545  131.7236  162.2311 H   0  0  0  0  0  0  0  0  0  0  0  0
  154.3497  131.6891  163.9996 H   0  0  0  0  0  0  0  0  0  0  0  0
  155.9163  131.8273  163.1293 H   0  0  0  0  0  0  0  0  0  0  0  0
  1  2  1  0  0  0  0
  1 24  1  0  0  0  0
  1 25  1  0  0  0  0
  1 26  1  0  0  0  0
  2  7  1  0  0  0  0
  2  3  1  0  0  0  0
  2 27  1  0  0  0  0
  3  4  1  0  0  0  0
  3 28  1  0  0  0  0
  3 29  1  0  0  0  0
  4  5  1  0  0  0  0
  4 30  1  0  0  0  0
  4 31  1  0  0  0  0
  5  6  1  0  0  0  0
  5 32  1  0  0  0  0
  5 33  1  0  0  0  0
  6  7  1  0  0  0  0
  6 34  1  0  0  0  0
  6 35  1  0  0  0  0
  7  8  1  0  0  0  0
  7 36  1  0  0  0  0
  8  9  1  0  0  0  0
  9 10  1  0  0  0  0
  9 37  1  0  0  0  0
  9 38  1  0  0  0  0
 10 11  1  0  0  0  0
 10 39  1  0  0  0  0
 10 40  1  0  0  0  0
 11 12  1  0  0  0  0
 11 41  1  0  0  0  0
 12 13  2  0  0  0  0
 12 14  1  0  0  0  0
 14 15  1  0  0  0  0
 14 42  1  0  0  0  0
 14 43  1  0  0  0  0
 15 22  1  0  0  0  0
 15 16  1  0  0  0  0
 16 17  2  0  0  0  0
 16 44  1  0  0  0  0
 17 18  1  0  0  0  0
 17 45  1  0  0  0  0
 18 19  2  0  0  0  0
 18 20  1  0  0  0  0
 20 21  1  0  0  0  0
 20 22  1  0  0  0  0
 21 46  1  0  0  0  0
 21 47  1  0  0  0  0
 21 48  1  0  0  0  0
 22 23  2  0  0  0  0
M  END
> <s_m_source_file>
AV-unprocessed.smi

> <i_m_source_file_index>
2153

> <i_lp_mmshare_version>
43012

> <i_f3d_flags>
0

> <s_epik_input>
W0NIM11bQ0BASF0xW0NIMl1bQ0gyXVtDSDJdW0NIMl1bQ0BIXTFPW0NIMl1bQ0gyXVtOSF1DKD1PKVtDSDJdbjJbY0hdW2NIXWMoPU8pbihbQ0gzXSljMj1P

> <s_epik_cmdline>
J2VwaWtfcHl0aG9uJywgJy1waCcsICc3LjAnLCAnLXRuJywgJzgnLCAnLW1hJywgJzIwMCcsICctbWV0YWxfYmluZGluZycsICctaW1hZScsICc8aW5maWxlLm1hZT4nLCAnLW9tYWUnLCAnPG91dGZpbGUubWFlPic=

> <r_lp_tautomer_probability>
1

> <r_epik_Ionization_Penalty>
4.02205e-08

> <r_epik_Ionization_Penalty_Charging>
1.23606e-08

> <r_epik_Ionization_Penalty_Neutral>
2.78599e-08

> <r_epik_State_Penalty>
-0

> <r_epik_Charging_Adjusted_Penalty>
1.23606e-08

> <i_epik_Tot_Q>
0

> <i_epik_Tot_abs_Q>
0

> <r_epik_Metal_State_Penalty>
-0

> <b_epik_Metal_Only>
0

> <s_lp_Force_Field>
OPLS_2005

> <r_lp_Energy>
17.7366

> <b_lp_Chiralities_Consistent>
1

> <s_lp_Variant>
AV-unprocessed.smi:2153-4

> <Gold.Version>
5.8.1

> <Gold.Id.Protein>
6NUR|6NUR_protein|mol2

> <Gold.PLP.Fitness>
52.6280

> <Gold.PLP.PLP>
-50.5736

> <Gold.PLP.part.hbond>
-1.0000

> <Gold.PLP.part.metal>
0.0000

> <Gold.PLP.part.buried>
-5.4234

> <Gold.PLP.part.nonpolar>
-43.3991

> <Gold.PLP.part.repulsive>
0.1362

> <Gold.PLP.ligand.clash>
0.0000

> <Gold.PLP.ligand.torsion>
0.5042

> <Gold.PLP.Chemscore.Hbond>
1.0000

> <Gold.PLP.Chemscore.CHOScore>
0.0000

> <Gold.PLP.Chemscore.Metal>
0.0000

> <Gold.Chemscore.Hbonds>
donor molecule, donor type, donor heavy atom, donor atom, acceptor molecule, acceptor atom, score
      P1  H  6896  6909       L1    13  1.00

> <Gold.PLP.Chemscore.Internal.Correction>
0.0629

> <Gold.Rescore>
     Score         DG    S(hbond)    S(metal)    S(lipo)     H(rot)  DE(clash)    DE(int)     intcor
     17.67     -18.51       1.00        0.00     130.99       2.20       0.23       0.61       ----

> <Gold.Chemscore.Fitness>
17.6681

> <Gold.Chemscore.DG>
-18.5069

> <Gold.Chemscore.ZeroCoef>
-5.4800

> <Gold.Chemscore.Hbond>
0.9953

> <Gold.Chemscore.Metal>
0.0000

> <Gold.Chemscore.Lipo>
130.9938

> <Gold.Chemscore.Internal_Hbond>
0.0000

> <Gold.Chemscore.DEClash>
0.2263

> <Gold.Chemscore.DEInternal>
0.6125

> <Gold.Chemscore.Rot>
2.1968

> <Gold.Chemscore.Internal.Correction>
   9.000000E+99

> <Gold.Chemscore.Hbonds>
donor molecule, donor type, donor heavy atom, donor atom, acceptor molecule, acceptor atom, score
      P1  H  6896  6909       L1    13  1.00

> <Gold.Chemscore.Hbond.Weighted>
-3.3243

> <Gold.Chemscore.Metal.Weighted>
-0.0000

> <Gold.Chemscore.Lipo.Weighted>
-15.3263

> <Gold.Chemscore.Internal_Hbond.Weighted>
0.0000

> <Gold.Chemscore.DEClash.Weighted>
0.2263

> <Gold.Chemscore.DEInternal.Weighted>
0.6125

> <Gold.Chemscore.Rot.Weighted>
5.6238

> <Gold.Chemscore.Internal.Correction.Weighted>
   9.000000E+99

> <Gold.Protein.RotatedTorsions>
[ 6907 6896 6895 6894 ] final  154.96 input  -60.11 | X-H torsion
[ 7974 7965 7964 7962 ] final -172.10 input  175.53 | X-H torsion
[ 8008 7997 7996 7995 ] final  107.06 input   59.86 | X-H torsion
[ 10167 10162 10161 10158 ] final   22.28 input  -65.29 | X-H torsion
[ 10718 10713 10712 10709 ] final  -62.14 input   66.30 | X-H torsion
[ 10763 10752 10751 10750 ] final  102.36 input  -60.55 | X-H torsion
[ 11005 11000 10999 10996 ] final  110.09 input  -57.11 | X-H torsion

> <Gold.Protein.ActiveResidues>
 VAL166  LYS551  ARG553  GLY616  TRP617  ASP618  TYR619  PRO620  LYS621  CYS622 
 ASP623  PHE694  ASN695  SER759  ASP760  ASP761  ALA762  ILE779  LEU786  VAL792 
 PHE793  MET794  SER795  GLU796  ALA797  LYS798  CYS799  TRP800  GLU811  SER814 

> <Gold.Protein.RotatedAtoms>
  152.0510  133.4019  159.4376 H   0  0  0  0  0  0  0  0  0  0  0  0  # atno 6907 bound_to 6896
  150.6870  134.3308  159.4835 H   0  0  0  0  0  0  0  0  0  0  0  0  # atno 6908 bound_to 6896
  152.1118  134.9268  160.0617 H   0  0  0  0  0  0  0  0  0  0  0  0  # atno 6909 bound_to 6896
  144.7150  140.1822  143.6357 H   0  0  0  0  0  0  0  0  0  0  0  0  # atno 7974 bound_to 7965
  156.1794  140.3101  155.9119 H   0  0  0  0  0  0  0  0  0  0  0  0  # atno 8008 bound_to 7997
  155.3418  140.0466  157.3062 H   0  0  0  0  0  0  0  0  0  0  0  0  # atno 8009 bound_to 7997
  154.5325  140.2235  155.8789 H   0  0  0  0  0  0  0  0  0  0  0  0  # atno 8010 bound_to 7997
  140.5361  143.9758  150.6492 H   0  0  0  0  0  0  0  0  0  0  0  0  # atno 10167 bound_to 10162
  156.0875  130.4206  150.1093 H   0  0  0  0  0  0  0  0  0  0  0  0  # atno 10718 bound_to 10713
  153.3386  135.4013  155.1553 H   0  0  0  0  0  0  0  0  0  0  0  0  # atno 10763 bound_to 10752
  154.8639  135.3628  154.5376 H   0  0  0  0  0  0  0  0  0  0  0  0  # atno 10764 bound_to 10752
  153.5819  135.7076  153.5519 H   0  0  0  0  0  0  0  0  0  0  0  0  # atno 10765 bound_to 10752
  139.8875  134.9475  156.6226 H   0  0  0  0  0  0  0  0  0  0  0  0  # atno 11005 bound_to 11000
  145.8846  139.2341  143.1585 LP  0  0  0  0  0  0  0  0  0  0  0  0  # atno 17320 bound_to 7965
  145.9962  140.8560  143.0041 LP  0  0  0  0  0  0  0  0  0  0  0  0  # atno 17321 bound_to 7965
  140.3146  143.3176  152.0845 LP  0  0  0  0  0  0  0  0  0  0  0  0  # atno 17342 bound_to 10162
  139.4971  144.6614  151.6457 LP  0  0  0  0  0  0  0  0  0  0  0  0  # atno 17343 bound_to 10162
  156.9110  130.9652  151.3563 LP  0  0  0  0  0  0  0  0  0  0  0  0  # atno 17370 bound_to 10713
  157.6014  130.8515  149.8808 LP  0  0  0  0  0  0  0  0  0  0  0  0  # atno 17371 bound_to 10713
  140.7728  133.8724  155.8505 LP  0  0  0  0  0  0  0  0  0  0  0  0  # atno 17394 bound_to 11000
  140.9827  134.1383  157.4479 LP  0  0  0  0  0  0  0  0  0  0  0  0  # atno 17395 bound_to 11000

$$$$
