AV-unprocessed.smi:227|AV-procd|sdf|1727|dock2
  -GOLD-   2262020213D 1   1.00000     0.00000
 Structure written by MMmdl.
 54 58  0  0  0  0  0  0  0  0  1 V2000
  147.2954  130.4989  152.8451 O   0  0  0  0  0  0  0  0  0  0  0  0
  146.2218  131.3979  152.6603 C   0  0  0  0  0  0  0  0  0  0  0  0
  146.6946  132.8706  152.7657 C   0  0  2  0  0  0  0  0  0  0  0  0
  146.4253  133.4373  154.1909 C   0  0  0  0  0  0  0  0  0  0  0  0
  147.2317  134.5997  154.5361 N   0  0  0  0  0  0  0  0  0  0  0  0
  146.8445  135.9191  154.4866 C   0  0  0  0  0  0  0  0  0  0  0  0
  147.7542  136.7789  154.8512 N   0  0  0  0  0  0  0  0  0  0  0  0
  148.8628  136.0018  155.1672 C   0  0  0  0  0  0  0  0  0  0  0  0
  150.1837  136.2785  155.6317 C   0  0  0  0  0  0  0  0  0  0  0  0
  150.6724  137.5230  155.8955 N   0  0  0  0  0  0  0  0  0  0  0  0
  151.6993  138.1318  155.0624 C   0  0  2  0  0  0  0  0  0  0  0  0
  152.0518  139.4033  155.8529 C   0  0  0  0  0  0  0  0  0  0  0  0
  150.6856  139.7811  156.4420 C   0  0  0  0  0  0  0  0  0  0  0  0
  149.7864  138.6800  155.8495 C   0  0  1  0  0  0  0  0  0  0  0  0
  149.5575  138.8889  154.3297 C   0  0  1  0  0  0  0  0  0  0  0  0
  149.0072  140.2627  153.9038 C   0  0  0  0  0  0  0  0  0  0  0  0
  148.4081  140.1662  152.6294 O   0  0  0  0  0  0  0  0  0  0  0  0
  150.9515  138.5368  153.7754 C   0  0  0  0  0  0  0  0  0  0  0  0
  151.0163  135.2165  155.7974 N   0  0  0  0  0  0  0  0  0  0  0  0
  150.5939  133.9740  155.5517 C   0  0  0  0  0  0  0  0  0  0  0  0
  149.3947  133.5705  155.1328 N   0  0  0  0  0  0  0  0  0  0  0  0
  148.5522  134.6270  154.9531 C   0  0  0  0  0  0  0  0  0  0  0  0
  146.0814  133.7487  151.6296 C   0  0  2  0  0  0  0  0  0  0  0  0
  144.5615  133.8887  151.6751 C   0  0  0  0  0  0  0  0  0  0  0  0
  144.0558  132.6478  150.9399 C   0  0  0  0  0  0  0  0  0  0  0  0
  145.1309  132.2207  150.1116 O   0  0  0  0  0  0  0  0  0  0  0  0
  146.2045  133.1440  150.2230 C   0  0  0  0  0  0  0  0  0  0  0  0
  147.9881  130.7340  152.2462 H   0  0  0  0  0  0  0  0  0  0  0  0
  145.8091  131.1743  151.6796 H   0  0  0  0  0  0  0  0  0  0  0  0
  145.4361  131.1810  153.3839 H   0  0  0  0  0  0  0  0  0  0  0  0
  147.7771  132.8697  152.6299 H   0  0  0  0  0  0  0  0  0  0  0  0
  145.3753  133.7101  154.2979 H   0  0  0  0  0  0  0  0  0  0  0  0
  146.5829  132.6754  154.9526 H   0  0  0  0  0  0  0  0  0  0  0  0
  145.8583  136.2301  154.1752 H   0  0  0  0  0  0  0  0  0  0  0  0
  152.5834  137.5250  154.8772 H   0  0  0  0  0  0  0  0  0  0  0  0
  152.7638  139.1835  156.6496 H   0  0  0  0  0  0  0  0  0  0  0  0
  152.4760  140.1870  155.2245 H   0  0  0  0  0  0  0  0  0  0  0  0
  150.7117  139.7048  157.5299 H   0  0  0  0  0  0  0  0  0  0  0  0
  150.3717  140.7940  156.1938 H   0  0  0  0  0  0  0  0  0  0  0  0
  148.8579  138.5652  156.4098 H   0  0  0  0  0  0  0  0  0  0  0  0
  148.8482  138.1297  153.9951 H   0  0  0  0  0  0  0  0  0  0  0  0
  148.2561  140.6078  154.6146 H   0  0  0  0  0  0  0  0  0  0  0  0
  149.7920  141.0174  153.8621 H   0  0  0  0  0  0  0  0  0  0  0  0
  149.0720  140.3161  151.9738 H   0  0  0  0  0  0  0  0  0  0  0  0
  151.4362  139.3658  153.2583 H   0  0  0  0  0  0  0  0  0  0  0  0
  150.8857  137.7005  153.0782 H   0  0  0  0  0  0  0  0  0  0  0  0
  151.3205  133.1920  155.7157 H   0  0  0  0  0  0  0  0  0  0  0  0
  146.5438  134.7358  151.6590 H   0  0  0  0  0  0  0  0  0  0  0  0
  144.1229  133.9935  152.6648 H   0  0  0  0  0  0  0  0  0  0  0  0
  144.2719  134.7769  151.1113 H   0  0  0  0  0  0  0  0  0  0  0  0
  143.8140  131.8484  151.6411 H   0  0  0  0  0  0  0  0  0  0  0  0
  143.1646  132.8619  150.3494 H   0  0  0  0  0  0  0  0  0  0  0  0
  146.0620  133.9233  149.4727 H   0  0  0  0  0  0  0  0  0  0  0  0
  147.1571  132.6673  150.0038 H   0  0  0  0  0  0  0  0  0  0  0  0
  1  2  1  0  0  0  0
  1 28  1  0  0  0  0
  2  3  1  0  0  0  0
  2 29  1  0  0  0  0
  2 30  1  0  0  0  0
  3  4  1  0  0  0  0
  3 23  1  0  0  0  0
  3 31  1  0  0  0  0
  4  5  1  0  0  0  0
  4 32  1  0  0  0  0
  4 33  1  0  0  0  0
  5 22  1  0  0  0  0
  5  6  1  0  0  0  0
  6  7  2  0  0  0  0
  6 34  1  0  0  0  0
  7  8  1  0  0  0  0
  8 22  2  0  0  0  0
  8  9  1  0  0  0  0
  9 10  1  0  0  0  0
  9 19  2  0  0  0  0
 10 14  1  0  0  0  0
 10 11  1  0  0  0  0
 11 18  1  0  0  0  0
 11 12  1  0  0  0  0
 11 35  1  0  0  0  0
 12 13  1  0  0  0  0
 12 36  1  0  0  0  0
 12 37  1  0  0  0  0
 13 14  1  0  0  0  0
 13 38  1  0  0  0  0
 13 39  1  0  0  0  0
 14 15  1  0  0  0  0
 14 40  1  0  0  0  0
 15 16  1  0  0  0  0
 15 18  1  0  0  0  0
 15 41  1  0  0  0  0
 16 17  1  0  0  0  0
 16 42  1  0  0  0  0
 16 43  1  0  0  0  0
 17 44  1  0  0  0  0
 18 45  1  0  0  0  0
 18 46  1  0  0  0  0
 19 20  1  0  0  0  0
 20 21  2  0  0  0  0
 20 47  1  0  0  0  0
 21 22  1  0  0  0  0
 23 27  1  0  0  0  0
 23 24  1  0  0  0  0
 23 48  1  0  0  0  0
 24 25  1  0  0  0  0
 24 49  1  0  0  0  0
 24 50  1  0  0  0  0
 25 26  1  0  0  0  0
 25 51  1  0  0  0  0
 25 52  1  0  0  0  0
 26 27  1  0  0  0  0
 27 53  1  0  0  0  0
 27 54  1  0  0  0  0
M  END
> <s_m_source_file>
AV-unprocessed.smi

> <i_m_source_file_index>
227

> <i_lp_mmshare_version>
43012

> <i_f3d_flags>
0

> <s_epik_input>
W0NIMl0xT1tDSDJdW0NIMl1bQ0BIXTFbQ0BIXShbQ0gyXVtPSF0pW0NIMl1uKFtjSF1uMiljKGMyMyluW2NIXW5jM04oW0NASF00NSlbQ0BASF0oW0NIMl1bQ0gyXTQpW0NASF0oW0NIMl01KVtDSDJdW09IXQ==

> <s_epik_cmdline>
J2VwaWtfcHl0aG9uJywgJy1waCcsICc3LjAnLCAnLXRuJywgJzgnLCAnLW1hJywgJzIwMCcsICctbWV0YWxfYmluZGluZycsICctaW1hZScsICc8aW5maWxlLm1hZT4nLCAnLW9tYWUnLCAnPG91dGZpbGUubWFlPic=

> <r_lp_tautomer_probability>
1

> <r_epik_Ionization_Penalty>
0.0055791

> <r_epik_Ionization_Penalty_Charging>
0

> <r_epik_Ionization_Penalty_Neutral>
0.0055791

> <r_epik_State_Penalty>
0.00401299

> <r_epik_Charging_Adjusted_Penalty>
0.00401299

> <i_epik_Tot_Q>
0

> <i_epik_Tot_abs_Q>
0

> <r_epik_Metal_State_Penalty>
-0

> <b_epik_Metal_Only>
0

> <s_lp_Force_Field>
OPLS_2005

> <r_lp_Energy>
89.6374

> <b_lp_Chiralities_Consistent>
1

> <s_lp_Variant>
AV-unprocessed.smi:227-1

> <Gold.Version>
5.8.1

> <Gold.Id.Protein>
6NUR|6NUR_protein|mol2

> <Gold.PLP.Fitness>
40.9014

> <Gold.PLP.PLP>
-34.6420

> <Gold.PLP.part.hbond>
-2.6656

> <Gold.PLP.part.metal>
0.0000

> <Gold.PLP.part.buried>
-6.0014

> <Gold.PLP.part.nonpolar>
-25.1183

> <Gold.PLP.part.repulsive>
0.3949

> <Gold.PLP.ligand.clash>
0.0000

> <Gold.PLP.ligand.torsion>
1.3814

> <Gold.PLP.Chemscore.Hbond>
2.9425

> <Gold.PLP.Chemscore.CHOScore>
0.0000

> <Gold.PLP.Chemscore.Metal>
0.0000

> <Gold.Chemscore.Hbonds>
donor molecule, donor type, donor heavy atom, donor atom, acceptor molecule, acceptor atom, score
      L1  H     1    28       P1 10747  0.59
      P1  H 10752 10764       L1    19  0.52

> <Gold.PLP.Chemscore.Internal.Correction>
0.1948

> <Gold.Rescore>
     Score         DG    S(hbond)    S(metal)    S(lipo)     H(rot)  DE(clash)    DE(int)     intcor
      8.63     -14.84       2.56        0.00      85.83       3.61       0.28       5.93       ----

> <Gold.Chemscore.Fitness>
8.6337

> <Gold.Chemscore.DG>
-14.8386

> <Gold.Chemscore.ZeroCoef>
-5.4800

> <Gold.Chemscore.Hbond>
2.5601

> <Gold.Chemscore.Metal>
0.0000

> <Gold.Chemscore.Lipo>
85.8300

> <Gold.Chemscore.Internal_Hbond>
0.0000

> <Gold.Chemscore.DEClash>
0.2756

> <Gold.Chemscore.DEInternal>
5.9293

> <Gold.Chemscore.Rot>
3.6071

> <Gold.Chemscore.Internal.Correction>
   9.000000E+99

> <Gold.Chemscore.Hbonds>
donor molecule, donor type, donor heavy atom, donor atom, acceptor molecule, acceptor atom, score
      L1  H     1    28       P1 10747  0.57
      P1  H 10752 10764       L1    19  0.30

> <Gold.Chemscore.Hbond.Weighted>
-8.5506

> <Gold.Chemscore.Metal.Weighted>
-0.0000

> <Gold.Chemscore.Lipo.Weighted>
-10.0421

> <Gold.Chemscore.Internal_Hbond.Weighted>
0.0000

> <Gold.Chemscore.DEClash.Weighted>
0.2756

> <Gold.Chemscore.DEInternal.Weighted>
5.9293

> <Gold.Chemscore.Rot.Weighted>
9.2342

> <Gold.Chemscore.Internal.Correction.Weighted>
   9.000000E+99

> <Gold.Protein.RotatedTorsions>
[ 6907 6896 6895 6894 ] final   83.62 input  -60.11 | X-H torsion
[ 7974 7965 7964 7962 ] final -162.35 input  175.53 | X-H torsion
[ 8008 7997 7996 7995 ] final -119.87 input   59.86 | X-H torsion
[ 10167 10162 10161 10158 ] final  -84.76 input  -65.29 | X-H torsion
[ 10718 10713 10712 10709 ] final -146.17 input   66.30 | X-H torsion
[ 10763 10752 10751 10750 ] final  -45.28 input  -60.55 | X-H torsion
[ 11005 11000 10999 10996 ] final  120.06 input  -57.11 | X-H torsion

> <Gold.Protein.ActiveResidues>
 VAL166  LYS551  ARG553  GLY616  TRP617  ASP618  TYR619  PRO620  LYS621  CYS622 
 ASP623  PHE694  ASN695  SER759  ASP760  ASP761  ALA762  ILE779  LEU786  VAL792 
 PHE793  MET794  SER795  GLU796  ALA797  LYS798  CYS799  TRP800  GLU811  SER814 

> <Gold.Protein.RotatedAtoms>
  152.5332  134.2868  159.9027 H   0  0  0  0  0  0  0  0  0  0  0  0  # atno 6907 bound_to 6896
  151.2821  133.4198  159.2635 H   0  0  0  0  0  0  0  0  0  0  0  0  # atno 6908 bound_to 6896
  151.0275  134.9530  159.8149 H   0  0  0  0  0  0  0  0  0  0  0  0  # atno 6909 bound_to 6896
  144.7360  140.3266  143.6161 H   0  0  0  0  0  0  0  0  0  0  0  0  # atno 7974 bound_to 7965
  155.1227  140.0399  157.2754 H   0  0  0  0  0  0  0  0  0  0  0  0  # atno 8008 bound_to 7997
  154.6602  140.2589  155.7092 H   0  0  0  0  0  0  0  0  0  0  0  0  # atno 8009 bound_to 7997
  156.2615  140.2818  156.1070 H   0  0  0  0  0  0  0  0  0  0  0  0  # atno 8010 bound_to 7997
  140.4102  143.2626  151.9028 H   0  0  0  0  0  0  0  0  0  0  0  0  # atno 10167 bound_to 10162
  156.3915  130.7888  151.2091 H   0  0  0  0  0  0  0  0  0  0  0  0  # atno 10718 bound_to 10713
  154.0260  135.6663  153.4776 H   0  0  0  0  0  0  0  0  0  0  0  0  # atno 10763 bound_to 10752
  153.0560  135.5056  154.7978 H   0  0  0  0  0  0  0  0  0  0  0  0  # atno 10764 bound_to 10752
  154.6908  135.3061  154.9447 H   0  0  0  0  0  0  0  0  0  0  0  0  # atno 10765 bound_to 10752
  139.9170  134.9632  156.7749 H   0  0  0  0  0  0  0  0  0  0  0  0  # atno 11005 bound_to 11000
  145.7514  139.1795  143.2319 LP  0  0  0  0  0  0  0  0  0  0  0  0  # atno 17320 bound_to 7965
  146.1057  140.7489  142.9527 LP  0  0  0  0  0  0  0  0  0  0  0  0  # atno 17321 bound_to 7965
  139.4783  144.5545  151.8335 LP  0  0  0  0  0  0  0  0  0  0  0  0  # atno 17342 bound_to 10162
  140.4646  144.1673  150.5910 LP  0  0  0  0  0  0  0  0  0  0  0  0  # atno 17343 bound_to 10162
  157.7499  131.0314  150.4180 LP  0  0  0  0  0  0  0  0  0  0  0  0  # atno 17370 bound_to 10713
  156.4442  130.3998  149.6677 LP  0  0  0  0  0  0  0  0  0  0  0  0  # atno 17371 bound_to 10713
  140.6591  133.9662  155.7795 LP  0  0  0  0  0  0  0  0  0  0  0  0  # atno 17394 bound_to 11000
  141.0656  134.0282  157.3598 LP  0  0  0  0  0  0  0  0  0  0  0  0  # atno 17395 bound_to 11000

$$$$
