AV-unprocessed.smi:1226|AV-procd|sdf|5144|dock10
  -GOLD-   22720 4213D 1   1.00000     0.00000
 Structure written by MMmdl.
 37 38  0  0  0  0  0  0  0  0  1 V2000
  144.8614  134.7645  152.1505 C   0  0  0  0  0  0  0  0  0  0  0  0
  145.6769  133.7156  152.8259 C   0  0  0  0  0  0  0  0  0  0  0  0
  146.9643  133.8723  153.1445 N   0  0  0  0  0  0  0  0  0  0  0  0
  147.5056  132.7454  153.7710 C   0  0  0  0  0  0  0  0  0  0  0  0
  148.9402  132.7487  154.2042 C   0  0  0  0  0  0  0  0  0  0  0  0
  149.2658  133.9370  155.1245 C   0  0  0  0  0  0  0  0  0  0  0  0
  149.5638  135.1437  154.3619 N   0  0  0  0  0  0  0  0  0  0  0  0
  150.5575  135.9993  154.6383 C   0  0  0  0  0  0  0  0  0  0  0  0
  151.3449  135.8639  155.5748 O   0  0  0  0  0  0  0  0  0  0  0  0
  150.5852  137.0245  153.7762 N   0  0  0  0  0  0  0  0  0  0  0  0
  151.5324  138.1328  153.8268 C   0  0  0  0  0  0  0  0  0  0  0  0
  150.9307  139.3783  154.5015 C   0  0  2  0  0  0  0  0  0  0  0  0
  149.6766  139.9338  153.8244 C   0  0  0  0  0  0  0  0  0  0  0  0
  149.7024  141.4145  154.1740 C   0  0  0  0  0  0  0  0  0  0  0  0
  151.1018  141.6416  154.7524 C   0  0  0  0  0  0  0  0  0  0  0  0
  151.8323  140.4695  154.4210 O   0  0  0  0  0  0  0  0  0  0  0  0
  146.6014  131.7234  153.9211 C   0  0  0  0  0  0  0  0  0  0  0  0
  145.0360  132.1417  153.2805 S   0  0  0  0  0  0  0  0  0  0  0  0
  145.3927  135.7167  152.1405 H   0  0  0  0  0  0  0  0  0  0  0  0
  143.9159  134.8983  152.6763 H   0  0  0  0  0  0  0  0  0  0  0  0
  144.6531  134.4690  151.1223 H   0  0  0  0  0  0  0  0  0  0  0  0
  149.1738  131.8165  154.7201 H   0  0  0  0  0  0  0  0  0  0  0  0
  149.5875  132.7735  153.3266 H   0  0  0  0  0  0  0  0  0  0  0  0
  148.4412  134.1260  155.8140 H   0  0  0  0  0  0  0  0  0  0  0  0
  150.1359  133.7022  155.7381 H   0  0  0  0  0  0  0  0  0  0  0  0
  148.9689  135.3420  153.5709 H   0  0  0  0  0  0  0  0  0  0  0  0
  149.8967  137.0473  153.0384 H   0  0  0  0  0  0  0  0  0  0  0  0
  152.4415  137.8244  154.3456 H   0  0  0  0  0  0  0  0  0  0  0  0
  151.8270  138.3705  152.8044 H   0  0  0  0  0  0  0  0  0  0  0  0
  150.7247  139.1781  155.5548 H   0  0  0  0  0  0  0  0  0  0  0  0
  149.7452  139.8141  152.7424 H   0  0  0  0  0  0  0  0  0  0  0  0
  148.7668  139.4351  154.1603 H   0  0  0  0  0  0  0  0  0  0  0  0
  149.5350  142.0222  153.2840 H   0  0  0  0  0  0  0  0  0  0  0  0
  148.9346  141.6714  154.9045 H   0  0  0  0  0  0  0  0  0  0  0  0
  151.5827  142.5337  154.3506 H   0  0  0  0  0  0  0  0  0  0  0  0
  151.0563  141.7392  155.8381 H   0  0  0  0  0  0  0  0  0  0  0  0
  146.7600  130.7535  154.3687 H   0  0  0  0  0  0  0  0  0  0  0  0
  1  2  1  0  0  0  0
  1 19  1  0  0  0  0
  1 20  1  0  0  0  0
  1 21  1  0  0  0  0
  2 18  1  0  0  0  0
  2  3  2  0  0  0  0
  3  4  1  0  0  0  0
  4  5  1  0  0  0  0
  4 17  2  0  0  0  0
  5  6  1  0  0  0  0
  5 22  1  0  0  0  0
  5 23  1  0  0  0  0
  6  7  1  0  0  0  0
  6 24  1  0  0  0  0
  6 25  1  0  0  0  0
  7  8  1  0  0  0  0
  7 26  1  0  0  0  0
  8  9  2  0  0  0  0
  8 10  1  0  0  0  0
 10 11  1  0  0  0  0
 10 27  1  0  0  0  0
 11 12  1  0  0  0  0
 11 28  1  0  0  0  0
 11 29  1  0  0  0  0
 12 16  1  0  0  0  0
 12 13  1  0  0  0  0
 12 30  1  0  0  0  0
 13 14  1  0  0  0  0
 13 31  1  0  0  0  0
 13 32  1  0  0  0  0
 14 15  1  0  0  0  0
 14 33  1  0  0  0  0
 14 34  1  0  0  0  0
 15 16  1  0  0  0  0
 15 35  1  0  0  0  0
 15 36  1  0  0  0  0
 17 18  1  0  0  0  0
 17 37  1  0  0  0  0
M  END
> <s_m_source_file>
AV-unprocessed.smi

> <i_m_source_file_index>
1226

> <i_lp_mmshare_version>
43012

> <i_f3d_flags>
0

> <s_epik_input>
W0NIM11jMW5jKFtjSF1zMSlbQ0gyXVtDSDJdW05IXUMoPU8pW05IXVtDSDJdW0NAQEhdMltDSDJdW0NIMl1bQ0gyXU8y

> <s_epik_cmdline>
J2VwaWtfcHl0aG9uJywgJy1waCcsICc3LjAnLCAnLXRuJywgJzgnLCAnLW1hJywgJzIwMCcsICctbWV0YWxfYmluZGluZycsICctaW1hZScsICc8aW5maWxlLm1hZT4nLCAnLW9tYWUnLCAnPG91dGZpbGUubWFlPic=

> <r_epik_Ionization_Penalty>
0.00199722

> <r_epik_Ionization_Penalty_Charging>
0

> <r_epik_Ionization_Penalty_Neutral>
0.00199722

> <r_epik_State_Penalty>
0.00132705

> <r_epik_Charging_Adjusted_Penalty>
0.00132705

> <i_epik_Tot_Q>
0

> <i_epik_Tot_abs_Q>
0

> <r_epik_Metal_State_Penalty>
-0

> <b_epik_Metal_Only>
0

> <s_lp_Force_Field>
OPLS_2005

> <r_lp_Energy>
9.02747

> <b_lp_Chiralities_Consistent>
1

> <s_lp_Variant>
AV-unprocessed.smi:1226-1

> <Gold.Version>
5.8.1

> <Gold.Id.Protein>
6NUR|6NUR_protein|mol2

> <Gold.PLP.Fitness>
45.3471

> <Gold.PLP.PLP>
-35.6363

> <Gold.PLP.part.hbond>
-5.3757

> <Gold.PLP.part.metal>
0.0000

> <Gold.PLP.part.buried>
-3.1342

> <Gold.PLP.part.nonpolar>
-27.7353

> <Gold.PLP.part.repulsive>
2.0576

> <Gold.PLP.ligand.clash>
0.0000

> <Gold.PLP.ligand.torsion>
0.4290

> <Gold.PLP.Chemscore.Hbond>
3.5176

> <Gold.PLP.Chemscore.CHOScore>
0.0000

> <Gold.PLP.Chemscore.Metal>
0.0000

> <Gold.Chemscore.Hbonds>
donor molecule, donor type, donor heavy atom, donor atom, acceptor molecule, acceptor atom, score
      L1  H     7    26       P1  7948  0.83
      L1  H    10    27       P1  7948  0.89
      P1  H 10752 10763       L1     9  1.00

> <Gold.PLP.Chemscore.Internal.Correction>
0.0160

> <Gold.Rescore>
     Score         DG    S(hbond)    S(metal)    S(lipo)     H(rot)  DE(clash)    DE(int)     intcor
     14.76     -15.98       1.99        0.00      71.33       1.75       0.67       0.56       ----

> <Gold.Chemscore.Fitness>
14.7568

> <Gold.Chemscore.DG>
-15.9804

> <Gold.Chemscore.ZeroCoef>
-5.4800

> <Gold.Chemscore.Hbond>
1.9856

> <Gold.Chemscore.Metal>
0.0000

> <Gold.Chemscore.Lipo>
71.3267

> <Gold.Chemscore.Internal_Hbond>
0.0000

> <Gold.Chemscore.DEClash>
0.6668

> <Gold.Chemscore.DEInternal>
0.5568

> <Gold.Chemscore.Rot>
1.7487

> <Gold.Chemscore.Internal.Correction>
   9.000000E+99

> <Gold.Chemscore.Hbonds>
donor molecule, donor type, donor heavy atom, donor atom, acceptor molecule, acceptor atom, score
      L1  H     7    26       P1  7948  0.53
      L1  H    10    27       P1  7948  0.17
      P1  H 10752 10763       L1     9  0.78

> <Gold.Chemscore.Hbond.Weighted>
-6.6319

> <Gold.Chemscore.Metal.Weighted>
-0.0000

> <Gold.Chemscore.Lipo.Weighted>
-8.3452

> <Gold.Chemscore.Internal_Hbond.Weighted>
0.0000

> <Gold.Chemscore.DEClash.Weighted>
0.6668

> <Gold.Chemscore.DEInternal.Weighted>
0.5568

> <Gold.Chemscore.Rot.Weighted>
4.4768

> <Gold.Chemscore.Internal.Correction.Weighted>
   9.000000E+99

> <Gold.Protein.RotatedTorsions>
[ 6907 6896 6895 6894 ] final  -51.56 input  -60.11 | X-H torsion
[ 7974 7965 7964 7962 ] final   -5.69 input  175.53 | X-H torsion
[ 8008 7997 7996 7995 ] final  -83.17 input   59.86 | X-H torsion
[ 10167 10162 10161 10158 ] final  156.15 input  -65.29 | X-H torsion
[ 10718 10713 10712 10709 ] final   72.78 input   66.30 | X-H torsion
[ 10763 10752 10751 10750 ] final   82.31 input  -60.55 | X-H torsion
[ 11005 11000 10999 10996 ] final  172.67 input  -57.11 | X-H torsion

> <Gold.Protein.ActiveResidues>
 VAL166  LYS551  ARG553  GLY616  TRP617  ASP618  TYR619  PRO620  LYS621  CYS622 
 ASP623  PHE694  ASN695  SER759  ASP760  ASP761  ALA762  ILE779  LEU786  VAL792 
 PHE793  MET794  SER795  GLU796  ALA797  LYS798  CYS799  TRP800  GLU811  SER814 

> <Gold.Protein.RotatedAtoms>
  150.8600  134.7949  159.7074 H   0  0  0  0  0  0  0  0  0  0  0  0  # atno 6907 bound_to 6896
  152.4640  134.5116  159.9765 H   0  0  0  0  0  0  0  0  0  0  0  0  # atno 6908 bound_to 6896
  151.5221  133.3426  159.2939 H   0  0  0  0  0  0  0  0  0  0  0  0  # atno 6909 bound_to 6896
  146.2347  140.2059  142.8334 H   0  0  0  0  0  0  0  0  0  0  0  0  # atno 7974 bound_to 7965
  154.6162  140.0623  156.9557 H   0  0  0  0  0  0  0  0  0  0  0  0  # atno 8008 bound_to 7997
  155.1892  140.3305  155.4343 H   0  0  0  0  0  0  0  0  0  0  0  0  # atno 8009 bound_to 7997
  156.2405  140.1884  156.6983 H   0  0  0  0  0  0  0  0  0  0  0  0  # atno 8010 bound_to 7997
  139.4821  144.5034  151.8134 H   0  0  0  0  0  0  0  0  0  0  0  0  # atno 10167 bound_to 10162
  157.6517  130.9596  150.0977 H   0  0  0  0  0  0  0  0  0  0  0  0  # atno 10718 bound_to 10713
  153.1191  135.4733  154.9166 H   0  0  0  0  0  0  0  0  0  0  0  0  # atno 10763 bound_to 10752
  154.7558  135.3118  154.8475 H   0  0  0  0  0  0  0  0  0  0  0  0  # atno 10764 bound_to 10752
  153.9044  135.6871  153.4807 H   0  0  0  0  0  0  0  0  0  0  0  0  # atno 10765 bound_to 10752
  140.3322  134.7347  157.4142 H   0  0  0  0  0  0  0  0  0  0  0  0  # atno 11005 bound_to 11000
  144.9745  140.8400  143.5435 LP  0  0  0  0  0  0  0  0  0  0  0  0  # atno 17320 bound_to 7965
  145.2044  139.2235  143.5176 LP  0  0  0  0  0  0  0  0  0  0  0  0  # atno 17321 bound_to 7965
  140.4530  144.1829  150.5899 LP  0  0  0  0  0  0  0  0  0  0  0  0  # atno 17342 bound_to 10162
  140.4565  143.2466  151.9278 LP  0  0  0  0  0  0  0  0  0  0  0  0  # atno 17343 bound_to 10162
  156.1908  130.3654  149.8912 LP  0  0  0  0  0  0  0  0  0  0  0  0  # atno 17370 bound_to 10713
  156.6841  130.8870  151.3580 LP  0  0  0  0  0  0  0  0  0  0  0  0  # atno 17371 bound_to 10713
  140.0851  134.5678  155.8501 LP  0  0  0  0  0  0  0  0  0  0  0  0  # atno 17394 bound_to 11000
  141.2060  133.6652  156.6217 LP  0  0  0  0  0  0  0  0  0  0  0  0  # atno 17395 bound_to 11000

$$$$
