AV-unprocessed.smi:1261|AV-procd|sdf|5302|dock10
  -GOLD-   22720 4423D 1   1.00000     0.00000
 Structure written by MMmdl.
 49 50  0  0  0  0  0  0  0  0  3 V2000
  145.9132  128.5411  152.8401 C   0  0  0  0  0  0  0  0  0  0  0  0
  146.4739  129.8336  152.2306 C   0  0  1  0  0  0  0  0  0  0  0  0
  145.3469  130.7657  151.7554 C   0  0  0  0  0  0  0  0  0  0  0  0
  145.9282  132.0608  151.1650 C   0  0  1  0  0  0  0  0  0  0  0  0
  144.8170  133.0138  150.7022 C   0  0  0  0  0  0  0  0  0  0  0  0
  146.8637  132.7371  152.1858 C   0  0  0  0  0  0  0  0  0  0  0  0
  147.9453  131.8179  152.6258 N   0  3  1  0  0  0  0  0  0  0  0  0
  148.9348  132.4988  153.4993 C   0  0  0  0  0  0  0  0  0  0  0  0
  148.3041  133.0550  154.7876 C   0  0  0  0  0  0  0  0  0  0  0  0
  149.0826  134.2588  155.3421 C   0  0  0  0  0  0  0  0  0  0  0  0
  148.2980  135.0010  156.3207 N   0  0  0  0  0  0  0  0  0  0  0  0
  148.4862  134.9652  157.6486 C   0  0  0  0  0  0  0  0  0  0  0  0
  149.3778  134.3099  158.1890 O   0  0  0  0  0  0  0  0  0  0  0  0
  147.5315  135.8172  158.4920 C   0  0  0  0  0  0  0  0  0  0  0  0
  147.4343  135.3253  159.8718 N   0  0  0  0  0  0  0  0  0  0  0  0
  147.2374  133.8807  159.9631 N   0  5  0  0  0  0  0  0  0  0  0  0
  147.1564  133.2991  161.1892 C   0  0  0  0  0  0  0  0  0  0  0  0
  147.0021  132.0898  161.3437 O   0  0  0  0  0  0  0  0  0  0  0  0
  147.2565  134.1543  162.3602 C   0  0  0  0  0  0  0  0  0  0  0  0
  147.4277  135.4860  162.2460 C   0  0  0  0  0  0  0  0  0  0  0  0
  147.5270  136.1517  160.9525 C   0  0  0  0  0  0  0  0  0  0  0  0
  147.6847  137.3675  160.8427 O   0  0  0  0  0  0  0  0  0  0  0  0
  147.3936  130.5721  153.2222 C   0  0  0  0  0  0  0  0  0  0  0  0
  145.3022  128.7489  153.7190 H   0  0  0  0  0  0  0  0  0  0  0  0
  146.7161  127.8691  153.1444 H   0  0  0  0  0  0  0  0  0  0  0  0
  145.2916  128.0056  152.1218 H   0  0  0  0  0  0  0  0  0  0  0  0
  147.0705  129.5534  151.3610 H   0  0  0  0  0  0  0  0  0  0  0  0
  144.7342  130.2586  151.0088 H   0  0  0  0  0  0  0  0  0  0  0  0
  144.6861  131.0032  152.5906 H   0  0  0  0  0  0  0  0  0  0  0  0
  146.5204  131.7969  150.2872 H   0  0  0  0  0  0  0  0  0  0  0  0
  144.1814  133.3166  151.5349 H   0  0  0  0  0  0  0  0  0  0  0  0
  144.1812  132.5409  149.9531 H   0  0  0  0  0  0  0  0  0  0  0  0
  145.2337  133.9172  150.2559 H   0  0  0  0  0  0  0  0  0  0  0  0
  147.3044  133.6254  151.7308 H   0  0  0  0  0  0  0  0  0  0  0  0
  146.2977  133.0745  153.0558 H   0  0  0  0  0  0  0  0  0  0  0  0
  149.7060  131.7830  153.7870 H   0  0  0  0  0  0  0  0  0  0  0  0
  149.4412  133.2892  152.9430 H   0  0  0  0  0  0  0  0  0  0  0  0
  147.2730  133.3552  154.6025 H   0  0  0  0  0  0  0  0  0  0  0  0
  148.2676  132.2701  155.5442 H   0  0  0  0  0  0  0  0  0  0  0  0
  149.9958  133.9197  155.8316 H   0  0  0  0  0  0  0  0  0  0  0  0
  149.3929  134.9213  154.5321 H   0  0  0  0  0  0  0  0  0  0  0  0
  147.5306  135.5578  155.9713 H   0  0  0  0  0  0  0  0  0  0  0  0
  147.8728  136.8537  158.4802 H   0  0  0  0  0  0  0  0  0  0  0  0
  146.5462  135.8346  158.0219 H   0  0  0  0  0  0  0  0  0  0  0  0
  147.1909  133.7123  163.3434 H   0  0  0  0  0  0  0  0  0  0  0  0
  147.4956  136.0827  163.1434 H   0  0  0  0  0  0  0  0  0  0  0  0
  146.8470  130.8177  154.1344 H   0  0  0  0  0  0  0  0  0  0  0  0
  148.2040  129.9046  153.5121 H   0  0  0  0  0  0  0  0  0  0  0  0
  148.4426  131.5488  151.7887 H   0  0  0  0  0  0  0  0  0  0  0  0
  1  2  1  0  0  0  0
  1 24  1  0  0  0  0
  1 25  1  0  0  0  0
  1 26  1  0  0  0  0
  2 23  1  0  0  0  0
  2  3  1  0  0  0  0
  2 27  1  0  0  0  0
  3  4  1  0  0  0  0
  3 28  1  0  0  0  0
  3 29  1  0  0  0  0
  4  5  1  0  0  0  0
  4  6  1  0  0  0  0
  4 30  1  0  0  0  0
  5 31  1  0  0  0  0
  5 32  1  0  0  0  0
  5 33  1  0  0  0  0
  6  7  1  0  0  0  0
  6 34  1  0  0  0  0
  6 35  1  0  0  0  0
  7  8  1  0  0  0  0
  7 23  1  0  0  0  0
  7 49  1  0  0  0  0
  8  9  1  0  0  0  0
  8 36  1  0  0  0  0
  8 37  1  0  0  0  0
  9 10  1  0  0  0  0
  9 38  1  0  0  0  0
  9 39  1  0  0  0  0
 10 11  1  0  0  0  0
 10 40  1  0  0  0  0
 10 41  1  0  0  0  0
 11 12  1  0  0  0  0
 11 42  1  0  0  0  0
 12 13  2  0  0  0  0
 12 14  1  0  0  0  0
 14 43  1  0  0  0  0
 14 44  1  0  0  0  0
 14 15  1  0  0  0  0
 15 16  1  0  0  0  0
 15 21  1  0  0  0  0
 16 17  1  0  0  0  0
 17 18  2  0  0  0  0
 17 19  1  0  0  0  0
 19 45  1  0  0  0  0
 19 20  2  0  0  0  0
 20 46  1  0  0  0  0
 20 21  1  0  0  0  0
 21 22  2  0  0  0  0
 23 47  1  0  0  0  0
 23 48  1  0  0  0  0
M  CHG  1   7   1
M  CHG  1  16  -1
M  END
> <s_m_source_file>
AV-unprocessed.smi

> <i_m_source_file_index>
1261

> <i_lp_mmshare_version>
43012

> <i_f3d_flags>
0

> <s_epik_input>
W0NIM11bQ0BASF0xW0NIMl1bQ0BASF0oW0NIM10pW0NIMl1OKFtDSDJdMSlbQ0gyXVtDSDJdW0NIMl1bTkhdQyg9TylbQ0gyXW4yW25IXWMoPU8pW2NIXVtjSF1jMj1P

> <s_epik_cmdline>
J2VwaWtfcHl0aG9uJywgJy1waCcsICc3LjAnLCAnLXRuJywgJzgnLCAnLW1hJywgJzIwMCcsICctbWV0YWxfYmluZGluZycsICctaW1hZScsICc8aW5maWxlLm1hZT4nLCAnLW9tYWUnLCAnPG91dGZpbGUubWFlPic=

> <r_lp_tautomer_probability>
1

> <r_epik_Ionization_Penalty>
0.0955723

> <r_epik_Ionization_Penalty_Charging>
0.0955723

> <r_epik_Ionization_Penalty_Neutral>
2.68632e-08

> <r_epik_State_Penalty>
0.0334406

> <r_epik_Charging_Adjusted_Penalty>
0.129013

> <i_epik_Tot_Q>
0

> <i_epik_Tot_abs_Q>
2

> <r_epik_Metal_State_Penalty>
0.0334406

> <b_epik_Metal_Only>
0

> <s_lp_Force_Field>
OPLS_2005

> <r_lp_Energy>
31.5278

> <b_lp_Chiralities_Consistent>
1

> <s_lp_Variant>
AV-unprocessed.smi:1261-2

> <Gold.Version>
5.8.1

> <Gold.Id.Protein>
6NUR|6NUR_protein|mol2

> <Gold.PLP.Fitness>
52.6540

> <Gold.PLP.PLP>
-42.8262

> <Gold.PLP.part.hbond>
-4.0000

> <Gold.PLP.part.metal>
0.0000

> <Gold.PLP.part.buried>
-5.9747

> <Gold.PLP.part.nonpolar>
-32.9481

> <Gold.PLP.part.repulsive>
0.0057

> <Gold.PLP.ligand.clash>
0.0000

> <Gold.PLP.ligand.torsion>
0.8033

> <Gold.PLP.Chemscore.Hbond>
3.7920

> <Gold.PLP.Chemscore.CHOScore>
0.0000

> <Gold.PLP.Chemscore.Metal>
0.0000

> <Gold.Chemscore.Hbonds>
donor molecule, donor type, donor heavy atom, donor atom, acceptor molecule, acceptor atom, score
      L1  H     7    49       P1 10747  1.00
      P1  H  6896  6907       L1    13  1.00
      P1  H  6931  6943       L1    22  0.77
      P1  H  6934  6947       L1    22  0.90

> <Gold.PLP.Chemscore.Internal.Correction>
0.0585

> <Gold.Rescore>
     Score         DG    S(hbond)    S(metal)    S(lipo)     H(rot)  DE(clash)    DE(int)     intcor
     20.07     -22.09       3.72        0.00      90.49       2.49       0.04       1.98       ----

> <Gold.Chemscore.Fitness>
20.0710

> <Gold.Chemscore.DG>
-22.0919

> <Gold.Chemscore.ZeroCoef>
-5.4800

> <Gold.Chemscore.Hbond>
3.7151

> <Gold.Chemscore.Metal>
0.0000

> <Gold.Chemscore.Lipo>
90.4906

> <Gold.Chemscore.Internal_Hbond>
0.0000

> <Gold.Chemscore.DEClash>
0.0421

> <Gold.Chemscore.DEInternal>
1.9787

> <Gold.Chemscore.Rot>
2.4938

> <Gold.Chemscore.Internal.Correction>
   9.000000E+99

> <Gold.Chemscore.Hbonds>
donor molecule, donor type, donor heavy atom, donor atom, acceptor molecule, acceptor atom, score
      L1  H     7    49       P1 10747  1.00
      P1  H  6896  6907       L1    13  1.00
      P1  H  6931  6943       L1    22  0.74
      P1  H  6934  6947       L1    22  0.88

> <Gold.Chemscore.Hbond.Weighted>
-12.4085

> <Gold.Chemscore.Metal.Weighted>
-0.0000

> <Gold.Chemscore.Lipo.Weighted>
-10.5874

> <Gold.Chemscore.Internal_Hbond.Weighted>
0.0000

> <Gold.Chemscore.DEClash.Weighted>
0.0421

> <Gold.Chemscore.DEInternal.Weighted>
1.9787

> <Gold.Chemscore.Rot.Weighted>
6.3840

> <Gold.Chemscore.Internal.Correction.Weighted>
   9.000000E+99

> <Gold.Protein.RotatedTorsions>
[ 6907 6896 6895 6894 ] final -103.31 input  -60.11 | X-H torsion
[ 7974 7965 7964 7962 ] final  -18.66 input  175.53 | X-H torsion
[ 8008 7997 7996 7995 ] final  -81.40 input   59.86 | X-H torsion
[ 10167 10162 10161 10158 ] final   48.49 input  -65.29 | X-H torsion
[ 10718 10713 10712 10709 ] final   85.75 input   66.30 | X-H torsion
[ 10763 10752 10751 10750 ] final   43.92 input  -60.55 | X-H torsion
[ 11005 11000 10999 10996 ] final  -43.13 input  -57.11 | X-H torsion

> <Gold.Protein.ActiveResidues>
 VAL166  LYS551  ARG553  GLY616  TRP617  ASP618  TYR619  PRO620  LYS621  CYS622 
 ASP623  PHE694  ASN695  SER759  ASP760  ASP761  ALA762  ILE779  LEU786  VAL792 
 PHE793  MET794  SER795  GLU796  ALA797  LYS798  CYS799  TRP800  GLU811  SER814 

> <Gold.Protein.RotatedAtoms>
  150.7235  134.0448  159.3777 H   0  0  0  0  0  0  0  0  0  0  0  0  # atno 6907 bound_to 6896
  151.8423  135.0584  160.0459 H   0  0  0  0  0  0  0  0  0  0  0  0  # atno 6908 bound_to 6896
  152.2853  133.5473  159.5560 H   0  0  0  0  0  0  0  0  0  0  0  0  # atno 6909 bound_to 6896
  146.1881  140.3952  142.8468 H   0  0  0  0  0  0  0  0  0  0  0  0  # atno 7974 bound_to 7965
  154.5979  140.0648  156.9329 H   0  0  0  0  0  0  0  0  0  0  0  0  # atno 8008 bound_to 7997
  155.2182  140.3328  155.4301 H   0  0  0  0  0  0  0  0  0  0  0  0  # atno 8009 bound_to 7997
  156.2299  140.1836  156.7252 H   0  0  0  0  0  0  0  0  0  0  0  0  # atno 8010 bound_to 7997
  140.2927  144.3027  150.6237 H   0  0  0  0  0  0  0  0  0  0  0  0  # atno 10167 bound_to 10162
  157.6919  131.0188  150.2870 H   0  0  0  0  0  0  0  0  0  0  0  0  # atno 10718 bound_to 10713
  152.9851  135.6086  154.3190 H   0  0  0  0  0  0  0  0  0  0  0  0  # atno 10763 bound_to 10752
  154.2901  135.2775  155.2660 H   0  0  0  0  0  0  0  0  0  0  0  0  # atno 10764 bound_to 10752
  154.4959  135.5879  153.6551 H   0  0  0  0  0  0  0  0  0  0  0  0  # atno 10765 bound_to 10752
  141.0363  133.6798  156.2691 H   0  0  0  0  0  0  0  0  0  0  0  0  # atno 11005 bound_to 11000
  144.8434  140.6893  143.6214 LP  0  0  0  0  0  0  0  0  0  0  0  0  # atno 17320 bound_to 7965
  145.3877  139.1623  143.4246 LP  0  0  0  0  0  0  0  0  0  0  0  0  # atno 17321 bound_to 7965
  140.5718  143.2180  151.7585 LP  0  0  0  0  0  0  0  0  0  0  0  0  # atno 17342 bound_to 10162
  139.4934  144.4205  151.9982 LP  0  0  0  0  0  0  0  0  0  0  0  0  # atno 17343 bound_to 10162
  156.3407  130.3815  149.7411 LP  0  0  0  0  0  0  0  0  0  0  0  0  # atno 17370 bound_to 10713
  156.4921  130.8090  151.3099 LP  0  0  0  0  0  0  0  0  0  0  0  0  # atno 17371 bound_to 10713
  140.6316  134.5258  157.5560 LP  0  0  0  0  0  0  0  0  0  0  0  0  # atno 17394 bound_to 11000
  139.9243  134.8087  156.1116 LP  0  0  0  0  0  0  0  0  0  0  0  0  # atno 17395 bound_to 11000

$$$$
