AV-unprocessed.smi:2518|AV-procd|sdf|9902|dock1
  -GOLD-   2272013543D 1   1.00000     0.00000
 Structure written by MMmdl.
 41 43  0  0  0  0  0  0  0  0  1 V2000
  151.9887  144.4126  158.8006 C   0  0  0  0  0  0  0  0  0  0  0  0
  152.0390  142.8992  158.8422 C   0  0  0  0  0  0  0  0  0  0  0  0
  151.3751  142.1379  157.8602 C   0  0  0  0  0  0  0  0  0  0  0  0
  151.4231  140.7314  157.9050 C   0  0  0  0  0  0  0  0  0  0  0  0
  152.1306  140.0643  158.9260 C   0  0  0  0  0  0  0  0  0  0  0  0
  152.1249  138.6861  158.8927 O   0  0  0  0  0  0  0  0  0  0  0  0
  151.1464  138.0383  158.0912 C   0  0  0  0  0  0  0  0  0  0  0  0
  149.8934  137.7710  158.9452 C   0  0  1  0  0  0  0  0  0  0  0  0
  148.8677  138.6454  158.5198 O   0  0  0  0  0  0  0  0  0  0  0  0
  149.3454  136.3346  158.8183 C   0  0  0  0  0  0  0  0  0  0  0  0
  148.5600  135.9196  159.9712 N   0  0  0  0  0  0  0  0  0  0  0  0
  148.1464  136.8527  160.8666 N   0  0  0  0  0  0  0  0  0  0  0  0
  147.4585  136.1881  161.7928 C   0  0  0  0  0  0  0  0  0  0  0  0
  147.4088  134.7934  161.5209 C   0  0  0  0  0  0  0  0  0  0  0  0
  146.8155  133.6323  162.1769 C   0  0  0  0  0  0  0  0  0  0  0  0
  146.9808  132.4683  161.6308 N   0  0  0  0  0  0  0  0  0  0  0  0
  147.7087  132.3180  160.4448 N   0  0  0  0  0  0  0  0  0  0  0  0
  147.8134  130.9433  159.9613 C   0  0  0  0  0  0  0  0  0  0  0  0
  148.3081  133.3365  159.7577 C   0  0  0  0  0  0  0  0  0  0  0  0
  148.9630  133.1803  158.7271 O   0  0  0  0  0  0  0  0  0  0  0  0
  148.1148  134.6737  160.3694 C   0  0  0  0  0  0  0  0  0  0  0  0
  152.7952  140.8366  159.9126 C   0  0  0  0  0  0  0  0  0  0  0  0
  152.7472  142.2436  159.8686 C   0  0  0  0  0  0  0  0  0  0  0  0
  151.7470  144.7708  157.7994 H   0  0  0  0  0  0  0  0  0  0  0  0
  152.9513  144.8372  159.0874 H   0  0  0  0  0  0  0  0  0  0  0  0
  151.2300  144.7830  159.4902 H   0  0  0  0  0  0  0  0  0  0  0  0
  150.8265  142.6284  157.0695 H   0  0  0  0  0  0  0  0  0  0  0  0
  150.9104  140.1575  157.1470 H   0  0  0  0  0  0  0  0  0  0  0  0
  150.8934  138.6272  157.2078 H   0  0  0  0  0  0  0  0  0  0  0  0
  151.5736  137.0948  157.7526 H   0  0  0  0  0  0  0  0  0  0  0  0
  150.1144  137.9740  159.9940 H   0  0  0  0  0  0  0  0  0  0  0  0
  149.0416  139.5056  158.8703 H   0  0  0  0  0  0  0  0  0  0  0  0
  148.7101  136.2588  157.9343 H   0  0  0  0  0  0  0  0  0  0  0  0
  150.1569  135.6243  158.6632 H   0  0  0  0  0  0  0  0  0  0  0  0
  147.0263  136.7332  162.6190 H   0  0  0  0  0  0  0  0  0  0  0  0
  146.2493  133.7472  163.1011 H   0  0  0  0  0  0  0  0  0  0  0  0
  147.4246  130.8610  158.9451 H   0  0  0  0  0  0  0  0  0  0  0  0
  147.2521  130.2458  160.5854 H   0  0  0  0  0  0  0  0  0  0  0  0
  148.8549  130.6188  159.9564 H   0  0  0  0  0  0  0  0  0  0  0  0
  153.3488  140.3742  160.7156 H   0  0  0  0  0  0  0  0  0  0  0  0
  153.2574  142.8189  160.6274 H   0  0  0  0  0  0  0  0  0  0  0  0
  1  2  1  0  0  0  0
  1 24  1  0  0  0  0
  1 25  1  0  0  0  0
  1 26  1  0  0  0  0
  2 23  1  0  0  0  0
  2  3  2  0  0  0  0
  3  4  1  0  0  0  0
  3 27  1  0  0  0  0
  4  5  2  0  0  0  0
  4 28  1  0  0  0  0
  5  6  1  0  0  0  0
  5 22  1  0  0  0  0
  6  7  1  0  0  0  0
  7  8  1  0  0  0  0
  7 29  1  0  0  0  0
  7 30  1  0  0  0  0
  8  9  1  0  0  0  0
  8 10  1  0  0  0  0
  8 31  1  0  0  0  0
  9 32  1  0  0  0  0
 10 11  1  0  0  0  0
 10 33  1  0  0  0  0
 10 34  1  0  0  0  0
 11 21  1  0  0  0  0
 11 12  1  0  0  0  0
 12 13  2  0  0  0  0
 13 14  1  0  0  0  0
 13 35  1  0  0  0  0
 14 21  2  0  0  0  0
 14 15  1  0  0  0  0
 15 16  2  0  0  0  0
 15 36  1  0  0  0  0
 16 17  1  0  0  0  0
 17 18  1  0  0  0  0
 17 19  1  0  0  0  0
 18 37  1  0  0  0  0
 18 38  1  0  0  0  0
 18 39  1  0  0  0  0
 19 20  2  0  0  0  0
 19 21  1  0  0  0  0
 22 23  2  0  0  0  0
 22 40  1  0  0  0  0
 23 41  1  0  0  0  0
M  END
> <s_m_source_file>
AV-unprocessed.smi

> <i_m_source_file_index>
2518

> <i_lp_mmshare_version>
43012

> <i_f3d_flags>
0

> <s_epik_input>
W0NIM11jMVtjSF1bY0hdYyhbY0hdW2NIXTEpT1tDSDJdW0NASF0oW09IXSlbQ0gyXW4obltjSF0yKWMoYzIzKWMoPU8pbihbQ0gzXSluW2NIXTM=

> <s_epik_cmdline>
J2VwaWtfcHl0aG9uJywgJy1waCcsICc3LjAnLCAnLXRuJywgJzgnLCAnLW1hJywgJzIwMCcsICctbWV0YWxfYmluZGluZycsICctaW1hZScsICc8aW5maWxlLm1hZT4nLCAnLW9tYWUnLCAnPG91dGZpbGUubWFlPic=

> <r_lp_tautomer_probability>
1

> <r_epik_Ionization_Penalty>
2.246e-06

> <r_epik_Ionization_Penalty_Charging>
1.41975e-10

> <r_epik_Ionization_Penalty_Neutral>
2.24586e-06

> <r_epik_State_Penalty>
-0

> <r_epik_Charging_Adjusted_Penalty>
1.41975e-10

> <i_epik_Tot_Q>
0

> <i_epik_Tot_abs_Q>
0

> <r_epik_Metal_State_Penalty>
-0

> <b_epik_Metal_Only>
0

> <s_lp_Force_Field>
OPLS_2005

> <r_lp_Energy>
31.8709

> <b_lp_Chiralities_Consistent>
1

> <s_lp_Variant>
AV-unprocessed.smi:2518-2

> <Gold.Version>
5.8.1

> <Gold.Id.Protein>
6NUR|6NUR_protein|mol2

> <Gold.PLP.Fitness>
48.3127

> <Gold.PLP.PLP>
-44.5755

> <Gold.PLP.part.hbond>
-4.0000

> <Gold.PLP.part.metal>
0.0000

> <Gold.PLP.part.buried>
-3.8074

> <Gold.PLP.part.nonpolar>
-37.5853

> <Gold.PLP.part.repulsive>
0.0121

> <Gold.PLP.ligand.clash>
1.3127

> <Gold.PLP.ligand.torsion>
1.5134

> <Gold.PLP.Chemscore.Hbond>
2.6233

> <Gold.PLP.Chemscore.CHOScore>
0.0000

> <Gold.PLP.Chemscore.Metal>
0.0000

> <Gold.Chemscore.Hbonds>
donor molecule, donor type, donor heavy atom, donor atom, acceptor molecule, acceptor atom, score
      P1  H  6896  6908       L1    20  0.95
      P1  H  6931  6943       L1    12  1.00
      P1  H  6934  6947       L1    12  0.11

> <Gold.PLP.Chemscore.Internal.Correction>
0.2069

> <Gold.Rescore>
     Score         DG    S(hbond)    S(metal)    S(lipo)     H(rot)  DE(clash)    DE(int)     intcor
     16.97     -18.75       1.82        0.00     113.01       2.35       0.39       1.40       ----

> <Gold.Chemscore.Fitness>
16.9698

> <Gold.Chemscore.DG>
-18.7541

> <Gold.Chemscore.ZeroCoef>
-5.4800

> <Gold.Chemscore.Hbond>
1.8160

> <Gold.Chemscore.Metal>
0.0000

> <Gold.Chemscore.Lipo>
113.0093

> <Gold.Chemscore.Internal_Hbond>
0.0000

> <Gold.Chemscore.DEClash>
0.3869

> <Gold.Chemscore.DEInternal>
1.3973

> <Gold.Chemscore.Rot>
2.3490

> <Gold.Chemscore.Internal.Correction>
   9.000000E+99

> <Gold.Chemscore.Hbonds>
donor molecule, donor type, donor heavy atom, donor atom, acceptor molecule, acceptor atom, score
      P1  H  6896  6908       L1    20  0.21
      P1  H  6931  6943       L1    12  0.38
      P1  H  6934  6947       L1    12  0.06

> <Gold.Chemscore.Hbond.Weighted>
-6.0655

> <Gold.Chemscore.Metal.Weighted>
-0.0000

> <Gold.Chemscore.Lipo.Weighted>
-13.2221

> <Gold.Chemscore.Internal_Hbond.Weighted>
0.0000

> <Gold.Chemscore.DEClash.Weighted>
0.3869

> <Gold.Chemscore.DEInternal.Weighted>
1.3973

> <Gold.Chemscore.Rot.Weighted>
6.0136

> <Gold.Chemscore.Internal.Correction.Weighted>
   9.000000E+99

> <Gold.Protein.RotatedTorsions>
[ 6907 6896 6895 6894 ] final  130.09 input  -60.11 | X-H torsion
[ 7974 7965 7964 7962 ] final -142.73 input  175.53 | X-H torsion
[ 8008 7997 7996 7995 ] final   -4.91 input   59.86 | X-H torsion
[ 10167 10162 10161 10158 ] final  -71.94 input  -65.29 | X-H torsion
[ 10718 10713 10712 10709 ] final -126.14 input   66.30 | X-H torsion
[ 10763 10752 10751 10750 ] final  -15.67 input  -60.55 | X-H torsion
[ 11005 11000 10999 10996 ] final   43.68 input  -57.11 | X-H torsion

> <Gold.Protein.ActiveResidues>
 VAL166  LYS551  ARG553  GLY616  TRP617  ASP618  TYR619  PRO620  LYS621  CYS622 
 ASP623  PHE694  ASN695  SER759  ASP760  ASP761  ALA762  ILE779  LEU786  VAL792 
 PHE793  MET794  SER795  GLU796  ALA797  LYS798  CYS799  TRP800  GLU811  SER814 

> <Gold.Protein.RotatedAtoms>
  152.3560  133.6237  159.5979 H   0  0  0  0  0  0  0  0  0  0  0  0  # atno 6907 bound_to 6896
  150.7569  133.9499  159.3491 H   0  0  0  0  0  0  0  0  0  0  0  0  # atno 6908 bound_to 6896
  151.7344  135.0869  160.0356 H   0  0  0  0  0  0  0  0  0  0  0  0  # atno 6909 bound_to 6896
  144.8422  140.5922  143.5445 H   0  0  0  0  0  0  0  0  0  0  0  0  # atno 7974 bound_to 7965
  154.6093  140.2472  155.7689 H   0  0  0  0  0  0  0  0  0  0  0  0  # atno 8008 bound_to 7997
  156.2361  140.2950  156.0266 H   0  0  0  0  0  0  0  0  0  0  0  0  # atno 8009 bound_to 7997
  155.2078  140.0396  157.2919 H   0  0  0  0  0  0  0  0  0  0  0  0  # atno 8010 bound_to 7997
  140.5233  143.2329  151.7392 H   0  0  0  0  0  0  0  0  0  0  0  0  # atno 10167 bound_to 10162
  156.1738  130.6685  151.0215 H   0  0  0  0  0  0  0  0  0  0  0  0  # atno 10718 bound_to 10713
  153.5468  135.7012  153.5610 H   0  0  0  0  0  0  0  0  0  0  0  0  # atno 10763 bound_to 10752
  153.3551  135.3984  155.1676 H   0  0  0  0  0  0  0  0  0  0  0  0  # atno 10764 bound_to 10752
  154.8666  135.3775  154.4976 H   0  0  0  0  0  0  0  0  0  0  0  0  # atno 10765 bound_to 10752
  140.1623  134.4326  155.8310 H   0  0  0  0  0  0  0  0  0  0  0  0  # atno 11005 bound_to 11000
  145.4671  139.1507  143.3834 LP  0  0  0  0  0  0  0  0  0  0  0  0  # atno 17320 bound_to 7965
  146.2712  140.4803  142.8813 LP  0  0  0  0  0  0  0  0  0  0  0  0  # atno 17321 bound_to 7965
  139.4930  144.4223  151.9964 LP  0  0  0  0  0  0  0  0  0  0  0  0  # atno 17342 bound_to 10162
  140.3321  144.3304  150.5985 LP  0  0  0  0  0  0  0  0  0  0  0  0  # atno 17343 bound_to 10162
  157.6821  131.0835  150.7341 LP  0  0  0  0  0  0  0  0  0  0  0  0  # atno 17370 bound_to 10713
  156.7400  130.4736  149.5480 LP  0  0  0  0  0  0  0  0  0  0  0  0  # atno 17371 bound_to 10713
  141.2210  133.6918  156.7615 LP  0  0  0  0  0  0  0  0  0  0  0  0  # atno 17394 bound_to 11000
  140.2475  134.8566  157.3635 LP  0  0  0  0  0  0  0  0  0  0  0  0  # atno 17395 bound_to 11000

$$$$
