AV-unprocessed.smi:645|AV-procd|sdf|3160|dock1
  -GOLD-   22720 0 83D 1   1.00000     0.00000
 Structure written by MMmdl.
 23 24  0  0  0  0  0  0  0  0  1 V2000
  148.2460  142.3867  158.0857 C   0  0  0  0  0  0  0  0  0  0  0  0
  149.5761  141.9610  157.4317 C   0  0  2  0  0  0  0  0  0  0  0  0
  150.7998  142.5142  158.1791 C   0  0  0  0  0  0  0  0  0  0  0  0
  151.7424  141.6673  158.8117 C   0  0  0  0  0  0  0  0  0  0  0  0
  152.8443  142.2460  159.4725 C   0  0  0  0  0  0  0  0  0  0  0  0
  153.0576  143.5764  159.5373 N   0  0  0  0  0  0  0  0  0  0  0  0
  152.1619  144.3850  158.9342 C   0  0  0  0  0  0  0  0  0  0  0  0
  151.0284  143.9084  158.2473 C   0  0  0  0  0  0  0  0  0  0  0  0
  149.5571  142.2937  156.0127 N   0  0  0  0  0  0  0  0  0  0  0  0
  149.6856  141.2217  155.2198 C   0  0  0  0  0  0  0  0  0  0  0  0
  149.7257  141.2315  153.9919 O   0  0  0  0  0  0  0  0  0  0  0  0
  149.7525  140.1403  156.0010 N   0  0  0  0  0  0  0  0  0  0  0  0
  149.6757  140.4432  157.2957 C   0  0  0  0  0  0  0  0  0  0  0  0
  149.6745  139.6472  158.2338 O   0  0  0  0  0  0  0  0  0  0  0  0
  148.1698  142.0438  159.1178 H   0  0  0  0  0  0  0  0  0  0  0  0
  147.3874  141.9817  157.5477 H   0  0  0  0  0  0  0  0  0  0  0  0
  148.1451  143.4725  158.0920 H   0  0  0  0  0  0  0  0  0  0  0  0
  151.6410  140.5926  158.8030 H   0  0  0  0  0  0  0  0  0  0  0  0
  153.5759  141.6205  159.9625 H   0  0  0  0  0  0  0  0  0  0  0  0
  152.3533  145.4456  159.0006 H   0  0  0  0  0  0  0  0  0  0  0  0
  150.3463  144.6082  157.7878 H   0  0  0  0  0  0  0  0  0  0  0  0
  149.4860  143.2432  155.6773 H   0  0  0  0  0  0  0  0  0  0  0  0
  149.8355  139.1978  155.6489 H   0  0  0  0  0  0  0  0  0  0  0  0
  1  2  1  0  0  0  0
  1 15  1  0  0  0  0
  1 16  1  0  0  0  0
  1 17  1  0  0  0  0
  2 13  1  0  0  0  0
  2  3  1  0  0  0  0
  2  9  1  0  0  0  0
  3  8  1  0  0  0  0
  3  4  2  0  0  0  0
  4  5  1  0  0  0  0
  4 18  1  0  0  0  0
  5  6  2  0  0  0  0
  5 19  1  0  0  0  0
  6  7  1  0  0  0  0
  7  8  2  0  0  0  0
  7 20  1  0  0  0  0
  8 21  1  0  0  0  0
  9 10  1  0  0  0  0
  9 22  1  0  0  0  0
 10 11  2  0  0  0  0
 10 12  1  0  0  0  0
 12 13  1  0  0  0  0
 12 23  1  0  0  0  0
 13 14  2  0  0  0  0
M  END
> <s_m_source_file>
AV-unprocessed.smi

> <i_m_source_file_index>
645

> <i_lp_mmshare_version>
43012

> <i_f3d_flags>
0

> <s_epik_input>
Tz1DMVtOSF1DKD1PKVtOSF1bQ0BAXTEoW0NIM10pYzJbY0hdW2NIXW5bY0hdW2NIXTI=

> <s_epik_cmdline>
J2VwaWtfcHl0aG9uJywgJy1waCcsICc3LjAnLCAnLXRuJywgJzgnLCAnLW1hJywgJzIwMCcsICctbWV0YWxfYmluZGluZycsICctaW1hZScsICc8aW5maWxlLm1hZT4nLCAnLW9tYWUnLCAnPG91dGZpbGUubWFlPic=

> <r_lp_tautomer_probability>
1

> <r_epik_Ionization_Penalty>
0.0327402

> <r_epik_Ionization_Penalty_Charging>
0

> <r_epik_Ionization_Penalty_Neutral>
0.0327402

> <r_epik_State_Penalty>
0.022996

> <r_epik_Charging_Adjusted_Penalty>
0.022996

> <i_epik_Tot_Q>
0

> <i_epik_Tot_abs_Q>
0

> <r_epik_Metal_State_Penalty>
0.426243

> <b_epik_Metal_Only>
0

> <s_lp_Force_Field>
OPLS_2005

> <r_lp_Energy>
18.0362

> <b_lp_Chiralities_Consistent>
1

> <s_lp_Variant>
AV-unprocessed.smi:645-2

> <Gold.Version>
5.8.1

> <Gold.Id.Protein>
6NUR|6NUR_protein|mol2

> <Gold.PLP.Fitness>
31.0781

> <Gold.PLP.PLP>
-24.9963

> <Gold.PLP.part.hbond>
-2.9931

> <Gold.PLP.part.metal>
0.0000

> <Gold.PLP.part.buried>
-4.1236

> <Gold.PLP.part.nonpolar>
-19.1194

> <Gold.PLP.part.repulsive>
0.6899

> <Gold.PLP.ligand.clash>
0.0000

> <Gold.PLP.ligand.torsion>
0.1024

> <Gold.PLP.Chemscore.Hbond>
2.0560

> <Gold.PLP.Chemscore.CHOScore>
0.0000

> <Gold.PLP.Chemscore.Metal>
0.0000

> <Gold.Chemscore.Hbonds>
donor molecule, donor type, donor heavy atom, donor atom, acceptor molecule, acceptor atom, score
      L1  H     9    22       P1  8028  1.00
      P1  H  7989  7998       L1    11  0.34
      P1  H  8011  8017       L1    11  0.76

> <Gold.PLP.Chemscore.Internal.Correction>
0.1187

> <Gold.Rescore>
     Score         DG    S(hbond)    S(metal)    S(lipo)     H(rot)  DE(clash)    DE(int)     intcor
     13.99     -15.62       1.90        0.00      54.43       1.00       0.45       1.19       ----

> <Gold.Chemscore.Fitness>
13.9858

> <Gold.Chemscore.DG>
-15.6224

> <Gold.Chemscore.ZeroCoef>
-5.4800

> <Gold.Chemscore.Hbond>
1.8966

> <Gold.Chemscore.Metal>
0.0000

> <Gold.Chemscore.Lipo>
54.4268

> <Gold.Chemscore.Internal_Hbond>
0.0000

> <Gold.Chemscore.DEClash>
0.4479

> <Gold.Chemscore.DEInternal>
1.1887

> <Gold.Chemscore.Rot>
1.0000

> <Gold.Chemscore.Internal.Correction>
   9.000000E+99

> <Gold.Chemscore.Hbonds>
donor molecule, donor type, donor heavy atom, donor atom, acceptor molecule, acceptor atom, score
      L1  H     9    22       P1  8028  0.96
      P1  H  7989  7998       L1    11  0.20
      P1  H  8011  8017       L1    11  0.72

> <Gold.Chemscore.Hbond.Weighted>
-6.3345

> <Gold.Chemscore.Metal.Weighted>
-0.0000

> <Gold.Chemscore.Lipo.Weighted>
-6.3679

> <Gold.Chemscore.Internal_Hbond.Weighted>
0.0000

> <Gold.Chemscore.DEClash.Weighted>
0.4479

> <Gold.Chemscore.DEInternal.Weighted>
1.1887

> <Gold.Chemscore.Rot.Weighted>
2.5600

> <Gold.Chemscore.Internal.Correction.Weighted>
   9.000000E+99

> <Gold.Protein.RotatedTorsions>
[ 6907 6896 6895 6894 ] final   70.18 input  -60.11 | X-H torsion
[ 7974 7965 7964 7962 ] final  157.17 input  175.53 | X-H torsion
[ 8008 7997 7996 7995 ] final  -52.24 input   59.86 | X-H torsion
[ 10167 10162 10161 10158 ] final  -17.18 input  -65.29 | X-H torsion
[ 10718 10713 10712 10709 ] final   33.22 input   66.30 | X-H torsion
[ 10763 10752 10751 10750 ] final   42.88 input  -60.55 | X-H torsion
[ 11005 11000 10999 10996 ] final  166.40 input  -57.11 | X-H torsion

> <Gold.Protein.ActiveResidues>
 VAL166  LYS551  ARG553  GLY616  TRP617  ASP618  TYR619  PRO620  LYS621  CYS622 
 ASP623  PHE694  ASN695  SER759  ASP760  ASP761  ALA762  ILE779  LEU786  VAL792 
 PHE793  MET794  SER795  GLU796  ALA797  LYS798  CYS799  TRP800  GLU811  SER814 

> <Gold.Protein.RotatedAtoms>
  152.4733  134.4906  159.9693 H   0  0  0  0  0  0  0  0  0  0  0  0  # atno 6907 bound_to 6896
  151.4928  133.3515  159.2864 H   0  0  0  0  0  0  0  0  0  0  0  0  # atno 6908 bound_to 6896
  150.8756  134.8165  159.7249 H   0  0  0  0  0  0  0  0  0  0  0  0  # atno 6909 bound_to 6896
  144.7919  139.7304  143.6218 H   0  0  0  0  0  0  0  0  0  0  0  0  # atno 7974 bound_to 7965
  154.4102  140.1228  156.4959 H   0  0  0  0  0  0  0  0  0  0  0  0  # atno 8008 bound_to 7997
  155.6944  140.3495  155.4887 H   0  0  0  0  0  0  0  0  0  0  0  0  # atno 8009 bound_to 7997
  155.9441  140.1092  157.1021 H   0  0  0  0  0  0  0  0  0  0  0  0  # atno 8010 bound_to 7997
  140.7244  143.5041  150.9832 H   0  0  0  0  0  0  0  0  0  0  0  0  # atno 10167 bound_to 10162
  157.2951  130.7322  149.6633 H   0  0  0  0  0  0  0  0  0  0  0  0  # atno 10718 bound_to 10713
  152.9873  135.6118  154.3021 H   0  0  0  0  0  0  0  0  0  0  0  0  # atno 10763 bound_to 10752
  154.2741  135.2779  155.2727 H   0  0  0  0  0  0  0  0  0  0  0  0  # atno 10764 bound_to 10752
  154.5096  135.5844  153.6651 H   0  0  0  0  0  0  0  0  0  0  0  0  # atno 10765 bound_to 10752
  140.2660  134.7864  157.3633 H   0  0  0  0  0  0  0  0  0  0  0  0  # atno 11005 bound_to 11000
  146.2174  139.5573  142.9641 LP  0  0  0  0  0  0  0  0  0  0  0  0  # atno 17320 bound_to 7965
  145.5773  141.0387  143.2141 LP  0  0  0  0  0  0  0  0  0  0  0  0  # atno 17321 bound_to 7965
  139.8752  143.7142  152.3162 LP  0  0  0  0  0  0  0  0  0  0  0  0  # atno 17342 bound_to 10162
  139.7405  144.7560  151.0660 LP  0  0  0  0  0  0  0  0  0  0  0  0  # atno 17343 bound_to 10162
  155.9669  130.4297  150.4844 LP  0  0  0  0  0  0  0  0  0  0  0  0  # atno 17370 bound_to 10713
  157.2814  131.0607  151.2195 LP  0  0  0  0  0  0  0  0  0  0  0  0  # atno 17371 bound_to 10713
  140.1419  134.4961  155.8025 LP  0  0  0  0  0  0  0  0  0  0  0  0  # atno 17394 bound_to 11000
  141.2184  133.6828  156.7225 LP  0  0  0  0  0  0  0  0  0  0  0  0  # atno 17395 bound_to 11000

$$$$
