AV-unprocessed.smi:2774|AV-procd|sdf|10683|dock10
  -GOLD-   2272015133D 1   1.00000     0.00000
 Structure written by MMmdl.
 35 36  0  0  0  0  0  0  0  0  2 V2000
  149.5547  141.7849  154.4684 O   0  0  0  0  0  0  0  0  0  0  0  0
  150.3026  141.2855  155.5596 C   0  0  1  0  0  0  0  0  0  0  0  0
  149.4070  141.2837  156.8112 C   0  0  0  0  0  0  0  0  0  0  0  0
  149.5189  142.5559  157.5574 N   0  3  0  0  0  0  0  0  0  0  0  0
  150.8477  142.8267  158.1493 C   0  0  1  0  0  0  0  0  0  0  0  0
  150.7961  144.1535  158.9322 C   0  0  0  0  0  0  0  0  0  0  0  0
  152.1617  144.5609  159.5101 C   0  0  0  0  0  0  0  0  0  0  0  0
  152.7100  143.5269  160.5024 C   0  0  0  0  0  0  0  0  0  0  0  0
  152.9741  141.9253  159.6958 S   0  0  0  0  0  0  0  0  0  0  0  0
  151.2978  141.6621  159.0556 C   0  0  0  0  0  0  0  0  0  0  0  0
  150.8503  139.8971  155.2705 C   0  0  0  0  0  0  0  0  0  0  0  0
  152.2222  139.6164  155.4415 C   0  0  0  0  0  0  0  0  0  0  0  0
  152.6828  138.3131  155.1659 C   0  0  0  0  0  0  0  0  0  0  0  0
  151.8761  137.3147  154.7472 N   0  0  0  0  0  0  0  0  0  0  0  0
  150.5641  137.5882  154.5852 C   0  0  0  0  0  0  0  0  0  0  0  0
  150.0024  138.8568  154.8323 C   0  0  0  0  0  0  0  0  0  0  0  0
  149.1558  142.6022  154.7279 H   0  0  0  0  0  0  0  0  0  0  0  0
  151.1421  141.9641  155.7187 H   0  0  0  0  0  0  0  0  0  0  0  0
  148.3702  141.1011  156.5289 H   0  0  0  0  0  0  0  0  0  0  0  0
  149.7055  140.4683  157.4717 H   0  0  0  0  0  0  0  0  0  0  0  0
  149.3119  143.3019  156.9090 H   0  0  0  0  0  0  0  0  0  0  0  0
  151.5629  142.9441  157.3336 H   0  0  0  0  0  0  0  0  0  0  0  0
  150.4436  144.9495  158.2748 H   0  0  0  0  0  0  0  0  0  0  0  0
  150.0666  144.0812  159.7400 H   0  0  0  0  0  0  0  0  0  0  0  0
  152.8771  144.7093  158.7002 H   0  0  0  0  0  0  0  0  0  0  0  0
  152.0666  145.5240  160.0124 H   0  0  0  0  0  0  0  0  0  0  0  0
  153.6574  143.8689  160.9197 H   0  0  0  0  0  0  0  0  0  0  0  0
  152.0210  143.3965  161.3374 H   0  0  0  0  0  0  0  0  0  0  0  0
  150.6133  141.5439  159.8966 H   0  0  0  0  0  0  0  0  0  0  0  0
  151.3004  140.7169  158.5140 H   0  0  0  0  0  0  0  0  0  0  0  0
  152.9119  140.3779  155.7751 H   0  0  0  0  0  0  0  0  0  0  0  0
  153.7271  138.0659  155.2865 H   0  0  0  0  0  0  0  0  0  0  0  0
  149.9421  136.7714  154.2500 H   0  0  0  0  0  0  0  0  0  0  0  0
  148.9446  139.0222  154.6887 H   0  0  0  0  0  0  0  0  0  0  0  0
  148.8243  142.5695  158.2909 H   0  0  0  0  0  0  0  0  0  0  0  0
  1  2  1  0  0  0  0
  1 17  1  0  0  0  0
  2  3  1  0  0  0  0
  2 11  1  0  0  0  0
  2 18  1  0  0  0  0
  3  4  1  0  0  0  0
  3 19  1  0  0  0  0
  3 20  1  0  0  0  0
  4  5  1  0  0  0  0
  4 21  1  0  0  0  0
  4 35  1  0  0  0  0
  5 10  1  0  0  0  0
  5  6  1  0  0  0  0
  5 22  1  0  0  0  0
  6  7  1  0  0  0  0
  6 23  1  0  0  0  0
  6 24  1  0  0  0  0
  7  8  1  0  0  0  0
  7 25  1  0  0  0  0
  7 26  1  0  0  0  0
  8  9  1  0  0  0  0
  8 27  1  0  0  0  0
  8 28  1  0  0  0  0
  9 10  1  0  0  0  0
 10 29  1  0  0  0  0
 10 30  1  0  0  0  0
 11 16  1  0  0  0  0
 11 12  2  0  0  0  0
 12 13  1  0  0  0  0
 12 31  1  0  0  0  0
 13 14  2  0  0  0  0
 13 32  1  0  0  0  0
 14 15  1  0  0  0  0
 15 16  2  0  0  0  0
 15 33  1  0  0  0  0
 16 34  1  0  0  0  0
M  CHG  1   4   1
M  END
> <s_m_source_file>
AV-unprocessed.smi

> <i_m_source_file_index>
2774

> <i_lp_mmshare_version>
43012

> <i_f3d_flags>
0

> <s_epik_input>
W2NIXTFbY0hdbltjSF1bY0hdYzFbQ0BIXShbT0hdKVtDSDJdW05IXVtDQEBIXTJbQ0gyXVtDSDJdW0NIMl1TW0NIMl0y

> <s_epik_cmdline>
J2VwaWtfcHl0aG9uJywgJy1waCcsICc3LjAnLCAnLXRuJywgJzgnLCAnLW1hJywgJzIwMCcsICctbWV0YWxfYmluZGluZycsICctaW1hZScsICc8aW5maWxlLm1hZT4nLCAnLW9tYWUnLCAnPG91dGZpbGUubWFlPic=

> <r_epik_Ionization_Penalty>
0.0205977

> <r_epik_Ionization_Penalty_Charging>
0.0185619

> <r_epik_Ionization_Penalty_Neutral>
0.00203589

> <r_epik_State_Penalty>
0.0147768

> <r_epik_Charging_Adjusted_Penalty>
0.0333386

> <i_epik_Tot_Q>
1

> <i_epik_Tot_abs_Q>
1

> <r_epik_Metal_State_Penalty>
0.0152254

> <b_epik_Metal_Only>
0

> <s_lp_Force_Field>
OPLS_2005

> <r_lp_Energy>
9.96731

> <b_lp_Chiralities_Consistent>
1

> <s_lp_Variant>
AV-unprocessed.smi:2774-4

> <Gold.Version>
5.8.1

> <Gold.Id.Protein>
6NUR|6NUR_protein|mol2

> <Gold.PLP.Fitness>
51.2878

> <Gold.PLP.PLP>
-38.6365

> <Gold.PLP.part.hbond>
-4.5532

> <Gold.PLP.part.metal>
0.0000

> <Gold.PLP.part.buried>
1.0366

> <Gold.PLP.part.nonpolar>
-34.0147

> <Gold.PLP.part.repulsive>
0.1807

> <Gold.PLP.ligand.clash>
0.0000

> <Gold.PLP.ligand.torsion>
0.5667

> <Gold.PLP.Chemscore.Hbond>
3.5912

> <Gold.PLP.Chemscore.CHOScore>
1.0000

> <Gold.PLP.Chemscore.Metal>
0.0000

> <Gold.Chemscore.Hbonds>
donor molecule, donor type, donor heavy atom, donor atom, acceptor molecule, acceptor atom, score
      L1  H     1    17       P1  8028  0.29
      L1  H     4    21       P1  8028  2.00
      P1  H  8011  8017       L1     1  0.14
      P1  H 10752 10765       L1    14  0.94
      L1  C    15    33       P1  7948  0.81

> <Gold.PLP.Chemscore.Internal.Correction>
0.0112

> <Gold.Rescore>
     Score         DG    S(hbond)    S(metal)    S(lipo)     H(rot)  DE(clash)    DE(int)     intcor
     19.30     -19.94       1.94        0.00     111.36       1.97       0.16       0.48       ----

> <Gold.Chemscore.Fitness>
19.3032

> <Gold.Chemscore.DG>
-19.9448

> <Gold.Chemscore.ZeroCoef>
-5.4800

> <Gold.Chemscore.Hbond>
1.9388

> <Gold.Chemscore.Metal>
0.0000

> <Gold.Chemscore.Lipo>
111.3564

> <Gold.Chemscore.Internal_Hbond>
0.0000

> <Gold.Chemscore.DEClash>
0.1599

> <Gold.Chemscore.DEInternal>
0.4817

> <Gold.Chemscore.Rot>
1.9686

> <Gold.Chemscore.Internal.Correction>
   9.000000E+99

> <Gold.Chemscore.Hbonds>
donor molecule, donor type, donor heavy atom, donor atom, acceptor molecule, acceptor atom, score
      L1  H     1    17       P1  8028  0.29
      L1  H     4    21       P1  8028  0.95
      P1  H  8011  8017       L1     1  0.01
      P1  H 10752 10765       L1    14  0.64

> <Gold.Chemscore.Hbond.Weighted>
-6.4757

> <Gold.Chemscore.Metal.Weighted>
-0.0000

> <Gold.Chemscore.Lipo.Weighted>
-13.0287

> <Gold.Chemscore.Internal_Hbond.Weighted>
0.0000

> <Gold.Chemscore.DEClash.Weighted>
0.1599

> <Gold.Chemscore.DEInternal.Weighted>
0.4817

> <Gold.Chemscore.Rot.Weighted>
5.0396

> <Gold.Chemscore.Internal.Correction.Weighted>
   9.000000E+99

> <Gold.Protein.RotatedTorsions>
[ 6907 6896 6895 6894 ] final   87.96 input  -60.11 | X-H torsion
[ 7974 7965 7964 7962 ] final  140.08 input  175.53 | X-H torsion
[ 8008 7997 7996 7995 ] final   -9.36 input   59.86 | X-H torsion
[ 10167 10162 10161 10158 ] final -169.70 input  -65.29 | X-H torsion
[ 10718 10713 10712 10709 ] final  100.61 input   66.30 | X-H torsion
[ 10763 10752 10751 10750 ] final  163.08 input  -60.55 | X-H torsion
[ 11005 11000 10999 10996 ] final -137.90 input  -57.11 | X-H torsion

> <Gold.Protein.ActiveResidues>
 VAL166  LYS551  ARG553  GLY616  TRP617  ASP618  TYR619  PRO620  LYS621  CYS622 
 ASP623  PHE694  ASN695  SER759  ASP760  ASP761  ALA762  ILE779  LEU786  VAL792 
 PHE793  MET794  SER795  GLU796  ALA797  LYS798  CYS799  TRP800  GLU811  SER814 

> <Gold.Protein.RotatedAtoms>
  152.5418  134.2195  159.8781 H   0  0  0  0  0  0  0  0  0  0  0  0  # atno 6907 bound_to 6896
  151.2173  133.4515  159.2607 H   0  0  0  0  0  0  0  0  0  0  0  0  # atno 6908 bound_to 6896
  151.0839  134.9888  159.8425 H   0  0  0  0  0  0  0  0  0  0  0  0  # atno 6909 bound_to 6896
  144.9219  139.5156  143.5659 H   0  0  0  0  0  0  0  0  0  0  0  0  # atno 7974 bound_to 7965
  154.5654  140.2357  155.8272 H   0  0  0  0  0  0  0  0  0  0  0  0  # atno 8008 bound_to 7997
  156.2064  140.3038  155.9594 H   0  0  0  0  0  0  0  0  0  0  0  0  # atno 8009 bound_to 7997
  155.2811  140.0422  157.3006 H   0  0  0  0  0  0  0  0  0  0  0  0  # atno 8010 bound_to 7997
  139.5906  144.1221  152.1630 H   0  0  0  0  0  0  0  0  0  0  0  0  # atno 10167 bound_to 10162
  157.6850  131.0703  150.5127 H   0  0  0  0  0  0  0  0  0  0  0  0  # atno 10718 bound_to 10713
  154.2882  135.2761  155.2667 H   0  0  0  0  0  0  0  0  0  0  0  0  # atno 10763 bound_to 10752
  154.5158  135.5770  153.6644 H   0  0  0  0  0  0  0  0  0  0  0  0  # atno 10764 bound_to 10752
  152.9918  135.6192  154.3045 H   0  0  0  0  0  0  0  0  0  0  0  0  # atno 10765 bound_to 10752
  140.8667  134.2101  157.4675 H   0  0  0  0  0  0  0  0  0  0  0  0  # atno 11005 bound_to 11000
  146.3209  139.8105  142.8947 LP  0  0  0  0  0  0  0  0  0  0  0  0  # atno 17320 bound_to 7965
  145.3282  141.0260  143.3462 LP  0  0  0  0  0  0  0  0  0  0  0  0  # atno 17321 bound_to 7965
  140.0794  144.5713  150.7133 LP  0  0  0  0  0  0  0  0  0  0  0  0  # atno 17342 bound_to 10162
  140.7170  143.2553  151.4402 LP  0  0  0  0  0  0  0  0  0  0  0  0  # atno 17343 bound_to 10162
  156.5443  130.4216  149.6138 LP  0  0  0  0  0  0  0  0  0  0  0  0  # atno 17370 bound_to 10713
  156.2957  130.7149  151.2009 LP  0  0  0  0  0  0  0  0  0  0  0  0  # atno 17371 bound_to 10713
  139.8709  134.9755  156.4886 LP  0  0  0  0  0  0  0  0  0  0  0  0  # atno 17394 bound_to 11000
  140.8620  133.8052  155.9275 LP  0  0  0  0  0  0  0  0  0  0  0  0  # atno 17395 bound_to 11000

$$$$
