AV-unprocessed.smi:1703|AV-procd|sdf|6860|dock3
  -GOLD-   22720 8 43D 1   1.00000     0.00000
 Structure written by MMmdl.
 49 51  0  0  0  0  0  0  0  0  2 V2000
  149.7494  137.0863  155.8516 C   0  0  0  0  0  0  0  0  0  0  0  0
  149.0028  138.2402  155.1738 C   0  0  1  0  0  0  0  0  0  0  0  0
  149.9299  139.0768  154.2674 C   0  0  0  0  0  0  0  0  0  0  0  0
  149.1755  140.1358  153.5544 N   0  3  2  0  0  0  0  0  0  0  0  0
  148.8473  141.3086  154.4077 C   0  0  0  0  0  0  0  0  0  0  0  0
  149.5120  141.2274  155.8011 C   0  0  2  0  0  0  0  0  0  0  0  0
  148.6665  141.8457  156.7491 O   0  0  0  0  0  0  0  0  0  0  0  0
  150.8969  141.9020  155.8722 C   0  0  0  0  0  0  0  0  0  0  0  0
  151.5237  141.7401  157.1788 N   0  0  0  0  0  0  0  0  0  0  0  0
  151.9745  140.6023  157.7675 C   0  0  0  0  0  0  0  0  0  0  0  0
  151.8933  139.2639  157.0990 C   0  0  0  0  0  0  0  0  0  0  0  0
  153.1513  138.7936  156.6652 O   0  0  0  0  0  0  0  0  0  0  0  0
  152.4826  140.7453  158.9915 N   0  0  0  0  0  0  0  0  0  0  0  0
  152.3620  142.1023  159.2157 C   0  0  0  0  0  0  0  0  0  0  0  0
  152.7169  142.8823  160.3393 C   0  0  0  0  0  0  0  0  0  0  0  0
  152.4921  144.2745  160.3416 C   0  0  0  0  0  0  0  0  0  0  0  0
  151.9122  144.9056  159.2223 C   0  0  0  0  0  0  0  0  0  0  0  0
  151.5500  144.1466  158.0930 C   0  0  0  0  0  0  0  0  0  0  0  0
  151.7725  142.7563  158.0970 C   0  0  0  0  0  0  0  0  0  0  0  0
  148.0138  139.5475  152.8367 C   0  0  0  0  0  0  0  0  0  0  0  0
  147.1415  138.6805  153.7708 C   0  0  1  0  0  0  0  0  0  0  0  0
  146.0123  137.9766  153.0108 C   0  0  0  0  0  0  0  0  0  0  0  0
  147.9577  137.6863  154.3809 O   0  0  0  0  0  0  0  0  0  0  0  0
  150.5576  137.4582  156.4818 H   0  0  0  0  0  0  0  0  0  0  0  0
  150.1836  136.4092  155.1152 H   0  0  0  0  0  0  0  0  0  0  0  0
  149.0773  136.5047  156.4830 H   0  0  0  0  0  0  0  0  0  0  0  0
  148.5691  138.8710  155.9515 H   0  0  0  0  0  0  0  0  0  0  0  0
  150.7489  139.5126  154.8412 H   0  0  0  0  0  0  0  0  0  0  0  0
  150.3921  138.4281  153.5220 H   0  0  0  0  0  0  0  0  0  0  0  0
  149.1405  142.2146  153.8812 H   0  0  0  0  0  0  0  0  0  0  0  0
  147.7676  141.3887  154.5422 H   0  0  0  0  0  0  0  0  0  0  0  0
  149.6289  140.1894  156.1063 H   0  0  0  0  0  0  0  0  0  0  0  0
  148.5164  142.7410  156.4854 H   0  0  0  0  0  0  0  0  0  0  0  0
  151.5506  141.5061  155.0960 H   0  0  0  0  0  0  0  0  0  0  0  0
  150.8037  142.9707  155.6736 H   0  0  0  0  0  0  0  0  0  0  0  0
  151.4728  138.5371  157.7951 H   0  0  0  0  0  0  0  0  0  0  0  0
  151.2095  139.3174  156.2517 H   0  0  0  0  0  0  0  0  0  0  0  0
  153.0549  138.4316  155.7977 H   0  0  0  0  0  0  0  0  0  0  0  0
  153.1638  142.4088  161.2010 H   0  0  0  0  0  0  0  0  0  0  0  0
  152.7688  144.8614  161.2053 H   0  0  0  0  0  0  0  0  0  0  0  0
  151.7472  145.9732  159.2306 H   0  0  0  0  0  0  0  0  0  0  0  0
  151.1081  144.6298  157.2345 H   0  0  0  0  0  0  0  0  0  0  0  0
  147.4078  140.3178  152.3612 H   0  0  0  0  0  0  0  0  0  0  0  0
  148.4013  138.9271  152.0274 H   0  0  0  0  0  0  0  0  0  0  0  0
  146.6865  139.2958  154.5480 H   0  0  0  0  0  0  0  0  0  0  0  0
  145.3497  138.7006  152.5356 H   0  0  0  0  0  0  0  0  0  0  0  0
  145.4090  137.3684  153.6850 H   0  0  0  0  0  0  0  0  0  0  0  0
  146.4060  137.3215  152.2331 H   0  0  0  0  0  0  0  0  0  0  0  0
  149.8029  140.4952  152.8485 H   0  0  0  0  0  0  0  0  0  0  0  0
  1  2  1  0  0  0  0
  1 24  1  0  0  0  0
  1 25  1  0  0  0  0
  1 26  1  0  0  0  0
  2 23  1  0  0  0  0
  2  3  1  0  0  0  0
  2 27  1  0  0  0  0
  3  4  1  0  0  0  0
  3 28  1  0  0  0  0
  3 29  1  0  0  0  0
  4  5  1  0  0  0  0
  4 20  1  0  0  0  0
  4 49  1  0  0  0  0
  5  6  1  0  0  0  0
  5 30  1  0  0  0  0
  5 31  1  0  0  0  0
  6  7  1  0  0  0  0
  6  8  1  0  0  0  0
  6 32  1  0  0  0  0
  7 33  1  0  0  0  0
  8  9  1  0  0  0  0
  8 34  1  0  0  0  0
  8 35  1  0  0  0  0
  9 19  1  0  0  0  0
  9 10  1  0  0  0  0
 10 11  1  0  0  0  0
 10 13  2  0  0  0  0
 11 12  1  0  0  0  0
 11 36  1  0  0  0  0
 11 37  1  0  0  0  0
 12 38  1  0  0  0  0
 13 14  1  0  0  0  0
 14 19  2  0  0  0  0
 14 15  1  0  0  0  0
 15 16  2  0  0  0  0
 15 39  1  0  0  0  0
 16 17  1  0  0  0  0
 16 40  1  0  0  0  0
 17 18  2  0  0  0  0
 17 41  1  0  0  0  0
 18 19  1  0  0  0  0
 18 42  1  0  0  0  0
 20 21  1  0  0  0  0
 20 43  1  0  0  0  0
 20 44  1  0  0  0  0
 21 22  1  0  0  0  0
 21 23  1  0  0  0  0
 21 45  1  0  0  0  0
 22 46  1  0  0  0  0
 22 47  1  0  0  0  0
 22 48  1  0  0  0  0
M  CHG  1   4   1
M  END
> <s_m_source_file>
AV-unprocessed.smi

> <i_m_source_file_index>
1703

> <i_lp_mmshare_version>
43012

> <i_f3d_flags>
0

> <s_epik_input>
W0NIM11bQ0BASF0xW0NIMl1OKFtDSDJdW0NASF0oTzEpW0NIM10pW0NIMl1bQ0BIXShbT0hdKVtDSDJdbihjKG4yKVtDSDJdW09IXSljKGMyMylbY0hdW2NIXVtjSF1bY0hdMw==

> <s_epik_cmdline>
J2VwaWtfcHl0aG9uJywgJy1waCcsICc3LjAnLCAnLXRuJywgJzgnLCAnLW1hJywgJzIwMCcsICctbWV0YWxfYmluZGluZycsICctaW1hZScsICc8aW5maWxlLm1hZT4nLCAnLW9tYWUnLCAnPG91dGZpbGUubWFlPic=

> <r_epik_Ionization_Penalty>
0.655661

> <r_epik_Ionization_Penalty_Charging>
0.608065

> <r_epik_Ionization_Penalty_Neutral>
0.0475963

> <r_epik_State_Penalty>
0.695267

> <r_epik_Charging_Adjusted_Penalty>
1.30333

> <i_epik_Tot_Q>
1

> <i_epik_Tot_abs_Q>
1

> <r_epik_Metal_State_Penalty>
0.653591

> <b_epik_Metal_Only>
0

> <s_lp_Force_Field>
OPLS_2005

> <r_lp_Energy>
23.3655

> <b_lp_Chiralities_Consistent>
1

> <s_lp_Variant>
AV-unprocessed.smi:1703-8

> <Gold.Version>
5.8.1

> <Gold.Id.Protein>
6NUR|6NUR_protein|mol2

> <Gold.PLP.Fitness>
44.3522

> <Gold.PLP.PLP>
-41.9318

> <Gold.PLP.part.hbond>
-3.0000

> <Gold.PLP.part.metal>
0.0000

> <Gold.PLP.part.buried>
-3.5238

> <Gold.PLP.part.nonpolar>
-35.6122

> <Gold.PLP.part.repulsive>
0.2600

> <Gold.PLP.ligand.clash>
2.7124

> <Gold.PLP.ligand.torsion>
1.2957

> <Gold.PLP.Chemscore.Hbond>
2.5440

> <Gold.PLP.Chemscore.CHOScore>
0.0000

> <Gold.PLP.Chemscore.Metal>
0.0000

> <Gold.Chemscore.Hbonds>
donor molecule, donor type, donor heavy atom, donor atom, acceptor molecule, acceptor atom, score
      L1  H     4    49       P1  7957  0.43
      L1  H     7    33       P1  8028  0.65
      P1  H  7997  8009       L1    12  1.00

> <Gold.PLP.Chemscore.Internal.Correction>
0.0923

> <Gold.Rescore>
     Score         DG    S(hbond)    S(metal)    S(lipo)     H(rot)  DE(clash)    DE(int)     intcor
     16.36     -19.48       2.13        0.00     123.54       2.96       1.78       1.34       ----

> <Gold.Chemscore.Fitness>
16.3585

> <Gold.Chemscore.DG>
-19.4811

> <Gold.Chemscore.ZeroCoef>
-5.4800

> <Gold.Chemscore.Hbond>
2.1338

> <Gold.Chemscore.Metal>
0.0000

> <Gold.Chemscore.Lipo>
123.5439

> <Gold.Chemscore.Internal_Hbond>
0.0000

> <Gold.Chemscore.DEClash>
1.7828

> <Gold.Chemscore.DEInternal>
1.3397

> <Gold.Chemscore.Rot>
2.9611

> <Gold.Chemscore.Internal.Correction>
   9.000000E+99

> <Gold.Chemscore.Hbonds>
donor molecule, donor type, donor heavy atom, donor atom, acceptor molecule, acceptor atom, score
      L1  H     4    49       P1  7957  0.44
      L1  H     7    33       P1  8028  0.58
      P1  H  7997  8009       L1    12  0.68

> <Gold.Chemscore.Hbond.Weighted>
-7.1268

> <Gold.Chemscore.Metal.Weighted>
-0.0000

> <Gold.Chemscore.Lipo.Weighted>
-14.4546

> <Gold.Chemscore.Internal_Hbond.Weighted>
0.0000

> <Gold.Chemscore.DEClash.Weighted>
1.7828

> <Gold.Chemscore.DEInternal.Weighted>
1.3397

> <Gold.Chemscore.Rot.Weighted>
7.5803

> <Gold.Chemscore.Internal.Correction.Weighted>
   9.000000E+99

> <Gold.Protein.RotatedTorsions>
[ 6907 6896 6895 6894 ] final  179.17 input  -60.11 | X-H torsion
[ 7974 7965 7964 7962 ] final   16.29 input  175.53 | X-H torsion
[ 8008 7997 7996 7995 ] final  173.45 input   59.86 | X-H torsion
[ 10167 10162 10161 10158 ] final   -1.05 input  -65.29 | X-H torsion
[ 10718 10713 10712 10709 ] final -112.30 input   66.30 | X-H torsion
[ 10763 10752 10751 10750 ] final  -78.43 input  -60.55 | X-H torsion
[ 11005 11000 10999 10996 ] final   -8.35 input  -57.11 | X-H torsion

> <Gold.Protein.ActiveResidues>
 VAL166  LYS551  ARG553  GLY616  TRP617  ASP618  TYR619  PRO620  LYS621  CYS622 
 ASP623  PHE694  ASN695  SER759  ASP760  ASP761  ALA762  ILE779  LEU786  VAL792 
 PHE793  MET794  SER795  GLU796  ALA797  LYS798  CYS799  TRP800  GLU811  SER814 

> <Gold.Protein.RotatedAtoms>
  151.6760  133.3313  159.3207 H   0  0  0  0  0  0  0  0  0  0  0  0  # atno 6907 bound_to 6896
  150.7845  134.6821  159.6459 H   0  0  0  0  0  0  0  0  0  0  0  0  # atno 6908 bound_to 6896
  152.3911  134.6443  160.0159 H   0  0  0  0  0  0  0  0  0  0  0  0  # atno 6909 bound_to 6896
  146.2254  139.8770  142.8577 H   0  0  0  0  0  0  0  0  0  0  0  0  # atno 7974 bound_to 7965
  156.1074  140.1460  156.9385 H   0  0  0  0  0  0  0  0  0  0  0  0  # atno 8008 bound_to 7997
  154.4743  140.0899  156.7268 H   0  0  0  0  0  0  0  0  0  0  0  0  # atno 8009 bound_to 7997
  155.4655  140.3440  155.4320 H   0  0  0  0  0  0  0  0  0  0  0  0  # atno 8010 bound_to 7997
  140.6794  143.6821  150.8097 H   0  0  0  0  0  0  0  0  0  0  0  0  # atno 10167 bound_to 10162
  156.0698  130.5913  150.8490 H   0  0  0  0  0  0  0  0  0  0  0  0  # atno 10718 bound_to 10713
  154.5258  135.5730  153.6718 H   0  0  0  0  0  0  0  0  0  0  0  0  # atno 10763 bound_to 10752
  152.9928  135.6193  154.2694 H   0  0  0  0  0  0  0  0  0  0  0  0  # atno 10764 bound_to 10752
  154.2617  135.2856  155.2755 H   0  0  0  0  0  0  0  0  0  0  0  0  # atno 10765 bound_to 10752
  140.7225  133.8816  155.8831 H   0  0  0  0  0  0  0  0  0  0  0  0  # atno 11005 bound_to 11000
  145.2551  141.0057  143.3859 LP  0  0  0  0  0  0  0  0  0  0  0  0  # atno 17320 bound_to 7965
  144.9343  139.4262  143.6480 LP  0  0  0  0  0  0  0  0  0  0  0  0  # atno 17321 bound_to 7965
  140.0519  143.5241  152.2669 LP  0  0  0  0  0  0  0  0  0  0  0  0  # atno 17342 bound_to 10162
  139.6106  144.7607  151.2961 LP  0  0  0  0  0  0  0  0  0  0  0  0  # atno 17343 bound_to 10162
  157.5761  131.0946  150.9343 LP  0  0  0  0  0  0  0  0  0  0  0  0  # atno 17370 bound_to 10713
  156.9548  130.5433  149.5283 LP  0  0  0  0  0  0  0  0  0  0  0  0  # atno 17371 bound_to 10713
  140.9991  134.1175  157.4335 LP  0  0  0  0  0  0  0  0  0  0  0  0  # atno 17394 bound_to 11000
  139.8845  135.0063  156.6371 LP  0  0  0  0  0  0  0  0  0  0  0  0  # atno 17395 bound_to 11000

$$$$
