AV-unprocessed.smi:1775|AV-procd|sdf|7172|dock9
  -GOLD-   22720 8413D 1   1.00000     0.00000
 Structure written by MMmdl.
 37 39  0  0  0  0  0  0  0  0  2 V2000
  146.4777  133.1177  153.5766 O   0  0  0  0  0  0  0  0  0  0  0  0
  147.1016  134.0416  153.0546 C   0  0  0  0  0  0  0  0  0  0  0  0
  148.2892  134.5207  153.4662 N   0  0  0  0  0  0  0  0  0  0  0  0
  149.1081  134.0818  154.5201 C   0  0  0  0  0  0  0  0  0  0  0  0
  149.7642  132.8888  154.5480 C   0  0  0  0  0  0  0  0  0  0  0  0
  150.6141  132.4918  155.6635 C   0  0  0  0  0  0  0  0  0  0  0  0
  151.2794  131.1313  155.7733 C   0  0  0  0  0  0  0  0  0  0  0  0
  150.8507  130.4727  156.8502 F   0  0  0  0  0  0  0  0  0  0  0  0
  151.0267  130.3869  154.6966 F   0  0  0  0  0  0  0  0  0  0  0  0
  152.5994  131.2795  155.8753 F   0  0  0  0  0  0  0  0  0  0  0  0
  150.6560  133.4504  156.6573 C   0  0  0  0  0  0  0  0  0  0  0  0
  150.0633  134.6638  156.6947 N   0  5  0  0  0  0  0  0  0  0  0  0
  149.2733  135.0260  155.6446 C   0  0  0  0  0  0  0  0  0  0  0  0
  148.7006  136.1160  155.6151 O   0  0  0  0  0  0  0  0  0  0  0  0
  146.6590  134.7269  151.9891 N   0  0  0  0  0  0  0  0  0  0  0  0
  145.4023  134.5186  151.2726 C   0  0  0  0  0  0  0  0  0  0  0  0
  144.1947  135.1363  151.9619 C   0  0  0  0  0  0  0  0  0  0  0  0
  143.8241  134.7622  153.3774 C   0  0  0  0  0  0  0  0  0  0  0  0
  142.9476  134.3273  152.2242 C   0  0  0  0  0  0  0  0  0  0  0  0
  145.1357  133.0661  150.9059 C   0  0  0  0  0  0  0  0  0  0  0  0
  145.8807  132.3982  149.7757 C   0  0  0  0  0  0  0  0  0  0  0  0
  144.4049  132.6987  149.6363 C   0  0  0  0  0  0  0  0  0  0  0  0
  148.6362  135.3369  152.9842 H   0  0  0  0  0  0  0  0  0  0  0  0
  149.6912  132.1997  153.7225 H   0  0  0  0  0  0  0  0  0  0  0  0
  151.2536  133.2033  157.5606 H   0  0  0  0  0  0  0  0  0  0  0  0
  147.2481  135.4698  151.6426 H   0  0  0  0  0  0  0  0  0  0  0  0
  145.5359  135.0579  150.3338 H   0  0  0  0  0  0  0  0  0  0  0  0
  144.0299  136.1800  151.7007 H   0  0  0  0  0  0  0  0  0  0  0  0
  144.4120  133.9932  153.8740 H   0  0  0  0  0  0  0  0  0  0  0  0
  143.4502  135.5537  154.0237 H   0  0  0  0  0  0  0  0  0  0  0  0
  141.9899  134.8289  152.1009 H   0  0  0  0  0  0  0  0  0  0  0  0
  142.9608  133.2737  151.9521 H   0  0  0  0  0  0  0  0  0  0  0  0
  144.9171  132.4323  151.7634 H   0  0  0  0  0  0  0  0  0  0  0  0
  146.5742  133.0054  149.1974 H   0  0  0  0  0  0  0  0  0  0  0  0
  146.1740  131.3597  149.9147 H   0  0  0  0  0  0  0  0  0  0  0  0
  143.7139  131.8595  149.6808 H   0  0  0  0  0  0  0  0  0  0  0  0
  144.1206  133.5016  148.9591 H   0  0  0  0  0  0  0  0  0  0  0  0
  1  2  2  0  0  0  0
  2  3  1  0  0  0  0
  2 15  1  0  0  0  0
  3  4  1  0  0  0  0
  3 23  1  0  0  0  0
  4 13  1  0  0  0  0
  4  5  2  0  0  0  0
  5  6  1  0  0  0  0
  5 24  1  0  0  0  0
  6  7  1  0  0  0  0
  6 11  2  0  0  0  0
  7  8  1  0  0  0  0
  7  9  1  0  0  0  0
  7 10  1  0  0  0  0
 11 12  1  0  0  0  0
 11 25  1  0  0  0  0
 12 13  1  0  0  0  0
 13 14  2  0  0  0  0
 15 16  1  0  0  0  0
 15 26  1  0  0  0  0
 16 17  1  0  0  0  0
 16 20  1  0  0  0  0
 16 27  1  0  0  0  0
 17 19  1  0  0  0  0
 17 18  1  0  0  0  0
 17 28  1  0  0  0  0
 18 19  1  0  0  0  0
 18 29  1  0  0  0  0
 18 30  1  0  0  0  0
 19 31  1  0  0  0  0
 19 32  1  0  0  0  0
 20 22  1  0  0  0  0
 20 21  1  0  0  0  0
 20 33  1  0  0  0  0
 21 22  1  0  0  0  0
 21 34  1  0  0  0  0
 21 35  1  0  0  0  0
 22 36  1  0  0  0  0
 22 37  1  0  0  0  0
M  CHG  1  12  -1
M  END
> <s_m_source_file>
AV-unprocessed.smi

> <i_m_source_file_index>
1775

> <i_lp_mmshare_version>
43012

> <i_f3d_flags>
0

> <s_epik_input>
W0NIMl0xW0NIMl1bQ0hdMVtDSF0oW0NIXTJbQ0gyXVtDSDJdMilbTkhdQyg9TylbTkhdYzNbY0hdYyhDKEYpKEYpRilbY0hdW25IXWMzPU8=

> <s_epik_cmdline>
J2VwaWtfcHl0aG9uJywgJy1waCcsICc3LjAnLCAnLXRuJywgJzgnLCAnLW1hJywgJzIwMCcsICctbWV0YWxfYmluZGluZycsICctaW1hZScsICc8aW5maWxlLm1hZT4nLCAnLW9tYWUnLCAnPG91dGZpbGUubWFlPic=

> <r_lp_tautomer_probability>
1

> <r_epik_Ionization_Penalty>
3.19177

> <r_epik_Ionization_Penalty_Charging>
0.180322

> <r_epik_Ionization_Penalty_Neutral>
3.01145

> <r_epik_State_Penalty>
3.00772

> <r_epik_Charging_Adjusted_Penalty>
3.18804

> <i_epik_Tot_Q>
-1

> <i_epik_Tot_abs_Q>
1

> <r_epik_Metal_State_Penalty>
0.454354

> <b_epik_Metal_Only>
1

> <s_lp_Force_Field>
OPLS_2005

> <r_lp_Energy>
38.3623

> <b_lp_Chiralities_Consistent>
1

> <s_lp_Variant>
AV-unprocessed.smi:1775-2

> <Gold.Version>
5.8.1

> <Gold.Id.Protein>
6NUR|6NUR_protein|mol2

> <Gold.PLP.Fitness>
41.7550

> <Gold.PLP.PLP>
-37.9610

> <Gold.PLP.part.hbond>
-2.0000

> <Gold.PLP.part.metal>
0.0000

> <Gold.PLP.part.buried>
-5.2366

> <Gold.PLP.part.nonpolar>
-30.9987

> <Gold.PLP.part.repulsive>
0.2265

> <Gold.PLP.ligand.clash>
0.0000

> <Gold.PLP.ligand.torsion>
2.1575

> <Gold.PLP.Chemscore.Hbond>
1.9600

> <Gold.PLP.Chemscore.CHOScore>
0.0000

> <Gold.PLP.Chemscore.Metal>
0.0000

> <Gold.Chemscore.Hbonds>
donor molecule, donor type, donor heavy atom, donor atom, acceptor molecule, acceptor atom, score
      L1  H     3    23       P1  7948  0.78
      L1  H    15    26       P1  7948  0.85

> <Gold.PLP.Chemscore.Internal.Correction>
2.2290

> <Gold.Rescore>
     Score         DG    S(hbond)    S(metal)    S(lipo)     H(rot)  DE(clash)    DE(int)     intcor
     12.41     -15.86       1.83        0.00      69.14       1.49       0.00       3.45       ----

> <Gold.Chemscore.Fitness>
12.4083

> <Gold.Chemscore.DG>
-15.8636

> <Gold.Chemscore.ZeroCoef>
-5.4800

> <Gold.Chemscore.Hbond>
1.8262

> <Gold.Chemscore.Metal>
0.0000

> <Gold.Chemscore.Lipo>
69.1376

> <Gold.Chemscore.Internal_Hbond>
0.0000

> <Gold.Chemscore.DEClash>
0.0011

> <Gold.Chemscore.DEInternal>
3.4542

> <Gold.Chemscore.Rot>
1.4864

> <Gold.Chemscore.Internal.Correction>
   9.000000E+99

> <Gold.Chemscore.Hbonds>
donor molecule, donor type, donor heavy atom, donor atom, acceptor molecule, acceptor atom, score
      L1  H     3    23       P1  7948  0.62
      L1  H    15    26       P1  7948  0.82

> <Gold.Chemscore.Hbond.Weighted>
-6.0996

> <Gold.Chemscore.Metal.Weighted>
-0.0000

> <Gold.Chemscore.Lipo.Weighted>
-8.0891

> <Gold.Chemscore.Internal_Hbond.Weighted>
0.0000

> <Gold.Chemscore.DEClash.Weighted>
0.0011

> <Gold.Chemscore.DEInternal.Weighted>
3.4542

> <Gold.Chemscore.Rot.Weighted>
3.8052

> <Gold.Chemscore.Internal.Correction.Weighted>
   9.000000E+99

> <Gold.Protein.RotatedTorsions>
[ 6907 6896 6895 6894 ] final  -91.56 input  -60.11 | X-H torsion
[ 7974 7965 7964 7962 ] final -147.96 input  175.53 | X-H torsion
[ 8008 7997 7996 7995 ] final   25.92 input   59.86 | X-H torsion
[ 10167 10162 10161 10158 ] final  156.21 input  -65.29 | X-H torsion
[ 10718 10713 10712 10709 ] final -124.94 input   66.30 | X-H torsion
[ 10763 10752 10751 10750 ] final   13.25 input  -60.55 | X-H torsion
[ 11005 11000 10999 10996 ] final -103.88 input  -57.11 | X-H torsion

> <Gold.Protein.ActiveResidues>
 VAL166  LYS551  ARG553  GLY616  TRP617  ASP618  TYR619  PRO620  LYS621  CYS622 
 ASP623  PHE694  ASN695  SER759  ASP760  ASP761  ALA762  ILE779  LEU786  VAL792 
 PHE793  MET794  SER795  GLU796  ALA797  LYS798  CYS799  TRP800  GLU811  SER814 

> <Gold.Protein.RotatedAtoms>
  150.6894  134.2257  159.4414 H   0  0  0  0  0  0  0  0  0  0  0  0  # atno 6907 bound_to 6896
  152.0211  134.9819  160.0580 H   0  0  0  0  0  0  0  0  0  0  0  0  # atno 6908 bound_to 6896
  152.1396  133.4421  159.4797 H   0  0  0  0  0  0  0  0  0  0  0  0  # atno 6909 bound_to 6896
  144.8059  140.5258  143.5675 H   0  0  0  0  0  0  0  0  0  0  0  0  # atno 7974 bound_to 7965
  155.0191  140.3145  155.4800 H   0  0  0  0  0  0  0  0  0  0  0  0  # atno 8008 bound_to 7997
  156.2895  140.2200  156.5251 H   0  0  0  0  0  0  0  0  0  0  0  0  # atno 8009 bound_to 7997
  154.7467  140.0469  157.0846 H   0  0  0  0  0  0  0  0  0  0  0  0  # atno 8010 bound_to 7997
  139.4821  144.5029  151.8141 H   0  0  0  0  0  0  0  0  0  0  0  0  # atno 10167 bound_to 10162
  156.1632  130.6616  151.0078 H   0  0  0  0  0  0  0  0  0  0  0  0  # atno 10718 bound_to 10713
  153.1740  135.6817  153.8568 H   0  0  0  0  0  0  0  0  0  0  0  0  # atno 10763 bound_to 10752
  153.7923  135.3167  155.3381 H   0  0  0  0  0  0  0  0  0  0  0  0  # atno 10764 bound_to 10752
  154.8017  135.4774  154.0384 H   0  0  0  0  0  0  0  0  0  0  0  0  # atno 10765 bound_to 10752
  141.1126  133.8676  157.1541 H   0  0  0  0  0  0  0  0  0  0  0  0  # atno 11005 bound_to 11000
  145.5438  139.1475  143.3432 LP  0  0  0  0  0  0  0  0  0  0  0  0  # atno 17320 bound_to 7965
  146.2351  140.5578  142.8958 LP  0  0  0  0  0  0  0  0  0  0  0  0  # atno 17321 bound_to 7965
  140.4524  144.1836  150.5898 LP  0  0  0  0  0  0  0  0  0  0  0  0  # atno 17342 bound_to 10162
  140.4570  143.2463  151.9271 LP  0  0  0  0  0  0  0  0  0  0  0  0  # atno 17343 bound_to 10162
  157.6748  131.0853  150.7522 LP  0  0  0  0  0  0  0  0  0  0  0  0  # atno 17370 bound_to 10713
  156.7584  130.4791  149.5442 LP  0  0  0  0  0  0  0  0  0  0  0  0  # atno 17371 bound_to 10713
  140.0028  135.0020  157.0228 LP  0  0  0  0  0  0  0  0  0  0  0  0  # atno 17394 bound_to 11000
  140.4734  134.1363  155.7206 LP  0  0  0  0  0  0  0  0  0  0  0  0  # atno 17395 bound_to 11000

$$$$
