AV-unprocessed.smi:781|AV-procd|sdf|3708|dock4
  -GOLD-   22720 1133D 1   1.00000     0.00000
 Structure written by MMmdl.
 38 40  0  0  0  0  0  0  0  0  1 V2000
  146.9443  133.5715  162.0874 C   0  0  0  0  0  0  0  0  0  0  0  0
  147.3682  134.8712  161.4938 C   0  0  0  0  0  0  0  0  0  0  0  0
  147.7884  135.2290  160.2436 C   0  0  0  0  0  0  0  0  0  0  0  0
  148.0278  136.6229  160.3732 C   0  0  0  0  0  0  0  0  0  0  0  0
  148.4851  137.3882  159.2705 N   0  0  0  0  0  0  0  0  0  0  0  0
  149.7307  137.4391  158.7687 C   0  0  0  0  0  0  0  0  0  0  0  0
  150.6946  136.8021  159.1938 O   0  0  0  0  0  0  0  0  0  0  0  0
  149.8001  138.2770  157.7251 N   0  0  0  0  0  0  0  0  0  0  0  0
  151.0088  138.5448  156.9449 C   0  0  1  0  0  0  0  0  0  0  0  0
  151.2972  137.4668  155.8675 C   0  0  1  0  0  0  0  0  0  0  0  0
  150.0452  137.1808  155.0114 C   0  0  0  0  0  0  0  0  0  0  0  0
  149.8993  138.4739  154.1895 C   0  0  0  0  0  0  0  0  0  0  0  0
  151.1054  139.3175  154.6537 C   0  0  2  0  0  0  0  0  0  0  0  0
  152.1572  138.2356  154.8697 C   0  0  0  0  0  0  0  0  0  0  0  0
  150.9282  139.8463  156.0982 C   0  0  1  0  0  0  0  0  0  0  0  0
  149.7148  140.7728  156.3394 C   0  0  0  0  0  0  0  0  0  0  0  0
  149.7681  141.8858  155.4726 O   0  0  0  0  0  0  0  0  0  0  0  0
  147.7760  137.0754  161.5920 N   0  0  0  0  0  0  0  0  0  0  0  0
  147.3508  135.9553  162.3160 O   0  0  0  0  0  0  0  0  0  0  0  0
  147.3546  132.7341  161.5231 H   0  0  0  0  0  0  0  0  0  0  0  0
  145.8581  133.4823  162.0843 H   0  0  0  0  0  0  0  0  0  0  0  0
  147.2885  133.4837  163.1181 H   0  0  0  0  0  0  0  0  0  0  0  0
  147.9050  134.5935  159.3784 H   0  0  0  0  0  0  0  0  0  0  0  0
  147.7884  137.9581  158.8146 H   0  0  0  0  0  0  0  0  0  0  0  0
  148.9597  138.7584  157.4417 H   0  0  0  0  0  0  0  0  0  0  0  0
  151.8591  138.6226  157.6255 H   0  0  0  0  0  0  0  0  0  0  0  0
  151.7613  136.5652  156.2687 H   0  0  0  0  0  0  0  0  0  0  0  0
  150.2234  136.3318  154.3499 H   0  0  0  0  0  0  0  0  0  0  0  0
  149.1550  136.9502  155.5961 H   0  0  0  0  0  0  0  0  0  0  0  0
  149.9769  138.2521  153.1244 H   0  0  0  0  0  0  0  0  0  0  0  0
  148.9411  138.9666  154.3461 H   0  0  0  0  0  0  0  0  0  0  0  0
  151.3945  140.0908  153.9413 H   0  0  0  0  0  0  0  0  0  0  0  0
  153.0876  138.6113  155.2994 H   0  0  0  0  0  0  0  0  0  0  0  0
  152.3879  137.6676  153.9664 H   0  0  0  0  0  0  0  0  0  0  0  0
  151.8165  140.4350  156.3358 H   0  0  0  0  0  0  0  0  0  0  0  0
  148.7656  140.2562  156.2015 H   0  0  0  0  0  0  0  0  0  0  0  0
  149.7262  141.1427  157.3651 H   0  0  0  0  0  0  0  0  0  0  0  0
  149.6459  142.6715  155.9834 H   0  0  0  0  0  0  0  0  0  0  0  0
  1  2  1  0  0  0  0
  1 20  1  0  0  0  0
  1 21  1  0  0  0  0
  1 22  1  0  0  0  0
  2 19  1  0  0  0  0
  2  3  2  0  0  0  0
  3  4  1  0  0  0  0
  3 23  1  0  0  0  0
  4  5  1  0  0  0  0
  4 18  2  0  0  0  0
  5  6  1  0  0  0  0
  5 24  1  0  0  0  0
  6  7  2  0  0  0  0
  6  8  1  0  0  0  0
  8  9  1  0  0  0  0
  8 25  1  0  0  0  0
  9 15  1  0  0  0  0
  9 10  1  0  0  0  0
  9 26  1  0  0  0  0
 10 14  1  0  0  0  0
 10 11  1  0  0  0  0
 10 27  1  0  0  0  0
 11 12  1  0  0  0  0
 11 28  1  0  0  0  0
 11 29  1  0  0  0  0
 12 13  1  0  0  0  0
 12 30  1  0  0  0  0
 12 31  1  0  0  0  0
 13 14  1  0  0  0  0
 13 15  1  0  0  0  0
 13 32  1  0  0  0  0
 14 33  1  0  0  0  0
 14 34  1  0  0  0  0
 15 16  1  0  0  0  0
 15 35  1  0  0  0  0
 16 17  1  0  0  0  0
 16 36  1  0  0  0  0
 16 37  1  0  0  0  0
 17 38  1  0  0  0  0
 18 19  1  0  0  0  0
M  END
> <s_m_source_file>
AV-unprocessed.smi

> <i_m_source_file_index>
781

> <i_lp_mmshare_version>
43012

> <i_f3d_flags>
0

> <s_epik_input>
W0NIM11jMVtjSF1jKG5vMSlbTkhdQyg9TylbTkhdW0NASF0oW0NAQEhdMjMpW0NASF0oW0NIMl1bT0hdKVtDQEBIXShbQ0gyXTMpW0NIMl1bQ0gyXTI=

> <s_epik_cmdline>
J2VwaWtfcHl0aG9uJywgJy1waCcsICc3LjAnLCAnLXRuJywgJzgnLCAnLW1hJywgJzIwMCcsICctbWV0YWxfYmluZGluZycsICctaW1hZScsICc8aW5maWxlLm1hZT4nLCAnLW9tYWUnLCAnPG91dGZpbGUubWFlPic=

> <r_lp_tautomer_probability>
1

> <r_epik_Ionization_Penalty>
2.32222e-05

> <r_epik_Ionization_Penalty_Charging>
0

> <r_epik_Ionization_Penalty_Neutral>
2.32222e-05

> <r_epik_State_Penalty>
-0

> <r_epik_Charging_Adjusted_Penalty>
0

> <i_epik_Tot_Q>
0

> <i_epik_Tot_abs_Q>
0

> <r_epik_Metal_State_Penalty>
-0

> <b_epik_Metal_Only>
0

> <s_lp_Force_Field>
OPLS_2005

> <r_lp_Energy>
48.8521

> <b_lp_Chiralities_Consistent>
1

> <s_lp_Variant>
AV-unprocessed.smi:781-2

> <Gold.Version>
5.8.1

> <Gold.Id.Protein>
6NUR|6NUR_protein|mol2

> <Gold.PLP.Fitness>
39.4486

> <Gold.PLP.PLP>
-31.2998

> <Gold.PLP.part.hbond>
-3.9649

> <Gold.PLP.part.metal>
0.0000

> <Gold.PLP.part.buried>
-3.7741

> <Gold.PLP.part.nonpolar>
-24.3086

> <Gold.PLP.part.repulsive>
0.2839

> <Gold.PLP.ligand.clash>
0.0000

> <Gold.PLP.ligand.torsion>
0.9888

> <Gold.PLP.Chemscore.Hbond>
3.3721

> <Gold.PLP.Chemscore.CHOScore>
0.0000

> <Gold.PLP.Chemscore.Metal>
0.0000

> <Gold.Chemscore.Hbonds>
donor molecule, donor type, donor heavy atom, donor atom, acceptor molecule, acceptor atom, score
      L1  H    17    38       P1  8028  0.42
      P1  H  6896  6908       L1     7  1.00
      P1  H  6931  6943       L1    18  1.00
      P1  H  6934  6947       L1    18  0.41

> <Gold.PLP.Chemscore.Internal.Correction>
0.0101

> <Gold.Rescore>
     Score         DG    S(hbond)    S(metal)    S(lipo)     H(rot)  DE(clash)    DE(int)     intcor
     15.41     -17.05       2.48        0.00      68.68       1.86       0.68       0.96       ----

> <Gold.Chemscore.Fitness>
15.4094

> <Gold.Chemscore.DG>
-17.0462

> <Gold.Chemscore.ZeroCoef>
-5.4800

> <Gold.Chemscore.Hbond>
2.4818

> <Gold.Chemscore.Metal>
0.0000

> <Gold.Chemscore.Lipo>
68.6777

> <Gold.Chemscore.Internal_Hbond>
0.0000

> <Gold.Chemscore.DEClash>
0.6796

> <Gold.Chemscore.DEInternal>
0.9572

> <Gold.Chemscore.Rot>
1.8587

> <Gold.Chemscore.Internal.Correction>
   9.000000E+99

> <Gold.Chemscore.Hbonds>
donor molecule, donor type, donor heavy atom, donor atom, acceptor molecule, acceptor atom, score
      L1  H    17    38       P1  8028  0.42
      P1  H  6896  6908       L1     7  1.00
      P1  H  6931  6943       L1    18  0.49
      P1  H  6934  6947       L1    18  0.05

> <Gold.Chemscore.Hbond.Weighted>
-8.2892

> <Gold.Chemscore.Metal.Weighted>
-0.0000

> <Gold.Chemscore.Lipo.Weighted>
-8.0353

> <Gold.Chemscore.Internal_Hbond.Weighted>
0.0000

> <Gold.Chemscore.DEClash.Weighted>
0.6796

> <Gold.Chemscore.DEInternal.Weighted>
0.9572

> <Gold.Chemscore.Rot.Weighted>
4.7583

> <Gold.Chemscore.Internal.Correction.Weighted>
   9.000000E+99

> <Gold.Protein.RotatedTorsions>
[ 6907 6896 6895 6894 ] final -147.98 input  -60.11 | X-H torsion
[ 7974 7965 7964 7962 ] final   35.78 input  175.53 | X-H torsion
[ 8008 7997 7996 7995 ] final -166.34 input   59.86 | X-H torsion
[ 10167 10162 10161 10158 ] final  133.81 input  -65.29 | X-H torsion
[ 10718 10713 10712 10709 ] final -133.53 input   66.30 | X-H torsion
[ 10763 10752 10751 10750 ] final  162.45 input  -60.55 | X-H torsion
[ 11005 11000 10999 10996 ] final   74.33 input  -57.11 | X-H torsion

> <Gold.Protein.ActiveResidues>
 VAL166  LYS551  ARG553  GLY616  TRP617  ASP618  TYR619  PRO620  LYS621  CYS622 
 ASP623  PHE694  ASN695  SER759  ASP760  ASP761  ALA762  ILE779  LEU786  VAL792 
 PHE793  MET794  SER795  GLU796  ALA797  LYS798  CYS799  TRP800  GLU811  SER814 

> <Gold.Protein.RotatedAtoms>
  151.1634  133.4830  159.2593 H   0  0  0  0  0  0  0  0  0  0  0  0  # atno 6907 bound_to 6896
  151.1431  135.0189  159.8644 H   0  0  0  0  0  0  0  0  0  0  0  0  # atno 6908 bound_to 6896
  152.5462  134.1526  159.8578 H   0  0  0  0  0  0  0  0  0  0  0  0  # atno 6909 bound_to 6896
  146.1258  139.6099  142.9259 H   0  0  0  0  0  0  0  0  0  0  0  0  # atno 7974 bound_to 7965
  155.8625  140.0980  157.1604 H   0  0  0  0  0  0  0  0  0  0  0  0  # atno 8008 bound_to 7997
  154.3991  140.1362  156.4041 H   0  0  0  0  0  0  0  0  0  0  0  0  # atno 8009 bound_to 7997
  155.7841  140.3457  155.5315 H   0  0  0  0  0  0  0  0  0  0  0  0  # atno 8010 bound_to 7997
  139.5282  144.6598  151.5049 H   0  0  0  0  0  0  0  0  0  0  0  0  # atno 10167 bound_to 10162
  156.2459  130.7124  151.1003 H   0  0  0  0  0  0  0  0  0  0  0  0  # atno 10718 bound_to 10713
  154.2785  135.2764  155.2707 H   0  0  0  0  0  0  0  0  0  0  0  0  # atno 10763 bound_to 10752
  154.5239  135.5748  153.6707 H   0  0  0  0  0  0  0  0  0  0  0  0  # atno 10764 bound_to 10752
  152.9933  135.6211  154.2943 H   0  0  0  0  0  0  0  0  0  0  0  0  # atno 10765 bound_to 10752
  139.9396  134.7424  156.1135 H   0  0  0  0  0  0  0  0  0  0  0  0  # atno 11005 bound_to 11000
  145.5368  141.0423  143.2352 LP  0  0  0  0  0  0  0  0  0  0  0  0  # atno 17320 bound_to 7965
  144.7641  139.6886  143.7222 LP  0  0  0  0  0  0  0  0  0  0  0  0  # atno 17321 bound_to 7965
  140.6441  143.8830  150.6720 LP  0  0  0  0  0  0  0  0  0  0  0  0  # atno 17342 bound_to 10162
  140.2174  143.3835  152.1670 LP  0  0  0  0  0  0  0  0  0  0  0  0  # atno 17343 bound_to 10162
  157.7194  131.0690  150.6195 LP  0  0  0  0  0  0  0  0  0  0  0  0  # atno 17370 bound_to 10713
  156.6272  130.4422  149.5800 LP  0  0  0  0  0  0  0  0  0  0  0  0  # atno 17371 bound_to 10713
  141.1025  133.6672  156.2787 LP  0  0  0  0  0  0  0  0  0  0  0  0  # atno 17394 bound_to 11000
  140.5986  134.5578  157.5513 LP  0  0  0  0  0  0  0  0  0  0  0  0  # atno 17395 bound_to 11000

$$$$
