AV-unprocessed.smi:833|AV-procd|sdf|3880|dock5
  -GOLD-   22720 1333D 1   1.00000     0.00000
 Structure written by MMmdl.
 39 40  0  0  0  0  0  0  0  0  1 V2000
  152.4024  145.5346  160.2276 C   0  0  0  0  0  0  0  0  0  0  0  0
  151.7668  145.5215  158.8314 C   0  0  2  0  0  0  0  0  0  0  0  0
  150.3878  145.2618  158.9970 O   0  0  0  0  0  0  0  0  0  0  0  0
  152.3761  144.4276  157.9327 C   0  0  0  0  0  0  0  0  0  0  0  0
  151.3982  143.8853  156.9947 N   0  0  0  0  0  0  0  0  0  0  0  0
  151.2336  142.5839  156.7192 C   0  0  0  0  0  0  0  0  0  0  0  0
  151.9065  141.6907  157.2336 O   0  0  0  0  0  0  0  0  0  0  0  0
  150.2653  142.4017  155.8057 N   0  0  0  0  0  0  0  0  0  0  0  0
  149.8069  141.1846  155.2243 C   0  0  0  0  0  0  0  0  0  0  0  0
  150.6150  140.0215  155.1826 C   0  0  0  0  0  0  0  0  0  0  0  0
  150.1154  138.8550  154.5781 C   0  0  0  0  0  0  0  0  0  0  0  0
  148.8199  138.8892  154.0371 C   0  0  0  0  0  0  0  0  0  0  0  0
  148.0306  139.9805  154.0861 N   0  0  0  0  0  0  0  0  0  0  0  0
  148.4928  141.1089  154.6792 C   0  0  0  0  0  0  0  0  0  0  0  0
  147.6122  142.2137  154.7237 N   0  0  0  0  0  0  0  0  0  0  0  0
  147.0169  142.7356  153.4978 C   0  0  0  0  0  0  0  0  0  0  0  0
  145.8597  143.6137  153.9644 C   0  0  0  0  0  0  0  0  0  0  0  0
  145.3485  142.8538  155.1844 C   0  0  0  0  0  0  0  0  0  0  0  0
  146.6189  142.2503  155.7929 C   0  0  0  0  0  0  0  0  0  0  0  0
  153.4691  145.7528  160.1682 H   0  0  0  0  0  0  0  0  0  0  0  0
  152.2874  144.5721  160.7275 H   0  0  0  0  0  0  0  0  0  0  0  0
  151.9470  146.2969  160.8604 H   0  0  0  0  0  0  0  0  0  0  0  0
  151.8905  146.5070  158.3805 H   0  0  0  0  0  0  0  0  0  0  0  0
  149.9075  145.7973  158.3843 H   0  0  0  0  0  0  0  0  0  0  0  0
  153.2142  144.8354  157.3645 H   0  0  0  0  0  0  0  0  0  0  0  0
  152.7881  143.6161  158.5337 H   0  0  0  0  0  0  0  0  0  0  0  0
  150.8054  144.5511  156.5212 H   0  0  0  0  0  0  0  0  0  0  0  0
  149.8700  143.2413  155.4086 H   0  0  0  0  0  0  0  0  0  0  0  0
  151.6054  139.9993  155.6100 H   0  0  0  0  0  0  0  0  0  0  0  0
  150.7127  137.9565  154.5293 H   0  0  0  0  0  0  0  0  0  0  0  0
  148.4022  138.0154  153.5595 H   0  0  0  0  0  0  0  0  0  0  0  0
  147.7435  143.2992  152.9117 H   0  0  0  0  0  0  0  0  0  0  0  0
  146.6288  141.9266  152.8779 H   0  0  0  0  0  0  0  0  0  0  0  0
  146.2313  144.5945  154.2647 H   0  0  0  0  0  0  0  0  0  0  0  0
  145.0975  143.7569  153.1980 H   0  0  0  0  0  0  0  0  0  0  0  0
  144.8028  143.4872  155.8839 H   0  0  0  0  0  0  0  0  0  0  0  0
  144.6803  142.0538  154.8627 H   0  0  0  0  0  0  0  0  0  0  0  0
  146.4286  141.2613  156.2125 H   0  0  0  0  0  0  0  0  0  0  0  0
  146.9879  142.8929  156.5926 H   0  0  0  0  0  0  0  0  0  0  0  0
  1  2  1  0  0  0  0
  1 20  1  0  0  0  0
  1 21  1  0  0  0  0
  1 22  1  0  0  0  0
  2  3  1  0  0  0  0
  2  4  1  0  0  0  0
  2 23  1  0  0  0  0
  3 24  1  0  0  0  0
  4  5  1  0  0  0  0
  4 25  1  0  0  0  0
  4 26  1  0  0  0  0
  5  6  1  0  0  0  0
  5 27  1  0  0  0  0
  6  7  2  0  0  0  0
  6  8  1  0  0  0  0
  8  9  1  0  0  0  0
  8 28  1  0  0  0  0
  9 14  1  0  0  0  0
  9 10  2  0  0  0  0
 10 11  1  0  0  0  0
 10 29  1  0  0  0  0
 11 12  2  0  0  0  0
 11 30  1  0  0  0  0
 12 13  1  0  0  0  0
 12 31  1  0  0  0  0
 13 14  2  0  0  0  0
 14 15  1  0  0  0  0
 15 19  1  0  0  0  0
 15 16  1  0  0  0  0
 16 17  1  0  0  0  0
 16 32  1  0  0  0  0
 16 33  1  0  0  0  0
 17 18  1  0  0  0  0
 17 34  1  0  0  0  0
 17 35  1  0  0  0  0
 18 19  1  0  0  0  0
 18 36  1  0  0  0  0
 18 37  1  0  0  0  0
 19 38  1  0  0  0  0
 19 39  1  0  0  0  0
M  END
> <s_m_source_file>
AV-unprocessed.smi

> <i_m_source_file_index>
833

> <i_lp_mmshare_version>
43012

> <i_f3d_flags>
0

> <s_epik_input>
W0NIM11bQ0BIXShbT0hdKVtDSDJdW05IXUMoPU8pW05IXWMxW2NIXVtjSF1bY0hdbmMxTjJbQ0gyXVtDSDJdW0NIMl1bQ0gyXTI=

> <s_epik_cmdline>
J2VwaWtfcHl0aG9uJywgJy1waCcsICc3LjAnLCAnLXRuJywgJzgnLCAnLW1hJywgJzIwMCcsICctbWV0YWxfYmluZGluZycsICctaW1hZScsICc8aW5maWxlLm1hZT4nLCAnLW9tYWUnLCAnPG91dGZpbGUubWFlPic=

> <r_lp_tautomer_probability>
1

> <r_epik_Ionization_Penalty>
0.0986749

> <r_epik_Ionization_Penalty_Charging>
0

> <r_epik_Ionization_Penalty_Neutral>
0.0986749

> <r_epik_State_Penalty>
0.0881977

> <r_epik_Charging_Adjusted_Penalty>
0.0881977

> <i_epik_Tot_Q>
0

> <i_epik_Tot_abs_Q>
0

> <r_epik_Metal_State_Penalty>
0.0755487

> <b_epik_Metal_Only>
0

> <s_lp_Force_Field>
OPLS_2005

> <r_lp_Energy>
31.5613

> <b_lp_Chiralities_Consistent>
1

> <s_lp_Variant>
AV-unprocessed.smi:833-1

> <Gold.Version>
5.8.1

> <Gold.Id.Protein>
6NUR|6NUR_protein|mol2

> <Gold.PLP.Fitness>
50.6164

> <Gold.PLP.PLP>
-40.2587

> <Gold.PLP.part.hbond>
-3.0000

> <Gold.PLP.part.metal>
0.0000

> <Gold.PLP.part.buried>
-5.3628

> <Gold.PLP.part.nonpolar>
-32.0456

> <Gold.PLP.part.repulsive>
0.4863

> <Gold.PLP.ligand.clash>
0.0000

> <Gold.PLP.ligand.torsion>
0.9637

> <Gold.PLP.Chemscore.Hbond>
2.9920

> <Gold.PLP.Chemscore.CHOScore>
1.0000

> <Gold.PLP.Chemscore.Metal>
0.0000

> <Gold.Chemscore.Hbonds>
donor molecule, donor type, donor heavy atom, donor atom, acceptor molecule, acceptor atom, score
      L1  H     3    24       P1  8029  0.33
      L1  H     5    27       P1  8028  0.76
      L1  H     8    28       P1  8028  0.98
      L1  C    12    31       P1  7948  1.00

> <Gold.PLP.Chemscore.Internal.Correction>
0.3093

> <Gold.Rescore>
     Score         DG    S(hbond)    S(metal)    S(lipo)     H(rot)  DE(clash)    DE(int)     intcor
     15.63     -19.25       2.64        0.00      86.65       2.03       1.48       2.14       ----

> <Gold.Chemscore.Fitness>
15.6295

> <Gold.Chemscore.DG>
-19.2453

> <Gold.Chemscore.ZeroCoef>
-5.4800

> <Gold.Chemscore.Hbond>
2.6423

> <Gold.Chemscore.Metal>
0.0000

> <Gold.Chemscore.Lipo>
86.6537

> <Gold.Chemscore.Internal_Hbond>
0.0000

> <Gold.Chemscore.DEClash>
1.4787

> <Gold.Chemscore.DEInternal>
2.1371

> <Gold.Chemscore.Rot>
2.0306

> <Gold.Chemscore.Internal.Correction>
   9.000000E+99

> <Gold.Chemscore.Hbonds>
donor molecule, donor type, donor heavy atom, donor atom, acceptor molecule, acceptor atom, score
      L1  H     3    24       P1  8029  0.23
      L1  H     5    27       P1  8028  0.72
      L1  H     8    28       P1  8028  0.93

> <Gold.Chemscore.Hbond.Weighted>
-8.8253

> <Gold.Chemscore.Metal.Weighted>
-0.0000

> <Gold.Chemscore.Lipo.Weighted>
-10.1385

> <Gold.Chemscore.Internal_Hbond.Weighted>
0.0000

> <Gold.Chemscore.DEClash.Weighted>
1.4787

> <Gold.Chemscore.DEInternal.Weighted>
2.1371

> <Gold.Chemscore.Rot.Weighted>
5.1984

> <Gold.Chemscore.Internal.Correction.Weighted>
   9.000000E+99

> <Gold.Protein.RotatedTorsions>
[ 6907 6896 6895 6894 ] final  148.93 input  -60.11 | X-H torsion
[ 7974 7965 7964 7962 ] final -100.31 input  175.53 | X-H torsion
[ 8008 7997 7996 7995 ] final  133.17 input   59.86 | X-H torsion
[ 10167 10162 10161 10158 ] final   93.82 input  -65.29 | X-H torsion
[ 10718 10713 10712 10709 ] final  100.94 input   66.30 | X-H torsion
[ 10763 10752 10751 10750 ] final  -24.46 input  -60.55 | X-H torsion
[ 11005 11000 10999 10996 ] final   65.53 input  -57.11 | X-H torsion

> <Gold.Protein.ActiveResidues>
 VAL166  LYS551  ARG553  GLY616  TRP617  ASP618  TYR619  PRO620  LYS621  CYS622 
 ASP623  PHE694  ASN695  SER759  ASP760  ASP761  ALA762  ILE779  LEU786  VAL792 
 PHE793  MET794  SER795  GLU796  ALA797  LYS798  CYS799  TRP800  GLU811  SER814 

> <Gold.Protein.RotatedAtoms>
  152.1349  133.4429  159.4738 H   0  0  0  0  0  0  0  0  0  0  0  0  # atno 6907 bound_to 6896
  150.6881  134.2376  159.4468 H   0  0  0  0  0  0  0  0  0  0  0  0  # atno 6908 bound_to 6896
  152.0263  134.9793  160.0622 H   0  0  0  0  0  0  0  0  0  0  0  0  # atno 6909 bound_to 6896
  145.2962  140.9365  143.2849 H   0  0  0  0  0  0  0  0  0  0  0  0  # atno 7974 bound_to 7965
  156.2990  140.2528  156.3209 H   0  0  0  0  0  0  0  0  0  0  0  0  # atno 8008 bound_to 7997
  154.9236  140.0400  157.2030 H   0  0  0  0  0  0  0  0  0  0  0  0  # atno 8009 bound_to 7997
  154.8287  140.2872  155.5741 H   0  0  0  0  0  0  0  0  0  0  0  0  # atno 8010 bound_to 7997
  139.8143  144.6760  150.9600 H   0  0  0  0  0  0  0  0  0  0  0  0  # atno 10167 bound_to 10162
  157.6842  131.0712  150.5177 H   0  0  0  0  0  0  0  0  0  0  0  0  # atno 10718 bound_to 10713
  153.6841  135.6965  153.5109 H   0  0  0  0  0  0  0  0  0  0  0  0  # atno 10763 bound_to 10752
  153.2462  135.4290  155.0749 H   0  0  0  0  0  0  0  0  0  0  0  0  # atno 10764 bound_to 10752
  154.8391  135.3520  154.6384 H   0  0  0  0  0  0  0  0  0  0  0  0  # atno 10765 bound_to 10752
  139.9889  134.6623  156.0126 H   0  0  0  0  0  0  0  0  0  0  0  0  # atno 11005 bound_to 11000
  144.9131  139.4503  143.6577 LP  0  0  0  0  0  0  0  0  0  0  0  0  # atno 17320 bound_to 7965
  146.3168  139.7951  142.8977 LP  0  0  0  0  0  0  0  0  0  0  0  0  # atno 17321 bound_to 7965
  140.7816  143.4154  151.0925 LP  0  0  0  0  0  0  0  0  0  0  0  0  # atno 17342 bound_to 10162
  139.7819  143.8343  152.3139 LP  0  0  0  0  0  0  0  0  0  0  0  0  # atno 17343 bound_to 10162
  156.5492  130.4227  149.6116 LP  0  0  0  0  0  0  0  0  0  0  0  0  # atno 17370 bound_to 10713
  156.2918  130.7128  151.1979 LP  0  0  0  0  0  0  0  0  0  0  0  0  # atno 17371 bound_to 10713
  141.1549  133.6544  156.4128 LP  0  0  0  0  0  0  0  0  0  0  0  0  # atno 17394 bound_to 11000
  140.4947  134.6542  157.5225 LP  0  0  0  0  0  0  0  0  0  0  0  0  # atno 17395 bound_to 11000

$$$$
