AV-unprocessed.smi:919|AV-procd|sdf|4164|dock6
  -GOLD-   22720 2 73D 1   1.00000     0.00000
 Structure written by MMmdl.
 43 45  0  0  0  0  0  0  0  0  1 V2000
  150.2272  137.9826  154.5963 C   0  0  0  0  0  0  0  0  0  0  0  0
  149.6008  139.3340  154.4057 C   0  0  0  0  0  0  0  0  0  0  0  0
  150.3811  140.3944  154.2819 N   0  0  0  0  0  0  0  0  0  0  0  0
  149.5229  141.4850  154.1106 O   0  0  0  0  0  0  0  0  0  0  0  0
  148.2438  141.0321  154.1376 C   0  0  0  0  0  0  0  0  0  0  0  0
  147.1659  142.0483  153.9650 C   0  0  0  0  0  0  0  0  0  0  0  0
  148.2204  139.6779  154.3249 C   0  0  0  0  0  0  0  0  0  0  0  0
  147.0227  138.7714  154.4129 C   0  0  0  0  0  0  0  0  0  0  0  0
  146.3071  138.6579  153.0578 C   0  0  0  0  0  0  0  0  0  0  0  0
  146.6023  137.3914  152.3997 N   0  0  0  0  0  0  0  0  0  0  0  0
  145.6793  136.5114  151.9754 C   0  0  0  0  0  0  0  0  0  0  0  0
  144.4688  136.6810  152.1101 O   0  0  0  0  0  0  0  0  0  0  0  0
  146.1798  135.4172  151.3754 N   0  0  0  0  0  0  0  0  0  0  0  0
  145.4437  134.2845  150.8094 C   0  0  2  0  0  0  0  0  0  0  0  0
  144.4473  133.6449  151.8057 C   0  0  0  0  0  0  0  0  0  0  0  0
  144.9206  132.1812  151.8724 C   0  0  1  0  0  0  0  0  0  0  0  0
  144.6286  131.4820  150.5304 C   0  0  0  0  0  0  0  0  0  0  0  0
  145.6713  132.1088  149.5834 C   0  0  0  0  0  0  0  0  0  0  0  0
  146.3978  133.1097  150.5010 C   0  0  2  0  0  0  0  0  0  0  0  0
  146.4332  132.3437  151.8205 C   0  0  0  0  0  0  0  0  0  0  0  0
  149.4739  137.2102  154.7501 H   0  0  0  0  0  0  0  0  0  0  0  0
  150.8895  137.9751  155.4624 H   0  0  0  0  0  0  0  0  0  0  0  0
  150.8160  137.6989  153.7238 H   0  0  0  0  0  0  0  0  0  0  0  0
  146.4149  141.6975  153.2567 H   0  0  0  0  0  0  0  0  0  0  0  0
  147.5680  142.9899  153.5908 H   0  0  0  0  0  0  0  0  0  0  0  0
  146.6680  142.2458  154.9143 H   0  0  0  0  0  0  0  0  0  0  0  0
  147.3152  137.7775  154.7529 H   0  0  0  0  0  0  0  0  0  0  0  0
  146.3234  139.1415  155.1634 H   0  0  0  0  0  0  0  0  0  0  0  0
  145.2287  138.7683  153.1853 H   0  0  0  0  0  0  0  0  0  0  0  0
  146.6255  139.4661  152.3988 H   0  0  0  0  0  0  0  0  0  0  0  0
  147.5754  137.1714  152.2447 H   0  0  0  0  0  0  0  0  0  0  0  0
  147.1849  135.3736  151.2866 H   0  0  0  0  0  0  0  0  0  0  0  0
  144.9405  134.6082  149.8964 H   0  0  0  0  0  0  0  0  0  0  0  0
  144.5110  134.1079  152.7918 H   0  0  0  0  0  0  0  0  0  0  0  0
  143.4138  133.7296  151.4680 H   0  0  0  0  0  0  0  0  0  0  0  0
  144.5444  131.6394  152.7405 H   0  0  0  0  0  0  0  0  0  0  0  0
  144.7829  130.4051  150.6105 H   0  0  0  0  0  0  0  0  0  0  0  0
  143.6053  131.6494  150.1923 H   0  0  0  0  0  0  0  0  0  0  0  0
  146.3618  131.3476  149.2177 H   0  0  0  0  0  0  0  0  0  0  0  0
  145.2150  132.5888  148.7168 H   0  0  0  0  0  0  0  0  0  0  0  0
  147.3722  133.4154  150.1176 H   0  0  0  0  0  0  0  0  0  0  0  0
  146.8349  132.9263  152.6514 H   0  0  0  0  0  0  0  0  0  0  0  0
  146.9693  131.3950  151.7571 H   0  0  0  0  0  0  0  0  0  0  0  0
  1  2  1  0  0  0  0
  1 21  1  0  0  0  0
  1 22  1  0  0  0  0
  1 23  1  0  0  0  0
  2  7  1  0  0  0  0
  2  3  2  0  0  0  0
  3  4  1  0  0  0  0
  4  5  1  0  0  0  0
  5  6  1  0  0  0  0
  5  7  2  0  0  0  0
  6 24  1  0  0  0  0
  6 25  1  0  0  0  0
  6 26  1  0  0  0  0
  7  8  1  0  0  0  0
  8  9  1  0  0  0  0
  8 27  1  0  0  0  0
  8 28  1  0  0  0  0
  9 10  1  0  0  0  0
  9 29  1  0  0  0  0
  9 30  1  0  0  0  0
 10 11  1  0  0  0  0
 10 31  1  0  0  0  0
 11 12  2  0  0  0  0
 11 13  1  0  0  0  0
 13 14  1  0  0  0  0
 13 32  1  0  0  0  0
 14 19  1  0  0  0  0
 14 15  1  0  0  0  0
 14 33  1  0  0  0  0
 15 16  1  0  0  0  0
 15 34  1  0  0  0  0
 15 35  1  0  0  0  0
 16 20  1  0  0  0  0
 16 17  1  0  0  0  0
 16 36  1  0  0  0  0
 17 18  1  0  0  0  0
 17 37  1  0  0  0  0
 17 38  1  0  0  0  0
 18 19  1  0  0  0  0
 18 39  1  0  0  0  0
 18 40  1  0  0  0  0
 19 20  1  0  0  0  0
 19 41  1  0  0  0  0
 20 42  1  0  0  0  0
 20 43  1  0  0  0  0
M  END
> <s_m_source_file>
AV-unprocessed.smi

> <i_m_source_file_index>
919

> <i_lp_mmshare_version>
43012

> <i_f3d_flags>
0

> <s_epik_input>
W0NIM11jMW5vYyhbQ0gzXSljMVtDSDJdW0NIMl1bTkhdQyg9TylbTkhdW0NASF0oW0NIMl1bQ0BASF0yMylbQ0BASF0oW0NIMl0zKVtDSDJdW0NIMl0y

> <s_epik_cmdline>
J2VwaWtfcHl0aG9uJywgJy1waCcsICc3LjAnLCAnLXRuJywgJzgnLCAnLW1hJywgJzIwMCcsICctbWV0YWxfYmluZGluZycsICctaW1hZScsICc8aW5maWxlLm1hZT4nLCAnLW9tYWUnLCAnPG91dGZpbGUubWFlPic=

> <r_lp_tautomer_probability>
1

> <r_epik_Ionization_Penalty>
6.40771e-05

> <r_epik_Ionization_Penalty_Charging>
0

> <r_epik_Ionization_Penalty_Neutral>
6.40771e-05

> <r_epik_State_Penalty>
-0

> <r_epik_Charging_Adjusted_Penalty>
0

> <i_epik_Tot_Q>
0

> <i_epik_Tot_abs_Q>
0

> <r_epik_Metal_State_Penalty>
-0

> <b_epik_Metal_Only>
0

> <s_lp_Force_Field>
OPLS_2005

> <r_lp_Energy>
47.5349

> <b_lp_Chiralities_Consistent>
1

> <s_lp_Variant>
AV-unprocessed.smi:919-1

> <Gold.Version>
5.8.1

> <Gold.Id.Protein>
6NUR|6NUR_protein|mol2

> <Gold.PLP.Fitness>
48.8343

> <Gold.PLP.PLP>
-39.0618

> <Gold.PLP.part.hbond>
-4.7822

> <Gold.PLP.part.metal>
0.0000

> <Gold.PLP.part.buried>
-5.6043

> <Gold.PLP.part.nonpolar>
-29.9493

> <Gold.PLP.part.repulsive>
1.2055

> <Gold.PLP.ligand.clash>
0.0000

> <Gold.PLP.ligand.torsion>
0.4924

> <Gold.PLP.Chemscore.Hbond>
3.5760

> <Gold.PLP.Chemscore.CHOScore>
0.0000

> <Gold.PLP.Chemscore.Metal>
0.0000

> <Gold.Chemscore.Hbonds>
donor molecule, donor type, donor heavy atom, donor atom, acceptor molecule, acceptor atom, score
      L1  H    10    31       P1  7948  1.00
      L1  H    13    32       P1  7948  0.93
      P1  H  7989  7998       L1     3  0.99
      P1  H  8011  8017       L1     4  0.64

> <Gold.PLP.Chemscore.Internal.Correction>
0.0293

> <Gold.Rescore>
     Score         DG    S(hbond)    S(metal)    S(lipo)     H(rot)  DE(clash)    DE(int)     intcor
     21.58     -22.16       2.77        0.00      96.73       1.52       0.21       0.38       ----

> <Gold.Chemscore.Fitness>
21.5773

> <Gold.Chemscore.DG>
-22.1620

> <Gold.Chemscore.ZeroCoef>
-5.4800

> <Gold.Chemscore.Hbond>
2.7682

> <Gold.Chemscore.Metal>
0.0000

> <Gold.Chemscore.Lipo>
96.7314

> <Gold.Chemscore.Internal_Hbond>
0.0000

> <Gold.Chemscore.DEClash>
0.2051

> <Gold.Chemscore.DEInternal>
0.3795

> <Gold.Chemscore.Rot>
1.5161

> <Gold.Chemscore.Internal.Correction>
   9.000000E+99

> <Gold.Chemscore.Hbonds>
donor molecule, donor type, donor heavy atom, donor atom, acceptor molecule, acceptor atom, score
      L1  H    10    31       P1  7948  0.99
      L1  H    13    32       P1  7948  0.76
      P1  H  7989  7998       L1     3  0.23
      P1  H  8011  8017       L1     4  0.34

> <Gold.Chemscore.Hbond.Weighted>
-9.2457

> <Gold.Chemscore.Metal.Weighted>
-0.0000

> <Gold.Chemscore.Lipo.Weighted>
-11.3176

> <Gold.Chemscore.Internal_Hbond.Weighted>
0.0000

> <Gold.Chemscore.DEClash.Weighted>
0.2051

> <Gold.Chemscore.DEInternal.Weighted>
0.3795

> <Gold.Chemscore.Rot.Weighted>
3.8813

> <Gold.Chemscore.Internal.Correction.Weighted>
   9.000000E+99

> <Gold.Protein.RotatedTorsions>
[ 6907 6896 6895 6894 ] final  -27.14 input  -60.11 | X-H torsion
[ 7974 7965 7964 7962 ] final  -84.71 input  175.53 | X-H torsion
[ 8008 7997 7996 7995 ] final   95.02 input   59.86 | X-H torsion
[ 10167 10162 10161 10158 ] final   54.49 input  -65.29 | X-H torsion
[ 10718 10713 10712 10709 ] final   89.73 input   66.30 | X-H torsion
[ 10763 10752 10751 10750 ] final -115.37 input  -60.55 | X-H torsion
[ 11005 11000 10999 10996 ] final  -92.06 input  -57.11 | X-H torsion

> <Gold.Protein.ActiveResidues>
 VAL166  LYS551  ARG553  GLY616  TRP617  ASP618  TYR619  PRO620  LYS621  CYS622 
 ASP623  PHE694  ASN695  SER759  ASP760  ASP761  ALA762  ILE779  LEU786  VAL792 
 PHE793  MET794  SER795  GLU796  ALA797  LYS798  CYS799  TRP800  GLU811  SER814 

> <Gold.Protein.RotatedAtoms>
  151.1510  135.0227  159.8668 H   0  0  0  0  0  0  0  0  0  0  0  0  # atno 6907 bound_to 6896
  152.5452  134.1388  159.8480 H   0  0  0  0  0  0  0  0  0  0  0  0  # atno 6908 bound_to 6896
  151.1474  133.4885  159.2628 H   0  0  0  0  0  0  0  0  0  0  0  0  # atno 6909 bound_to 6896
  145.5029  140.9546  143.1749 H   0  0  0  0  0  0  0  0  0  0  0  0  # atno 7974 bound_to 7965
  156.0643  140.3292  155.7499 H   0  0  0  0  0  0  0  0  0  0  0  0  # atno 8008 bound_to 7997
  155.5406  140.0601  157.2888 H   0  0  0  0  0  0  0  0  0  0  0  0  # atno 8009 bound_to 7997
  154.4497  140.1911  156.0575 H   0  0  0  0  0  0  0  0  0  0  0  0  # atno 8010 bound_to 7997
  140.2295  144.3702  150.6420 H   0  0  0  0  0  0  0  0  0  0  0  0  # atno 10167 bound_to 10162
  157.6956  131.0344  150.3470 H   0  0  0  0  0  0  0  0  0  0  0  0  # atno 10718 bound_to 10713
  154.8478  135.4384  154.1653 H   0  0  0  0  0  0  0  0  0  0  0  0  # atno 10763 bound_to 10752
  153.2779  135.6951  153.7420 H   0  0  0  0  0  0  0  0  0  0  0  0  # atno 10764 bound_to 10752
  153.6636  135.3431  155.3109 H   0  0  0  0  0  0  0  0  0  0  0  0  # atno 10765 bound_to 10752
  141.1531  133.7796  156.9966 H   0  0  0  0  0  0  0  0  0  0  0  0  # atno 11005 bound_to 11000
  144.7770  139.6609  143.7171 LP  0  0  0  0  0  0  0  0  0  0  0  0  # atno 17320 bound_to 7965
  146.2214  139.5643  142.9615 LP  0  0  0  0  0  0  0  0  0  0  0  0  # atno 17321 bound_to 7965
  140.6195  143.2175  151.6722 LP  0  0  0  0  0  0  0  0  0  0  0  0  # atno 17342 bound_to 10162
  139.5115  144.3507  152.0655 LP  0  0  0  0  0  0  0  0  0  0  0  0  # atno 17343 bound_to 10162
  156.3923  130.3900  149.7021 LP  0  0  0  0  0  0  0  0  0  0  0  0  # atno 17370 bound_to 10713
  156.4366  130.7841  151.2862 LP  0  0  0  0  0  0  0  0  0  0  0  0  # atno 17371 bound_to 10713
  140.0967  134.9560  157.1861 LP  0  0  0  0  0  0  0  0  0  0  0  0  # atno 17394 bound_to 11000
  140.3373  134.2743  155.7218 LP  0  0  0  0  0  0  0  0  0  0  0  0  # atno 17395 bound_to 11000

$$$$
