AV-unprocessed.smi:3128|AV-procd|sdf|11921|dock3
  -GOLD-   2272017303D 1   1.00000     0.00000
 Structure written by MMmdl.
 39 39  0  0  0  0  0  0  0  0  1 V2000
  151.9360  144.6789  160.3835 C   0  0  0  0  0  0  0  0  0  0  0  0
  152.6465  144.0883  159.1496 C   0  0  0  0  0  0  0  0  0  0  0  0
  151.8854  144.4993  157.8762 C   0  0  0  0  0  0  0  0  0  0  0  0
  152.8337  142.5514  159.2574 C   0  0  1  0  0  0  0  0  0  0  0  0
  153.3094  142.0923  160.6494 C   0  0  0  0  0  0  0  0  0  0  0  0
  151.5811  141.8689  158.9350 N   0  0  0  0  0  0  0  0  0  0  0  0
  151.4632  140.7583  158.1902 C   0  0  0  0  0  0  0  0  0  0  0  0
  152.4223  140.1687  157.6925 O   0  0  0  0  0  0  0  0  0  0  0  0
  150.0452  140.2342  157.9703 C   0  0  0  0  0  0  0  0  0  0  0  0
  150.0538  138.8399  157.5186 N   0  0  0  0  0  0  0  0  0  0  0  0
  149.0844  138.0546  158.2667 C   0  0  0  0  0  0  0  0  0  0  0  0
  149.7494  136.7680  158.7774 C   0  0  0  0  0  0  0  0  0  0  0  0
  148.9749  136.1502  159.8366 N   0  0  0  0  0  0  0  0  0  0  0  0
  148.5213  134.8507  159.9206 C   0  0  0  0  0  0  0  0  0  0  0  0
  147.8359  134.7348  161.0960 C   0  0  0  0  0  0  0  0  0  0  0  0
  147.9274  136.0338  161.6698 C   0  0  0  0  0  0  0  0  0  0  0  0
  148.6102  136.8785  160.9139 N   0  0  0  0  0  0  0  0  0  0  0  0
  150.9514  144.2317  160.5234 H   0  0  0  0  0  0  0  0  0  0  0  0
  151.7982  145.7555  160.2789 H   0  0  0  0  0  0  0  0  0  0  0  0
  152.5066  144.5211  161.2988 H   0  0  0  0  0  0  0  0  0  0  0  0
  153.6356  144.5460  159.0981 H   0  0  0  0  0  0  0  0  0  0  0  0
  150.9074  144.0197  157.8267 H   0  0  0  0  0  0  0  0  0  0  0  0
  152.4347  144.2381  156.9722 H   0  0  0  0  0  0  0  0  0  0  0  0
  151.7264  145.5776  157.8453 H   0  0  0  0  0  0  0  0  0  0  0  0
  153.5877  142.2554  158.5252 H   0  0  0  0  0  0  0  0  0  0  0  0
  154.3008  142.4773  160.8853 H   0  0  0  0  0  0  0  0  0  0  0  0
  153.3759  141.0053  160.7054 H   0  0  0  0  0  0  0  0  0  0  0  0
  152.6252  142.4222  161.4318 H   0  0  0  0  0  0  0  0  0  0  0  0
  150.7349  142.2820  159.2990 H   0  0  0  0  0  0  0  0  0  0  0  0
  149.4989  140.3155  158.9112 H   0  0  0  0  0  0  0  0  0  0  0  0
  149.5241  140.8564  157.2399 H   0  0  0  0  0  0  0  0  0  0  0  0
  149.8496  138.7708  156.5320 H   0  0  0  0  0  0  0  0  0  0  0  0
  148.7025  138.6381  159.1060 H   0  0  0  0  0  0  0  0  0  0  0  0
  148.2369  137.8077  157.6254 H   0  0  0  0  0  0  0  0  0  0  0  0
  149.8601  136.0469  157.9662 H   0  0  0  0  0  0  0  0  0  0  0  0
  150.7517  136.9766  159.1551 H   0  0  0  0  0  0  0  0  0  0  0  0
  148.7203  134.1254  159.1455 H   0  0  0  0  0  0  0  0  0  0  0  0
  147.3442  133.8562  161.4864 H   0  0  0  0  0  0  0  0  0  0  0  0
  147.5208  136.3856  162.6065 H   0  0  0  0  0  0  0  0  0  0  0  0
  1  2  1  0  0  0  0
  1 18  1  0  0  0  0
  1 19  1  0  0  0  0
  1 20  1  0  0  0  0
  2  3  1  0  0  0  0
  2  4  1  0  0  0  0
  2 21  1  0  0  0  0
  3 22  1  0  0  0  0
  3 23  1  0  0  0  0
  3 24  1  0  0  0  0
  4  5  1  0  0  0  0
  4  6  1  0  0  0  0
  4 25  1  0  0  0  0
  5 26  1  0  0  0  0
  5 27  1  0  0  0  0
  5 28  1  0  0  0  0
  6  7  1  0  0  0  0
  6 29  1  0  0  0  0
  7  8  2  0  0  0  0
  7  9  1  0  0  0  0
  9 10  1  0  0  0  0
  9 30  1  0  0  0  0
  9 31  1  0  0  0  0
 10 11  1  0  0  0  0
 10 32  1  0  0  0  0
 11 12  1  0  0  0  0
 11 33  1  0  0  0  0
 11 34  1  0  0  0  0
 12 13  1  0  0  0  0
 12 35  1  0  0  0  0
 12 36  1  0  0  0  0
 13 17  1  0  0  0  0
 13 14  1  0  0  0  0
 14 15  2  0  0  0  0
 14 37  1  0  0  0  0
 15 16  1  0  0  0  0
 15 38  1  0  0  0  0
 16 17  2  0  0  0  0
 16 39  1  0  0  0  0
M  END
> <s_m_source_file>
AV-unprocessed.smi

> <i_m_source_file_index>
3128

> <i_lp_mmshare_version>
43012

> <i_f3d_flags>
0

> <s_epik_input>
W0NIM11bQ0hdKFtDSDNdKVtDQEhdKFtDSDNdKVtOSF1DKD1PKVtDSDJdW05IXVtDSDJdW0NIMl1uMVtjSF1bY0hdW2NIXW4x

> <s_epik_cmdline>
J2VwaWtfcHl0aG9uJywgJy1waCcsICc3LjAnLCAnLXRuJywgJzgnLCAnLW1hJywgJzIwMCcsICctbWV0YWxfYmluZGluZycsICctaW1hZScsICc8aW5maWxlLm1hZT4nLCAnLW9tYWUnLCAnPG91dGZpbGUubWFlPic=

> <r_lp_tautomer_probability>
1

> <r_epik_Ionization_Penalty>
0.724947

> <r_epik_Ionization_Penalty_Charging>
0

> <r_epik_Ionization_Penalty_Neutral>
0.724947

> <r_epik_State_Penalty>
0.747959

> <r_epik_Charging_Adjusted_Penalty>
0.747959

> <i_epik_Tot_Q>
0

> <i_epik_Tot_abs_Q>
0

> <r_epik_Metal_State_Penalty>
0.746178

> <b_epik_Metal_Only>
0

> <s_lp_Force_Field>
OPLS_2005

> <r_lp_Energy>
7.09657

> <b_lp_Chiralities_Consistent>
1

> <s_lp_Variant>
AV-unprocessed.smi:3128-4

> <Gold.Version>
5.8.1

> <Gold.Id.Protein>
6NUR|6NUR_protein|mol2

> <Gold.PLP.Fitness>
41.4736

> <Gold.PLP.PLP>
-38.7156

> <Gold.PLP.part.hbond>
-2.2478

> <Gold.PLP.part.metal>
0.0000

> <Gold.PLP.part.buried>
-4.1404

> <Gold.PLP.part.nonpolar>
-32.3210

> <Gold.PLP.part.repulsive>
0.1090

> <Gold.PLP.ligand.clash>
0.0000

> <Gold.PLP.ligand.torsion>
1.5612

> <Gold.PLP.Chemscore.Hbond>
1.8938

> <Gold.PLP.Chemscore.CHOScore>
0.0000

> <Gold.PLP.Chemscore.Metal>
0.0000

> <Gold.Chemscore.Hbonds>
donor molecule, donor type, donor heavy atom, donor atom, acceptor molecule, acceptor atom, score
      P1  H  6931  6943       L1    17  1.00
      P1  H  7997  8008       L1     8  0.57

> <Gold.PLP.Chemscore.Internal.Correction>
0.1990

> <Gold.Rescore>
     Score         DG    S(hbond)    S(metal)    S(lipo)     H(rot)  DE(clash)    DE(int)     intcor
     16.54     -17.99       2.16        0.00      92.19       2.15       0.03       1.42       ----

> <Gold.Chemscore.Fitness>
16.5358

> <Gold.Chemscore.DG>
-17.9877

> <Gold.Chemscore.ZeroCoef>
-5.4800

> <Gold.Chemscore.Hbond>
2.1624

> <Gold.Chemscore.Metal>
0.0000

> <Gold.Chemscore.Lipo>
92.1899

> <Gold.Chemscore.Internal_Hbond>
0.0000

> <Gold.Chemscore.DEClash>
0.0288

> <Gold.Chemscore.DEInternal>
1.4231

> <Gold.Chemscore.Rot>
2.1488

> <Gold.Chemscore.Internal.Correction>
   9.000000E+99

> <Gold.Chemscore.Hbonds>
donor molecule, donor type, donor heavy atom, donor atom, acceptor molecule, acceptor atom, score
      P1  H  6931  6943       L1    17  0.62
      P1  H  7997  8008       L1     8  0.54

> <Gold.Chemscore.Hbond.Weighted>
-7.2225

> <Gold.Chemscore.Metal.Weighted>
-0.0000

> <Gold.Chemscore.Lipo.Weighted>
-10.7862

> <Gold.Chemscore.Internal_Hbond.Weighted>
0.0000

> <Gold.Chemscore.DEClash.Weighted>
0.0288

> <Gold.Chemscore.DEInternal.Weighted>
1.4231

> <Gold.Chemscore.Rot.Weighted>
5.5010

> <Gold.Chemscore.Internal.Correction.Weighted>
   9.000000E+99

> <Gold.Protein.RotatedTorsions>
[ 6907 6896 6895 6894 ] final  151.79 input  -60.11 | X-H torsion
[ 7974 7965 7964 7962 ] final -153.64 input  175.53 | X-H torsion
[ 8008 7997 7996 7995 ] final  -70.89 input   59.86 | X-H torsion
[ 10167 10162 10161 10158 ] final  138.01 input  -65.29 | X-H torsion
[ 10718 10713 10712 10709 ] final  109.55 input   66.30 | X-H torsion
[ 10763 10752 10751 10750 ] final   40.55 input  -60.55 | X-H torsion
[ 11005 11000 10999 10996 ] final  -43.45 input  -57.11 | X-H torsion

> <Gold.Protein.ActiveResidues>
 VAL166  LYS551  ARG553  GLY616  TRP617  ASP618  TYR619  PRO620  LYS621  CYS622 
 ASP623  PHE694  ASN695  SER759  ASP760  ASP761  ALA762  ILE779  LEU786  VAL792 
 PHE793  MET794  SER795  GLU796  ALA797  LYS798  CYS799  TRP800  GLU811  SER814 

> <Gold.Protein.RotatedAtoms>
  152.0957  133.4223  159.4563 H   0  0  0  0  0  0  0  0  0  0  0  0  # atno 6907 bound_to 6896
  150.6863  134.2820  159.4640 H   0  0  0  0  0  0  0  0  0  0  0  0  # atno 6908 bound_to 6896
  152.0675  134.9554  160.0625 H   0  0  0  0  0  0  0  0  0  0  0  0  # atno 6909 bound_to 6896
  144.7730  140.4498  143.5893 H   0  0  0  0  0  0  0  0  0  0  0  0  # atno 7974 bound_to 7965
  154.5046  140.0826  156.7867 H   0  0  0  0  0  0  0  0  0  0  0  0  # atno 8008 bound_to 7997
  155.3924  140.3433  155.4234 H   0  0  0  0  0  0  0  0  0  0  0  0  # atno 8009 bound_to 7997
  156.1499  140.1555  156.8774 H   0  0  0  0  0  0  0  0  0  0  0  0  # atno 8010 bound_to 7997
  139.5125  144.6377  151.5651 H   0  0  0  0  0  0  0  0  0  0  0  0  # atno 10167 bound_to 10162
  157.6536  131.0916  150.6470 H   0  0  0  0  0  0  0  0  0  0  0  0  # atno 10718 bound_to 10713
  152.9933  135.6188  154.2645 H   0  0  0  0  0  0  0  0  0  0  0  0  # atno 10763 bound_to 10752
  154.2380  135.2789  155.2866 H   0  0  0  0  0  0  0  0  0  0  0  0  # atno 10764 bound_to 10752
  154.5394  135.5765  153.6884 H   0  0  0  0  0  0  0  0  0  0  0  0  # atno 10765 bound_to 10752
  141.0384  133.6790  156.2734 H   0  0  0  0  0  0  0  0  0  0  0  0  # atno 11005 bound_to 11000
  145.6268  139.1531  143.2991 LP  0  0  0  0  0  0  0  0  0  0  0  0  # atno 17320 bound_to 7965
  146.1890  140.6374  142.9154 LP  0  0  0  0  0  0  0  0  0  0  0  0  # atno 17321 bound_to 7965
  140.6133  143.9396  150.6469 LP  0  0  0  0  0  0  0  0  0  0  0  0  # atno 17342 bound_to 10162
  140.2646  143.3499  152.1293 LP  0  0  0  0  0  0  0  0  0  0  0  0  # atno 17343 bound_to 10162
  156.6779  130.4558  149.5637 LP  0  0  0  0  0  0  0  0  0  0  0  0  # atno 17370 bound_to 10713
  156.1950  130.6584  151.1104 LP  0  0  0  0  0  0  0  0  0  0  0  0  # atno 17371 bound_to 10713
  140.6279  134.5294  157.5556 LP  0  0  0  0  0  0  0  0  0  0  0  0  # atno 17394 bound_to 11000
  139.9258  134.8059  156.1074 LP  0  0  0  0  0  0  0  0  0  0  0  0  # atno 17395 bound_to 11000

$$$$
