AV-unprocessed.smi:574|AV-procd|sdf|2976|dock1
  -GOLD-   2262023483D 1   1.00000     0.00000
 Structure written by MMmdl.
 39 40  0  0  0  0  0  0  0  0  2 V2000
  144.0959  132.7167  148.9569 C   0  0  0  0  0  0  0  0  0  0  0  0
  144.6776  132.4202  150.3350 C   0  0  0  0  0  0  0  0  0  0  0  0
  144.5570  131.3003  150.8309 O   0  0  0  0  0  0  0  0  0  0  0  0
  145.3134  133.4335  150.9386 N   0  0  0  0  0  0  0  0  0  0  0  0
  145.9909  133.3498  152.2289 C   0  0  0  0  0  0  0  0  0  0  0  0
  147.4823  133.0075  152.0556 C   0  0  0  0  0  0  0  0  0  0  0  0
  148.2485  133.5677  153.1664 N   0  5  0  0  0  0  0  0  0  0  0  0
  148.9165  132.8274  154.0972 C   0  0  0  0  0  0  0  0  0  0  0  0
  148.7962  131.6289  154.3733 O   0  0  0  0  0  0  0  0  0  0  0  0
  149.9128  133.6561  154.8756 C   0  0  0  0  0  0  0  0  0  0  0  0
  149.9557  134.9876  154.6158 N   0  0  0  0  0  0  0  0  0  0  0  0
  150.8081  135.7584  155.2966 C   0  0  0  0  0  0  0  0  0  0  0  0
  150.8242  137.1256  154.9911 N   0  0  0  0  0  0  0  0  0  0  0  0
  149.7401  137.7694  154.2466 C   0  0  0  0  0  0  0  0  0  0  0  0
  149.5646  139.2304  154.6940 C   0  0  0  0  0  0  0  0  0  0  0  0
  150.7989  139.9256  154.5647 O   0  0  0  0  0  0  0  0  0  0  0  0
  151.8070  139.3592  155.3931 C   0  0  0  0  0  0  0  0  0  0  0  0
  152.0673  137.9021  154.9769 C   0  0  0  0  0  0  0  0  0  0  0  0
  151.6427  135.3186  156.2453 N   0  0  0  0  0  0  0  0  0  0  0  0
  151.6251  133.9991  156.5273 C   0  0  0  0  0  0  0  0  0  0  0  0
  150.7676  133.0998  155.8642 C   0  0  0  0  0  0  0  0  0  0  0  0
  150.8283  131.4157  156.2595 Cl  0  0  0  0  0  0  0  0  0  0  0  0
  144.8966  132.8346  148.2263 H   0  0  0  0  0  0  0  0  0  0  0  0
  143.5087  133.6353  148.9777 H   0  0  0  0  0  0  0  0  0  0  0  0
  143.4475  131.9045  148.6264 H   0  0  0  0  0  0  0  0  0  0  0  0
  145.3819  134.3181  150.4555 H   0  0  0  0  0  0  0  0  0  0  0  0
  145.8925  134.3024  152.7513 H   0  0  0  0  0  0  0  0  0  0  0  0
  145.5002  132.5959  152.8468 H   0  0  0  0  0  0  0  0  0  0  0  0
  147.5850  131.9235  151.9849 H   0  0  0  0  0  0  0  0  0  0  0  0
  147.8262  133.3999  151.0984 H   0  0  0  0  0  0  0  0  0  0  0  0
  149.9788  137.7302  153.1833 H   0  0  0  0  0  0  0  0  0  0  0  0
  148.7886  137.2541  154.3749 H   0  0  0  0  0  0  0  0  0  0  0  0
  148.8145  139.7235  154.0757 H   0  0  0  0  0  0  0  0  0  0  0  0
  149.2105  139.2816  155.7249 H   0  0  0  0  0  0  0  0  0  0  0  0
  152.7205  139.9452  155.2914 H   0  0  0  0  0  0  0  0  0  0  0  0
  151.5083  139.4161  156.4412 H   0  0  0  0  0  0  0  0  0  0  0  0
  152.8193  137.4880  155.6485 H   0  0  0  0  0  0  0  0  0  0  0  0
  152.4887  137.8680  153.9716 H   0  0  0  0  0  0  0  0  0  0  0  0
  152.3095  133.6563  157.2892 H   0  0  0  0  0  0  0  0  0  0  0  0
  1  2  1  0  0  0  0
  1 23  1  0  0  0  0
  1 24  1  0  0  0  0
  1 25  1  0  0  0  0
  2  3  2  0  0  0  0
  2  4  1  0  0  0  0
  4  5  1  0  0  0  0
  4 26  1  0  0  0  0
  5  6  1  0  0  0  0
  5 27  1  0  0  0  0
  5 28  1  0  0  0  0
  6  7  1  0  0  0  0
  6 29  1  0  0  0  0
  6 30  1  0  0  0  0
  7  8  1  0  0  0  0
  8  9  2  0  0  0  0
  8 10  1  0  0  0  0
 10 21  1  0  0  0  0
 10 11  2  0  0  0  0
 11 12  1  0  0  0  0
 12 13  1  0  0  0  0
 12 19  2  0  0  0  0
 13 18  1  0  0  0  0
 13 14  1  0  0  0  0
 14 15  1  0  0  0  0
 14 31  1  0  0  0  0
 14 32  1  0  0  0  0
 15 16  1  0  0  0  0
 15 33  1  0  0  0  0
 15 34  1  0  0  0  0
 16 17  1  0  0  0  0
 17 18  1  0  0  0  0
 17 35  1  0  0  0  0
 17 36  1  0  0  0  0
 18 37  1  0  0  0  0
 18 38  1  0  0  0  0
 19 20  1  0  0  0  0
 20 21  2  0  0  0  0
 20 39  1  0  0  0  0
 21 22  1  0  0  0  0
M  CHG  1   7  -1
M  END
> <s_m_source_file>
AV-unprocessed.smi

> <i_m_source_file_index>
574

> <i_lp_mmshare_version>
43012

> <i_f3d_flags>
0

> <s_epik_input>
W0NIM11DKD1PKVtOSF1bQ0gyXVtDSDJdW05IXUMoPU8pYzFuYyhuW2NIXWMxQ2wpTjJbQ0gyXVtDSDJdT1tDSDJdW0NIMl0y

> <s_epik_cmdline>
J2VwaWtfcHl0aG9uJywgJy1waCcsICc3LjAnLCAnLXRuJywgJzgnLCAnLW1hJywgJzIwMCcsICctbWV0YWxfYmluZGluZycsICctaW1hZScsICc8aW5maWxlLm1hZT4nLCAnLW9tYWUnLCAnPG91dGZpbGUubWFlPic=

> <r_lp_tautomer_probability>
1

> <r_epik_Ionization_Penalty>
5.61005

> <r_epik_Ionization_Penalty_Charging>
5.61003

> <r_epik_Ionization_Penalty_Neutral>
1.98059e-05

> <r_epik_State_Penalty>
5.60999

> <r_epik_Charging_Adjusted_Penalty>
11.22

> <i_epik_Tot_Q>
-1

> <i_epik_Tot_abs_Q>
1

> <r_epik_Metal_State_Penalty>
1.60231

> <b_epik_Metal_Only>
1

> <s_lp_Force_Field>
OPLS_2005

> <r_lp_Energy>
13.7471

> <b_lp_Chiralities_Consistent>
1

> <s_lp_Variant>
AV-unprocessed.smi:574-2

> <Gold.Version>
5.8.1

> <Gold.Id.Protein>
6NUR|6NUR_protein|mol2

> <Gold.PLP.Fitness>
40.3625

> <Gold.PLP.PLP>
-35.7415

> <Gold.PLP.part.hbond>
-2.0000

> <Gold.PLP.part.metal>
0.0000

> <Gold.PLP.part.buried>
-4.2165

> <Gold.PLP.part.nonpolar>
-31.3350

> <Gold.PLP.part.repulsive>
1.8017

> <Gold.PLP.ligand.clash>
0.0000

> <Gold.PLP.ligand.torsion>
0.7687

> <Gold.PLP.Chemscore.Hbond>
1.9500

> <Gold.PLP.Chemscore.CHOScore>
0.0000

> <Gold.PLP.Chemscore.Metal>
0.0000

> <Gold.Chemscore.Hbonds>
donor molecule, donor type, donor heavy atom, donor atom, acceptor molecule, acceptor atom, score
      P1  H  7989  7998       L1    16  1.00
      P1  H 10752 10764       L1    19  0.81

> <Gold.PLP.Chemscore.Internal.Correction>
0.3084

> <Gold.Rescore>
     Score         DG    S(hbond)    S(metal)    S(lipo)     H(rot)  DE(clash)    DE(int)     intcor
     10.24     -12.69       0.99        0.00      69.95       1.67       0.41       2.04       ----

> <Gold.Chemscore.Fitness>
10.2358

> <Gold.Chemscore.DG>
-12.6872

> <Gold.Chemscore.ZeroCoef>
-5.4800

> <Gold.Chemscore.Hbond>
0.9885

> <Gold.Chemscore.Metal>
0.0000

> <Gold.Chemscore.Lipo>
69.9453

> <Gold.Chemscore.Internal_Hbond>
0.0000

> <Gold.Chemscore.DEClash>
0.4144

> <Gold.Chemscore.DEInternal>
2.0370

> <Gold.Chemscore.Rot>
1.6710

> <Gold.Chemscore.Internal.Correction>
   9.000000E+99

> <Gold.Chemscore.Hbonds>
donor molecule, donor type, donor heavy atom, donor atom, acceptor molecule, acceptor atom, score
      P1  H  7989  7998       L1    16  0.45
      P1  H 10752 10764       L1    19  0.03

> <Gold.Chemscore.Hbond.Weighted>
-3.3015

> <Gold.Chemscore.Metal.Weighted>
-0.0000

> <Gold.Chemscore.Lipo.Weighted>
-8.1836

> <Gold.Chemscore.Internal_Hbond.Weighted>
0.0000

> <Gold.Chemscore.DEClash.Weighted>
0.4144

> <Gold.Chemscore.DEInternal.Weighted>
2.0370

> <Gold.Chemscore.Rot.Weighted>
4.2779

> <Gold.Chemscore.Internal.Correction.Weighted>
   9.000000E+99

> <Gold.Protein.RotatedTorsions>
[ 6907 6896 6895 6894 ] final   73.08 input  -60.11 | X-H torsion
[ 7974 7965 7964 7962 ] final -177.86 input  175.53 | X-H torsion
[ 8008 7997 7996 7995 ] final -104.40 input   59.86 | X-H torsion
[ 10167 10162 10161 10158 ] final  -37.18 input  -65.29 | X-H torsion
[ 10718 10713 10712 10709 ] final  -25.30 input   66.30 | X-H torsion
[ 10763 10752 10751 10750 ] final  -16.73 input  -60.55 | X-H torsion
[ 11005 11000 10999 10996 ] final    1.62 input  -57.11 | X-H torsion

> <Gold.Protein.ActiveResidues>
 VAL166  LYS551  ARG553  GLY616  TRP617  ASP618  TYR619  PRO620  LYS621  CYS622 
 ASP623  PHE694  ASN695  SER759  ASP760  ASP761  ALA762  ILE779  LEU786  VAL792 
 PHE793  MET794  SER795  GLU796  ALA797  LYS798  CYS799  TRP800  GLU811  SER814 

> <Gold.Protein.RotatedAtoms>
  152.4904  134.4475  159.9563 H   0  0  0  0  0  0  0  0  0  0  0  0  # atno 6907 bound_to 6896
  151.4463  133.3623  159.2796 H   0  0  0  0  0  0  0  0  0  0  0  0  # atno 6908 bound_to 6896
  150.9052  134.8491  159.7448 H   0  0  0  0  0  0  0  0  0  0  0  0  # atno 6909 bound_to 6896
  144.7129  140.0955  143.6419 H   0  0  0  0  0  0  0  0  0  0  0  0  # atno 7974 bound_to 7965
  154.8847  140.0418  157.1803 H   0  0  0  0  0  0  0  0  0  0  0  0  # atno 8008 bound_to 7997
  154.8602  140.2943  155.5522 H   0  0  0  0  0  0  0  0  0  0  0  0  # atno 8009 bound_to 7997
  156.2998  140.2448  156.3575 H   0  0  0  0  0  0  0  0  0  0  0  0  # atno 8010 bound_to 7997
  140.7125  143.3359  151.2464 H   0  0  0  0  0  0  0  0  0  0  0  0  # atno 10167 bound_to 10162
  156.4662  130.4514  149.6897 H   0  0  0  0  0  0  0  0  0  0  0  0  # atno 10718 bound_to 10713
  153.5631  135.7009  153.5538 H   0  0  0  0  0  0  0  0  0  0  0  0  # atno 10763 bound_to 10752
  153.3412  135.4020  155.1573 H   0  0  0  0  0  0  0  0  0  0  0  0  # atno 10764 bound_to 10752
  154.8645  135.3742  154.5149 H   0  0  0  0  0  0  0  0  0  0  0  0  # atno 10765 bound_to 10752
  140.6134  133.9727  155.8189 H   0  0  0  0  0  0  0  0  0  0  0  0  # atno 11005 bound_to 11000
  145.9583  139.2782  143.1171 LP  0  0  0  0  0  0  0  0  0  0  0  0  # atno 17320 bound_to 7965
  145.9248  140.9090  143.0386 LP  0  0  0  0  0  0  0  0  0  0  0  0  # atno 17321 bound_to 7965
  139.6854  143.9783  152.2831 LP  0  0  0  0  0  0  0  0  0  0  0  0  # atno 17342 bound_to 10162
  139.9427  144.6671  150.8251 LP  0  0  0  0  0  0  0  0  0  0  0  0  # atno 17343 bound_to 10162
  156.3665  130.7508  151.2487 LP  0  0  0  0  0  0  0  0  0  0  0  0  # atno 17370 bound_to 10713
  157.7494  131.0335  150.4276 LP  0  0  0  0  0  0  0  0  0  0  0  0  # atno 17371 bound_to 10713
  141.0792  134.0088  157.3412 LP  0  0  0  0  0  0  0  0  0  0  0  0  # atno 17394 bound_to 11000
  139.9183  135.0198  156.7965 LP  0  0  0  0  0  0  0  0  0  0  0  0  # atno 17395 bound_to 11000

$$$$
