AV-unprocessed.smi:187|AV-procd|sdf|1470|dock5
  -GOLD-   2262019283D 1   1.00000     0.00000
 Structure written by MMmdl.
 53 56  0  0  0  0  0  0  0  0  1 V2000
  147.0316  131.9993  159.8408 C   0  0  0  0  0  0  0  0  0  0  0  0
  147.6540  133.2986  160.3942 C   0  0  2  0  0  0  0  0  0  0  0  0
  147.0000  133.6516  161.7465 C   0  0  0  0  0  0  0  0  0  0  0  0
  147.5383  134.9753  162.3165 C   0  0  0  0  0  0  0  0  0  0  0  0
  147.4413  136.1324  161.2998 C   0  0  2  0  0  0  0  0  0  0  0  0
  146.0012  136.6542  161.1302 C   0  0  0  0  0  0  0  0  0  0  0  0
  145.0818  135.7703  160.7332 N   0  0  0  0  0  0  0  0  0  0  0  0
  145.7121  137.8271  161.3604 O   0  0  0  0  0  0  0  0  0  0  0  0
  148.0770  135.7002  159.9609 C   0  0  0  0  0  0  0  0  0  0  0  0
  147.5363  134.4323  159.4659 N   0  0  0  0  0  0  0  0  0  0  0  0
  147.9355  134.1833  158.1987 C   0  0  0  0  0  0  0  0  0  0  0  0
  149.2580  134.0490  157.9161 N   0  0  0  0  0  0  0  0  0  0  0  0
  149.6451  133.7870  156.6642 C   0  0  0  0  0  0  0  0  0  0  0  0
  148.8917  133.6212  155.5748 N   0  0  0  0  0  0  0  0  0  0  0  0
  147.5632  133.7541  155.8591 C   0  0  0  0  0  0  0  0  0  0  0  0
  147.0061  134.0366  157.1370 C   0  0  0  0  0  0  0  0  0  0  0  0
  145.6219  134.0997  157.0545 N   0  0  0  0  0  0  0  0  0  0  0  0
  145.3718  133.8650  155.7952 C   0  0  0  0  0  0  0  0  0  0  0  0
  146.4780  133.6446  155.0034 N   0  0  0  0  0  0  0  0  0  0  0  0
  146.4763  133.3604  153.5955 C   0  0  0  0  0  0  0  0  0  0  0  0
  145.6550  134.2023  152.6153 C   0  0  0  0  0  0  0  0  0  0  0  0
  145.4107  132.9413  151.7528 C   0  0  0  0  0  0  0  0  0  0  0  0
  143.9946  132.7466  151.1755 C   0  0  0  0  0  0  0  0  0  0  0  0
  143.6873  133.6868  150.1653 O   0  0  0  0  0  0  0  0  0  0  0  0
  146.4078  132.7312  150.5981 C   0  0  0  0  0  0  0  0  0  0  0  0
  146.4103  131.3914  150.1479 O   0  0  0  0  0  0  0  0  0  0  0  0
  145.7498  132.1369  153.0302 C   0  0  0  0  0  0  0  0  0  0  0  0
  147.0831  131.1973  160.5775 H   0  0  0  0  0  0  0  0  0  0  0  0
  147.5501  131.6442  158.9498 H   0  0  0  0  0  0  0  0  0  0  0  0
  145.9821  132.1437  159.5815 H   0  0  0  0  0  0  0  0  0  0  0  0
  148.7165  133.1213  160.5679 H   0  0  0  0  0  0  0  0  0  0  0  0
  145.9178  133.7135  161.6282 H   0  0  0  0  0  0  0  0  0  0  0  0
  147.1766  132.8502  162.4647 H   0  0  0  0  0  0  0  0  0  0  0  0
  147.0076  135.2274  163.2356 H   0  0  0  0  0  0  0  0  0  0  0  0
  148.5827  134.8398  162.6001 H   0  0  0  0  0  0  0  0  0  0  0  0
  148.0361  136.9618  161.6858 H   0  0  0  0  0  0  0  0  0  0  0  0
  144.1231  136.0608  160.6074 H   0  0  0  0  0  0  0  0  0  0  0  0
  145.3506  134.8125  160.5607 H   0  0  0  0  0  0  0  0  0  0  0  0
  147.9248  136.4800  159.2124 H   0  0  0  0  0  0  0  0  0  0  0  0
  149.1561  135.6029  160.0911 H   0  0  0  0  0  0  0  0  0  0  0  0
  150.7105  133.6943  156.5134 H   0  0  0  0  0  0  0  0  0  0  0  0
  144.3631  133.8449  155.4089 H   0  0  0  0  0  0  0  0  0  0  0  0
  147.5217  133.3462  153.2816 H   0  0  0  0  0  0  0  0  0  0  0  0
  144.7462  134.6069  153.0620 H   0  0  0  0  0  0  0  0  0  0  0  0
  146.2229  134.9926  152.1237 H   0  0  0  0  0  0  0  0  0  0  0  0
  143.8798  131.7524  150.7429 H   0  0  0  0  0  0  0  0  0  0  0  0
  143.2407  132.8383  151.9579 H   0  0  0  0  0  0  0  0  0  0  0  0
  142.7496  133.7982  150.1327 H   0  0  0  0  0  0  0  0  0  0  0  0
  146.1652  133.3674  149.7466 H   0  0  0  0  0  0  0  0  0  0  0  0
  147.4205  133.0005  150.9009 H   0  0  0  0  0  0  0  0  0  0  0  0
  147.3012  131.1400  149.9567 H   0  0  0  0  0  0  0  0  0  0  0  0
  146.3935  131.2721  152.8671 H   0  0  0  0  0  0  0  0  0  0  0  0
  144.8767  131.8559  153.6201 H   0  0  0  0  0  0  0  0  0  0  0  0
  1  2  1  0  0  0  0
  1 28  1  0  0  0  0
  1 29  1  0  0  0  0
  1 30  1  0  0  0  0
  2 10  1  0  0  0  0
  2  3  1  0  0  0  0
  2 31  1  0  0  0  0
  3  4  1  0  0  0  0
  3 32  1  0  0  0  0
  3 33  1  0  0  0  0
  4  5  1  0  0  0  0
  4 34  1  0  0  0  0
  4 35  1  0  0  0  0
  5  6  1  0  0  0  0
  5  9  1  0  0  0  0
  5 36  1  0  0  0  0
  6  7  1  0  0  0  0
  6  8  2  0  0  0  0
  7 37  1  0  0  0  0
  7 38  1  0  0  0  0
  9 10  1  0  0  0  0
  9 39  1  0  0  0  0
  9 40  1  0  0  0  0
 10 11  1  0  0  0  0
 11 16  1  0  0  0  0
 11 12  2  0  0  0  0
 12 13  1  0  0  0  0
 13 14  2  0  0  0  0
 13 41  1  0  0  0  0
 14 15  1  0  0  0  0
 15 19  1  0  0  0  0
 15 16  2  0  0  0  0
 16 17  1  0  0  0  0
 17 18  2  0  0  0  0
 18 19  1  0  0  0  0
 18 42  1  0  0  0  0
 19 20  1  0  0  0  0
 20 27  1  0  0  0  0
 20 21  1  0  0  0  0
 20 43  1  0  0  0  0
 21 22  1  0  0  0  0
 21 44  1  0  0  0  0
 21 45  1  0  0  0  0
 22 23  1  0  0  0  0
 22 25  1  0  0  0  0
 22 27  1  0  0  0  0
 23 24  1  0  0  0  0
 23 46  1  0  0  0  0
 23 47  1  0  0  0  0
 24 48  1  0  0  0  0
 25 26  1  0  0  0  0
 25 49  1  0  0  0  0
 25 50  1  0  0  0  0
 26 51  1  0  0  0  0
 27 52  1  0  0  0  0
 27 53  1  0  0  0  0
M  END
> <s_m_source_file>
AV-unprocessed.smi

> <i_m_source_file_index>
187

> <i_lp_mmshare_version>
43012

> <i_f3d_flags>
0

> <s_epik_input>
W0NIM11bQ0BASF0xW0NIMl1bQ0gyXVtDQEBIXShDKD1PKVtOSDJdKVtDSDJdTjFjKG5bY0hdbjIpYyhjMjMpbltjSF1uM1tDSF0oW0NIMl00KVtDSDJdQzQoW0NIMl1bT0hdKVtDSDJdW09IXQ==

> <s_epik_cmdline>
J2VwaWtfcHl0aG9uJywgJy1waCcsICc3LjAnLCAnLXRuJywgJzgnLCAnLW1hJywgJzIwMCcsICctbWV0YWxfYmluZGluZycsICctaW1hZScsICc8aW5maWxlLm1hZT4nLCAnLW9tYWUnLCAnPG91dGZpbGUubWFlPic=

> <r_lp_tautomer_probability>
1

> <r_epik_Ionization_Penalty>
0.0017711

> <r_epik_Ionization_Penalty_Charging>
0

> <r_epik_Ionization_Penalty_Neutral>
0.0017711

> <r_epik_State_Penalty>
0.00107211

> <r_epik_Charging_Adjusted_Penalty>
0.00107211

> <i_epik_Tot_Q>
0

> <i_epik_Tot_abs_Q>
0

> <r_epik_Metal_State_Penalty>
-0

> <b_epik_Metal_Only>
0

> <s_lp_Force_Field>
OPLS_2005

> <r_lp_Energy>
40.7321

> <b_lp_Chiralities_Consistent>
1

> <s_lp_Variant>
AV-unprocessed.smi:187-3

> <Gold.Version>
5.8.1

> <Gold.Id.Protein>
6NUR|6NUR_protein|mol2

> <Gold.PLP.Fitness>
45.9836

> <Gold.PLP.PLP>
-33.2356

> <Gold.PLP.part.hbond>
-4.0000

> <Gold.PLP.part.metal>
0.0000

> <Gold.PLP.part.buried>
-6.3271

> <Gold.PLP.part.nonpolar>
-23.4399

> <Gold.PLP.part.repulsive>
0.0531

> <Gold.PLP.ligand.clash>
0.0000

> <Gold.PLP.ligand.torsion>
0.4693

> <Gold.PLP.Chemscore.Hbond>
3.8480

> <Gold.PLP.Chemscore.CHOScore>
0.5065

> <Gold.PLP.Chemscore.Metal>
0.0000

> <Gold.Chemscore.Hbonds>
donor molecule, donor type, donor heavy atom, donor atom, acceptor molecule, acceptor atom, score
      L1  H    24    48       P1 10186  1.00
      L1  H    26    51       P1 10747  1.00
      P1  H  6896  6909       L1    12  1.00
      P1  H  6934  6947       L1     8  0.88
      L1  C    18    42       P1 10957  0.46

> <Gold.PLP.Chemscore.Internal.Correction>
0.6230

> <Gold.Rescore>
     Score         DG    S(hbond)    S(metal)    S(lipo)     H(rot)  DE(clash)    DE(int)     intcor
     14.36     -15.93       3.75        0.00      69.65       3.99       0.01       1.56       ----

> <Gold.Chemscore.Fitness>
14.3593

> <Gold.Chemscore.DG>
-15.9310

> <Gold.Chemscore.ZeroCoef>
-5.4800

> <Gold.Chemscore.Hbond>
3.7477

> <Gold.Chemscore.Metal>
0.0000

> <Gold.Chemscore.Lipo>
69.6458

> <Gold.Chemscore.Internal_Hbond>
0.0000

> <Gold.Chemscore.DEClash>
0.0135

> <Gold.Chemscore.DEInternal>
1.5582

> <Gold.Chemscore.Rot>
3.9902

> <Gold.Chemscore.Internal.Correction>
   9.000000E+99

> <Gold.Chemscore.Hbonds>
donor molecule, donor type, donor heavy atom, donor atom, acceptor molecule, acceptor atom, score
      L1  H    24    48       P1 10186  0.99
      L1  H    26    51       P1 10747  0.99
      P1  H  6896  6909       L1    12  0.89
      P1  H  6934  6947       L1     8  0.74

> <Gold.Chemscore.Hbond.Weighted>
-12.5173

> <Gold.Chemscore.Metal.Weighted>
-0.0000

> <Gold.Chemscore.Lipo.Weighted>
-8.1486

> <Gold.Chemscore.Internal_Hbond.Weighted>
0.0000

> <Gold.Chemscore.DEClash.Weighted>
0.0135

> <Gold.Chemscore.DEInternal.Weighted>
1.5582

> <Gold.Chemscore.Rot.Weighted>
10.2148

> <Gold.Chemscore.Internal.Correction.Weighted>
   9.000000E+99

> <Gold.Protein.RotatedTorsions>
[ 6907 6896 6895 6894 ] final   27.51 input  -60.11 | X-H torsion
[ 7974 7965 7964 7962 ] final -160.27 input  175.53 | X-H torsion
[ 8008 7997 7996 7995 ] final -144.39 input   59.86 | X-H torsion
[ 10167 10162 10161 10158 ] final -139.55 input  -65.29 | X-H torsion
[ 10718 10713 10712 10709 ] final -173.94 input   66.30 | X-H torsion
[ 10763 10752 10751 10750 ] final -173.33 input  -60.55 | X-H torsion
[ 11005 11000 10999 10996 ] final -128.80 input  -57.11 | X-H torsion

> <Gold.Protein.ActiveResidues>
 VAL166  LYS551  ARG553  GLY616  TRP617  ASP618  TYR619  PRO620  LYS621  CYS622 
 ASP623  PHE694  ASN695  SER759  ASP760  ASP761  ALA762  ILE779  LEU786  VAL792 
 PHE793  MET794  SER795  GLU796  ALA797  LYS798  CYS799  TRP800  GLU811  SER814 

> <Gold.Protein.RotatedAtoms>
  152.0034  134.9916  160.0565 H   0  0  0  0  0  0  0  0  0  0  0  0  # atno 6907 bound_to 6896
  152.1498  133.4510  159.4816 H   0  0  0  0  0  0  0  0  0  0  0  0  # atno 6908 bound_to 6896
  150.6874  134.2121  159.4406 H   0  0  0  0  0  0  0  0  0  0  0  0  # atno 6909 bound_to 6896
  144.7433  140.3566  143.6105 H   0  0  0  0  0  0  0  0  0  0  0  0  # atno 7974 bound_to 7965
  155.5262  140.0595  157.2897 H   0  0  0  0  0  0  0  0  0  0  0  0  # atno 8008 bound_to 7997
  154.4500  140.1944  156.0493 H   0  0  0  0  0  0  0  0  0  0  0  0  # atno 8009 bound_to 7997
  156.0684  140.3263  155.7550 H   0  0  0  0  0  0  0  0  0  0  0  0  # atno 8010 bound_to 7997
  139.8368  143.7374  152.2664 H   0  0  0  0  0  0  0  0  0  0  0  0  # atno 10167 bound_to 10162
  156.7777  130.9472  151.3120 H   0  0  0  0  0  0  0  0  0  0  0  0  # atno 10718 bound_to 10713
  154.6091  135.2862  155.0452 H   0  0  0  0  0  0  0  0  0  0  0  0  # atno 10763 bound_to 10752
  154.1688  135.6476  153.5008 H   0  0  0  0  0  0  0  0  0  0  0  0  # atno 10764 bound_to 10752
  153.0187  135.5396  154.6838 H   0  0  0  0  0  0  0  0  0  0  0  0  # atno 10765 bound_to 10752
  140.9486  134.1096  157.4084 H   0  0  0  0  0  0  0  0  0  0  0  0  # atno 11005 bound_to 11000
  145.7221  139.1712  143.2479 LP  0  0  0  0  0  0  0  0  0  0  0  0  # atno 17320 bound_to 7965
  146.1270  140.7236  142.9430 LP  0  0  0  0  0  0  0  0  0  0  0  0  # atno 17321 bound_to 7965
  139.7599  144.7509  151.0380 LP  0  0  0  0  0  0  0  0  0  0  0  0  # atno 17342 bound_to 10162
  140.7802  143.4763  151.0078 LP  0  0  0  0  0  0  0  0  0  0  0  0  # atno 17343 bound_to 10162
  157.6661  130.9009  149.9935 LP  0  0  0  0  0  0  0  0  0  0  0  0  # atno 17370 bound_to 10713
  156.1237  130.3645  149.9844 LP  0  0  0  0  0  0  0  0  0  0  0  0  # atno 17371 bound_to 10713
  139.8840  135.0059  156.6343 LP  0  0  0  0  0  0  0  0  0  0  0  0  # atno 17394 bound_to 11000
  140.7634  133.8798  155.8436 LP  0  0  0  0  0  0  0  0  0  0  0  0  # atno 17395 bound_to 11000

$$$$
