AV-unprocessed.smi:1645|AV-procd|sdf|6622|dock4
  -GOLD-   22720 7323D 1   1.00000     0.00000
 Structure written by MMmdl.
 55 58  0  0  0  0  0  0  0  0  4 V2000
  147.0894  140.3340  153.7323 O   0  0  0  0  0  0  0  0  0  0  0  0
  147.5154  139.1956  153.9549 C   0  0  0  0  0  0  0  0  0  0  0  0
  148.4885  138.9965  154.8614 N   0  0  0  0  0  0  0  0  0  0  0  0
  149.2224  139.9503  155.6172 C   0  0  0  0  0  0  0  0  0  0  0  0
  150.0191  139.4720  156.6792 C   0  0  0  0  0  0  0  0  0  0  0  0
  150.7866  140.3765  157.4409 C   0  0  0  0  0  0  0  0  0  0  0  0
  150.7543  141.7526  157.1188 C   0  0  0  0  0  0  0  0  0  0  0  0
  151.4875  142.7241  157.8125 N   0  0  0  0  0  0  0  0  0  0  0  0
  150.6660  143.8462  158.2590 C   0  0  0  0  0  0  0  0  0  0  0  0
  151.5420  144.9661  158.8471 C   0  0  0  0  0  0  0  0  0  0  0  0
  152.4497  144.4239  159.9630 C   0  0  0  0  0  0  0  0  0  0  0  0
  153.2680  143.2282  159.4493 C   0  0  0  0  0  0  0  0  0  0  0  0
  152.3494  142.1525  158.8440 C   0  0  0  0  0  0  0  0  0  0  0  0
  149.9908  142.1710  156.0863 N   0  3  0  0  0  0  0  0  0  0  0  0
  149.2396  141.3379  155.3339 C   0  0  0  0  0  0  0  0  0  0  0  0
  147.1039  138.0313  153.3839 N   0  5  0  0  0  0  0  0  0  0  0  0
  146.1319  137.1016  153.9775 C   0  0  2  0  0  0  0  0  0  0  0  0
  146.8046  136.3371  155.1337 C   0  0  0  0  0  0  0  0  0  0  0  0
  147.3839  135.0475  154.5147 C   0  0  0  0  0  0  0  0  0  0  0  0
  146.9702  135.0626  153.0972 N   0  3  1  0  0  0  0  0  0  0  0  0
  146.7571  133.7521  152.4432 C   0  0  0  0  0  0  0  0  0  0  0  0
  146.3939  133.9672  150.9598 C   0  0  0  0  0  0  0  0  0  0  0  0
  145.1952  134.9235  150.7960 C   0  0  0  0  0  0  0  0  0  0  0  0
  145.4410  136.2492  151.5409 C   0  0  0  0  0  0  0  0  0  0  0  0
  145.7968  135.9480  153.0141 C   0  0  2  0  0  0  0  0  0  0  0  0
  148.7017  138.0296  155.0577 H   0  0  0  0  0  0  0  0  0  0  0  0
  150.0411  138.4175  156.9131 H   0  0  0  0  0  0  0  0  0  0  0  0
  151.3928  140.0130  158.2574 H   0  0  0  0  0  0  0  0  0  0  0  0
  150.0844  144.2322  157.4206 H   0  0  0  0  0  0  0  0  0  0  0  0
  149.9545  143.5021  159.0110 H   0  0  0  0  0  0  0  0  0  0  0  0
  152.1550  145.4035  158.0578 H   0  0  0  0  0  0  0  0  0  0  0  0
  150.9132  145.7694  159.2317 H   0  0  0  0  0  0  0  0  0  0  0  0
  153.1145  145.2091  160.3242 H   0  0  0  0  0  0  0  0  0  0  0  0
  151.8408  144.1140  160.8133 H   0  0  0  0  0  0  0  0  0  0  0  0
  153.9783  143.5688  158.6946 H   0  0  0  0  0  0  0  0  0  0  0  0
  153.8589  142.8020  160.2605 H   0  0  0  0  0  0  0  0  0  0  0  0
  151.7347  141.7081  159.6281 H   0  0  0  0  0  0  0  0  0  0  0  0
  152.9516  141.3498  158.4165 H   0  0  0  0  0  0  0  0  0  0  0  0
  148.6988  141.8147  154.5303 H   0  0  0  0  0  0  0  0  0  0  0  0
  145.2248  137.6000  154.3219 H   0  0  0  0  0  0  0  0  0  0  0  0
  147.5636  136.9264  155.6506 H   0  0  0  0  0  0  0  0  0  0  0  0
  146.0522  136.0705  155.8769 H   0  0  0  0  0  0  0  0  0  0  0  0
  148.4719  135.0117  154.5825 H   0  0  0  0  0  0  0  0  0  0  0  0
  146.9857  134.1699  155.0271 H   0  0  0  0  0  0  0  0  0  0  0  0
  147.6633  133.1511  152.5259 H   0  0  0  0  0  0  0  0  0  0  0  0
  145.9608  133.2091  152.9546 H   0  0  0  0  0  0  0  0  0  0  0  0
  147.2558  134.3795  150.4333 H   0  0  0  0  0  0  0  0  0  0  0  0
  146.1740  133.0095  150.4874 H   0  0  0  0  0  0  0  0  0  0  0  0
  145.0102  135.1165  149.7390 H   0  0  0  0  0  0  0  0  0  0  0  0
  144.2945  134.4482  151.1867 H   0  0  0  0  0  0  0  0  0  0  0  0
  146.2482  136.7885  151.0417 H   0  0  0  0  0  0  0  0  0  0  0  0
  144.5539  136.8813  151.4766 H   0  0  0  0  0  0  0  0  0  0  0  0
  144.9516  135.4107  153.4502 H   0  0  0  0  0  0  0  0  0  0  0  0
  147.7043  135.5424  152.5956 H   0  0  0  0  0  0  0  0  0  0  0  0
  149.9830  143.1657  155.8596 H   0  0  0  0  0  0  0  0  0  0  0  0
  1  2  2  0  0  0  0
  2  3  1  0  0  0  0
  2 16  1  0  0  0  0
  3  4  1  0  0  0  0
  3 26  1  0  0  0  0
  4 15  1  0  0  0  0
  4  5  2  0  0  0  0
  5  6  1  0  0  0  0
  5 27  1  0  0  0  0
  6  7  2  0  0  0  0
  6 28  1  0  0  0  0
  7  8  1  0  0  0  0
  7 14  1  0  0  0  0
  8 13  1  0  0  0  0
  8  9  1  0  0  0  0
  9 10  1  0  0  0  0
  9 29  1  0  0  0  0
  9 30  1  0  0  0  0
 10 11  1  0  0  0  0
 10 31  1  0  0  0  0
 10 32  1  0  0  0  0
 11 12  1  0  0  0  0
 11 33  1  0  0  0  0
 11 34  1  0  0  0  0
 12 13  1  0  0  0  0
 12 35  1  0  0  0  0
 12 36  1  0  0  0  0
 13 37  1  0  0  0  0
 13 38  1  0  0  0  0
 14 15  2  0  0  0  0
 14 55  1  0  0  0  0
 15 39  1  0  0  0  0
 16 17  1  0  0  0  0
 17 25  1  0  0  0  0
 17 18  1  0  0  0  0
 17 40  1  0  0  0  0
 18 19  1  0  0  0  0
 18 41  1  0  0  0  0
 18 42  1  0  0  0  0
 19 20  1  0  0  0  0
 19 43  1  0  0  0  0
 19 44  1  0  0  0  0
 20 25  1  0  0  0  0
 20 21  1  0  0  0  0
 20 54  1  0  0  0  0
 21 22  1  0  0  0  0
 21 45  1  0  0  0  0
 21 46  1  0  0  0  0
 22 23  1  0  0  0  0
 22 47  1  0  0  0  0
 22 48  1  0  0  0  0
 23 24  1  0  0  0  0
 23 49  1  0  0  0  0
 23 50  1  0  0  0  0
 24 25  1  0  0  0  0
 24 51  1  0  0  0  0
 24 52  1  0  0  0  0
 25 53  1  0  0  0  0
M  CHG  1  14   1
M  CHG  1  16  -1
M  CHG  1  20   1
M  END
> <s_m_source_file>
AV-unprocessed.smi

> <i_m_source_file_index>
1645

> <i_lp_mmshare_version>
43012

> <i_f3d_flags>
0

> <s_epik_input>
W0NIMl0xW0NIMl1bQ0gyXVtDSDJdW0NASF0oTjEyKVtDQEBIXShbQ0gyXVtDSDJdMilbTkhdQyg9TylbTkhdYzNbY0hdW2NIXWMobltjSF0zKU40W0NIMl1bQ0gyXVtDSDJdW0NIMl1bQ0gyXTQ=

> <s_epik_cmdline>
J2VwaWtfcHl0aG9uJywgJy1waCcsICc3LjAnLCAnLXRuJywgJzgnLCAnLW1hJywgJzIwMCcsICctbWV0YWxfYmluZGluZycsICctaW1hZScsICc8aW5maWxlLm1hZT4nLCAnLW9tYWUnLCAnPG91dGZpbGUubWFlPic=

> <r_lp_tautomer_probability>
0.999994

> <r_epik_Ionization_Penalty>
8.55589

> <r_epik_Ionization_Penalty_Charging>
8.55589

> <r_epik_Ionization_Penalty_Neutral>
3.8092e-06

> <r_epik_State_Penalty>
8.15703

> <r_epik_Charging_Adjusted_Penalty>
16.7129

> <i_epik_Tot_Q>
1

> <i_epik_Tot_abs_Q>
3

> <r_epik_Metal_State_Penalty>
4.13781

> <b_epik_Metal_Only>
1

> <s_lp_Force_Field>
OPLS_2005

> <r_lp_Energy>
55.4093

> <b_lp_Chiralities_Consistent>
1

> <s_lp_Variant>
AV-unprocessed.smi:1645-23

> <Gold.Version>
5.8.1

> <Gold.Id.Protein>
6NUR|6NUR_protein|mol2

> <Gold.PLP.Fitness>
48.0943

> <Gold.PLP.PLP>
-37.8522

> <Gold.PLP.part.hbond>
-2.0000

> <Gold.PLP.part.metal>
0.0000

> <Gold.PLP.part.buried>
-6.6438

> <Gold.PLP.part.nonpolar>
-30.5121

> <Gold.PLP.part.repulsive>
1.0911

> <Gold.PLP.ligand.clash>
0.0000

> <Gold.PLP.ligand.torsion>
0.9538

> <Gold.PLP.Chemscore.Hbond>
3.9840

> <Gold.PLP.Chemscore.CHOScore>
0.0000

> <Gold.PLP.Chemscore.Metal>
0.0000

> <Gold.Chemscore.Hbonds>
donor molecule, donor type, donor heavy atom, donor atom, acceptor molecule, acceptor atom, score
      L1  H    14    55       P1  8028  1.82
      L1  H    20    54       P1  7948  2.00

> <Gold.PLP.Chemscore.Internal.Correction>
0.1977

> <Gold.Rescore>
     Score         DG    S(hbond)    S(metal)    S(lipo)     H(rot)  DE(clash)    DE(int)     intcor
     19.31     -21.57       1.99        0.00     106.51       1.17       0.04       2.22       ----

> <Gold.Chemscore.Fitness>
19.3142

> <Gold.Chemscore.DG>
-21.5738

> <Gold.Chemscore.ZeroCoef>
-5.4800

> <Gold.Chemscore.Hbond>
1.9867

> <Gold.Chemscore.Metal>
0.0000

> <Gold.Chemscore.Lipo>
106.5079

> <Gold.Chemscore.Internal_Hbond>
0.0000

> <Gold.Chemscore.DEClash>
0.0386

> <Gold.Chemscore.DEInternal>
2.2210

> <Gold.Chemscore.Rot>
1.1731

> <Gold.Chemscore.Internal.Correction>
   9.000000E+99

> <Gold.Chemscore.Hbonds>
donor molecule, donor type, donor heavy atom, donor atom, acceptor molecule, acceptor atom, score
      L1  H    14    55       P1  8028  0.89
      L1  H    20    54       P1  7948  0.98

> <Gold.Chemscore.Hbond.Weighted>
-6.6356

> <Gold.Chemscore.Metal.Weighted>
-0.0000

> <Gold.Chemscore.Lipo.Weighted>
-12.4614

> <Gold.Chemscore.Internal_Hbond.Weighted>
0.0000

> <Gold.Chemscore.DEClash.Weighted>
0.0386

> <Gold.Chemscore.DEInternal.Weighted>
2.2210

> <Gold.Chemscore.Rot.Weighted>
3.0032

> <Gold.Chemscore.Internal.Correction.Weighted>
   9.000000E+99

> <Gold.Protein.RotatedTorsions>
[ 6907 6896 6895 6894 ] final  128.34 input  -60.11 | X-H torsion
[ 7974 7965 7964 7962 ] final   91.78 input  175.53 | X-H torsion
[ 8008 7997 7996 7995 ] final  -68.01 input   59.86 | X-H torsion
[ 10167 10162 10161 10158 ] final -175.31 input  -65.29 | X-H torsion
[ 10718 10713 10712 10709 ] final -161.12 input   66.30 | X-H torsion
[ 10763 10752 10751 10750 ] final  -50.66 input  -60.55 | X-H torsion
[ 11005 11000 10999 10996 ] final -157.36 input  -57.11 | X-H torsion

> <Gold.Protein.ActiveResidues>
 VAL166  LYS551  ARG553  GLY616  TRP617  ASP618  TYR619  PRO620  LYS621  CYS622 
 ASP623  PHE694  ASN695  SER759  ASP760  ASP761  ALA762  ILE779  LEU786  VAL792 
 PHE793  MET794  SER795  GLU796  ALA797  LYS798  CYS799  TRP800  GLU811  SER814 

> <Gold.Protein.RotatedAtoms>
  152.3728  133.6441  159.6100 H   0  0  0  0  0  0  0  0  0  0  0  0  # atno 6907 bound_to 6896
  150.7681  133.9242  159.3416 H   0  0  0  0  0  0  0  0  0  0  0  0  # atno 6908 bound_to 6896
  151.7062  135.0922  160.0311 H   0  0  0  0  0  0  0  0  0  0  0  0  # atno 6909 bound_to 6896
  145.5010  139.2276  143.2777 H   0  0  0  0  0  0  0  0  0  0  0  0  # atno 7974 bound_to 7965
  154.4838  140.0881  156.7440 H   0  0  0  0  0  0  0  0  0  0  0  0  # atno 8008 bound_to 7997
  155.4402  140.3453  155.4271 H   0  0  0  0  0  0  0  0  0  0  0  0  # atno 8009 bound_to 7997
  156.1231  140.1480  156.9163 H   0  0  0  0  0  0  0  0  0  0  0  0  # atno 8010 bound_to 7997
  139.5588  144.1923  152.1204 H   0  0  0  0  0  0  0  0  0  0  0  0  # atno 10167 bound_to 10162
  156.5918  130.8773  151.2892 H   0  0  0  0  0  0  0  0  0  0  0  0  # atno 10718 bound_to 10713
  154.1139  135.6545  153.4890 H   0  0  0  0  0  0  0  0  0  0  0  0  # atno 10763 bound_to 10752
  153.0247  135.5254  154.7164 H   0  0  0  0  0  0  0  0  0  0  0  0  # atno 10764 bound_to 10752
  154.6352  135.2981  155.0139 H   0  0  0  0  0  0  0  0  0  0  0  0  # atno 10765 bound_to 10752
  140.6655  134.4303  157.5233 H   0  0  0  0  0  0  0  0  0  0  0  0  # atno 11005 bound_to 11000
  146.2226  140.5811  142.9010 LP  0  0  0  0  0  0  0  0  0  0  0  0  # atno 17320 bound_to 7965
  144.7780  140.5780  143.6625 LP  0  0  0  0  0  0  0  0  0  0  0  0  # atno 17321 bound_to 7965
  140.1432  144.5183  150.6731 LP  0  0  0  0  0  0  0  0  0  0  0  0  # atno 17342 bound_to 10162
  140.6864  143.2352  151.5248 LP  0  0  0  0  0  0  0  0  0  0  0  0  # atno 17343 bound_to 10162
  157.7302  130.9681  150.1821 LP  0  0  0  0  0  0  0  0  0  0  0  0  # atno 17370 bound_to 10713
  156.2543  130.3704  149.8198 LP  0  0  0  0  0  0  0  0  0  0  0  0  # atno 17371 bound_to 10713
  139.8999  134.8581  156.1942 LP  0  0  0  0  0  0  0  0  0  0  0  0  # atno 17394 bound_to 11000
  141.0432  133.6927  156.1636 LP  0  0  0  0  0  0  0  0  0  0  0  0  # atno 17395 bound_to 11000

$$$$
