AV-unprocessed.smi:2078|AV-procd|sdf|8468|dock1
  -GOLD-   2272011163D 1   1.00000     0.00000
 Structure written by MMmdl.
 41 42  0  0  0  0  0  0  0  0  3 V2000
  152.7121  138.0233  159.2875 C   0  0  0  0  0  0  0  0  0  0  0  0
  152.0010  137.1762  158.2885 C   0  0  0  0  0  0  0  0  0  0  0  0
  152.2528  136.8775  156.9796 C   0  0  0  0  0  0  0  0  0  0  0  0
  151.1817  136.0098  156.6323 C   0  0  0  0  0  0  0  0  0  0  0  0
  150.9781  135.4521  155.4286 N   0  5  0  0  0  0  0  0  0  0  0  0
  150.0929  134.4393  155.2876 C   0  0  0  0  0  0  0  0  0  0  0  0
  150.0612  133.3953  155.9430 O   0  0  0  0  0  0  0  0  0  0  0  0
  149.1873  134.6474  154.3229 N   0  0  0  0  0  0  0  0  0  0  0  0
  148.1277  133.7194  153.9532 C   0  0  0  0  0  0  0  0  0  0  0  0
  148.6930  132.5848  153.0848 C   0  0  0  0  0  0  0  0  0  0  0  0
  147.6418  131.9056  152.2868 N   0  3  2  0  0  0  0  0  0  0  0  0
  146.8385  132.8650  151.4855 C   0  0  0  0  0  0  0  0  0  0  0  0
  145.8621  132.1307  150.5531 C   0  0  0  0  0  0  0  0  0  0  0  0
  144.9536  131.1807  151.3454 C   0  0  0  0  0  0  0  0  0  0  0  0
  145.7793  130.2217  152.2228 C   0  0  1  0  0  0  0  0  0  0  0  0
  146.4719  129.1150  151.4083 C   0  0  0  0  0  0  0  0  0  0  0  0
  146.7743  131.0101  153.1001 C   0  0  0  0  0  0  0  0  0  0  0  0
  150.3448  135.8124  157.6371 N   0  0  0  0  0  0  0  0  0  0  0  0
  150.8669  136.5518  158.7053 O   0  0  0  0  0  0  0  0  0  0  0  0
  152.9551  138.9973  158.8630 H   0  0  0  0  0  0  0  0  0  0  0  0
  153.6418  137.5489  159.6016 H   0  0  0  0  0  0  0  0  0  0  0  0
  152.0985  138.1855  160.1739 H   0  0  0  0  0  0  0  0  0  0  0  0
  153.0732  137.2218  156.3682 H   0  0  0  0  0  0  0  0  0  0  0  0
  149.2444  135.5157  153.8108 H   0  0  0  0  0  0  0  0  0  0  0  0
  147.6719  133.3053  154.8544 H   0  0  0  0  0  0  0  0  0  0  0  0
  147.3540  134.2764  153.4248 H   0  0  0  0  0  0  0  0  0  0  0  0
  149.4796  132.9536  152.4248 H   0  0  0  0  0  0  0  0  0  0  0  0
  149.1636  131.8589  153.7497 H   0  0  0  0  0  0  0  0  0  0  0  0
  146.2928  133.5324  152.1545 H   0  0  0  0  0  0  0  0  0  0  0  0
  147.4999  133.4902  150.8844 H   0  0  0  0  0  0  0  0  0  0  0  0
  145.2545  132.8541  150.0084 H   0  0  0  0  0  0  0  0  0  0  0  0
  146.4198  131.5731  149.7999 H   0  0  0  0  0  0  0  0  0  0  0  0
  144.2923  131.7704  151.9819 H   0  0  0  0  0  0  0  0  0  0  0  0
  144.3063  130.6217  150.6688 H   0  0  0  0  0  0  0  0  0  0  0  0
  145.0828  129.7168  152.8933 H   0  0  0  0  0  0  0  0  0  0  0  0
  147.2157  129.5178  150.7206 H   0  0  0  0  0  0  0  0  0  0  0  0
  145.7477  128.5503  150.8203 H   0  0  0  0  0  0  0  0  0  0  0  0
  146.9811  128.4084  152.0644 H   0  0  0  0  0  0  0  0  0  0  0  0
  147.3771  130.3089  153.6762 H   0  0  0  0  0  0  0  0  0  0  0  0
  146.2259  131.6126  153.8261 H   0  0  0  0  0  0  0  0  0  0  0  0
  148.1267  131.3207  151.6210 H   0  0  0  0  0  0  0  0  0  0  0  0
  1  2  1  0  0  0  0
  1 20  1  0  0  0  0
  1 21  1  0  0  0  0
  1 22  1  0  0  0  0
  2 19  1  0  0  0  0
  2  3  2  0  0  0  0
  3  4  1  0  0  0  0
  3 23  1  0  0  0  0
  4  5  1  0  0  0  0
  4 18  2  0  0  0  0
  5  6  1  0  0  0  0
  6  7  2  0  0  0  0
  6  8  1  0  0  0  0
  8  9  1  0  0  0  0
  8 24  1  0  0  0  0
  9 10  1  0  0  0  0
  9 25  1  0  0  0  0
  9 26  1  0  0  0  0
 10 11  1  0  0  0  0
 10 27  1  0  0  0  0
 10 28  1  0  0  0  0
 11 17  1  0  0  0  0
 11 12  1  0  0  0  0
 11 41  1  0  0  0  0
 12 13  1  0  0  0  0
 12 29  1  0  0  0  0
 12 30  1  0  0  0  0
 13 14  1  0  0  0  0
 13 31  1  0  0  0  0
 13 32  1  0  0  0  0
 14 15  1  0  0  0  0
 14 33  1  0  0  0  0
 14 34  1  0  0  0  0
 15 16  1  0  0  0  0
 15 17  1  0  0  0  0
 15 35  1  0  0  0  0
 16 36  1  0  0  0  0
 16 37  1  0  0  0  0
 16 38  1  0  0  0  0
 17 39  1  0  0  0  0
 17 40  1  0  0  0  0
 18 19  1  0  0  0  0
M  CHG  1   5  -1
M  CHG  1  11   1
M  END
> <s_m_source_file>
AV-unprocessed.smi

> <i_m_source_file_index>
2078

> <i_lp_mmshare_version>
43012

> <i_f3d_flags>
0

> <s_epik_input>
W0NIM11jMVtjSF1jKG5vMSlbTkhdQyg9TylbTkhdW0NIMl1bQ0gyXU4yW0NIMl1bQ0gyXVtDSDJdW0NAQEhdKFtDSDNdKVtDSDJdMg==

> <s_epik_cmdline>
J2VwaWtfcHl0aG9uJywgJy1waCcsICc3LjAnLCAnLXRuJywgJzgnLCAnLW1hJywgJzIwMCcsICctbWV0YWxfYmluZGluZycsICctaW1hZScsICc8aW5maWxlLm1hZT4nLCAnLW9tYWUnLCAnPG91dGZpbGUubWFlPic=

> <r_epik_Ionization_Penalty>
6.22434

> <r_epik_Ionization_Penalty_Charging>
6.22425

> <r_epik_Ionization_Penalty_Neutral>
9.37855e-05

> <r_epik_State_Penalty>
6.22423

> <r_epik_Charging_Adjusted_Penalty>
12.4485

> <i_epik_Tot_Q>
0

> <i_epik_Tot_abs_Q>
2

> <r_epik_Metal_State_Penalty>
2.16764

> <b_epik_Metal_Only>
1

> <s_lp_Force_Field>
OPLS_2005

> <r_lp_Energy>
8.87897

> <b_lp_Chiralities_Consistent>
1

> <s_lp_Variant>
AV-unprocessed.smi:2078-6

> <Gold.Version>
5.8.1

> <Gold.Id.Protein>
6NUR|6NUR_protein|mol2

> <Gold.PLP.Fitness>
43.7001

> <Gold.PLP.PLP>
-31.7577

> <Gold.PLP.part.hbond>
-4.9195

> <Gold.PLP.part.metal>
0.0000

> <Gold.PLP.part.buried>
-4.6970

> <Gold.PLP.part.nonpolar>
-22.6854

> <Gold.PLP.part.repulsive>
0.1195

> <Gold.PLP.ligand.clash>
0.0000

> <Gold.PLP.ligand.torsion>
0.8048

> <Gold.PLP.Chemscore.Hbond>
4.4616

> <Gold.PLP.Chemscore.CHOScore>
0.0000

> <Gold.PLP.Chemscore.Metal>
0.0000

> <Gold.Chemscore.Hbonds>
donor molecule, donor type, donor heavy atom, donor atom, acceptor molecule, acceptor atom, score
      L1  H     8    24       P1  7948  0.70
      L1  H    11    41       P1 10747  1.00
      P1  H  6896  6907       L1    19  0.78
      P1  H 10752 10764       L1     5  1.62

> <Gold.PLP.Chemscore.Internal.Correction>
0.1671

> <Gold.Rescore>
     Score         DG    S(hbond)    S(metal)    S(lipo)     H(rot)  DE(clash)    DE(int)     intcor
     14.62     -16.68       1.87        0.00      76.04       1.54       0.09       1.97       ----

> <Gold.Chemscore.Fitness>
14.6158

> <Gold.Chemscore.DG>
-16.6814

> <Gold.Chemscore.ZeroCoef>
-5.4800

> <Gold.Chemscore.Hbond>
1.8711

> <Gold.Chemscore.Metal>
0.0000

> <Gold.Chemscore.Lipo>
76.0399

> <Gold.Chemscore.Internal_Hbond>
0.0000

> <Gold.Chemscore.DEClash>
0.0932

> <Gold.Chemscore.DEInternal>
1.9725

> <Gold.Chemscore.Rot>
1.5409

> <Gold.Chemscore.Internal.Correction>
   9.000000E+99

> <Gold.Chemscore.Hbonds>
donor molecule, donor type, donor heavy atom, donor atom, acceptor molecule, acceptor atom, score
      L1  H     8    24       P1  7948  0.37
      L1  H    11    41       P1 10747  0.99
      P1  H  6896  6907       L1    19  0.14
      P1  H 10752 10764       L1     5  0.20

> <Gold.Chemscore.Hbond.Weighted>
-6.2494

> <Gold.Chemscore.Metal.Weighted>
-0.0000

> <Gold.Chemscore.Lipo.Weighted>
-8.8967

> <Gold.Chemscore.Internal_Hbond.Weighted>
0.0000

> <Gold.Chemscore.DEClash.Weighted>
0.0932

> <Gold.Chemscore.DEInternal.Weighted>
1.9725

> <Gold.Chemscore.Rot.Weighted>
3.9446

> <Gold.Chemscore.Internal.Correction.Weighted>
   9.000000E+99

> <Gold.Protein.RotatedTorsions>
[ 6907 6896 6895 6894 ] final   -9.71 input  -60.11 | X-H torsion
[ 7974 7965 7964 7962 ] final  -14.52 input  175.53 | X-H torsion
[ 8008 7997 7996 7995 ] final  -42.33 input   59.86 | X-H torsion
[ 10167 10162 10161 10158 ] final  133.04 input  -65.29 | X-H torsion
[ 10718 10713 10712 10709 ] final   71.49 input   66.30 | X-H torsion
[ 10763 10752 10751 10750 ] final  -55.56 input  -60.55 | X-H torsion
[ 11005 11000 10999 10996 ] final  -62.17 input  -57.11 | X-H torsion

> <Gold.Protein.ActiveResidues>
 VAL166  LYS551  ARG553  GLY616  TRP617  ASP618  TYR619  PRO620  LYS621  CYS622 
 ASP623  PHE694  ASN695  SER759  ASP760  ASP761  ALA762  ILE779  LEU786  VAL792 
 PHE793  MET794  SER795  GLU796  ALA797  LYS798  CYS799  TRP800  GLU811  SER814 

> <Gold.Protein.RotatedAtoms>
  151.4135  135.0988  159.9592 H   0  0  0  0  0  0  0  0  0  0  0  0  # atno 6907 bound_to 6896
  152.5012  133.8774  159.7340 H   0  0  0  0  0  0  0  0  0  0  0  0  # atno 6908 bound_to 6896
  150.9275  133.6749  159.2846 H   0  0  0  0  0  0  0  0  0  0  0  0  # atno 6909 bound_to 6896
  146.2071  140.3360  142.8403 H   0  0  0  0  0  0  0  0  0  0  0  0  # atno 7974 bound_to 7965
  154.3999  140.1476  156.3338 H   0  0  0  0  0  0  0  0  0  0  0  0  # atno 8008 bound_to 7997
  155.8419  140.3461  155.5616 H   0  0  0  0  0  0  0  0  0  0  0  0  # atno 8009 bound_to 7997
  155.8077  140.0879  157.1912 H   0  0  0  0  0  0  0  0  0  0  0  0  # atno 8010 bound_to 7997
  139.5314  144.6634  151.4939 H   0  0  0  0  0  0  0  0  0  0  0  0  # atno 10167 bound_to 10162
  157.6454  130.9531  150.0797 H   0  0  0  0  0  0  0  0  0  0  0  0  # atno 10718 bound_to 10713
  154.1927  135.6424  153.5064 H   0  0  0  0  0  0  0  0  0  0  0  0  # atno 10763 bound_to 10752
  153.0031  135.5432  154.6398 H   0  0  0  0  0  0  0  0  0  0  0  0  # atno 10764 bound_to 10752
  154.5791  135.2923  155.0724 H   0  0  0  0  0  0  0  0  0  0  0  0  # atno 10765 bound_to 10752
  141.1350  133.6637  156.5487 H   0  0  0  0  0  0  0  0  0  0  0  0  # atno 11005 bound_to 11000
  144.8819  140.7411  143.5981 LP  0  0  0  0  0  0  0  0  0  0  0  0  # atno 17320 bound_to 7965
  145.3280  139.1768  143.4552 LP  0  0  0  0  0  0  0  0  0  0  0  0  # atno 17321 bound_to 7965
  140.6494  143.8728  150.6770 LP  0  0  0  0  0  0  0  0  0  0  0  0  # atno 17342 bound_to 10162
  140.2088  143.3900  152.1734 LP  0  0  0  0  0  0  0  0  0  0  0  0  # atno 17343 bound_to 10162
  156.1777  130.3649  149.9078 LP  0  0  0  0  0  0  0  0  0  0  0  0  # atno 17370 bound_to 10713
  156.7038  130.8943  151.3602 LP  0  0  0  0  0  0  0  0  0  0  0  0  # atno 17371 bound_to 10713
  140.4081  134.7296  157.4820 LP  0  0  0  0  0  0  0  0  0  0  0  0  # atno 17394 bound_to 11000
  140.0447  134.6217  155.8936 LP  0  0  0  0  0  0  0  0  0  0  0  0  # atno 17395 bound_to 11000

$$$$
