AV-unprocessed.smi:187|AV-procd|sdf|1469|dock7
  -GOLD-   2262019283D 1   1.00000     0.00000
 Structure written by MMmdl.
 53 56  0  0  0  0  0  0  0  0  1 V2000
  148.7983  142.6056  158.2645 C   0  0  0  0  0  0  0  0  0  0  0  0
  150.2769  143.0427  158.3301 C   0  0  1  0  0  0  0  0  0  0  0  0
  150.4673  144.0137  159.5148 C   0  0  0  0  0  0  0  0  0  0  0  0
  151.9386  144.4205  159.7005 C   0  0  0  0  0  0  0  0  0  0  0  0
  152.8735  143.1971  159.7963 C   0  0  1  0  0  0  0  0  0  0  0  0
  152.7696  142.4725  161.1525 C   0  0  0  0  0  0  0  0  0  0  0  0
  153.7357  141.5983  161.4456 N   0  0  0  0  0  0  0  0  0  0  0  0
  151.8330  142.6810  161.9215 O   0  0  0  0  0  0  0  0  0  0  0  0
  152.6154  142.2545  158.6020 C   0  0  0  0  0  0  0  0  0  0  0  0
  151.2013  141.9048  158.4529 N   0  0  0  0  0  0  0  0  0  0  0  0
  151.0666  140.8945  157.5628 C   0  0  0  0  0  0  0  0  0  0  0  0
  150.9497  141.1604  156.2345 N   0  0  0  0  0  0  0  0  0  0  0  0
  150.8345  140.1549  155.3614 C   0  0  0  0  0  0  0  0  0  0  0  0
  150.8247  138.8405  155.5968 N   0  0  0  0  0  0  0  0  0  0  0  0
  150.9568  138.5743  156.9284 C   0  0  0  0  0  0  0  0  0  0  0  0
  151.0810  139.5350  157.9696 C   0  0  0  0  0  0  0  0  0  0  0  0
  151.1845  138.8976  159.1988 N   0  0  0  0  0  0  0  0  0  0  0  0
  151.1148  137.6283  158.9020 C   0  0  0  0  0  0  0  0  0  0  0  0
  151.0018  137.3435  157.5587 N   0  0  0  0  0  0  0  0  0  0  0  0
  150.8758  136.0506  156.9528 C   0  0  0  0  0  0  0  0  0  0  0  0
  150.5842  135.8844  155.4592 C   0  0  0  0  0  0  0  0  0  0  0  0
  149.7848  134.5975  155.7681 C   0  0  0  0  0  0  0  0  0  0  0  0
  148.4765  134.4250  154.9783 C   0  0  0  0  0  0  0  0  0  0  0  0
  148.7325  134.1327  153.6195 O   0  0  0  0  0  0  0  0  0  0  0  0
  150.5924  133.2854  155.7012 C   0  0  0  0  0  0  0  0  0  0  0  0
  149.8649  132.2031  156.2455 O   0  0  0  0  0  0  0  0  0  0  0  0
  149.6267  135.1980  157.1827 C   0  0  0  0  0  0  0  0  0  0  0  0
  148.1391  143.4728  158.2231 H   0  0  0  0  0  0  0  0  0  0  0  0
  148.5204  142.0212  159.1424 H   0  0  0  0  0  0  0  0  0  0  0  0
  148.5822  142.0029  157.3826 H   0  0  0  0  0  0  0  0  0  0  0  0
  150.5224  143.5777  157.4115 H   0  0  0  0  0  0  0  0  0  0  0  0
  149.8616  144.9076  159.3618 H   0  0  0  0  0  0  0  0  0  0  0  0
  150.0957  143.5551  160.4316 H   0  0  0  0  0  0  0  0  0  0  0  0
  152.2463  145.0372  158.8550 H   0  0  0  0  0  0  0  0  0  0  0  0
  152.0405  145.0505  160.5852 H   0  0  0  0  0  0  0  0  0  0  0  0
  153.8995  143.5580  159.7073 H   0  0  0  0  0  0  0  0  0  0  0  0
  153.7162  141.0983  162.3223 H   0  0  0  0  0  0  0  0  0  0  0  0
  154.4852  141.4428  160.7871 H   0  0  0  0  0  0  0  0  0  0  0  0
  152.9566  142.7334  157.6826 H   0  0  0  0  0  0  0  0  0  0  0  0
  153.2143  141.3490  158.7172 H   0  0  0  0  0  0  0  0  0  0  0  0
  150.7389  140.4448  154.3253 H   0  0  0  0  0  0  0  0  0  0  0  0
  151.1498  136.8625  159.6630 H   0  0  0  0  0  0  0  0  0  0  0  0
  151.7756  135.5000  157.2324 H   0  0  0  0  0  0  0  0  0  0  0  0
  149.9586  136.6859  155.0618 H   0  0  0  0  0  0  0  0  0  0  0  0
  151.4725  135.7439  154.8427 H   0  0  0  0  0  0  0  0  0  0  0  0
  147.8822  133.6074  155.3871 H   0  0  0  0  0  0  0  0  0  0  0  0
  147.8507  135.3159  155.0371 H   0  0  0  0  0  0  0  0  0  0  0  0
  148.7963  134.9469  153.1437 H   0  0  0  0  0  0  0  0  0  0  0  0
  150.8481  133.0299  154.6728 H   0  0  0  0  0  0  0  0  0  0  0  0
  151.5401  133.3730  156.2331 H   0  0  0  0  0  0  0  0  0  0  0  0
  149.1187  132.0340  155.6908 H   0  0  0  0  0  0  0  0  0  0  0  0
  149.7136  134.4801  157.9989 H   0  0  0  0  0  0  0  0  0  0  0  0
  148.7244  135.8033  157.2908 H   0  0  0  0  0  0  0  0  0  0  0  0
  1  2  1  0  0  0  0
  1 28  1  0  0  0  0
  1 29  1  0  0  0  0
  1 30  1  0  0  0  0
  2 10  1  0  0  0  0
  2  3  1  0  0  0  0
  2 31  1  0  0  0  0
  3  4  1  0  0  0  0
  3 32  1  0  0  0  0
  3 33  1  0  0  0  0
  4  5  1  0  0  0  0
  4 34  1  0  0  0  0
  4 35  1  0  0  0  0
  5  6  1  0  0  0  0
  5  9  1  0  0  0  0
  5 36  1  0  0  0  0
  6  7  1  0  0  0  0
  6  8  2  0  0  0  0
  7 37  1  0  0  0  0
  7 38  1  0  0  0  0
  9 10  1  0  0  0  0
  9 39  1  0  0  0  0
  9 40  1  0  0  0  0
 10 11  1  0  0  0  0
 11 16  1  0  0  0  0
 11 12  2  0  0  0  0
 12 13  1  0  0  0  0
 13 14  2  0  0  0  0
 13 41  1  0  0  0  0
 14 15  1  0  0  0  0
 15 19  1  0  0  0  0
 15 16  2  0  0  0  0
 16 17  1  0  0  0  0
 17 18  2  0  0  0  0
 18 19  1  0  0  0  0
 18 42  1  0  0  0  0
 19 20  1  0  0  0  0
 20 27  1  0  0  0  0
 20 21  1  0  0  0  0
 20 43  1  0  0  0  0
 21 22  1  0  0  0  0
 21 44  1  0  0  0  0
 21 45  1  0  0  0  0
 22 23  1  0  0  0  0
 22 25  1  0  0  0  0
 22 27  1  0  0  0  0
 23 24  1  0  0  0  0
 23 46  1  0  0  0  0
 23 47  1  0  0  0  0
 24 48  1  0  0  0  0
 25 26  1  0  0  0  0
 25 49  1  0  0  0  0
 25 50  1  0  0  0  0
 26 51  1  0  0  0  0
 27 52  1  0  0  0  0
 27 53  1  0  0  0  0
M  END
> <s_m_source_file>
AV-unprocessed.smi

> <i_m_source_file_index>
187

> <i_lp_mmshare_version>
43012

> <i_f3d_flags>
0

> <s_epik_input>
W0NIM11bQ0BASF0xW0NIMl1bQ0gyXVtDQEBIXShDKD1PKVtOSDJdKVtDSDJdTjFjKG5bY0hdbjIpYyhjMjMpbltjSF1uM1tDSF0oW0NIMl00KVtDSDJdQzQoW0NIMl1bT0hdKVtDSDJdW09IXQ==

> <s_epik_cmdline>
J2VwaWtfcHl0aG9uJywgJy1waCcsICc3LjAnLCAnLXRuJywgJzgnLCAnLW1hJywgJzIwMCcsICctbWV0YWxfYmluZGluZycsICctaW1hZScsICc8aW5maWxlLm1hZT4nLCAnLW9tYWUnLCAnPG91dGZpbGUubWFlPic=

> <r_lp_tautomer_probability>
1

> <r_epik_Ionization_Penalty>
0.0017711

> <r_epik_Ionization_Penalty_Charging>
0

> <r_epik_Ionization_Penalty_Neutral>
0.0017711

> <r_epik_State_Penalty>
0.00107211

> <r_epik_Charging_Adjusted_Penalty>
0.00107211

> <i_epik_Tot_Q>
0

> <i_epik_Tot_abs_Q>
0

> <r_epik_Metal_State_Penalty>
-0

> <b_epik_Metal_Only>
0

> <s_lp_Force_Field>
OPLS_2005

> <r_lp_Energy>
37.2201

> <b_lp_Chiralities_Consistent>
1

> <s_lp_Variant>
AV-unprocessed.smi:187-2

> <Gold.Version>
5.8.1

> <Gold.Id.Protein>
6NUR|6NUR_protein|mol2

> <Gold.PLP.Fitness>
42.4337

> <Gold.PLP.PLP>
-38.3370

> <Gold.PLP.part.hbond>
-2.2112

> <Gold.PLP.part.metal>
0.0000

> <Gold.PLP.part.buried>
-7.5317

> <Gold.PLP.part.nonpolar>
-29.1284

> <Gold.PLP.part.repulsive>
0.4733

> <Gold.PLP.ligand.clash>
0.0000

> <Gold.PLP.ligand.torsion>
1.0526

> <Gold.PLP.Chemscore.Hbond>
1.8247

> <Gold.PLP.Chemscore.CHOScore>
0.0000

> <Gold.PLP.Chemscore.Metal>
0.0000

> <Gold.Chemscore.Hbonds>
donor molecule, donor type, donor heavy atom, donor atom, acceptor molecule, acceptor atom, score
      L1  H    24    48       P1  7948  1.00
      P1  H  6933  6945       L1     8  0.82

> <Gold.PLP.Chemscore.Internal.Correction>
0.7278

> <Gold.Rescore>
     Score         DG    S(hbond)    S(metal)    S(lipo)     H(rot)  DE(clash)    DE(int)     intcor
      7.35     -10.27       1.70        0.00      79.67       3.99       0.07       2.85       ----

> <Gold.Chemscore.Fitness>
7.3525

> <Gold.Chemscore.DG>
-10.2684

> <Gold.Chemscore.ZeroCoef>
-5.4800

> <Gold.Chemscore.Hbond>
1.7011

> <Gold.Chemscore.Metal>
0.0000

> <Gold.Chemscore.Lipo>
79.6712

> <Gold.Chemscore.Internal_Hbond>
0.0000

> <Gold.Chemscore.DEClash>
0.0705

> <Gold.Chemscore.DEInternal>
2.8455

> <Gold.Chemscore.Rot>
3.9902

> <Gold.Chemscore.Internal.Correction>
   9.000000E+99

> <Gold.Chemscore.Hbonds>
donor molecule, donor type, donor heavy atom, donor atom, acceptor molecule, acceptor atom, score
      L1  H    24    48       P1  7948  0.35
      P1  H  6933  6945       L1     8  0.76

> <Gold.Chemscore.Hbond.Weighted>
-5.6817

> <Gold.Chemscore.Metal.Weighted>
-0.0000

> <Gold.Chemscore.Lipo.Weighted>
-9.3215

> <Gold.Chemscore.Internal_Hbond.Weighted>
0.0000

> <Gold.Chemscore.DEClash.Weighted>
0.0705

> <Gold.Chemscore.DEInternal.Weighted>
2.8455

> <Gold.Chemscore.Rot.Weighted>
10.2148

> <Gold.Chemscore.Internal.Correction.Weighted>
   9.000000E+99

> <Gold.Protein.RotatedTorsions>
[ 6907 6896 6895 6894 ] final -161.53 input  -60.11 | X-H torsion
[ 7974 7965 7964 7962 ] final -137.71 input  175.53 | X-H torsion
[ 8008 7997 7996 7995 ] final   54.03 input   59.86 | X-H torsion
[ 10167 10162 10161 10158 ] final  109.22 input  -65.29 | X-H torsion
[ 10718 10713 10712 10709 ] final  116.89 input   66.30 | X-H torsion
[ 10763 10752 10751 10750 ] final    6.61 input  -60.55 | X-H torsion
[ 11005 11000 10999 10996 ] final   35.83 input  -57.11 | X-H torsion

> <Gold.Protein.ActiveResidues>
 VAL166  LYS551  ARG553  GLY616  TRP617  ASP618  TYR619  PRO620  LYS621  CYS622 
 ASP623  PHE694  ASN695  SER759  ASP760  ASP761  ALA762  ILE779  LEU786  VAL792 
 PHE793  MET794  SER795  GLU796  ALA797  LYS798  CYS799  TRP800  GLU811  SER814 

> <Gold.Protein.RotatedAtoms>
  151.3660  133.3872  159.2694 H   0  0  0  0  0  0  0  0  0  0  0  0  # atno 6907 bound_to 6896
  150.9688  134.9065  159.7786 H   0  0  0  0  0  0  0  0  0  0  0  0  # atno 6908 bound_to 6896
  152.5177  134.3622  159.9341 H   0  0  0  0  0  0  0  0  0  0  0  0  # atno 6909 bound_to 6896
  144.8819  140.6520  143.5200 H   0  0  0  0  0  0  0  0  0  0  0  0  # atno 7974 bound_to 7965
  155.4781  140.3467  155.4335 H   0  0  0  0  0  0  0  0  0  0  0  0  # atno 8008 bound_to 7997
  156.1057  140.1447  156.9436 H   0  0  0  0  0  0  0  0  0  0  0  0  # atno 8009 bound_to 7997
  154.4723  140.0897  156.7153 H   0  0  0  0  0  0  0  0  0  0  0  0  # atno 8010 bound_to 7997
  139.6784  144.7120  151.1560 H   0  0  0  0  0  0  0  0  0  0  0  0  # atno 10167 bound_to 10162
  157.6131  131.1031  150.7538 H   0  0  0  0  0  0  0  0  0  0  0  0  # atno 10718 bound_to 10713
  153.2458  135.6908  153.7733 H   0  0  0  0  0  0  0  0  0  0  0  0  # atno 10763 bound_to 10752
  153.6846  135.3323  155.3188 H   0  0  0  0  0  0  0  0  0  0  0  0  # atno 10764 bound_to 10752
  154.8374  135.4530  154.1396 H   0  0  0  0  0  0  0  0  0  0  0  0  # atno 10765 bound_to 10752
  140.2387  134.3441  155.7934 H   0  0  0  0  0  0  0  0  0  0  0  0  # atno 11005 bound_to 11000
  145.3939  139.1611  143.4214 LP  0  0  0  0  0  0  0  0  0  0  0  0  # atno 17320 bound_to 7965
  146.3000  140.4030  142.8707 LP  0  0  0  0  0  0  0  0  0  0  0  0  # atno 17321 bound_to 7965
  140.7643  143.5737  150.8968 LP  0  0  0  0  0  0  0  0  0  0  0  0  # atno 17342 bound_to 10162
  139.9407  143.6385  152.3054 LP  0  0  0  0  0  0  0  0  0  0  0  0  # atno 17343 bound_to 10162
  156.7911  130.4890  149.5385 LP  0  0  0  0  0  0  0  0  0  0  0  0  # atno 17370 bound_to 10713
  156.1242  130.6132  151.0239 LP  0  0  0  0  0  0  0  0  0  0  0  0  # atno 17371 bound_to 10713
  141.2212  133.7286  156.8849 LP  0  0  0  0  0  0  0  0  0  0  0  0  # atno 17394 bound_to 11000
  140.1676  134.9122  157.2793 LP  0  0  0  0  0  0  0  0  0  0  0  0  # atno 17395 bound_to 11000

$$$$
