AV-unprocessed.smi:2538|AV-procd|sdf|9983|dock5
  -GOLD-   2272014 33D 1   1.00000     0.00000
 Structure written by MMmdl.
 49 50  0  0  0  0  0  0  0  0  2 V2000
  153.4301  142.6443  161.1344 C   0  0  0  0  0  0  0  0  0  0  0  0
  152.6662  142.2209  159.8912 C   0  0  0  0  0  0  0  0  0  0  0  0
  152.7761  140.8806  159.4562 C   0  0  0  0  0  0  0  0  0  0  0  0
  152.0661  140.5233  158.3161 C   0  0  0  0  0  0  0  0  0  0  0  0
  151.9654  139.3031  157.6438 N   0  3  0  0  0  0  0  0  0  0  0  0
  151.1425  139.4435  156.5675 C   0  0  0  0  0  0  0  0  0  0  0  0
  150.7159  140.7355  156.5444 N   0  0  0  0  0  0  0  0  0  0  0  0
  149.8117  141.4187  155.6101 C   0  0  0  0  0  0  0  0  0  0  0  0
  149.2297  140.4682  154.5445 C   0  0  2  0  0  0  0  0  0  0  0  0
  149.3259  141.1087  153.2874 O   0  0  0  0  0  0  0  0  0  0  0  0
  147.7489  140.1294  154.8215 C   0  0  0  0  0  0  0  0  0  0  0  0
  147.2854  138.9210  154.1131 N   0  0  0  0  0  0  0  0  0  0  0  0
  146.8779  139.1086  152.7142 C   0  0  0  0  0  0  0  0  0  0  0  0
  146.6219  137.5825  155.0004 S   0  0  0  0  0  0  0  0  0  0  0  0
  146.6621  136.4158  154.1051 O   0  0  0  0  0  0  0  0  0  0  0  0
  147.3104  137.5278  156.2995 O   0  0  0  0  0  0  0  0  0  0  0  0
  144.8458  138.0653  155.2660 C   0  0  0  0  0  0  0  0  0  0  0  0
  144.7556  139.4100  156.0013 C   0  0  0  0  0  0  0  0  0  0  0  0
  144.0880  136.9620  156.0181 C   0  0  0  0  0  0  0  0  0  0  0  0
  151.2676  141.4468  157.6146 C   0  0  0  0  0  0  0  0  0  0  0  0
  151.1476  142.7709  158.0288 C   0  0  0  0  0  0  0  0  0  0  0  0
  151.8610  143.1536  159.1870 C   0  0  0  0  0  0  0  0  0  0  0  0
  151.7482  144.5913  159.6644 C   0  0  0  0  0  0  0  0  0  0  0  0
  154.0307  141.8253  161.5318 H   0  0  0  0  0  0  0  0  0  0  0  0
  152.7406  142.9623  161.9168 H   0  0  0  0  0  0  0  0  0  0  0  0
  154.1042  143.4709  160.9089 H   0  0  0  0  0  0  0  0  0  0  0  0
  153.3858  140.1646  159.9880 H   0  0  0  0  0  0  0  0  0  0  0  0
  150.8724  138.6690  155.8642 H   0  0  0  0  0  0  0  0  0  0  0  0
  149.0168  141.8894  156.1904 H   0  0  0  0  0  0  0  0  0  0  0  0
  150.3720  142.2274  155.1382 H   0  0  0  0  0  0  0  0  0  0  0  0
  149.8380  139.5653  154.5217 H   0  0  0  0  0  0  0  0  0  0  0  0
  149.3491  140.4466  152.6134 H   0  0  0  0  0  0  0  0  0  0  0  0
  147.6130  139.9477  155.8884 H   0  0  0  0  0  0  0  0  0  0  0  0
  147.0966  140.9741  154.5976 H   0  0  0  0  0  0  0  0  0  0  0  0
  145.8411  139.4397  152.6581 H   0  0  0  0  0  0  0  0  0  0  0  0
  146.9660  138.1704  152.1664 H   0  0  0  0  0  0  0  0  0  0  0  0
  147.5092  139.8470  152.2193 H   0  0  0  0  0  0  0  0  0  0  0  0
  144.3863  138.1866  154.2883 H   0  0  0  0  0  0  0  0  0  0  0  0
  143.7169  139.7030  156.1559 H   0  0  0  0  0  0  0  0  0  0  0  0
  145.2383  140.2062  155.4346 H   0  0  0  0  0  0  0  0  0  0  0  0
  145.2361  139.3569  156.9786 H   0  0  0  0  0  0  0  0  0  0  0  0
  143.0347  137.2189  156.1321 H   0  0  0  0  0  0  0  0  0  0  0  0
  144.5010  136.8042  157.0149 H   0  0  0  0  0  0  0  0  0  0  0  0
  144.1387  136.0151  155.4799 H   0  0  0  0  0  0  0  0  0  0  0  0
  150.5347  143.4797  157.4915 H   0  0  0  0  0  0  0  0  0  0  0  0
  151.0624  145.1659  159.0413 H   0  0  0  0  0  0  0  0  0  0  0  0
  152.7209  145.0825  159.6305 H   0  0  0  0  0  0  0  0  0  0  0  0
  151.3764  144.6282  160.6887 H   0  0  0  0  0  0  0  0  0  0  0  0
  152.4219  138.4368  157.8994 H   0  0  0  0  0  0  0  0  0  0  0  0
  1  2  1  0  0  0  0
  1 24  1  0  0  0  0
  1 25  1  0  0  0  0
  1 26  1  0  0  0  0
  2 22  1  0  0  0  0
  2  3  2  0  0  0  0
  3  4  1  0  0  0  0
  3 27  1  0  0  0  0
  4 20  2  0  0  0  0
  4  5  1  0  0  0  0
  5  6  2  0  0  0  0
  5 49  1  0  0  0  0
  6  7  1  0  0  0  0
  6 28  1  0  0  0  0
  7  8  1  0  0  0  0
  7 20  1  0  0  0  0
  8  9  1  0  0  0  0
  8 29  1  0  0  0  0
  8 30  1  0  0  0  0
  9 10  1  0  0  0  0
  9 11  1  0  0  0  0
  9 31  1  0  0  0  0
 10 32  1  0  0  0  0
 11 12  1  0  0  0  0
 11 33  1  0  0  0  0
 11 34  1  0  0  0  0
 12 13  1  0  0  0  0
 12 14  1  0  0  0  0
 13 35  1  0  0  0  0
 13 36  1  0  0  0  0
 13 37  1  0  0  0  0
 14 15  2  0  0  0  0
 14 16  2  0  0  0  0
 14 17  1  0  0  0  0
 17 18  1  0  0  0  0
 17 19  1  0  0  0  0
 17 38  1  0  0  0  0
 18 39  1  0  0  0  0
 18 40  1  0  0  0  0
 18 41  1  0  0  0  0
 19 42  1  0  0  0  0
 19 43  1  0  0  0  0
 19 44  1  0  0  0  0
 20 21  1  0  0  0  0
 21 22  2  0  0  0  0
 21 45  1  0  0  0  0
 22 23  1  0  0  0  0
 23 46  1  0  0  0  0
 23 47  1  0  0  0  0
 23 48  1  0  0  0  0
M  CHG  1   5   1
M  END
> <s_m_source_file>
AV-unprocessed.smi

> <i_m_source_file_index>
2538

> <i_lp_mmshare_version>
43012

> <i_f3d_flags>
0

> <s_epik_input>
W0NIM11jKFtjSF0xKWMoW0NIM10pW2NIXWMoYzEyKW4oW2NIXW4yKVtDSDJdW0NASF0oW09IXSlbQ0gyXU4oW0NIM10pUyg9TykoPU8pW0NIXShbQ0gzXSlbQ0gzXQ==

> <s_epik_cmdline>
J2VwaWtfcHl0aG9uJywgJy1waCcsICc3LjAnLCAnLXRuJywgJzgnLCAnLW1hJywgJzIwMCcsICctbWV0YWxfYmluZGluZycsICctaW1hZScsICc8aW5maWxlLm1hZT4nLCAnLW9tYWUnLCAnPG91dGZpbGUubWFlPic=

> <r_epik_Ionization_Penalty>
1.07686

> <r_epik_Ionization_Penalty_Charging>
1.07685

> <r_epik_Ionization_Penalty_Neutral>
1.40866e-06

> <r_epik_State_Penalty>
1.13193

> <r_epik_Charging_Adjusted_Penalty>
2.20879

> <i_epik_Tot_Q>
1

> <i_epik_Tot_abs_Q>
1

> <r_epik_Metal_State_Penalty>
5.12988

> <b_epik_Metal_Only>
0

> <s_lp_Force_Field>
OPLS_2005

> <r_lp_Energy>
10.0565

> <b_lp_Chiralities_Consistent>
1

> <s_lp_Variant>
AV-unprocessed.smi:2538-3

> <Gold.Version>
5.8.1

> <Gold.Id.Protein>
6NUR|6NUR_protein|mol2

> <Gold.PLP.Fitness>
43.8164

> <Gold.PLP.PLP>
-39.6127

> <Gold.PLP.part.hbond>
-2.4334

> <Gold.PLP.part.metal>
0.0000

> <Gold.PLP.part.buried>
-5.0512

> <Gold.PLP.part.nonpolar>
-32.8490

> <Gold.PLP.part.repulsive>
0.1467

> <Gold.PLP.ligand.clash>
0.0000

> <Gold.PLP.ligand.torsion>
2.1123

> <Gold.PLP.Chemscore.Hbond>
1.9363

> <Gold.PLP.Chemscore.CHOScore>
0.0000

> <Gold.PLP.Chemscore.Metal>
0.0000

> <Gold.Chemscore.Hbonds>
donor molecule, donor type, donor heavy atom, donor atom, acceptor molecule, acceptor atom, score
      L1  H    10    32       P1  7957  0.98
      P1  H  7989  7998       L1    10  0.01
      P1  H  8011  8017       L1    10  0.85

> <Gold.PLP.Chemscore.Internal.Correction>
2.6195

> <Gold.Rescore>
     Score         DG    S(hbond)    S(metal)    S(lipo)     H(rot)  DE(clash)    DE(int)     intcor
     14.20     -16.40       1.33        0.00     106.90       2.36      -0.00       2.20       ----

> <Gold.Chemscore.Fitness>
14.2023

> <Gold.Chemscore.DG>
-16.3985

> <Gold.Chemscore.ZeroCoef>
-5.4800

> <Gold.Chemscore.Hbond>
1.3327

> <Gold.Chemscore.Metal>
0.0000

> <Gold.Chemscore.Lipo>
106.9015

> <Gold.Chemscore.Internal_Hbond>
0.0000

> <Gold.Chemscore.DEClash>
-0.0000

> <Gold.Chemscore.DEInternal>
2.1962

> <Gold.Chemscore.Rot>
2.3595

> <Gold.Chemscore.Internal.Correction>
   9.000000E+99

> <Gold.Chemscore.Hbonds>
donor molecule, donor type, donor heavy atom, donor atom, acceptor molecule, acceptor atom, score
      L1  H    10    32       P1  7957  0.86
      P1  H  8011  8017       L1    10  0.15

> <Gold.Chemscore.Hbond.Weighted>
-4.4513

> <Gold.Chemscore.Metal.Weighted>
-0.0000

> <Gold.Chemscore.Lipo.Weighted>
-12.5075

> <Gold.Chemscore.Internal_Hbond.Weighted>
0.0000

> <Gold.Chemscore.DEClash.Weighted>
-0.0000

> <Gold.Chemscore.DEInternal.Weighted>
2.1962

> <Gold.Chemscore.Rot.Weighted>
6.0403

> <Gold.Chemscore.Internal.Correction.Weighted>
   9.000000E+99

> <Gold.Protein.RotatedTorsions>
[ 6907 6896 6895 6894 ] final   49.63 input  -60.11 | X-H torsion
[ 7974 7965 7964 7962 ] final -120.63 input  175.53 | X-H torsion
[ 8008 7997 7996 7995 ] final   38.24 input   59.86 | X-H torsion
[ 10167 10162 10161 10158 ] final -114.73 input  -65.29 | X-H torsion
[ 10718 10713 10712 10709 ] final  135.61 input   66.30 | X-H torsion
[ 10763 10752 10751 10750 ] final  -19.95 input  -60.55 | X-H torsion
[ 11005 11000 10999 10996 ] final   52.35 input  -57.11 | X-H torsion

> <Gold.Protein.ActiveResidues>
 VAL166  LYS551  ARG553  GLY616  TRP617  ASP618  TYR619  PRO620  LYS621  CYS622 
 ASP623  PHE694  ASN695  SER759  ASP760  ASP761  ALA762  ILE779  LEU786  VAL792 
 PHE793  MET794  SER795  GLU796  ALA797  LYS798  CYS799  TRP800  GLU811  SER814 

> <Gold.Protein.RotatedAtoms>
  152.2929  134.7701  160.0373 H   0  0  0  0  0  0  0  0  0  0  0  0  # atno 6907 bound_to 6896
  151.8241  133.3393  159.3601 H   0  0  0  0  0  0  0  0  0  0  0  0  # atno 6908 bound_to 6896
  150.7238  134.5475  159.5822 H   0  0  0  0  0  0  0  0  0  0  0  0  # atno 6909 bound_to 6896
  145.0493  140.8206  143.4219 H   0  0  0  0  0  0  0  0  0  0  0  0  # atno 7974 bound_to 7965
  155.2170  140.3328  155.4321 H   0  0  0  0  0  0  0  0  0  0  0  0  # atno 8008 bound_to 7997
  156.2348  140.1867  156.7195 H   0  0  0  0  0  0  0  0  0  0  0  0  # atno 8009 bound_to 7997
  154.6040  140.0619  156.9392 H   0  0  0  0  0  0  0  0  0  0  0  0  # atno 8010 bound_to 7997
  140.0978  143.4641  152.1831 H   0  0  0  0  0  0  0  0  0  0  0  0  # atno 10167 bound_to 10162
  157.4553  131.1069  150.9985 H   0  0  0  0  0  0  0  0  0  0  0  0  # atno 10718 bound_to 10713
  153.6129  135.6995  153.5340 H   0  0  0  0  0  0  0  0  0  0  0  0  # atno 10763 bound_to 10752
  153.3002  135.4131  155.1245 H   0  0  0  0  0  0  0  0  0  0  0  0  # atno 10764 bound_to 10752
  154.8560  135.3647  154.5668 H   0  0  0  0  0  0  0  0  0  0  0  0  # atno 10765 bound_to 10752
  140.0857  134.5278  155.8902 H   0  0  0  0  0  0  0  0  0  0  0  0  # atno 11005 bound_to 11000
  145.1548  139.2493  143.5422 LP  0  0  0  0  0  0  0  0  0  0  0  0  # atno 17320 bound_to 7965
  146.3516  140.1259  142.8598 LP  0  0  0  0  0  0  0  0  0  0  0  0  # atno 17321 bound_to 7965
  139.5688  144.7451  151.3947 LP  0  0  0  0  0  0  0  0  0  0  0  0  # atno 17342 bound_to 10162
  140.6994  143.7669  150.7379 LP  0  0  0  0  0  0  0  0  0  0  0  0  # atno 17343 bound_to 10162
  157.0801  130.5899  149.5419 LP  0  0  0  0  0  0  0  0  0  0  0  0  # atno 17370 bound_to 10713
  156.0004  130.5082  150.7643 LP  0  0  0  0  0  0  0  0  0  0  0  0  # atno 17371 bound_to 10713
  141.2061  133.6653  156.6225 LP  0  0  0  0  0  0  0  0  0  0  0  0  # atno 17394 bound_to 11000
  140.3424  134.7838  157.4407 LP  0  0  0  0  0  0  0  0  0  0  0  0  # atno 17395 bound_to 11000

$$$$
