AV-unprocessed.smi:1746|AV-procd|sdf|7034|dock6
  -GOLD-   22720 8253D 1   1.00000     0.00000
 Structure written by MMmdl.
 35 36  0  0  0  0  0  0  0  0  1 V2000
  152.9326  138.7361  154.4634 C   0  0  0  0  0  0  0  0  0  0  0  0
  152.4520  138.9468  155.9043 C   0  0  0  0  0  0  0  0  0  0  0  0
  151.5439  140.0721  156.0085 N   0  0  0  0  0  0  0  0  0  0  0  0
  151.4462  140.9973  157.0287 C   0  0  0  0  0  0  0  0  0  0  0  0
  150.4481  141.8530  156.6571 C   0  0  0  0  0  0  0  0  0  0  0  0
  149.9360  142.9868  157.3373 N   0  0  0  0  0  0  0  0  0  0  0  0
  150.0563  143.2755  158.6434 C   0  0  0  0  0  0  0  0  0  0  0  0
  150.6504  142.5828  159.4699 O   0  0  0  0  0  0  0  0  0  0  0  0
  149.4418  144.4270  158.9476 N   0  0  0  0  0  0  0  0  0  0  0  0
  149.3787  145.0122  160.2821 C   0  0  0  0  0  0  0  0  0  0  0  0
  148.0504  144.6828  160.9836 C   0  0  1  0  0  0  0  0  0  0  0  0
  146.8761  145.5336  160.5071 C   0  0  0  0  0  0  0  0  0  0  0  0
  145.7012  144.6598  160.8825 C   0  0  0  0  0  0  0  0  0  0  0  0
  146.2359  143.2619  160.5802 C   0  0  0  0  0  0  0  0  0  0  0  0
  147.6542  143.3417  160.7086 O   0  0  0  0  0  0  0  0  0  0  0  0
  149.9846  141.3846  155.4002 C   0  0  0  0  0  0  0  0  0  0  0  0
  150.6520  140.3076  155.0145 N   0  0  0  0  0  0  0  0  0  0  0  0
  153.6259  137.8972  154.4046 H   0  0  0  0  0  0  0  0  0  0  0  0
  153.4474  139.6207  154.0872 H   0  0  0  0  0  0  0  0  0  0  0  0
  152.0973  138.5244  153.7950 H   0  0  0  0  0  0  0  0  0  0  0  0
  151.9482  138.0523  156.2732 H   0  0  0  0  0  0  0  0  0  0  0  0
  153.3040  139.1245  156.5615 H   0  0  0  0  0  0  0  0  0  0  0  0
  152.0830  140.9589  157.9001 H   0  0  0  0  0  0  0  0  0  0  0  0
  149.4226  143.6457  156.7704 H   0  0  0  0  0  0  0  0  0  0  0  0
  148.9743  144.9300  158.2078 H   0  0  0  0  0  0  0  0  0  0  0  0
  150.2199  144.6570  160.8796 H   0  0  0  0  0  0  0  0  0  0  0  0
  149.4978  146.0922  160.1917 H   0  0  0  0  0  0  0  0  0  0  0  0
  148.1474  144.7923  162.0652 H   0  0  0  0  0  0  0  0  0  0  0  0
  146.8455  146.5170  160.9772 H   0  0  0  0  0  0  0  0  0  0  0  0
  146.9102  145.6697  159.4253 H   0  0  0  0  0  0  0  0  0  0  0  0
  145.4892  144.7589  161.9481 H   0  0  0  0  0  0  0  0  0  0  0  0
  144.7923  144.8985  160.3296 H   0  0  0  0  0  0  0  0  0  0  0  0
  145.8188  142.5084  161.2488 H   0  0  0  0  0  0  0  0  0  0  0  0
  145.9981  142.9741  159.5557 H   0  0  0  0  0  0  0  0  0  0  0  0
  149.2039  141.7810  154.7678 H   0  0  0  0  0  0  0  0  0  0  0  0
  1  2  1  0  0  0  0
  1 18  1  0  0  0  0
  1 19  1  0  0  0  0
  1 20  1  0  0  0  0
  2  3  1  0  0  0  0
  2 21  1  0  0  0  0
  2 22  1  0  0  0  0
  3 17  1  0  0  0  0
  3  4  1  0  0  0  0
  4  5  2  0  0  0  0
  4 23  1  0  0  0  0
  5  6  1  0  0  0  0
  5 16  1  0  0  0  0
  6  7  1  0  0  0  0
  6 24  1  0  0  0  0
  7  8  2  0  0  0  0
  7  9  1  0  0  0  0
  9 10  1  0  0  0  0
  9 25  1  0  0  0  0
 10 11  1  0  0  0  0
 10 26  1  0  0  0  0
 10 27  1  0  0  0  0
 11 15  1  0  0  0  0
 11 12  1  0  0  0  0
 11 28  1  0  0  0  0
 12 13  1  0  0  0  0
 12 29  1  0  0  0  0
 12 30  1  0  0  0  0
 13 14  1  0  0  0  0
 13 31  1  0  0  0  0
 13 32  1  0  0  0  0
 14 15  1  0  0  0  0
 14 33  1  0  0  0  0
 14 34  1  0  0  0  0
 16 17  2  0  0  0  0
 16 35  1  0  0  0  0
M  END
> <s_m_source_file>
AV-unprocessed.smi

> <i_m_source_file_index>
1746

> <i_lp_mmshare_version>
43012

> <i_f3d_flags>
0

> <s_epik_input>
W0NIM11bQ0gyXW4xW2NIXWMoW2NIXW4xKVtOSF1DKD1PKVtOSF1bQ0gyXVtDQEBIXTJbQ0gyXVtDSDJdW0NIMl1PMg==

> <s_epik_cmdline>
J2VwaWtfcHl0aG9uJywgJy1waCcsICc3LjAnLCAnLXRuJywgJzgnLCAnLW1hJywgJzIwMCcsICctbWV0YWxfYmluZGluZycsICctaW1hZScsICc8aW5maWxlLm1hZT4nLCAnLW9tYWUnLCAnPG91dGZpbGUubWFlPic=

> <r_lp_tautomer_probability>
1

> <r_epik_Ionization_Penalty>
0.000176839

> <r_epik_Ionization_Penalty_Charging>
0

> <r_epik_Ionization_Penalty_Neutral>
0.000176839

> <r_epik_State_Penalty>
-0

> <r_epik_Charging_Adjusted_Penalty>
0

> <i_epik_Tot_Q>
0

> <i_epik_Tot_abs_Q>
0

> <r_epik_Metal_State_Penalty>
-0

> <b_epik_Metal_Only>
0

> <s_lp_Force_Field>
OPLS_2005

> <r_lp_Energy>
20.4125

> <b_lp_Chiralities_Consistent>
1

> <s_lp_Variant>
AV-unprocessed.smi:1746-2

> <Gold.Version>
5.8.1

> <Gold.Id.Protein>
6NUR|6NUR_protein|mol2

> <Gold.PLP.Fitness>
45.6400

> <Gold.PLP.PLP>
-35.1049

> <Gold.PLP.part.hbond>
-5.2448

> <Gold.PLP.part.metal>
0.0000

> <Gold.PLP.part.buried>
-7.3433

> <Gold.PLP.part.nonpolar>
-24.3156

> <Gold.PLP.part.repulsive>
0.3115

> <Gold.PLP.ligand.clash>
0.0000

> <Gold.PLP.ligand.torsion>
0.7380

> <Gold.PLP.Chemscore.Hbond>
4.0000

> <Gold.PLP.Chemscore.CHOScore>
0.0000

> <Gold.PLP.Chemscore.Metal>
0.0000

> <Gold.Chemscore.Hbonds>
donor molecule, donor type, donor heavy atom, donor atom, acceptor molecule, acceptor atom, score
      L1  H     6    24       P1  8028  1.00
      L1  H     9    25       P1  8029  1.00
      P1  H  6933  6944       L1    15  0.89
      P1  H  7989  7998       L1    17  1.00

> <Gold.PLP.Chemscore.Internal.Correction>
0.0112

> <Gold.Rescore>
     Score         DG    S(hbond)    S(metal)    S(lipo)     H(rot)  DE(clash)    DE(int)     intcor
     18.63     -20.40       3.26        0.00      65.13       1.41       0.09       1.68       ----

> <Gold.Chemscore.Fitness>
18.6274

> <Gold.Chemscore.DG>
-20.4034

> <Gold.Chemscore.ZeroCoef>
-5.4800

> <Gold.Chemscore.Hbond>
3.2644

> <Gold.Chemscore.Metal>
0.0000

> <Gold.Chemscore.Lipo>
65.1347

> <Gold.Chemscore.Internal_Hbond>
0.0000

> <Gold.Chemscore.DEClash>
0.0929

> <Gold.Chemscore.DEInternal>
1.6831

> <Gold.Chemscore.Rot>
1.4064

> <Gold.Chemscore.Internal.Correction>
   9.000000E+99

> <Gold.Chemscore.Hbonds>
donor molecule, donor type, donor heavy atom, donor atom, acceptor molecule, acceptor atom, score
      L1  H     6    24       P1  8028  0.95
      L1  H     9    25       P1  8029  0.55
      P1  H  6933  6944       L1    15  0.71
      P1  H  7989  7998       L1    17  0.27

> <Gold.Chemscore.Hbond.Weighted>
-10.9031

> <Gold.Chemscore.Metal.Weighted>
-0.0000

> <Gold.Chemscore.Lipo.Weighted>
-7.6208

> <Gold.Chemscore.Internal_Hbond.Weighted>
0.0000

> <Gold.Chemscore.DEClash.Weighted>
0.0929

> <Gold.Chemscore.DEInternal.Weighted>
1.6831

> <Gold.Chemscore.Rot.Weighted>
3.6004

> <Gold.Chemscore.Internal.Correction.Weighted>
   9.000000E+99

> <Gold.Protein.RotatedTorsions>
[ 6907 6896 6895 6894 ] final  -83.27 input  -60.11 | X-H torsion
[ 7974 7965 7964 7962 ] final  -12.10 input  175.53 | X-H torsion
[ 8008 7997 7996 7995 ] final   -5.08 input   59.86 | X-H torsion
[ 10167 10162 10161 10158 ] final -122.30 input  -65.29 | X-H torsion
[ 10718 10713 10712 10709 ] final  -35.95 input   66.30 | X-H torsion
[ 10763 10752 10751 10750 ] final   65.79 input  -60.55 | X-H torsion
[ 11005 11000 10999 10996 ] final -155.36 input  -57.11 | X-H torsion

> <Gold.Protein.ActiveResidues>
 VAL166  LYS551  ARG553  GLY616  TRP617  ASP618  TYR619  PRO620  LYS621  CYS622 
 ASP623  PHE694  ASN695  SER759  ASP760  ASP761  ALA762  ILE779  LEU786  VAL792 
 PHE793  MET794  SER795  GLU796  ALA797  LYS798  CYS799  TRP800  GLU811  SER814 

> <Gold.Protein.RotatedAtoms>
  150.6887  134.3537  159.4920 H   0  0  0  0  0  0  0  0  0  0  0  0  # atno 6907 bound_to 6896
  152.1375  134.9085  160.0565 H   0  0  0  0  0  0  0  0  0  0  0  0  # atno 6908 bound_to 6896
  152.0231  133.3872  159.4303 H   0  0  0  0  0  0  0  0  0  0  0  0  # atno 6909 bound_to 6896
  146.2164  140.3008  142.8375 H   0  0  0  0  0  0  0  0  0  0  0  0  # atno 7974 bound_to 7965
  154.6076  140.2467  155.7711 H   0  0  0  0  0  0  0  0  0  0  0  0  # atno 8008 bound_to 7997
  156.2350  140.2953  156.0240 H   0  0  0  0  0  0  0  0  0  0  0  0  # atno 8009 bound_to 7997
  155.2106  140.0397  157.2923 H   0  0  0  0  0  0  0  0  0  0  0  0  # atno 8010 bound_to 7997
  140.0158  143.5395  152.2243 H   0  0  0  0  0  0  0  0  0  0  0  0  # atno 10167 bound_to 10162
  156.3326  130.4281  149.7858 H   0  0  0  0  0  0  0  0  0  0  0  0  # atno 10718 bound_to 10713
  153.0111  135.5344  154.6722 H   0  0  0  0  0  0  0  0  0  0  0  0  # atno 10763 bound_to 10752
  154.5903  135.2858  155.0644 H   0  0  0  0  0  0  0  0  0  0  0  0  # atno 10764 bound_to 10752
  154.1739  135.6527  153.5069 H   0  0  0  0  0  0  0  0  0  0  0  0  # atno 10765 bound_to 10752
  140.6873  134.4079  157.5222 H   0  0  0  0  0  0  0  0  0  0  0  0  # atno 11005 bound_to 11000
  144.9059  140.7699  143.5838 LP  0  0  0  0  0  0  0  0  0  0  0  0  # atno 17320 bound_to 7965
  145.2936  139.1875  143.4727 LP  0  0  0  0  0  0  0  0  0  0  0  0  # atno 17321 bound_to 7965
  139.6174  144.7622  151.2817 LP  0  0  0  0  0  0  0  0  0  0  0  0  # atno 17342 bound_to 10162
  140.7363  143.6712  150.8080 LP  0  0  0  0  0  0  0  0  0  0  0  0  # atno 17343 bound_to 10162
  156.5125  130.8178  151.3174 LP  0  0  0  0  0  0  0  0  0  0  0  0  # atno 17370 bound_to 10713
  157.7433  130.9909  150.2582 LP  0  0  0  0  0  0  0  0  0  0  0  0  # atno 17371 bound_to 10713
  139.8934  134.8732  156.2227 LP  0  0  0  0  0  0  0  0  0  0  0  0  # atno 17394 bound_to 11000
  141.0269  133.7010  156.1363 LP  0  0  0  0  0  0  0  0  0  0  0  0  # atno 17395 bound_to 11000

$$$$
