AV-unprocessed.smi:2079|AV-procd|sdf|8480|dock6
  -GOLD-   2272011183D 1   1.00000     0.00000
 Structure written by MMmdl.
 41 42  0  0  0  0  0  0  0  0  3 V2000
  148.7987  140.3214  154.6199 C   0  0  0  0  0  0  0  0  0  0  0  0
  149.6731  139.1154  154.6731 C   0  0  0  0  0  0  0  0  0  0  0  0
  149.4324  137.8099  154.9946 C   0  0  0  0  0  0  0  0  0  0  0  0
  150.7044  137.1960  154.8343 C   0  0  0  0  0  0  0  0  0  0  0  0
  150.9866  135.9020  155.0511 N   0  5  0  0  0  0  0  0  0  0  0  0
  149.9875  134.9995  155.1793 C   0  0  0  0  0  0  0  0  0  0  0  0
  149.7886  134.2569  156.1433 O   0  0  0  0  0  0  0  0  0  0  0  0
  149.1687  134.9502  154.1206 N   0  0  0  0  0  0  0  0  0  0  0  0
  148.0258  134.0581  153.9864 C   0  0  0  0  0  0  0  0  0  0  0  0
  147.1698  134.4689  152.7773 C   0  0  0  0  0  0  0  0  0  0  0  0
  146.7245  133.3179  151.9458 N   0  3  1  0  0  0  0  0  0  0  0  0
  146.0277  132.2861  152.7612 C   0  0  0  0  0  0  0  0  0  0  0  0
  145.7569  131.0111  151.9472 C   0  0  0  0  0  0  0  0  0  0  0  0
  144.9601  131.3284  150.6779 C   0  0  0  0  0  0  0  0  0  0  0  0
  145.6914  132.4018  149.8612 C   0  0  0  0  0  0  0  0  0  0  0  0
  145.9862  133.6699  150.6911 C   0  0  1  0  0  0  0  0  0  0  0  0
  144.7174  134.5146  150.9354 C   0  0  0  0  0  0  0  0  0  0  0  0
  151.6382  138.0560  154.4638 N   0  0  0  0  0  0  0  0  0  0  0  0
  150.9833  139.2883  154.3511 O   0  0  0  0  0  0  0  0  0  0  0  0
  148.3365  140.5045  155.5898 H   0  0  0  0  0  0  0  0  0  0  0  0
  148.0038  140.1885  153.8862 H   0  0  0  0  0  0  0  0  0  0  0  0
  149.3681  141.2095  154.3442 H   0  0  0  0  0  0  0  0  0  0  0  0
  148.4961  137.3638  155.2946 H   0  0  0  0  0  0  0  0  0  0  0  0
  149.3624  135.5766  153.3530 H   0  0  0  0  0  0  0  0  0  0  0  0
  148.3989  133.0404  153.8691 H   0  0  0  0  0  0  0  0  0  0  0  0
  147.4340  134.0897  154.9023 H   0  0  0  0  0  0  0  0  0  0  0  0
  146.2828  134.9824  153.1518 H   0  0  0  0  0  0  0  0  0  0  0  0
  147.6989  135.1971  152.1617 H   0  0  0  0  0  0  0  0  0  0  0  0
  146.6422  132.0263  153.6241 H   0  0  0  0  0  0  0  0  0  0  0  0
  145.0948  132.6895  153.1563 H   0  0  0  0  0  0  0  0  0  0  0  0
  146.7037  130.5406  151.6780 H   0  0  0  0  0  0  0  0  0  0  0  0
  145.2145  130.2875  152.5565 H   0  0  0  0  0  0  0  0  0  0  0  0
  144.8306  130.4255  150.0806 H   0  0  0  0  0  0  0  0  0  0  0  0
  143.9591  131.6717  150.9419 H   0  0  0  0  0  0  0  0  0  0  0  0
  146.6324  131.9877  149.4963 H   0  0  0  0  0  0  0  0  0  0  0  0
  145.1110  132.6556  148.9735 H   0  0  0  0  0  0  0  0  0  0  0  0
  146.6516  134.2707  150.0724 H   0  0  0  0  0  0  0  0  0  0  0  0
  144.2073  134.7219  149.9945 H   0  0  0  0  0  0  0  0  0  0  0  0
  144.9545  135.4807  151.3804 H   0  0  0  0  0  0  0  0  0  0  0  0
  144.0034  134.0124  151.5870 H   0  0  0  0  0  0  0  0  0  0  0  0
  147.5772  132.8746  151.6345 H   0  0  0  0  0  0  0  0  0  0  0  0
  1  2  1  0  0  0  0
  1 20  1  0  0  0  0
  1 21  1  0  0  0  0
  1 22  1  0  0  0  0
  2 19  1  0  0  0  0
  2  3  2  0  0  0  0
  3  4  1  0  0  0  0
  3 23  1  0  0  0  0
  4  5  1  0  0  0  0
  4 18  2  0  0  0  0
  5  6  1  0  0  0  0
  6  7  2  0  0  0  0
  6  8  1  0  0  0  0
  8  9  1  0  0  0  0
  8 24  1  0  0  0  0
  9 10  1  0  0  0  0
  9 25  1  0  0  0  0
  9 26  1  0  0  0  0
 10 11  1  0  0  0  0
 10 27  1  0  0  0  0
 10 28  1  0  0  0  0
 11 16  1  0  0  0  0
 11 12  1  0  0  0  0
 11 41  1  0  0  0  0
 12 13  1  0  0  0  0
 12 29  1  0  0  0  0
 12 30  1  0  0  0  0
 13 14  1  0  0  0  0
 13 31  1  0  0  0  0
 13 32  1  0  0  0  0
 14 15  1  0  0  0  0
 14 33  1  0  0  0  0
 14 34  1  0  0  0  0
 15 16  1  0  0  0  0
 15 35  1  0  0  0  0
 15 36  1  0  0  0  0
 16 17  1  0  0  0  0
 16 37  1  0  0  0  0
 17 38  1  0  0  0  0
 17 39  1  0  0  0  0
 17 40  1  0  0  0  0
 18 19  1  0  0  0  0
M  CHG  1   5  -1
M  CHG  1  11   1
M  END
> <s_m_source_file>
AV-unprocessed.smi

> <i_m_source_file_index>
2079

> <i_lp_mmshare_version>
43012

> <i_f3d_flags>
0

> <s_epik_input>
W0NIM11jMVtjSF1jKG5vMSlbTkhdQyg9TylbTkhdW0NIMl1bQ0gyXU4yW0NIMl1bQ0gyXVtDSDJdW0NIMl1bQ0BIXTJbQ0gzXQ==

> <s_epik_cmdline>
J2VwaWtfcHl0aG9uJywgJy1waCcsICc3LjAnLCAnLXRuJywgJzgnLCAnLW1hJywgJzIwMCcsICctbWV0YWxfYmluZGluZycsICctaW1hZScsICc8aW5maWxlLm1hZT4nLCAnLW9tYWUnLCAnPG91dGZpbGUubWFlPic=

> <r_epik_Ionization_Penalty>
6.22371

> <r_epik_Ionization_Penalty_Charging>
6.22362

> <r_epik_Ionization_Penalty_Neutral>
9.40454e-05

> <r_epik_State_Penalty>
6.22363

> <r_epik_Charging_Adjusted_Penalty>
12.4472

> <i_epik_Tot_Q>
0

> <i_epik_Tot_abs_Q>
2

> <r_epik_Metal_State_Penalty>
2.16675

> <b_epik_Metal_Only>
1

> <s_lp_Force_Field>
OPLS_2005

> <r_lp_Energy>
9.70106

> <b_lp_Chiralities_Consistent>
1

> <s_lp_Variant>
AV-unprocessed.smi:2079-6

> <Gold.Version>
5.8.1

> <Gold.Id.Protein>
6NUR|6NUR_protein|mol2

> <Gold.PLP.Fitness>
37.6897

> <Gold.PLP.PLP>
-27.6904

> <Gold.PLP.part.hbond>
-3.0000

> <Gold.PLP.part.metal>
0.0000

> <Gold.PLP.part.buried>
-3.1008

> <Gold.PLP.part.nonpolar>
-22.5172

> <Gold.PLP.part.repulsive>
0.4802

> <Gold.PLP.ligand.clash>
0.0000

> <Gold.PLP.ligand.torsion>
0.9587

> <Gold.PLP.Chemscore.Hbond>
3.9500

> <Gold.PLP.Chemscore.CHOScore>
0.0000

> <Gold.PLP.Chemscore.Metal>
0.0000

> <Gold.Chemscore.Hbonds>
donor molecule, donor type, donor heavy atom, donor atom, acceptor molecule, acceptor atom, score
      L1  H     8    24       P1  7948  1.00
      P1  H  7989  7998       L1    19  1.00
      P1  H 10752 10764       L1     5  1.89

> <Gold.PLP.Chemscore.Internal.Correction>
0.0667

> <Gold.Rescore>
     Score         DG    S(hbond)    S(metal)    S(lipo)     H(rot)  DE(clash)    DE(int)     intcor
     14.08     -16.51       2.12        0.00      67.46       1.54       1.40       1.03       ----

> <Gold.Chemscore.Fitness>
14.0807

> <Gold.Chemscore.DG>
-16.5123

> <Gold.Chemscore.ZeroCoef>
-5.4800

> <Gold.Chemscore.Hbond>
2.1208

> <Gold.Chemscore.Metal>
0.0000

> <Gold.Chemscore.Lipo>
67.4638

> <Gold.Chemscore.Internal_Hbond>
0.0000

> <Gold.Chemscore.DEClash>
1.4012

> <Gold.Chemscore.DEInternal>
1.0304

> <Gold.Chemscore.Rot>
1.5409

> <Gold.Chemscore.Internal.Correction>
   9.000000E+99

> <Gold.Chemscore.Hbonds>
donor molecule, donor type, donor heavy atom, donor atom, acceptor molecule, acceptor atom, score
      L1  H     8    24       P1  7948  0.24
      P1  H  7989  7998       L1    19  0.99
      P1  H 10752 10764       L1     5  0.70

> <Gold.Chemscore.Hbond.Weighted>
-7.0836

> <Gold.Chemscore.Metal.Weighted>
-0.0000

> <Gold.Chemscore.Lipo.Weighted>
-7.8933

> <Gold.Chemscore.Internal_Hbond.Weighted>
0.0000

> <Gold.Chemscore.DEClash.Weighted>
1.4012

> <Gold.Chemscore.DEInternal.Weighted>
1.0304

> <Gold.Chemscore.Rot.Weighted>
3.9446

> <Gold.Chemscore.Internal.Correction.Weighted>
   9.000000E+99

> <Gold.Protein.RotatedTorsions>
[ 6907 6896 6895 6894 ] final   98.63 input  -60.11 | X-H torsion
[ 7974 7965 7964 7962 ] final -143.87 input  175.53 | X-H torsion
[ 8008 7997 7996 7995 ] final  -15.17 input   59.86 | X-H torsion
[ 10167 10162 10161 10158 ] final  -15.51 input  -65.29 | X-H torsion
[ 10718 10713 10712 10709 ] final   -4.57 input   66.30 | X-H torsion
[ 10763 10752 10751 10750 ] final  -45.47 input  -60.55 | X-H torsion
[ 11005 11000 10999 10996 ] final  160.44 input  -57.11 | X-H torsion

> <Gold.Protein.ActiveResidues>
 VAL166  LYS551  ARG553  GLY616  TRP617  ASP618  TYR619  PRO620  LYS621  CYS622 
 ASP623  PHE694  ASN695  SER759  ASP760  ASP761  ALA762  ILE779  LEU786  VAL792 
 PHE793  MET794  SER795  GLU796  ALA797  LYS798  CYS799  TRP800  GLU811  SER814 

> <Gold.Protein.RotatedAtoms>
  152.5406  134.0551  159.8126 H   0  0  0  0  0  0  0  0  0  0  0  0  # atno 6907 bound_to 6896
  151.0687  133.5476  159.2636 H   0  0  0  0  0  0  0  0  0  0  0  0  # atno 6908 bound_to 6896
  151.2348  135.0575  159.9056 H   0  0  0  0  0  0  0  0  0  0  0  0  # atno 6909 bound_to 6896
  144.8338  140.5781  143.5497 H   0  0  0  0  0  0  0  0  0  0  0  0  # atno 7974 bound_to 7965
  154.5152  140.2203  155.9080 H   0  0  0  0  0  0  0  0  0  0  0  0  # atno 8008 bound_to 7997
  156.1599  140.3144  155.8755 H   0  0  0  0  0  0  0  0  0  0  0  0  # atno 8009 bound_to 7997
  155.3772  140.0470  157.3035 H   0  0  0  0  0  0  0  0  0  0  0  0  # atno 8010 bound_to 7997
  140.7219  143.5211  150.9633 H   0  0  0  0  0  0  0  0  0  0  0  0  # atno 10167 bound_to 10162
  156.7594  130.5265  149.5788 H   0  0  0  0  0  0  0  0  0  0  0  0  # atno 10718 bound_to 10713
  154.0290  135.6659  153.4779 H   0  0  0  0  0  0  0  0  0  0  0  0  # atno 10763 bound_to 10752
  153.0548  135.5062  154.7951 H   0  0  0  0  0  0  0  0  0  0  0  0  # atno 10764 bound_to 10752
  154.6890  135.3058  154.9471 H   0  0  0  0  0  0  0  0  0  0  0  0  # atno 10765 bound_to 10752
  140.2059  134.8303  157.3069 H   0  0  0  0  0  0  0  0  0  0  0  0  # atno 11005 bound_to 11000
  145.4838  139.1493  143.3747 LP  0  0  0  0  0  0  0  0  0  0  0  0  # atno 17320 bound_to 7965
  146.2639  140.4974  142.8842 LP  0  0  0  0  0  0  0  0  0  0  0  0  # atno 17321 bound_to 7965
  139.8928  143.6932  152.3143 LP  0  0  0  0  0  0  0  0  0  0  0  0  # atno 17342 bound_to 10162
  139.7254  144.7594  151.0888 LP  0  0  0  0  0  0  0  0  0  0  0  0  # atno 17343 bound_to 10162
  156.1349  130.6204  151.0386 LP  0  0  0  0  0  0  0  0  0  0  0  0  # atno 17370 bound_to 10713
  157.6741  131.0854  150.7538 LP  0  0  0  0  0  0  0  0  0  0  0  0  # atno 17371 bound_to 10713
  140.2003  134.4263  155.7666 LP  0  0  0  0  0  0  0  0  0  0  0  0  # atno 17394 bound_to 11000
  141.2227  133.7069  156.8172 LP  0  0  0  0  0  0  0  0  0  0  0  0  # atno 17395 bound_to 11000

$$$$
