AV-unprocessed.smi:1605|AV-procd|sdf|6459|dock3
  -GOLD-   22720 7113D 1   1.00000     0.00000
 Structure written by MMmdl.
 50 52  0  0  0  0  0  0  0  0  1 V2000
  147.2155  132.8516  152.1039 C   0  0  0  0  0  0  0  0  0  0  0  0
  147.2209  132.2721  153.3995 O   0  0  0  0  0  0  0  0  0  0  0  0
  148.0735  132.9270  154.3302 C   0  0  0  0  0  0  0  0  0  0  0  0
  147.6981  134.4122  154.4999 C   0  0  0  0  0  0  0  0  0  0  0  0
  148.7531  135.1459  155.3462 C   0  0  0  0  0  0  0  0  0  0  0  0
  150.1004  135.0478  154.7809 N   0  0  0  0  0  0  0  0  0  0  0  0
  151.0585  135.8314  155.5695 C   0  0  0  0  0  0  0  0  0  0  0  0
  151.2332  137.3118  155.1617 C   0  0  2  0  0  0  0  0  0  0  0  0
  151.8589  137.3659  153.8949 O   0  0  0  0  0  0  0  0  0  0  0  0
  151.9697  138.2187  156.1665 C   0  0  0  0  0  0  0  0  0  0  0  0
  151.3319  139.5156  156.3046 N   0  0  0  0  0  0  0  0  0  0  0  0
  150.3632  140.0328  155.5246 C   0  0  0  0  0  0  0  0  0  0  0  0
  149.9183  141.2481  155.8315 N   0  0  0  0  0  0  0  0  0  0  0  0
  150.6874  141.5542  156.9411 C   0  0  0  0  0  0  0  0  0  0  0  0
  150.7066  142.7095  157.7528 C   0  0  0  0  0  0  0  0  0  0  0  0
  151.5880  142.8078  158.8530 C   0  0  0  0  0  0  0  0  0  0  0  0
  151.5749  144.0689  159.6988 C   0  0  0  0  0  0  0  0  0  0  0  0
  152.4687  141.7383  159.1557 C   0  0  0  0  0  0  0  0  0  0  0  0
  153.4227  141.8208  160.3343 C   0  0  0  0  0  0  0  0  0  0  0  0
  152.4636  140.5774  158.3544 C   0  0  0  0  0  0  0  0  0  0  0  0
  151.5817  140.4918  157.2625 C   0  0  0  0  0  0  0  0  0  0  0  0
  150.4740  133.6314  154.6955 C   0  0  0  0  0  0  0  0  0  0  0  0
  149.5146  132.8250  153.8051 C   0  0  0  0  0  0  0  0  0  0  0  0
  146.5014  132.3214  151.4740 H   0  0  0  0  0  0  0  0  0  0  0  0
  148.1918  132.7831  151.6243 H   0  0  0  0  0  0  0  0  0  0  0  0
  146.9140  133.8992  152.1398 H   0  0  0  0  0  0  0  0  0  0  0  0
  148.0247  132.4218  155.2968 H   0  0  0  0  0  0  0  0  0  0  0  0
  147.6220  134.8878  153.5211 H   0  0  0  0  0  0  0  0  0  0  0  0
  146.7216  134.5134  154.9729 H   0  0  0  0  0  0  0  0  0  0  0  0
  148.4631  136.1946  155.4217 H   0  0  0  0  0  0  0  0  0  0  0  0
  148.7471  134.7502  156.3632 H   0  0  0  0  0  0  0  0  0  0  0  0
  150.7450  135.8377  156.6147 H   0  0  0  0  0  0  0  0  0  0  0  0
  152.0285  135.3322  155.5720 H   0  0  0  0  0  0  0  0  0  0  0  0
  150.2306  137.7184  155.0227 H   0  0  0  0  0  0  0  0  0  0  0  0
  151.2310  137.0953  153.2423 H   0  0  0  0  0  0  0  0  0  0  0  0
  151.9993  137.7493  157.1505 H   0  0  0  0  0  0  0  0  0  0  0  0
  153.0013  138.3825  155.8537 H   0  0  0  0  0  0  0  0  0  0  0  0
  149.9604  139.4851  154.6852 H   0  0  0  0  0  0  0  0  0  0  0  0
  150.0345  143.5232  157.5223 H   0  0  0  0  0  0  0  0  0  0  0  0
  152.5562  144.5441  159.6915 H   0  0  0  0  0  0  0  0  0  0  0  0
  151.3100  143.8343  160.7302 H   0  0  0  0  0  0  0  0  0  0  0  0
  150.8506  144.7926  159.3237 H   0  0  0  0  0  0  0  0  0  0  0  0
  154.0271  140.9175  160.4212 H   0  0  0  0  0  0  0  0  0  0  0  0
  152.8695  141.9441  161.2657 H   0  0  0  0  0  0  0  0  0  0  0  0
  154.1010  142.6666  160.2186 H   0  0  0  0  0  0  0  0  0  0  0  0
  153.1286  139.7552  158.5731 H   0  0  0  0  0  0  0  0  0  0  0  0
  151.4807  133.5159  154.3035 H   0  0  0  0  0  0  0  0  0  0  0  0
  150.4910  133.1934  155.6948 H   0  0  0  0  0  0  0  0  0  0  0  0
  149.8264  131.7807  153.7690 H   0  0  0  0  0  0  0  0  0  0  0  0
  149.5660  133.2011  152.7822 H   0  0  0  0  0  0  0  0  0  0  0  0
  1  2  1  0  0  0  0
  1 24  1  0  0  0  0
  1 25  1  0  0  0  0
  1 26  1  0  0  0  0
  2  3  1  0  0  0  0
  3 23  1  0  0  0  0
  3  4  1  0  0  0  0
  3 27  1  0  0  0  0
  4  5  1  0  0  0  0
  4 28  1  0  0  0  0
  4 29  1  0  0  0  0
  5  6  1  0  0  0  0
  5 30  1  0  0  0  0
  5 31  1  0  0  0  0
  6  7  1  0  0  0  0
  6 22  1  0  0  0  0
  7  8  1  0  0  0  0
  7 32  1  0  0  0  0
  7 33  1  0  0  0  0
  8  9  1  0  0  0  0
  8 10  1  0  0  0  0
  8 34  1  0  0  0  0
  9 35  1  0  0  0  0
 10 11  1  0  0  0  0
 10 36  1  0  0  0  0
 10 37  1  0  0  0  0
 11 21  1  0  0  0  0
 11 12  1  0  0  0  0
 12 13  2  0  0  0  0
 12 38  1  0  0  0  0
 13 14  1  0  0  0  0
 14 21  2  0  0  0  0
 14 15  1  0  0  0  0
 15 16  2  0  0  0  0
 15 39  1  0  0  0  0
 16 17  1  0  0  0  0
 16 18  1  0  0  0  0
 17 40  1  0  0  0  0
 17 41  1  0  0  0  0
 17 42  1  0  0  0  0
 18 19  1  0  0  0  0
 18 20  2  0  0  0  0
 19 43  1  0  0  0  0
 19 44  1  0  0  0  0
 19 45  1  0  0  0  0
 20 21  1  0  0  0  0
 20 46  1  0  0  0  0
 22 23  1  0  0  0  0
 22 47  1  0  0  0  0
 22 48  1  0  0  0  0
 23 49  1  0  0  0  0
 23 50  1  0  0  0  0
M  END
> <s_m_source_file>
AV-unprocessed.smi

> <i_m_source_file_index>
1605

> <i_lp_mmshare_version>
43012

> <i_f3d_flags>
0

> <s_epik_input>
W0NIM11PW0NIXTFbQ0gyXVtDSDJdTihbQ0gyXVtDSDJdMSlbQ0gyXVtDQEhdKFtPSF0pW0NIMl1uKFtjSF1uMiljKGMyMylbY0hdYyhbQ0gzXSljKFtjSF0zKVtDSDNd

> <s_epik_cmdline>
J2VwaWtfcHl0aG9uJywgJy1waCcsICc3LjAnLCAnLXRuJywgJzgnLCAnLW1hJywgJzIwMCcsICctbWV0YWxfYmluZGluZycsICctaW1hZScsICc8aW5maWxlLm1hZT4nLCAnLW9tYWUnLCAnPG91dGZpbGUubWFlPic=

> <r_epik_Ionization_Penalty>
2.02119

> <r_epik_Ionization_Penalty_Charging>
0

> <r_epik_Ionization_Penalty_Neutral>
2.02119

> <r_epik_State_Penalty>
2.11303

> <r_epik_Charging_Adjusted_Penalty>
2.11303

> <i_epik_Tot_Q>
0

> <i_epik_Tot_abs_Q>
0

> <r_epik_Metal_State_Penalty>
2.04251

> <b_epik_Metal_Only>
0

> <s_lp_Force_Field>
OPLS_2005

> <r_lp_Energy>
37.9414

> <b_lp_Chiralities_Consistent>
1

> <s_lp_Variant>
AV-unprocessed.smi:1605-9

> <Gold.Version>
5.8.1

> <Gold.Id.Protein>
6NUR|6NUR_protein|mol2

> <Gold.PLP.Fitness>
47.8371

> <Gold.PLP.PLP>
-44.1771

> <Gold.PLP.part.hbond>
-2.8558

> <Gold.PLP.part.metal>
0.0000

> <Gold.PLP.part.buried>
-3.5685

> <Gold.PLP.part.nonpolar>
-38.0795

> <Gold.PLP.part.repulsive>
0.3647

> <Gold.PLP.ligand.clash>
0.0000

> <Gold.PLP.ligand.torsion>
1.1131

> <Gold.PLP.Chemscore.Hbond>
1.9440

> <Gold.PLP.Chemscore.CHOScore>
0.0000

> <Gold.PLP.Chemscore.Metal>
0.0000

> <Gold.Chemscore.Hbonds>
donor molecule, donor type, donor heavy atom, donor atom, acceptor molecule, acceptor atom, score
      L1  H     9    35       P1  7949  0.70
      P1  H 10752 10764       L1     9  0.75

> <Gold.PLP.Chemscore.Internal.Correction>
0.0543

> <Gold.Rescore>
     Score         DG    S(hbond)    S(metal)    S(lipo)     H(rot)  DE(clash)    DE(int)     intcor
     17.13     -18.16       1.38        0.00     115.91       2.14       0.11       0.92       ----

> <Gold.Chemscore.Fitness>
17.1326

> <Gold.Chemscore.DG>
-18.1590

> <Gold.Chemscore.ZeroCoef>
-5.4800

> <Gold.Chemscore.Hbond>
1.3791

> <Gold.Chemscore.Metal>
0.0000

> <Gold.Chemscore.Lipo>
115.9058

> <Gold.Chemscore.Internal_Hbond>
0.0000

> <Gold.Chemscore.DEClash>
0.1089

> <Gold.Chemscore.DEInternal>
0.9175

> <Gold.Chemscore.Rot>
2.1438

> <Gold.Chemscore.Internal.Correction>
   9.000000E+99

> <Gold.Chemscore.Hbonds>
donor molecule, donor type, donor heavy atom, donor atom, acceptor molecule, acceptor atom, score
      L1  H     9    35       P1  7949  0.41
      P1  H 10752 10764       L1     9  0.03

> <Gold.Chemscore.Hbond.Weighted>
-4.6061

> <Gold.Chemscore.Metal.Weighted>
-0.0000

> <Gold.Chemscore.Lipo.Weighted>
-13.5610

> <Gold.Chemscore.Internal_Hbond.Weighted>
0.0000

> <Gold.Chemscore.DEClash.Weighted>
0.1089

> <Gold.Chemscore.DEInternal.Weighted>
0.9175

> <Gold.Chemscore.Rot.Weighted>
5.4881

> <Gold.Chemscore.Internal.Correction.Weighted>
   9.000000E+99

> <Gold.Protein.RotatedTorsions>
[ 6907 6896 6895 6894 ] final -134.51 input  -60.11 | X-H torsion
[ 7974 7965 7964 7962 ] final   10.87 input  175.53 | X-H torsion
[ 8008 7997 7996 7995 ] final  102.24 input   59.86 | X-H torsion
[ 10167 10162 10161 10158 ] final  -30.65 input  -65.29 | X-H torsion
[ 10718 10713 10712 10709 ] final    3.46 input   66.30 | X-H torsion
[ 10763 10752 10751 10750 ] final  -84.63 input  -60.55 | X-H torsion
[ 11005 11000 10999 10996 ] final -149.03 input  -57.11 | X-H torsion

> <Gold.Protein.ActiveResidues>
 VAL166  LYS551  ARG553  GLY616  TRP617  ASP618  TYR619  PRO620  LYS621  CYS622 
 ASP623  PHE694  ASN695  SER759  ASP760  ASP761  ALA762  ILE779  LEU786  VAL792 
 PHE793  MET794  SER795  GLU796  ALA797  LYS798  CYS799  TRP800  GLU811  SER814 

> <Gold.Protein.RotatedAtoms>
  150.9867  133.6190  159.2714 H   0  0  0  0  0  0  0  0  0  0  0  0  # atno 6907 bound_to 6896
  151.3426  135.0866  159.9386 H   0  0  0  0  0  0  0  0  0  0  0  0  # atno 6908 bound_to 6896
  152.5233  133.9475  159.7710 H   0  0  0  0  0  0  0  0  0  0  0  0  # atno 6909 bound_to 6896
  146.2381  139.9570  142.8463 H   0  0  0  0  0  0  0  0  0  0  0  0  # atno 7974 bound_to 7965
  156.1375  140.3184  155.8443 H   0  0  0  0  0  0  0  0  0  0  0  0  # atno 8008 bound_to 7997
  155.4217  140.0513  157.3042 H   0  0  0  0  0  0  0  0  0  0  0  0  # atno 8009 bound_to 7997
  154.4948  140.2106  155.9482 H   0  0  0  0  0  0  0  0  0  0  0  0  # atno 8010 bound_to 7997
  140.7246  143.3832  151.1563 H   0  0  0  0  0  0  0  0  0  0  0  0  # atno 10167 bound_to 10162
  156.8782  130.5644  149.5654 H   0  0  0  0  0  0  0  0  0  0  0  0  # atno 10718 bound_to 10713
  154.6018  135.5513  153.7382 H   0  0  0  0  0  0  0  0  0  0  0  0  # atno 10763 bound_to 10752
  153.0158  135.6368  154.1704 H   0  0  0  0  0  0  0  0  0  0  0  0  # atno 10764 bound_to 10752
  154.1643  135.2895  155.3079 H   0  0  0  0  0  0  0  0  0  0  0  0  # atno 10765 bound_to 10752
  140.7550  134.3363  157.5116 H   0  0  0  0  0  0  0  0  0  0  0  0  # atno 11005 bound_to 11000
  145.1807  140.9766  143.4268 LP  0  0  0  0  0  0  0  0  0  0  0  0  # atno 17320 bound_to 7965
  144.9945  139.3658  143.6198 LP  0  0  0  0  0  0  0  0  0  0  0  0  # atno 17321 bound_to 7965
  139.7424  143.8903  152.3054 LP  0  0  0  0  0  0  0  0  0  0  0  0  # atno 17342 bound_to 10162
  139.8729  144.7058  150.8966 LP  0  0  0  0  0  0  0  0  0  0  0  0  # atno 17343 bound_to 10162
  156.0691  130.5728  150.9348 LP  0  0  0  0  0  0  0  0  0  0  0  0  # atno 17370 bound_to 10713
  157.6156  131.0933  150.8716 LP  0  0  0  0  0  0  0  0  0  0  0  0  # atno 17371 bound_to 10713
  139.8781  134.9166  156.3158 LP  0  0  0  0  0  0  0  0  0  0  0  0  # atno 17394 bound_to 11000
  140.9716  133.7324  156.0542 LP  0  0  0  0  0  0  0  0  0  0  0  0  # atno 17395 bound_to 11000

$$$$
