AV-unprocessed.smi:3031|AV-procd|sdf|11541|dock6
  -GOLD-   2272016493D 1   1.00000     0.00000
 Structure written by MMmdl.
 47 48  0  0  0  0  0  0  0  0  2 V2000
  143.5024  131.7372  150.5398 C   0  0  0  0  0  0  0  0  0  0  0  0
  144.0924  133.0127  151.0687 C   0  0  0  0  0  0  0  0  0  0  0  0
  144.3780  133.3505  152.4223 C   0  0  0  0  0  0  0  0  0  0  0  0
  144.8964  134.5609  152.5513 N   0  0  0  0  0  0  0  0  0  0  0  0
  144.9603  135.0364  151.2897 N   0  0  0  0  0  0  0  0  0  0  0  0
  145.4777  136.3705  151.0469 C   0  0  0  0  0  0  0  0  0  0  0  0
  145.3010  137.3116  152.2571 C   0  0  2  0  0  0  0  0  0  0  0  0
  143.8731  137.2193  152.8117 C   0  0  0  0  0  0  0  0  0  0  0  0
  145.5957  138.7160  151.8918 N   0  3  0  0  0  0  0  0  0  0  0  0
  146.9391  139.1973  152.2812 C   0  0  0  0  0  0  0  0  0  0  0  0
  147.0572  139.3589  153.8080 C   0  0  2  0  0  0  0  0  0  0  0  0
  146.2347  140.4476  154.1810 O   0  0  0  0  0  0  0  0  0  0  0  0
  148.4726  139.6859  154.3376 C   0  0  0  0  0  0  0  0  0  0  0  0
  149.4805  138.6324  154.1847 N   0  0  0  0  0  0  0  0  0  0  0  0
  150.8246  139.0784  154.5544 C   0  0  0  0  0  0  0  0  0  0  0  0
  151.8660  137.9553  154.4045 C   0  0  0  0  0  0  0  0  0  0  0  0
  151.4815  136.8402  155.2008 O   0  0  0  0  0  0  0  0  0  0  0  0
  150.1913  136.3444  154.8617 C   0  0  0  0  0  0  0  0  0  0  0  0
  149.1524  137.4701  155.0078 C   0  0  0  0  0  0  0  0  0  0  0  0
  144.4834  134.1224  150.3746 C   0  0  0  0  0  0  0  0  0  0  0  0
  143.4165  130.9768  151.3165 H   0  0  0  0  0  0  0  0  0  0  0  0
  144.1122  131.3125  149.7421 H   0  0  0  0  0  0  0  0  0  0  0  0
  142.5033  131.8950  150.1333 H   0  0  0  0  0  0  0  0  0  0  0  0
  144.2232  132.7553  153.3104 H   0  0  0  0  0  0  0  0  0  0  0  0
  146.5298  136.2998  150.7645 H   0  0  0  0  0  0  0  0  0  0  0  0
  144.9533  136.7752  150.1804 H   0  0  0  0  0  0  0  0  0  0  0  0
  145.9777  136.9973  153.0537 H   0  0  0  0  0  0  0  0  0  0  0  0
  143.6367  136.2002  153.1199 H   0  0  0  0  0  0  0  0  0  0  0  0
  143.1355  137.5202  152.0667 H   0  0  0  0  0  0  0  0  0  0  0  0
  143.7478  137.8616  153.6840 H   0  0  0  0  0  0  0  0  0  0  0  0
  145.4934  138.8164  150.8913 H   0  0  0  0  0  0  0  0  0  0  0  0
  147.6465  138.4537  151.9221 H   0  0  0  0  0  0  0  0  0  0  0  0
  147.1693  140.1387  151.7822 H   0  0  0  0  0  0  0  0  0  0  0  0
  146.6789  138.4660  154.3076 H   0  0  0  0  0  0  0  0  0  0  0  0
  145.4068  140.3680  153.7314 H   0  0  0  0  0  0  0  0  0  0  0  0
  148.8353  140.6248  153.9161 H   0  0  0  0  0  0  0  0  0  0  0  0
  148.3538  139.8845  155.4044 H   0  0  0  0  0  0  0  0  0  0  0  0
  151.1407  139.9224  153.9493 H   0  0  0  0  0  0  0  0  0  0  0  0
  150.8261  139.4273  155.5883 H   0  0  0  0  0  0  0  0  0  0  0  0
  151.9609  137.6524  153.3607 H   0  0  0  0  0  0  0  0  0  0  0  0
  152.8475  138.3021  154.7287 H   0  0  0  0  0  0  0  0  0  0  0  0
  150.1993  135.9558  153.8422 H   0  0  0  0  0  0  0  0  0  0  0  0
  149.9444  135.5117  155.5204 H   0  0  0  0  0  0  0  0  0  0  0  0
  149.0839  137.7653  156.0562 H   0  0  0  0  0  0  0  0  0  0  0  0
  148.1720  137.0824  154.7284 H   0  0  0  0  0  0  0  0  0  0  0  0
  144.4586  134.3365  149.3163 H   0  0  0  0  0  0  0  0  0  0  0  0
  144.9170  139.3114  152.3440 H   0  0  0  0  0  0  0  0  0  0  0  0
  1  2  1  0  0  0  0
  1 21  1  0  0  0  0
  1 22  1  0  0  0  0
  1 23  1  0  0  0  0
  2 20  2  0  0  0  0
  2  3  1  0  0  0  0
  3  4  2  0  0  0  0
  3 24  1  0  0  0  0
  4  5  1  0  0  0  0
  5  6  1  0  0  0  0
  5 20  1  0  0  0  0
  6  7  1  0  0  0  0
  6 25  1  0  0  0  0
  6 26  1  0  0  0  0
  7  8  1  0  0  0  0
  7  9  1  0  0  0  0
  7 27  1  0  0  0  0
  8 28  1  0  0  0  0
  8 29  1  0  0  0  0
  8 30  1  0  0  0  0
  9 10  1  0  0  0  0
  9 31  1  0  0  0  0
  9 47  1  0  0  0  0
 10 11  1  0  0  0  0
 10 32  1  0  0  0  0
 10 33  1  0  0  0  0
 11 12  1  0  0  0  0
 11 13  1  0  0  0  0
 11 34  1  0  0  0  0
 12 35  1  0  0  0  0
 13 14  1  0  0  0  0
 13 36  1  0  0  0  0
 13 37  1  0  0  0  0
 14 19  1  0  0  0  0
 14 15  1  0  0  0  0
 15 16  1  0  0  0  0
 15 38  1  0  0  0  0
 15 39  1  0  0  0  0
 16 17  1  0  0  0  0
 16 40  1  0  0  0  0
 16 41  1  0  0  0  0
 17 18  1  0  0  0  0
 18 19  1  0  0  0  0
 18 42  1  0  0  0  0
 18 43  1  0  0  0  0
 19 44  1  0  0  0  0
 19 45  1  0  0  0  0
 20 46  1  0  0  0  0
M  CHG  1   9   1
M  END
> <s_m_source_file>
AV-unprocessed.smi

> <i_m_source_file_index>
3031

> <i_lp_mmshare_version>
43012

> <i_f3d_flags>
0

> <s_epik_input>
W0NIM11jMVtjSF1ubihbY0hdMSlbQ0gyXVtDQEhdKFtDSDNdKVtOSF1bQ0gyXVtDQEhdKFtPSF0pW0NIMl1OMltDSDJdW0NIMl1PW0NIMl1bQ0gyXTI=

> <s_epik_cmdline>
J2VwaWtfcHl0aG9uJywgJy1waCcsICc3LjAnLCAnLXRuJywgJzgnLCAnLW1hJywgJzIwMCcsICctbWV0YWxfYmluZGluZycsICctaW1hZScsICc8aW5maWxlLm1hZT4nLCAnLW9tYWUnLCAnPG91dGZpbGUubWFlPic=

> <r_lp_tautomer_probability>
1

> <r_epik_Ionization_Penalty>
0.108564

> <r_epik_Ionization_Penalty_Charging>
0.01811

> <r_epik_Ionization_Penalty_Neutral>
0.0904541

> <r_epik_State_Penalty>
0.141043

> <r_epik_Charging_Adjusted_Penalty>
0.159153

> <i_epik_Tot_Q>
1

> <i_epik_Tot_abs_Q>
1

> <r_epik_Metal_State_Penalty>
0.141052

> <b_epik_Metal_Only>
0

> <s_lp_Force_Field>
OPLS_2005

> <r_lp_Energy>
31.5788

> <b_lp_Chiralities_Consistent>
1

> <s_lp_Variant>
AV-unprocessed.smi:3031-1

> <Gold.Version>
5.8.1

> <Gold.Id.Protein>
6NUR|6NUR_protein|mol2

> <Gold.PLP.Fitness>
51.7517

> <Gold.PLP.PLP>
-34.7755

> <Gold.PLP.part.hbond>
-3.9053

> <Gold.PLP.part.metal>
0.0000

> <Gold.PLP.part.buried>
-0.1627

> <Gold.PLP.part.nonpolar>
-31.8695

> <Gold.PLP.part.repulsive>
0.4256

> <Gold.PLP.ligand.clash>
0.0000

> <Gold.PLP.ligand.torsion>
1.1209

> <Gold.PLP.Chemscore.Hbond>
4.3308

> <Gold.PLP.Chemscore.CHOScore>
2.0000

> <Gold.PLP.Chemscore.Metal>
0.0000

> <Gold.Chemscore.Hbonds>
donor molecule, donor type, donor heavy atom, donor atom, acceptor molecule, acceptor atom, score
      L1  H     9    31       P1 10171  0.58
      L1  H     9    47       P1 10175  2.00
      L1  H    12    35       P1 10175  0.75
      P1  H 10752 10763       L1    17  0.85
      L1  C     3    24       P1 10957  1.00
      L1  C    20    46       P1  7921  1.00

> <Gold.PLP.Chemscore.Internal.Correction>
0.2257

> <Gold.Rescore>
     Score         DG    S(hbond)    S(metal)    S(lipo)     H(rot)  DE(clash)    DE(int)     intcor
     17.55     -18.54       2.75        0.00      90.63       2.63       0.29       0.70       ----

> <Gold.Chemscore.Fitness>
17.5503

> <Gold.Chemscore.DG>
-18.5397

> <Gold.Chemscore.ZeroCoef>
-5.4800

> <Gold.Chemscore.Hbond>
2.7490

> <Gold.Chemscore.Metal>
0.0000

> <Gold.Chemscore.Lipo>
90.6258

> <Gold.Chemscore.Internal_Hbond>
0.0000

> <Gold.Chemscore.DEClash>
0.2853

> <Gold.Chemscore.DEInternal>
0.7042

> <Gold.Chemscore.Rot>
2.6270

> <Gold.Chemscore.Internal.Correction>
   9.000000E+99

> <Gold.Chemscore.Hbonds>
donor molecule, donor type, donor heavy atom, donor atom, acceptor molecule, acceptor atom, score
      L1  H     9    31       P1 10171  0.58
      L1  H     9    47       P1 10175  0.99
      L1  H    12    35       P1 10175  0.73
      P1  H 10752 10763       L1    17  0.11

> <Gold.Chemscore.Hbond.Weighted>
-9.1816

> <Gold.Chemscore.Metal.Weighted>
-0.0000

> <Gold.Chemscore.Lipo.Weighted>
-10.6032

> <Gold.Chemscore.Internal_Hbond.Weighted>
0.0000

> <Gold.Chemscore.DEClash.Weighted>
0.2853

> <Gold.Chemscore.DEInternal.Weighted>
0.7042

> <Gold.Chemscore.Rot.Weighted>
6.7251

> <Gold.Chemscore.Internal.Correction.Weighted>
   9.000000E+99

> <Gold.Protein.RotatedTorsions>
[ 6907 6896 6895 6894 ] final  128.11 input  -60.11 | X-H torsion
[ 7974 7965 7964 7962 ] final   17.02 input  175.53 | X-H torsion
[ 8008 7997 7996 7995 ] final   38.35 input   59.86 | X-H torsion
[ 10167 10162 10161 10158 ] final -178.45 input  -65.29 | X-H torsion
[ 10718 10713 10712 10709 ] final   81.63 input   66.30 | X-H torsion
[ 10763 10752 10751 10750 ] final   58.73 input  -60.55 | X-H torsion
[ 11005 11000 10999 10996 ] final  143.74 input  -57.11 | X-H torsion

> <Gold.Protein.ActiveResidues>
 VAL166  LYS551  ARG553  GLY616  TRP617  ASP618  TYR619  PRO620  LYS621  CYS622 
 ASP623  PHE694  ASN695  SER759  ASP760  ASP761  ALA762  ILE779  LEU786  VAL792 
 PHE793  MET794  SER795  GLU796  ALA797  LYS798  CYS799  TRP800  GLU811  SER814 

> <Gold.Protein.RotatedAtoms>
  152.3750  133.6469  159.6115 H   0  0  0  0  0  0  0  0  0  0  0  0  # atno 6907 bound_to 6896
  150.7697  133.9209  159.3406 H   0  0  0  0  0  0  0  0  0  0  0  0  # atno 6908 bound_to 6896
  151.7025  135.0929  160.0304 H   0  0  0  0  0  0  0  0  0  0  0  0  # atno 6909 bound_to 6896
  146.2231  139.8663  142.8595 H   0  0  0  0  0  0  0  0  0  0  0  0  # atno 7974 bound_to 7965
  155.2187  140.3329  155.4318 H   0  0  0  0  0  0  0  0  0  0  0  0  # atno 8008 bound_to 7997
  156.2342  140.1864  156.7211 H   0  0  0  0  0  0  0  0  0  0  0  0  # atno 8009 bound_to 7997
  154.6030  140.0620  156.9379 H   0  0  0  0  0  0  0  0  0  0  0  0  # atno 8010 bound_to 7997
  139.5432  144.2306  152.0936 H   0  0  0  0  0  0  0  0  0  0  0  0  # atno 10167 bound_to 10162
  157.6838  131.0012  150.2255 H   0  0  0  0  0  0  0  0  0  0  0  0  # atno 10718 bound_to 10713
  152.9877  135.5596  154.5599 H   0  0  0  0  0  0  0  0  0  0  0  0  # atno 10763 bound_to 10752
  154.5020  135.2798  155.1415 H   0  0  0  0  0  0  0  0  0  0  0  0  # atno 10764 bound_to 10752
  154.2842  135.6339  153.5412 H   0  0  0  0  0  0  0  0  0  0  0  0  # atno 10765 bound_to 10752
  140.0578  134.9221  157.1130 H   0  0  0  0  0  0  0  0  0  0  0  0  # atno 11005 bound_to 11000
  145.2653  141.0091  143.3803 LP  0  0  0  0  0  0  0  0  0  0  0  0  # atno 17320 bound_to 7965
  144.9266  139.4348  143.6515 LP  0  0  0  0  0  0  0  0  0  0  0  0  # atno 17321 bound_to 7965
  140.1788  144.4864  150.6539 LP  0  0  0  0  0  0  0  0  0  0  0  0  # atno 17342 bound_to 10162
  140.6670  143.2271  151.5718 LP  0  0  0  0  0  0  0  0  0  0  0  0  # atno 17343 bound_to 10162
  156.2898  130.3744  149.7852 LP  0  0  0  0  0  0  0  0  0  0  0  0  # atno 17370 bound_to 10713
  156.5515  130.8344  151.3301 LP  0  0  0  0  0  0  0  0  0  0  0  0  # atno 17371 bound_to 10713
  140.3817  134.2279  155.7170 LP  0  0  0  0  0  0  0  0  0  0  0  0  # atno 17394 bound_to 11000
  141.1960  133.8093  157.0692 LP  0  0  0  0  0  0  0  0  0  0  0  0  # atno 17395 bound_to 11000

$$$$
