AV-unprocessed.smi:2821|AV-procd|sdf|10858|dock10
  -GOLD-   2272015303D 1   1.00000     0.00000
 Structure written by MMmdl.
 36 37  0  0  0  0  0  0  0  0  1 V2000
  153.4359  142.1665  162.0437 C   0  0  0  0  0  0  0  0  0  0  0  0
  154.2089  141.6987  160.8083 C   0  0  0  0  0  0  0  0  0  0  0  0
  153.2767  141.2848  159.8140 O   0  0  0  0  0  0  0  0  0  0  0  0
  152.5761  142.2563  159.1294 C   0  0  0  0  0  0  0  0  0  0  0  0
  152.7480  143.6132  159.4765 C   0  0  0  0  0  0  0  0  0  0  0  0
  152.0880  144.6041  158.8376 N   0  0  0  0  0  0  0  0  0  0  0  0
  151.2500  144.2315  157.8449 C   0  0  0  0  0  0  0  0  0  0  0  0
  151.0668  142.8774  157.4865 C   0  0  0  0  0  0  0  0  0  0  0  0
  150.1777  142.5547  156.4509 N   0  0  0  0  0  0  0  0  0  0  0  0
  149.9803  141.1795  155.9995 C   0  0  2  0  0  0  0  0  0  0  0  0
  151.3240  140.4989  155.6878 C   0  0  0  0  0  0  0  0  0  0  0  0
  149.0324  141.1263  154.7848 C   0  0  1  0  0  0  0  0  0  0  0  0
  148.5720  139.7261  154.3707 C   0  0  0  0  0  0  0  0  0  0  0  0
  147.2847  140.0395  153.6425 C   0  0  0  0  0  0  0  0  0  0  0  0
  146.7141  141.1692  154.4951 C   0  0  0  0  0  0  0  0  0  0  0  0
  147.8393  141.8754  155.0109 O   0  0  0  0  0  0  0  0  0  0  0  0
  151.7315  141.8896  158.1326 N   0  0  0  0  0  0  0  0  0  0  0  0
  154.1180  142.4933  162.8289 H   0  0  0  0  0  0  0  0  0  0  0  0
  152.8214  141.3621  162.4486 H   0  0  0  0  0  0  0  0  0  0  0  0
  152.7789  143.0022  161.8020 H   0  0  0  0  0  0  0  0  0  0  0  0
  154.8280  142.5149  160.4317 H   0  0  0  0  0  0  0  0  0  0  0  0
  154.8680  140.8732  161.0822 H   0  0  0  0  0  0  0  0  0  0  0  0
  153.4190  143.9050  160.2711 H   0  0  0  0  0  0  0  0  0  0  0  0
  150.7213  145.0233  157.3341 H   0  0  0  0  0  0  0  0  0  0  0  0
  149.7467  143.2969  155.9184 H   0  0  0  0  0  0  0  0  0  0  0  0
  149.4977  140.6187  156.8007 H   0  0  0  0  0  0  0  0  0  0  0  0
  151.1746  139.4658  155.3736 H   0  0  0  0  0  0  0  0  0  0  0  0
  151.9771  140.4809  156.5602 H   0  0  0  0  0  0  0  0  0  0  0  0
  151.8543  141.0159  154.8873 H   0  0  0  0  0  0  0  0  0  0  0  0
  149.5295  141.5788  153.9251 H   0  0  0  0  0  0  0  0  0  0  0  0
  149.3011  139.2068  153.7479 H   0  0  0  0  0  0  0  0  0  0  0  0
  148.3603  139.1011  155.2392 H   0  0  0  0  0  0  0  0  0  0  0  0
  147.5018  140.4000  152.6360 H   0  0  0  0  0  0  0  0  0  0  0  0
  146.6142  139.1837  153.5636 H   0  0  0  0  0  0  0  0  0  0  0  0
  146.0541  141.8273  153.9294 H   0  0  0  0  0  0  0  0  0  0  0  0
  146.1487  140.7623  155.3344 H   0  0  0  0  0  0  0  0  0  0  0  0
  1  2  1  0  0  0  0
  1 18  1  0  0  0  0
  1 19  1  0  0  0  0
  1 20  1  0  0  0  0
  2  3  1  0  0  0  0
  2 21  1  0  0  0  0
  2 22  1  0  0  0  0
  3  4  1  0  0  0  0
  4 17  1  0  0  0  0
  4  5  2  0  0  0  0
  5  6  1  0  0  0  0
  5 23  1  0  0  0  0
  6  7  2  0  0  0  0
  7  8  1  0  0  0  0
  7 24  1  0  0  0  0
  8  9  1  0  0  0  0
  8 17  2  0  0  0  0
  9 10  1  0  0  0  0
  9 25  1  0  0  0  0
 10 11  1  0  0  0  0
 10 12  1  0  0  0  0
 10 26  1  0  0  0  0
 11 27  1  0  0  0  0
 11 28  1  0  0  0  0
 11 29  1  0  0  0  0
 12 16  1  0  0  0  0
 12 13  1  0  0  0  0
 12 30  1  0  0  0  0
 13 14  1  0  0  0  0
 13 31  1  0  0  0  0
 13 32  1  0  0  0  0
 14 15  1  0  0  0  0
 14 33  1  0  0  0  0
 14 34  1  0  0  0  0
 15 16  1  0  0  0  0
 15 35  1  0  0  0  0
 15 36  1  0  0  0  0
M  END
> <s_m_source_file>
AV-unprocessed.smi

> <i_m_source_file_index>
2821

> <i_lp_mmshare_version>
43012

> <i_f3d_flags>
0

> <s_epik_input>
W0NIM11bQ0gyXU9jMVtjSF1uW2NIXWMobjEpW05IXVtDQEhdKFtDSDNdKVtDQEBIXTJbQ0gyXVtDSDJdW0NIMl1PMg==

> <s_epik_cmdline>
J2VwaWtfcHl0aG9uJywgJy1waCcsICc3LjAnLCAnLXRuJywgJzgnLCAnLW1hJywgJzIwMCcsICctbWV0YWxfYmluZGluZycsICctaW1hZScsICc8aW5maWxlLm1hZT4nLCAnLW9tYWUnLCAnPG91dGZpbGUubWFlPic=

> <r_lp_tautomer_probability>
1

> <r_epik_Ionization_Penalty>
4.69533e-05

> <r_epik_Ionization_Penalty_Charging>
0

> <r_epik_Ionization_Penalty_Neutral>
4.69533e-05

> <r_epik_State_Penalty>
-0

> <r_epik_Charging_Adjusted_Penalty>
0

> <i_epik_Tot_Q>
0

> <i_epik_Tot_abs_Q>
0

> <r_epik_Metal_State_Penalty>
-0

> <b_epik_Metal_Only>
0

> <s_lp_Force_Field>
OPLS_2005

> <r_lp_Energy>
29.921

> <b_lp_Chiralities_Consistent>
1

> <s_lp_Variant>
AV-unprocessed.smi:2821-3

> <Gold.Version>
5.8.1

> <Gold.Id.Protein>
6NUR|6NUR_protein|mol2

> <Gold.PLP.Fitness>
44.1274

> <Gold.PLP.PLP>
-39.2889

> <Gold.PLP.part.hbond>
-1.0000

> <Gold.PLP.part.metal>
0.0000

> <Gold.PLP.part.buried>
-5.1199

> <Gold.PLP.part.nonpolar>
-35.5273

> <Gold.PLP.part.repulsive>
1.3077

> <Gold.PLP.ligand.clash>
0.0000

> <Gold.PLP.ligand.torsion>
0.1748

> <Gold.PLP.Chemscore.Hbond>
0.8480

> <Gold.PLP.Chemscore.CHOScore>
0.8655

> <Gold.PLP.Chemscore.Metal>
0.0000

> <Gold.Chemscore.Hbonds>
donor molecule, donor type, donor heavy atom, donor atom, acceptor molecule, acceptor atom, score
      L1  H     9    25       P1  8028  1.00
      L1  C     7    24       P1  8028  0.95

> <Gold.PLP.Chemscore.Internal.Correction>
0.0478

> <Gold.Rescore>
     Score         DG    S(hbond)    S(metal)    S(lipo)     H(rot)  DE(clash)    DE(int)     intcor
     13.72     -14.05       0.90        0.00      81.58       1.55       0.11       0.22       ----

> <Gold.Chemscore.Fitness>
13.7172

> <Gold.Chemscore.DG>
-14.0484

> <Gold.Chemscore.ZeroCoef>
-5.4800

> <Gold.Chemscore.Hbond>
0.8968

> <Gold.Chemscore.Metal>
0.0000

> <Gold.Chemscore.Lipo>
81.5762

> <Gold.Chemscore.Internal_Hbond>
0.0000

> <Gold.Chemscore.DEClash>
0.1103

> <Gold.Chemscore.DEInternal>
0.2209

> <Gold.Chemscore.Rot>
1.5514

> <Gold.Chemscore.Internal.Correction>
   9.000000E+99

> <Gold.Chemscore.Hbonds>
donor molecule, donor type, donor heavy atom, donor atom, acceptor molecule, acceptor atom, score
      L1  H     9    25       P1  8028  0.99

> <Gold.Chemscore.Hbond.Weighted>
-2.9954

> <Gold.Chemscore.Metal.Weighted>
-0.0000

> <Gold.Chemscore.Lipo.Weighted>
-9.5444

> <Gold.Chemscore.Internal_Hbond.Weighted>
0.0000

> <Gold.Chemscore.DEClash.Weighted>
0.1103

> <Gold.Chemscore.DEInternal.Weighted>
0.2209

> <Gold.Chemscore.Rot.Weighted>
3.9715

> <Gold.Chemscore.Internal.Correction.Weighted>
   9.000000E+99

> <Gold.Protein.RotatedTorsions>
[ 6907 6896 6895 6894 ] final  -91.92 input  -60.11 | X-H torsion
[ 7974 7965 7964 7962 ] final  111.52 input  175.53 | X-H torsion
[ 8008 7997 7996 7995 ] final  -70.02 input   59.86 | X-H torsion
[ 10167 10162 10161 10158 ] final  -65.00 input  -65.29 | X-H torsion
[ 10718 10713 10712 10709 ] final  177.64 input   66.30 | X-H torsion
[ 10763 10752 10751 10750 ] final   -7.66 input  -60.55 | X-H torsion
[ 11005 11000 10999 10996 ] final -164.39 input  -57.11 | X-H torsion

> <Gold.Protein.ActiveResidues>
 VAL166  LYS551  ARG553  GLY616  TRP617  ASP618  TYR619  PRO620  LYS621  CYS622 
 ASP623  PHE694  ASN695  SER759  ASP760  ASP761  ALA762  ILE779  LEU786  VAL792 
 PHE793  MET794  SER795  GLU796  ALA797  LYS798  CYS799  TRP800  GLU811  SER814 

> <Gold.Protein.RotatedAtoms>
  150.6899  134.2203  159.4393 H   0  0  0  0  0  0  0  0  0  0  0  0  # atno 6907 bound_to 6896
  152.0159  134.9847  160.0578 H   0  0  0  0  0  0  0  0  0  0  0  0  # atno 6908 bound_to 6896
  152.1443  133.4448  159.4819 H   0  0  0  0  0  0  0  0  0  0  0  0  # atno 6909 bound_to 6896
  145.2412  139.2778  143.4117 H   0  0  0  0  0  0  0  0  0  0  0  0  # atno 7974 bound_to 7965
  154.4981  140.0842  156.7740 H   0  0  0  0  0  0  0  0  0  0  0  0  # atno 8008 bound_to 7997
  155.4068  140.3439  155.4242 H   0  0  0  0  0  0  0  0  0  0  0  0  # atno 8009 bound_to 7997
  156.1420  140.1532  156.8893 H   0  0  0  0  0  0  0  0  0  0  0  0  # atno 8010 bound_to 7997
  140.5761  143.2322  151.6439 H   0  0  0  0  0  0  0  0  0  0  0  0  # atno 10167 bound_to 10162
  156.9024  130.9883  151.3033 H   0  0  0  0  0  0  0  0  0  0  0  0  # atno 10718 bound_to 10713
  153.4295  135.7011  153.6240 H   0  0  0  0  0  0  0  0  0  0  0  0  # atno 10763 bound_to 10752
  153.4661  135.3725  155.2365 H   0  0  0  0  0  0  0  0  0  0  0  0  # atno 10764 bound_to 10752
  154.8725  135.4032  154.3676 H   0  0  0  0  0  0  0  0  0  0  0  0  # atno 10765 bound_to 10752
  140.5875  134.5079  157.5188 H   0  0  0  0  0  0  0  0  0  0  0  0  # atno 11005 bound_to 11000
  146.3328  140.2776  142.8609 LP  0  0  0  0  0  0  0  0  0  0  0  0  # atno 17320 bound_to 7965
  144.9587  140.8253  143.5527 LP  0  0  0  0  0  0  0  0  0  0  0  0  # atno 17321 bound_to 7965
  139.5143  144.3414  152.0737 LP  0  0  0  0  0  0  0  0  0  0  0  0  # atno 17342 bound_to 10162
  140.2558  144.4121  150.6204 LP  0  0  0  0  0  0  0  0  0  0  0  0  # atno 17343 bound_to 10162
  157.6018  130.8518  149.8813 LP  0  0  0  0  0  0  0  0  0  0  0  0  # atno 17370 bound_to 10713
  156.0575  130.3705  150.1057 LP  0  0  0  0  0  0  0  0  0  0  0  0  # atno 17371 bound_to 10713
  139.9289  134.8001  156.0987 LP  0  0  0  0  0  0  0  0  0  0  0  0  # atno 17394 bound_to 11000
  141.0957  133.6696  156.2639 LP  0  0  0  0  0  0  0  0  0  0  0  0  # atno 17395 bound_to 11000

$$$$
