AV-unprocessed.smi:1071|AV-procd|sdf|4682|dock2
  -GOLD-   22720 3203D 1   1.00000     0.00000
 Structure written by MMmdl.
 46 47  0  0  0  0  0  0  0  0  1 V2000
  147.1315  137.6256  155.6332 C   0  0  0  0  0  0  0  0  0  0  0  0
  146.0443  138.1416  154.8851 O   0  0  0  0  0  0  0  0  0  0  0  0
  146.2460  139.4893  154.4934 C   0  0  0  0  0  0  0  0  0  0  0  0
  147.1425  139.5200  153.2526 C   0  0  0  0  0  0  0  0  0  0  0  0
  148.4124  138.9714  153.5925 O   0  0  0  0  0  0  0  0  0  0  0  0
  149.2290  139.6816  154.4486 C   0  0  0  0  0  0  0  0  0  0  0  0
  150.5015  139.1595  154.7533 C   0  0  0  0  0  0  0  0  0  0  0  0
  151.3431  139.8785  155.6237 C   0  0  0  0  0  0  0  0  0  0  0  0
  150.8854  141.1066  156.1574 C   0  0  0  0  0  0  0  0  0  0  0  0
  151.6284  141.9156  157.0588 N   0  0  0  0  0  0  0  0  0  0  0  0
  151.1871  142.6189  158.1204 C   0  0  0  0  0  0  0  0  0  0  0  0
  149.9970  142.7745  158.3908 O   0  0  0  0  0  0  0  0  0  0  0  0
  152.1911  143.2413  158.7866 N   0  0  0  0  0  0  0  0  0  0  0  0
  153.4443  142.5340  159.0956 C   0  0  0  0  0  0  0  0  0  0  0  0
  153.3355  141.9219  160.5083 C   0  0  0  0  0  0  0  0  0  0  0  0
  153.0909  142.9749  161.4970 N   0  0  0  0  0  0  0  0  0  0  0  0
  152.9580  142.3845  162.8206 C   0  0  0  0  0  0  0  0  0  0  0  0
  151.8797  143.7319  161.1695 C   0  0  0  0  0  0  0  0  0  0  0  0
  152.0149  144.3411  159.7573 C   0  0  2  0  0  0  0  0  0  0  0  0
  150.8795  145.3343  159.4329 C   0  0  0  0  0  0  0  0  0  0  0  0
  149.5890  141.5332  155.8031 C   0  0  0  0  0  0  0  0  0  0  0  0
  148.7782  140.8500  154.9682 N   0  0  0  0  0  0  0  0  0  0  0  0
  146.9296  136.5896  155.9053 H   0  0  0  0  0  0  0  0  0  0  0  0
  147.2803  138.1917  156.5536 H   0  0  0  0  0  0  0  0  0  0  0  0
  148.0559  137.6479  155.0544 H   0  0  0  0  0  0  0  0  0  0  0  0
  145.2888  139.9649  154.2737 H   0  0  0  0  0  0  0  0  0  0  0  0
  146.7145  140.0477  155.3052 H   0  0  0  0  0  0  0  0  0  0  0  0
  146.6817  138.9377  152.4526 H   0  0  0  0  0  0  0  0  0  0  0  0
  147.2523  140.5484  152.9044 H   0  0  0  0  0  0  0  0  0  0  0  0
  150.8263  138.2207  154.3296 H   0  0  0  0  0  0  0  0  0  0  0  0
  152.3087  139.4670  155.8729 H   0  0  0  0  0  0  0  0  0  0  0  0
  152.6315  141.8679  156.9552 H   0  0  0  0  0  0  0  0  0  0  0  0
  153.6772  141.7443  158.3804 H   0  0  0  0  0  0  0  0  0  0  0  0
  154.2844  143.2285  159.0452 H   0  0  0  0  0  0  0  0  0  0  0  0
  152.5311  141.1848  160.5373 H   0  0  0  0  0  0  0  0  0  0  0  0
  154.2601  141.3991  160.7563 H   0  0  0  0  0  0  0  0  0  0  0  0
  152.8035  143.1598  163.5717 H   0  0  0  0  0  0  0  0  0  0  0  0
  153.8633  141.8384  163.0881 H   0  0  0  0  0  0  0  0  0  0  0  0
  152.1153  141.6930  162.8642 H   0  0  0  0  0  0  0  0  0  0  0  0
  151.0006  143.0875  161.2248 H   0  0  0  0  0  0  0  0  0  0  0  0
  151.7445  144.5257  161.9053 H   0  0  0  0  0  0  0  0  0  0  0  0
  152.9290  144.9375  159.7329 H   0  0  0  0  0  0  0  0  0  0  0  0
  150.9531  146.2158  160.0703 H   0  0  0  0  0  0  0  0  0  0  0  0
  149.8906  144.9091  159.6009 H   0  0  0  0  0  0  0  0  0  0  0  0
  150.9344  145.6759  158.3988 H   0  0  0  0  0  0  0  0  0  0  0  0
  149.1893  142.4566  156.1963 H   0  0  0  0  0  0  0  0  0  0  0  0
  1  2  1  0  0  0  0
  1 23  1  0  0  0  0
  1 24  1  0  0  0  0
  1 25  1  0  0  0  0
  2  3  1  0  0  0  0
  3  4  1  0  0  0  0
  3 26  1  0  0  0  0
  3 27  1  0  0  0  0
  4  5  1  0  0  0  0
  4 28  1  0  0  0  0
  4 29  1  0  0  0  0
  5  6  1  0  0  0  0
  6 22  1  0  0  0  0
  6  7  2  0  0  0  0
  7  8  1  0  0  0  0
  7 30  1  0  0  0  0
  8  9  2  0  0  0  0
  8 31  1  0  0  0  0
  9 10  1  0  0  0  0
  9 21  1  0  0  0  0
 10 11  1  0  0  0  0
 10 32  1  0  0  0  0
 11 12  2  0  0  0  0
 11 13  1  0  0  0  0
 13 19  1  0  0  0  0
 13 14  1  0  0  0  0
 14 15  1  0  0  0  0
 14 33  1  0  0  0  0
 14 34  1  0  0  0  0
 15 16  1  0  0  0  0
 15 35  1  0  0  0  0
 15 36  1  0  0  0  0
 16 17  1  0  0  0  0
 16 18  1  0  0  0  0
 17 37  1  0  0  0  0
 17 38  1  0  0  0  0
 17 39  1  0  0  0  0
 18 19  1  0  0  0  0
 18 40  1  0  0  0  0
 18 41  1  0  0  0  0
 19 20  1  0  0  0  0
 19 42  1  0  0  0  0
 20 43  1  0  0  0  0
 20 44  1  0  0  0  0
 20 45  1  0  0  0  0
 21 22  2  0  0  0  0
 21 46  1  0  0  0  0
M  END
> <s_m_source_file>
AV-unprocessed.smi

> <i_m_source_file_index>
1071

> <i_lp_mmshare_version>
43012

> <i_f3d_flags>
0

> <s_epik_input>
W0NIM11PW0NIMl1bQ0gyXU9jMVtjSF1bY0hdYyhbY0hdbjEpW05IXUMoPU8pTjJbQ0gyXVtDSDJdTihbQ0gzXSlbQ0gyXVtDQEhdMltDSDNd

> <s_epik_cmdline>
J2VwaWtfcHl0aG9uJywgJy1waCcsICc3LjAnLCAnLXRuJywgJzgnLCAnLW1hJywgJzIwMCcsICctbWV0YWxfYmluZGluZycsICctaW1hZScsICc8aW5maWxlLm1hZT4nLCAnLW9tYWUnLCAnPG91dGZpbGUubWFlPic=

> <r_lp_tautomer_probability>
1

> <r_epik_Ionization_Penalty>
0.623446

> <r_epik_Ionization_Penalty_Charging>
0

> <r_epik_Ionization_Penalty_Neutral>
0.623446

> <r_epik_State_Penalty>
0.639577

> <r_epik_Charging_Adjusted_Penalty>
0.639577

> <i_epik_Tot_Q>
0

> <i_epik_Tot_abs_Q>
0

> <r_epik_Metal_State_Penalty>
0.639567

> <b_epik_Metal_Only>
0

> <s_lp_Force_Field>
OPLS_2005

> <r_lp_Energy>
48.0993

> <b_lp_Chiralities_Consistent>
1

> <s_lp_Variant>
AV-unprocessed.smi:1071-6

> <Gold.Version>
5.8.1

> <Gold.Id.Protein>
6NUR|6NUR_protein|mol2

> <Gold.PLP.Fitness>
42.2855

> <Gold.PLP.PLP>
-40.2400

> <Gold.PLP.part.hbond>
0.0000

> <Gold.PLP.part.metal>
0.0000

> <Gold.PLP.part.buried>
-3.1549

> <Gold.PLP.part.nonpolar>
-39.4017

> <Gold.PLP.part.repulsive>
2.2224

> <Gold.PLP.ligand.clash>
0.0000

> <Gold.PLP.ligand.torsion>
0.7875

> <Gold.PLP.Chemscore.Hbond>
0.0000

> <Gold.PLP.Chemscore.CHOScore>
1.0000

> <Gold.PLP.Chemscore.Metal>
0.0000

> <Gold.Chemscore.Hbonds>
donor molecule, donor type, donor heavy atom, donor atom, acceptor molecule, acceptor atom, score
      L1  C    21    46       P1  8028  1.00

> <Gold.PLP.Chemscore.Internal.Correction>
0.6205

> <Gold.Rescore>
     Score         DG    S(hbond)    S(metal)    S(lipo)     H(rot)  DE(clash)    DE(int)     intcor
      8.54     -13.40       0.00        0.00     102.11       1.57       0.12       4.74       ----

> <Gold.Chemscore.Fitness>
8.5355

> <Gold.Chemscore.DG>
-13.3969

> <Gold.Chemscore.ZeroCoef>
-5.4800

> <Gold.Chemscore.Hbond>
0.0000

> <Gold.Chemscore.Metal>
0.0000

> <Gold.Chemscore.Lipo>
102.1111

> <Gold.Chemscore.Internal_Hbond>
0.0000

> <Gold.Chemscore.DEClash>
0.1247

> <Gold.Chemscore.DEInternal>
4.7367

> <Gold.Chemscore.Rot>
1.5743

> <Gold.Chemscore.Internal.Correction>
   9.000000E+99

> <Gold.Chemscore.Hbond.Weighted>
-0.0000

> <Gold.Chemscore.Metal.Weighted>
-0.0000

> <Gold.Chemscore.Lipo.Weighted>
-11.9470

> <Gold.Chemscore.Internal_Hbond.Weighted>
0.0000

> <Gold.Chemscore.DEClash.Weighted>
0.1247

> <Gold.Chemscore.DEInternal.Weighted>
4.7367

> <Gold.Chemscore.Rot.Weighted>
4.0301

> <Gold.Chemscore.Internal.Correction.Weighted>
   9.000000E+99

> <Gold.Protein.RotatedTorsions>
[ 6907 6896 6895 6894 ] final -121.69 input  -60.11 | X-H torsion
[ 7974 7965 7964 7962 ] final   31.09 input  175.53 | X-H torsion
[ 8008 7997 7996 7995 ] final  168.32 input   59.86 | X-H torsion
[ 10167 10162 10161 10158 ] final  -21.64 input  -65.29 | X-H torsion
[ 10718 10713 10712 10709 ] final   19.51 input   66.30 | X-H torsion
[ 10763 10752 10751 10750 ] final -141.32 input  -60.55 | X-H torsion
[ 11005 11000 10999 10996 ] final   70.25 input  -57.11 | X-H torsion

> <Gold.Protein.ActiveResidues>
 VAL166  LYS551  ARG553  GLY616  TRP617  ASP618  TYR619  PRO620  LYS621  CYS622 
 ASP623  PHE694  ASN695  SER759  ASP760  ASP761  ALA762  ILE779  LEU786  VAL792 
 PHE793  MET794  SER795  GLU796  ALA797  LYS798  CYS799  TRP800  GLU811  SER814 

> <Gold.Protein.RotatedAtoms>
  150.8507  133.7792  159.3026 H   0  0  0  0  0  0  0  0  0  0  0  0  # atno 6907 bound_to 6896
  151.5465  135.1066  159.9949 H   0  0  0  0  0  0  0  0  0  0  0  0  # atno 6908 bound_to 6896
  152.4550  133.7661  159.6829 H   0  0  0  0  0  0  0  0  0  0  0  0  # atno 6909 bound_to 6896
  146.1571  139.6702  142.9059 H   0  0  0  0  0  0  0  0  0  0  0  0  # atno 7974 bound_to 7965
  156.1557  140.1593  156.8696 H   0  0  0  0  0  0  0  0  0  0  0  0  # atno 8008 bound_to 7997
  154.5112  140.0800  156.8030 H   0  0  0  0  0  0  0  0  0  0  0  0  # atno 8009 bound_to 7997
  155.3808  140.3405  155.4249 H   0  0  0  0  0  0  0  0  0  0  0  0  # atno 8010 bound_to 7997
  140.7283  143.4609  151.0381 H   0  0  0  0  0  0  0  0  0  0  0  0  # atno 10167 bound_to 10162
  157.1115  130.6511  149.5899 H   0  0  0  0  0  0  0  0  0  0  0  0  # atno 10718 bound_to 10713
  154.8549  135.3528  154.5849 H   0  0  0  0  0  0  0  0  0  0  0  0  # atno 10763 bound_to 10752
  153.6460  135.6996  153.5230 H   0  0  0  0  0  0  0  0  0  0  0  0  # atno 10764 bound_to 10752
  153.2933  135.4228  155.1145 H   0  0  0  0  0  0  0  0  0  0  0  0  # atno 10765 bound_to 10752
  139.9608  134.7065  156.0651 H   0  0  0  0  0  0  0  0  0  0  0  0  # atno 11005 bound_to 11000
  145.4680  141.0435  143.2714 LP  0  0  0  0  0  0  0  0  0  0  0  0  # atno 17320 bound_to 7965
  144.7978  139.6200  143.7085 LP  0  0  0  0  0  0  0  0  0  0  0  0  # atno 17321 bound_to 7965
  139.8294  143.7712  152.3179 LP  0  0  0  0  0  0  0  0  0  0  0  0  # atno 17342 bound_to 10162
  139.7822  144.7440  151.0072 LP  0  0  0  0  0  0  0  0  0  0  0  0  # atno 17343 bound_to 10162
  155.9849  130.4876  150.7007 LP  0  0  0  0  0  0  0  0  0  0  0  0  # atno 17370 bound_to 10713
  157.4555  131.0877  151.0801 LP  0  0  0  0  0  0  0  0  0  0  0  0  # atno 17371 bound_to 10713
  141.1285  133.6593  156.3399 LP  0  0  0  0  0  0  0  0  0  0  0  0  # atno 17394 bound_to 11000
  140.5505  134.6032  157.5406 LP  0  0  0  0  0  0  0  0  0  0  0  0  # atno 17395 bound_to 11000

$$$$
