AV-unprocessed.smi:749|AV-procd|sdf|3587|dock1
  -GOLD-   22720 0583D 1   1.00000     0.00000
 Structure written by MMmdl.
 42 43  0  0  0  0  0  0  0  0  2 V2000
  155.0849  133.6999  160.6930 C   0  0  0  0  0  0  0  0  0  0  0  0
  154.5637  134.7874  161.5225 N   0  0  0  0  0  0  0  0  0  0  0  0
  154.5769  136.1126  160.8840 C   0  0  0  0  0  0  0  0  0  0  0  0
  153.7105  137.1647  161.5972 C   0  0  2  0  0  0  0  0  0  0  0  0
  154.0294  138.4927  161.0820 N   0  0  0  0  0  0  0  0  0  0  0  0
  155.2482  139.0663  161.0413 C   0  0  0  0  0  0  0  0  0  0  0  0
  156.2167  138.4376  161.4663 O   0  0  0  0  0  0  0  0  0  0  0  0
  155.3419  140.3213  160.5263 N   0  5  0  0  0  0  0  0  0  0  0  0
  154.3195  141.1945  160.5486 C   0  0  0  0  0  0  0  0  0  0  0  0
  153.7978  141.8948  159.4277 C   0  0  0  0  0  0  0  0  0  0  0  0
  152.7915  142.6505  159.9641 C   0  0  0  0  0  0  0  0  0  0  0  0
  151.8218  143.6423  159.3851 C   0  0  0  0  0  0  0  0  0  0  0  0
  150.8981  142.9672  158.3515 C   0  0  0  0  0  0  0  0  0  0  0  0
  152.5894  144.7771  158.6817 C   0  0  0  0  0  0  0  0  0  0  0  0
  150.9457  144.2382  160.5029 C   0  0  0  0  0  0  0  0  0  0  0  0
  152.7036  142.4182  161.3035 O   0  0  0  0  0  0  0  0  0  0  0  0
  153.6776  141.4816  161.6675 N   0  0  0  0  0  0  0  0  0  0  0  0
  153.9541  137.0922  163.1083 C   0  0  0  0  0  0  0  0  0  0  0  0
  153.6027  135.6982  163.6410 C   0  0  0  0  0  0  0  0  0  0  0  0
  154.1838  134.5500  162.8016 C   0  0  0  0  0  0  0  0  0  0  0  0
  154.2553  133.4337  163.3168 O   0  0  0  0  0  0  0  0  0  0  0  0
  154.3160  132.9440  160.5275 H   0  0  0  0  0  0  0  0  0  0  0  0
  155.9380  133.2199  161.1746 H   0  0  0  0  0  0  0  0  0  0  0  0
  155.4192  134.0508  159.7159 H   0  0  0  0  0  0  0  0  0  0  0  0
  155.6155  136.4474  160.8576 H   0  0  0  0  0  0  0  0  0  0  0  0
  154.2518  136.0289  159.8459 H   0  0  0  0  0  0  0  0  0  0  0  0
  152.6615  136.9412  161.3932 H   0  0  0  0  0  0  0  0  0  0  0  0
  153.2569  139.0322  160.7198 H   0  0  0  0  0  0  0  0  0  0  0  0
  154.1195  141.8539  158.3980 H   0  0  0  0  0  0  0  0  0  0  0  0
  150.1874  143.6778  157.9281 H   0  0  0  0  0  0  0  0  0  0  0  0
  150.3214  142.1582  158.8017 H   0  0  0  0  0  0  0  0  0  0  0  0
  151.4681  142.5439  157.5235 H   0  0  0  0  0  0  0  0  0  0  0  0
  153.2208  144.3896  157.8812 H   0  0  0  0  0  0  0  0  0  0  0  0
  153.2358  145.3134  159.3775 H   0  0  0  0  0  0  0  0  0  0  0  0
  151.9084  145.5060  158.2410 H   0  0  0  0  0  0  0  0  0  0  0  0
  150.2264  144.9556  160.1063 H   0  0  0  0  0  0  0  0  0  0  0  0
  151.5480  144.7591  161.2482 H   0  0  0  0  0  0  0  0  0  0  0  0
  150.3837  143.4605  161.0215 H   0  0  0  0  0  0  0  0  0  0  0  0
  154.9968  137.3224  163.3316 H   0  0  0  0  0  0  0  0  0  0  0  0
  153.3539  137.8402  163.6280 H   0  0  0  0  0  0  0  0  0  0  0  0
  153.9409  135.6002  164.6730 H   0  0  0  0  0  0  0  0  0  0  0  0
  152.5187  135.5791  163.6559 H   0  0  0  0  0  0  0  0  0  0  0  0
  1  2  1  0  0  0  0
  1 22  1  0  0  0  0
  1 23  1  0  0  0  0
  1 24  1  0  0  0  0
  2 20  1  0  0  0  0
  2  3  1  0  0  0  0
  3  4  1  0  0  0  0
  3 25  1  0  0  0  0
  3 26  1  0  0  0  0
  4  5  1  0  0  0  0
  4 18  1  0  0  0  0
  4 27  1  0  0  0  0
  5  6  1  0  0  0  0
  5 28  1  0  0  0  0
  6  7  2  0  0  0  0
  6  8  1  0  0  0  0
  8  9  1  0  0  0  0
  9 17  2  0  0  0  0
  9 10  1  0  0  0  0
 10 11  2  0  0  0  0
 10 29  1  0  0  0  0
 11 12  1  0  0  0  0
 11 16  1  0  0  0  0
 12 13  1  0  0  0  0
 12 14  1  0  0  0  0
 12 15  1  0  0  0  0
 13 30  1  0  0  0  0
 13 31  1  0  0  0  0
 13 32  1  0  0  0  0
 14 33  1  0  0  0  0
 14 34  1  0  0  0  0
 14 35  1  0  0  0  0
 15 36  1  0  0  0  0
 15 37  1  0  0  0  0
 15 38  1  0  0  0  0
 16 17  1  0  0  0  0
 18 19  1  0  0  0  0
 18 39  1  0  0  0  0
 18 40  1  0  0  0  0
 19 20  1  0  0  0  0
 19 41  1  0  0  0  0
 19 42  1  0  0  0  0
 20 21  2  0  0  0  0
M  CHG  1   8  -1
M  END
> <s_m_source_file>
AV-unprocessed.smi

> <i_m_source_file_index>
749

> <i_lp_mmshare_version>
43012

> <i_f3d_flags>
0

> <s_epik_input>
Tz1DMVtDSDJdW0NIMl1bQ0BASF0oW0NIMl1OMVtDSDNdKVtOSF1DKD1PKVtOSF1jMltjSF1jKG9uMilDKFtDSDNdKShbQ0gzXSlbQ0gzXQ==

> <s_epik_cmdline>
J2VwaWtfcHl0aG9uJywgJy1waCcsICc3LjAnLCAnLXRuJywgJzgnLCAnLW1hJywgJzIwMCcsICctbWV0YWxfYmluZGluZycsICctaW1hZScsICc8aW5maWxlLm1hZT4nLCAnLW9tYWUnLCAnPG91dGZpbGUubWFlPic=

> <r_lp_tautomer_probability>
1

> <r_epik_Ionization_Penalty>
6.47858

> <r_epik_Ionization_Penalty_Charging>
6.47844

> <r_epik_Ionization_Penalty_Neutral>
0.000138814

> <r_epik_State_Penalty>
6.47843

> <r_epik_Charging_Adjusted_Penalty>
12.9569

> <i_epik_Tot_Q>
-1

> <i_epik_Tot_abs_Q>
1

> <r_epik_Metal_State_Penalty>
2.40644

> <b_epik_Metal_Only>
1

> <s_lp_Force_Field>
OPLS_2005

> <r_lp_Energy>
10.0372

> <b_lp_Chiralities_Consistent>
1

> <s_lp_Variant>
AV-unprocessed.smi:749-4

> <Gold.Version>
5.8.1

> <Gold.Id.Protein>
6NUR|6NUR_protein|mol2

> <Gold.PLP.Fitness>
41.8870

> <Gold.PLP.PLP>
-43.2139

> <Gold.PLP.part.hbond>
-0.3949

> <Gold.PLP.part.metal>
0.0000

> <Gold.PLP.part.buried>
-6.6583

> <Gold.PLP.part.nonpolar>
-36.6766

> <Gold.PLP.part.repulsive>
0.1077

> <Gold.PLP.ligand.clash>
0.0000

> <Gold.PLP.ligand.torsion>
0.6769

> <Gold.PLP.Chemscore.Hbond>
0.0000

> <Gold.PLP.Chemscore.CHOScore>
0.0000

> <Gold.PLP.Chemscore.Metal>
0.0000

> <Gold.PLP.Chemscore.Internal.Correction>
0.0268

> <Gold.Rescore>
     Score         DG    S(hbond)    S(metal)    S(lipo)     H(rot)  DE(clash)    DE(int)     intcor
     11.56     -14.39       0.00        0.00     102.80       1.22       0.07       2.76       ----

> <Gold.Chemscore.Fitness>
11.5634

> <Gold.Chemscore.DG>
-14.3850

> <Gold.Chemscore.ZeroCoef>
-5.4800

> <Gold.Chemscore.Hbond>
0.0000

> <Gold.Chemscore.Metal>
0.0000

> <Gold.Chemscore.Lipo>
102.8015

> <Gold.Chemscore.Internal_Hbond>
0.0000

> <Gold.Chemscore.DEClash>
0.0661

> <Gold.Chemscore.DEInternal>
2.7555

> <Gold.Chemscore.Rot>
1.2198

> <Gold.Chemscore.Internal.Correction>
   9.000000E+99

> <Gold.Chemscore.Hbond.Weighted>
-0.0000

> <Gold.Chemscore.Metal.Weighted>
-0.0000

> <Gold.Chemscore.Lipo.Weighted>
-12.0278

> <Gold.Chemscore.Internal_Hbond.Weighted>
0.0000

> <Gold.Chemscore.DEClash.Weighted>
0.0661

> <Gold.Chemscore.DEInternal.Weighted>
2.7555

> <Gold.Chemscore.Rot.Weighted>
3.1228

> <Gold.Chemscore.Internal.Correction.Weighted>
   9.000000E+99

> <Gold.Protein.RotatedTorsions>
[ 6907 6896 6895 6894 ] final  -24.03 input  -60.11 | X-H torsion
[ 7974 7965 7964 7962 ] final    6.58 input  175.53 | X-H torsion
[ 8008 7997 7996 7995 ] final -173.51 input   59.86 | X-H torsion
[ 10167 10162 10161 10158 ] final   80.16 input  -65.29 | X-H torsion
[ 10718 10713 10712 10709 ] final  151.38 input   66.30 | X-H torsion
[ 10763 10752 10751 10750 ] final   75.34 input  -60.55 | X-H torsion
[ 11005 11000 10999 10996 ] final -108.59 input  -57.11 | X-H torsion

> <Gold.Protein.ActiveResidues>
 VAL166  LYS551  ARG553  GLY616  TRP617  ASP618  TYR619  PRO620  LYS621  CYS622 
 ASP623  PHE694  ASN695  SER759  ASP760  ASP761  ALA762  ILE779  LEU786  VAL792 
 PHE793  MET794  SER795  GLU796  ALA797  LYS798  CYS799  TRP800  GLU811  SER814 

> <Gold.Protein.RotatedAtoms>
  151.1955  135.0420  159.8849 H   0  0  0  0  0  0  0  0  0  0  0  0  # atno 6907 bound_to 6896
  152.5436  134.0909  159.8286 H   0  0  0  0  0  0  0  0  0  0  0  0  # atno 6908 bound_to 6896
  151.1043  133.5173  159.2640 H   0  0  0  0  0  0  0  0  0  0  0  0  # atno 6909 bound_to 6896
  146.2433  140.0212  142.8398 H   0  0  0  0  0  0  0  0  0  0  0  0  # atno 7974 bound_to 7965
  155.9583  140.1139  157.0917 H   0  0  0  0  0  0  0  0  0  0  0  0  # atno 8008 bound_to 7997
  154.4126  140.1187  156.5212 H   0  0  0  0  0  0  0  0  0  0  0  0  # atno 8009 bound_to 7997
  155.6753  140.3473  155.4836 H   0  0  0  0  0  0  0  0  0  0  0  0  # atno 8010 bound_to 7997
  139.9527  144.6015  150.8146 H   0  0  0  0  0  0  0  0  0  0  0  0  # atno 10167 bound_to 10162
  157.2715  131.0818  151.1596 H   0  0  0  0  0  0  0  0  0  0  0  0  # atno 10718 bound_to 10713
  153.0648  135.4992  154.8175 H   0  0  0  0  0  0  0  0  0  0  0  0  # atno 10763 bound_to 10752
  154.6937  135.2989  154.9445 H   0  0  0  0  0  0  0  0  0  0  0  0  # atno 10764 bound_to 10752
  154.0192  135.6744  153.4824 H   0  0  0  0  0  0  0  0  0  0  0  0  # atno 10765 bound_to 10752
  141.0893  133.9083  157.2112 H   0  0  0  0  0  0  0  0  0  0  0  0  # atno 11005 bound_to 11000
  145.1239  140.9479  143.4584 LP  0  0  0  0  0  0  0  0  0  0  0  0  # atno 17320 bound_to 7965
  145.0453  139.3226  143.5956 LP  0  0  0  0  0  0  0  0  0  0  0  0  # atno 17321 bound_to 7965
  140.7578  143.3093  151.2883 LP  0  0  0  0  0  0  0  0  0  0  0  0  # atno 17342 bound_to 10162
  139.6616  144.0180  152.2696 LP  0  0  0  0  0  0  0  0  0  0  0  0  # atno 17343 bound_to 10162
  157.3066  130.6869  149.6193 LP  0  0  0  0  0  0  0  0  0  0  0  0  # atno 17370 bound_to 10713
  155.9663  130.4376  150.5182 LP  0  0  0  0  0  0  0  0  0  0  0  0  # atno 17371 bound_to 10713
  139.9716  135.0126  156.9527 LP  0  0  0  0  0  0  0  0  0  0  0  0  # atno 17394 bound_to 11000
  140.5289  134.0833  155.7310 LP  0  0  0  0  0  0  0  0  0  0  0  0  # atno 17395 bound_to 11000

$$$$
