AV-unprocessed.smi:2988|AV-procd|sdf|11388|dock4
  -GOLD-   2272016313D 1   1.00000     0.00000
 Structure written by MMmdl.
 37 38  0  0  0  0  0  0  0  0  1 V2000
  151.8537  144.6730  158.0395 C   0  0  0  0  0  0  0  0  0  0  0  0
  152.5326  144.1025  159.2968 C   0  0  1  0  0  0  0  0  0  0  0  0
  151.7778  144.5131  160.5798 C   0  0  0  0  0  0  0  0  0  0  0  0
  152.4772  143.9850  161.8427 C   0  0  0  0  0  0  0  0  0  0  0  0
  152.6718  142.4625  161.7824 C   0  0  0  0  0  0  0  0  0  0  0  0
  153.4233  142.0474  160.5051 C   0  0  0  0  0  0  0  0  0  0  0  0
  152.7272  142.5673  159.2285 C   0  0  1  0  0  0  0  0  0  0  0  0
  151.4430  141.8998  159.0379 N   0  0  0  0  0  0  0  0  0  0  0  0
  151.0250  141.2544  157.9370 C   0  0  0  0  0  0  0  0  0  0  0  0
  151.6927  141.1865  156.9059 O   0  0  0  0  0  0  0  0  0  0  0  0
  149.6502  140.5640  157.9957 C   0  0  0  0  0  0  0  0  0  0  0  0
  148.6700  141.0732  157.0199 N   0  0  0  0  0  0  0  0  0  0  0  0
  149.0985  141.0084  155.7055 N   0  0  0  0  0  0  0  0  0  0  0  0
  148.3499  141.4824  154.7701 C   0  0  0  0  0  0  0  0  0  0  0  0
  147.0632  142.0835  155.0435 C   0  0  0  0  0  0  0  0  0  0  0  0
  146.1068  142.7113  153.7480 Cl  0  0  0  0  0  0  0  0  0  0  0  0
  146.6468  142.1309  156.3339 C   0  0  0  0  0  0  0  0  0  0  0  0
  145.1222  142.8405  156.7407 Cl  0  0  0  0  0  0  0  0  0  0  0  0
  147.4714  141.5959  157.4258 C   0  0  0  0  0  0  0  0  0  0  0  0
  147.1334  141.6283  158.6096 O   0  0  0  0  0  0  0  0  0  0  0  0
  150.8289  144.3149  157.9341 H   0  0  0  0  0  0  0  0  0  0  0  0
  152.3995  144.3927  157.1382 H   0  0  0  0  0  0  0  0  0  0  0  0
  151.8180  145.7621  158.0762 H   0  0  0  0  0  0  0  0  0  0  0  0
  153.5261  144.5504  159.3481 H   0  0  0  0  0  0  0  0  0  0  0  0
  151.7027  145.5995  160.6355 H   0  0  0  0  0  0  0  0  0  0  0  0
  150.7534  144.1387  160.5478 H   0  0  0  0  0  0  0  0  0  0  0  0
  153.4473  144.4719  161.9523 H   0  0  0  0  0  0  0  0  0  0  0  0
  151.8971  144.2503  162.7270 H   0  0  0  0  0  0  0  0  0  0  0  0
  153.2205  142.1239  162.6617 H   0  0  0  0  0  0  0  0  0  0  0  0
  151.7007  141.9672  161.8191 H   0  0  0  0  0  0  0  0  0  0  0  0
  154.4391  142.4424  160.5446 H   0  0  0  0  0  0  0  0  0  0  0  0
  153.5244  140.9621  160.4700 H   0  0  0  0  0  0  0  0  0  0  0  0
  153.3626  142.3411  158.3700 H   0  0  0  0  0  0  0  0  0  0  0  0
  150.8203  141.9040  159.8326 H   0  0  0  0  0  0  0  0  0  0  0  0
  149.8058  139.4944  157.8442 H   0  0  0  0  0  0  0  0  0  0  0  0
  149.2544  140.6567  159.0086 H   0  0  0  0  0  0  0  0  0  0  0  0
  148.6475  141.4576  153.7215 H   0  0  0  0  0  0  0  0  0  0  0  0
  1  2  1  0  0  0  0
  1 21  1  0  0  0  0
  1 22  1  0  0  0  0
  1 23  1  0  0  0  0
  2  7  1  0  0  0  0
  2  3  1  0  0  0  0
  2 24  1  0  0  0  0
  3  4  1  0  0  0  0
  3 25  1  0  0  0  0
  3 26  1  0  0  0  0
  4  5  1  0  0  0  0
  4 27  1  0  0  0  0
  4 28  1  0  0  0  0
  5  6  1  0  0  0  0
  5 29  1  0  0  0  0
  5 30  1  0  0  0  0
  6  7  1  0  0  0  0
  6 31  1  0  0  0  0
  6 32  1  0  0  0  0
  7  8  1  0  0  0  0
  7 33  1  0  0  0  0
  8  9  1  0  0  0  0
  8 34  1  0  0  0  0
  9 10  2  0  0  0  0
  9 11  1  0  0  0  0
 11 12  1  0  0  0  0
 11 35  1  0  0  0  0
 11 36  1  0  0  0  0
 12 19  1  0  0  0  0
 12 13  1  0  0  0  0
 13 14  2  0  0  0  0
 14 15  1  0  0  0  0
 14 37  1  0  0  0  0
 15 16  1  0  0  0  0
 15 17  2  0  0  0  0
 17 18  1  0  0  0  0
 17 19  1  0  0  0  0
 19 20  2  0  0  0  0
M  END
> <s_m_source_file>
AV-unprocessed.smi

> <i_m_source_file_index>
2988

> <i_lp_mmshare_version>
43012

> <i_f3d_flags>
0

> <s_epik_input>
W0NIM11bQ0BASF0xW0NIMl1bQ0gyXVtDSDJdW0NIMl1bQ0BIXTFbTkhdQyg9TylbQ0gyXW4ybltjSF1jKENsKWMoQ2wpYzI9Tw==

> <s_epik_cmdline>
J2VwaWtfcHl0aG9uJywgJy1waCcsICc3LjAnLCAnLXRuJywgJzgnLCAnLW1hJywgJzIwMCcsICctbWV0YWxfYmluZGluZycsICctaW1hZScsICc8aW5maWxlLm1hZT4nLCAnLW9tYWUnLCAnPG91dGZpbGUubWFlPic=

> <r_lp_tautomer_probability>
1

> <r_epik_Ionization_Penalty>
1.90782e-08

> <r_epik_Ionization_Penalty_Charging>
3.13143e-11

> <r_epik_Ionization_Penalty_Neutral>
1.90469e-08

> <r_epik_State_Penalty>
-0

> <r_epik_Charging_Adjusted_Penalty>
3.13143e-11

> <i_epik_Tot_Q>
0

> <i_epik_Tot_abs_Q>
0

> <r_epik_Metal_State_Penalty>
-0

> <b_epik_Metal_Only>
0

> <s_lp_Force_Field>
OPLS_2005

> <r_lp_Energy>
22.2561

> <b_lp_Chiralities_Consistent>
1

> <s_lp_Variant>
AV-unprocessed.smi:2988-2

> <Gold.Version>
5.8.1

> <Gold.Id.Protein>
6NUR|6NUR_protein|mol2

> <Gold.PLP.Fitness>
45.8571

> <Gold.PLP.PLP>
-45.2925

> <Gold.PLP.part.hbond>
-1.0000

> <Gold.PLP.part.metal>
0.0000

> <Gold.PLP.part.buried>
-4.4138

> <Gold.PLP.part.nonpolar>
-38.2981

> <Gold.PLP.part.repulsive>
0.2761

> <Gold.PLP.ligand.clash>
0.0000

> <Gold.PLP.ligand.torsion>
0.0711

> <Gold.PLP.Chemscore.Hbond>
0.2330

> <Gold.PLP.Chemscore.CHOScore>
0.0000

> <Gold.PLP.Chemscore.Metal>
0.0000

> <Gold.Chemscore.Hbonds>
donor molecule, donor type, donor heavy atom, donor atom, acceptor molecule, acceptor atom, score
      P1  H  6934  6946       L1    20  0.22

> <Gold.PLP.Chemscore.Internal.Correction>
0.0080

> <Gold.Rescore>
     Score         DG    S(hbond)    S(metal)    S(lipo)     H(rot)  DE(clash)    DE(int)     intcor
     14.82     -16.20       0.55        0.00     108.77       1.50       0.05       1.33       ----

> <Gold.Chemscore.Fitness>
14.8155

> <Gold.Chemscore.DG>
-16.2013

> <Gold.Chemscore.ZeroCoef>
-5.4800

> <Gold.Chemscore.Hbond>
0.5477

> <Gold.Chemscore.Metal>
0.0000

> <Gold.Chemscore.Lipo>
108.7694

> <Gold.Chemscore.Internal_Hbond>
0.0000

> <Gold.Chemscore.DEClash>
0.0539

> <Gold.Chemscore.DEInternal>
1.3319

> <Gold.Chemscore.Rot>
1.4977

> <Gold.Chemscore.Internal.Correction>
   9.000000E+99

> <Gold.Chemscore.Hbonds>
donor molecule, donor type, donor heavy atom, donor atom, acceptor molecule, acceptor atom, score
      P1  H  6934  6946       L1    20  0.23

> <Gold.Chemscore.Hbond.Weighted>
-1.8294

> <Gold.Chemscore.Metal.Weighted>
-0.0000

> <Gold.Chemscore.Lipo.Weighted>
-12.7260

> <Gold.Chemscore.Internal_Hbond.Weighted>
0.0000

> <Gold.Chemscore.DEClash.Weighted>
0.0539

> <Gold.Chemscore.DEInternal.Weighted>
1.3319

> <Gold.Chemscore.Rot.Weighted>
3.8341

> <Gold.Chemscore.Internal.Correction.Weighted>
   9.000000E+99

> <Gold.Protein.RotatedTorsions>
[ 6907 6896 6895 6894 ] final  -23.74 input  -60.11 | X-H torsion
[ 7974 7965 7964 7962 ] final  -77.66 input  175.53 | X-H torsion
[ 8008 7997 7996 7995 ] final  131.31 input   59.86 | X-H torsion
[ 10167 10162 10161 10158 ] final  111.38 input  -65.29 | X-H torsion
[ 10718 10713 10712 10709 ] final -120.39 input   66.30 | X-H torsion
[ 10763 10752 10751 10750 ] final   54.77 input  -60.55 | X-H torsion
[ 11005 11000 10999 10996 ] final  -96.13 input  -57.11 | X-H torsion

> <Gold.Protein.ActiveResidues>
 VAL166  LYS551  ARG553  GLY616  TRP617  ASP618  TYR619  PRO620  LYS621  CYS622 
 ASP623  PHE694  ASN695  SER759  ASP760  ASP761  ALA762  ILE779  LEU786  VAL792 
 PHE793  MET794  SER795  GLU796  ALA797  LYS798  CYS799  TRP800  GLU811  SER814 

> <Gold.Protein.RotatedAtoms>
  151.1997  135.0437  159.8866 H   0  0  0  0  0  0  0  0  0  0  0  0  # atno 6907 bound_to 6896
  152.5433  134.0864  159.8268 H   0  0  0  0  0  0  0  0  0  0  0  0  # atno 6908 bound_to 6896
  151.1003  133.5201  159.2642 H   0  0  0  0  0  0  0  0  0  0  0  0  # atno 6909 bound_to 6896
  145.5967  140.9417  143.1263 H   0  0  0  0  0  0  0  0  0  0  0  0  # atno 7974 bound_to 7965
  156.2968  140.2574  156.2904 H   0  0  0  0  0  0  0  0  0  0  0  0  # atno 8008 bound_to 7997
  154.9515  140.0394  157.2165 H   0  0  0  0  0  0  0  0  0  0  0  0  # atno 8009 bound_to 7997
  154.8032  140.2831  155.5911 H   0  0  0  0  0  0  0  0  0  0  0  0  # atno 8010 bound_to 7997
  139.6616  144.7128  151.1855 H   0  0  0  0  0  0  0  0  0  0  0  0  # atno 10167 bound_to 10162
  156.1254  130.6355  150.9534 H   0  0  0  0  0  0  0  0  0  0  0  0  # atno 10718 bound_to 10713
  152.9808  135.5733  154.4959 H   0  0  0  0  0  0  0  0  0  0  0  0  # atno 10763 bound_to 10752
  154.4486  135.2778  155.1799 H   0  0  0  0  0  0  0  0  0  0  0  0  # atno 10764 bound_to 10752
  154.3437  135.6224  153.5662 H   0  0  0  0  0  0  0  0  0  0  0  0  # atno 10765 bound_to 10752
  141.1421  133.8075  157.0529 H   0  0  0  0  0  0  0  0  0  0  0  0  # atno 11005 bound_to 11000
  144.7327  139.7676  143.7341 LP  0  0  0  0  0  0  0  0  0  0  0  0  # atno 17320 bound_to 7965
  146.1606  139.4719  142.9990 LP  0  0  0  0  0  0  0  0  0  0  0  0  # atno 17321 bound_to 7965
  140.7582  143.5985  150.8723 LP  0  0  0  0  0  0  0  0  0  0  0  0  # atno 17342 bound_to 10162
  139.9643  143.6128  152.2993 LP  0  0  0  0  0  0  0  0  0  0  0  0  # atno 17343 bound_to 10162
  157.6436  131.0907  150.8200 LP  0  0  0  0  0  0  0  0  0  0  0  0  # atno 17370 bound_to 10713
  156.8291  130.5010  149.5333 LP  0  0  0  0  0  0  0  0  0  0  0  0  # atno 17371 bound_to 10713
  140.0620  134.9749  157.1321 LP  0  0  0  0  0  0  0  0  0  0  0  0  # atno 17394 bound_to 11000
  140.3835  134.2262  155.7169 LP  0  0  0  0  0  0  0  0  0  0  0  0  # atno 17395 bound_to 11000

$$$$
