AV-unprocessed.smi:801|AV-procd|sdf|3789|dock1
  -GOLD-   22720 1223D 1   1.00000     0.00000
 Structure written by MMmdl.
 44 45  0  0  0  0  0  0  0  0  1 V2000
  153.0218  137.7048  156.8211 C   0  0  0  0  0  0  0  0  0  0  0  0
  152.8740  136.3630  156.3834 O   0  0  0  0  0  0  0  0  0  0  0  0
  152.1415  135.5400  157.2793 C   0  0  0  0  0  0  0  0  0  0  0  0
  150.6288  135.6025  156.9997 C   0  0  0  0  0  0  0  0  0  0  0  0
  150.1533  134.4404  156.2759 N   0  0  0  0  0  0  0  0  0  0  0  0
  149.3854  134.5196  155.1106 C   0  0  0  0  0  0  0  0  0  0  0  0
  149.0231  135.7953  154.6506 N   0  0  0  0  0  0  0  0  0  0  0  0
  148.3458  136.7045  155.3735 C   0  0  0  0  0  0  0  0  0  0  0  0
  147.9577  137.9867  154.6457 C   0  0  0  0  0  0  0  0  0  0  0  0
  148.0324  136.5476  156.5533 O   0  0  0  0  0  0  0  0  0  0  0  0
  148.9465  133.4070  154.4423 C   0  0  0  0  0  0  0  0  0  0  0  0
  148.1437  133.5151  153.3050 N   0  0  0  0  0  0  0  0  0  0  0  0
  147.5629  132.5000  152.4386 C   0  0  0  0  0  0  0  0  0  0  0  0
  146.2933  132.9582  151.7434 C   0  0  0  0  0  0  0  0  0  0  0  0
  145.5259  132.0486  150.9829 C   0  0  0  0  0  0  0  0  0  0  0  0
  144.3517  132.4791  150.3353 C   0  0  0  0  0  0  0  0  0  0  0  0
  143.9406  133.8217  150.4409 C   0  0  0  0  0  0  0  0  0  0  0  0
  144.7053  134.7340  151.1932 C   0  0  0  0  0  0  0  0  0  0  0  0
  145.8795  134.3038  151.8416 C   0  0  0  0  0  0  0  0  0  0  0  0
  149.2980  132.0689  154.9505 C   0  0  0  0  0  0  0  0  0  0  0  0
  148.9968  130.9879  154.4471 O   0  0  0  0  0  0  0  0  0  0  0  0
  150.0410  132.0602  156.1288 N   0  0  0  0  0  0  0  0  0  0  0  0
  150.4733  133.1798  156.8272 C   0  0  0  0  0  0  0  0  0  0  0  0
  151.1025  133.0333  157.8755 O   0  0  0  0  0  0  0  0  0  0  0  0
  150.2818  131.1579  156.5126 H   0  0  0  0  0  0  0  0  0  0  0  0
  153.6308  138.2545  156.1038 H   0  0  0  0  0  0  0  0  0  0  0  0
  153.5233  137.7516  157.7887 H   0  0  0  0  0  0  0  0  0  0  0  0
  152.0626  138.2163  156.8995 H   0  0  0  0  0  0  0  0  0  0  0  0
  152.4901  134.5162  157.1409 H   0  0  0  0  0  0  0  0  0  0  0  0
  152.3655  135.8042  158.3142 H   0  0  0  0  0  0  0  0  0  0  0  0
  150.0397  135.6567  157.9136 H   0  0  0  0  0  0  0  0  0  0  0  0
  150.3557  136.4978  156.4387 H   0  0  0  0  0  0  0  0  0  0  0  0
  149.1569  135.9746  153.6661 H   0  0  0  0  0  0  0  0  0  0  0  0
  148.8095  138.6652  154.5980 H   0  0  0  0  0  0  0  0  0  0  0  0
  147.1436  138.4937  155.1645 H   0  0  0  0  0  0  0  0  0  0  0  0
  147.6293  137.7708  153.6284 H   0  0  0  0  0  0  0  0  0  0  0  0
  147.9699  134.4577  152.9873 H   0  0  0  0  0  0  0  0  0  0  0  0
  148.3021  132.2064  151.6923 H   0  0  0  0  0  0  0  0  0  0  0  0
  147.3230  131.6148  153.0283 H   0  0  0  0  0  0  0  0  0  0  0  0
  145.8357  131.0178  150.8919 H   0  0  0  0  0  0  0  0  0  0  0  0
  143.7674  131.7793  149.7563 H   0  0  0  0  0  0  0  0  0  0  0  0
  143.0405  134.1518  149.9433 H   0  0  0  0  0  0  0  0  0  0  0  0
  144.3916  135.7645  151.2733 H   0  0  0  0  0  0  0  0  0  0  0  0
  146.4601  135.0115  152.4154 H   0  0  0  0  0  0  0  0  0  0  0  0
  1  2  1  0  0  0  0
  1 26  1  0  0  0  0
  1 27  1  0  0  0  0
  1 28  1  0  0  0  0
  2  3  1  0  0  0  0
  3  4  1  0  0  0  0
  3 29  1  0  0  0  0
  3 30  1  0  0  0  0
  4  5  1  0  0  0  0
  4 31  1  0  0  0  0
  4 32  1  0  0  0  0
  5 23  1  0  0  0  0
  5  6  1  0  0  0  0
  6  7  1  0  0  0  0
  6 11  2  0  0  0  0
  7  8  1  0  0  0  0
  7 33  1  0  0  0  0
  8  9  1  0  0  0  0
  8 10  2  0  0  0  0
  9 34  1  0  0  0  0
  9 35  1  0  0  0  0
  9 36  1  0  0  0  0
 11 12  1  0  0  0  0
 11 20  1  0  0  0  0
 12 13  1  0  0  0  0
 12 37  1  0  0  0  0
 13 14  1  0  0  0  0
 13 38  1  0  0  0  0
 13 39  1  0  0  0  0
 14 19  1  0  0  0  0
 14 15  2  0  0  0  0
 15 16  1  0  0  0  0
 15 40  1  0  0  0  0
 16 17  2  0  0  0  0
 16 41  1  0  0  0  0
 17 18  1  0  0  0  0
 17 42  1  0  0  0  0
 18 19  2  0  0  0  0
 18 43  1  0  0  0  0
 19 44  1  0  0  0  0
 20 21  2  0  0  0  0
 20 22  1  0  0  0  0
 22 25  1  0  0  0  0
 22 23  1  0  0  0  0
 23 24  2  0  0  0  0
M  END
> <s_m_source_file>
AV-unprocessed.smi

> <i_m_source_file_index>
801

> <i_lp_mmshare_version>
43012

> <i_f3d_flags>
0

> <s_epik_input>
W0NIM11PW0NIMl1bQ0gyXW4xYyhbTkhdQyg9TylbQ0gzXSljKGMoPU8pW25IXWMxPU8pW05IXVtDSDJdYzJbY0hdW2NIXVtjSF1bY0hdW2NIXTI=

> <s_epik_cmdline>
J2VwaWtfcHl0aG9uJywgJy1waCcsICc3LjAnLCAnLXRuJywgJzgnLCAnLW1hJywgJzIwMCcsICctbWV0YWxfYmluZGluZycsICctaW1hZScsICc8aW5maWxlLm1hZT4nLCAnLW9tYWUnLCAnPG91dGZpbGUubWFlPic=

> <r_lp_tautomer_probability>
0.999901

> <r_epik_Ionization_Penalty>
0.000786563

> <r_epik_Ionization_Penalty_Charging>
0.000779429

> <r_epik_Ionization_Penalty_Neutral>
7.13436e-06

> <r_epik_State_Penalty>
0.00049961

> <r_epik_Charging_Adjusted_Penalty>
0.00127904

> <i_epik_Tot_Q>
0

> <i_epik_Tot_abs_Q>
0

> <r_epik_Metal_State_Penalty>
0.266924

> <b_epik_Metal_Only>
0

> <s_lp_Force_Field>
OPLS_2005

> <r_lp_Energy>
22.7844

> <b_lp_Chiralities_Consistent>
1

> <s_lp_Variant>
AV-unprocessed.smi:801-1

> <Gold.Version>
5.8.1

> <Gold.Id.Protein>
6NUR|6NUR_protein|mol2

> <Gold.PLP.Fitness>
42.6826

> <Gold.PLP.PLP>
-32.4419

> <Gold.PLP.part.hbond>
-3.7351

> <Gold.PLP.part.metal>
0.0000

> <Gold.PLP.part.buried>
0.2880

> <Gold.PLP.part.nonpolar>
-30.0044

> <Gold.PLP.part.repulsive>
0.1133

> <Gold.PLP.ligand.clash>
0.0000

> <Gold.PLP.ligand.torsion>
1.2995

> <Gold.PLP.Chemscore.Hbond>
3.8633

> <Gold.PLP.Chemscore.CHOScore>
0.0000

> <Gold.PLP.Chemscore.Metal>
0.0000

> <Gold.Chemscore.Hbonds>
donor molecule, donor type, donor heavy atom, donor atom, acceptor molecule, acceptor atom, score
      L1  H     7    33       P1  7948  1.00
      L1  H    12    37       P1  7948  0.31
      P1  H  6896  6908       L1    24  0.65
      P1  H 10752 10763       L1     2  1.00

> <Gold.PLP.Chemscore.Internal.Correction>
1.2499

> <Gold.Rescore>
     Score         DG    S(hbond)    S(metal)    S(lipo)     H(rot)  DE(clash)    DE(int)     intcor
      9.09     -16.56       2.69        0.00      62.09       2.02       0.35       7.12       ----

> <Gold.Chemscore.Fitness>
9.0920

> <Gold.Chemscore.DG>
-16.5617

> <Gold.Chemscore.ZeroCoef>
-5.4800

> <Gold.Chemscore.Hbond>
2.6888

> <Gold.Chemscore.Metal>
0.0000

> <Gold.Chemscore.Lipo>
62.0902

> <Gold.Chemscore.Internal_Hbond>
0.0000

> <Gold.Chemscore.DEClash>
0.3538

> <Gold.Chemscore.DEInternal>
7.1159

> <Gold.Chemscore.Rot>
2.0170

> <Gold.Chemscore.Internal.Correction>
   9.000000E+99

> <Gold.Chemscore.Hbonds>
donor molecule, donor type, donor heavy atom, donor atom, acceptor molecule, acceptor atom, score
      L1  H     7    33       P1  7948  0.88
      L1  H    12    37       P1  7948  0.21
      P1  H  6896  6908       L1    24  0.62
      P1  H 10752 10763       L1     2  0.51

> <Gold.Chemscore.Hbond.Weighted>
-8.9807

> <Gold.Chemscore.Metal.Weighted>
-0.0000

> <Gold.Chemscore.Lipo.Weighted>
-7.2645

> <Gold.Chemscore.Internal_Hbond.Weighted>
0.0000

> <Gold.Chemscore.DEClash.Weighted>
0.3538

> <Gold.Chemscore.DEInternal.Weighted>
7.1159

> <Gold.Chemscore.Rot.Weighted>
5.1636

> <Gold.Chemscore.Internal.Correction.Weighted>
   9.000000E+99

> <Gold.Protein.RotatedTorsions>
[ 6907 6896 6895 6894 ] final   76.94 input  -60.11 | X-H torsion
[ 7974 7965 7964 7962 ] final  151.25 input  175.53 | X-H torsion
[ 8008 7997 7996 7995 ] final -124.73 input   59.86 | X-H torsion
[ 10167 10162 10161 10158 ] final  -13.51 input  -65.29 | X-H torsion
[ 10718 10713 10712 10709 ] final  149.21 input   66.30 | X-H torsion
[ 10763 10752 10751 10750 ] final  118.07 input  -60.55 | X-H torsion
[ 11005 11000 10999 10996 ] final  -36.63 input  -57.11 | X-H torsion

> <Gold.Protein.ActiveResidues>
 VAL166  LYS551  ARG553  GLY616  TRP617  ASP618  TYR619  PRO620  LYS621  CYS622 
 ASP623  PHE694  ASN695  SER759  ASP760  ASP761  ALA762  ILE779  LEU786  VAL792 
 PHE793  MET794  SER795  GLU796  ALA797  LYS798  CYS799  TRP800  GLU811  SER814 

> <Gold.Protein.RotatedAtoms>
  152.5096  134.3893  159.9377 H   0  0  0  0  0  0  0  0  0  0  0  0  # atno 6907 bound_to 6896
  151.3852  133.3801  159.2722 H   0  0  0  0  0  0  0  0  0  0  0  0  # atno 6908 bound_to 6896
  150.9474  134.8898  159.7709 H   0  0  0  0  0  0  0  0  0  0  0  0  # atno 6909 bound_to 6896
  144.8306  139.6513  143.6060 H   0  0  0  0  0  0  0  0  0  0  0  0  # atno 7974 bound_to 7965
  155.2017  140.0416  157.2918 H   0  0  0  0  0  0  0  0  0  0  0  0  # atno 8008 bound_to 7997
  154.6070  140.2467  155.7689 H   0  0  0  0  0  0  0  0  0  0  0  0  # atno 8009 bound_to 7997
  156.2356  140.2922  156.0314 H   0  0  0  0  0  0  0  0  0  0  0  0  # atno 8010 bound_to 7997
  140.7183  143.5418  150.9400 H   0  0  0  0  0  0  0  0  0  0  0  0  # atno 10167 bound_to 10162
  157.2989  131.0867  151.1405 H   0  0  0  0  0  0  0  0  0  0  0  0  # atno 10718 bound_to 10713
  153.5619  135.3519  155.2803 H   0  0  0  0  0  0  0  0  0  0  0  0  # atno 10763 bound_to 10752
  154.8694  135.4139  154.2821 H   0  0  0  0  0  0  0  0  0  0  0  0  # atno 10764 bound_to 10752
  153.3568  135.7058  153.6813 H   0  0  0  0  0  0  0  0  0  0  0  0  # atno 10765 bound_to 10752
  140.9889  133.7015  156.1815 H   0  0  0  0  0  0  0  0  0  0  0  0  # atno 11005 bound_to 11000
  146.2609  139.6408  142.9362 LP  0  0  0  0  0  0  0  0  0  0  0  0  # atno 17320 bound_to 7965
  145.4904  141.0438  143.2596 LP  0  0  0  0  0  0  0  0  0  0  0  0  # atno 17321 bound_to 7965
  139.9141  143.6684  152.3109 LP  0  0  0  0  0  0  0  0  0  0  0  0  # atno 17342 bound_to 10162
  139.7078  144.7625  151.1163 LP  0  0  0  0  0  0  0  0  0  0  0  0  # atno 17343 bound_to 10162
  157.2772  130.6732  149.6048 LP  0  0  0  0  0  0  0  0  0  0  0  0  # atno 17370 bound_to 10713
  155.9670  130.4461  150.5527 LP  0  0  0  0  0  0  0  0  0  0  0  0  # atno 17371 bound_to 10713
  140.7070  134.4502  157.5583 LP  0  0  0  0  0  0  0  0  0  0  0  0  # atno 17394 bound_to 11000
  139.8983  134.8616  156.2006 LP  0  0  0  0  0  0  0  0  0  0  0  0  # atno 17395 bound_to 11000

$$$$
