AV-unprocessed.smi:1726|AV-procd|sdf|6958|dock8
  -GOLD-   22720 8173D 1   1.00000     0.00000
 Structure written by MMmdl.
 43 44  0  0  0  0  0  0  0  0  2 V2000
  144.0454  131.7420  150.5913 C   0  0  0  0  0  0  0  0  0  0  0  0
  144.9614  132.3317  151.6737 C   0  0  0  0  0  0  0  0  0  0  0  0
  144.2300  133.2266  152.6047 N   0  3  2  0  0  0  0  0  0  0  0  0
  143.1807  134.0250  151.9190 C   0  0  0  0  0  0  0  0  0  0  0  0
  142.3402  134.8254  152.9298 C   0  0  0  0  0  0  0  0  0  0  0  0
  143.2271  135.7037  153.8285 C   0  0  0  0  0  0  0  0  0  0  0  0
  144.3377  134.8684  154.4902 C   0  0  1  0  0  0  0  0  0  0  0  0
  143.7554  133.9634  155.4820 N   0  0  0  0  0  0  0  0  0  0  0  0
  143.6532  134.2119  156.7953 C   0  0  0  0  0  0  0  0  0  0  0  0
  144.0541  135.2519  157.3166 O   0  0  0  0  0  0  0  0  0  0  0  0
  143.0908  133.1722  157.4380 N   0  0  0  0  0  0  0  0  0  0  0  0
  142.8022  133.0237  158.8049 C   0  0  0  0  0  0  0  0  0  0  0  0
  143.0433  133.9629  159.7568 C   0  0  0  0  0  0  0  0  0  0  0  0
  142.7076  133.7481  161.1545 C   0  0  0  0  0  0  0  0  0  0  0  0
  143.0591  134.7708  162.2237 C   0  0  0  0  0  0  0  0  0  0  0  0
  143.5862  135.8717  161.6856 F   0  0  0  0  0  0  0  0  0  0  0  0
  141.9795  135.1219  162.9229 F   0  0  0  0  0  0  0  0  0  0  0  0
  143.9504  134.2540  163.0685 F   0  0  0  0  0  0  0  0  0  0  0  0
  142.1481  132.5634  161.4622 C   0  0  0  0  0  0  0  0  0  0  0  0
  141.8763  131.6019  160.4864 N   0  0  0  0  0  0  0  0  0  0  0  0
  142.1644  131.7491  159.1738 C   0  0  0  0  0  0  0  0  0  0  0  0
  141.8976  130.8526  158.3740 O   0  0  0  0  0  0  0  0  0  0  0  0
  145.1272  134.0998  153.4073 C   0  0  0  0  0  0  0  0  0  0  0  0
  141.4408  130.7447  160.7953 H   0  0  0  0  0  0  0  0  0  0  0  0
  144.6261  131.1667  149.8701 H   0  0  0  0  0  0  0  0  0  0  0  0
  143.5265  132.5291  150.0431 H   0  0  0  0  0  0  0  0  0  0  0  0
  143.2943  131.0715  151.0078 H   0  0  0  0  0  0  0  0  0  0  0  0
  145.4643  131.5398  152.2307 H   0  0  0  0  0  0  0  0  0  0  0  0
  145.7445  132.8997  151.1698 H   0  0  0  0  0  0  0  0  0  0  0  0
  143.6479  134.6993  151.1993 H   0  0  0  0  0  0  0  0  0  0  0  0
  142.5227  133.3646  151.3532 H   0  0  0  0  0  0  0  0  0  0  0  0
  141.6173  135.4477  152.4012 H   0  0  0  0  0  0  0  0  0  0  0  0
  141.7578  134.1378  153.5445 H   0  0  0  0  0  0  0  0  0  0  0  0
  143.6794  136.4925  153.2258 H   0  0  0  0  0  0  0  0  0  0  0  0
  142.6217  136.2058  154.5845 H   0  0  0  0  0  0  0  0  0  0  0  0
  145.0152  135.5489  155.0093 H   0  0  0  0  0  0  0  0  0  0  0  0
  143.3931  133.0857  155.1381 H   0  0  0  0  0  0  0  0  0  0  0  0
  142.8762  132.3603  156.8774 H   0  0  0  0  0  0  0  0  0  0  0  0
  143.4748  134.9164  159.4997 H   0  0  0  0  0  0  0  0  0  0  0  0
  141.8753  132.2611  162.4627 H   0  0  0  0  0  0  0  0  0  0  0  0
  145.9145  133.5107  153.8758 H   0  0  0  0  0  0  0  0  0  0  0  0
  145.6317  134.8046  152.7444 H   0  0  0  0  0  0  0  0  0  0  0  0
  143.7462  132.6243  153.2551 H   0  0  0  0  0  0  0  0  0  0  0  0
  1  2  1  0  0  0  0
  1 25  1  0  0  0  0
  1 26  1  0  0  0  0
  1 27  1  0  0  0  0
  2  3  1  0  0  0  0
  2 28  1  0  0  0  0
  2 29  1  0  0  0  0
  3 23  1  0  0  0  0
  3  4  1  0  0  0  0
  3 43  1  0  0  0  0
  4  5  1  0  0  0  0
  4 30  1  0  0  0  0
  4 31  1  0  0  0  0
  5  6  1  0  0  0  0
  5 32  1  0  0  0  0
  5 33  1  0  0  0  0
  6  7  1  0  0  0  0
  6 34  1  0  0  0  0
  6 35  1  0  0  0  0
  7  8  1  0  0  0  0
  7 23  1  0  0  0  0
  7 36  1  0  0  0  0
  8  9  1  0  0  0  0
  8 37  1  0  0  0  0
  9 10  2  0  0  0  0
  9 11  1  0  0  0  0
 11 12  1  0  0  0  0
 11 38  1  0  0  0  0
 12 21  1  0  0  0  0
 12 13  2  0  0  0  0
 13 14  1  0  0  0  0
 13 39  1  0  0  0  0
 14 15  1  0  0  0  0
 14 19  2  0  0  0  0
 15 16  1  0  0  0  0
 15 17  1  0  0  0  0
 15 18  1  0  0  0  0
 19 20  1  0  0  0  0
 19 40  1  0  0  0  0
 20 24  1  0  0  0  0
 20 21  1  0  0  0  0
 21 22  2  0  0  0  0
 23 41  1  0  0  0  0
 23 42  1  0  0  0  0
M  CHG  1   3   1
M  END
> <s_m_source_file>
AV-unprocessed.smi

> <i_m_source_file_index>
1726

> <i_lp_mmshare_version>
43012

> <i_f3d_flags>
0

> <s_epik_input>
W0NIM11bQ0gyXU4xW0NIMl1bQ0gyXVtDSDJdW0NASF0oW0NIMl0xKVtOSF1DKD1PKVtOSF1jMltjSF1jKEMoRikoRilGKVtjSF1bbkhdYzI9Tw==

> <s_epik_cmdline>
J2VwaWtfcHl0aG9uJywgJy1waCcsICc3LjAnLCAnLXRuJywgJzgnLCAnLW1hJywgJzIwMCcsICctbWV0YWxfYmluZGluZycsICctaW1hZScsICc8aW5maWxlLm1hZT4nLCAnLW9tYWUnLCAnPG91dGZpbGUubWFlPic=

> <r_lp_tautomer_probability>
1

> <r_epik_Ionization_Penalty>
0.00745721

> <r_epik_Ionization_Penalty_Charging>
0.00743804

> <r_epik_Ionization_Penalty_Neutral>
1.91703e-05

> <r_epik_State_Penalty>
-0

> <r_epik_Charging_Adjusted_Penalty>
0.00743804

> <i_epik_Tot_Q>
1

> <i_epik_Tot_abs_Q>
1

> <r_epik_Metal_State_Penalty>
0.37929

> <b_epik_Metal_Only>
0

> <s_lp_Force_Field>
OPLS_2005

> <r_lp_Energy>
34.544

> <b_lp_Chiralities_Consistent>
1

> <s_lp_Variant>
AV-unprocessed.smi:1726-2

> <Gold.Version>
5.8.1

> <Gold.Id.Protein>
6NUR|6NUR_protein|mol2

> <Gold.PLP.Fitness>
39.8445

> <Gold.PLP.PLP>
-30.2566

> <Gold.PLP.part.hbond>
-3.8278

> <Gold.PLP.part.metal>
0.0000

> <Gold.PLP.part.buried>
-5.1652

> <Gold.PLP.part.nonpolar>
-23.3304

> <Gold.PLP.part.repulsive>
0.2702

> <Gold.PLP.ligand.clash>
0.0000

> <Gold.PLP.ligand.torsion>
0.5681

> <Gold.PLP.Chemscore.Hbond>
3.5581

> <Gold.PLP.Chemscore.CHOScore>
0.0000

> <Gold.PLP.Chemscore.Metal>
0.0000

> <Gold.Chemscore.Hbonds>
donor molecule, donor type, donor heavy atom, donor atom, acceptor molecule, acceptor atom, score
      L1  H     3    43       P1 10957  1.92
      L1  H     8    37       P1 10957  1.00
      L1  H    11    38       P1 10957  0.66

> <Gold.PLP.Chemscore.Internal.Correction>
0.0497

> <Gold.Rescore>
     Score         DG    S(hbond)    S(metal)    S(lipo)     H(rot)  DE(clash)    DE(int)     intcor
     14.25     -15.91       2.06        0.00      58.67       1.29       0.05       1.61       ----

> <Gold.Chemscore.Fitness>
14.2533

> <Gold.Chemscore.DG>
-15.9130

> <Gold.Chemscore.ZeroCoef>
-5.4800

> <Gold.Chemscore.Hbond>
2.0558

> <Gold.Chemscore.Metal>
0.0000

> <Gold.Chemscore.Lipo>
58.6739

> <Gold.Chemscore.Internal_Hbond>
0.0000

> <Gold.Chemscore.DEClash>
0.0494

> <Gold.Chemscore.DEInternal>
1.6103

> <Gold.Chemscore.Rot>
1.2884

> <Gold.Chemscore.Internal.Correction>
   9.000000E+99

> <Gold.Chemscore.Hbonds>
donor molecule, donor type, donor heavy atom, donor atom, acceptor molecule, acceptor atom, score
      L1  H     3    43       P1 10957  0.27
      L1  H     8    37       P1 10957  0.94
      L1  H    11    38       P1 10957  0.64

> <Gold.Chemscore.Hbond.Weighted>
-6.8665

> <Gold.Chemscore.Metal.Weighted>
-0.0000

> <Gold.Chemscore.Lipo.Weighted>
-6.8648

> <Gold.Chemscore.Internal_Hbond.Weighted>
0.0000

> <Gold.Chemscore.DEClash.Weighted>
0.0494

> <Gold.Chemscore.DEInternal.Weighted>
1.6103

> <Gold.Chemscore.Rot.Weighted>
3.2983

> <Gold.Chemscore.Internal.Correction.Weighted>
   9.000000E+99

> <Gold.Protein.RotatedTorsions>
[ 6907 6896 6895 6894 ] final   53.28 input  -60.11 | X-H torsion
[ 7974 7965 7964 7962 ] final  -29.08 input  175.53 | X-H torsion
[ 8008 7997 7996 7995 ] final  158.30 input   59.86 | X-H torsion
[ 10167 10162 10161 10158 ] final -113.39 input  -65.29 | X-H torsion
[ 10718 10713 10712 10709 ] final  -74.70 input   66.30 | X-H torsion
[ 10763 10752 10751 10750 ] final  -48.90 input  -60.55 | X-H torsion
[ 11005 11000 10999 10996 ] final   -3.74 input  -57.11 | X-H torsion

> <Gold.Protein.ActiveResidues>
 VAL166  LYS551  ARG553  GLY616  TRP617  ASP618  TYR619  PRO620  LYS621  CYS622 
 ASP623  PHE694  ASN695  SER759  ASP760  ASP761  ALA762  ILE779  LEU786  VAL792 
 PHE793  MET794  SER795  GLU796  ALA797  LYS798  CYS799  TRP800  GLU811  SER814 

> <Gold.Protein.RotatedAtoms>
  152.3320  134.7247  160.0286 H   0  0  0  0  0  0  0  0  0  0  0  0  # atno 6907 bound_to 6896
  151.7660  133.3332  159.3439 H   0  0  0  0  0  0  0  0  0  0  0  0  # atno 6908 bound_to 6896
  150.7428  134.5994  159.6073 H   0  0  0  0  0  0  0  0  0  0  0  0  # atno 6909 bound_to 6896
  146.1242  140.5366  142.8722 H   0  0  0  0  0  0  0  0  0  0  0  0  # atno 7974 bound_to 7965
  156.2311  140.1862  156.7240 H   0  0  0  0  0  0  0  0  0  0  0  0  # atno 8008 bound_to 7997
  154.6024  140.0634  156.9413 H   0  0  0  0  0  0  0  0  0  0  0  0  # atno 8009 bound_to 7997
  155.2152  140.3303  155.4325 H   0  0  0  0  0  0  0  0  0  0  0  0  # atno 8010 bound_to 7997
  140.1123  143.4516  152.1744 H   0  0  0  0  0  0  0  0  0  0  0  0  # atno 10167 bound_to 10162
  156.0233  130.4423  150.2931 H   0  0  0  0  0  0  0  0  0  0  0  0  # atno 10718 bound_to 10713
  154.0854  135.6585  153.4844 H   0  0  0  0  0  0  0  0  0  0  0  0  # atno 10763 bound_to 10752
  153.0341  135.5189  154.7433 H   0  0  0  0  0  0  0  0  0  0  0  0  # atno 10764 bound_to 10752
  154.6541  135.3005  154.9918 H   0  0  0  0  0  0  0  0  0  0  0  0  # atno 10765 bound_to 10752
  140.6726  133.9223  155.8504 H   0  0  0  0  0  0  0  0  0  0  0  0  # atno 11005 bound_to 11000
  144.7626  140.5457  143.6725 LP  0  0  0  0  0  0  0  0  0  0  0  0  # atno 17320 bound_to 7965
  145.5401  139.1475  143.3452 LP  0  0  0  0  0  0  0  0  0  0  0  0  # atno 17321 bound_to 7965
  139.5612  144.7407  151.4149 LP  0  0  0  0  0  0  0  0  0  0  0  0  # atno 17342 bound_to 10162
  140.6918  143.7842  150.7267 LP  0  0  0  0  0  0  0  0  0  0  0  0  # atno 17343 bound_to 10162
  157.1034  131.0202  151.3076 LP  0  0  0  0  0  0  0  0  0  0  0  0  # atno 17370 bound_to 10713
  157.4761  130.7737  149.7370 LP  0  0  0  0  0  0  0  0  0  0  0  0  # atno 17371 bound_to 10713
  141.0380  134.0662  157.3936 LP  0  0  0  0  0  0  0  0  0  0  0  0  # atno 17394 bound_to 11000
  139.8977  135.0151  156.7111 LP  0  0  0  0  0  0  0  0  0  0  0  0  # atno 17395 bound_to 11000

$$$$
