AV-unprocessed.smi:2451|AV-procd|sdf|9684|dock3
  -GOLD-   2272013323D 1   1.00000     0.00000
 Structure written by MMmdl.
 37 38  0  0  0  0  0  0  0  0  2 V2000
  152.3766  143.9749  159.5752 C   0  0  0  0  0  0  0  0  0  0  0  0
  152.8129  142.5497  159.1884 C   0  0  1  0  0  0  0  0  0  0  0  0
  153.7965  142.0129  160.2589 C   0  0  0  0  0  0  0  0  0  0  0  0
  154.2447  140.5793  159.9159 C   0  0  0  0  0  0  0  0  0  0  0  0
  153.0500  139.6180  159.7019 C   0  0  0  0  0  0  0  0  0  0  0  0
  152.0329  140.1105  158.6447 C   0  0  2  0  0  0  0  0  0  0  0  0
  152.6293  140.0237  157.3160 N   0  5  0  0  0  0  0  0  0  0  0  0
  151.9146  139.1270  156.1707 S   0  0  0  0  0  0  0  0  0  0  0  0
  152.1420  139.6547  154.8153 O   0  0  0  0  0  0  0  0  0  0  0  0
  152.1247  137.6832  156.3682 O   0  0  0  0  0  0  0  0  0  0  0  0
  150.1399  139.4437  156.5553 C   0  0  0  0  0  0  0  0  0  0  0  0
  149.4746  140.1338  155.3980 C   0  0  0  0  0  0  0  0  0  0  0  0
  148.2689  139.7783  154.7318 C   0  0  0  0  0  0  0  0  0  0  0  0
  148.1365  140.7428  153.7752 C   0  0  0  0  0  0  0  0  0  0  0  0
  149.1640  141.6261  153.8453 O   0  0  0  0  0  0  0  0  0  0  0  0
  150.0111  141.2315  154.8871 N   0  0  0  0  0  0  0  0  0  0  0  0
  151.6004  141.5786  158.9687 C   0  0  2  0  0  0  0  0  0  0  0  0
  150.5527  142.1237  157.9651 C   0  0  0  0  0  0  0  0  0  0  0  0
  151.7410  143.9685  160.4610 H   0  0  0  0  0  0  0  0  0  0  0  0
  151.8297  144.4633  158.7692 H   0  0  0  0  0  0  0  0  0  0  0  0
  153.2410  144.6031  159.7922 H   0  0  0  0  0  0  0  0  0  0  0  0
  153.3643  142.6395  158.2499 H   0  0  0  0  0  0  0  0  0  0  0  0
  154.6687  142.6628  160.3365 H   0  0  0  0  0  0  0  0  0  0  0  0
  153.3151  142.0172  161.2379 H   0  0  0  0  0  0  0  0  0  0  0  0
  154.8784  140.5999  159.0271 H   0  0  0  0  0  0  0  0  0  0  0  0
  154.8761  140.1970  160.7182 H   0  0  0  0  0  0  0  0  0  0  0  0
  153.4156  138.6249  159.4374 H   0  0  0  0  0  0  0  0  0  0  0  0
  152.5307  139.4976  160.6534 H   0  0  0  0  0  0  0  0  0  0  0  0
  151.1483  139.4764  158.7202 H   0  0  0  0  0  0  0  0  0  0  0  0
  149.6613  138.4870  156.7630 H   0  0  0  0  0  0  0  0  0  0  0  0
  150.0892  140.0447  157.4634 H   0  0  0  0  0  0  0  0  0  0  0  0
  147.6116  138.9434  154.9231 H   0  0  0  0  0  0  0  0  0  0  0  0
  147.4006  140.9303  153.0073 H   0  0  0  0  0  0  0  0  0  0  0  0
  151.0819  141.5243  159.9272 H   0  0  0  0  0  0  0  0  0  0  0  0
  150.9927  142.3337  156.9887 H   0  0  0  0  0  0  0  0  0  0  0  0
  150.1059  143.0501  158.3237 H   0  0  0  0  0  0  0  0  0  0  0  0
  149.7209  141.4326  157.8126 H   0  0  0  0  0  0  0  0  0  0  0  0
  1  2  1  0  0  0  0
  1 19  1  0  0  0  0
  1 20  1  0  0  0  0
  1 21  1  0  0  0  0
  2 17  1  0  0  0  0
  2  3  1  0  0  0  0
  2 22  1  0  0  0  0
  3  4  1  0  0  0  0
  3 23  1  0  0  0  0
  3 24  1  0  0  0  0
  4  5  1  0  0  0  0
  4 25  1  0  0  0  0
  4 26  1  0  0  0  0
  5  6  1  0  0  0  0
  5 27  1  0  0  0  0
  5 28  1  0  0  0  0
  6  7  1  0  0  0  0
  6 17  1  0  0  0  0
  6 29  1  0  0  0  0
  7  8  1  0  0  0  0
  8  9  2  0  0  0  0
  8 10  2  0  0  0  0
  8 11  1  0  0  0  0
 11 12  1  0  0  0  0
 11 30  1  0  0  0  0
 11 31  1  0  0  0  0
 12 16  2  0  0  0  0
 12 13  1  0  0  0  0
 13 14  2  0  0  0  0
 13 32  1  0  0  0  0
 14 15  1  0  0  0  0
 14 33  1  0  0  0  0
 15 16  1  0  0  0  0
 17 18  1  0  0  0  0
 17 34  1  0  0  0  0
 18 35  1  0  0  0  0
 18 36  1  0  0  0  0
 18 37  1  0  0  0  0
M  CHG  1   7  -1
M  END
> <s_m_source_file>
AV-unprocessed.smi

> <i_m_source_file_index>
2451

> <i_lp_mmshare_version>
43012

> <i_f3d_flags>
0

> <s_epik_input>
W0NIM11bQ0BASF0xW0NIMl1bQ0gyXVtDSDJdW0NASF0oW0NASF0xW0NIM10pW05IXVMoPU8pKD1PKVtDSDJdYzJbY0hdW2NIXW9uMg==

> <s_epik_cmdline>
J2VwaWtfcHl0aG9uJywgJy1waCcsICc3LjAnLCAnLXRuJywgJzgnLCAnLW1hJywgJzIwMCcsICctbWV0YWxfYmluZGluZycsICctaW1hZScsICc8aW5maWxlLm1hZT4nLCAnLW9tYWUnLCAnPG91dGZpbGUubWFlPic=

> <r_lp_tautomer_probability>
1

> <r_epik_Ionization_Penalty>
5.22693

> <r_epik_Ionization_Penalty_Charging>
5.22693

> <r_epik_Ionization_Penalty_Neutral>
2.67702e-10

> <r_epik_State_Penalty>
5.22685

> <r_epik_Charging_Adjusted_Penalty>
10.4538

> <i_epik_Tot_Q>
-1

> <i_epik_Tot_abs_Q>
1

> <r_epik_Metal_State_Penalty>
1.28716

> <b_epik_Metal_Only>
1

> <s_lp_Force_Field>
OPLS_2005

> <r_lp_Energy>
15.3657

> <b_lp_Chiralities_Consistent>
1

> <s_lp_Variant>
AV-unprocessed.smi:2451-16

> <Gold.Version>
5.8.1

> <Gold.Id.Protein>
6NUR|6NUR_protein|mol2

> <Gold.PLP.Fitness>
44.0969

> <Gold.PLP.PLP>
-34.0404

> <Gold.PLP.part.hbond>
-5.0000

> <Gold.PLP.part.metal>
0.0000

> <Gold.PLP.part.buried>
-2.1239

> <Gold.PLP.part.nonpolar>
-26.8260

> <Gold.PLP.part.repulsive>
0.3944

> <Gold.PLP.ligand.clash>
0.0000

> <Gold.PLP.ligand.torsion>
0.6752

> <Gold.PLP.Chemscore.Hbond>
3.4720

> <Gold.PLP.Chemscore.CHOScore>
0.0000

> <Gold.PLP.Chemscore.Metal>
0.0000

> <Gold.Chemscore.Hbonds>
donor molecule, donor type, donor heavy atom, donor atom, acceptor molecule, acceptor atom, score
      P1  H  7989  7998       L1     9  0.83
      P1  H  7997  8008       L1     7  2.00
      P1  H  8011  8017       L1    15  0.67

> <Gold.PLP.Chemscore.Internal.Correction>
0.9909

> <Gold.Rescore>
     Score         DG    S(hbond)    S(metal)    S(lipo)     H(rot)  DE(clash)    DE(int)     intcor
     18.23     -20.42       2.35        0.00      91.17       1.40       0.02       2.17       ----

> <Gold.Chemscore.Fitness>
18.2328

> <Gold.Chemscore.DG>
-20.4228

> <Gold.Chemscore.ZeroCoef>
-5.4800

> <Gold.Chemscore.Hbond>
2.3523

> <Gold.Chemscore.Metal>
0.0000

> <Gold.Chemscore.Lipo>
91.1671

> <Gold.Chemscore.Internal_Hbond>
0.0000

> <Gold.Chemscore.DEClash>
0.0222

> <Gold.Chemscore.DEInternal>
2.1678

> <Gold.Chemscore.Rot>
1.3986

> <Gold.Chemscore.Internal.Correction>
   9.000000E+99

> <Gold.Chemscore.Hbonds>
donor molecule, donor type, donor heavy atom, donor atom, acceptor molecule, acceptor atom, score
      P1  H  7989  7998       L1     9  0.81
      P1  H  7997  8008       L1     7  0.39
      P1  H  8011  8017       L1    15  0.64

> <Gold.Chemscore.Hbond.Weighted>
-7.8567

> <Gold.Chemscore.Metal.Weighted>
-0.0000

> <Gold.Chemscore.Lipo.Weighted>
-10.6666

> <Gold.Chemscore.Internal_Hbond.Weighted>
0.0000

> <Gold.Chemscore.DEClash.Weighted>
0.0222

> <Gold.Chemscore.DEInternal.Weighted>
2.1678

> <Gold.Chemscore.Rot.Weighted>
3.5804

> <Gold.Chemscore.Internal.Correction.Weighted>
   9.000000E+99

> <Gold.Protein.RotatedTorsions>
[ 6907 6896 6895 6894 ] final   31.41 input  -60.11 | X-H torsion
[ 7974 7965 7964 7962 ] final   65.48 input  175.53 | X-H torsion
[ 8008 7997 7996 7995 ] final  -67.10 input   59.86 | X-H torsion
[ 10167 10162 10161 10158 ] final  -99.93 input  -65.29 | X-H torsion
[ 10718 10713 10712 10709 ] final -110.38 input   66.30 | X-H torsion
[ 10763 10752 10751 10750 ] final  116.33 input  -60.55 | X-H torsion
[ 11005 11000 10999 10996 ] final  -22.21 input  -57.11 | X-H torsion

> <Gold.Protein.ActiveResidues>
 VAL166  LYS551  ARG553  GLY616  TRP617  ASP618  TYR619  PRO620  LYS621  CYS622 
 ASP623  PHE694  ASN695  SER759  ASP760  ASP761  ALA762  ILE779  LEU786  VAL792 
 PHE793  MET794  SER795  GLU796  ALA797  LYS798  CYS799  TRP800  GLU811  SER814 

> <Gold.Protein.RotatedAtoms>
  152.0598  134.9601  160.0574 H   0  0  0  0  0  0  0  0  0  0  0  0  # atno 6907 bound_to 6896
  152.0969  133.4224  159.4577 H   0  0  0  0  0  0  0  0  0  0  0  0  # atno 6908 bound_to 6896
  150.6838  134.2725  159.4637 H   0  0  0  0  0  0  0  0  0  0  0  0  # atno 6909 bound_to 6896
  145.8380  139.3178  143.0948 H   0  0  0  0  0  0  0  0  0  0  0  0  # atno 7974 bound_to 7965
  154.4778  140.0899  156.7304 H   0  0  0  0  0  0  0  0  0  0  0  0  # atno 8008 bound_to 7997
  155.4551  140.3459  155.4287 H   0  0  0  0  0  0  0  0  0  0  0  0  # atno 8009 bound_to 7997
  156.1143  140.1456  156.9282 H   0  0  0  0  0  0  0  0  0  0  0  0  # atno 8010 bound_to 7997
  140.2573  143.3431  152.0659 H   0  0  0  0  0  0  0  0  0  0  0  0  # atno 10167 bound_to 10162
  156.0588  130.5812  150.8229 H   0  0  0  0  0  0  0  0  0  0  0  0  # atno 10718 bound_to 10713
  153.5356  135.3569  155.2695 H   0  0  0  0  0  0  0  0  0  0  0  0  # atno 10763 bound_to 10752
  154.8722  135.4079  154.3102 H   0  0  0  0  0  0  0  0  0  0  0  0  # atno 10764 bound_to 10752
  153.3799  135.7068  153.6641 H   0  0  0  0  0  0  0  0  0  0  0  0  # atno 10765 bound_to 10752
  140.8635  133.7771  156.0102 H   0  0  0  0  0  0  0  0  0  0  0  0  # atno 11005 bound_to 11000
  145.9497  140.8918  143.0265 LP  0  0  0  0  0  0  0  0  0  0  0  0  # atno 17320 bound_to 7965
  144.6735  140.1663  143.7418 LP  0  0  0  0  0  0  0  0  0  0  0  0  # atno 17321 bound_to 7965
  139.5027  144.6741  151.6171 LP  0  0  0  0  0  0  0  0  0  0  0  0  # atno 17342 bound_to 10162
  140.5994  143.9637  150.6376 LP  0  0  0  0  0  0  0  0  0  0  0  0  # atno 17343 bound_to 10162
  157.5579  131.0945  150.9601 LP  0  0  0  0  0  0  0  0  0  0  0  0  # atno 17370 bound_to 10713
  156.9846  130.5540  149.5298 LP  0  0  0  0  0  0  0  0  0  0  0  0  # atno 17371 bound_to 10713
  140.8656  134.2788  157.5215 LP  0  0  0  0  0  0  0  0  0  0  0  0  # atno 17394 bound_to 11000
  139.8708  134.9541  156.4164 LP  0  0  0  0  0  0  0  0  0  0  0  0  # atno 17395 bound_to 11000

$$$$
