AV-unprocessed.smi:33|AV-procd|sdf|207|dock5
  -GOLD-   2262015493D 1   1.00000     0.00000
 Structure written by MMmdl.
 67 72  0  0  0  0  0  0  0  0  1 V2000
  151.4858  139.7483  157.2781 O   0  0  0  0  0  0  0  0  0  0  0  0
  151.0513  140.8973  157.1742 C   0  0  0  0  0  0  0  0  0  0  0  0
  150.1075  141.2599  156.2831 O   0  0  0  0  0  0  0  0  0  0  0  0
  149.6076  140.3130  155.3530 C   0  0  0  0  0  0  0  0  0  0  0  0
  148.5047  140.9628  154.5008 C   0  0  2  0  0  0  0  0  0  0  0  0
  147.5383  141.5575  155.3617 O   0  0  0  0  0  0  0  0  0  0  0  0
  146.5612  140.6171  155.6939 C   0  0  1  0  0  0  0  0  0  0  0  0
  145.2251  141.2947  155.6921 N   0  0  0  0  0  0  0  0  0  0  0  0
  144.9170  142.5312  155.1685 C   0  0  0  0  0  0  0  0  0  0  0  0
  143.6706  142.8993  155.2933 N   0  0  0  0  0  0  0  0  0  0  0  0
  143.0726  141.8364  155.9573 C   0  0  0  0  0  0  0  0  0  0  0  0
  141.7514  141.5718  156.4106 C   0  0  0  0  0  0  0  0  0  0  0  0
  140.7250  142.4405  156.2456 N   0  0  0  0  0  0  0  0  0  0  0  0
  140.9914  143.8583  156.5313 C   0  0  0  0  0  0  0  0  0  0  0  0
  141.9051  144.1630  157.3004 O   0  0  0  0  0  0  0  0  0  0  0  0
  140.1288  144.9319  155.9294 C   0  0  0  0  0  0  0  0  0  0  0  0
  140.0831  146.2147  156.5182 C   0  0  0  0  0  0  0  0  0  0  0  0
  139.2878  147.2288  155.9502 C   0  0  0  0  0  0  0  0  0  0  0  0
  138.5471  146.9721  154.7808 C   0  0  0  0  0  0  0  0  0  0  0  0
  138.6097  145.7038  154.1730 C   0  0  0  0  0  0  0  0  0  0  0  0
  139.4056  144.6895  154.7396 C   0  0  0  0  0  0  0  0  0  0  0  0
  139.4338  141.8861  155.8116 C   0  0  0  0  0  0  0  0  0  0  0  0
  138.3909  142.4724  156.1081 O   0  0  0  0  0  0  0  0  0  0  0  0
  139.3756  140.5833  155.0645 C   0  0  0  0  0  0  0  0  0  0  0  0
  138.3015  139.6922  155.2799 C   0  0  0  0  0  0  0  0  0  0  0  0
  138.2336  138.4769  154.5712 C   0  0  0  0  0  0  0  0  0  0  0  0
  139.2284  138.1537  153.6289 C   0  0  0  0  0  0  0  0  0  0  0  0
  140.2871  139.0502  153.3890 C   0  0  0  0  0  0  0  0  0  0  0  0
  140.3564  140.2648  154.0982 C   0  0  0  0  0  0  0  0  0  0  0  0
  141.5188  140.3899  157.0388 N   0  0  0  0  0  0  0  0  0  0  0  0
  142.5185  139.5207  157.2102 C   0  0  0  0  0  0  0  0  0  0  0  0
  143.7957  139.6345  156.8400 N   0  0  0  0  0  0  0  0  0  0  0  0
  144.0361  140.8209  156.2102 C   0  0  0  0  0  0  0  0  0  0  0  0
  146.6582  139.4592  154.6784 C   0  0  1  0  0  0  0  0  0  0  0  0
  145.4432  139.0736  154.0610 O   0  0  0  0  0  0  0  0  0  0  0  0
  147.6873  139.9651  153.6769 C   0  0  1  0  0  0  0  0  0  0  0  0
  147.1057  140.6308  152.6774 F   0  0  0  0  0  0  0  0  0  0  0  0
  151.5131  142.0324  158.0240 C   0  0  0  0  0  0  0  0  0  0  0  0
  151.2452  143.3594  157.6140 C   0  0  0  0  0  0  0  0  0  0  0  0
  151.6711  144.4514  158.3950 C   0  0  0  0  0  0  0  0  0  0  0  0
  152.3680  144.2295  159.5969 C   0  0  0  0  0  0  0  0  0  0  0  0
  152.6382  142.9141  160.0172 C   0  0  0  0  0  0  0  0  0  0  0  0
  152.2151  141.8209  159.2365 C   0  0  0  0  0  0  0  0  0  0  0  0
  150.4168  139.9377  154.7255 H   0  0  0  0  0  0  0  0  0  0  0  0
  149.1954  139.4621  155.8972 H   0  0  0  0  0  0  0  0  0  0  0  0
  148.9469  141.7338  153.8687 H   0  0  0  0  0  0  0  0  0  0  0  0
  146.6944  140.2820  156.7234 H   0  0  0  0  0  0  0  0  0  0  0  0
  145.6534  143.1590  154.6884 H   0  0  0  0  0  0  0  0  0  0  0  0
  140.6474  146.4228  157.4158 H   0  0  0  0  0  0  0  0  0  0  0  0
  139.2467  148.2044  156.4119 H   0  0  0  0  0  0  0  0  0  0  0  0
  137.9367  147.7497  154.3459 H   0  0  0  0  0  0  0  0  0  0  0  0
  138.0488  145.5087  153.2709 H   0  0  0  0  0  0  0  0  0  0  0  0
  139.4506  143.7216  154.2610 H   0  0  0  0  0  0  0  0  0  0  0  0
  137.5319  139.9302  156.0000 H   0  0  0  0  0  0  0  0  0  0  0  0
  137.4170  137.7929  154.7497 H   0  0  0  0  0  0  0  0  0  0  0  0
  139.1757  137.2218  153.0856 H   0  0  0  0  0  0  0  0  0  0  0  0
  141.0455  138.8070  152.6596 H   0  0  0  0  0  0  0  0  0  0  0  0
  141.1708  140.9474  153.9015 H   0  0  0  0  0  0  0  0  0  0  0  0
  142.2584  138.6026  157.7158 H   0  0  0  0  0  0  0  0  0  0  0  0
  147.0652  138.5971  155.2080 H   0  0  0  0  0  0  0  0  0  0  0  0
  145.0860  139.8273  153.6153 H   0  0  0  0  0  0  0  0  0  0  0  0
  148.2844  139.1698  153.2295 H   0  0  0  0  0  0  0  0  0  0  0  0
  150.7121  143.5546  156.6945 H   0  0  0  0  0  0  0  0  0  0  0  0
  151.4629  145.4605  158.0710 H   0  0  0  0  0  0  0  0  0  0  0  0
  152.6946  145.0668  160.1958 H   0  0  0  0  0  0  0  0  0  0  0  0
  153.1714  142.7424  160.9409 H   0  0  0  0  0  0  0  0  0  0  0  0
  152.4386  140.8246  159.5889 H   0  0  0  0  0  0  0  0  0  0  0  0
  1  2  2  0  0  0  0
  2  3  1  0  0  0  0
  2 38  1  0  0  0  0
  3  4  1  0  0  0  0
  4  5  1  0  0  0  0
  4 44  1  0  0  0  0
  4 45  1  0  0  0  0
  5 36  1  0  0  0  0
  5  6  1  0  0  0  0
  5 46  1  0  0  0  0
  6  7  1  0  0  0  0
  7  8  1  0  0  0  0
  7 34  1  0  0  0  0
  7 47  1  0  0  0  0
  8 33  1  0  0  0  0
  8  9  1  0  0  0  0
  9 10  2  0  0  0  0
  9 48  1  0  0  0  0
 10 11  1  0  0  0  0
 11 33  2  0  0  0  0
 11 12  1  0  0  0  0
 12 13  1  0  0  0  0
 12 30  2  0  0  0  0
 13 14  1  0  0  0  0
 13 22  1  0  0  0  0
 14 15  2  0  0  0  0
 14 16  1  0  0  0  0
 16 21  1  0  0  0  0
 16 17  2  0  0  0  0
 17 18  1  0  0  0  0
 17 49  1  0  0  0  0
 18 19  2  0  0  0  0
 18 50  1  0  0  0  0
 19 20  1  0  0  0  0
 19 51  1  0  0  0  0
 20 21  2  0  0  0  0
 20 52  1  0  0  0  0
 21 53  1  0  0  0  0
 22 23  2  0  0  0  0
 22 24  1  0  0  0  0
 24 29  1  0  0  0  0
 24 25  2  0  0  0  0
 25 26  1  0  0  0  0
 25 54  1  0  0  0  0
 26 27  2  0  0  0  0
 26 55  1  0  0  0  0
 27 28  1  0  0  0  0
 27 56  1  0  0  0  0
 28 29  2  0  0  0  0
 28 57  1  0  0  0  0
 29 58  1  0  0  0  0
 30 31  1  0  0  0  0
 31 32  2  0  0  0  0
 31 59  1  0  0  0  0
 32 33  1  0  0  0  0
 34 35  1  0  0  0  0
 34 36  1  0  0  0  0
 34 60  1  0  0  0  0
 35 61  1  0  0  0  0
 36 37  1  0  0  0  0
 36 62  1  0  0  0  0
 38 43  1  0  0  0  0
 38 39  2  0  0  0  0
 39 40  1  0  0  0  0
 39 63  1  0  0  0  0
 40 41  2  0  0  0  0
 40 64  1  0  0  0  0
 41 42  1  0  0  0  0
 41 65  1  0  0  0  0
 42 43  2  0  0  0  0
 42 66  1  0  0  0  0
 43 67  1  0  0  0  0
M  END
> <s_m_source_file>
AV-unprocessed.smi

> <i_m_source_file_index>
33

> <i_lp_mmshare_version>
43012

> <i_f3d_flags>
0

> <s_epik_input>
W2NIXTFbY0hdW2NIXVtjSF1bY0hdYzFDKD1PKU9bQ0gyXVtDQEBIXTJPW0NASF0oW0NAQEhdKFtPSF0pW0NAQEhdMkYpbihbY0hdbjMpYyhjMzQpbltjSF1uYzROKEMoPU8pYzVbY0hdW2NIXVtjSF1bY0hdW2NIXTUpQyg9TyljNltjSF1bY0hdW2NIXVtjSF1bY0hdNg==

> <s_epik_cmdline>
J2VwaWtfcHl0aG9uJywgJy1waCcsICc3LjAnLCAnLXRuJywgJzgnLCAnLW1hJywgJzIwMCcsICctbWV0YWxfYmluZGluZycsICctaW1hZScsICc8aW5maWxlLm1hZT4nLCAnLW9tYWUnLCAnPG91dGZpbGUubWFlPic=

> <r_lp_tautomer_probability>
1

> <r_epik_Ionization_Penalty>
0.00067664

> <r_epik_Ionization_Penalty_Charging>
0

> <r_epik_Ionization_Penalty_Neutral>
0.00067664

> <r_epik_State_Penalty>
0.000428095

> <r_epik_Charging_Adjusted_Penalty>
0.000428095

> <i_epik_Tot_Q>
0

> <i_epik_Tot_abs_Q>
0

> <r_epik_Metal_State_Penalty>
-0

> <b_epik_Metal_Only>
0

> <s_epik_Chemistry_Notes>
This compound has an ester and may undergo hydrolysis at high or low pH. This compound contains an acetal/aminal-like group ( X-CH(R)-Y where X, Y are N, S, or O) that may be acid/base labile, releasing an aldehyde.

> <s_lp_Force_Field>
OPLS_2005

> <r_lp_Energy>
79.5237

> <b_lp_Chiralities_Consistent>
1

> <s_lp_Variant>
AV-unprocessed.smi:33-9

> <Gold.Version>
5.8.1

> <Gold.Id.Protein>
6NUR|6NUR_protein|mol2

> <Gold.PLP.Fitness>
57.8221

> <Gold.PLP.PLP>
-55.3621

> <Gold.PLP.part.hbond>
-1.0000

> <Gold.PLP.part.metal>
0.0000

> <Gold.PLP.part.buried>
-3.7384

> <Gold.PLP.part.nonpolar>
-50.0616

> <Gold.PLP.part.repulsive>
0.3764

> <Gold.PLP.ligand.clash>
0.0000

> <Gold.PLP.ligand.torsion>
2.4746

> <Gold.PLP.Chemscore.Hbond>
0.9760

> <Gold.PLP.Chemscore.CHOScore>
0.0000

> <Gold.PLP.Chemscore.Metal>
0.0000

> <Gold.Chemscore.Hbonds>
donor molecule, donor type, donor heavy atom, donor atom, acceptor molecule, acceptor atom, score
      L1  H    35    61       P1 10175  0.91

> <Gold.PLP.Chemscore.Internal.Correction>
4.4811

> <Gold.Rescore>
     Score         DG    S(hbond)    S(metal)    S(lipo)     H(rot)  DE(clash)    DE(int)     intcor
      9.92     -20.52       0.96        0.00     156.34       2.52       0.54      10.06       ----

> <Gold.Chemscore.Fitness>
9.9175

> <Gold.Chemscore.DG>
-20.5192

> <Gold.Chemscore.ZeroCoef>
-5.4800

> <Gold.Chemscore.Hbond>
0.9613

> <Gold.Chemscore.Metal>
0.0000

> <Gold.Chemscore.Lipo>
156.3401

> <Gold.Chemscore.Internal_Hbond>
0.0000

> <Gold.Chemscore.DEClash>
0.5426

> <Gold.Chemscore.DEInternal>
10.0591

> <Gold.Chemscore.Rot>
2.5247

> <Gold.Chemscore.Internal.Correction>
   9.000000E+99

> <Gold.Chemscore.Hbonds>
donor molecule, donor type, donor heavy atom, donor atom, acceptor molecule, acceptor atom, score
      L1  H    35    61       P1 10175  0.89

> <Gold.Chemscore.Hbond.Weighted>
-3.2107

> <Gold.Chemscore.Metal.Weighted>
-0.0000

> <Gold.Chemscore.Lipo.Weighted>
-18.2918

> <Gold.Chemscore.Internal_Hbond.Weighted>
0.0000

> <Gold.Chemscore.DEClash.Weighted>
0.5426

> <Gold.Chemscore.DEInternal.Weighted>
10.0591

> <Gold.Chemscore.Rot.Weighted>
6.4633

> <Gold.Chemscore.Internal.Correction.Weighted>
   9.000000E+99

> <Gold.Protein.RotatedTorsions>
[ 6907 6896 6895 6894 ] final   22.79 input  -60.11 | X-H torsion
[ 7974 7965 7964 7962 ] final  122.95 input  175.53 | X-H torsion
[ 8008 7997 7996 7995 ] final -175.47 input   59.86 | X-H torsion
[ 10167 10162 10161 10158 ] final   78.85 input  -65.29 | X-H torsion
[ 10718 10713 10712 10709 ] final  105.09 input   66.30 | X-H torsion
[ 10763 10752 10751 10750 ] final -177.23 input  -60.55 | X-H torsion
[ 11005 11000 10999 10996 ] final   13.45 input  -57.11 | X-H torsion

> <Gold.Protein.ActiveResidues>
 VAL166  LYS551  ARG553  GLY616  TRP617  ASP618  TYR619  PRO620  LYS621  CYS622 
 ASP623  PHE694  ASN695  SER759  ASP760  ASP761  ALA762  ILE779  LEU786  VAL792 
 PHE793  MET794  SER795  GLU796  ALA797  LYS798  CYS799  TRP800  GLU811  SER814 

> <Gold.Protein.RotatedAtoms>
  151.9324  135.0250  160.0529 H   0  0  0  0  0  0  0  0  0  0  0  0  # atno 6907 bound_to 6896
  152.2107  133.4904  159.5116 H   0  0  0  0  0  0  0  0  0  0  0  0  # atno 6908 bound_to 6896
  150.6975  134.1388  159.4140 H   0  0  0  0  0  0  0  0  0  0  0  0  # atno 6909 bound_to 6896
  145.1016  139.3515  143.4809 H   0  0  0  0  0  0  0  0  0  0  0  0  # atno 7974 bound_to 7965
  155.9829  140.1185  157.0710 H   0  0  0  0  0  0  0  0  0  0  0  0  # atno 8008 bound_to 7997
  154.4188  140.1141  156.5528 H   0  0  0  0  0  0  0  0  0  0  0  0  # atno 8009 bound_to 7997
  155.6446  140.3473  155.4729 H   0  0  0  0  0  0  0  0  0  0  0  0  # atno 8010 bound_to 7997
  139.9666  144.5924  150.8023 H   0  0  0  0  0  0  0  0  0  0  0  0  # atno 10167 bound_to 10162
  157.6717  131.0819  150.5805 H   0  0  0  0  0  0  0  0  0  0  0  0  # atno 10718 bound_to 10713
  154.5627  135.2821  155.0904 H   0  0  0  0  0  0  0  0  0  0  0  0  # atno 10763 bound_to 10752
  154.2306  135.6375  153.5178 H   0  0  0  0  0  0  0  0  0  0  0  0  # atno 10764 bound_to 10752
  153.0034  135.5536  154.6226 H   0  0  0  0  0  0  0  0  0  0  0  0  # atno 10765 bound_to 10752
  140.4806  134.0939  155.7750 H   0  0  0  0  0  0  0  0  0  0  0  0  # atno 11005 bound_to 11000
  146.3529  140.0896  142.8613 LP  0  0  0  0  0  0  0  0  0  0  0  0  # atno 17320 bound_to 7965
  145.0949  140.9308  143.4747 LP  0  0  0  0  0  0  0  0  0  0  0  0  # atno 17321 bound_to 7965
  140.7536  143.3011  151.3078 LP  0  0  0  0  0  0  0  0  0  0  0  0  # atno 17342 bound_to 10162
  139.6513  144.0357  152.2628 LP  0  0  0  0  0  0  0  0  0  0  0  0  # atno 17343 bound_to 10162
  156.6105  130.4379  149.5861 LP  0  0  0  0  0  0  0  0  0  0  0  0  # atno 17370 bound_to 10713
  156.2434  130.6864  151.1577 LP  0  0  0  0  0  0  0  0  0  0  0  0  # atno 17371 bound_to 10713
  141.1533  133.8929  157.2043 LP  0  0  0  0  0  0  0  0  0  0  0  0  # atno 17394 bound_to 11000
  139.9828  135.0092  156.9792 LP  0  0  0  0  0  0  0  0  0  0  0  0  # atno 17395 bound_to 11000

$$$$
