AV-unprocessed.smi:1891|AV-procd|sdf|7665|dock10
  -GOLD-   22720 9403D 1   1.00000     0.00000
 Structure written by MMmdl.
 36 38  0  0  0  0  0  0  0  0  1 V2000
  151.0092  136.7297  154.3968 O   0  0  0  0  0  0  0  0  0  0  0  0
  151.2057  138.0505  154.8519 C   0  0  0  0  0  0  0  0  0  0  0  0
  150.0160  138.9340  154.6252 C   0  0  0  0  0  0  0  0  0  0  0  0
  148.9221  138.4865  154.0072 N   0  0  0  0  0  0  0  0  0  0  0  0
  148.0847  139.5841  154.0349 C   0  0  0  0  0  0  0  0  0  0  0  0
  146.7700  139.7488  153.5431 C   0  0  0  0  0  0  0  0  0  0  0  0
  146.0992  140.9798  153.6974 C   0  0  0  0  0  0  0  0  0  0  0  0
  146.7313  142.0607  154.3455 C   0  0  0  0  0  0  0  0  0  0  0  0
  148.0414  141.9180  154.8415 C   0  0  0  0  0  0  0  0  0  0  0  0
  148.7081  140.6880  154.6818 C   0  0  0  0  0  0  0  0  0  0  0  0
  149.9713  140.2269  155.0401 N   0  0  0  0  0  0  0  0  0  0  0  0
  150.9946  141.0003  155.7337 C   0  0  0  0  0  0  0  0  0  0  0  0
  150.5169  141.5403  157.0975 C   0  0  2  0  0  0  0  0  0  0  0  0
  150.0906  142.8827  156.9668 O   0  0  0  0  0  0  0  0  0  0  0  0
  151.5948  141.3729  158.1598 C   0  0  0  0  0  0  0  0  0  0  0  0
  151.7646  140.1329  158.8159 C   0  0  0  0  0  0  0  0  0  0  0  0
  152.7539  139.9811  159.8067 C   0  0  0  0  0  0  0  0  0  0  0  0
  153.5775  141.0692  160.1519 C   0  0  0  0  0  0  0  0  0  0  0  0
  154.5269  140.9242  161.1064 F   0  0  0  0  0  0  0  0  0  0  0  0
  153.4106  142.3091  159.5064 C   0  0  0  0  0  0  0  0  0  0  0  0
  152.4213  142.4634  158.5154 C   0  0  0  0  0  0  0  0  0  0  0  0
  152.2679  143.6666  157.9114 F   0  0  0  0  0  0  0  0  0  0  0  0
  150.6689  136.7633  153.5161 H   0  0  0  0  0  0  0  0  0  0  0  0
  151.4297  138.0157  155.9187 H   0  0  0  0  0  0  0  0  0  0  0  0
  152.0819  138.4806  154.3671 H   0  0  0  0  0  0  0  0  0  0  0  0
  146.2761  138.9260  153.0478 H   0  0  0  0  0  0  0  0  0  0  0  0
  145.0943  141.0946  153.3185 H   0  0  0  0  0  0  0  0  0  0  0  0
  146.2099  142.9995  154.4615 H   0  0  0  0  0  0  0  0  0  0  0  0
  148.5270  142.7447  155.3385 H   0  0  0  0  0  0  0  0  0  0  0  0
  151.8596  140.3511  155.8762 H   0  0  0  0  0  0  0  0  0  0  0  0
  151.3337  141.8208  155.1026 H   0  0  0  0  0  0  0  0  0  0  0  0
  149.6367  140.9807  157.4133 H   0  0  0  0  0  0  0  0  0  0  0  0
  149.6450  142.9769  156.1388 H   0  0  0  0  0  0  0  0  0  0  0  0
  151.1338  139.2929  158.5641 H   0  0  0  0  0  0  0  0  0  0  0  0
  152.8789  139.0302  160.3034 H   0  0  0  0  0  0  0  0  0  0  0  0
  154.0408  143.1447  159.7732 H   0  0  0  0  0  0  0  0  0  0  0  0
  1  2  1  0  0  0  0
  1 23  1  0  0  0  0
  2  3  1  0  0  0  0
  2 24  1  0  0  0  0
  2 25  1  0  0  0  0
  3 11  1  0  0  0  0
  3  4  2  0  0  0  0
  4  5  1  0  0  0  0
  5 10  2  0  0  0  0
  5  6  1  0  0  0  0
  6  7  2  0  0  0  0
  6 26  1  0  0  0  0
  7  8  1  0  0  0  0
  7 27  1  0  0  0  0
  8  9  2  0  0  0  0
  8 28  1  0  0  0  0
  9 10  1  0  0  0  0
  9 29  1  0  0  0  0
 10 11  1  0  0  0  0
 11 12  1  0  0  0  0
 12 13  1  0  0  0  0
 12 30  1  0  0  0  0
 12 31  1  0  0  0  0
 13 14  1  0  0  0  0
 13 15  1  0  0  0  0
 13 32  1  0  0  0  0
 14 33  1  0  0  0  0
 15 21  1  0  0  0  0
 15 16  2  0  0  0  0
 16 17  1  0  0  0  0
 16 34  1  0  0  0  0
 17 18  2  0  0  0  0
 17 35  1  0  0  0  0
 18 19  1  0  0  0  0
 18 20  1  0  0  0  0
 20 21  2  0  0  0  0
 20 36  1  0  0  0  0
 21 22  1  0  0  0  0
M  END
> <s_m_source_file>
AV-unprocessed.smi

> <i_m_source_file_index>
1891

> <i_lp_mmshare_version>
43012

> <i_f3d_flags>
0

> <s_epik_input>
W2NIXTFbY0hdW2NIXVtjSF1jKGMxMiluKGMobjIpW0NIMl1bT0hdKVtDSDJdW0NASF0oW09IXSljM1tjSF1bY0hdYyhGKVtjSF1jM0Y=

> <s_epik_cmdline>
J2VwaWtfcHl0aG9uJywgJy1waCcsICc3LjAnLCAnLXRuJywgJzgnLCAnLW1hJywgJzIwMCcsICctbWV0YWxfYmluZGluZycsICctaW1hZScsICc8aW5maWxlLm1hZT4nLCAnLW9tYWUnLCAnPG91dGZpbGUubWFlPic=

> <r_epik_Ionization_Penalty>
0.0634724

> <r_epik_Ionization_Penalty_Charging>
0

> <r_epik_Ionization_Penalty_Neutral>
0.0634724

> <r_epik_State_Penalty>
0.0551572

> <r_epik_Charging_Adjusted_Penalty>
0.0551572

> <i_epik_Tot_Q>
0

> <i_epik_Tot_abs_Q>
0

> <r_epik_Metal_State_Penalty>
5.78034e-05

> <b_epik_Metal_Only>
0

> <s_lp_Force_Field>
OPLS_2005

> <r_lp_Energy>
12.6206

> <b_lp_Chiralities_Consistent>
1

> <s_lp_Variant>
AV-unprocessed.smi:1891-1

> <Gold.Version>
5.8.1

> <Gold.Id.Protein>
6NUR|6NUR_protein|mol2

> <Gold.PLP.Fitness>
52.5340

> <Gold.PLP.PLP>
-48.7048

> <Gold.PLP.part.hbond>
-3.0000

> <Gold.PLP.part.metal>
0.0000

> <Gold.PLP.part.buried>
2.1396

> <Gold.PLP.part.nonpolar>
-47.2427

> <Gold.PLP.part.repulsive>
1.3625

> <Gold.PLP.ligand.clash>
0.0218

> <Gold.PLP.ligand.torsion>
1.2272

> <Gold.PLP.Chemscore.Hbond>
2.0897

> <Gold.PLP.Chemscore.CHOScore>
0.0000

> <Gold.PLP.Chemscore.Metal>
0.0000

> <Gold.Chemscore.Hbonds>
donor molecule, donor type, donor heavy atom, donor atom, acceptor molecule, acceptor atom, score
      L1  H     1    23       P1  7949  0.24
      L1  H    14    33       P1  8028  0.38
      P1  H 10752 10765       L1     1  0.32

> <Gold.PLP.Chemscore.Internal.Correction>
0.0364

> <Gold.Rescore>
     Score         DG    S(hbond)    S(metal)    S(lipo)     H(rot)  DE(clash)    DE(int)     intcor
     12.25     -15.88       1.52        0.00     108.49       2.88       0.68       2.94       ----

> <Gold.Chemscore.Fitness>
12.2475

> <Gold.Chemscore.DG>
-15.8754

> <Gold.Chemscore.ZeroCoef>
-5.4800

> <Gold.Chemscore.Hbond>
1.5170

> <Gold.Chemscore.Metal>
0.0000

> <Gold.Chemscore.Lipo>
108.4872

> <Gold.Chemscore.Internal_Hbond>
0.0000

> <Gold.Chemscore.DEClash>
0.6831

> <Gold.Chemscore.DEInternal>
2.9447

> <Gold.Chemscore.Rot>
2.8767

> <Gold.Chemscore.Internal.Correction>
   9.000000E+99

> <Gold.Chemscore.Hbonds>
donor molecule, donor type, donor heavy atom, donor atom, acceptor molecule, acceptor atom, score
      L1  H     1    23       P1  7949  0.02
      L1  H    14    33       P1  8028  0.37
      P1  H 10752 10765       L1     1  0.06

> <Gold.Chemscore.Hbond.Weighted>
-5.0668

> <Gold.Chemscore.Metal.Weighted>
-0.0000

> <Gold.Chemscore.Lipo.Weighted>
-12.6930

> <Gold.Chemscore.Internal_Hbond.Weighted>
0.0000

> <Gold.Chemscore.DEClash.Weighted>
0.6831

> <Gold.Chemscore.DEInternal.Weighted>
2.9447

> <Gold.Chemscore.Rot.Weighted>
7.3644

> <Gold.Chemscore.Internal.Correction.Weighted>
   9.000000E+99

> <Gold.Protein.RotatedTorsions>
[ 6907 6896 6895 6894 ] final   49.73 input  -60.11 | X-H torsion
[ 7974 7965 7964 7962 ] final   -9.26 input  175.53 | X-H torsion
[ 8008 7997 7996 7995 ] final   85.67 input   59.86 | X-H torsion
[ 10167 10162 10161 10158 ] final -100.11 input  -65.29 | X-H torsion
[ 10718 10713 10712 10709 ] final  128.34 input   66.30 | X-H torsion
[ 10763 10752 10751 10750 ] final  143.25 input  -60.55 | X-H torsion
[ 11005 11000 10999 10996 ] final  154.48 input  -57.11 | X-H torsion

> <Gold.Protein.ActiveResidues>
 VAL166  LYS551  ARG553  GLY616  TRP617  ASP618  TYR619  PRO620  LYS621  CYS622 
 ASP623  PHE694  ASN695  SER759  ASP760  ASP761  ALA762  ILE779  LEU786  VAL792 
 PHE793  MET794  SER795  GLU796  ALA797  LYS798  CYS799  TRP800  GLU811  SER814 

> <Gold.Protein.RotatedAtoms>
  152.2940  134.7688  160.0371 H   0  0  0  0  0  0  0  0  0  0  0  0  # atno 6907 bound_to 6896
  151.8224  133.3391  159.3596 H   0  0  0  0  0  0  0  0  0  0  0  0  # atno 6908 bound_to 6896
  150.7243  134.5490  159.5829 H   0  0  0  0  0  0  0  0  0  0  0  0  # atno 6909 bound_to 6896
  146.2257  140.2589  142.8351 H   0  0  0  0  0  0  0  0  0  0  0  0  # atno 7974 bound_to 7965
  155.9530  140.3399  155.6424 H   0  0  0  0  0  0  0  0  0  0  0  0  # atno 8008 bound_to 7997
  155.6895  140.0747  157.2472 H   0  0  0  0  0  0  0  0  0  0  0  0  # atno 8009 bound_to 7997
  154.4126  140.1660  156.2058 H   0  0  0  0  0  0  0  0  0  0  0  0  # atno 8010 bound_to 7997
  140.2554  143.3444  152.0676 H   0  0  0  0  0  0  0  0  0  0  0  0  # atno 10167 bound_to 10162
  157.5253  131.1098  150.9091 H   0  0  0  0  0  0  0  0  0  0  0  0  # atno 10718 bound_to 10713
  153.9693  135.2952  155.3428 H   0  0  0  0  0  0  0  0  0  0  0  0  # atno 10763 bound_to 10752
  154.7331  135.5058  153.9000 H   0  0  0  0  0  0  0  0  0  0  0  0  # atno 10764 bound_to 10752
  153.0908  135.6707  153.9970 H   0  0  0  0  0  0  0  0  0  0  0  0  # atno 10765 bound_to 10752
  140.1493  134.8686  157.2433 H   0  0  0  0  0  0  0  0  0  0  0  0  # atno 11005 bound_to 11000
  144.9354  140.8021  143.5663 LP  0  0  0  0  0  0  0  0  0  0  0  0  # atno 17320 bound_to 7965
  145.2537  139.2021  143.4929 LP  0  0  0  0  0  0  0  0  0  0  0  0  # atno 17321 bound_to 7965
  139.5033  144.6753  151.6144 LP  0  0  0  0  0  0  0  0  0  0  0  0  # atno 17342 bound_to 10162
  140.6008  143.9613  150.6385 LP  0  0  0  0  0  0  0  0  0  0  0  0  # atno 17343 bound_to 10162
  156.9689  130.5483  149.5289 LP  0  0  0  0  0  0  0  0  0  0  0  0  # atno 17370 bound_to 10713
  156.0383  130.5468  150.8707 LP  0  0  0  0  0  0  0  0  0  0  0  0  # atno 17371 bound_to 10713
  140.2625  134.3555  155.7401 LP  0  0  0  0  0  0  0  0  0  0  0  0  # atno 17394 bound_to 11000
  141.2197  133.7377  156.9101 LP  0  0  0  0  0  0  0  0  0  0  0  0  # atno 17395 bound_to 11000

$$$$
