AV-unprocessed.smi:2451|AV-procd|sdf|9670|dock6
  -GOLD-   2272013313D 1   1.00000     0.00000
 Structure written by MMmdl.
 38 39  0  0  0  0  0  0  0  0  1 V2000
  152.1272  145.6214  159.2848 C   0  0  0  0  0  0  0  0  0  0  0  0
  152.3952  144.1217  159.0765 C   0  0  1  0  0  0  0  0  0  0  0  0
  152.6221  143.3887  160.4161 C   0  0  0  0  0  0  0  0  0  0  0  0
  152.9886  141.9103  160.2013 C   0  0  0  0  0  0  0  0  0  0  0  0
  151.9510  141.1872  159.3286 C   0  0  0  0  0  0  0  0  0  0  0  0
  151.7388  141.9355  158.0006 C   0  0  1  0  0  0  0  0  0  0  0  0
  150.7763  141.2220  157.1567 N   0  0  0  0  0  0  0  0  0  0  0  0
  151.3164  139.8513  156.2620 S   0  0  0  0  0  0  0  0  0  0  0  0
  150.8040  139.9868  154.8896 O   0  0  0  0  0  0  0  0  0  0  0  0
  152.7624  139.7154  156.4950 O   0  0  0  0  0  0  0  0  0  0  0  0
  150.4336  138.4609  157.0865 C   0  0  0  0  0  0  0  0  0  0  0  0
  150.5807  137.2125  156.2641 C   0  0  0  0  0  0  0  0  0  0  0  0
  149.9978  136.9100  155.0023 C   0  0  0  0  0  0  0  0  0  0  0  0
  150.4660  135.6575  154.7269 C   0  0  0  0  0  0  0  0  0  0  0  0
  151.2655  135.2179  155.7313 O   0  0  0  0  0  0  0  0  0  0  0  0
  151.3314  136.2171  156.7088 N   0  0  0  0  0  0  0  0  0  0  0  0
  151.3182  143.4114  158.2130 C   0  0  1  0  0  0  0  0  0  0  0  0
  149.8866  143.5593  158.7799 C   0  0  0  0  0  0  0  0  0  0  0  0
  151.2588  145.7952  159.9202 H   0  0  0  0  0  0  0  0  0  0  0  0
  151.9570  146.1271  158.3341 H   0  0  0  0  0  0  0  0  0  0  0  0
  152.9800  146.1035  159.7637 H   0  0  0  0  0  0  0  0  0  0  0  0
  153.3323  144.0611  158.5205 H   0  0  0  0  0  0  0  0  0  0  0  0
  153.4205  143.8781  160.9749 H   0  0  0  0  0  0  0  0  0  0  0  0
  151.7307  143.4593  161.0402 H   0  0  0  0  0  0  0  0  0  0  0  0
  153.9675  141.8466  159.7245 H   0  0  0  0  0  0  0  0  0  0  0  0
  153.0816  141.4065  161.1637 H   0  0  0  0  0  0  0  0  0  0  0  0
  152.2871  140.1683  159.1330 H   0  0  0  0  0  0  0  0  0  0  0  0
  151.0090  141.1001  159.8706 H   0  0  0  0  0  0  0  0  0  0  0  0
  152.6972  141.9393  157.4785 H   0  0  0  0  0  0  0  0  0  0  0  0
  149.9172  141.0179  157.6669 H   0  0  0  0  0  0  0  0  0  0  0  0
  150.8535  138.3320  158.0844 H   0  0  0  0  0  0  0  0  0  0  0  0
  149.3853  138.7365  157.1992 H   0  0  0  0  0  0  0  0  0  0  0  0
  149.3448  137.5183  154.3942 H   0  0  0  0  0  0  0  0  0  0  0  0
  150.3278  134.9788  153.8983 H   0  0  0  0  0  0  0  0  0  0  0  0
  151.3171  143.8911  157.2329 H   0  0  0  0  0  0  0  0  0  0  0  0
  149.7888  143.1256  159.7744 H   0  0  0  0  0  0  0  0  0  0  0  0
  149.1511  143.0738  158.1385 H   0  0  0  0  0  0  0  0  0  0  0  0
  149.5900  144.6055  158.8461 H   0  0  0  0  0  0  0  0  0  0  0  0
  1  2  1  0  0  0  0
  1 19  1  0  0  0  0
  1 20  1  0  0  0  0
  1 21  1  0  0  0  0
  2 17  1  0  0  0  0
  2  3  1  0  0  0  0
  2 22  1  0  0  0  0
  3  4  1  0  0  0  0
  3 23  1  0  0  0  0
  3 24  1  0  0  0  0
  4  5  1  0  0  0  0
  4 25  1  0  0  0  0
  4 26  1  0  0  0  0
  5  6  1  0  0  0  0
  5 27  1  0  0  0  0
  5 28  1  0  0  0  0
  6  7  1  0  0  0  0
  6 17  1  0  0  0  0
  6 29  1  0  0  0  0
  7  8  1  0  0  0  0
  7 30  1  0  0  0  0
  8  9  2  0  0  0  0
  8 10  2  0  0  0  0
  8 11  1  0  0  0  0
 11 12  1  0  0  0  0
 11 31  1  0  0  0  0
 11 32  1  0  0  0  0
 12 16  2  0  0  0  0
 12 13  1  0  0  0  0
 13 14  2  0  0  0  0
 13 33  1  0  0  0  0
 14 15  1  0  0  0  0
 14 34  1  0  0  0  0
 15 16  1  0  0  0  0
 17 18  1  0  0  0  0
 17 35  1  0  0  0  0
 18 36  1  0  0  0  0
 18 37  1  0  0  0  0
 18 38  1  0  0  0  0
M  END
> <s_m_source_file>
AV-unprocessed.smi

> <i_m_source_file_index>
2451

> <i_lp_mmshare_version>
43012

> <i_f3d_flags>
0

> <s_epik_input>
W0NIM11bQ0BASF0xW0NIMl1bQ0gyXVtDSDJdW0NASF0oW0NASF0xW0NIM10pW05IXVMoPU8pKD1PKVtDSDJdYzJbY0hdW2NIXW9uMg==

> <s_epik_cmdline>
J2VwaWtfcHl0aG9uJywgJy1waCcsICc3LjAnLCAnLXRuJywgJzgnLCAnLW1hJywgJzIwMCcsICctbWV0YWxfYmluZGluZycsICctaW1hZScsICc8aW5maWxlLm1hZT4nLCAnLW9tYWUnLCAnPG91dGZpbGUubWFlPic=

> <r_lp_tautomer_probability>
1

> <r_epik_Ionization_Penalty>
8.73668e-05

> <r_epik_Ionization_Penalty_Charging>
0

> <r_epik_Ionization_Penalty_Neutral>
8.73668e-05

> <r_epik_State_Penalty>
-0

> <r_epik_Charging_Adjusted_Penalty>
0

> <i_epik_Tot_Q>
0

> <i_epik_Tot_abs_Q>
0

> <r_epik_Metal_State_Penalty>
0.0716439

> <b_epik_Metal_Only>
0

> <s_lp_Force_Field>
OPLS_2005

> <r_lp_Energy>
8.89421

> <b_lp_Chiralities_Consistent>
1

> <s_lp_Variant>
AV-unprocessed.smi:2451-2

> <Gold.Version>
5.8.1

> <Gold.Id.Protein>
6NUR|6NUR_protein|mol2

> <Gold.PLP.Fitness>
41.5411

> <Gold.PLP.PLP>
-33.4893

> <Gold.PLP.part.hbond>
-3.0000

> <Gold.PLP.part.metal>
0.0000

> <Gold.PLP.part.buried>
-3.1367

> <Gold.PLP.part.nonpolar>
-26.6869

> <Gold.PLP.part.repulsive>
0.1113

> <Gold.PLP.ligand.clash>
0.0000

> <Gold.PLP.ligand.torsion>
0.6259

> <Gold.PLP.Chemscore.Hbond>
3.0000

> <Gold.PLP.Chemscore.CHOScore>
0.0534

> <Gold.PLP.Chemscore.Metal>
0.0000

> <Gold.Chemscore.Hbonds>
donor molecule, donor type, donor heavy atom, donor atom, acceptor molecule, acceptor atom, score
      P1  H  7989  7998       L1     9  1.00
      P1  H  7997  8008       L1    10  1.00
      P1  H 10752 10763       L1    15  0.95
      L1  C    14    34       P1  7948  0.03
      L1  C    14    34       P1  7949  0.02

> <Gold.PLP.Chemscore.Internal.Correction>
0.1434

> <Gold.Rescore>
     Score         DG    S(hbond)    S(metal)    S(lipo)     H(rot)  DE(clash)    DE(int)     intcor
     19.42     -19.98       2.01        0.00     102.75       1.66       0.14       0.42       ----

> <Gold.Chemscore.Fitness>
19.4185

> <Gold.Chemscore.DG>
-19.9805

> <Gold.Chemscore.ZeroCoef>
-5.4800

> <Gold.Chemscore.Hbond>
2.0135

> <Gold.Chemscore.Metal>
0.0000

> <Gold.Chemscore.Lipo>
102.7518

> <Gold.Chemscore.Internal_Hbond>
0.0000

> <Gold.Chemscore.DEClash>
0.1386

> <Gold.Chemscore.DEInternal>
0.4234

> <Gold.Chemscore.Rot>
1.6588

> <Gold.Chemscore.Internal.Correction>
   9.000000E+99

> <Gold.Chemscore.Hbonds>
donor molecule, donor type, donor heavy atom, donor atom, acceptor molecule, acceptor atom, score
      P1  H  7989  7998       L1     9  1.00
      P1  H  7997  8008       L1    10  0.99
      P1  H 10752 10763       L1    15  0.05

> <Gold.Chemscore.Hbond.Weighted>
-6.7251

> <Gold.Chemscore.Metal.Weighted>
-0.0000

> <Gold.Chemscore.Lipo.Weighted>
-12.0220

> <Gold.Chemscore.Internal_Hbond.Weighted>
0.0000

> <Gold.Chemscore.DEClash.Weighted>
0.1386

> <Gold.Chemscore.DEInternal.Weighted>
0.4234

> <Gold.Chemscore.Rot.Weighted>
4.2466

> <Gold.Chemscore.Internal.Correction.Weighted>
   9.000000E+99

> <Gold.Protein.RotatedTorsions>
[ 6907 6896 6895 6894 ] final  106.66 input  -60.11 | X-H torsion
[ 7974 7965 7964 7962 ] final  -74.11 input  175.53 | X-H torsion
[ 8008 7997 7996 7995 ] final  -39.96 input   59.86 | X-H torsion
[ 10167 10162 10161 10158 ] final  123.10 input  -65.29 | X-H torsion
[ 10718 10713 10712 10709 ] final   -3.15 input   66.30 | X-H torsion
[ 10763 10752 10751 10750 ] final   78.48 input  -60.55 | X-H torsion
[ 11005 11000 10999 10996 ] final   87.23 input  -57.11 | X-H torsion

> <Gold.Protein.ActiveResidues>
 VAL166  LYS551  ARG553  GLY616  TRP617  ASP618  TYR619  PRO620  LYS621  CYS622 
 ASP623  PHE694  ASN695  SER759  ASP760  ASP761  ALA762  ILE779  LEU786  VAL792 
 PHE793  MET794  SER795  GLU796  ALA797  LYS798  CYS799  TRP800  GLU811  SER814 

> <Gold.Protein.RotatedAtoms>
  152.5185  133.9348  159.7597 H   0  0  0  0  0  0  0  0  0  0  0  0  # atno 6907 bound_to 6896
  150.9691  133.6355  159.2748 H   0  0  0  0  0  0  0  0  0  0  0  0  # atno 6908 bound_to 6896
  151.3573  135.0902  159.9475 H   0  0  0  0  0  0  0  0  0  0  0  0  # atno 6909 bound_to 6896
  145.6433  140.9304  143.1024 H   0  0  0  0  0  0  0  0  0  0  0  0  # atno 7974 bound_to 7965
  154.4017  140.1538  156.2949 H   0  0  0  0  0  0  0  0  0  0  0  0  # atno 8008 bound_to 7997
  155.8752  140.3446  155.5827 H   0  0  0  0  0  0  0  0  0  0  0  0  # atno 8009 bound_to 7997
  155.7729  140.0833  157.2089 H   0  0  0  0  0  0  0  0  0  0  0  0  # atno 8010 bound_to 7997
  139.5819  144.6990  151.3506 H   0  0  0  0  0  0  0  0  0  0  0  0  # atno 10167 bound_to 10162
  156.7803  130.5328  149.5752 H   0  0  0  0  0  0  0  0  0  0  0  0  # atno 10718 bound_to 10713
  153.0878  135.4875  154.8630 H   0  0  0  0  0  0  0  0  0  0  0  0  # atno 10763 bound_to 10752
  154.7231  135.3044  154.9017 H   0  0  0  0  0  0  0  0  0  0  0  0  # atno 10764 bound_to 10752
  153.9675  135.6805  153.4799 H   0  0  0  0  0  0  0  0  0  0  0  0  # atno 10765 bound_to 10752
  139.8924  134.8408  156.2831 H   0  0  0  0  0  0  0  0  0  0  0  0  # atno 11005 bound_to 11000
  144.7149  139.8233  143.7402 LP  0  0  0  0  0  0  0  0  0  0  0  0  # atno 17320 bound_to 7965
  146.1263  139.4290  143.0197 LP  0  0  0  0  0  0  0  0  0  0  0  0  # atno 17321 bound_to 7965
  140.7096  143.7424  150.7543 LP  0  0  0  0  0  0  0  0  0  0  0  0  # atno 17342 bound_to 10162
  140.0959  143.4834  152.2453 LP  0  0  0  0  0  0  0  0  0  0  0  0  # atno 17343 bound_to 10162
  156.1222  130.6118  151.0211 LP  0  0  0  0  0  0  0  0  0  0  0  0  # atno 17370 bound_to 10713
  157.6649  131.0873  150.7751 LP  0  0  0  0  0  0  0  0  0  0  0  0  # atno 17371 bound_to 10713
  141.0025  133.7143  156.0983 LP  0  0  0  0  0  0  0  0  0  0  0  0  # atno 17394 bound_to 11000
  140.7478  134.4079  157.5546 LP  0  0  0  0  0  0  0  0  0  0  0  0  # atno 17395 bound_to 11000

$$$$
