AV-unprocessed.smi:2027|AV-procd|sdf|8211|dock2
  -GOLD-   2272010473D 1   1.00000     0.00000
 Structure written by MMmdl.
 50 52  0  0  0  0  0  0  0  0  2 V2000
  153.2013  142.4699  161.7719 C   0  0  0  0  0  0  0  0  0  0  0  0
  152.5952  142.2228  160.4016 C   0  0  0  0  0  0  0  0  0  0  0  0
  152.9866  141.0762  159.6739 C   0  0  0  0  0  0  0  0  0  0  0  0
  152.4470  140.8099  158.3966 C   0  0  0  0  0  0  0  0  0  0  0  0
  152.6863  139.7667  157.5187 N   0  0  0  0  0  0  0  0  0  0  0  0
  151.8871  140.0809  156.5034 C   0  0  0  0  0  0  0  0  0  0  0  0
  151.1587  141.2081  156.6183 N   0  0  0  0  0  0  0  0  0  0  0  0
  150.2282  141.7506  155.6445 C   0  0  0  0  0  0  0  0  0  0  0  0
  149.4177  140.6532  154.9280 C   0  0  2  0  0  0  0  0  0  0  0  0
  150.2453  139.9916  153.9895 O   0  0  0  0  0  0  0  0  0  0  0  0
  148.2063  141.2380  154.1783 C   0  0  0  0  0  0  0  0  0  0  0  0
  147.3758  142.1050  155.0561 N   0  3  1  0  0  0  0  0  0  0  0  0
  146.3366  142.8482  154.3063 C   0  0  0  0  0  0  0  0  0  0  0  0
  146.8124  141.3951  156.2316 C   0  0  0  0  0  0  0  0  0  0  0  0
  146.3843  142.3632  157.3028 C   0  0  0  0  0  0  0  0  0  0  0  0
  145.3560  143.3462  157.2287 C   0  0  0  0  0  0  0  0  0  0  0  0
  145.2350  144.0493  158.3422 N   0  0  0  0  0  0  0  0  0  0  0  0
  146.1707  143.5370  159.1673 N   0  0  0  0  0  0  0  0  0  0  0  0
  146.3183  144.0780  160.5016 C   0  0  0  0  0  0  0  0  0  0  0  0
  146.8785  142.5176  158.5681 C   0  0  0  0  0  0  0  0  0  0  0  0
  151.4962  141.7285  157.8634 C   0  0  0  0  0  0  0  0  0  0  0  0
  151.0992  142.8730  158.5773 C   0  0  0  0  0  0  0  0  0  0  0  0
  151.6508  143.1259  159.8506 C   0  0  0  0  0  0  0  0  0  0  0  0
  151.2193  144.3678  160.6106 C   0  0  0  0  0  0  0  0  0  0  0  0
  153.8393  141.6412  162.0805 H   0  0  0  0  0  0  0  0  0  0  0  0
  152.4194  142.5852  162.5229 H   0  0  0  0  0  0  0  0  0  0  0  0
  153.8083  143.3754  161.7614 H   0  0  0  0  0  0  0  0  0  0  0  0
  153.7078  140.3895  160.0922 H   0  0  0  0  0  0  0  0  0  0  0  0
  151.8291  139.4568  155.6235 H   0  0  0  0  0  0  0  0  0  0  0  0
  149.5561  142.4379  156.1606 H   0  0  0  0  0  0  0  0  0  0  0  0
  150.7886  142.3477  154.9237 H   0  0  0  0  0  0  0  0  0  0  0  0
  149.0882  139.9224  155.6668 H   0  0  0  0  0  0  0  0  0  0  0  0
  149.7903  139.9528  153.1611 H   0  0  0  0  0  0  0  0  0  0  0  0
  148.5316  141.8094  153.3075 H   0  0  0  0  0  0  0  0  0  0  0  0
  147.6185  140.4092  153.7828 H   0  0  0  0  0  0  0  0  0  0  0  0
  145.5940  142.1668  153.8891 H   0  0  0  0  0  0  0  0  0  0  0  0
  146.7712  143.4210  153.4876 H   0  0  0  0  0  0  0  0  0  0  0  0
  145.8216  143.5543  154.9587 H   0  0  0  0  0  0  0  0  0  0  0  0
  145.9526  140.8037  155.9139 H   0  0  0  0  0  0  0  0  0  0  0  0
  147.5464  140.6794  156.6054 H   0  0  0  0  0  0  0  0  0  0  0  0
  144.7023  143.5729  156.3994 H   0  0  0  0  0  0  0  0  0  0  0  0
  147.0957  143.5364  161.0415 H   0  0  0  0  0  0  0  0  0  0  0  0
  145.3775  143.9828  161.0454 H   0  0  0  0  0  0  0  0  0  0  0  0
  146.5940  145.1315  160.4443 H   0  0  0  0  0  0  0  0  0  0  0  0
  147.6692  141.9935  159.0850 H   0  0  0  0  0  0  0  0  0  0  0  0
  150.3785  143.5525  158.1469 H   0  0  0  0  0  0  0  0  0  0  0  0
  150.5577  144.9922  160.0093 H   0  0  0  0  0  0  0  0  0  0  0  0
  152.0848  144.9704  160.8867 H   0  0  0  0  0  0  0  0  0  0  0  0
  150.6851  144.0907  161.5197 H   0  0  0  0  0  0  0  0  0  0  0  0
  148.0050  142.7983  155.4364 H   0  0  0  0  0  0  0  0  0  0  0  0
  1  2  1  0  0  0  0
  1 25  1  0  0  0  0
  1 26  1  0  0  0  0
  1 27  1  0  0  0  0
  2 23  1  0  0  0  0
  2  3  2  0  0  0  0
  3  4  1  0  0  0  0
  3 28  1  0  0  0  0
  4 21  2  0  0  0  0
  4  5  1  0  0  0  0
  5  6  2  0  0  0  0
  6  7  1  0  0  0  0
  6 29  1  0  0  0  0
  7  8  1  0  0  0  0
  7 21  1  0  0  0  0
  8  9  1  0  0  0  0
  8 30  1  0  0  0  0
  8 31  1  0  0  0  0
  9 10  1  0  0  0  0
  9 11  1  0  0  0  0
  9 32  1  0  0  0  0
 10 33  1  0  0  0  0
 11 12  1  0  0  0  0
 11 34  1  0  0  0  0
 11 35  1  0  0  0  0
 12 13  1  0  0  0  0
 12 14  1  0  0  0  0
 12 50  1  0  0  0  0
 13 36  1  0  0  0  0
 13 37  1  0  0  0  0
 13 38  1  0  0  0  0
 14 15  1  0  0  0  0
 14 39  1  0  0  0  0
 14 40  1  0  0  0  0
 15 20  2  0  0  0  0
 15 16  1  0  0  0  0
 16 17  2  0  0  0  0
 16 41  1  0  0  0  0
 17 18  1  0  0  0  0
 18 19  1  0  0  0  0
 18 20  1  0  0  0  0
 19 42  1  0  0  0  0
 19 43  1  0  0  0  0
 19 44  1  0  0  0  0
 20 45  1  0  0  0  0
 21 22  1  0  0  0  0
 22 23  2  0  0  0  0
 22 46  1  0  0  0  0
 23 24  1  0  0  0  0
 24 47  1  0  0  0  0
 24 48  1  0  0  0  0
 24 49  1  0  0  0  0
M  CHG  1  12   1
M  END
> <s_m_source_file>
AV-unprocessed.smi

> <i_m_source_file_index>
2027

> <i_lp_mmshare_version>
43012

> <i_f3d_flags>
0

> <s_epik_input>
W0NIM11jKFtjSF0xKWMoW0NIM10pW2NIXWMoYzEyKW4oW2NIXW4yKVtDSDJdW0NASF0oW09IXSlbQ0gyXU4oW0NIM10pW0NIMl1jM1tjSF1ubihbQ0gzXSlbY0hdMw==

> <s_epik_cmdline>
J2VwaWtfcHl0aG9uJywgJy1waCcsICc3LjAnLCAnLXRuJywgJzgnLCAnLW1hJywgJzIwMCcsICctbWV0YWxfYmluZGluZycsICctaW1hZScsICc8aW5maWxlLm1hZT4nLCAnLW9tYWUnLCAnPG91dGZpbGUubWFlPic=

> <r_lp_tautomer_probability>
1

> <r_epik_Ionization_Penalty>
0.646578

> <r_epik_Ionization_Penalty_Charging>
0.559419

> <r_epik_Ionization_Penalty_Neutral>
0.087159

> <r_epik_State_Penalty>
0.661677

> <r_epik_Charging_Adjusted_Penalty>
1.2211

> <i_epik_Tot_Q>
1

> <i_epik_Tot_abs_Q>
1

> <r_epik_Metal_State_Penalty>
0.649174

> <b_epik_Metal_Only>
0

> <s_lp_Force_Field>
OPLS_2005

> <r_lp_Energy>
8.87495

> <b_lp_Chiralities_Consistent>
1

> <s_lp_Variant>
AV-unprocessed.smi:2027-3

> <Gold.Version>
5.8.1

> <Gold.Id.Protein>
6NUR|6NUR_protein|mol2

> <Gold.PLP.Fitness>
64.0456

> <Gold.PLP.PLP>
-49.9702

> <Gold.PLP.part.hbond>
-4.0000

> <Gold.PLP.part.metal>
0.0000

> <Gold.PLP.part.buried>
-7.5447

> <Gold.PLP.part.nonpolar>
-38.3257

> <Gold.PLP.part.repulsive>
0.2240

> <Gold.PLP.ligand.clash>
0.0000

> <Gold.PLP.ligand.torsion>
0.5975

> <Gold.PLP.Chemscore.Hbond>
4.9760

> <Gold.PLP.Chemscore.CHOScore>
0.0000

> <Gold.PLP.Chemscore.Metal>
0.0000

> <Gold.Chemscore.Hbonds>
donor molecule, donor type, donor heavy atom, donor atom, acceptor molecule, acceptor atom, score
      L1  H    10    33       P1  7957  1.00
      L1  H    12    50       P1  8028  1.62
      P1  H  7989  7998       L1    10  0.89
      P1  H  7997  8009       L1     5  0.95

> <Gold.PLP.Chemscore.Internal.Correction>
0.3423

> <Gold.Rescore>
     Score         DG    S(hbond)    S(metal)    S(lipo)     H(rot)  DE(clash)    DE(int)     intcor
     20.11     -22.28       2.92        0.00     114.92       2.50       0.73       1.43       ----

> <Gold.Chemscore.Fitness>
20.1136

> <Gold.Chemscore.DG>
-22.2767

> <Gold.Chemscore.ZeroCoef>
-5.4800

> <Gold.Chemscore.Hbond>
2.9232

> <Gold.Chemscore.Metal>
0.0000

> <Gold.Chemscore.Lipo>
114.9154

> <Gold.Chemscore.Internal_Hbond>
0.0000

> <Gold.Chemscore.DEClash>
0.7299

> <Gold.Chemscore.DEInternal>
1.4332

> <Gold.Chemscore.Rot>
2.5047

> <Gold.Chemscore.Internal.Correction>
   9.000000E+99

> <Gold.Chemscore.Hbonds>
donor molecule, donor type, donor heavy atom, donor atom, acceptor molecule, acceptor atom, score
      L1  H    10    33       P1  7957  0.93
      L1  H    12    50       P1  8028  0.71
      P1  H  7989  7998       L1    10  0.15
      P1  H  7997  8009       L1     5  0.14

> <Gold.Chemscore.Hbond.Weighted>
-9.7636

> <Gold.Chemscore.Metal.Weighted>
-0.0000

> <Gold.Chemscore.Lipo.Weighted>
-13.4451

> <Gold.Chemscore.Internal_Hbond.Weighted>
0.0000

> <Gold.Chemscore.DEClash.Weighted>
0.7299

> <Gold.Chemscore.DEInternal.Weighted>
1.4332

> <Gold.Chemscore.Rot.Weighted>
6.4120

> <Gold.Chemscore.Internal.Correction.Weighted>
   9.000000E+99

> <Gold.Protein.RotatedTorsions>
[ 6907 6896 6895 6894 ] final -107.37 input  -60.11 | X-H torsion
[ 7974 7965 7964 7962 ] final   52.73 input  175.53 | X-H torsion
[ 8008 7997 7996 7995 ] final  178.79 input   59.86 | X-H torsion
[ 10167 10162 10161 10158 ] final  109.82 input  -65.29 | X-H torsion
[ 10718 10713 10712 10709 ] final -169.62 input   66.30 | X-H torsion
[ 10763 10752 10751 10750 ] final    5.92 input  -60.55 | X-H torsion
[ 11005 11000 10999 10996 ] final   13.64 input  -57.11 | X-H torsion

> <Gold.Protein.ActiveResidues>
 VAL166  LYS551  ARG553  GLY616  TRP617  ASP618  TYR619  PRO620  LYS621  CYS622 
 ASP623  PHE694  ASN695  SER759  ASP760  ASP761  ALA762  ILE779  LEU786  VAL792 
 PHE793  MET794  SER795  GLU796  ALA797  LYS798  CYS799  TRP800  GLU811  SER814 

> <Gold.Protein.RotatedAtoms>
  150.7440  133.9837  159.3584 H   0  0  0  0  0  0  0  0  0  0  0  0  # atno 6907 bound_to 6896
  151.7780  135.0767  160.0379 H   0  0  0  0  0  0  0  0  0  0  0  0  # atno 6908 bound_to 6896
  152.3293  133.5904  159.5835 H   0  0  0  0  0  0  0  0  0  0  0  0  # atno 6909 bound_to 6896
  145.9784  139.4217  143.0147 H   0  0  0  0  0  0  0  0  0  0  0  0  # atno 7974 bound_to 7965
  156.0507  140.1324  157.0054 H   0  0  0  0  0  0  0  0  0  0  0  0  # atno 8008 bound_to 7997
  154.4433  140.1011  156.6442 H   0  0  0  0  0  0  0  0  0  0  0  0  # atno 8009 bound_to 7997
  155.5528  140.3463  155.4475 H   0  0  0  0  0  0  0  0  0  0  0  0  # atno 8010 bound_to 7997
  139.6736  144.7123  151.1642 H   0  0  0  0  0  0  0  0  0  0  0  0  # atno 10167 bound_to 10162
  156.7142  130.9245  151.3092 H   0  0  0  0  0  0  0  0  0  0  0  0  # atno 10718 bound_to 10713
  153.2538  135.6916  153.7651 H   0  0  0  0  0  0  0  0  0  0  0  0  # atno 10763 bound_to 10752
  153.6735  135.3340  155.3160 H   0  0  0  0  0  0  0  0  0  0  0  0  # atno 10764 bound_to 10752
  154.8404  135.4505  154.1504 H   0  0  0  0  0  0  0  0  0  0  0  0  # atno 10765 bound_to 10752
  140.4785  134.0960  155.7746 H   0  0  0  0  0  0  0  0  0  0  0  0  # atno 11005 bound_to 11000
  145.7805  140.9858  143.1101 LP  0  0  0  0  0  0  0  0  0  0  0  0  # atno 17320 bound_to 7965
  144.6855  139.9559  143.7479 LP  0  0  0  0  0  0  0  0  0  0  0  0  # atno 17321 bound_to 7965
  140.7627  143.5805  150.8899 LP  0  0  0  0  0  0  0  0  0  0  0  0  # atno 17342 bound_to 10162
  139.9473  143.6313  152.3038 LP  0  0  0  0  0  0  0  0  0  0  0  0  # atno 17343 bound_to 10162
  157.6924  130.9247  150.0550 LP  0  0  0  0  0  0  0  0  0  0  0  0  # atno 17370 bound_to 10713
  156.1640  130.3644  149.9259 LP  0  0  0  0  0  0  0  0  0  0  0  0  # atno 17371 bound_to 10713
  141.1543  133.8912  157.2018 LP  0  0  0  0  0  0  0  0  0  0  0  0  # atno 17394 bound_to 11000
  139.9841  135.0088  156.9821 LP  0  0  0  0  0  0  0  0  0  0  0  0  # atno 17395 bound_to 11000

$$$$
