AV-unprocessed.smi:971|AV-procd|sdf|4295|dock2
  -GOLD-   22720 2203D 1   1.00000     0.00000
 Structure written by MMmdl.
 34 35  0  0  0  0  0  0  0  0  1 V2000
  152.4555  144.1011  161.8842 C   0  0  0  0  0  0  0  0  0  0  0  0
  152.7506  142.6145  162.1113 C   0  0  0  0  0  0  0  0  0  0  0  0
  152.6513  141.8157  160.8450 C   0  0  0  0  0  0  0  0  0  0  0  0
  151.5588  142.0131  159.9951 N   0  0  0  0  0  0  0  0  0  0  0  0
  151.6099  141.2487  158.9025 C   0  0  0  0  0  0  0  0  0  0  0  0
  150.5517  141.2434  157.8514 C   0  0  0  0  0  0  0  0  0  0  0  0
  150.9479  142.0656  156.6145 C   0  0  0  0  0  0  0  0  0  0  0  0
  149.8420  142.1854  155.6712 N   0  0  0  0  0  0  0  0  0  0  0  0
  149.5040  141.2632  154.7569 C   0  0  0  0  0  0  0  0  0  0  0  0
  150.1111  140.2001  154.6201 O   0  0  0  0  0  0  0  0  0  0  0  0
  148.3231  141.6400  153.9235 C   0  0  0  0  0  0  0  0  0  0  0  0
  147.0275  141.9546  154.6437 C   0  0  0  0  0  0  0  0  0  0  0  0
  147.1615  140.6683  153.8682 C   0  0  0  0  0  0  0  0  0  0  0  0
  153.0188  140.1985  158.8601 S   0  0  0  0  0  0  0  0  0  0  0  0
  153.5407  140.8736  160.3826 C   0  0  0  0  0  0  0  0  0  0  0  0
  154.8090  140.4188  161.0252 C   0  0  0  0  0  0  0  0  0  0  0  0
  152.5347  144.6601  162.8166 H   0  0  0  0  0  0  0  0  0  0  0  0
  151.4484  144.2481  161.4926 H   0  0  0  0  0  0  0  0  0  0  0  0
  153.1587  144.5361  161.1734 H   0  0  0  0  0  0  0  0  0  0  0  0
  153.7432  142.5092  162.5499 H   0  0  0  0  0  0  0  0  0  0  0  0
  152.0565  142.2214  162.8549 H   0  0  0  0  0  0  0  0  0  0  0  0
  150.3459  140.2092  157.5722 H   0  0  0  0  0  0  0  0  0  0  0  0
  149.6318  141.6381  158.2844 H   0  0  0  0  0  0  0  0  0  0  0  0
  151.2438  143.0703  156.9170 H   0  0  0  0  0  0  0  0  0  0  0  0
  151.8142  141.6217  156.1208 H   0  0  0  0  0  0  0  0  0  0  0  0
  149.2922  143.0312  155.7173 H   0  0  0  0  0  0  0  0  0  0  0  0
  148.5281  142.2093  153.0179 H   0  0  0  0  0  0  0  0  0  0  0  0
  147.0051  141.8838  155.7299 H   0  0  0  0  0  0  0  0  0  0  0  0
  146.4078  142.7433  154.2222 H   0  0  0  0  0  0  0  0  0  0  0  0
  146.6320  140.5852  152.9214 H   0  0  0  0  0  0  0  0  0  0  0  0
  147.2268  139.7442  154.4404 H   0  0  0  0  0  0  0  0  0  0  0  0
  155.4302  141.2710  161.3023 H   0  0  0  0  0  0  0  0  0  0  0  0
  155.3890  139.7867  160.3525 H   0  0  0  0  0  0  0  0  0  0  0  0
  154.5996  139.8457  161.9284 H   0  0  0  0  0  0  0  0  0  0  0  0
  1  2  1  0  0  0  0
  1 17  1  0  0  0  0
  1 18  1  0  0  0  0
  1 19  1  0  0  0  0
  2  3  1  0  0  0  0
  2 20  1  0  0  0  0
  2 21  1  0  0  0  0
  3 15  2  0  0  0  0
  3  4  1  0  0  0  0
  4  5  2  0  0  0  0
  5  6  1  0  0  0  0
  5 14  1  0  0  0  0
  6  7  1  0  0  0  0
  6 22  1  0  0  0  0
  6 23  1  0  0  0  0
  7  8  1  0  0  0  0
  7 24  1  0  0  0  0
  7 25  1  0  0  0  0
  8  9  1  0  0  0  0
  8 26  1  0  0  0  0
  9 10  2  0  0  0  0
  9 11  1  0  0  0  0
 11 13  1  0  0  0  0
 11 12  1  0  0  0  0
 11 27  1  0  0  0  0
 12 13  1  0  0  0  0
 12 28  1  0  0  0  0
 12 29  1  0  0  0  0
 13 30  1  0  0  0  0
 13 31  1  0  0  0  0
 14 15  1  0  0  0  0
 15 16  1  0  0  0  0
 16 32  1  0  0  0  0
 16 33  1  0  0  0  0
 16 34  1  0  0  0  0
M  END
> <s_m_source_file>
AV-unprocessed.smi

> <i_m_source_file_index>
971

> <i_lp_mmshare_version>
43012

> <i_f3d_flags>
0

> <s_epik_input>
W0NIM11bQ0gyXWMxbmMoc2MxW0NIM10pW0NIMl1bQ0gyXVtOSF1DKD1PKVtDSF0yW0NIMl1bQ0gyXTI=

> <s_epik_cmdline>
J2VwaWtfcHl0aG9uJywgJy1waCcsICc3LjAnLCAnLXRuJywgJzgnLCAnLW1hJywgJzIwMCcsICctbWV0YWxfYmluZGluZycsICctaW1hZScsICc8aW5maWxlLm1hZT4nLCAnLW9tYWUnLCAnPG91dGZpbGUubWFlPic=

> <r_epik_Ionization_Penalty>
0.00242093

> <r_epik_Ionization_Penalty_Charging>
0

> <r_epik_Ionization_Penalty_Neutral>
0.00242093

> <r_epik_State_Penalty>
0.00167523

> <r_epik_Charging_Adjusted_Penalty>
0.00167523

> <i_epik_Tot_Q>
0

> <i_epik_Tot_abs_Q>
0

> <r_epik_Metal_State_Penalty>
-0

> <b_epik_Metal_Only>
0

> <s_lp_Force_Field>
OPLS_2005

> <r_lp_Energy>
-4.35298

> <b_lp_Chiralities_Consistent>
1

> <s_lp_Variant>
AV-unprocessed.smi:971-1

> <Gold.Version>
5.8.1

> <Gold.Id.Protein>
6NUR|6NUR_protein|mol2

> <Gold.PLP.Fitness>
44.7160

> <Gold.PLP.PLP>
-39.9282

> <Gold.PLP.part.hbond>
-2.8998

> <Gold.PLP.part.metal>
0.0000

> <Gold.PLP.part.buried>
-3.5116

> <Gold.PLP.part.nonpolar>
-31.9508

> <Gold.PLP.part.repulsive>
0.2595

> <Gold.PLP.ligand.clash>
0.0000

> <Gold.PLP.ligand.torsion>
0.6624

> <Gold.PLP.Chemscore.Hbond>
2.0000

> <Gold.PLP.Chemscore.CHOScore>
0.0000

> <Gold.PLP.Chemscore.Metal>
0.0000

> <Gold.Chemscore.Hbonds>
donor molecule, donor type, donor heavy atom, donor atom, acceptor molecule, acceptor atom, score
      L1  H     8    26       P1  8028  1.00
      P1  H  7989  7998       L1    10  0.90

> <Gold.PLP.Chemscore.Internal.Correction>
0.1127

> <Gold.Rescore>
     Score         DG    S(hbond)    S(metal)    S(lipo)     H(rot)  DE(clash)    DE(int)     intcor
     17.56     -19.03       1.71        0.00     100.81       1.54       0.61       0.86       ----

> <Gold.Chemscore.Fitness>
17.5559

> <Gold.Chemscore.DG>
-19.0253

> <Gold.Chemscore.ZeroCoef>
-5.4800

> <Gold.Chemscore.Hbond>
1.7077

> <Gold.Chemscore.Metal>
0.0000

> <Gold.Chemscore.Lipo>
100.8091

> <Gold.Chemscore.Internal_Hbond>
0.0000

> <Gold.Chemscore.DEClash>
0.6053

> <Gold.Chemscore.DEInternal>
0.8641

> <Gold.Chemscore.Rot>
1.5441

> <Gold.Chemscore.Internal.Correction>
   9.000000E+99

> <Gold.Chemscore.Hbonds>
donor molecule, donor type, donor heavy atom, donor atom, acceptor molecule, acceptor atom, score
      L1  H     8    26       P1  8028  1.00
      P1  H  7989  7998       L1    10  0.17

> <Gold.Chemscore.Hbond.Weighted>
-5.7036

> <Gold.Chemscore.Metal.Weighted>
-0.0000

> <Gold.Chemscore.Lipo.Weighted>
-11.7947

> <Gold.Chemscore.Internal_Hbond.Weighted>
0.0000

> <Gold.Chemscore.DEClash.Weighted>
0.6053

> <Gold.Chemscore.DEInternal.Weighted>
0.8641

> <Gold.Chemscore.Rot.Weighted>
3.9529

> <Gold.Chemscore.Internal.Correction.Weighted>
   9.000000E+99

> <Gold.Protein.RotatedTorsions>
[ 6907 6896 6895 6894 ] final  173.90 input  -60.11 | X-H torsion
[ 7974 7965 7964 7962 ] final  -72.39 input  175.53 | X-H torsion
[ 8008 7997 7996 7995 ] final  -42.13 input   59.86 | X-H torsion
[ 10167 10162 10161 10158 ] final -140.10 input  -65.29 | X-H torsion
[ 10718 10713 10712 10709 ] final   57.23 input   66.30 | X-H torsion
[ 10763 10752 10751 10750 ] final   26.03 input  -60.55 | X-H torsion
[ 11005 11000 10999 10996 ] final  -18.17 input  -57.11 | X-H torsion

> <Gold.Protein.ActiveResidues>
 VAL166  LYS551  ARG553  GLY616  TRP617  ASP618  TYR619  PRO620  LYS621  CYS622 
 ASP623  PHE694  ASN695  SER759  ASP760  ASP761  ALA762  ILE779  LEU786  VAL792 
 PHE793  MET794  SER795  GLU796  ALA797  LYS798  CYS799  TRP800  GLU811  SER814 

> <Gold.Protein.RotatedAtoms>
  151.7609  133.3333  159.3417 H   0  0  0  0  0  0  0  0  0  0  0  0  # atno 6907 bound_to 6896
  150.7498  134.6106  159.6094 H   0  0  0  0  0  0  0  0  0  0  0  0  # atno 6908 bound_to 6896
  152.3406  134.7142  160.0316 H   0  0  0  0  0  0  0  0  0  0  0  0  # atno 6909 bound_to 6896
  145.6658  140.9237  143.0909 H   0  0  0  0  0  0  0  0  0  0  0  0  # atno 7974 bound_to 7965
  154.4000  140.1481  156.3304 H   0  0  0  0  0  0  0  0  0  0  0  0  # atno 8008 bound_to 7997
  155.8448  140.3460  155.5634 H   0  0  0  0  0  0  0  0  0  0  0  0  # atno 8009 bound_to 7997
  155.8048  140.0875  157.1928 H   0  0  0  0  0  0  0  0  0  0  0  0  # atno 8010 bound_to 7997
  139.8315  143.7441  152.2666 H   0  0  0  0  0  0  0  0  0  0  0  0  # atno 10167 bound_to 10162
  157.5497  130.8756  149.8944 H   0  0  0  0  0  0  0  0  0  0  0  0  # atno 10718 bound_to 10713
  153.0650  135.6569  154.0374 H   0  0  0  0  0  0  0  0  0  0  0  0  # atno 10763 bound_to 10752
  154.0033  135.2935  155.3402 H   0  0  0  0  0  0  0  0  0  0  0  0  # atno 10764 bound_to 10752
  154.7005  135.5246  153.8588 H   0  0  0  0  0  0  0  0  0  0  0  0  # atno 10765 bound_to 10752
  140.8241  133.8046  155.9690 H   0  0  0  0  0  0  0  0  0  0  0  0  # atno 11005 bound_to 11000
  144.7073  139.8508  143.7426 LP  0  0  0  0  0  0  0  0  0  0  0  0  # atno 17320 bound_to 7965
  146.1087  139.4089  143.0301 LP  0  0  0  0  0  0  0  0  0  0  0  0  # atno 17321 bound_to 7965
  139.7650  144.7495  151.0308 LP  0  0  0  0  0  0  0  0  0  0  0  0  # atno 17342 bound_to 10162
  140.7806  143.4708  151.0148 LP  0  0  0  0  0  0  0  0  0  0  0  0  # atno 17343 bound_to 10162
  156.0566  130.3707  150.1078 LP  0  0  0  0  0  0  0  0  0  0  0  0  # atno 17370 bound_to 10713
  156.9251  130.9696  151.3542 LP  0  0  0  0  0  0  0  0  0  0  0  0  # atno 17371 bound_to 10713
  140.9068  134.2310  157.5010 LP  0  0  0  0  0  0  0  0  0  0  0  0  # atno 17394 bound_to 11000
  139.8707  134.9732  156.4799 LP  0  0  0  0  0  0  0  0  0  0  0  0  # atno 17395 bound_to 11000

$$$$
