AV-unprocessed.smi:72|AV-procd|sdf|682|dock8
  -GOLD-   2262016593D 1   1.00000     0.00000
 Structure written by MMmdl.
 29 30  0  0  0  0  0  0  0  0  1 V2000
  146.3578  139.1998  152.7712 N   0  0  0  0  0  0  0  0  0  0  0  0
  147.3292  139.6342  153.4909 C   0  0  0  0  0  0  0  0  0  0  0  0
  147.3310  140.8383  154.2108 N   0  0  0  0  0  0  0  0  0  0  0  0
  148.3872  141.1483  154.8979 C   0  0  0  0  0  0  0  0  0  0  0  0
  149.5649  140.2953  154.9383 N   0  0  0  0  0  0  0  0  0  0  0  0
  150.7802  140.6825  155.7550 C   0  0  1  0  0  0  0  0  0  0  0  0
  150.6757  142.0295  156.1102 O   0  0  0  0  0  0  0  0  0  0  0  0
  151.1154  142.1978  157.4524 C   0  0  1  0  0  0  0  0  0  0  0  0
  150.5805  143.5128  158.0468 C   0  0  0  0  0  0  0  0  0  0  0  0
  149.1764  143.4541  158.1831 O   0  0  0  0  0  0  0  0  0  0  0  0
  150.6949  140.8942  158.1477 C   0  0  1  0  0  0  0  0  0  0  0  0
  149.3413  140.9494  158.5659 O   0  0  0  0  0  0  0  0  0  0  0  0
  150.9321  139.8576  157.0523 C   0  0  1  0  0  0  0  0  0  0  0  0
  150.0977  138.7162  157.1621 O   0  0  0  0  0  0  0  0  0  0  0  0
  149.5746  139.0713  154.2250 C   0  0  0  0  0  0  0  0  0  0  0  0
  150.5337  138.3002  154.2411 O   0  0  0  0  0  0  0  0  0  0  0  0
  148.4525  138.7980  153.5247 N   0  0  0  0  0  0  0  0  0  0  0  0
  151.6440  140.5804  155.0969 H   0  0  0  0  0  0  0  0  0  0  0  0
  152.2061  142.2394  157.4234 H   0  0  0  0  0  0  0  0  0  0  0  0
  151.3087  140.6937  159.0266 H   0  0  0  0  0  0  0  0  0  0  0  0
  151.9706  139.5271  157.0984 H   0  0  0  0  0  0  0  0  0  0  0  0
  145.5885  139.8539  152.7966 H   0  0  0  0  0  0  0  0  0  0  0  0
  148.4600  142.0630  155.4873 H   0  0  0  0  0  0  0  0  0  0  0  0
  151.0141  143.6763  159.0337 H   0  0  0  0  0  0  0  0  0  0  0  0
  150.8563  144.3720  157.4351 H   0  0  0  0  0  0  0  0  0  0  0  0
  148.7983  144.1803  157.7111 H   0  0  0  0  0  0  0  0  0  0  0  0
  148.8670  141.5063  157.9675 H   0  0  0  0  0  0  0  0  0  0  0  0
  150.4086  138.0585  156.5592 H   0  0  0  0  0  0  0  0  0  0  0  0
  148.4241  137.9338  153.0037 H   0  0  0  0  0  0  0  0  0  0  0  0
  1  2  2  0  0  0  0
  1 22  1  0  0  0  0
  2 17  1  0  0  0  0
  2  3  1  0  0  0  0
  3  4  2  0  0  0  0
  4  5  1  0  0  0  0
  4 23  1  0  0  0  0
  5  6  1  0  0  0  0
  5 15  1  0  0  0  0
  6 18  1  0  0  0  0
  6 13  1  0  0  0  0
  6  7  1  0  0  0  0
  7  8  1  0  0  0  0
  8 19  1  0  0  0  0
  8  9  1  0  0  0  0
  8 11  1  0  0  0  0
  9 10  1  0  0  0  0
  9 24  1  0  0  0  0
  9 25  1  0  0  0  0
 10 26  1  0  0  0  0
 11 20  1  0  0  0  0
 11 12  1  0  0  0  0
 11 13  1  0  0  0  0
 12 27  1  0  0  0  0
 13 21  1  0  0  0  0
 13 14  1  0  0  0  0
 14 28  1  0  0  0  0
 15 16  2  0  0  0  0
 15 17  1  0  0  0  0
 17 29  1  0  0  0  0
M  END
> <s_m_source_file>
AV-unprocessed.smi

> <i_m_source_file_index>
72

> <i_lp_mmshare_version>
43012

> <i_f3d_flags>
0

> <s_epik_input>
W05IMl1jMW5bY0hdbihjKD1PKW4xKVtDQEBIXTJPW0NASF0oW0NIMl1bT0hdKVtDQEBIXShbT0hdKVtDQEhdMltPSF0=

> <s_epik_cmdline>
J2VwaWtfcHl0aG9uJywgJy1waCcsICc3LjAnLCAnLXRuJywgJzgnLCAnLW1hJywgJzIwMCcsICctbWV0YWxfYmluZGluZycsICctaW1hZScsICc8aW5maWxlLm1hZT4nLCAnLW9tYWUnLCAnPG91dGZpbGUubWFlPic=

> <r_lp_tautomer_probability>
7.17554e-07

> <r_epik_Ionization_Penalty>
0.0066451

> <r_epik_Ionization_Penalty_Charging>
0.00663793

> <r_epik_Ionization_Penalty_Neutral>
7.17052e-06

> <r_epik_State_Penalty>
0.419231

> <r_epik_Charging_Adjusted_Penalty>
0.425868

> <i_epik_Tot_Q>
0

> <i_epik_Tot_abs_Q>
0

> <r_epik_Metal_State_Penalty>
1.44144

> <b_epik_Metal_Only>
0

> <s_epik_Chemistry_Notes>
This compound contains an acetal/aminal-like group ( X-CH(R)-Y where X, Y are N, S, or O) that may be acid/base labile, releasing an aldehyde.

> <s_lp_Force_Field>
OPLS_2005

> <r_lp_Energy>
48.5612

> <b_lp_Chiralities_Consistent>
1

> <s_lp_Variant>
AV-unprocessed.smi:72-20

> <Gold.Version>
5.8.1

> <Gold.Id.Protein>
6NUR|6NUR_protein|mol2

> <Gold.PLP.Fitness>
33.2113

> <Gold.PLP.PLP>
-24.8324

> <Gold.PLP.part.hbond>
-5.2368

> <Gold.PLP.part.metal>
0.0000

> <Gold.PLP.part.buried>
-1.0386

> <Gold.PLP.part.nonpolar>
-18.8495

> <Gold.PLP.part.repulsive>
0.5377

> <Gold.PLP.ligand.clash>
0.0000

> <Gold.PLP.ligand.torsion>
0.3543

> <Gold.PLP.Chemscore.Hbond>
2.0288

> <Gold.PLP.Chemscore.CHOScore>
0.9999

> <Gold.PLP.Chemscore.Metal>
0.0000

> <Gold.Chemscore.Hbonds>
donor molecule, donor type, donor heavy atom, donor atom, acceptor molecule, acceptor atom, score
      L1  H     1    22       P1 10175  1.00
      L1  H    10    26       P1  8029  0.30
      L1  H    17    29       P1  7948  0.83
      L1  C     4    23       P1  8028  0.61

> <Gold.PLP.Chemscore.Internal.Correction>
0.0015

> <Gold.Rescore>
     Score         DG    S(hbond)    S(metal)    S(lipo)     H(rot)  DE(clash)    DE(int)     intcor
      2.78      -4.02       1.90        0.00      22.09       4.06       0.54       0.70       ----

> <Gold.Chemscore.Fitness>
2.7835

> <Gold.Chemscore.DG>
-4.0218

> <Gold.Chemscore.ZeroCoef>
-5.4800

> <Gold.Chemscore.Hbond>
1.9015

> <Gold.Chemscore.Metal>
0.0000

> <Gold.Chemscore.Lipo>
22.0885

> <Gold.Chemscore.Internal_Hbond>
0.0000

> <Gold.Chemscore.DEClash>
0.5430

> <Gold.Chemscore.DEInternal>
0.6953

> <Gold.Chemscore.Rot>
4.0600

> <Gold.Chemscore.Internal.Correction>
   9.000000E+99

> <Gold.Chemscore.Hbonds>
donor molecule, donor type, donor heavy atom, donor atom, acceptor molecule, acceptor atom, score
      L1  H     1    22       P1 10175  0.91
      L1  H    17    29       P1  7948  0.80

> <Gold.Chemscore.Hbond.Weighted>
-6.3510

> <Gold.Chemscore.Metal.Weighted>
-0.0000

> <Gold.Chemscore.Lipo.Weighted>
-2.5844

> <Gold.Chemscore.Internal_Hbond.Weighted>
0.0000

> <Gold.Chemscore.DEClash.Weighted>
0.5430

> <Gold.Chemscore.DEInternal.Weighted>
0.6953

> <Gold.Chemscore.Rot.Weighted>
10.3936

> <Gold.Chemscore.Internal.Correction.Weighted>
   9.000000E+99

> <Gold.Protein.RotatedTorsions>
[ 6907 6896 6895 6894 ] final -172.23 input  -60.11 | X-H torsion
[ 7974 7965 7964 7962 ] final  161.29 input  175.53 | X-H torsion
[ 8008 7997 7996 7995 ] final  138.54 input   59.86 | X-H torsion
[ 10167 10162 10161 10158 ] final   19.33 input  -65.29 | X-H torsion
[ 10718 10713 10712 10709 ] final   -6.95 input   66.30 | X-H torsion
[ 10763 10752 10751 10750 ] final  155.69 input  -60.55 | X-H torsion
[ 11005 11000 10999 10996 ] final -129.03 input  -57.11 | X-H torsion

> <Gold.Protein.ActiveResidues>
 VAL166  LYS551  ARG553  GLY616  TRP617  ASP618  TYR619  PRO620  LYS621  CYS622 
 ASP623  PHE694  ASN695  SER759  ASP760  ASP761  ALA762  ILE779  LEU786  VAL792 
 PHE793  MET794  SER795  GLU796  ALA797  LYS798  CYS799  TRP800  GLU811  SER814 

> <Gold.Protein.RotatedAtoms>
  151.5367  133.3440  159.2927 H   0  0  0  0  0  0  0  0  0  0  0  0  # atno 6907 bound_to 6896
  150.8560  134.7902  159.7057 H   0  0  0  0  0  0  0  0  0  0  0  0  # atno 6908 bound_to 6896
  152.4594  134.5228  159.9839 H   0  0  0  0  0  0  0  0  0  0  0  0  # atno 6909 bound_to 6896
  144.7693  139.7877  143.6303 H   0  0  0  0  0  0  0  0  0  0  0  0  # atno 7974 bound_to 7965
  156.2996  140.2391  156.4090 H   0  0  0  0  0  0  0  0  0  0  0  0  # atno 8008 bound_to 7997
  154.8458  140.0426  157.1591 H   0  0  0  0  0  0  0  0  0  0  0  0  # atno 8009 bound_to 7997
  154.9053  140.2982  155.5299 H   0  0  0  0  0  0  0  0  0  0  0  0  # atno 8010 bound_to 7997
  140.5587  143.9378  150.6627 H   0  0  0  0  0  0  0  0  0  0  0  0  # atno 10167 bound_to 10162
  156.7243  130.5160  149.5860 H   0  0  0  0  0  0  0  0  0  0  0  0  # atno 10718 bound_to 10713
  154.1724  135.2804  155.3077 H   0  0  0  0  0  0  0  0  0  0  0  0  # atno 10763 bound_to 10752
  154.6065  135.5512  153.7432 H   0  0  0  0  0  0  0  0  0  0  0  0  # atno 10764 bound_to 10752
  153.0161  135.6405  154.1864 H   0  0  0  0  0  0  0  0  0  0  0  0  # atno 10765 bound_to 10752
  140.9466  134.1122  157.4101 H   0  0  0  0  0  0  0  0  0  0  0  0  # atno 11005 bound_to 11000
  146.1827  139.5027  142.9856 LP  0  0  0  0  0  0  0  0  0  0  0  0  # atno 17320 bound_to 7965
  145.6372  141.0292  143.1831 LP  0  0  0  0  0  0  0  0  0  0  0  0  # atno 17321 bound_to 7965
  140.2822  143.3381  152.1140 LP  0  0  0  0  0  0  0  0  0  0  0  0  # atno 17342 bound_to 10162
  139.5060  144.6805  151.6021 LP  0  0  0  0  0  0  0  0  0  0  0  0  # atno 17343 bound_to 10162
  156.1572  130.6350  151.0673 LP  0  0  0  0  0  0  0  0  0  0  0  0  # atno 17370 bound_to 10713
  157.6885  131.0817  150.7175 LP  0  0  0  0  0  0  0  0  0  0  0  0  # atno 17371 bound_to 10713
  139.8835  135.0053  156.6306 LP  0  0  0  0  0  0  0  0  0  0  0  0  # atno 17394 bound_to 11000
  140.7661  133.8777  155.8455 LP  0  0  0  0  0  0  0  0  0  0  0  0  # atno 17395 bound_to 11000

$$$$
