AV-unprocessed.smi:1972|AV-procd|sdf|7975|dock4
  -GOLD-   2272010153D 1   1.00000     0.00000
 Structure written by MMmdl.
 44 45  0  0  0  0  0  0  0  0  1 V2000
  148.2527  133.1932  153.6343 C   0  0  0  0  0  0  0  0  0  0  0  0
  149.3568  133.2501  155.0691 S   0  0  0  0  0  0  0  0  0  0  0  0
  149.6212  135.0440  155.1739 C   0  0  0  0  0  0  0  0  0  0  0  0
  148.3141  135.8109  155.4415 C   0  0  0  0  0  0  0  0  0  0  0  0
  148.4802  137.3310  155.3494 C   0  0  0  0  0  0  0  0  0  0  0  0
  148.2139  138.0442  156.3168 O   0  0  0  0  0  0  0  0  0  0  0  0
  148.9178  137.8124  154.1768 N   0  0  0  0  0  0  0  0  0  0  0  0
  149.1682  139.2212  153.8944 C   0  0  0  0  0  0  0  0  0  0  0  0
  149.9480  139.9303  154.9904 C   0  0  0  0  0  0  0  0  0  0  0  0
  151.2040  139.4690  155.4377 C   0  0  0  0  0  0  0  0  0  0  0  0
  151.8639  140.1706  156.4647 C   0  0  0  0  0  0  0  0  0  0  0  0
  151.2509  141.3170  157.0243 C   0  0  0  0  0  0  0  0  0  0  0  0
  151.8955  142.0378  158.0534 N   0  0  0  0  0  0  0  0  0  0  0  0
  152.0809  141.3755  159.3429 C   0  0  0  0  0  0  0  0  0  0  0  0
  153.0448  142.1845  160.2258 C   0  0  0  0  0  0  0  0  0  0  0  0
  152.5701  143.5205  160.3534 O   0  0  0  0  0  0  0  0  0  0  0  0
  152.5035  144.1889  159.0968 C   0  0  2  0  0  0  0  0  0  0  0  0
  152.0747  145.6389  159.3451 C   0  0  0  0  0  0  0  0  0  0  0  0
  151.5182  143.4437  158.1755 C   0  0  0  0  0  0  0  0  0  0  0  0
  150.0365  141.7475  156.6014 N   0  0  0  0  0  0  0  0  0  0  0  0
  149.4083  141.0717  155.6164 C   0  0  0  0  0  0  0  0  0  0  0  0
  147.9796  132.1620  153.4107 H   0  0  0  0  0  0  0  0  0  0  0  0
  148.7429  133.6198  152.7592 H   0  0  0  0  0  0  0  0  0  0  0  0
  147.3410  133.7569  153.8330 H   0  0  0  0  0  0  0  0  0  0  0  0
  150.3272  135.2363  155.9821 H   0  0  0  0  0  0  0  0  0  0  0  0
  150.0978  135.3917  154.2566 H   0  0  0  0  0  0  0  0  0  0  0  0
  147.5338  135.4691  154.7597 H   0  0  0  0  0  0  0  0  0  0  0  0
  147.9631  135.5810  156.4478 H   0  0  0  0  0  0  0  0  0  0  0  0
  149.1056  137.1560  153.4328 H   0  0  0  0  0  0  0  0  0  0  0  0
  149.7138  139.2945  152.9527 H   0  0  0  0  0  0  0  0  0  0  0  0
  148.2250  139.7536  153.7592 H   0  0  0  0  0  0  0  0  0  0  0  0
  151.6601  138.5879  155.0113 H   0  0  0  0  0  0  0  0  0  0  0  0
  152.8188  139.8129  156.8197 H   0  0  0  0  0  0  0  0  0  0  0  0
  151.1148  141.2756  159.8399 H   0  0  0  0  0  0  0  0  0  0  0  0
  152.4809  140.3707  159.1997 H   0  0  0  0  0  0  0  0  0  0  0  0
  153.1124  141.7351  161.2165 H   0  0  0  0  0  0  0  0  0  0  0  0
  154.0520  142.1823  159.8059 H   0  0  0  0  0  0  0  0  0  0  0  0
  153.4963  144.1948  158.6428 H   0  0  0  0  0  0  0  0  0  0  0  0
  152.0227  146.1983  158.4107 H   0  0  0  0  0  0  0  0  0  0  0  0
  152.7837  146.1481  159.9981 H   0  0  0  0  0  0  0  0  0  0  0  0
  151.0933  145.6844  159.8184 H   0  0  0  0  0  0  0  0  0  0  0  0
  151.4957  143.9393  157.2062 H   0  0  0  0  0  0  0  0  0  0  0  0
  150.5077  143.4995  158.5826 H   0  0  0  0  0  0  0  0  0  0  0  0
  148.4443  141.4576  155.3188 H   0  0  0  0  0  0  0  0  0  0  0  0
  1  2  1  0  0  0  0
  1 22  1  0  0  0  0
  1 23  1  0  0  0  0
  1 24  1  0  0  0  0
  2  3  1  0  0  0  0
  3  4  1  0  0  0  0
  3 25  1  0  0  0  0
  3 26  1  0  0  0  0
  4  5  1  0  0  0  0
  4 27  1  0  0  0  0
  4 28  1  0  0  0  0
  5  6  2  0  0  0  0
  5  7  1  0  0  0  0
  7  8  1  0  0  0  0
  7 29  1  0  0  0  0
  8  9  1  0  0  0  0
  8 30  1  0  0  0  0
  8 31  1  0  0  0  0
  9 21  1  0  0  0  0
  9 10  2  0  0  0  0
 10 11  1  0  0  0  0
 10 32  1  0  0  0  0
 11 12  2  0  0  0  0
 11 33  1  0  0  0  0
 12 13  1  0  0  0  0
 12 20  1  0  0  0  0
 13 19  1  0  0  0  0
 13 14  1  0  0  0  0
 14 15  1  0  0  0  0
 14 34  1  0  0  0  0
 14 35  1  0  0  0  0
 15 16  1  0  0  0  0
 15 36  1  0  0  0  0
 15 37  1  0  0  0  0
 16 17  1  0  0  0  0
 17 18  1  0  0  0  0
 17 19  1  0  0  0  0
 17 38  1  0  0  0  0
 18 39  1  0  0  0  0
 18 40  1  0  0  0  0
 18 41  1  0  0  0  0
 19 42  1  0  0  0  0
 19 43  1  0  0  0  0
 20 21  2  0  0  0  0
 21 44  1  0  0  0  0
M  END
> <s_m_source_file>
AV-unprocessed.smi

> <i_m_source_file_index>
1972

> <i_lp_mmshare_version>
43012

> <i_f3d_flags>
0

> <s_epik_input>
W0NIM11TW0NIMl1bQ0gyXUMoPU8pW05IXVtDSDJdYzFbY0hdW2NIXWMobltjSF0xKU4yW0NIMl1bQ0gyXU9bQ0BASF0oW0NIM10pW0NIMl0y

> <s_epik_cmdline>
J2VwaWtfcHl0aG9uJywgJy1waCcsICc3LjAnLCAnLXRuJywgJzgnLCAnLW1hJywgJzIwMCcsICctbWV0YWxfYmluZGluZycsICctaW1hZScsICc8aW5maWxlLm1hZT4nLCAnLW9tYWUnLCAnPG91dGZpbGUubWFlPic=

> <r_lp_tautomer_probability>
1

> <r_epik_Ionization_Penalty>
0.00559088

> <r_epik_Ionization_Penalty_Charging>
0

> <r_epik_Ionization_Penalty_Neutral>
0.00559088

> <r_epik_State_Penalty>
0.00409544

> <r_epik_Charging_Adjusted_Penalty>
0.00409544

> <i_epik_Tot_Q>
0

> <i_epik_Tot_abs_Q>
0

> <r_epik_Metal_State_Penalty>
-0

> <b_epik_Metal_Only>
0

> <s_lp_Force_Field>
OPLS_2005

> <r_lp_Energy>
17.9422

> <b_lp_Chiralities_Consistent>
1

> <s_lp_Variant>
AV-unprocessed.smi:1972-2

> <Gold.Version>
5.8.1

> <Gold.Id.Protein>
6NUR|6NUR_protein|mol2

> <Gold.PLP.Fitness>
44.1074

> <Gold.PLP.PLP>
-41.7369

> <Gold.PLP.part.hbond>
-1.0000

> <Gold.PLP.part.metal>
0.0000

> <Gold.PLP.part.buried>
-2.0160

> <Gold.PLP.part.nonpolar>
-38.0247

> <Gold.PLP.part.repulsive>
0.1539

> <Gold.PLP.ligand.clash>
0.0000

> <Gold.PLP.ligand.torsion>
0.5058

> <Gold.PLP.Chemscore.Hbond>
1.0000

> <Gold.PLP.Chemscore.CHOScore>
0.0000

> <Gold.PLP.Chemscore.Metal>
0.0000

> <Gold.Chemscore.Hbonds>
donor molecule, donor type, donor heavy atom, donor atom, acceptor molecule, acceptor atom, score
      L1  H     7    29       P1  7948  1.00

> <Gold.PLP.Chemscore.Internal.Correction>
0.3820

> <Gold.Rescore>
     Score         DG    S(hbond)    S(metal)    S(lipo)     H(rot)  DE(clash)    DE(int)     intcor
     14.81     -16.57       1.00        0.00     104.46       1.75       0.00       1.76       ----

> <Gold.Chemscore.Fitness>
14.8091

> <Gold.Chemscore.DG>
-16.5657

> <Gold.Chemscore.ZeroCoef>
-5.4800

> <Gold.Chemscore.Hbond>
0.9981

> <Gold.Chemscore.Metal>
0.0000

> <Gold.Chemscore.Lipo>
104.4588

> <Gold.Chemscore.Internal_Hbond>
0.0000

> <Gold.Chemscore.DEClash>
0.0008

> <Gold.Chemscore.DEInternal>
1.7558

> <Gold.Chemscore.Rot>
1.7460

> <Gold.Chemscore.Internal.Correction>
   9.000000E+99

> <Gold.Chemscore.Hbonds>
donor molecule, donor type, donor heavy atom, donor atom, acceptor molecule, acceptor atom, score
      L1  H     7    29       P1  7948  1.00

> <Gold.Chemscore.Hbond.Weighted>
-3.3337

> <Gold.Chemscore.Metal.Weighted>
-0.0000

> <Gold.Chemscore.Lipo.Weighted>
-12.2217

> <Gold.Chemscore.Internal_Hbond.Weighted>
0.0000

> <Gold.Chemscore.DEClash.Weighted>
0.0008

> <Gold.Chemscore.DEInternal.Weighted>
1.7558

> <Gold.Chemscore.Rot.Weighted>
4.4697

> <Gold.Chemscore.Internal.Correction.Weighted>
   9.000000E+99

> <Gold.Protein.RotatedTorsions>
[ 6907 6896 6895 6894 ] final   51.92 input  -60.11 | X-H torsion
[ 7974 7965 7964 7962 ] final   35.60 input  175.53 | X-H torsion
[ 8008 7997 7996 7995 ] final  -84.03 input   59.86 | X-H torsion
[ 10167 10162 10161 10158 ] final  -42.25 input  -65.29 | X-H torsion
[ 10718 10713 10712 10709 ] final    2.26 input   66.30 | X-H torsion
[ 10763 10752 10751 10750 ] final   77.88 input  -60.55 | X-H torsion
[ 11005 11000 10999 10996 ] final   25.57 input  -57.11 | X-H torsion

> <Gold.Protein.ActiveResidues>
 VAL166  LYS551  ARG553  GLY616  TRP617  ASP618  TYR619  PRO620  LYS621  CYS622 
 ASP623  PHE694  ASN695  SER759  ASP760  ASP761  ALA762  ILE779  LEU786  VAL792 
 PHE793  MET794  SER795  GLU796  ALA797  LYS798  CYS799  TRP800  GLU811  SER814 

> <Gold.Protein.RotatedAtoms>
  152.3178  134.7418  160.0320 H   0  0  0  0  0  0  0  0  0  0  0  0  # atno 6907 bound_to 6896
  151.7877  133.3351  159.3498 H   0  0  0  0  0  0  0  0  0  0  0  0  # atno 6908 bound_to 6896
  150.7353  134.5802  159.5979 H   0  0  0  0  0  0  0  0  0  0  0  0  # atno 6909 bound_to 6896
  146.1271  139.6122  142.9251 H   0  0  0  0  0  0  0  0  0  0  0  0  # atno 7974 bound_to 7965
  154.6254  140.0610  156.9667 H   0  0  0  0  0  0  0  0  0  0  0  0  # atno 8008 bound_to 7997
  155.1750  140.3294  155.4367 H   0  0  0  0  0  0  0  0  0  0  0  0  # atno 8009 bound_to 7997
  156.2454  140.1907  156.6850 H   0  0  0  0  0  0  0  0  0  0  0  0  # atno 8010 bound_to 7997
  140.6975  143.3048  151.3182 H   0  0  0  0  0  0  0  0  0  0  0  0  # atno 10167 bound_to 10162
  156.8603  130.5584  149.5663 H   0  0  0  0  0  0  0  0  0  0  0  0  # atno 10718 bound_to 10713
  153.0832  135.4898  154.8544 H   0  0  0  0  0  0  0  0  0  0  0  0  # atno 10763 bound_to 10752
  154.7177  135.3033  154.9100 H   0  0  0  0  0  0  0  0  0  0  0  0  # atno 10764 bound_to 10752
  153.9774  135.6794  153.4802 H   0  0  0  0  0  0  0  0  0  0  0  0  # atno 10765 bound_to 10752
  140.3464  134.2276  155.7684 H   0  0  0  0  0  0  0  0  0  0  0  0  # atno 11005 bound_to 11000
  145.5341  141.0425  143.2366 LP  0  0  0  0  0  0  0  0  0  0  0  0  # atno 17320 bound_to 7965
  144.7653  139.6859  143.7217 LP  0  0  0  0  0  0  0  0  0  0  0  0  # atno 17321 bound_to 7965
  139.6450  144.0468  152.2584 LP  0  0  0  0  0  0  0  0  0  0  0  0  # atno 17342 bound_to 10162
  139.9986  144.6310  150.7750 LP  0  0  0  0  0  0  0  0  0  0  0  0  # atno 17343 bound_to 10162
  156.0780  130.5797  150.9510 LP  0  0  0  0  0  0  0  0  0  0  0  0  # atno 17370 bound_to 10713
  157.6254  131.0926  150.8544 LP  0  0  0  0  0  0  0  0  0  0  0  0  # atno 17371 bound_to 10713
  141.2024  133.7938  157.0391 LP  0  0  0  0  0  0  0  0  0  0  0  0  # atno 17394 bound_to 11000
  140.0739  134.9687  157.1512 LP  0  0  0  0  0  0  0  0  0  0  0  0  # atno 17395 bound_to 11000

$$$$
