AV-unprocessed.smi:992|AV-procd|sdf|4329|dock4
  -GOLD-   22720 2233D 1   1.00000     0.00000
 Structure written by MMmdl.
 32 33  0  0  0  0  0  0  0  0  1 V2000
  151.5072  145.0041  158.7676 C   0  0  0  0  0  0  0  0  0  0  0  0
  152.1322  143.6061  158.7205 C   0  0  2  0  0  0  0  0  0  0  0  0
  151.4553  142.7083  157.6692 C   0  0  0  0  0  0  0  0  0  0  0  0
  152.0108  141.3636  157.7313 N   0  0  0  0  0  0  0  0  0  0  0  0
  151.5646  140.5243  156.7008 C   0  0  0  0  0  0  0  0  0  0  0  0
  150.3193  140.7911  156.0935 C   0  0  0  0  0  0  0  0  0  0  0  0
  149.8730  139.9428  155.0618 C   0  0  0  0  0  0  0  0  0  0  0  0
  150.6872  138.8606  154.6738 C   0  0  0  0  0  0  0  0  0  0  0  0
  150.2867  137.9928  153.6587 N   0  0  0  0  0  0  0  0  0  0  0  0
  151.9170  138.6769  155.3383 C   0  0  0  0  0  0  0  0  0  0  0  0
  152.3510  139.4853  156.3289 N   0  0  0  0  0  0  0  0  0  0  0  0
  151.8810  140.7733  159.0575 C   0  0  0  0  0  0  0  0  0  0  0  0
  152.5135  141.6870  160.1267 C   0  0  1  0  0  0  0  0  0  0  0  0
  154.0524  141.6691  160.1193 C   0  0  0  0  0  0  0  0  0  0  0  0
  151.9911  143.0137  160.0124 O   0  0  0  0  0  0  0  0  0  0  0  0
  151.5935  145.5048  157.8029 H   0  0  0  0  0  0  0  0  0  0  0  0
  152.0033  145.6277  159.5117 H   0  0  0  0  0  0  0  0  0  0  0  0
  150.4491  144.9549  159.0261 H   0  0  0  0  0  0  0  0  0  0  0  0
  153.1900  143.7173  158.4807 H   0  0  0  0  0  0  0  0  0  0  0  0
  150.3796  142.6698  157.8482 H   0  0  0  0  0  0  0  0  0  0  0  0
  151.6021  143.1219  156.6704 H   0  0  0  0  0  0  0  0  0  0  0  0
  149.7154  141.6280  156.4125 H   0  0  0  0  0  0  0  0  0  0  0  0
  148.9228  140.1227  154.5803 H   0  0  0  0  0  0  0  0  0  0  0  0
  149.4073  138.1164  153.1775 H   0  0  0  0  0  0  0  0  0  0  0  0
  150.8957  137.2631  153.3174 H   0  0  0  0  0  0  0  0  0  0  0  0
  152.5713  137.8599  155.0706 H   0  0  0  0  0  0  0  0  0  0  0  0
  150.8231  140.6312  159.2833 H   0  0  0  0  0  0  0  0  0  0  0  0
  152.3454  139.7864  159.0770 H   0  0  0  0  0  0  0  0  0  0  0  0
  152.1995  141.3196  161.1040 H   0  0  0  0  0  0  0  0  0  0  0  0
  154.4273  140.6673  160.3302 H   0  0  0  0  0  0  0  0  0  0  0  0
  154.4517  142.3375  160.8821 H   0  0  0  0  0  0  0  0  0  0  0  0
  154.4658  141.9722  159.1577 H   0  0  0  0  0  0  0  0  0  0  0  0
  1  2  1  0  0  0  0
  1 16  1  0  0  0  0
  1 17  1  0  0  0  0
  1 18  1  0  0  0  0
  2 15  1  0  0  0  0
  2  3  1  0  0  0  0
  2 19  1  0  0  0  0
  3  4  1  0  0  0  0
  3 20  1  0  0  0  0
  3 21  1  0  0  0  0
  4  5  1  0  0  0  0
  4 12  1  0  0  0  0
  5 11  1  0  0  0  0
  5  6  2  0  0  0  0
  6  7  1  0  0  0  0
  6 22  1  0  0  0  0
  7  8  2  0  0  0  0
  7 23  1  0  0  0  0
  8  9  1  0  0  0  0
  8 10  1  0  0  0  0
  9 24  1  0  0  0  0
  9 25  1  0  0  0  0
 10 11  2  0  0  0  0
 10 26  1  0  0  0  0
 12 13  1  0  0  0  0
 12 27  1  0  0  0  0
 12 28  1  0  0  0  0
 13 14  1  0  0  0  0
 13 15  1  0  0  0  0
 13 29  1  0  0  0  0
 14 30  1  0  0  0  0
 14 31  1  0  0  0  0
 14 32  1  0  0  0  0
M  END
> <s_m_source_file>
AV-unprocessed.smi

> <i_m_source_file_index>
992

> <i_lp_mmshare_version>
43012

> <i_f3d_flags>
0

> <s_epik_input>
W0NIM11bQ0BASF0xW0NIMl1OKFtDSDJdW0NASF0oTzEpW0NIM10pYzJbY0hdW2NIXWMoW05IMl0pW2NIXW4y

> <s_epik_cmdline>
J2VwaWtfcHl0aG9uJywgJy1waCcsICc3LjAnLCAnLXRuJywgJzgnLCAnLW1hJywgJzIwMCcsICctbWV0YWxfYmluZGluZycsICctaW1hZScsICc8aW5maWxlLm1hZT4nLCAnLW9tYWUnLCAnPG91dGZpbGUubWFlPic=

> <r_lp_tautomer_probability>
1

> <r_epik_Ionization_Penalty>
0.0126232

> <r_epik_Ionization_Penalty_Charging>
0

> <r_epik_Ionization_Penalty_Neutral>
0.0126232

> <r_epik_State_Penalty>
0.00976577

> <r_epik_Charging_Adjusted_Penalty>
0.00976577

> <i_epik_Tot_Q>
0

> <i_epik_Tot_abs_Q>
0

> <r_epik_Metal_State_Penalty>
9.84661e-06

> <b_epik_Metal_Only>
0

> <s_lp_Force_Field>
OPLS_2005

> <r_lp_Energy>
23.4385

> <b_lp_Chiralities_Consistent>
1

> <s_lp_Variant>
AV-unprocessed.smi:992-1

> <Gold.Version>
5.8.1

> <Gold.Id.Protein>
6NUR|6NUR_protein|mol2

> <Gold.PLP.Fitness>
38.5431

> <Gold.PLP.PLP>
-35.7375

> <Gold.PLP.part.hbond>
-3.8059

> <Gold.PLP.part.metal>
0.0000

> <Gold.PLP.part.buried>
-3.1386

> <Gold.PLP.part.nonpolar>
-29.2502

> <Gold.PLP.part.repulsive>
0.1050

> <Gold.PLP.ligand.clash>
0.7477

> <Gold.PLP.ligand.torsion>
0.5597

> <Gold.PLP.Chemscore.Hbond>
1.5255

> <Gold.PLP.Chemscore.CHOScore>
0.0000

> <Gold.PLP.Chemscore.Metal>
0.0000

> <Gold.Chemscore.Hbonds>
donor molecule, donor type, donor heavy atom, donor atom, acceptor molecule, acceptor atom, score
      L1  H     9    24       P1  7948  0.05
      L1  H     9    25       P1  7949  0.35
      P1  H  7997  8008       L1    11  0.86

> <Gold.PLP.Chemscore.Internal.Correction>
0.0964

> <Gold.Rescore>
     Score         DG    S(hbond)    S(metal)    S(lipo)     H(rot)  DE(clash)    DE(int)     intcor
     16.84     -17.20       1.23        0.00      86.87       1.00       0.06       0.30       ----

> <Gold.Chemscore.Fitness>
16.8435

> <Gold.Chemscore.DG>
-17.1969

> <Gold.Chemscore.ZeroCoef>
-5.4800

> <Gold.Chemscore.Hbond>
1.2316

> <Gold.Chemscore.Metal>
0.0000

> <Gold.Chemscore.Lipo>
86.8650

> <Gold.Chemscore.Internal_Hbond>
0.0000

> <Gold.Chemscore.DEClash>
0.0551

> <Gold.Chemscore.DEInternal>
0.2983

> <Gold.Chemscore.Rot>
1.0000

> <Gold.Chemscore.Internal.Correction>
   9.000000E+99

> <Gold.Chemscore.Hbonds>
donor molecule, donor type, donor heavy atom, donor atom, acceptor molecule, acceptor atom, score
      L1  H     9    24       P1  7948  0.05
      L1  H     9    25       P1  7949  0.08
      P1  H  7997  8008       L1    11  0.57

> <Gold.Chemscore.Hbond.Weighted>
-4.1137

> <Gold.Chemscore.Metal.Weighted>
-0.0000

> <Gold.Chemscore.Lipo.Weighted>
-10.1632

> <Gold.Chemscore.Internal_Hbond.Weighted>
0.0000

> <Gold.Chemscore.DEClash.Weighted>
0.0551

> <Gold.Chemscore.DEInternal.Weighted>
0.2983

> <Gold.Chemscore.Rot.Weighted>
2.5600

> <Gold.Chemscore.Internal.Correction.Weighted>
   9.000000E+99

> <Gold.Protein.RotatedTorsions>
[ 6907 6896 6895 6894 ] final  -46.63 input  -60.11 | X-H torsion
[ 7974 7965 7964 7962 ] final  -71.31 input  175.53 | X-H torsion
[ 8008 7997 7996 7995 ] final  -40.73 input   59.86 | X-H torsion
[ 10167 10162 10161 10158 ] final -143.10 input  -65.29 | X-H torsion
[ 10718 10713 10712 10709 ] final  -44.53 input   66.30 | X-H torsion
[ 10763 10752 10751 10750 ] final  122.26 input  -60.55 | X-H torsion
[ 11005 11000 10999 10996 ] final  -65.39 input  -57.11 | X-H torsion

> <Gold.Protein.ActiveResidues>
 VAL166  LYS551  ARG553  GLY616  TRP617  ASP618  TYR619  PRO620  LYS621  CYS622 
 ASP623  PHE694  ASN695  SER759  ASP760  ASP761  ALA762  ILE779  LEU786  VAL792 
 PHE793  MET794  SER795  GLU796  ALA797  LYS798  CYS799  TRP800  GLU811  SER814 

> <Gold.Protein.RotatedAtoms>
  150.9093  134.8509  159.7413 H   0  0  0  0  0  0  0  0  0  0  0  0  # atno 6907 bound_to 6896
  152.4935  134.4384  159.9545 H   0  0  0  0  0  0  0  0  0  0  0  0  # atno 6908 bound_to 6896
  151.4428  133.3599  159.2819 H   0  0  0  0  0  0  0  0  0  0  0  0  # atno 6909 bound_to 6896
  145.6797  140.9192  143.0839 H   0  0  0  0  0  0  0  0  0  0  0  0  # atno 7974 bound_to 7965
  154.4009  140.1518  156.3075 H   0  0  0  0  0  0  0  0  0  0  0  0  # atno 8008 bound_to 7997
  155.8645  140.3452  155.5757 H   0  0  0  0  0  0  0  0  0  0  0  0  # atno 8009 bound_to 7997
  155.7843  140.0847  157.2033 H   0  0  0  0  0  0  0  0  0  0  0  0  # atno 8010 bound_to 7997
  139.8026  143.7813  152.2659 H   0  0  0  0  0  0  0  0  0  0  0  0  # atno 10167 bound_to 10162
  156.2376  130.4177  149.8799 H   0  0  0  0  0  0  0  0  0  0  0  0  # atno 10718 bound_to 10713
  153.6270  135.3403  155.3029 H   0  0  0  0  0  0  0  0  0  0  0  0  # atno 10763 bound_to 10752
  154.8588  135.4286  154.2146 H   0  0  0  0  0  0  0  0  0  0  0  0  # atno 10764 bound_to 10752
  153.3033  135.7026  153.7256 H   0  0  0  0  0  0  0  0  0  0  0  0  # atno 10765 bound_to 10752
  141.1453  133.6681  156.5978 H   0  0  0  0  0  0  0  0  0  0  0  0  # atno 11005 bound_to 11000
  144.7030  139.8680  143.7438 LP  0  0  0  0  0  0  0  0  0  0  0  0  # atno 17320 bound_to 7965
  146.0975  139.3968  143.0367 LP  0  0  0  0  0  0  0  0  0  0  0  0  # atno 17321 bound_to 7965
  139.7937  144.7400  150.9919 LP  0  0  0  0  0  0  0  0  0  0  0  0  # atno 17342 bound_to 10162
  140.7820  143.4415  151.0544 LP  0  0  0  0  0  0  0  0  0  0  0  0  # atno 17343 bound_to 10162
  156.6391  130.8697  151.3510 LP  0  0  0  0  0  0  0  0  0  0  0  0  # atno 17370 bound_to 10713
  157.7161  130.9499  150.1262 LP  0  0  0  0  0  0  0  0  0  0  0  0  # atno 17371 bound_to 10713
  140.3712  134.7604  157.4600 LP  0  0  0  0  0  0  0  0  0  0  0  0  # atno 17394 bound_to 11000
  140.0709  134.5864  155.8643 LP  0  0  0  0  0  0  0  0  0  0  0  0  # atno 17395 bound_to 11000

$$$$
