AV-unprocessed.smi:286|AV-procd|sdf|2174|dock3
  -GOLD-   2262021533D 1   1.00000     0.00000
 Structure written by MMmdl.
 46 48  0  0  0  0  0  0  0  0  1 V2000
  152.3637  139.8800  155.7092 O   0  0  0  0  0  0  0  0  0  0  0  0
  151.2147  139.8287  155.2669 C   0  0  0  0  0  0  0  0  0  0  0  0
  150.6972  138.6949  154.5111 C   0  0  0  0  0  0  0  0  0  0  0  0
  151.4747  137.6164  154.3151 F   0  0  0  0  0  0  0  0  0  0  0  0
  149.4407  138.7012  154.0168 C   0  0  0  0  0  0  0  0  0  0  0  0
  148.5713  139.7701  154.1639 N   0  0  0  0  0  0  0  0  0  0  0  0
  147.1387  139.7042  153.6737 C   0  0  1  0  0  0  0  0  0  0  0  0
  146.9961  139.6615  152.1422 C   0  0  0  0  0  0  0  0  0  0  0  0
  146.6430  138.2088  151.8895 C   0  0  0  0  0  0  0  0  0  0  0  0
  145.8769  137.8534  153.1576 C   0  0  0  0  0  0  0  0  0  0  0  0
  146.5726  138.5375  154.1919 O   0  0  0  0  0  0  0  0  0  0  0  0
  148.9632  140.8759  154.9533 C   0  0  0  0  0  0  0  0  0  0  0  0
  148.1794  141.8017  155.1730 O   0  0  0  0  0  0  0  0  0  0  0  0
  150.2848  140.8790  155.4634 N   0  0  0  0  0  0  0  0  0  0  0  0
  150.7366  142.0351  156.2255 C   0  0  0  0  0  0  0  0  0  0  0  0
  150.0963  142.1601  157.6301 C   0  0  2  0  0  0  0  0  0  0  0  0
  149.0198  143.0728  157.5483 O   0  0  0  0  0  0  0  0  0  0  0  0
  151.0656  142.5651  158.7700 C   0  0  0  0  0  0  0  0  0  0  0  0
  151.7050  143.9476  158.5175 C   0  0  0  0  0  0  0  0  0  0  0  0
  152.5968  144.3813  159.6926 C   0  0  0  0  0  0  0  0  0  0  0  0
  153.6770  143.3307  159.9924 C   0  0  0  0  0  0  0  0  0  0  0  0
  153.0532  141.9485  160.2388 C   0  0  0  0  0  0  0  0  0  0  0  0
  152.1682  141.5190  159.0578 C   0  0  0  0  0  0  0  0  0  0  0  0
  149.1181  137.8173  153.4905 H   0  0  0  0  0  0  0  0  0  0  0  0
  146.6399  140.5891  154.0717 H   0  0  0  0  0  0  0  0  0  0  0  0
  146.1553  140.2983  151.8634 H   0  0  0  0  0  0  0  0  0  0  0  0
  147.8772  140.0224  151.6123 H   0  0  0  0  0  0  0  0  0  0  0  0
  146.0547  138.0639  150.9831 H   0  0  0  0  0  0  0  0  0  0  0  0
  147.5430  137.5985  151.8121 H   0  0  0  0  0  0  0  0  0  0  0  0
  144.8537  138.2284  153.1059 H   0  0  0  0  0  0  0  0  0  0  0  0
  145.8398  136.7797  153.3422 H   0  0  0  0  0  0  0  0  0  0  0  0
  151.8256  142.0295  156.2671 H   0  0  0  0  0  0  0  0  0  0  0  0
  150.5008  142.9086  155.6141 H   0  0  0  0  0  0  0  0  0  0  0  0
  149.6528  141.1980  157.8878 H   0  0  0  0  0  0  0  0  0  0  0  0
  149.0720  143.5235  156.7195 H   0  0  0  0  0  0  0  0  0  0  0  0
  150.4688  142.6701  159.6760 H   0  0  0  0  0  0  0  0  0  0  0  0
  152.2992  143.9226  157.6032 H   0  0  0  0  0  0  0  0  0  0  0  0
  150.9280  144.6961  158.3591 H   0  0  0  0  0  0  0  0  0  0  0  0
  153.0635  145.3413  159.4701 H   0  0  0  0  0  0  0  0  0  0  0  0
  151.9816  144.5359  160.5799 H   0  0  0  0  0  0  0  0  0  0  0  0
  154.3734  143.2730  159.1547 H   0  0  0  0  0  0  0  0  0  0  0  0
  154.2623  143.6351  160.8605 H   0  0  0  0  0  0  0  0  0  0  0  0
  153.8389  141.2102  160.4015 H   0  0  0  0  0  0  0  0  0  0  0  0
  152.4571  141.9720  161.1520 H   0  0  0  0  0  0  0  0  0  0  0  0
  151.7330  140.5453  159.2757 H   0  0  0  0  0  0  0  0  0  0  0  0
  152.7941  141.3818  158.1754 H   0  0  0  0  0  0  0  0  0  0  0  0
  1  2  2  0  0  0  0
  2 14  1  0  0  0  0
  2  3  1  0  0  0  0
  3  4  1  0  0  0  0
  3  5  2  0  0  0  0
  5  6  1  0  0  0  0
  5 24  1  0  0  0  0
  6  7  1  0  0  0  0
  6 12  1  0  0  0  0
  7 11  1  0  0  0  0
  7  8  1  0  0  0  0
  7 25  1  0  0  0  0
  8  9  1  0  0  0  0
  8 26  1  0  0  0  0
  8 27  1  0  0  0  0
  9 10  1  0  0  0  0
  9 28  1  0  0  0  0
  9 29  1  0  0  0  0
 10 11  1  0  0  0  0
 10 30  1  0  0  0  0
 10 31  1  0  0  0  0
 12 13  2  0  0  0  0
 12 14  1  0  0  0  0
 14 15  1  0  0  0  0
 15 16  1  0  0  0  0
 15 32  1  0  0  0  0
 15 33  1  0  0  0  0
 16 17  1  0  0  0  0
 16 18  1  0  0  0  0
 16 34  1  0  0  0  0
 17 35  1  0  0  0  0
 18 23  1  0  0  0  0
 18 19  1  0  0  0  0
 18 36  1  0  0  0  0
 19 20  1  0  0  0  0
 19 37  1  0  0  0  0
 19 38  1  0  0  0  0
 20 21  1  0  0  0  0
 20 39  1  0  0  0  0
 20 40  1  0  0  0  0
 21 22  1  0  0  0  0
 21 41  1  0  0  0  0
 21 42  1  0  0  0  0
 22 23  1  0  0  0  0
 22 43  1  0  0  0  0
 22 44  1  0  0  0  0
 23 45  1  0  0  0  0
 23 46  1  0  0  0  0
M  END
> <s_m_source_file>
AV-unprocessed.smi

> <i_m_source_file_index>
286

> <i_lp_mmshare_version>
43012

> <i_f3d_flags>
0

> <s_epik_input>
TzFbQ0gyXVtDSDJdW0NIMl1bQ0BIXTFuKFtjSF1jKEYpYzI9TyljKD1PKW4yW0NIMl1bQ0BIXShbT0hdKVtDSF0zW0NIMl1bQ0gyXVtDSDJdW0NIMl1bQ0gyXTM=

> <s_epik_cmdline>
J2VwaWtfcHl0aG9uJywgJy1waCcsICc3LjAnLCAnLXRuJywgJzgnLCAnLW1hJywgJzIwMCcsICctbWV0YWxfYmluZGluZycsICctaW1hZScsICc8aW5maWxlLm1hZT4nLCAnLW9tYWUnLCAnPG91dGZpbGUubWFlPic=

> <r_lp_tautomer_probability>
1

> <r_epik_Ionization_Penalty>
3.15564e-07

> <r_epik_Ionization_Penalty_Charging>
2.06416e-08

> <r_epik_Ionization_Penalty_Neutral>
2.94923e-07

> <r_epik_State_Penalty>
-0

> <r_epik_Charging_Adjusted_Penalty>
2.06416e-08

> <i_epik_Tot_Q>
0

> <i_epik_Tot_abs_Q>
0

> <r_epik_Metal_State_Penalty>
-0

> <b_epik_Metal_Only>
0

> <s_epik_Chemistry_Notes>
This compound contains an acetal/aminal-like group ( X-CH(R)-Y where X, Y are N, S, or O) that may be acid/base labile, releasing an aldehyde.

> <s_lp_Force_Field>
OPLS_2005

> <r_lp_Energy>
39.3884

> <b_lp_Chiralities_Consistent>
1

> <s_lp_Variant>
AV-unprocessed.smi:286-2

> <Gold.Version>
5.8.1

> <Gold.Id.Protein>
6NUR|6NUR_protein|mol2

> <Gold.PLP.Fitness>
52.8685

> <Gold.PLP.PLP>
-45.9854

> <Gold.PLP.part.hbond>
-2.5382

> <Gold.PLP.part.metal>
0.0000

> <Gold.PLP.part.buried>
3.6110

> <Gold.PLP.part.nonpolar>
-48.4485

> <Gold.PLP.part.repulsive>
0.8893

> <Gold.PLP.ligand.clash>
0.0000

> <Gold.PLP.ligand.torsion>
0.7677

> <Gold.PLP.Chemscore.Hbond>
1.7638

> <Gold.PLP.Chemscore.CHOScore>
1.0000

> <Gold.PLP.Chemscore.Metal>
0.0000

> <Gold.Chemscore.Hbonds>
donor molecule, donor type, donor heavy atom, donor atom, acceptor molecule, acceptor atom, score
      L1  H    17    35       P1  8028  1.00
      P1  H  7997  8008       L1     1  0.93
      L1  C     5    24       P1  7948  1.00

> <Gold.PLP.Chemscore.Internal.Correction>
0.1273

> <Gold.Rescore>
     Score         DG    S(hbond)    S(metal)    S(lipo)     H(rot)  DE(clash)    DE(int)     intcor
     13.85     -16.23       0.93        0.00     115.27       2.28       1.52       0.87       ----

> <Gold.Chemscore.Fitness>
13.8474

> <Gold.Chemscore.DG>
-16.2332

> <Gold.Chemscore.ZeroCoef>
-5.4800

> <Gold.Chemscore.Hbond>
0.9259

> <Gold.Chemscore.Metal>
0.0000

> <Gold.Chemscore.Lipo>
115.2671

> <Gold.Chemscore.Internal_Hbond>
0.0000

> <Gold.Chemscore.DEClash>
1.5182

> <Gold.Chemscore.DEInternal>
0.8676

> <Gold.Chemscore.Rot>
2.2756

> <Gold.Chemscore.Internal.Correction>
   9.000000E+99

> <Gold.Chemscore.Hbonds>
donor molecule, donor type, donor heavy atom, donor atom, acceptor molecule, acceptor atom, score
      L1  H    17    35       P1  8028  0.86
      P1  H  7997  8008       L1     1  0.89

> <Gold.Chemscore.Hbond.Weighted>
-3.0924

> <Gold.Chemscore.Metal.Weighted>
-0.0000

> <Gold.Chemscore.Lipo.Weighted>
-13.4863

> <Gold.Chemscore.Internal_Hbond.Weighted>
0.0000

> <Gold.Chemscore.DEClash.Weighted>
1.5182

> <Gold.Chemscore.DEInternal.Weighted>
0.8676

> <Gold.Chemscore.Rot.Weighted>
5.8254

> <Gold.Chemscore.Internal.Correction.Weighted>
   9.000000E+99

> <Gold.Protein.RotatedTorsions>
[ 6907 6896 6895 6894 ] final  124.56 input  -60.11 | X-H torsion
[ 7974 7965 7964 7962 ] final  142.40 input  175.53 | X-H torsion
[ 8008 7997 7996 7995 ] final  -33.76 input   59.86 | X-H torsion
[ 10167 10162 10161 10158 ] final   33.71 input  -65.29 | X-H torsion
[ 10718 10713 10712 10709 ] final   30.13 input   66.30 | X-H torsion
[ 10763 10752 10751 10750 ] final -158.44 input  -60.55 | X-H torsion
[ 11005 11000 10999 10996 ] final  -65.68 input  -57.11 | X-H torsion

> <Gold.Protein.ActiveResidues>
 VAL166  LYS551  ARG553  GLY616  TRP617  ASP618  TYR619  PRO620  LYS621  CYS622 
 ASP623  PHE694  ASN695  SER759  ASP760  ASP761  ALA762  ILE779  LEU786  VAL792 
 PHE793  MET794  SER795  GLU796  ALA797  LYS798  CYS799  TRP800  GLU811  SER814 

> <Gold.Protein.RotatedAtoms>
  152.4068  133.6901  159.6362 H   0  0  0  0  0  0  0  0  0  0  0  0  # atno 6907 bound_to 6896
  150.7952  133.8695  159.3263 H   0  0  0  0  0  0  0  0  0  0  0  0  # atno 6908 bound_to 6896
  151.6448  135.1010  160.0200 H   0  0  0  0  0  0  0  0  0  0  0  0  # atno 6909 bound_to 6896
  144.9011  139.5421  143.5753 H   0  0  0  0  0  0  0  0  0  0  0  0  # atno 7974 bound_to 7965
  154.4139  140.1702  156.1940 H   0  0  0  0  0  0  0  0  0  0  0  0  # atno 8008 bound_to 7997
  155.9579  140.3396  155.6441 H   0  0  0  0  0  0  0  0  0  0  0  0  # atno 8009 bound_to 7997
  155.6786  140.0720  157.2484 H   0  0  0  0  0  0  0  0  0  0  0  0  # atno 8010 bound_to 7997
  140.4383  144.1225  150.6170 H   0  0  0  0  0  0  0  0  0  0  0  0  # atno 10167 bound_to 10162
  157.2556  130.7136  149.6427 H   0  0  0  0  0  0  0  0  0  0  0  0  # atno 10718 bound_to 10713
  154.7556  135.3104  154.8476 H   0  0  0  0  0  0  0  0  0  0  0  0  # atno 10763 bound_to 10752
  153.9251  135.6791  153.4751 H   0  0  0  0  0  0  0  0  0  0  0  0  # atno 10764 bound_to 10752
  153.1153  135.4847  154.9035 H   0  0  0  0  0  0  0  0  0  0  0  0  # atno 10765 bound_to 10752
  141.1461  133.6686  156.6024 H   0  0  0  0  0  0  0  0  0  0  0  0  # atno 11005 bound_to 11000
  146.3109  139.7742  142.9020 LP  0  0  0  0  0  0  0  0  0  0  0  0  # atno 17320 bound_to 7965
  145.3614  141.0326  143.3282 LP  0  0  0  0  0  0  0  0  0  0  0  0  # atno 17321 bound_to 7965
  140.4348  143.2552  151.9549 LP  0  0  0  0  0  0  0  0  0  0  0  0  # atno 17342 bound_to 10162
  139.4788  144.5710  151.8088 LP  0  0  0  0  0  0  0  0  0  0  0  0  # atno 17343 bound_to 10162
  155.9665  130.4414  150.5338 LP  0  0  0  0  0  0  0  0  0  0  0  0  # atno 17370 bound_to 10713
  157.3231  131.0685  151.1917 LP  0  0  0  0  0  0  0  0  0  0  0  0  # atno 17371 bound_to 10713
  140.3678  134.7632  157.4578 LP  0  0  0  0  0  0  0  0  0  0  0  0  # atno 17394 bound_to 11000
  140.0734  134.5831  155.8617 LP  0  0  0  0  0  0  0  0  0  0  0  0  # atno 17395 bound_to 11000

$$$$
