AV-unprocessed.smi:2056|AV-procd|sdf|8339|dock3
  -GOLD-   2272011 03D 1   1.00000     0.00000
 Structure written by MMmdl.
 33 33  0  0  0  0  0  0  0  0  2 V2000
  150.3858  143.8433  159.2355 C   0  0  0  0  0  0  0  0  0  0  0  0
  151.8127  143.5338  158.7345 C   0  0  0  0  0  0  0  0  0  0  0  0
  152.4954  144.8647  158.3636 C   0  0  0  0  0  0  0  0  0  0  0  0
  152.6186  142.8773  159.8757 C   0  0  0  0  0  0  0  0  0  0  0  0
  151.7877  142.6342  157.4635 C   0  0  0  0  0  0  0  0  0  0  0  0
  151.5435  141.1347  157.7073 C   0  0  0  0  0  0  0  0  0  0  0  0
  150.7701  140.7897  158.6022 O   0  0  0  0  0  0  0  0  0  0  0  0
  152.2624  140.3568  156.8623 N   0  5  0  0  0  0  0  0  0  0  0  0
  151.6292  139.6377  155.9231 C   0  0  0  0  0  0  0  0  0  0  0  0
  150.3737  139.8896  155.5375 N   0  0  0  0  0  0  0  0  0  0  0  0
  149.9106  139.0290  154.5379 C   0  0  0  0  0  0  0  0  0  0  0  0
  148.5152  139.1779  153.9990 C   0  0  0  0  0  0  0  0  0  0  0  0
  148.2275  140.6188  153.5611 C   0  0  0  0  0  0  0  0  0  0  0  0
  147.0105  140.8929  153.0806 N   0  0  0  0  0  0  0  0  0  0  0  0
  149.0911  141.4857  153.6781 O   0  0  0  0  0  0  0  0  0  0  0  0
  150.8428  138.0969  154.1598 C   0  0  0  0  0  0  0  0  0  0  0  0
  152.3338  138.2840  155.0372 S   0  0  0  0  0  0  0  0  0  0  0  0
  150.4019  144.5459  160.0692 H   0  0  0  0  0  0  0  0  0  0  0  0
  149.8736  142.9457  159.5837 H   0  0  0  0  0  0  0  0  0  0  0  0
  149.7762  144.2836  158.4458 H   0  0  0  0  0  0  0  0  0  0  0  0
  151.9542  145.3813  157.5702 H   0  0  0  0  0  0  0  0  0  0  0  0
  153.5157  144.7040  158.0137 H   0  0  0  0  0  0  0  0  0  0  0  0
  152.5452  145.5405  159.2182 H   0  0  0  0  0  0  0  0  0  0  0  0
  152.7179  143.5505  160.7276 H   0  0  0  0  0  0  0  0  0  0  0  0
  153.6244  142.6119  159.5487 H   0  0  0  0  0  0  0  0  0  0  0  0
  152.1399  141.9690  160.2423 H   0  0  0  0  0  0  0  0  0  0  0  0
  151.0439  143.0157  156.7605 H   0  0  0  0  0  0  0  0  0  0  0  0
  152.7414  142.7239  156.9417 H   0  0  0  0  0  0  0  0  0  0  0  0
  148.3610  138.5184  153.1444 H   0  0  0  0  0  0  0  0  0  0  0  0
  147.7849  138.8782  154.7519 H   0  0  0  0  0  0  0  0  0  0  0  0
  146.7791  141.8368  152.8065 H   0  0  0  0  0  0  0  0  0  0  0  0
  146.3196  140.1596  153.0172 H   0  0  0  0  0  0  0  0  0  0  0  0
  150.7457  137.3176  153.4193 H   0  0  0  0  0  0  0  0  0  0  0  0
  1  2  1  0  0  0  0
  1 18  1  0  0  0  0
  1 19  1  0  0  0  0
  1 20  1  0  0  0  0
  2  3  1  0  0  0  0
  2  4  1  0  0  0  0
  2  5  1  0  0  0  0
  3 21  1  0  0  0  0
  3 22  1  0  0  0  0
  3 23  1  0  0  0  0
  4 24  1  0  0  0  0
  4 25  1  0  0  0  0
  4 26  1  0  0  0  0
  5  6  1  0  0  0  0
  5 27  1  0  0  0  0
  5 28  1  0  0  0  0
  6  7  2  0  0  0  0
  6  8  1  0  0  0  0
  8  9  1  0  0  0  0
  9 17  1  0  0  0  0
  9 10  2  0  0  0  0
 10 11  1  0  0  0  0
 11 12  1  0  0  0  0
 11 16  2  0  0  0  0
 12 13  1  0  0  0  0
 12 29  1  0  0  0  0
 12 30  1  0  0  0  0
 13 14  1  0  0  0  0
 13 15  2  0  0  0  0
 14 31  1  0  0  0  0
 14 32  1  0  0  0  0
 16 17  1  0  0  0  0
 16 33  1  0  0  0  0
M  CHG  1   8  -1
M  END
> <s_m_source_file>
AV-unprocessed.smi

> <i_m_source_file_index>
2056

> <i_lp_mmshare_version>
43012

> <i_f3d_flags>
0

> <s_epik_input>
W0NIM11DKFtDSDNdKShbQ0gzXSlbQ0gyXUMoPU8pW05IXWMxbmMoW2NIXXMxKVtDSDJdQyg9TylbTkgyXQ==

> <s_epik_cmdline>
J2VwaWtfcHl0aG9uJywgJy1waCcsICc3LjAnLCAnLXRuJywgJzgnLCAnLW1hJywgJzIwMCcsICctbWV0YWxfYmluZGluZycsICctaW1hZScsICc8aW5maWxlLm1hZT4nLCAnLW9tYWUnLCAnPG91dGZpbGUubWFlPic=

> <r_lp_tautomer_probability>
1

> <r_epik_Ionization_Penalty>
5.16109

> <r_epik_Ionization_Penalty_Charging>
4.76142

> <r_epik_Ionization_Penalty_Neutral>
0.39967

> <r_epik_State_Penalty>
4.76123

> <r_epik_Charging_Adjusted_Penalty>
9.52265

> <i_epik_Tot_Q>
-1

> <i_epik_Tot_abs_Q>
1

> <r_epik_Metal_State_Penalty>
0.964035

> <b_epik_Metal_Only>
1

> <s_lp_Force_Field>
OPLS_2005

> <r_lp_Energy>
1.47772

> <b_lp_Chiralities_Consistent>
1

> <s_lp_Variant>
AV-unprocessed.smi:2056-2

> <Gold.Version>
5.8.1

> <Gold.Id.Protein>
6NUR|6NUR_protein|mol2

> <Gold.PLP.Fitness>
43.2900

> <Gold.PLP.PLP>
-34.4871

> <Gold.PLP.part.hbond>
-2.5043

> <Gold.PLP.part.metal>
0.0000

> <Gold.PLP.part.buried>
-2.5958

> <Gold.PLP.part.nonpolar>
-28.9724

> <Gold.PLP.part.repulsive>
0.5280

> <Gold.PLP.ligand.clash>
0.0000

> <Gold.PLP.ligand.torsion>
1.3412

> <Gold.PLP.Chemscore.Hbond>
2.6709

> <Gold.PLP.Chemscore.CHOScore>
1.1143

> <Gold.PLP.Chemscore.Metal>
0.0000

> <Gold.Chemscore.Hbonds>
donor molecule, donor type, donor heavy atom, donor atom, acceptor molecule, acceptor atom, score
      P1  H  7997  8008       L1     8  1.52
      P1  H  8011  8017       L1    15  0.78
      L1  C    16    33       P1  7948  0.35
      L1  C    16    33       P1  7949  0.77

> <Gold.PLP.Chemscore.Internal.Correction>
0.1295

> <Gold.Rescore>
     Score         DG    S(hbond)    S(metal)    S(lipo)     H(rot)  DE(clash)    DE(int)     intcor
     11.18     -15.29       1.56        0.00      86.48       2.16       1.51       2.61       ----

> <Gold.Chemscore.Fitness>
11.1797

> <Gold.Chemscore.DG>
-15.2918

> <Gold.Chemscore.ZeroCoef>
-5.4800

> <Gold.Chemscore.Hbond>
1.5634

> <Gold.Chemscore.Metal>
0.0000

> <Gold.Chemscore.Lipo>
86.4795

> <Gold.Chemscore.Internal_Hbond>
0.0000

> <Gold.Chemscore.DEClash>
1.5068

> <Gold.Chemscore.DEInternal>
2.6053

> <Gold.Chemscore.Rot>
2.1594

> <Gold.Chemscore.Internal.Correction>
   9.000000E+99

> <Gold.Chemscore.Hbonds>
donor molecule, donor type, donor heavy atom, donor atom, acceptor molecule, acceptor atom, score
      P1  H  7997  8008       L1     8  0.40
      P1  H  8011  8017       L1    15  0.77

> <Gold.Chemscore.Hbond.Weighted>
-5.2218

> <Gold.Chemscore.Metal.Weighted>
-0.0000

> <Gold.Chemscore.Lipo.Weighted>
-10.1181

> <Gold.Chemscore.Internal_Hbond.Weighted>
0.0000

> <Gold.Chemscore.DEClash.Weighted>
1.5068

> <Gold.Chemscore.DEInternal.Weighted>
2.6053

> <Gold.Chemscore.Rot.Weighted>
5.5281

> <Gold.Chemscore.Internal.Correction.Weighted>
   9.000000E+99

> <Gold.Protein.RotatedTorsions>
[ 6907 6896 6895 6894 ] final  -35.81 input  -60.11 | X-H torsion
[ 7974 7965 7964 7962 ] final  -39.15 input  175.53 | X-H torsion
[ 8008 7997 7996 7995 ] final  -50.91 input   59.86 | X-H torsion
[ 10167 10162 10161 10158 ] final  110.87 input  -65.29 | X-H torsion
[ 10718 10713 10712 10709 ] final   14.99 input   66.30 | X-H torsion
[ 10763 10752 10751 10750 ] final -125.15 input  -60.55 | X-H torsion
[ 11005 11000 10999 10996 ] final  -13.54 input  -57.11 | X-H torsion

> <Gold.Protein.ActiveResidues>
 VAL166  LYS551  ARG553  GLY616  TRP617  ASP618  TYR619  PRO620  LYS621  CYS622 
 ASP623  PHE694  ASN695  SER759  ASP760  ASP761  ALA762  ILE779  LEU786  VAL792 
 PHE793  MET794  SER795  GLU796  ALA797  LYS798  CYS799  TRP800  GLU811  SER814 

> <Gold.Protein.RotatedAtoms>
  151.0351  134.9567  159.8131 H   0  0  0  0  0  0  0  0  0  0  0  0  # atno 6907 bound_to 6896
  152.5353  134.2730  159.8989 H   0  0  0  0  0  0  0  0  0  0  0  0  # atno 6908 bound_to 6896
  151.2741  133.4199  159.2657 H   0  0  0  0  0  0  0  0  0  0  0  0  # atno 6909 bound_to 6896
  146.0422  140.6593  142.9082 H   0  0  0  0  0  0  0  0  0  0  0  0  # atno 7974 bound_to 7965
  154.4071  140.1261  156.4743 H   0  0  0  0  0  0  0  0  0  0  0  0  # atno 8008 bound_to 7997
  155.7148  140.3493  155.4970 H   0  0  0  0  0  0  0  0  0  0  0  0  # atno 8009 bound_to 7997
  155.9267  140.1062  157.1154 H   0  0  0  0  0  0  0  0  0  0  0  0  # atno 8010 bound_to 7997
  139.6655  144.7127  151.1785 H   0  0  0  0  0  0  0  0  0  0  0  0  # atno 10167 bound_to 10162
  157.0471  130.6255  149.5761 H   0  0  0  0  0  0  0  0  0  0  0  0  # atno 10718 bound_to 10713
  154.8732  135.4039  154.3221 H   0  0  0  0  0  0  0  0  0  0  0  0  # atno 10763 bound_to 10752
  153.4048  135.7019  153.6406 H   0  0  0  0  0  0  0  0  0  0  0  0  # atno 10764 bound_to 10752
  153.5134  135.3702  155.2568 H   0  0  0  0  0  0  0  0  0  0  0  0  # atno 10765 bound_to 10752
  140.7772  133.8391  155.9259 H   0  0  0  0  0  0  0  0  0  0  0  0  # atno 11005 bound_to 11000
  144.7080  140.3929  143.7103 LP  0  0  0  0  0  0  0  0  0  0  0  0  # atno 17320 bound_to 7965
  145.6865  139.1629  143.2671 LP  0  0  0  0  0  0  0  0  0  0  0  0  # atno 17321 bound_to 7965
  140.7597  143.5926  150.8781 LP  0  0  0  0  0  0  0  0  0  0  0  0  # atno 17342 bound_to 10162
  139.9587  143.6188  152.3008 LP  0  0  0  0  0  0  0  0  0  0  0  0  # atno 17343 bound_to 10162
  156.0019  130.5100  150.7694 LP  0  0  0  0  0  0  0  0  0  0  0  0  # atno 17370 bound_to 10713
  157.5059  131.0922  151.0258 LP  0  0  0  0  0  0  0  0  0  0  0  0  # atno 17371 bound_to 10713
  140.9517  134.1770  157.4722 LP  0  0  0  0  0  0  0  0  0  0  0  0  # atno 17394 bound_to 11000
  139.8747  134.9912  156.5537 LP  0  0  0  0  0  0  0  0  0  0  0  0  # atno 17395 bound_to 11000

$$$$
