AV-unprocessed.smi:538|AV-procd|sdf|2866|dock7
  -GOLD-   2262023353D 1   1.00000     0.00000
 Structure written by MMmdl.
 43 44  0  0  0  0  0  0  0  0  1 V2000
  147.2042  139.4307  152.9787 C   0  0  0  0  0  0  0  0  0  0  0  0
  146.9165  140.7251  153.4773 O   0  0  0  0  0  0  0  0  0  0  0  0
  147.6529  141.0298  154.6505 C   0  0  0  0  0  0  0  0  0  0  0  0
  149.0645  141.4823  154.2565 C   0  0  0  0  0  0  0  0  0  0  0  0
  150.0871  140.8286  155.0526 N   0  0  0  0  0  0  0  0  0  0  0  0
  150.7340  141.1992  156.2249 C   0  0  0  0  0  0  0  0  0  0  0  0
  150.5061  142.3347  156.8886 N   0  0  0  0  0  0  0  0  0  0  0  0
  151.3852  142.2446  157.9589 C   0  0  0  0  0  0  0  0  0  0  0  0
  152.0964  141.0935  157.9089 C   0  0  0  0  0  0  0  0  0  0  0  0
  153.1093  140.7410  158.9090 C   0  0  0  0  0  0  0  0  0  0  0  0
  153.7495  139.6908  158.8354 O   0  0  0  0  0  0  0  0  0  0  0  0
  153.2647  141.6735  159.8997 N   0  0  0  0  0  0  0  0  0  0  0  0
  154.2730  141.3526  160.9271 C   0  0  0  0  0  0  0  0  0  0  0  0
  152.5519  142.8569  159.9997 C   0  0  0  0  0  0  0  0  0  0  0  0
  152.7343  143.6439  160.9322 O   0  0  0  0  0  0  0  0  0  0  0  0
  151.6232  143.1439  159.0303 N   0  0  0  0  0  0  0  0  0  0  0  0
  150.8526  144.3887  159.1001 C   0  0  0  0  0  0  0  0  0  0  0  0
  151.6725  140.3924  156.7792 N   0  0  0  0  0  0  0  0  0  0  0  0
  152.1344  139.0933  156.2984 C   0  0  0  0  0  0  0  0  0  0  0  0
  152.6297  139.1575  154.8470 C   0  0  0  0  0  0  0  0  0  0  0  0
  152.4486  137.8958  154.2251 O   0  0  0  0  0  0  0  0  0  0  0  0
  151.1146  137.4296  154.3192 C   0  0  0  0  0  0  0  0  0  0  0  0
  146.6124  139.2434  152.0828 H   0  0  0  0  0  0  0  0  0  0  0  0
  146.9588  138.6612  153.7118 H   0  0  0  0  0  0  0  0  0  0  0  0
  148.2576  139.3372  152.7114 H   0  0  0  0  0  0  0  0  0  0  0  0
  147.1515  141.8341  155.1906 H   0  0  0  0  0  0  0  0  0  0  0  0
  147.6952  140.1680  155.3187 H   0  0  0  0  0  0  0  0  0  0  0  0
  149.2478  141.2853  153.2001 H   0  0  0  0  0  0  0  0  0  0  0  0
  149.1598  142.5589  154.3996 H   0  0  0  0  0  0  0  0  0  0  0  0
  150.3626  139.9271  154.6906 H   0  0  0  0  0  0  0  0  0  0  0  0
  154.4504  142.1388  161.6612 H   0  0  0  0  0  0  0  0  0  0  0  0
  155.2405  141.1462  160.4661 H   0  0  0  0  0  0  0  0  0  0  0  0
  153.9725  140.4640  161.4846 H   0  0  0  0  0  0  0  0  0  0  0  0
  151.5182  145.2529  159.1162 H   0  0  0  0  0  0  0  0  0  0  0  0
  150.2439  144.4099  160.0052 H   0  0  0  0  0  0  0  0  0  0  0  0
  150.1791  144.5173  158.2524 H   0  0  0  0  0  0  0  0  0  0  0  0
  152.9234  138.7304  156.9561 H   0  0  0  0  0  0  0  0  0  0  0  0
  151.3269  138.3661  156.3846 H   0  0  0  0  0  0  0  0  0  0  0  0
  152.0842  139.9265  154.2979 H   0  0  0  0  0  0  0  0  0  0  0  0
  153.6852  139.4326  154.8299 H   0  0  0  0  0  0  0  0  0  0  0  0
  151.0279  136.4656  153.8181 H   0  0  0  0  0  0  0  0  0  0  0  0
  150.4195  138.1214  153.8416 H   0  0  0  0  0  0  0  0  0  0  0  0
  150.8170  137.2959  155.3600 H   0  0  0  0  0  0  0  0  0  0  0  0
  1  2  1  0  0  0  0
  1 23  1  0  0  0  0
  1 24  1  0  0  0  0
  1 25  1  0  0  0  0
  2  3  1  0  0  0  0
  3  4  1  0  0  0  0
  3 26  1  0  0  0  0
  3 27  1  0  0  0  0
  4  5  1  0  0  0  0
  4 28  1  0  0  0  0
  4 29  1  0  0  0  0
  5  6  1  0  0  0  0
  5 30  1  0  0  0  0
  6 18  1  0  0  0  0
  6  7  2  0  0  0  0
  7  8  1  0  0  0  0
  8 16  1  0  0  0  0
  8  9  2  0  0  0  0
  9 10  1  0  0  0  0
  9 18  1  0  0  0  0
 10 11  2  0  0  0  0
 10 12  1  0  0  0  0
 12 13  1  0  0  0  0
 12 14  1  0  0  0  0
 13 31  1  0  0  0  0
 13 32  1  0  0  0  0
 13 33  1  0  0  0  0
 14 15  2  0  0  0  0
 14 16  1  0  0  0  0
 16 17  1  0  0  0  0
 17 34  1  0  0  0  0
 17 35  1  0  0  0  0
 17 36  1  0  0  0  0
 18 19  1  0  0  0  0
 19 20  1  0  0  0  0
 19 37  1  0  0  0  0
 19 38  1  0  0  0  0
 20 21  1  0  0  0  0
 20 39  1  0  0  0  0
 20 40  1  0  0  0  0
 21 22  1  0  0  0  0
 22 41  1  0  0  0  0
 22 42  1  0  0  0  0
 22 43  1  0  0  0  0
M  END
> <s_m_source_file>
AV-unprocessed.smi

> <i_m_source_file_index>
538

> <i_lp_mmshare_version>
43012

> <i_f3d_flags>
0

> <s_epik_input>
W0NIM11PW0NIMl1bQ0gyXVtOSF1jKG4xKW4oW0NIMl1bQ0gyXU9bQ0gzXSljKGMxMiljKD1PKW4oW0NIM10pYyg9TyluMltDSDNd

> <s_epik_cmdline>
J2VwaWtfcHl0aG9uJywgJy1waCcsICc3LjAnLCAnLXRuJywgJzgnLCAnLW1hJywgJzIwMCcsICctbWV0YWxfYmluZGluZycsICctaW1hZScsICc8aW5maWxlLm1hZT4nLCAnLW9tYWUnLCAnPG91dGZpbGUubWFlPic=

> <r_lp_tautomer_probability>
1

> <r_epik_Ionization_Penalty>
5.57243e-05

> <r_epik_Ionization_Penalty_Charging>
2.44156e-09

> <r_epik_Ionization_Penalty_Neutral>
5.57218e-05

> <r_epik_State_Penalty>
-0

> <r_epik_Charging_Adjusted_Penalty>
2.44156e-09

> <i_epik_Tot_Q>
0

> <i_epik_Tot_abs_Q>
0

> <r_epik_Metal_State_Penalty>
-0

> <b_epik_Metal_Only>
0

> <s_lp_Force_Field>
OPLS_2005

> <r_lp_Energy>
28.2468

> <b_lp_Chiralities_Consistent>
1

> <s_lp_Variant>
AV-unprocessed.smi:538-1

> <Gold.Version>
5.8.1

> <Gold.Id.Protein>
6NUR|6NUR_protein|mol2

> <Gold.PLP.Fitness>
45.4313

> <Gold.PLP.PLP>
-43.5595

> <Gold.PLP.part.hbond>
-2.0000

> <Gold.PLP.part.metal>
0.0000

> <Gold.PLP.part.buried>
-2.9577

> <Gold.PLP.part.nonpolar>
-38.8604

> <Gold.PLP.part.repulsive>
0.7889

> <Gold.PLP.ligand.clash>
0.0000

> <Gold.PLP.ligand.torsion>
0.8216

> <Gold.PLP.Chemscore.Hbond>
1.1605

> <Gold.PLP.Chemscore.CHOScore>
0.0000

> <Gold.PLP.Chemscore.Metal>
0.0000

> <Gold.Chemscore.Hbonds>
donor molecule, donor type, donor heavy atom, donor atom, acceptor molecule, acceptor atom, score
      P1  H  7997  8010       L1    11  1.00
      P1  H 10752 10764       L1    21  0.10

> <Gold.PLP.Chemscore.Internal.Correction>
0.0333

> <Gold.Rescore>
     Score         DG    S(hbond)    S(metal)    S(lipo)     H(rot)  DE(clash)    DE(int)     intcor
      9.18     -10.13       0.67        0.00      70.59       2.28       0.29       0.66       ----

> <Gold.Chemscore.Fitness>
9.1772

> <Gold.Chemscore.DG>
-10.1297

> <Gold.Chemscore.ZeroCoef>
-5.4800

> <Gold.Chemscore.Hbond>
0.6668

> <Gold.Chemscore.Metal>
0.0000

> <Gold.Chemscore.Lipo>
70.5873

> <Gold.Chemscore.Internal_Hbond>
0.0000

> <Gold.Chemscore.DEClash>
0.2882

> <Gold.Chemscore.DEInternal>
0.6642

> <Gold.Chemscore.Rot>
2.2797

> <Gold.Chemscore.Internal.Correction>
   9.000000E+99

> <Gold.Chemscore.Hbonds>
donor molecule, donor type, donor heavy atom, donor atom, acceptor molecule, acceptor atom, score
      P1  H  7997  8010       L1    11  0.29

> <Gold.Chemscore.Hbond.Weighted>
-2.2271

> <Gold.Chemscore.Metal.Weighted>
-0.0000

> <Gold.Chemscore.Lipo.Weighted>
-8.2587

> <Gold.Chemscore.Internal_Hbond.Weighted>
0.0000

> <Gold.Chemscore.DEClash.Weighted>
0.2882

> <Gold.Chemscore.DEInternal.Weighted>
0.6642

> <Gold.Chemscore.Rot.Weighted>
5.8361

> <Gold.Chemscore.Internal.Correction.Weighted>
   9.000000E+99

> <Gold.Protein.RotatedTorsions>
[ 6907 6896 6895 6894 ] final  105.84 input  -60.11 | X-H torsion
[ 7974 7965 7964 7962 ] final   21.60 input  175.53 | X-H torsion
[ 8008 7997 7996 7995 ] final   15.60 input   59.86 | X-H torsion
[ 10167 10162 10161 10158 ] final  -96.24 input  -65.29 | X-H torsion
[ 10718 10713 10712 10709 ] final   33.34 input   66.30 | X-H torsion
[ 10763 10752 10751 10750 ] final -103.89 input  -60.55 | X-H torsion
[ 11005 11000 10999 10996 ] final -104.84 input  -57.11 | X-H torsion

> <Gold.Protein.ActiveResidues>
 VAL166  LYS551  ARG553  GLY616  TRP617  ASP618  TYR619  PRO620  LYS621  CYS622 
 ASP623  PHE694  ASN695  SER759  ASP760  ASP761  ALA762  ILE779  LEU786  VAL792 
 PHE793  MET794  SER795  GLU796  ALA797  LYS798  CYS799  TRP800  GLU811  SER814 

> <Gold.Protein.RotatedAtoms>
  152.5216  133.9469  159.7652 H   0  0  0  0  0  0  0  0  0  0  0  0  # atno 6907 bound_to 6896
  150.9787  133.6259  159.2733 H   0  0  0  0  0  0  0  0  0  0  0  0  # atno 6908 bound_to 6896
  151.3445  135.0876  159.9435 H   0  0  0  0  0  0  0  0  0  0  0  0  # atno 6909 bound_to 6896
  146.2064  139.8003  142.8722 H   0  0  0  0  0  0  0  0  0  0  0  0  # atno 7974 bound_to 7965
  154.8649  140.2950  155.5516 H   0  0  0  0  0  0  0  0  0  0  0  0  # atno 8008 bound_to 7997
  156.3020  140.2471  156.3562 H   0  0  0  0  0  0  0  0  0  0  0  0  # atno 8009 bound_to 7997
  154.8878  140.0395  157.1810 H   0  0  0  0  0  0  0  0  0  0  0  0  # atno 8010 bound_to 7997
  140.2958  143.3193  152.0299 H   0  0  0  0  0  0  0  0  0  0  0  0  # atno 10167 bound_to 10162
  157.2966  130.7329  149.6642 H   0  0  0  0  0  0  0  0  0  0  0  0  # atno 10718 bound_to 10713
  154.7839  135.4807  153.9904 H   0  0  0  0  0  0  0  0  0  0  0  0  # atno 10763 bound_to 10752
  153.1533  135.6795  153.8857 H   0  0  0  0  0  0  0  0  0  0  0  0  # atno 10764 bound_to 10752
  153.8495  135.3169  155.3409 H   0  0  0  0  0  0  0  0  0  0  0  0  # atno 10765 bound_to 10752
  141.1081  133.8757  157.1661 H   0  0  0  0  0  0  0  0  0  0  0  0  # atno 11005 bound_to 11000
  145.3303  141.0265  143.3450 LP  0  0  0  0  0  0  0  0  0  0  0  0  # atno 17320 bound_to 7965
  144.8803  139.4913  143.6726 LP  0  0  0  0  0  0  0  0  0  0  0  0  # atno 17321 bound_to 7965
  139.4927  144.6492  151.6713 LP  0  0  0  0  0  0  0  0  0  0  0  0  # atno 17342 bound_to 10162
  140.5693  144.0136  150.6208 LP  0  0  0  0  0  0  0  0  0  0  0  0  # atno 17343 bound_to 10162
  155.9669  130.4292  150.4824 LP  0  0  0  0  0  0  0  0  0  0  0  0  # atno 17370 bound_to 10713
  157.2797  131.0604  151.2206 LP  0  0  0  0  0  0  0  0  0  0  0  0  # atno 17371 bound_to 10713
  139.9961  135.0046  157.0086 LP  0  0  0  0  0  0  0  0  0  0  0  0  # atno 17394 bound_to 11000
  140.4847  134.1253  155.7222 LP  0  0  0  0  0  0  0  0  0  0  0  0  # atno 17395 bound_to 11000

$$$$
