AV-unprocessed.smi:1957|AV-procd|sdf|7904|dock10
  -GOLD-   2272010 63D 1   1.00000     0.00000
 Structure written by MMmdl.
 42 43  0  0  0  0  0  0  0  0  1 V2000
  151.8454  144.7206  158.1142 C   0  0  0  0  0  0  0  0  0  0  0  0
  152.6713  143.9699  158.9862 O   0  0  0  0  0  0  0  0  0  0  0  0
  152.2045  143.9849  160.3256 C   0  0  0  0  0  0  0  0  0  0  0  0
  152.9274  142.8926  161.1302 C   0  0  0  0  0  0  0  0  0  0  0  0
  153.0390  141.6411  160.3728 N   0  0  0  0  0  0  0  0  0  0  0  0
  152.0623  141.4813  159.4049 N   0  0  0  0  0  0  0  0  0  0  0  0
  152.0554  140.4274  158.6544 C   0  0  0  0  0  0  0  0  0  0  0  0
  151.0259  140.2241  157.5983 C   0  0  0  0  0  0  0  0  0  0  0  0
  150.8337  139.1236  157.0785 O   0  0  0  0  0  0  0  0  0  0  0  0
  150.3309  141.3247  157.2580 N   0  0  0  0  0  0  0  0  0  0  0  0
  149.2534  141.3927  156.2718 C   0  0  2  0  0  0  0  0  0  0  0  0
  147.9646  140.7289  156.8232 C   0  0  0  0  0  0  0  0  0  0  0  0
  146.9833  140.1713  155.7711 C   0  0  0  0  0  0  0  0  0  0  0  0
  146.5322  141.1707  154.6865 C   0  0  0  0  0  0  0  0  0  0  0  0
  147.6513  141.8845  153.8915 C   0  0  0  0  0  0  0  0  0  0  0  0
  148.9126  141.1471  153.8357 N   0  0  0  0  0  0  0  0  0  0  0  0
  149.7137  140.8987  154.8861 C   0  0  0  0  0  0  0  0  0  0  0  0
  150.7699  140.2812  154.7556 O   0  0  0  0  0  0  0  0  0  0  0  0
  153.0628  139.3926  158.8158 C   0  0  0  0  0  0  0  0  0  0  0  0
  154.0104  139.5629  159.7637 C   0  0  0  0  0  0  0  0  0  0  0  0
  154.0454  140.7496  160.6203 C   0  0  0  0  0  0  0  0  0  0  0  0
  154.9044  140.9323  161.4824 O   0  0  0  0  0  0  0  0  0  0  0  0
  152.2430  144.6701  157.1006 H   0  0  0  0  0  0  0  0  0  0  0  0
  151.8107  145.7699  158.4104 H   0  0  0  0  0  0  0  0  0  0  0  0
  150.8283  144.3270  158.0972 H   0  0  0  0  0  0  0  0  0  0  0  0
  152.3643  144.9658  160.7762 H   0  0  0  0  0  0  0  0  0  0  0  0
  151.1306  143.7944  160.3380 H   0  0  0  0  0  0  0  0  0  0  0  0
  153.9200  143.2438  161.4173 H   0  0  0  0  0  0  0  0  0  0  0  0
  152.3997  142.7216  162.0702 H   0  0  0  0  0  0  0  0  0  0  0  0
  150.5522  142.1858  157.7381 H   0  0  0  0  0  0  0  0  0  0  0  0
  149.0405  142.4540  156.1364 H   0  0  0  0  0  0  0  0  0  0  0  0
  148.2377  139.9038  157.4825 H   0  0  0  0  0  0  0  0  0  0  0  0
  147.4418  141.4471  157.4559 H   0  0  0  0  0  0  0  0  0  0  0  0
  147.4251  139.2962  155.2927 H   0  0  0  0  0  0  0  0  0  0  0  0
  146.0995  139.7932  156.2857 H   0  0  0  0  0  0  0  0  0  0  0  0
  145.9039  140.6261  153.9806 H   0  0  0  0  0  0  0  0  0  0  0  0
  145.8820  141.9239  155.1325 H   0  0  0  0  0  0  0  0  0  0  0  0
  147.3134  142.0654  152.8708 H   0  0  0  0  0  0  0  0  0  0  0  0
  147.8345  142.8741  154.3113 H   0  0  0  0  0  0  0  0  0  0  0  0
  149.2069  140.8126  152.9295 H   0  0  0  0  0  0  0  0  0  0  0  0
  153.0611  138.5069  158.1971 H   0  0  0  0  0  0  0  0  0  0  0  0
  154.7659  138.8021  159.8947 H   0  0  0  0  0  0  0  0  0  0  0  0
  1  2  1  0  0  0  0
  1 23  1  0  0  0  0
  1 24  1  0  0  0  0
  1 25  1  0  0  0  0
  2  3  1  0  0  0  0
  3  4  1  0  0  0  0
  3 26  1  0  0  0  0
  3 27  1  0  0  0  0
  4  5  1  0  0  0  0
  4 28  1  0  0  0  0
  4 29  1  0  0  0  0
  5 21  1  0  0  0  0
  5  6  1  0  0  0  0
  6  7  2  0  0  0  0
  7  8  1  0  0  0  0
  7 19  1  0  0  0  0
  8  9  2  0  0  0  0
  8 10  1  0  0  0  0
 10 11  1  0  0  0  0
 10 30  1  0  0  0  0
 11 17  1  0  0  0  0
 11 12  1  0  0  0  0
 11 31  1  0  0  0  0
 12 13  1  0  0  0  0
 12 32  1  0  0  0  0
 12 33  1  0  0  0  0
 13 14  1  0  0  0  0
 13 34  1  0  0  0  0
 13 35  1  0  0  0  0
 14 15  1  0  0  0  0
 14 36  1  0  0  0  0
 14 37  1  0  0  0  0
 15 16  1  0  0  0  0
 15 38  1  0  0  0  0
 15 39  1  0  0  0  0
 16 17  1  0  0  0  0
 16 40  1  0  0  0  0
 17 18  2  0  0  0  0
 19 20  2  0  0  0  0
 19 41  1  0  0  0  0
 20 21  1  0  0  0  0
 20 42  1  0  0  0  0
 21 22  2  0  0  0  0
M  END
> <s_m_source_file>
AV-unprocessed.smi

> <i_m_source_file_index>
1957

> <i_lp_mmshare_version>
43012

> <i_f3d_flags>
0

> <s_epik_input>
W0NIM11PW0NIMl1bQ0gyXW4xbmMoW2NIXVtjSF1jMT1PKUMoPU8pW05IXVtDQEBIXTJbQ0gyXVtDSDJdW0NIMl1bQ0gyXVtOSF1DMj1P

> <s_epik_cmdline>
J2VwaWtfcHl0aG9uJywgJy1waCcsICc3LjAnLCAnLXRuJywgJzgnLCAnLW1hJywgJzIwMCcsICctbWV0YWxfYmluZGluZycsICctaW1hZScsICc8aW5maWxlLm1hZT4nLCAnLW9tYWUnLCAnPG91dGZpbGUubWFlPic=

> <r_lp_tautomer_probability>
1

> <r_epik_Ionization_Penalty>
2.17512e-06

> <r_epik_Ionization_Penalty_Charging>
5.0222e-09

> <r_epik_Ionization_Penalty_Neutral>
2.1701e-06

> <r_epik_State_Penalty>
-0

> <r_epik_Charging_Adjusted_Penalty>
5.0222e-09

> <i_epik_Tot_Q>
0

> <i_epik_Tot_abs_Q>
0

> <r_epik_Metal_State_Penalty>
-0

> <b_epik_Metal_Only>
0

> <s_lp_Force_Field>
OPLS_2005

> <r_lp_Energy>
35.215

> <b_lp_Chiralities_Consistent>
1

> <s_lp_Variant>
AV-unprocessed.smi:1957-1

> <Gold.Version>
5.8.1

> <Gold.Id.Protein>
6NUR|6NUR_protein|mol2

> <Gold.PLP.Fitness>
46.4835

> <Gold.PLP.PLP>
-41.7533

> <Gold.PLP.part.hbond>
-3.0000

> <Gold.PLP.part.metal>
0.0000

> <Gold.PLP.part.buried>
-8.2608

> <Gold.PLP.part.nonpolar>
-30.4127

> <Gold.PLP.part.repulsive>
0.6241

> <Gold.PLP.ligand.clash>
0.0000

> <Gold.PLP.ligand.torsion>
0.6687

> <Gold.PLP.Chemscore.Hbond>
2.0000

> <Gold.PLP.Chemscore.CHOScore>
0.0000

> <Gold.PLP.Chemscore.Metal>
0.0000

> <Gold.Chemscore.Hbonds>
donor molecule, donor type, donor heavy atom, donor atom, acceptor molecule, acceptor atom, score
      L1  H    16    40       P1  7957  1.00
      P1  H  7989  7998       L1    18  1.00

> <Gold.PLP.Chemscore.Internal.Correction>
0.0677

> <Gold.Rescore>
     Score         DG    S(hbond)    S(metal)    S(lipo)     H(rot)  DE(clash)    DE(int)     intcor
     11.49     -15.95       1.96        0.00      72.45       1.78       0.01       4.45       ----

> <Gold.Chemscore.Fitness>
11.4921

> <Gold.Chemscore.DG>
-15.9468

> <Gold.Chemscore.ZeroCoef>
-5.4800

> <Gold.Chemscore.Hbond>
1.9593

> <Gold.Chemscore.Metal>
0.0000

> <Gold.Chemscore.Lipo>
72.4542

> <Gold.Chemscore.Internal_Hbond>
0.0000

> <Gold.Chemscore.DEClash>
0.0060

> <Gold.Chemscore.DEInternal>
4.4487

> <Gold.Chemscore.Rot>
1.7791

> <Gold.Chemscore.Internal.Correction>
   9.000000E+99

> <Gold.Chemscore.Hbonds>
donor molecule, donor type, donor heavy atom, donor atom, acceptor molecule, acceptor atom, score
      L1  H    16    40       P1  7957  0.98
      P1  H  7989  7998       L1    18  0.74

> <Gold.Chemscore.Hbond.Weighted>
-6.5441

> <Gold.Chemscore.Metal.Weighted>
-0.0000

> <Gold.Chemscore.Lipo.Weighted>
-8.4771

> <Gold.Chemscore.Internal_Hbond.Weighted>
0.0000

> <Gold.Chemscore.DEClash.Weighted>
0.0060

> <Gold.Chemscore.DEInternal.Weighted>
4.4487

> <Gold.Chemscore.Rot.Weighted>
4.5544

> <Gold.Chemscore.Internal.Correction.Weighted>
   9.000000E+99

> <Gold.Protein.RotatedTorsions>
[ 6907 6896 6895 6894 ] final  -79.79 input  -60.11 | X-H torsion
[ 7974 7965 7964 7962 ] final   87.85 input  175.53 | X-H torsion
[ 8008 7997 7996 7995 ] final -177.22 input   59.86 | X-H torsion
[ 10167 10162 10161 10158 ] final -115.91 input  -65.29 | X-H torsion
[ 10718 10713 10712 10709 ] final  161.24 input   66.30 | X-H torsion
[ 10763 10752 10751 10750 ] final -110.06 input  -60.55 | X-H torsion
[ 11005 11000 10999 10996 ] final  -12.53 input  -57.11 | X-H torsion

> <Gold.Protein.ActiveResidues>
 VAL166  LYS551  ARG553  GLY616  TRP617  ASP618  TYR619  PRO620  LYS621  CYS622 
 ASP623  PHE694  ASN695  SER759  ASP760  ASP761  ALA762  ILE779  LEU786  VAL792 
 PHE793  MET794  SER795  GLU796  ALA797  LYS798  CYS799  TRP800  GLU811  SER814 

> <Gold.Protein.RotatedAtoms>
  150.6942  134.4068  159.5143 H   0  0  0  0  0  0  0  0  0  0  0  0  # atno 6907 bound_to 6896
  152.1833  134.8733  160.0533 H   0  0  0  0  0  0  0  0  0  0  0  0  # atno 6908 bound_to 6896
  151.9715  133.3693  159.4110 H   0  0  0  0  0  0  0  0  0  0  0  0  # atno 6909 bound_to 6896
  145.5536  139.2297  143.2499 H   0  0  0  0  0  0  0  0  0  0  0  0  # atno 7974 bound_to 7965
  156.0043  140.1227  157.0517 H   0  0  0  0  0  0  0  0  0  0  0  0  # atno 8008 bound_to 7997
  154.4253  140.1100  156.5810 H   0  0  0  0  0  0  0  0  0  0  0  0  # atno 8009 bound_to 7997
  155.6169  140.3472  155.4642 H   0  0  0  0  0  0  0  0  0  0  0  0  # atno 8010 bound_to 7997
  140.0849  143.4753  152.1904 H   0  0  0  0  0  0  0  0  0  0  0  0  # atno 10167 bound_to 10162
  157.1393  131.0536  151.2334 H   0  0  0  0  0  0  0  0  0  0  0  0  # atno 10718 bound_to 10713
  154.8228  135.4578  154.0828 H   0  0  0  0  0  0  0  0  0  0  0  0  # atno 10763 bound_to 10752
  153.2168  135.6889  153.8054 H   0  0  0  0  0  0  0  0  0  0  0  0  # atno 10764 bound_to 10752
  153.7486  135.3301  155.3294 H   0  0  0  0  0  0  0  0  0  0  0  0  # atno 10765 bound_to 10752
  140.7667  133.8471  155.9171 H   0  0  0  0  0  0  0  0  0  0  0  0  # atno 11005 bound_to 11000
  146.1900  140.6359  142.9150 LP  0  0  0  0  0  0  0  0  0  0  0  0  # atno 17320 bound_to 7965
  144.7517  140.5208  143.6797 LP  0  0  0  0  0  0  0  0  0  0  0  0  # atno 17321 bound_to 7965
  139.5758  144.7486  151.3769 LP  0  0  0  0  0  0  0  0  0  0  0  0  # atno 17342 bound_to 10162
  140.7059  143.7516  150.7480 LP  0  0  0  0  0  0  0  0  0  0  0  0  # atno 17343 bound_to 10162
  157.4322  130.7497  149.6999 LP  0  0  0  0  0  0  0  0  0  0  0  0  # atno 17370 bound_to 10713
  155.9792  130.4043  150.3603 LP  0  0  0  0  0  0  0  0  0  0  0  0  # atno 17371 bound_to 10713
  140.9612  134.1653  157.4652 LP  0  0  0  0  0  0  0  0  0  0  0  0  # atno 17394 bound_to 11000
  139.8762  134.9945  156.5698 LP  0  0  0  0  0  0  0  0  0  0  0  0  # atno 17395 bound_to 11000

$$$$
