AV-unprocessed.smi:2532|AV-procd|sdf|9970|dock9
  -GOLD-   2272014 13D 1   1.00000     0.00000
 Structure written by MMmdl.
 37 39  0  0  0  0  0  0  0  0  2 V2000
  144.3376  137.8582  151.9761 O   0  0  0  0  0  0  0  0  0  0  0  0
  145.5632  137.3186  152.4294 C   0  0  2  0  0  0  0  0  0  0  0  0
  146.5113  138.4824  152.7568 C   0  0  0  0  0  0  0  0  0  0  0  0
  146.1021  139.0798  153.9756 O   0  0  0  0  0  0  0  0  0  0  0  0
  146.9089  138.6913  155.0762 C   0  0  0  0  0  0  0  0  0  0  0  0
  148.0799  139.6208  155.1465 C   0  0  0  0  0  0  0  0  0  0  0  0
  149.4052  139.2675  155.1768 C   0  0  0  0  0  0  0  0  0  0  0  0
  150.2875  140.3865  155.2292 C   0  0  0  0  0  0  0  0  0  0  0  0
  149.6255  141.5851  155.2323 C   0  0  0  0  0  0  0  0  0  0  0  0
  147.8989  141.3614  155.1683 S   0  0  0  0  0  0  0  0  0  0  0  0
  146.1453  136.3923  151.3432 C   0  0  0  0  0  0  0  0  0  0  0  0
  145.2064  135.3416  150.9231 N   0  0  0  0  0  0  0  0  0  0  0  0
  144.0516  135.4461  150.2109 C   0  0  0  0  0  0  0  0  0  0  0  0
  143.5342  134.1935  150.0784 N   0  3  0  0  0  0  0  0  0  0  0  0
  144.3710  133.2736  150.7136 C   0  0  0  0  0  0  0  0  0  0  0  0
  144.2688  131.8924  150.8487 C   0  0  0  0  0  0  0  0  0  0  0  0
  145.3026  131.2478  151.5593 C   0  0  0  0  0  0  0  0  0  0  0  0
  146.3834  131.9727  152.1019 C   0  0  0  0  0  0  0  0  0  0  0  0
  146.4760  133.3729  151.9597 C   0  0  0  0  0  0  0  0  0  0  0  0
  145.4491  134.0038  151.2577 C   0  0  0  0  0  0  0  0  0  0  0  0
  144.2116  138.6985  152.3908 H   0  0  0  0  0  0  0  0  0  0  0  0
  145.3787  136.7330  153.3312 H   0  0  0  0  0  0  0  0  0  0  0  0
  147.5268  138.1043  152.8858 H   0  0  0  0  0  0  0  0  0  0  0  0
  146.5384  139.2108  151.9442 H   0  0  0  0  0  0  0  0  0  0  0  0
  146.3347  138.7388  156.0025 H   0  0  0  0  0  0  0  0  0  0  0  0
  147.2567  137.6652  154.9494 H   0  0  0  0  0  0  0  0  0  0  0  0
  149.7693  138.2508  155.1639 H   0  0  0  0  0  0  0  0  0  0  0  0
  151.3613  140.2747  155.2605 H   0  0  0  0  0  0  0  0  0  0  0  0
  150.0435  142.5804  155.2652 H   0  0  0  0  0  0  0  0  0  0  0  0
  146.4703  136.9586  150.4702 H   0  0  0  0  0  0  0  0  0  0  0  0
  147.0334  135.8877  151.7255 H   0  0  0  0  0  0  0  0  0  0  0  0
  143.6226  136.3582  149.8219 H   0  0  0  0  0  0  0  0  0  0  0  0
  143.4432  131.3343  150.4320 H   0  0  0  0  0  0  0  0  0  0  0  0
  145.2666  130.1759  151.6893 H   0  0  0  0  0  0  0  0  0  0  0  0
  147.1591  131.4441  152.6369 H   0  0  0  0  0  0  0  0  0  0  0  0
  147.3120  133.9166  152.3740 H   0  0  0  0  0  0  0  0  0  0  0  0
  142.6733  133.9847  149.5891 H   0  0  0  0  0  0  0  0  0  0  0  0
  1  2  1  0  0  0  0
  1 21  1  0  0  0  0
  2  3  1  0  0  0  0
  2 11  1  0  0  0  0
  2 22  1  0  0  0  0
  3  4  1  0  0  0  0
  3 23  1  0  0  0  0
  3 24  1  0  0  0  0
  4  5  1  0  0  0  0
  5  6  1  0  0  0  0
  5 25  1  0  0  0  0
  5 26  1  0  0  0  0
  6 10  1  0  0  0  0
  6  7  2  0  0  0  0
  7  8  1  0  0  0  0
  7 27  1  0  0  0  0
  8  9  2  0  0  0  0
  8 28  1  0  0  0  0
  9 10  1  0  0  0  0
  9 29  1  0  0  0  0
 11 12  1  0  0  0  0
 11 30  1  0  0  0  0
 11 31  1  0  0  0  0
 12 20  1  0  0  0  0
 12 13  1  0  0  0  0
 13 14  2  0  0  0  0
 13 32  1  0  0  0  0
 14 15  1  0  0  0  0
 14 37  1  0  0  0  0
 15 20  2  0  0  0  0
 15 16  1  0  0  0  0
 16 17  2  0  0  0  0
 16 33  1  0  0  0  0
 17 18  1  0  0  0  0
 17 34  1  0  0  0  0
 18 19  2  0  0  0  0
 18 35  1  0  0  0  0
 19 20  1  0  0  0  0
 19 36  1  0  0  0  0
M  CHG  1  14   1
M  END
> <s_m_source_file>
AV-unprocessed.smi

> <i_m_source_file_index>
2532

> <i_lp_mmshare_version>
43012

> <i_f3d_flags>
0

> <s_epik_input>
W2NIXTFbY0hdW2NIXVtjSF1jKGMxMiluKFtjSF1uMilbQ0gyXVtDQEhdKFtPSF0pW0NIMl1PW0NIMl1jM1tjSF1bY0hdW2NIXXMz

> <s_epik_cmdline>
J2VwaWtfcHl0aG9uJywgJy1waCcsICc3LjAnLCAnLXRuJywgJzgnLCAnLW1hJywgJzIwMCcsICctbWV0YWxfYmluZGluZycsICctaW1hZScsICc8aW5maWxlLm1hZT4nLCAnLW9tYWUnLCAnPG91dGZpbGUubWFlPic=

> <r_epik_Ionization_Penalty>
1.31758

> <r_epik_Ionization_Penalty_Charging>
1.31758

> <r_epik_Ionization_Penalty_Neutral>
1.26231e-06

> <r_epik_State_Penalty>
1.39289

> <r_epik_Charging_Adjusted_Penalty>
2.71047

> <i_epik_Tot_Q>
1

> <i_epik_Tot_abs_Q>
1

> <r_epik_Metal_State_Penalty>
5.42637

> <b_epik_Metal_Only>
0

> <s_lp_Force_Field>
OPLS_2005

> <r_lp_Energy>
15.3098

> <b_lp_Chiralities_Consistent>
1

> <s_lp_Variant>
AV-unprocessed.smi:2532-3

> <Gold.Version>
5.8.1

> <Gold.Id.Protein>
6NUR|6NUR_protein|mol2

> <Gold.PLP.Fitness>
47.1106

> <Gold.PLP.PLP>
-34.5188

> <Gold.PLP.part.hbond>
-2.5305

> <Gold.PLP.part.metal>
0.0000

> <Gold.PLP.part.buried>
-1.5863

> <Gold.PLP.part.nonpolar>
-31.1970

> <Gold.PLP.part.repulsive>
0.1793

> <Gold.PLP.ligand.clash>
0.0000

> <Gold.PLP.ligand.torsion>
0.7152

> <Gold.PLP.Chemscore.Hbond>
2.6960

> <Gold.PLP.Chemscore.CHOScore>
1.9549

> <Gold.PLP.Chemscore.Metal>
0.0000

> <Gold.Chemscore.Hbonds>
donor molecule, donor type, donor heavy atom, donor atom, acceptor molecule, acceptor atom, score
      L1  H     1    21       P1 10175  1.00
      L1  H    14    37       P1 10186  1.66
      L1  C     9    29       P1  8028  0.98
      L1  C    13    32       P1 10171  1.00

> <Gold.PLP.Chemscore.Internal.Correction>
0.0695

> <Gold.Rescore>
     Score         DG    S(hbond)    S(metal)    S(lipo)     H(rot)  DE(clash)    DE(int)     intcor
     13.67     -16.45       1.71        0.00      98.80       2.46       0.95       1.83       ----

> <Gold.Chemscore.Fitness>
13.6664

> <Gold.Chemscore.DG>
-16.4502

> <Gold.Chemscore.ZeroCoef>
-5.4800

> <Gold.Chemscore.Hbond>
1.7098

> <Gold.Chemscore.Metal>
0.0000

> <Gold.Chemscore.Lipo>
98.7955

> <Gold.Chemscore.Internal_Hbond>
0.0000

> <Gold.Chemscore.DEClash>
0.9524

> <Gold.Chemscore.DEInternal>
1.8313

> <Gold.Chemscore.Rot>
2.4608

> <Gold.Chemscore.Internal.Correction>
   9.000000E+99

> <Gold.Chemscore.Hbonds>
donor molecule, donor type, donor heavy atom, donor atom, acceptor molecule, acceptor atom, score
      L1  H     1    21       P1 10175  0.98
      L1  H    14    37       P1 10186  0.81

> <Gold.Chemscore.Hbond.Weighted>
-5.7107

> <Gold.Chemscore.Metal.Weighted>
-0.0000

> <Gold.Chemscore.Lipo.Weighted>
-11.5591

> <Gold.Chemscore.Internal_Hbond.Weighted>
0.0000

> <Gold.Chemscore.DEClash.Weighted>
0.9524

> <Gold.Chemscore.DEInternal.Weighted>
1.8313

> <Gold.Chemscore.Rot.Weighted>
6.2996

> <Gold.Chemscore.Internal.Correction.Weighted>
   9.000000E+99

> <Gold.Protein.RotatedTorsions>
[ 6907 6896 6895 6894 ] final  159.61 input  -60.11 | X-H torsion
[ 7974 7965 7964 7962 ] final  -45.21 input  175.53 | X-H torsion
[ 8008 7997 7996 7995 ] final   30.02 input   59.86 | X-H torsion
[ 10167 10162 10161 10158 ] final  160.71 input  -65.29 | X-H torsion
[ 10718 10713 10712 10709 ] final  106.40 input   66.30 | X-H torsion
[ 10763 10752 10751 10750 ] final -176.61 input  -60.55 | X-H torsion
[ 11005 11000 10999 10996 ] final   46.10 input  -57.11 | X-H torsion

> <Gold.Protein.ActiveResidues>
 VAL166  LYS551  ARG553  GLY616  TRP617  ASP618  TYR619  PRO620  LYS621  CYS622 
 ASP623  PHE694  ASN695  SER759  ASP760  ASP761  ALA762  ILE779  LEU786  VAL792 
 PHE793  MET794  SER795  GLU796  ALA797  LYS798  CYS799  TRP800  GLU811  SER814 

> <Gold.Protein.RotatedAtoms>
  151.9830  133.3764  159.4114 H   0  0  0  0  0  0  0  0  0  0  0  0  # atno 6907 bound_to 6896
  150.6932  134.4018  159.5132 H   0  0  0  0  0  0  0  0  0  0  0  0  # atno 6908 bound_to 6896
  152.1740  134.8810  160.0582 H   0  0  0  0  0  0  0  0  0  0  0  0  # atno 6909 bound_to 6896
  145.9843  140.7249  142.9348 H   0  0  0  0  0  0  0  0  0  0  0  0  # atno 7974 bound_to 7965
  155.0837  140.3213  155.4594 H   0  0  0  0  0  0  0  0  0  0  0  0  # atno 8008 bound_to 7997
  156.2760  140.2090  156.5911 H   0  0  0  0  0  0  0  0  0  0  0  0  # atno 8009 bound_to 7997
  154.6958  140.0512  157.0396 H   0  0  0  0  0  0  0  0  0  0  0  0  # atno 8010 bound_to 7997
  139.4842  144.4607  151.8708 H   0  0  0  0  0  0  0  0  0  0  0  0  # atno 10167 bound_to 10162
  157.6669  131.0850  150.6001 H   0  0  0  0  0  0  0  0  0  0  0  0  # atno 10718 bound_to 10713
  154.5702  135.2827  155.0834 H   0  0  0  0  0  0  0  0  0  0  0  0  # atno 10763 bound_to 10752
  154.2209  135.6391  153.5148 H   0  0  0  0  0  0  0  0  0  0  0  0  # atno 10764 bound_to 10752
  153.0055  135.5514  154.6324 H   0  0  0  0  0  0  0  0  0  0  0  0  # atno 10765 bound_to 10752
  140.1399  134.4596  155.8457 H   0  0  0  0  0  0  0  0  0  0  0  0  # atno 11005 bound_to 11000
  144.6870  140.2962  143.7270 LP  0  0  0  0  0  0  0  0  0  0  0  0  # atno 17320 bound_to 7965
  145.7723  139.1861  143.2205 LP  0  0  0  0  0  0  0  0  0  0  0  0  # atno 17321 bound_to 7965
  140.4069  144.2420  150.5890 LP  0  0  0  0  0  0  0  0  0  0  0  0  # atno 17342 bound_to 10162
  140.5003  143.2320  151.8688 LP  0  0  0  0  0  0  0  0  0  0  0  0  # atno 17343 bound_to 10162
  156.6301  130.4430  149.5790 LP  0  0  0  0  0  0  0  0  0  0  0  0  # atno 17370 bound_to 10713
  156.2288  130.6782  151.1443 LP  0  0  0  0  0  0  0  0  0  0  0  0  # atno 17371 bound_to 10713
  141.2184  133.6829  156.7227 LP  0  0  0  0  0  0  0  0  0  0  0  0  # atno 17394 bound_to 11000
  140.2735  134.8373  157.3869 LP  0  0  0  0  0  0  0  0  0  0  0  0  # atno 17395 bound_to 11000

$$$$
