AV-unprocessed.smi:2481|AV-procd|sdf|9774|dock1
  -GOLD-   2272013413D 1   1.00000     0.00000
 Structure written by MMmdl.
 37 38  0  0  0  0  0  0  0  0  1 V2000
  147.6012  145.3863  160.7368 C   0  0  0  0  0  0  0  0  0  0  0  0
  146.8096  144.1732  160.6692 N   0  0  0  0  0  0  0  0  0  0  0  0
  145.8818  143.8929  161.6144 N   0  0  0  0  0  0  0  0  0  0  0  0
  145.3852  142.7266  161.2013 C   0  0  0  0  0  0  0  0  0  0  0  0
  145.9211  142.2209  160.0511 N   0  0  0  0  0  0  0  0  0  0  0  0
  146.8017  143.1784  159.7771 C   0  0  0  0  0  0  0  0  0  0  0  0
  147.6842  143.2120  158.6645 N   0  0  0  0  0  0  0  0  0  0  0  0
  148.2698  142.1733  158.0453 C   0  0  0  0  0  0  0  0  0  0  0  0
  148.1204  140.9893  158.3482 O   0  0  0  0  0  0  0  0  0  0  0  0
  149.0499  142.5891  157.0371 N   0  0  0  0  0  0  0  0  0  0  0  0
  149.8345  141.7242  156.1575 C   0  0  1  0  0  0  0  0  0  0  0  0
  150.7776  140.8523  157.0135 C   0  0  0  0  0  0  0  0  0  0  0  0
  151.5826  139.8682  156.1544 C   0  0  0  0  0  0  0  0  0  0  0  0
  150.6499  138.9940  155.3076 C   0  0  0  0  0  0  0  0  0  0  0  0
  149.7294  139.8590  154.4347 C   0  0  0  0  0  0  0  0  0  0  0  0
  148.8990  140.8570  155.2742 C   0  0  2  0  0  0  0  0  0  0  0  0
  147.9879  141.7181  154.3704 C   0  0  0  0  0  0  0  0  0  0  0  0
  147.1634  142.5634  155.1455 O   0  0  0  0  0  0  0  0  0  0  0  0
  148.6608  145.1384  160.6680 H   0  0  0  0  0  0  0  0  0  0  0  0
  147.4220  145.9095  161.6771 H   0  0  0  0  0  0  0  0  0  0  0  0
  147.3336  146.0432  159.9086 H   0  0  0  0  0  0  0  0  0  0  0  0
  144.6053  142.2200  161.7507 H   0  0  0  0  0  0  0  0  0  0  0  0
  147.8931  144.1303  158.3019 H   0  0  0  0  0  0  0  0  0  0  0  0
  149.1085  143.5815  156.8615 H   0  0  0  0  0  0  0  0  0  0  0  0
  150.4424  142.3426  155.4938 H   0  0  0  0  0  0  0  0  0  0  0  0
  151.4638  141.4846  157.5782 H   0  0  0  0  0  0  0  0  0  0  0  0
  150.1971  140.2945  157.7499 H   0  0  0  0  0  0  0  0  0  0  0  0
  152.2622  140.4196  155.5032 H   0  0  0  0  0  0  0  0  0  0  0  0
  152.2049  139.2398  156.7922 H   0  0  0  0  0  0  0  0  0  0  0  0
  151.2376  138.3247  154.6786 H   0  0  0  0  0  0  0  0  0  0  0  0
  150.0482  138.3587  155.9588 H   0  0  0  0  0  0  0  0  0  0  0  0
  150.3307  140.4036  153.7055 H   0  0  0  0  0  0  0  0  0  0  0  0
  149.0700  139.2069  153.8611 H   0  0  0  0  0  0  0  0  0  0  0  0
  148.2574  140.2787  155.9416 H   0  0  0  0  0  0  0  0  0  0  0  0
  148.5738  142.3550  153.7080 H   0  0  0  0  0  0  0  0  0  0  0  0
  147.3644  141.0873  153.7358 H   0  0  0  0  0  0  0  0  0  0  0  0
  147.6533  143.3406  155.3670 H   0  0  0  0  0  0  0  0  0  0  0  0
  1  2  1  0  0  0  0
  1 19  1  0  0  0  0
  1 20  1  0  0  0  0
  1 21  1  0  0  0  0
  2  6  1  0  0  0  0
  2  3  1  0  0  0  0
  3  4  2  0  0  0  0
  4  5  1  0  0  0  0
  4 22  1  0  0  0  0
  5  6  2  0  0  0  0
  6  7  1  0  0  0  0
  7  8  1  0  0  0  0
  7 23  1  0  0  0  0
  8  9  2  0  0  0  0
  8 10  1  0  0  0  0
 10 11  1  0  0  0  0
 10 24  1  0  0  0  0
 11 16  1  0  0  0  0
 11 12  1  0  0  0  0
 11 25  1  0  0  0  0
 12 13  1  0  0  0  0
 12 26  1  0  0  0  0
 12 27  1  0  0  0  0
 13 14  1  0  0  0  0
 13 28  1  0  0  0  0
 13 29  1  0  0  0  0
 14 15  1  0  0  0  0
 14 30  1  0  0  0  0
 14 31  1  0  0  0  0
 15 16  1  0  0  0  0
 15 32  1  0  0  0  0
 15 33  1  0  0  0  0
 16 17  1  0  0  0  0
 16 34  1  0  0  0  0
 17 18  1  0  0  0  0
 17 35  1  0  0  0  0
 17 36  1  0  0  0  0
 18 37  1  0  0  0  0
M  END
> <s_m_source_file>
AV-unprocessed.smi

> <i_m_source_file_index>
2481

> <i_lp_mmshare_version>
43012

> <i_f3d_flags>
0

> <s_epik_input>
W0NIM11uMW5bY0hdbmMxW05IXUMoPU8pW05IXVtDQEBIXTJbQ0gyXVtDSDJdW0NIMl1bQ0gyXVtDQEhdMltDSDJdW09IXQ==

> <s_epik_cmdline>
J2VwaWtfcHl0aG9uJywgJy1waCcsICc3LjAnLCAnLXRuJywgJzgnLCAnLW1hJywgJzIwMCcsICctbWV0YWxfYmluZGluZycsICctaW1hZScsICc8aW5maWxlLm1hZT4nLCAnLW9tYWUnLCAnPG91dGZpbGUubWFlPic=

> <r_lp_tautomer_probability>
1

> <r_epik_Ionization_Penalty>
2.32704e-05

> <r_epik_Ionization_Penalty_Charging>
0

> <r_epik_Ionization_Penalty_Neutral>
2.32704e-05

> <r_epik_State_Penalty>
-0

> <r_epik_Charging_Adjusted_Penalty>
0

> <i_epik_Tot_Q>
0

> <i_epik_Tot_abs_Q>
0

> <r_epik_Metal_State_Penalty>
-0

> <b_epik_Metal_Only>
0

> <s_lp_Force_Field>
OPLS_2005

> <r_lp_Energy>
12.9645

> <b_lp_Chiralities_Consistent>
1

> <s_lp_Variant>
AV-unprocessed.smi:2481-4

> <Gold.Version>
5.8.1

> <Gold.Id.Protein>
6NUR|6NUR_protein|mol2

> <Gold.PLP.Fitness>
42.8510

> <Gold.PLP.PLP>
-31.8623

> <Gold.PLP.part.hbond>
-4.8924

> <Gold.PLP.part.metal>
0.0000

> <Gold.PLP.part.buried>
-4.8324

> <Gold.PLP.part.nonpolar>
-22.9638

> <Gold.PLP.part.repulsive>
0.2012

> <Gold.PLP.ligand.clash>
0.0000

> <Gold.PLP.ligand.torsion>
0.2566

> <Gold.PLP.Chemscore.Hbond>
3.8300

> <Gold.PLP.Chemscore.CHOScore>
0.0000

> <Gold.PLP.Chemscore.Metal>
0.0000

> <Gold.Chemscore.Hbonds>
donor molecule, donor type, donor heavy atom, donor atom, acceptor molecule, acceptor atom, score
      L1  H     7    23       P1  8029  0.88
      L1  H    10    24       P1  8028  0.86
      L1  H    18    37       P1  8028  1.00
      P1  H  6934  6946       L1     5  1.00

> <Gold.PLP.Chemscore.Internal.Correction>
0.0120

> <Gold.Rescore>
     Score         DG    S(hbond)    S(metal)    S(lipo)     H(rot)  DE(clash)    DE(int)     intcor
     11.31     -15.84       2.93        0.00      48.37       1.99       0.21       4.32       ----

> <Gold.Chemscore.Fitness>
11.3085

> <Gold.Chemscore.DG>
-15.8362

> <Gold.Chemscore.ZeroCoef>
-5.4800

> <Gold.Chemscore.Hbond>
2.9299

> <Gold.Chemscore.Metal>
0.0000

> <Gold.Chemscore.Lipo>
48.3662

> <Gold.Chemscore.Internal_Hbond>
0.0000

> <Gold.Chemscore.DEClash>
0.2108

> <Gold.Chemscore.DEInternal>
4.3169

> <Gold.Chemscore.Rot>
1.9877

> <Gold.Chemscore.Internal.Correction>
   9.000000E+99

> <Gold.Chemscore.Hbonds>
donor molecule, donor type, donor heavy atom, donor atom, acceptor molecule, acceptor atom, score
      L1  H     7    23       P1  8029  0.43
      L1  H    10    24       P1  8028  0.66
      L1  H    18    37       P1  8028  0.26
      P1  H  6934  6946       L1     5  0.13

> <Gold.Chemscore.Hbond.Weighted>
-9.7858

> <Gold.Chemscore.Metal.Weighted>
-0.0000

> <Gold.Chemscore.Lipo.Weighted>
-5.6588

> <Gold.Chemscore.Internal_Hbond.Weighted>
0.0000

> <Gold.Chemscore.DEClash.Weighted>
0.2108

> <Gold.Chemscore.DEInternal.Weighted>
4.3169

> <Gold.Chemscore.Rot.Weighted>
5.0885

> <Gold.Chemscore.Internal.Correction.Weighted>
   9.000000E+99

> <Gold.Protein.RotatedTorsions>
[ 6907 6896 6895 6894 ] final  -46.05 input  -60.11 | X-H torsion
[ 7974 7965 7964 7962 ] final   33.82 input  175.53 | X-H torsion
[ 8008 7997 7996 7995 ] final   54.52 input   59.86 | X-H torsion
[ 10167 10162 10161 10158 ] final  -93.53 input  -65.29 | X-H torsion
[ 10718 10713 10712 10709 ] final  -93.01 input   66.30 | X-H torsion
[ 10763 10752 10751 10750 ] final -178.55 input  -60.55 | X-H torsion
[ 11005 11000 10999 10996 ] final  162.51 input  -57.11 | X-H torsion

> <Gold.Protein.ActiveResidues>
 VAL166  LYS551  ARG553  GLY616  TRP617  ASP618  TYR619  PRO620  LYS621  CYS622 
 ASP623  PHE694  ASN695  SER759  ASP760  ASP761  ALA762  ILE779  LEU786  VAL792 
 PHE793  MET794  SER795  GLU796  ALA797  LYS798  CYS799  TRP800  GLU811  SER814 

> <Gold.Protein.RotatedAtoms>
  150.9154  134.8571  159.7452 H   0  0  0  0  0  0  0  0  0  0  0  0  # atno 6907 bound_to 6896
  152.4966  134.4297  159.9518 H   0  0  0  0  0  0  0  0  0  0  0  0  # atno 6908 bound_to 6896
  151.4336  133.3624  159.2807 H   0  0  0  0  0  0  0  0  0  0  0  0  # atno 6909 bound_to 6896
  146.1395  139.6348  142.9173 H   0  0  0  0  0  0  0  0  0  0  0  0  # atno 7974 bound_to 7965
  155.4860  140.3470  155.4347 H   0  0  0  0  0  0  0  0  0  0  0  0  # atno 8008 bound_to 7997
  156.1008  140.1435  156.9498 H   0  0  0  0  0  0  0  0  0  0  0  0  # atno 8009 bound_to 7997
  154.4692  140.0906  156.7079 H   0  0  0  0  0  0  0  0  0  0  0  0  # atno 8010 bound_to 7997
  140.3237  143.3034  152.0018 H   0  0  0  0  0  0  0  0  0  0  0  0  # atno 10167 bound_to 10162
  156.0008  130.5010  150.5712 H   0  0  0  0  0  0  0  0  0  0  0  0  # atno 10718 bound_to 10713
  154.5463  135.2809  155.1050 H   0  0  0  0  0  0  0  0  0  0  0  0  # atno 10763 bound_to 10752
  154.2513  135.6339  153.5245 H   0  0  0  0  0  0  0  0  0  0  0  0  # atno 10764 bound_to 10752
  152.9991  135.5583  154.6016 H   0  0  0  0  0  0  0  0  0  0  0  0  # atno 10765 bound_to 10752
  140.2265  134.8157  157.3273 H   0  0  0  0  0  0  0  0  0  0  0  0  # atno 11005 bound_to 11000
  145.5079  141.0436  143.2504 LP  0  0  0  0  0  0  0  0  0  0  0  0  # atno 17320 bound_to 7965
  144.7776  139.6595  143.7168 LP  0  0  0  0  0  0  0  0  0  0  0  0  # atno 17321 bound_to 7965
  139.4869  144.6290  151.7106 LP  0  0  0  0  0  0  0  0  0  0  0  0  # atno 17342 bound_to 10162
  140.5460  144.0502  150.6107 LP  0  0  0  0  0  0  0  0  0  0  0  0  # atno 17343 bound_to 10162
  157.3607  131.0749  151.1639 LP  0  0  0  0  0  0  0  0  0  0  0  0  # atno 17370 bound_to 10713
  157.2425  130.6576  149.5896 LP  0  0  0  0  0  0  0  0  0  0  0  0  # atno 17371 bound_to 10713
  140.1795  134.4507  155.7781 LP  0  0  0  0  0  0  0  0  0  0  0  0  # atno 17394 bound_to 11000
  141.2220  133.6977  156.7845 LP  0  0  0  0  0  0  0  0  0  0  0  0  # atno 17395 bound_to 11000

$$$$
