AV-unprocessed.smi:218|AV-procd|sdf|1675|dock1
  -GOLD-   2262020 93D 1   1.00000     0.00000
 Structure written by MMmdl.
 54 57  0  0  0  0  0  0  0  0  1 V2000
  152.8158  142.2889  160.1283 C   0  0  0  0  0  0  0  0  0  0  0  0
  152.4884  142.1950  158.6332 C   0  0  0  0  0  0  0  0  0  0  0  0
  151.8518  143.4986  158.1207 C   0  0  0  0  0  0  0  0  0  0  0  0
  151.5814  141.1021  158.4746 O   0  0  0  0  0  0  0  0  0  0  0  0
  151.3752  140.5463  157.2266 C   0  0  0  0  0  0  0  0  0  0  0  0
  150.1029  140.6856  156.6356 C   0  0  0  0  0  0  0  0  0  0  0  0
  149.8760  140.1249  155.3604 C   0  0  0  0  0  0  0  0  0  0  0  0
  148.5259  140.2393  154.6785 C   0  0  0  0  0  0  0  0  0  0  0  0
  147.5591  139.2405  155.1161 N   0  0  0  0  0  0  0  0  0  0  0  0
  147.8292  137.9262  154.9675 C   0  0  0  0  0  0  0  0  0  0  0  0
  148.9822  137.3913  155.4459 N   0  0  0  0  0  0  0  0  0  0  0  0
  149.2320  136.0900  155.2780 C   0  0  0  0  0  0  0  0  0  0  0  0
  148.4771  135.1674  154.6786 N   0  0  0  0  0  0  0  0  0  0  0  0
  147.3104  135.6941  154.2022 C   0  0  0  0  0  0  0  0  0  0  0  0
  146.9223  137.0603  154.3031 C   0  0  0  0  0  0  0  0  0  0  0  0
  145.6897  137.2474  153.6947 N   0  0  0  0  0  0  0  0  0  0  0  0
  145.3734  136.0601  153.2552 C   0  0  0  0  0  0  0  0  0  0  0  0
  146.2753  135.0556  153.5397 N   0  0  0  0  0  0  0  0  0  0  0  0
  146.1835  133.6101  153.1275 C   0  0  1  0  0  0  0  0  0  0  0  0
  144.9654  133.3915  152.4834 O   0  0  0  0  0  0  0  0  0  0  0  0
  145.1440  133.5332  151.0811 C   0  0  2  0  0  0  0  0  0  0  0  0
  143.9318  132.9841  150.3081 C   0  0  0  0  0  0  0  0  0  0  0  0
  144.0045  133.3582  148.9486 O   0  0  0  0  0  0  0  0  0  0  0  0
  146.4926  132.8367  150.8635 C   0  0  2  0  0  0  0  0  0  0  0  0
  146.3272  131.4298  150.7895 O   0  0  0  0  0  0  0  0  0  0  0  0
  147.2855  133.2757  152.0968 C   0  0  2  0  0  0  0  0  0  0  0  0
  148.1949  132.2889  152.5483 O   0  0  0  0  0  0  0  0  0  0  0  0
  150.9322  139.4348  154.7327 C   0  0  0  0  0  0  0  0  0  0  0  0
  152.1673  139.3444  155.4028 C   0  0  0  0  0  0  0  0  0  0  0  0
  152.3914  139.8845  156.6191 N   0  0  0  0  0  0  0  0  0  0  0  0
  146.2453  133.0547  154.0640 H   0  0  0  0  0  0  0  0  0  0  0  0
  145.2519  134.5981  150.8639 H   0  0  0  0  0  0  0  0  0  0  0  0
  146.9725  133.1685  149.9422 H   0  0  0  0  0  0  0  0  0  0  0  0
  147.8458  134.1772  151.8466 H   0  0  0  0  0  0  0  0  0  0  0  0
  153.5157  143.1009  160.3274 H   0  0  0  0  0  0  0  0  0  0  0  0
  153.2705  141.3648  160.4863 H   0  0  0  0  0  0  0  0  0  0  0  0
  151.9175  142.4683  160.7196 H   0  0  0  0  0  0  0  0  0  0  0  0
  153.4268  142.0068  158.1093 H   0  0  0  0  0  0  0  0  0  0  0  0
  152.5220  144.3450  158.2727 H   0  0  0  0  0  0  0  0  0  0  0  0
  150.9205  143.7136  158.6451 H   0  0  0  0  0  0  0  0  0  0  0  0
  151.6273  143.4490  157.0557 H   0  0  0  0  0  0  0  0  0  0  0  0
  149.3186  141.2131  157.1586 H   0  0  0  0  0  0  0  0  0  0  0  0
  148.1186  141.2347  154.8617 H   0  0  0  0  0  0  0  0  0  0  0  0
  148.6787  140.1466  153.6024 H   0  0  0  0  0  0  0  0  0  0  0  0
  146.7138  139.5938  155.5412 H   0  0  0  0  0  0  0  0  0  0  0  0
  150.1696  135.7368  155.6812 H   0  0  0  0  0  0  0  0  0  0  0  0
  144.4595  135.8828  152.7069 H   0  0  0  0  0  0  0  0  0  0  0  0
  143.8602  131.8990  150.3866 H   0  0  0  0  0  0  0  0  0  0  0  0
  143.0119  133.3921  150.7274 H   0  0  0  0  0  0  0  0  0  0  0  0
  144.7708  133.8983  148.8285 H   0  0  0  0  0  0  0  0  0  0  0  0
  147.1728  131.0398  150.6269 H   0  0  0  0  0  0  0  0  0  0  0  0
  148.3922  131.7094  151.8283 H   0  0  0  0  0  0  0  0  0  0  0  0
  150.8029  138.9842  153.7596 H   0  0  0  0  0  0  0  0  0  0  0  0
  152.9976  138.8231  154.9500 H   0  0  0  0  0  0  0  0  0  0  0  0
  1  2  1  0  0  0  0
  1 35  1  0  0  0  0
  1 36  1  0  0  0  0
  1 37  1  0  0  0  0
  2  3  1  0  0  0  0
  2  4  1  0  0  0  0
  2 38  1  0  0  0  0
  3 39  1  0  0  0  0
  3 40  1  0  0  0  0
  3 41  1  0  0  0  0
  4  5  1  0  0  0  0
  5 30  1  0  0  0  0
  5  6  2  0  0  0  0
  6  7  1  0  0  0  0
  6 42  1  0  0  0  0
  7  8  1  0  0  0  0
  7 28  2  0  0  0  0
  8  9  1  0  0  0  0
  8 43  1  0  0  0  0
  8 44  1  0  0  0  0
  9 10  1  0  0  0  0
  9 45  1  0  0  0  0
 10 15  1  0  0  0  0
 10 11  2  0  0  0  0
 11 12  1  0  0  0  0
 12 13  2  0  0  0  0
 12 46  1  0  0  0  0
 13 14  1  0  0  0  0
 14 18  1  0  0  0  0
 14 15  2  0  0  0  0
 15 16  1  0  0  0  0
 16 17  2  0  0  0  0
 17 18  1  0  0  0  0
 17 47  1  0  0  0  0
 18 19  1  0  0  0  0
 19 31  1  0  0  0  0
 19 26  1  0  0  0  0
 19 20  1  0  0  0  0
 20 21  1  0  0  0  0
 21 32  1  0  0  0  0
 21 22  1  0  0  0  0
 21 24  1  0  0  0  0
 22 23  1  0  0  0  0
 22 48  1  0  0  0  0
 22 49  1  0  0  0  0
 23 50  1  0  0  0  0
 24 33  1  0  0  0  0
 24 25  1  0  0  0  0
 24 26  1  0  0  0  0
 25 51  1  0  0  0  0
 26 34  1  0  0  0  0
 26 27  1  0  0  0  0
 27 52  1  0  0  0  0
 28 29  1  0  0  0  0
 28 53  1  0  0  0  0
 29 30  2  0  0  0  0
 29 54  1  0  0  0  0
M  END
> <s_m_source_file>
AV-unprocessed.smi

> <i_m_source_file_index>
218

> <i_lp_mmshare_version>
43012

> <i_f3d_flags>
0

> <s_epik_input>
W0NIM11bQ0hdKFtDSDNdKU9jMVtjSF1jKFtjSF1bY0hdbjEpW0NIMl1bTkhdYyhuW2NIXW4yKWMoYzIzKW5bY0hdbjNbQ0BASF00T1tDQEhdKFtDSDJdW09IXSlbQ0BASF0oW09IXSlbQ0BIXTRbT0hd

> <s_epik_cmdline>
J2VwaWtfcHl0aG9uJywgJy1waCcsICc3LjAnLCAnLXRuJywgJzgnLCAnLW1hJywgJzIwMCcsICctbWV0YWxfYmluZGluZycsICctaW1hZScsICc8aW5maWxlLm1hZT4nLCAnLW9tYWUnLCAnPG91dGZpbGUubWFlPic=

> <r_lp_tautomer_probability>
1

> <r_epik_Ionization_Penalty>
0.00457014

> <r_epik_Ionization_Penalty_Charging>
0

> <r_epik_Ionization_Penalty_Neutral>
0.00457014

> <r_epik_State_Penalty>
-0

> <r_epik_Charging_Adjusted_Penalty>
0

> <i_epik_Tot_Q>
0

> <i_epik_Tot_abs_Q>
0

> <r_epik_Metal_State_Penalty>
-0

> <b_epik_Metal_Only>
0

> <s_epik_Chemistry_Notes>
This compound contains an acetal/aminal-like group ( X-CH(R)-Y where X, Y are N, S, or O) that may be acid/base labile, releasing an aldehyde.

> <s_lp_Force_Field>
OPLS_2005

> <r_lp_Energy>
43.0364

> <b_lp_Chiralities_Consistent>
1

> <s_lp_Variant>
AV-unprocessed.smi:218-14

> <Gold.Version>
5.8.1

> <Gold.Id.Protein>
6NUR|6NUR_protein|mol2

> <Gold.PLP.Fitness>
51.2478

> <Gold.PLP.PLP>
-41.2947

> <Gold.PLP.part.hbond>
-4.1706

> <Gold.PLP.part.metal>
0.0000

> <Gold.PLP.part.buried>
-4.0376

> <Gold.PLP.part.nonpolar>
-33.7655

> <Gold.PLP.part.repulsive>
0.9673

> <Gold.PLP.ligand.clash>
0.0000

> <Gold.PLP.ligand.torsion>
1.1167

> <Gold.PLP.Chemscore.Hbond>
4.0000

> <Gold.PLP.Chemscore.CHOScore>
0.0000

> <Gold.PLP.Chemscore.Metal>
0.0000

> <Gold.Chemscore.Hbonds>
donor molecule, donor type, donor heavy atom, donor atom, acceptor molecule, acceptor atom, score
      L1  H    23    50       P1  7921  1.00
      L1  H    25    51       P1 10747  1.00
      L1  H    27    52       P1 10747  1.00
      P1  H  7997  8008       L1    30  1.00

> <Gold.PLP.Chemscore.Internal.Correction>
0.1866

> <Gold.Rescore>
     Score         DG    S(hbond)    S(metal)    S(lipo)     H(rot)  DE(clash)    DE(int)     intcor
     10.16     -16.26       3.57        0.00      97.58       4.90       2.60       3.50       ----

> <Gold.Chemscore.Fitness>
10.1602

> <Gold.Chemscore.DG>
-16.2608

> <Gold.Chemscore.ZeroCoef>
-5.4800

> <Gold.Chemscore.Hbond>
3.5673

> <Gold.Chemscore.Metal>
0.0000

> <Gold.Chemscore.Lipo>
97.5847

> <Gold.Chemscore.Internal_Hbond>
0.0000

> <Gold.Chemscore.DEClash>
2.6012

> <Gold.Chemscore.DEInternal>
3.4995

> <Gold.Chemscore.Rot>
4.9029

> <Gold.Chemscore.Internal.Correction>
   9.000000E+99

> <Gold.Chemscore.Hbonds>
donor molecule, donor type, donor heavy atom, donor atom, acceptor molecule, acceptor atom, score
      L1  H    23    50       P1  7921  0.88
      L1  H    25    51       P1 10747  1.00
      L1  H    27    52       P1 10747  1.00
      P1  H  7997  8008       L1    30  0.25

> <Gold.Chemscore.Hbond.Weighted>
-11.9149

> <Gold.Chemscore.Metal.Weighted>
-0.0000

> <Gold.Chemscore.Lipo.Weighted>
-11.4174

> <Gold.Chemscore.Internal_Hbond.Weighted>
0.0000

> <Gold.Chemscore.DEClash.Weighted>
2.6012

> <Gold.Chemscore.DEInternal.Weighted>
3.4995

> <Gold.Chemscore.Rot.Weighted>
12.5515

> <Gold.Chemscore.Internal.Correction.Weighted>
   9.000000E+99

> <Gold.Protein.RotatedTorsions>
[ 6907 6896 6895 6894 ] final -168.32 input  -60.11 | X-H torsion
[ 7974 7965 7964 7962 ] final  -52.27 input  175.53 | X-H torsion
[ 8008 7997 7996 7995 ] final  -55.24 input   59.86 | X-H torsion
[ 10167 10162 10161 10158 ] final   -4.27 input  -65.29 | X-H torsion
[ 10718 10713 10712 10709 ] final -159.80 input   66.30 | X-H torsion
[ 10763 10752 10751 10750 ] final -171.92 input  -60.55 | X-H torsion
[ 11005 11000 10999 10996 ] final -176.62 input  -57.11 | X-H torsion

> <Gold.Protein.ActiveResidues>
 VAL166  LYS551  ARG553  GLY616  TRP617  ASP618  TYR619  PRO620  LYS621  CYS622 
 ASP623  PHE694  ASN695  SER759  ASP760  ASP761  ALA762  ILE779  LEU786  VAL792 
 PHE793  MET794  SER795  GLU796  ALA797  LYS798  CYS799  TRP800  GLU811  SER814 

> <Gold.Protein.RotatedAtoms>
  151.4736  133.3563  159.2827 H   0  0  0  0  0  0  0  0  0  0  0  0  # atno 6907 bound_to 6896
  150.8944  134.8353  159.7327 H   0  0  0  0  0  0  0  0  0  0  0  0  # atno 6908 bound_to 6896
  152.4842  134.4649  159.9669 H   0  0  0  0  0  0  0  0  0  0  0  0  # atno 6909 bound_to 6896
  145.9098  140.7924  142.9701 H   0  0  0  0  0  0  0  0  0  0  0  0  # atno 7974 bound_to 7965
  154.4188  140.1157  156.5445 H   0  0  0  0  0  0  0  0  0  0  0  0  # atno 8008 bound_to 7997
  155.6473  140.3496  155.4717 H   0  0  0  0  0  0  0  0  0  0  0  0  # atno 8009 bound_to 7997
  155.9821  140.1162  157.0706 H   0  0  0  0  0  0  0  0  0  0  0  0  # atno 8010 bound_to 7997
  140.6921  143.6443  150.8407 H   0  0  0  0  0  0  0  0  0  0  0  0  # atno 10167 bound_to 10162
  156.5732  130.8697  151.2843 H   0  0  0  0  0  0  0  0  0  0  0  0  # atno 10718 bound_to 10713
  154.6251  135.2880  155.0281 H   0  0  0  0  0  0  0  0  0  0  0  0  # atno 10763 bound_to 10752
  154.1462  135.6510  153.4957 H   0  0  0  0  0  0  0  0  0  0  0  0  # atno 10764 bound_to 10752
  153.0253  135.5345  154.7056 H   0  0  0  0  0  0  0  0  0  0  0  0  # atno 10765 bound_to 10752
  140.4500  134.6352  157.4797 H   0  0  0  0  0  0  0  0  0  0  0  0  # atno 11005 bound_to 11000
  144.6742  140.1808  143.7406 LP  0  0  0  0  0  0  0  0  0  0  0  0  # atno 17320 bound_to 7965
  145.8685  139.2260  143.1675 LP  0  0  0  0  0  0  0  0  0  0  0  0  # atno 17321 bound_to 7965
  140.0158  143.5595  152.2821 LP  0  0  0  0  0  0  0  0  0  0  0  0  # atno 17342 bound_to 10162
  139.6335  144.7647  151.2487 LP  0  0  0  0  0  0  0  0  0  0  0  0  # atno 17343 bound_to 10162
  157.7343  130.9745  150.2024 LP  0  0  0  0  0  0  0  0  0  0  0  0  # atno 17370 bound_to 10713
  156.2697  130.3720  149.8045 LP  0  0  0  0  0  0  0  0  0  0  0  0  # atno 17371 bound_to 10713
  140.0013  134.6832  155.9526 LP  0  0  0  0  0  0  0  0  0  0  0  0  # atno 17394 bound_to 11000
  141.1668  133.6537  156.4508 LP  0  0  0  0  0  0  0  0  0  0  0  0  # atno 17395 bound_to 11000

$$$$
