AV-unprocessed.smi:260|AV-procd|sdf|1981|dock8
  -GOLD-   2262021153D 1   1.00000     0.00000
 Structure written by MMmdl.
 53 56  0  0  0  0  0  0  0  0  1 V2000
  146.8418  129.5789  152.4052 C   0  0  0  0  0  0  0  0  0  0  0  0
  146.4008  130.5795  151.4467 N   0  0  0  0  0  0  0  0  0  0  0  0
  145.9004  131.7818  151.7747 C   0  0  0  0  0  0  0  0  0  0  0  0
  145.7605  132.1336  152.9470 O   0  0  0  0  0  0  0  0  0  0  0  0
  145.4933  132.7499  150.6321 C   0  0  1  0  0  0  0  0  0  0  0  0
  145.8685  132.1184  149.2773 C   0  0  0  0  0  0  0  0  0  0  0  0
  143.9898  133.0642  150.7249 C   0  0  0  0  0  0  0  0  0  0  0  0
  143.9081  134.1893  151.7626 C   0  0  0  0  0  0  0  0  0  0  0  0
  145.1852  134.8882  151.6877 N   0  0  0  0  0  0  0  0  0  0  0  0
  145.6434  135.5935  152.7581 C   0  0  0  0  0  0  0  0  0  0  0  0
  145.6591  134.9997  153.9814 N   0  0  0  0  0  0  0  0  0  0  0  0
  146.0913  135.6617  155.0578 C   0  0  0  0  0  0  0  0  0  0  0  0
  146.5536  136.9094  155.1384 N   0  0  0  0  0  0  0  0  0  0  0  0
  146.5580  137.5113  153.9155 C   0  0  0  0  0  0  0  0  0  0  0  0
  146.1276  136.9346  152.6852 C   0  0  0  0  0  0  0  0  0  0  0  0
  146.2963  137.8581  151.6577 N   0  0  0  0  0  0  0  0  0  0  0  0
  146.7877  138.9142  152.2453 C   0  0  0  0  0  0  0  0  0  0  0  0
  146.9772  138.7913  153.6017 N   0  0  0  0  0  0  0  0  0  0  0  0
  147.5092  139.7973  154.5035 C   0  0  0  0  0  0  0  0  0  0  0  0
  148.9669  140.1696  154.1706 C   0  0  1  0  0  0  0  0  0  0  0  0
  149.0129  141.1100  153.1140 O   0  0  0  0  0  0  0  0  0  0  0  0
  149.7443  140.6934  155.3944 C   0  0  1  0  0  0  0  0  0  0  0  0
  149.4984  139.9671  156.7197 C   0  0  0  0  0  0  0  0  0  0  0  0
  150.7640  140.3009  157.4771 C   0  0  0  0  0  0  0  0  0  0  0  0
  151.8139  140.2408  156.3703 C   0  0  0  0  0  0  0  0  0  0  0  0
  151.1541  140.6682  155.1816 O   0  0  0  0  0  0  0  0  0  0  0  0
  146.0800  134.1716  150.7778 C   0  0  0  0  0  0  0  0  0  0  0  0
  147.2254  128.7054  151.8781 H   0  0  0  0  0  0  0  0  0  0  0  0
  146.0153  129.2591  153.0409 H   0  0  0  0  0  0  0  0  0  0  0  0
  147.6381  129.9723  153.0384 H   0  0  0  0  0  0  0  0  0  0  0  0
  146.4954  130.3524  150.4670 H   0  0  0  0  0  0  0  0  0  0  0  0
  145.5933  132.7684  148.4462 H   0  0  0  0  0  0  0  0  0  0  0  0
  145.3609  131.1653  149.1226 H   0  0  0  0  0  0  0  0  0  0  0  0
  146.9421  131.9391  149.2080 H   0  0  0  0  0  0  0  0  0  0  0  0
  143.6252  133.4309  149.7642 H   0  0  0  0  0  0  0  0  0  0  0  0
  143.3711  132.2077  150.9968 H   0  0  0  0  0  0  0  0  0  0  0  0
  143.0735  134.8602  151.5579 H   0  0  0  0  0  0  0  0  0  0  0  0
  143.7748  133.7675  152.7598 H   0  0  0  0  0  0  0  0  0  0  0  0
  146.0618  135.1127  155.9875 H   0  0  0  0  0  0  0  0  0  0  0  0
  147.0315  139.8150  151.7011 H   0  0  0  0  0  0  0  0  0  0  0  0
  146.8669  140.6779  154.4605 H   0  0  0  0  0  0  0  0  0  0  0  0
  147.4419  139.4111  155.5211 H   0  0  0  0  0  0  0  0  0  0  0  0
  149.4776  139.2753  153.8114 H   0  0  0  0  0  0  0  0  0  0  0  0
  148.8240  140.6580  152.3059 H   0  0  0  0  0  0  0  0  0  0  0  0
  149.4851  141.7434  155.5400 H   0  0  0  0  0  0  0  0  0  0  0  0
  148.5939  140.3037  157.2269 H   0  0  0  0  0  0  0  0  0  0  0  0
  149.4302  138.8876  156.5821 H   0  0  0  0  0  0  0  0  0  0  0  0
  150.7027  141.3113  157.8839 H   0  0  0  0  0  0  0  0  0  0  0  0
  150.9686  139.6125  158.2976 H   0  0  0  0  0  0  0  0  0  0  0  0
  152.6859  140.8580  156.5878 H   0  0  0  0  0  0  0  0  0  0  0  0
  152.1530  139.2140  156.2261 H   0  0  0  0  0  0  0  0  0  0  0  0
  147.1261  134.1511  151.0820 H   0  0  0  0  0  0  0  0  0  0  0  0
  146.0543  134.6908  149.8192 H   0  0  0  0  0  0  0  0  0  0  0  0
  1  2  1  0  0  0  0
  1 28  1  0  0  0  0
  1 29  1  0  0  0  0
  1 30  1  0  0  0  0
  2  3  1  0  0  0  0
  2 31  1  0  0  0  0
  3  4  2  0  0  0  0
  3  5  1  0  0  0  0
  5 27  1  0  0  0  0
  5  6  1  0  0  0  0
  5  7  1  0  0  0  0
  6 32  1  0  0  0  0
  6 33  1  0  0  0  0
  6 34  1  0  0  0  0
  7  8  1  0  0  0  0
  7 35  1  0  0  0  0
  7 36  1  0  0  0  0
  8  9  1  0  0  0  0
  8 37  1  0  0  0  0
  8 38  1  0  0  0  0
  9 10  1  0  0  0  0
  9 27  1  0  0  0  0
 10 15  1  0  0  0  0
 10 11  2  0  0  0  0
 11 12  1  0  0  0  0
 12 13  2  0  0  0  0
 12 39  1  0  0  0  0
 13 14  1  0  0  0  0
 14 18  1  0  0  0  0
 14 15  2  0  0  0  0
 15 16  1  0  0  0  0
 16 17  2  0  0  0  0
 17 18  1  0  0  0  0
 17 40  1  0  0  0  0
 18 19  1  0  0  0  0
 19 20  1  0  0  0  0
 19 41  1  0  0  0  0
 19 42  1  0  0  0  0
 20 21  1  0  0  0  0
 20 22  1  0  0  0  0
 20 43  1  0  0  0  0
 21 44  1  0  0  0  0
 22 26  1  0  0  0  0
 22 23  1  0  0  0  0
 22 45  1  0  0  0  0
 23 24  1  0  0  0  0
 23 46  1  0  0  0  0
 23 47  1  0  0  0  0
 24 25  1  0  0  0  0
 24 48  1  0  0  0  0
 24 49  1  0  0  0  0
 25 26  1  0  0  0  0
 25 50  1  0  0  0  0
 25 51  1  0  0  0  0
 27 52  1  0  0  0  0
 27 53  1  0  0  0  0
M  END
> <s_m_source_file>
AV-unprocessed.smi

> <i_m_source_file_index>
260

> <i_lp_mmshare_version>
43012

> <i_f3d_flags>
0

> <s_epik_input>
W0NIM11bTkhdQyg9TylbQ0BAXTEoW0NIM10pW0NIMl1bQ0gyXU4oW0NIMl0xKWMobltjSF1uMiljKGMyMyluW2NIXW4zW0NIMl1bQ0BIXShbT0hdKVtDQEBIXTRbQ0gyXVtDSDJdW0NIMl1PNA==

> <s_epik_cmdline>
J2VwaWtfcHl0aG9uJywgJy1waCcsICc3LjAnLCAnLXRuJywgJzgnLCAnLW1hJywgJzIwMCcsICctbWV0YWxfYmluZGluZycsICctaW1hZScsICc8aW5maWxlLm1hZT4nLCAnLW9tYWUnLCAnPG91dGZpbGUubWFlPic=

> <r_lp_tautomer_probability>
1

> <r_epik_Ionization_Penalty>
0.00115068

> <r_epik_Ionization_Penalty_Charging>
0

> <r_epik_Ionization_Penalty_Neutral>
0.00115068

> <r_epik_State_Penalty>
0.000668876

> <r_epik_Charging_Adjusted_Penalty>
0.000668876

> <i_epik_Tot_Q>
0

> <i_epik_Tot_abs_Q>
0

> <r_epik_Metal_State_Penalty>
-0

> <b_epik_Metal_Only>
0

> <s_lp_Force_Field>
OPLS_2005

> <r_lp_Energy>
50.9621

> <b_lp_Chiralities_Consistent>
1

> <s_lp_Variant>
AV-unprocessed.smi:260-7

> <Gold.Version>
5.8.1

> <Gold.Id.Protein>
6NUR|6NUR_protein|mol2

> <Gold.PLP.Fitness>
45.2909

> <Gold.PLP.PLP>
-40.8533

> <Gold.PLP.part.hbond>
-4.2839

> <Gold.PLP.part.metal>
0.0000

> <Gold.PLP.part.buried>
-4.3336

> <Gold.PLP.part.nonpolar>
-31.7956

> <Gold.PLP.part.repulsive>
1.0915

> <Gold.PLP.ligand.clash>
1.3537

> <Gold.PLP.ligand.torsion>
1.7990

> <Gold.PLP.Chemscore.Hbond>
2.2802

> <Gold.PLP.Chemscore.CHOScore>
0.7075

> <Gold.PLP.Chemscore.Metal>
0.0000

> <Gold.Chemscore.Hbonds>
donor molecule, donor type, donor heavy atom, donor atom, acceptor molecule, acceptor atom, score
      L1  H    21    44       P1  7957  0.72
      P1  H  7989  7998       L1    26  0.86
      P1  H  8011  8017       L1    21  0.65
      L1  C    17    40       P1  7957  0.56

> <Gold.PLP.Chemscore.Internal.Correction>
0.4262

> <Gold.Rescore>
     Score         DG    S(hbond)    S(metal)    S(lipo)     H(rot)  DE(clash)    DE(int)     intcor
      9.34     -13.58       1.63        0.00      77.83       2.53       0.05       4.19       ----

> <Gold.Chemscore.Fitness>
9.3378

> <Gold.Chemscore.DG>
-13.5769

> <Gold.Chemscore.ZeroCoef>
-5.4800

> <Gold.Chemscore.Hbond>
1.6339

> <Gold.Chemscore.Metal>
0.0000

> <Gold.Chemscore.Lipo>
77.8287

> <Gold.Chemscore.Internal_Hbond>
0.0000

> <Gold.Chemscore.DEClash>
0.0456

> <Gold.Chemscore.DEInternal>
4.1934

> <Gold.Chemscore.Rot>
2.5259

> <Gold.Chemscore.Internal.Correction>
   9.000000E+99

> <Gold.Chemscore.Hbonds>
donor molecule, donor type, donor heavy atom, donor atom, acceptor molecule, acceptor atom, score
      L1  H    21    44       P1  7957  0.68
      P1  H  7989  7998       L1    26  0.77
      P1  H  8011  8017       L1    21  0.06

> <Gold.Chemscore.Hbond.Weighted>
-5.4572

> <Gold.Chemscore.Metal.Weighted>
-0.0000

> <Gold.Chemscore.Lipo.Weighted>
-9.1060

> <Gold.Chemscore.Internal_Hbond.Weighted>
0.0000

> <Gold.Chemscore.DEClash.Weighted>
0.0456

> <Gold.Chemscore.DEInternal.Weighted>
4.1934

> <Gold.Chemscore.Rot.Weighted>
6.4663

> <Gold.Chemscore.Internal.Correction.Weighted>
   9.000000E+99

> <Gold.Protein.RotatedTorsions>
[ 6907 6896 6895 6894 ] final  149.01 input  -60.11 | X-H torsion
[ 7974 7965 7964 7962 ] final  -67.50 input  175.53 | X-H torsion
[ 8008 7997 7996 7995 ] final   22.26 input   59.86 | X-H torsion
[ 10167 10162 10161 10158 ] final  -61.89 input  -65.29 | X-H torsion
[ 10718 10713 10712 10709 ] final -151.00 input   66.30 | X-H torsion
[ 10763 10752 10751 10750 ] final   57.43 input  -60.55 | X-H torsion
[ 11005 11000 10999 10996 ] final  155.57 input  -57.11 | X-H torsion

> <Gold.Protein.ActiveResidues>
 VAL166  LYS551  ARG553  GLY616  TRP617  ASP618  TYR619  PRO620  LYS621  CYS622 
 ASP623  PHE694  ASN695  SER759  ASP760  ASP761  ALA762  ILE779  LEU786  VAL792 
 PHE793  MET794  SER795  GLU796  ALA797  LYS798  CYS799  TRP800  GLU811  SER814 

> <Gold.Protein.RotatedAtoms>
  152.1337  133.4423  159.4733 H   0  0  0  0  0  0  0  0  0  0  0  0  # atno 6907 bound_to 6896
  150.6880  134.2389  159.4473 H   0  0  0  0  0  0  0  0  0  0  0  0  # atno 6908 bound_to 6896
  152.0275  134.9787  160.0622 H   0  0  0  0  0  0  0  0  0  0  0  0  # atno 6909 bound_to 6896
  145.7283  140.9008  143.0593 H   0  0  0  0  0  0  0  0  0  0  0  0  # atno 7974 bound_to 7965
  154.9631  140.3080  155.5022 H   0  0  0  0  0  0  0  0  0  0  0  0  # atno 8008 bound_to 7997
  156.2975  140.2298  156.4656 H   0  0  0  0  0  0  0  0  0  0  0  0  # atno 8009 bound_to 7997
  154.7947  140.0437  157.1216 H   0  0  0  0  0  0  0  0  0  0  0  0  # atno 8010 bound_to 7997
  140.5976  143.2354  151.6001 H   0  0  0  0  0  0  0  0  0  0  0  0  # atno 10167 bound_to 10162
  156.4535  130.8179  151.2410 H   0  0  0  0  0  0  0  0  0  0  0  0  # atno 10718 bound_to 10713
  152.9850  135.5642  154.5389 H   0  0  0  0  0  0  0  0  0  0  0  0  # atno 10763 bound_to 10752
  154.4847  135.2790  155.1545 H   0  0  0  0  0  0  0  0  0  0  0  0  # atno 10764 bound_to 10752
  154.3039  135.6302  153.5489 H   0  0  0  0  0  0  0  0  0  0  0  0  # atno 10765 bound_to 10752
  140.1593  134.8620  157.2554 H   0  0  0  0  0  0  0  0  0  0  0  0  # atno 11005 bound_to 11000
  144.6899  139.9297  143.7471 LP  0  0  0  0  0  0  0  0  0  0  0  0  # atno 17320 bound_to 7965
  146.0561  139.3558  143.0610 LP  0  0  0  0  0  0  0  0  0  0  0  0  # atno 17321 bound_to 7965
  139.5269  144.3033  152.1055 LP  0  0  0  0  0  0  0  0  0  0  0  0  # atno 17342 bound_to 10162
  140.2208  144.4468  150.6343 LP  0  0  0  0  0  0  0  0  0  0  0  0  # atno 17343 bound_to 10162
  157.7501  131.0130  150.3408 LP  0  0  0  0  0  0  0  0  0  0  0  0  # atno 17370 bound_to 10713
  156.3791  130.3877  149.7115 LP  0  0  0  0  0  0  0  0  0  0  0  0  # atno 17371 bound_to 10713
  140.2509  134.3684  155.7443 LP  0  0  0  0  0  0  0  0  0  0  0  0  # atno 17394 bound_to 11000
  141.2208  133.7316  156.8933 LP  0  0  0  0  0  0  0  0  0  0  0  0  # atno 17395 bound_to 11000

$$$$
