AV-unprocessed.smi:1656|AV-procd|sdf|6646|dock4
  -GOLD-   22720 7353D 1   1.00000     0.00000
 Structure written by MMmdl.
 49 52  0  0  0  0  0  0  0  0  1 V2000
  150.5333  143.6487  158.4697 C   0  0  0  0  0  0  0  0  0  0  0  0
  151.5818  142.6247  158.8119 C   0  0  0  0  0  0  0  0  0  0  0  0
  151.7380  141.6513  157.9761 N   0  0  0  0  0  0  0  0  0  0  0  0
  152.6782  140.6622  158.1916 N   0  0  0  0  0  0  0  0  0  0  0  0
  152.7484  139.6557  157.1219 C   0  0  0  0  0  0  0  0  0  0  0  0
  151.6288  139.8080  156.0821 C   0  0  0  0  0  0  0  0  0  0  0  0
  151.8786  139.7092  154.8803 O   0  0  0  0  0  0  0  0  0  0  0  0
  150.4041  140.0639  156.5737 N   0  0  0  0  0  0  0  0  0  0  0  0
  149.1477  140.2354  155.8364 C   0  0  0  0  0  0  0  0  0  0  0  0
  147.9887  140.6736  156.7734 C   0  0  0  0  0  0  0  0  0  0  0  0
  146.6757  140.7821  155.9678 C   0  0  1  0  0  0  0  0  0  0  0  0
  146.8464  141.8223  154.8391 C   0  0  0  0  0  0  0  0  0  0  0  0
  147.9815  141.3727  153.8932 C   0  0  2  0  0  0  0  0  0  0  0  0
  147.6328  139.9998  153.2819 C   0  0  0  0  0  0  0  0  0  0  0  0
  147.4661  138.9673  154.4160 C   0  0  2  0  0  0  0  0  0  0  0  0
  146.3265  139.4087  155.3573 C   0  0  0  0  0  0  0  0  0  0  0  0
  148.7823  138.8629  155.2152 C   0  0  0  0  0  0  0  0  0  0  0  0
  149.3022  141.2681  154.6860 C   0  0  0  0  0  0  0  0  0  0  0  0
  153.5006  140.5956  159.2784 C   0  0  0  0  0  0  0  0  0  0  0  0
  154.3174  139.6869  159.4362 O   0  0  0  0  0  0  0  0  0  0  0  0
  153.3182  141.7017  160.2207 C   0  0  0  0  0  0  0  0  0  0  0  0
  154.1689  141.6773  161.3666 C   0  0  0  0  0  0  0  0  0  0  0  0
  154.8560  141.6774  162.2984 N   0  0  0  0  0  0  0  0  0  0  0  0
  152.4057  142.6843  160.0150 C   0  0  0  0  0  0  0  0  0  0  0  0
  152.1801  143.8559  160.9608 C   0  0  0  0  0  0  0  0  0  0  0  0
  149.7396  143.6536  159.2170 H   0  0  0  0  0  0  0  0  0  0  0  0
  150.0726  143.4514  157.5005 H   0  0  0  0  0  0  0  0  0  0  0  0
  150.9666  144.6481  158.4284 H   0  0  0  0  0  0  0  0  0  0  0  0
  153.7218  139.7050  156.6297 H   0  0  0  0  0  0  0  0  0  0  0  0
  152.6834  138.6504  157.5416 H   0  0  0  0  0  0  0  0  0  0  0  0
  150.3273  140.1278  157.5784 H   0  0  0  0  0  0  0  0  0  0  0  0
  147.8686  139.9594  157.5891 H   0  0  0  0  0  0  0  0  0  0  0  0
  148.2009  141.6360  157.2392 H   0  0  0  0  0  0  0  0  0  0  0  0
  145.8703  141.0977  156.6315 H   0  0  0  0  0  0  0  0  0  0  0  0
  145.9144  141.9336  154.2837 H   0  0  0  0  0  0  0  0  0  0  0  0
  147.0727  142.8025  155.2606 H   0  0  0  0  0  0  0  0  0  0  0  0
  148.0981  142.1049  153.0937 H   0  0  0  0  0  0  0  0  0  0  0  0
  146.7160  140.0686  152.6949 H   0  0  0  0  0  0  0  0  0  0  0  0
  148.4168  139.6823  152.5932 H   0  0  0  0  0  0  0  0  0  0  0  0
  147.2247  137.9944  153.9868 H   0  0  0  0  0  0  0  0  0  0  0  0
  146.1802  138.6700  156.1463 H   0  0  0  0  0  0  0  0  0  0  0  0
  145.3848  139.4664  154.8100 H   0  0  0  0  0  0  0  0  0  0  0  0
  149.5841  138.5174  154.5608 H   0  0  0  0  0  0  0  0  0  0  0  0
  148.6798  138.1083  155.9967 H   0  0  0  0  0  0  0  0  0  0  0  0
  149.5647  142.2526  155.0737 H   0  0  0  0  0  0  0  0  0  0  0  0
  150.1156  140.9760  154.0203 H   0  0  0  0  0  0  0  0  0  0  0  0
  152.7967  143.7886  161.8565 H   0  0  0  0  0  0  0  0  0  0  0  0
  151.1396  143.8954  161.2844 H   0  0  0  0  0  0  0  0  0  0  0  0
  152.4223  144.7965  160.4650 H   0  0  0  0  0  0  0  0  0  0  0  0
  1  2  1  0  0  0  0
  1 26  1  0  0  0  0
  1 27  1  0  0  0  0
  1 28  1  0  0  0  0
  2 24  1  0  0  0  0
  2  3  2  0  0  0  0
  3  4  1  0  0  0  0
  4  5  1  0  0  0  0
  4 19  1  0  0  0  0
  5  6  1  0  0  0  0
  5 29  1  0  0  0  0
  5 30  1  0  0  0  0
  6  7  2  0  0  0  0
  6  8  1  0  0  0  0
  8  9  1  0  0  0  0
  8 31  1  0  0  0  0
  9 17  1  0  0  0  0
  9 18  1  0  0  0  0
  9 10  1  0  0  0  0
 10 11  1  0  0  0  0
 10 32  1  0  0  0  0
 10 33  1  0  0  0  0
 11 16  1  0  0  0  0
 11 12  1  0  0  0  0
 11 34  1  0  0  0  0
 12 13  1  0  0  0  0
 12 35  1  0  0  0  0
 12 36  1  0  0  0  0
 13 14  1  0  0  0  0
 13 18  1  0  0  0  0
 13 37  1  0  0  0  0
 14 15  1  0  0  0  0
 14 38  1  0  0  0  0
 14 39  1  0  0  0  0
 15 16  1  0  0  0  0
 15 17  1  0  0  0  0
 15 40  1  0  0  0  0
 16 41  1  0  0  0  0
 16 42  1  0  0  0  0
 17 43  1  0  0  0  0
 17 44  1  0  0  0  0
 18 45  1  0  0  0  0
 18 46  1  0  0  0  0
 19 20  2  0  0  0  0
 19 21  1  0  0  0  0
 21 22  1  0  0  0  0
 21 24  2  0  0  0  0
 22 23  3  0  0  0  0
 24 25  1  0  0  0  0
 25 47  1  0  0  0  0
 25 48  1  0  0  0  0
 25 49  1  0  0  0  0
M  END
> <s_m_source_file>
AV-unprocessed.smi

> <i_m_source_file_index>
1656

> <i_lp_mmshare_version>
43012

> <i_f3d_flags>
0

> <s_epik_input>
TiNDYyhjMVtDSDNdKWMoPU8pbihuYzFbQ0gzXSlbQ0gyXUMoPU8pW05IXUMyM1tDSDJdW0NASF00W0NIMl1bQ0BASF0oW0NIMl0zKVtDSDJdW0NASF0oW0NIMl00KVtDSDJdMg==

> <s_epik_cmdline>
J2VwaWtfcHl0aG9uJywgJy1waCcsICc3LjAnLCAnLXRuJywgJzgnLCAnLW1hJywgJzIwMCcsICctbWV0YWxfYmluZGluZycsICctaW1hZScsICc8aW5maWxlLm1hZT4nLCAnLW9tYWUnLCAnPG91dGZpbGUubWFlPic=

> <r_lp_tautomer_probability>
1

> <r_epik_Ionization_Penalty>
2.33831e-08

> <r_epik_Ionization_Penalty_Charging>
2.51001e-11

> <r_epik_Ionization_Penalty_Neutral>
2.3358e-08

> <r_epik_State_Penalty>
-0

> <r_epik_Charging_Adjusted_Penalty>
2.51001e-11

> <i_epik_Tot_Q>
0

> <i_epik_Tot_abs_Q>
0

> <r_epik_Metal_State_Penalty>
-0

> <b_epik_Metal_Only>
0

> <s_lp_Force_Field>
OPLS_2005

> <r_lp_Energy>
45.1543

> <b_lp_Chiralities_Consistent>
1

> <s_lp_Variant>
AV-unprocessed.smi:1656-1

> <Gold.Version>
5.8.1

> <Gold.Id.Protein>
6NUR|6NUR_protein|mol2

> <Gold.PLP.Fitness>
47.1026

> <Gold.PLP.PLP>
-43.7401

> <Gold.PLP.part.hbond>
-2.4189

> <Gold.PLP.part.metal>
0.0000

> <Gold.PLP.part.buried>
-4.0556

> <Gold.PLP.part.nonpolar>
-36.6648

> <Gold.PLP.part.repulsive>
0.1352

> <Gold.PLP.ligand.clash>
0.0000

> <Gold.PLP.ligand.torsion>
0.3672

> <Gold.PLP.Chemscore.Hbond>
1.3640

> <Gold.PLP.Chemscore.CHOScore>
0.0000

> <Gold.PLP.Chemscore.Metal>
0.0000

> <Gold.Chemscore.Hbonds>
donor molecule, donor type, donor heavy atom, donor atom, acceptor molecule, acceptor atom, score
      P1  H  7989  7998       L1     7  0.98
      P1  H  7997  8009       L1    20  0.18

> <Gold.PLP.Chemscore.Internal.Correction>
0.0050

> <Gold.Rescore>
     Score         DG    S(hbond)    S(metal)    S(lipo)     H(rot)  DE(clash)    DE(int)     intcor
     16.56     -17.61       0.99        0.00     106.93       1.44       0.67       0.37       ----

> <Gold.Chemscore.Fitness>
16.5611

> <Gold.Chemscore.DG>
-17.6068

> <Gold.Chemscore.ZeroCoef>
-5.4800

> <Gold.Chemscore.Hbond>
0.9921

> <Gold.Chemscore.Metal>
0.0000

> <Gold.Chemscore.Lipo>
106.9265

> <Gold.Chemscore.Internal_Hbond>
0.0000

> <Gold.Chemscore.DEClash>
0.6728

> <Gold.Chemscore.DEInternal>
0.3730

> <Gold.Chemscore.Rot>
1.4442

> <Gold.Chemscore.Internal.Correction>
   9.000000E+99

> <Gold.Chemscore.Hbonds>
donor molecule, donor type, donor heavy atom, donor atom, acceptor molecule, acceptor atom, score
      P1  H  7989  7998       L1     7  0.93

> <Gold.Chemscore.Hbond.Weighted>
-3.3135

> <Gold.Chemscore.Metal.Weighted>
-0.0000

> <Gold.Chemscore.Lipo.Weighted>
-12.5104

> <Gold.Chemscore.Internal_Hbond.Weighted>
0.0000

> <Gold.Chemscore.DEClash.Weighted>
0.6728

> <Gold.Chemscore.DEInternal.Weighted>
0.3730

> <Gold.Chemscore.Rot.Weighted>
3.6971

> <Gold.Chemscore.Internal.Correction.Weighted>
   9.000000E+99

> <Gold.Protein.RotatedTorsions>
[ 6907 6896 6895 6894 ] final   97.66 input  -60.11 | X-H torsion
[ 7974 7965 7964 7962 ] final  -83.00 input  175.53 | X-H torsion
[ 8008 7997 7996 7995 ] final  126.63 input   59.86 | X-H torsion
[ 10167 10162 10161 10158 ] final  159.14 input  -65.29 | X-H torsion
[ 10718 10713 10712 10709 ] final  105.39 input   66.30 | X-H torsion
[ 10763 10752 10751 10750 ] final   34.33 input  -60.55 | X-H torsion
[ 11005 11000 10999 10996 ] final -136.56 input  -57.11 | X-H torsion

> <Gold.Protein.ActiveResidues>
 VAL166  LYS551  ARG553  GLY616  TRP617  ASP618  TYR619  PRO620  LYS621  CYS622 
 ASP623  PHE694  ASN695  SER759  ASP760  ASP761  ALA762  ILE779  LEU786  VAL792 
 PHE793  MET794  SER795  GLU796  ALA797  LYS798  CYS799  TRP800  GLU811  SER814 

> <Gold.Protein.RotatedAtoms>
  152.5420  134.0699  159.8189 H   0  0  0  0  0  0  0  0  0  0  0  0  # atno 6907 bound_to 6896
  151.0815  133.5379  159.2627 H   0  0  0  0  0  0  0  0  0  0  0  0  # atno 6908 bound_to 6896
  151.2204  135.0525  159.9001 H   0  0  0  0  0  0  0  0  0  0  0  0  # atno 6909 bound_to 6896
  145.5259  140.9526  143.1630 H   0  0  0  0  0  0  0  0  0  0  0  0  # atno 7974 bound_to 7965
  156.2869  140.2688  156.2142 H   0  0  0  0  0  0  0  0  0  0  0  0  # atno 8008 bound_to 7997
  155.0233  140.0386  157.2464 H   0  0  0  0  0  0  0  0  0  0  0  0  # atno 8009 bound_to 7997
  154.7416  140.2726  155.6373 H   0  0  0  0  0  0  0  0  0  0  0  0  # atno 8010 bound_to 7997
  139.4830  144.4758  151.8512 H   0  0  0  0  0  0  0  0  0  0  0  0  # atno 10167 bound_to 10162
  157.6707  131.0826  150.5849 H   0  0  0  0  0  0  0  0  0  0  0  0  # atno 10718 bound_to 10713
  153.0169  135.6363  154.1651 H   0  0  0  0  0  0  0  0  0  0  0  0  # atno 10763 bound_to 10752
  154.1389  135.2836  155.3167 H   0  0  0  0  0  0  0  0  0  0  0  0  # atno 10764 bound_to 10752
  154.6139  135.5547  153.7564 H   0  0  0  0  0  0  0  0  0  0  0  0  # atno 10765 bound_to 10752
  140.8794  134.1951  157.4601 H   0  0  0  0  0  0  0  0  0  0  0  0  # atno 11005 bound_to 11000
  144.7651  139.6863  143.7218 LP  0  0  0  0  0  0  0  0  0  0  0  0  # atno 17320 bound_to 7965
  146.2076  139.5410  142.9702 LP  0  0  0  0  0  0  0  0  0  0  0  0  # atno 17321 bound_to 7965
  140.4231  144.2217  150.5887 LP  0  0  0  0  0  0  0  0  0  0  0  0  # atno 17342 bound_to 10162
  140.4854  143.2365  151.8895 LP  0  0  0  0  0  0  0  0  0  0  0  0  # atno 17343 bound_to 10162
  156.6150  130.4390  149.5844 LP  0  0  0  0  0  0  0  0  0  0  0  0  # atno 17370 bound_to 10713
  156.2401  130.6846  151.1547 LP  0  0  0  0  0  0  0  0  0  0  0  0  # atno 17371 bound_to 10713
  139.8718  134.9810  156.5100 LP  0  0  0  0  0  0  0  0  0  0  0  0  # atno 17394 bound_to 11000
  140.8479  133.8154  155.9139 LP  0  0  0  0  0  0  0  0  0  0  0  0  # atno 17395 bound_to 11000

$$$$
