AV-unprocessed.smi:1231|AV-procd|sdf|5161|dock5
  -GOLD-   22720 4233D 1   1.00000     0.00000
 Structure written by MMmdl.
 42 43  0  0  0  0  0  0  0  0  1 V2000
  150.7041  142.4010  156.1466 C   0  0  0  0  0  0  0  0  0  0  0  0
  150.2725  140.9785  155.7758 C   0  0  1  0  0  0  0  0  0  0  0  0
  149.1753  140.9663  154.6939 C   0  0  0  0  0  0  0  0  0  0  0  0
  148.8248  139.6083  154.2855 N   0  0  0  0  0  0  0  0  0  0  0  0
  147.8013  139.5813  153.2423 C   0  0  0  0  0  0  0  0  0  0  0  0
  146.6333  138.6117  153.5030 C   0  0  0  0  0  0  0  0  0  0  0  0
  146.8691  137.3170  152.8757 N   0  0  0  0  0  0  0  0  0  0  0  0
  145.9105  136.4541  152.5092 C   0  0  0  0  0  0  0  0  0  0  0  0
  144.7081  136.6697  152.6658 O   0  0  0  0  0  0  0  0  0  0  0  0
  146.4378  135.3446  151.9619 N   0  0  0  0  0  0  0  0  0  0  0  0
  145.7557  134.2066  151.4550 C   0  0  0  0  0  0  0  0  0  0  0  0
  146.5899  133.1897  150.9377 C   0  0  0  0  0  0  0  0  0  0  0  0
  146.0104  132.0195  150.4100 C   0  0  0  0  0  0  0  0  0  0  0  0
  144.6096  131.8958  150.4140 C   0  0  0  0  0  0  0  0  0  0  0  0
  143.8519  132.9538  150.9491 C   0  0  0  0  0  0  0  0  0  0  0  0
  144.4053  134.0763  151.4545 N   0  0  0  0  0  0  0  0  0  0  0  0
  150.0338  138.9210  153.8457 C   0  0  0  0  0  0  0  0  0  0  0  0
  151.1294  138.9270  154.9287 C   0  0  1  0  0  0  0  0  0  0  0  0
  152.4278  138.2734  154.4441 C   0  0  0  0  0  0  0  0  0  0  0  0
  151.4136  140.2748  155.2927 O   0  0  0  0  0  0  0  0  0  0  0  0
  149.8653  142.9759  156.5396 H   0  0  0  0  0  0  0  0  0  0  0  0
  151.0981  142.9323  155.2798 H   0  0  0  0  0  0  0  0  0  0  0  0
  151.4824  142.3846  156.9099 H   0  0  0  0  0  0  0  0  0  0  0  0
  149.9046  140.4792  156.6738 H   0  0  0  0  0  0  0  0  0  0  0  0
  148.2982  141.4812  155.0844 H   0  0  0  0  0  0  0  0  0  0  0  0
  149.5131  141.5361  153.8268 H   0  0  0  0  0  0  0  0  0  0  0  0
  147.4123  140.5881  153.0820 H   0  0  0  0  0  0  0  0  0  0  0  0
  148.2730  139.2910  152.3025 H   0  0  0  0  0  0  0  0  0  0  0  0
  146.4730  138.4853  154.5750 H   0  0  0  0  0  0  0  0  0  0  0  0
  145.7038  139.0041  153.0920 H   0  0  0  0  0  0  0  0  0  0  0  0
  147.8313  137.0605  152.7104 H   0  0  0  0  0  0  0  0  0  0  0  0
  147.4446  135.3095  151.9010 H   0  0  0  0  0  0  0  0  0  0  0  0
  147.6647  133.3010  150.9427 H   0  0  0  0  0  0  0  0  0  0  0  0
  146.6306  131.2313  150.0095 H   0  0  0  0  0  0  0  0  0  0  0  0
  144.1283  131.0138  150.0183 H   0  0  0  0  0  0  0  0  0  0  0  0
  142.7735  132.8984  150.9722 H   0  0  0  0  0  0  0  0  0  0  0  0
  149.7953  137.8898  153.5821 H   0  0  0  0  0  0  0  0  0  0  0  0
  150.4167  139.3929  152.9392 H   0  0  0  0  0  0  0  0  0  0  0  0
  150.7750  138.3897  155.8101 H   0  0  0  0  0  0  0  0  0  0  0  0
  152.2614  137.2334  154.1622 H   0  0  0  0  0  0  0  0  0  0  0  0
  153.1864  138.2879  155.2269 H   0  0  0  0  0  0  0  0  0  0  0  0
  152.8334  138.7954  153.5769 H   0  0  0  0  0  0  0  0  0  0  0  0
  1  2  1  0  0  0  0
  1 21  1  0  0  0  0
  1 22  1  0  0  0  0
  1 23  1  0  0  0  0
  2 20  1  0  0  0  0
  2  3  1  0  0  0  0
  2 24  1  0  0  0  0
  3  4  1  0  0  0  0
  3 25  1  0  0  0  0
  3 26  1  0  0  0  0
  4  5  1  0  0  0  0
  4 17  1  0  0  0  0
  5  6  1  0  0  0  0
  5 27  1  0  0  0  0
  5 28  1  0  0  0  0
  6  7  1  0  0  0  0
  6 29  1  0  0  0  0
  6 30  1  0  0  0  0
  7  8  1  0  0  0  0
  7 31  1  0  0  0  0
  8  9  2  0  0  0  0
  8 10  1  0  0  0  0
 10 11  1  0  0  0  0
 10 32  1  0  0  0  0
 11 16  1  0  0  0  0
 11 12  2  0  0  0  0
 12 13  1  0  0  0  0
 12 33  1  0  0  0  0
 13 14  2  0  0  0  0
 13 34  1  0  0  0  0
 14 15  1  0  0  0  0
 14 35  1  0  0  0  0
 15 16  2  0  0  0  0
 15 36  1  0  0  0  0
 17 18  1  0  0  0  0
 17 37  1  0  0  0  0
 17 38  1  0  0  0  0
 18 19  1  0  0  0  0
 18 20  1  0  0  0  0
 18 39  1  0  0  0  0
 19 40  1  0  0  0  0
 19 41  1  0  0  0  0
 19 42  1  0  0  0  0
M  END
> <s_m_source_file>
AV-unprocessed.smi

> <i_m_source_file_index>
1231

> <i_lp_mmshare_version>
43012

> <i_f3d_flags>
0

> <s_epik_input>
W0NIM11bQ0BASF0xW0NIMl1OKFtDSDJdW0NASF0oTzEpW0NIM10pW0NIMl1bQ0gyXVtOSF1DKD1PKVtOSF1jMltjSF1bY0hdW2NIXVtjSF1uMg==

> <s_epik_cmdline>
J2VwaWtfcHl0aG9uJywgJy1waCcsICc3LjAnLCAnLXRuJywgJzgnLCAnLW1hJywgJzIwMCcsICctbWV0YWxfYmluZGluZycsICctaW1hZScsICc8aW5maWxlLm1hZT4nLCAnLW9tYWUnLCAnPG91dGZpbGUubWFlPic=

> <r_epik_Ionization_Penalty>
0.266037

> <r_epik_Ionization_Penalty_Charging>
0

> <r_epik_Ionization_Penalty_Neutral>
0.266037

> <r_epik_State_Penalty>
0.257924

> <r_epik_Charging_Adjusted_Penalty>
0.257924

> <i_epik_Tot_Q>
0

> <i_epik_Tot_abs_Q>
0

> <r_epik_Metal_State_Penalty>
0.257923

> <b_epik_Metal_Only>
0

> <s_lp_Force_Field>
OPLS_2005

> <r_lp_Energy>
20.5827

> <b_lp_Chiralities_Consistent>
1

> <s_lp_Variant>
AV-unprocessed.smi:1231-2

> <Gold.Version>
5.8.1

> <Gold.Id.Protein>
6NUR|6NUR_protein|mol2

> <Gold.PLP.Fitness>
45.4045

> <Gold.PLP.PLP>
-36.1244

> <Gold.PLP.part.hbond>
-3.0000

> <Gold.PLP.part.metal>
0.0000

> <Gold.PLP.part.buried>
-1.2687

> <Gold.PLP.part.nonpolar>
-32.7666

> <Gold.PLP.part.repulsive>
0.5707

> <Gold.PLP.ligand.clash>
0.0000

> <Gold.PLP.ligand.torsion>
1.0674

> <Gold.PLP.Chemscore.Hbond>
2.7920

> <Gold.PLP.Chemscore.CHOScore>
0.9994

> <Gold.PLP.Chemscore.Metal>
0.0000

> <Gold.Chemscore.Hbonds>
donor molecule, donor type, donor heavy atom, donor atom, acceptor molecule, acceptor atom, score
      L1  H     7    31       P1  7948  1.00
      L1  H    10    32       P1  7948  0.96
      P1  H  7989  7998       L1    20  0.73
      L1  C    15    36       P1 10186  0.49

> <Gold.PLP.Chemscore.Internal.Correction>
0.0408

> <Gold.Rescore>
     Score         DG    S(hbond)    S(metal)    S(lipo)     H(rot)  DE(clash)    DE(int)     intcor
     16.81     -19.17       2.13        0.00      89.49       1.52       0.08       2.28       ----

> <Gold.Chemscore.Fitness>
16.8068

> <Gold.Chemscore.DG>
-19.1672

> <Gold.Chemscore.ZeroCoef>
-5.4800

> <Gold.Chemscore.Hbond>
2.1254

> <Gold.Chemscore.Metal>
0.0000

> <Gold.Chemscore.Lipo>
89.4860

> <Gold.Chemscore.Internal_Hbond>
0.0000

> <Gold.Chemscore.DEClash>
0.0798

> <Gold.Chemscore.DEInternal>
2.2807

> <Gold.Chemscore.Rot>
1.5162

> <Gold.Chemscore.Internal.Correction>
   9.000000E+99

> <Gold.Chemscore.Hbonds>
donor molecule, donor type, donor heavy atom, donor atom, acceptor molecule, acceptor atom, score
      L1  H     7    31       P1  7948  0.94
      L1  H    10    32       P1  7948  0.91
      P1  H  7989  7998       L1    20  0.04

> <Gold.Chemscore.Hbond.Weighted>
-7.0988

> <Gold.Chemscore.Metal.Weighted>
-0.0000

> <Gold.Chemscore.Lipo.Weighted>
-10.4699

> <Gold.Chemscore.Internal_Hbond.Weighted>
0.0000

> <Gold.Chemscore.DEClash.Weighted>
0.0798

> <Gold.Chemscore.DEInternal.Weighted>
2.2807

> <Gold.Chemscore.Rot.Weighted>
3.8814

> <Gold.Chemscore.Internal.Correction.Weighted>
   9.000000E+99

> <Gold.Protein.RotatedTorsions>
[ 6907 6896 6895 6894 ] final  -75.71 input  -60.11 | X-H torsion
[ 7974 7965 7964 7962 ] final   60.49 input  175.53 | X-H torsion
[ 8008 7997 7996 7995 ] final  -65.33 input   59.86 | X-H torsion
[ 10167 10162 10161 10158 ] final  139.02 input  -65.29 | X-H torsion
[ 10718 10713 10712 10709 ] final   44.47 input   66.30 | X-H torsion
[ 10763 10752 10751 10750 ] final -113.44 input  -60.55 | X-H torsion
[ 11005 11000 10999 10996 ] final -166.21 input  -57.11 | X-H torsion

> <Gold.Protein.ActiveResidues>
 VAL166  LYS551  ARG553  GLY616  TRP617  ASP618  TYR619  PRO620  LYS621  CYS622 
 ASP623  PHE694  ASN695  SER759  ASP760  ASP761  ALA762  ILE779  LEU786  VAL792 
 PHE793  MET794  SER795  GLU796  ALA797  LYS798  CYS799  TRP800  GLU811  SER814 

> <Gold.Protein.RotatedAtoms>
  150.7050  134.4681  159.5412 H   0  0  0  0  0  0  0  0  0  0  0  0  # atno 6907 bound_to 6896
  152.2343  134.8289  160.0478 H   0  0  0  0  0  0  0  0  0  0  0  0  # atno 6908 bound_to 6896
  151.9094  133.3522  159.3895 H   0  0  0  0  0  0  0  0  0  0  0  0  # atno 6909 bound_to 6896
  145.8954  139.3542  143.0624 H   0  0  0  0  0  0  0  0  0  0  0  0  # atno 7974 bound_to 7965
  154.4665  140.0935  156.7033 H   0  0  0  0  0  0  0  0  0  0  0  0  # atno 8008 bound_to 7997
  155.4844  140.3468  155.4326 H   0  0  0  0  0  0  0  0  0  0  0  0  # atno 8009 bound_to 7997
  156.0965  140.1411  156.9513 H   0  0  0  0  0  0  0  0  0  0  0  0  # atno 8010 bound_to 7997
  139.5092  144.6319  151.5795 H   0  0  0  0  0  0  0  0  0  0  0  0  # atno 10167 bound_to 10162
  157.4271  130.8003  149.7569 H   0  0  0  0  0  0  0  0  0  0  0  0  # atno 10718 bound_to 10713
  154.8396  135.4454  154.1350 H   0  0  0  0  0  0  0  0  0  0  0  0  # atno 10763 bound_to 10752
  153.2550  135.6930  153.7645 H   0  0  0  0  0  0  0  0  0  0  0  0  # atno 10764 bound_to 10752
  153.6943  135.3382  155.3185 H   0  0  0  0  0  0  0  0  0  0  0  0  # atno 10765 bound_to 10752
  140.5670  134.5276  157.5154 H   0  0  0  0  0  0  0  0  0  0  0  0  # atno 11005 bound_to 11000
  145.8856  140.9335  143.0578 LP  0  0  0  0  0  0  0  0  0  0  0  0  # atno 17320 bound_to 7965
  144.6732  140.0838  143.7468 LP  0  0  0  0  0  0  0  0  0  0  0  0  # atno 17321 bound_to 7965
  140.6055  143.9532  150.6416 LP  0  0  0  0  0  0  0  0  0  0  0  0  # atno 17342 bound_to 10162
  140.2757  143.3424  152.1197 LP  0  0  0  0  0  0  0  0  0  0  0  0  # atno 17343 bound_to 10162
  155.9900  130.3947  150.3047 LP  0  0  0  0  0  0  0  0  0  0  0  0  # atno 17370 bound_to 10713
  157.1200  131.0244  151.3013 LP  0  0  0  0  0  0  0  0  0  0  0  0  # atno 17371 bound_to 10713
  139.9380  134.7839  156.0752 LP  0  0  0  0  0  0  0  0  0  0  0  0  # atno 17394 bound_to 11000
  141.1080  133.6653  156.2909 LP  0  0  0  0  0  0  0  0  0  0  0  0  # atno 17395 bound_to 11000

$$$$
