AV-unprocessed.smi:1662|AV-procd|sdf|6659|dock1
  -GOLD-   22720 7373D 1   1.00000     0.00000
 Structure written by MMmdl.
 47 48  0  0  0  0  0  0  0  0  1 V2000
  150.4091  134.2611  155.2680 C   0  0  0  0  0  0  0  0  0  0  0  0
  150.2138  135.4257  156.2008 C   0  0  0  0  0  0  0  0  0  0  0  0
  150.5864  136.5851  155.7676 N   0  0  0  0  0  0  0  0  0  0  0  0
  150.4574  137.7193  156.5458 N   0  0  0  0  0  0  0  0  0  0  0  0
  150.9443  138.9481  155.9014 C   0  0  0  0  0  0  0  0  0  0  0  0
  152.0403  139.6640  156.7041 C   0  0  0  0  0  0  0  0  0  0  0  0
  153.2320  139.4602  156.4671 O   0  0  0  0  0  0  0  0  0  0  0  0
  151.6128  140.5183  157.6462 N   0  0  0  0  0  0  0  0  0  0  0  0
  152.4695  141.3146  158.5235 C   0  0  2  0  0  0  0  0  0  0  0  0
  153.0602  140.4051  159.6190 C   0  0  0  0  0  0  0  0  0  0  0  0
  153.9298  141.2009  160.5961 C   0  0  0  0  0  0  0  0  0  0  0  0
  153.1256  142.3437  161.2241 C   0  0  0  0  0  0  0  0  0  0  0  0
  152.5408  143.2890  160.1556 C   0  0  2  0  0  0  0  0  0  0  0  0
  151.7742  144.4319  160.8469 C   0  0  0  0  0  0  0  0  0  0  0  0
  151.6758  142.5064  159.1263 C   0  0  1  0  0  0  0  0  0  0  0  0
  151.1296  143.4277  158.0130 C   0  0  0  0  0  0  0  0  0  0  0  0
  149.9375  137.7409  157.8072 C   0  0  0  0  0  0  0  0  0  0  0  0
  149.8402  138.7775  158.4661 O   0  0  0  0  0  0  0  0  0  0  0  0
  149.5150  136.4244  158.2901 C   0  0  0  0  0  0  0  0  0  0  0  0
  148.9676  136.4010  159.6082 C   0  0  0  0  0  0  0  0  0  0  0  0
  148.5331  136.4015  160.6814 N   0  0  0  0  0  0  0  0  0  0  0  0
  149.6364  135.3036  157.5356 C   0  0  0  0  0  0  0  0  0  0  0  0
  149.2133  133.9142  157.9921 C   0  0  0  0  0  0  0  0  0  0  0  0
  149.4485  133.8479  154.9601 H   0  0  0  0  0  0  0  0  0  0  0  0
  150.9796  133.4680  155.7515 H   0  0  0  0  0  0  0  0  0  0  0  0
  150.9496  134.5490  154.3652 H   0  0  0  0  0  0  0  0  0  0  0  0
  151.3454  138.7223  154.9115 H   0  0  0  0  0  0  0  0  0  0  0  0
  150.1112  139.6325  155.7297 H   0  0  0  0  0  0  0  0  0  0  0  0
  150.6162  140.6262  157.7676 H   0  0  0  0  0  0  0  0  0  0  0  0
  153.2929  141.7254  157.9356 H   0  0  0  0  0  0  0  0  0  0  0  0
  152.2548  139.9138  160.1671 H   0  0  0  0  0  0  0  0  0  0  0  0
  153.6564  139.6102  159.1693 H   0  0  0  0  0  0  0  0  0  0  0  0
  154.3117  140.5417  161.3760 H   0  0  0  0  0  0  0  0  0  0  0  0
  154.7995  141.6028  160.0748 H   0  0  0  0  0  0  0  0  0  0  0  0
  152.3198  141.9299  161.8321 H   0  0  0  0  0  0  0  0  0  0  0  0
  153.7688  142.9018  161.9055 H   0  0  0  0  0  0  0  0  0  0  0  0
  153.3794  143.7362  159.6197 H   0  0  0  0  0  0  0  0  0  0  0  0
  150.8689  144.0657  161.3317 H   0  0  0  0  0  0  0  0  0  0  0  0
  151.4882  145.2147  160.1455 H   0  0  0  0  0  0  0  0  0  0  0  0
  152.3886  144.9075  161.6118 H   0  0  0  0  0  0  0  0  0  0  0  0
  150.8172  142.0957  159.6606 H   0  0  0  0  0  0  0  0  0  0  0  0
  151.9409  143.9167  157.4729 H   0  0  0  0  0  0  0  0  0  0  0  0
  150.4778  144.2038  158.4121 H   0  0  0  0  0  0  0  0  0  0  0  0
  150.5339  142.8785  157.2842 H   0  0  0  0  0  0  0  0  0  0  0  0
  148.6953  133.9354  158.9502 H   0  0  0  0  0  0  0  0  0  0  0  0
  150.0852  133.2690  158.1022 H   0  0  0  0  0  0  0  0  0  0  0  0
  148.5367  133.4585  157.2687 H   0  0  0  0  0  0  0  0  0  0  0  0
  1  2  1  0  0  0  0
  1 24  1  0  0  0  0
  1 25  1  0  0  0  0
  1 26  1  0  0  0  0
  2 22  1  0  0  0  0
  2  3  2  0  0  0  0
  3  4  1  0  0  0  0
  4  5  1  0  0  0  0
  4 17  1  0  0  0  0
  5  6  1  0  0  0  0
  5 27  1  0  0  0  0
  5 28  1  0  0  0  0
  6  7  2  0  0  0  0
  6  8  1  0  0  0  0
  8  9  1  0  0  0  0
  8 29  1  0  0  0  0
  9 15  1  0  0  0  0
  9 10  1  0  0  0  0
  9 30  1  0  0  0  0
 10 11  1  0  0  0  0
 10 31  1  0  0  0  0
 10 32  1  0  0  0  0
 11 12  1  0  0  0  0
 11 33  1  0  0  0  0
 11 34  1  0  0  0  0
 12 13  1  0  0  0  0
 12 35  1  0  0  0  0
 12 36  1  0  0  0  0
 13 14  1  0  0  0  0
 13 15  1  0  0  0  0
 13 37  1  0  0  0  0
 14 38  1  0  0  0  0
 14 39  1  0  0  0  0
 14 40  1  0  0  0  0
 15 16  1  0  0  0  0
 15 41  1  0  0  0  0
 16 42  1  0  0  0  0
 16 43  1  0  0  0  0
 16 44  1  0  0  0  0
 17 18  2  0  0  0  0
 17 19  1  0  0  0  0
 19 20  1  0  0  0  0
 19 22  2  0  0  0  0
 20 21  3  0  0  0  0
 22 23  1  0  0  0  0
 23 45  1  0  0  0  0
 23 46  1  0  0  0  0
 23 47  1  0  0  0  0
M  END
> <s_m_source_file>
AV-unprocessed.smi

> <i_m_source_file_index>
1662

> <i_lp_mmshare_version>
43012

> <i_f3d_flags>
0

> <s_epik_input>
TiNDYyhjMVtDSDNdKWMoPU8pbihuYzFbQ0gzXSlbQ0gyXUMoPU8pW05IXVtDQEBIXTJbQ0gyXVtDSDJdW0NIMl1bQ0BASF0oW0NIM10pW0NASF0yW0NIM10=

> <s_epik_cmdline>
J2VwaWtfcHl0aG9uJywgJy1waCcsICc3LjAnLCAnLXRuJywgJzgnLCAnLW1hJywgJzIwMCcsICctbWV0YWxfYmluZGluZycsICctaW1hZScsICc8aW5maWxlLm1hZT4nLCAnLW9tYWUnLCAnPG91dGZpbGUubWFlPic=

> <r_lp_tautomer_probability>
1

> <r_epik_Ionization_Penalty>
1.90709e-08

> <r_epik_Ionization_Penalty_Charging>
2.37982e-11

> <r_epik_Ionization_Penalty_Neutral>
1.90471e-08

> <r_epik_State_Penalty>
-0

> <r_epik_Charging_Adjusted_Penalty>
2.37982e-11

> <i_epik_Tot_Q>
0

> <i_epik_Tot_abs_Q>
0

> <r_epik_Metal_State_Penalty>
-0

> <b_epik_Metal_Only>
0

> <s_lp_Force_Field>
OPLS_2005

> <r_lp_Energy>
27.4579

> <b_lp_Chiralities_Consistent>
1

> <s_lp_Variant>
AV-unprocessed.smi:1662-3

> <Gold.Version>
5.8.1

> <Gold.Id.Protein>
6NUR|6NUR_protein|mol2

> <Gold.PLP.Fitness>
45.0602

> <Gold.PLP.PLP>
-38.0022

> <Gold.PLP.part.hbond>
-2.8036

> <Gold.PLP.part.metal>
0.0000

> <Gold.PLP.part.buried>
-6.1663

> <Gold.PLP.part.nonpolar>
-30.7781

> <Gold.PLP.part.repulsive>
0.1064

> <Gold.PLP.ligand.clash>
0.0000

> <Gold.PLP.ligand.torsion>
0.5970

> <Gold.PLP.Chemscore.Hbond>
2.7440

> <Gold.PLP.Chemscore.CHOScore>
0.0000

> <Gold.PLP.Chemscore.Metal>
0.0000

> <Gold.Chemscore.Hbonds>
donor molecule, donor type, donor heavy atom, donor atom, acceptor molecule, acceptor atom, score
      P1  H  6931  6943       L1    21  0.41
      P1  H  7997  8008       L1     7  0.41

> <Gold.PLP.Chemscore.Internal.Correction>
0.0200

> <Gold.Rescore>
     Score         DG    S(hbond)    S(metal)    S(lipo)     H(rot)  DE(clash)    DE(int)     intcor
     18.36     -20.28       1.92        0.00     103.27       1.45       0.03       1.89       ----

> <Gold.Chemscore.Fitness>
18.3564

> <Gold.Chemscore.DG>
-20.2765

> <Gold.Chemscore.ZeroCoef>
-5.4800

> <Gold.Chemscore.Hbond>
1.9242

> <Gold.Chemscore.Metal>
0.0000

> <Gold.Chemscore.Lipo>
103.2691

> <Gold.Chemscore.Internal_Hbond>
0.0000

> <Gold.Chemscore.DEClash>
0.0323

> <Gold.Chemscore.DEInternal>
1.8878

> <Gold.Chemscore.Rot>
1.4504

> <Gold.Chemscore.Internal.Correction>
   9.000000E+99

> <Gold.Chemscore.Hbonds>
donor molecule, donor type, donor heavy atom, donor atom, acceptor molecule, acceptor atom, score
      P1  H  6931  6943       L1    21  0.35
      P1  H  7997  8008       L1     7  0.41

> <Gold.Chemscore.Hbond.Weighted>
-6.4269

> <Gold.Chemscore.Metal.Weighted>
-0.0000

> <Gold.Chemscore.Lipo.Weighted>
-12.0825

> <Gold.Chemscore.Internal_Hbond.Weighted>
0.0000

> <Gold.Chemscore.DEClash.Weighted>
0.0323

> <Gold.Chemscore.DEInternal.Weighted>
1.8878

> <Gold.Chemscore.Rot.Weighted>
3.7129

> <Gold.Chemscore.Internal.Correction.Weighted>
   9.000000E+99

> <Gold.Protein.RotatedTorsions>
[ 6907 6896 6895 6894 ] final  172.21 input  -60.11 | X-H torsion
[ 7974 7965 7964 7962 ] final    0.36 input  175.53 | X-H torsion
[ 8008 7997 7996 7995 ] final  -41.65 input   59.86 | X-H torsion
[ 10167 10162 10161 10158 ] final  151.40 input  -65.29 | X-H torsion
[ 10718 10713 10712 10709 ] final   75.43 input   66.30 | X-H torsion
[ 10763 10752 10751 10750 ] final   73.51 input  -60.55 | X-H torsion
[ 11005 11000 10999 10996 ] final -174.68 input  -57.11 | X-H torsion

> <Gold.Protein.ActiveResidues>
 VAL166  LYS551  ARG553  GLY616  TRP617  ASP618  TYR619  PRO620  LYS621  CYS622 
 ASP623  PHE694  ASN695  SER759  ASP760  ASP761  ALA762  ILE779  LEU786  VAL792 
 PHE793  MET794  SER795  GLU796  ALA797  LYS798  CYS799  TRP800  GLU811  SER814 

> <Gold.Protein.RotatedAtoms>
  151.7879  133.3356  159.3490 H   0  0  0  0  0  0  0  0  0  0  0  0  # atno 6907 bound_to 6896
  150.7402  134.5870  159.5977 H   0  0  0  0  0  0  0  0  0  0  0  0  # atno 6908 bound_to 6896
  152.3231  134.7357  160.0360 H   0  0  0  0  0  0  0  0  0  0  0  0  # atno 6909 bound_to 6896
  146.2434  140.1149  142.8342 H   0  0  0  0  0  0  0  0  0  0  0  0  # atno 7974 bound_to 7965
  154.4003  140.1494  156.3226 H   0  0  0  0  0  0  0  0  0  0  0  0  # atno 8008 bound_to 7997
  155.8516  140.3457  155.5675 H   0  0  0  0  0  0  0  0  0  0  0  0  # atno 8009 bound_to 7997
  155.7978  140.0866  157.1964 H   0  0  0  0  0  0  0  0  0  0  0  0  # atno 8010 bound_to 7997
  139.4841  144.5444  151.7510 H   0  0  0  0  0  0  0  0  0  0  0  0  # atno 10167 bound_to 10162
  157.6633  130.9726  150.1352 H   0  0  0  0  0  0  0  0  0  0  0  0  # atno 10718 bound_to 10713
  153.0526  135.5060  154.7905 H   0  0  0  0  0  0  0  0  0  0  0  0  # atno 10763 bound_to 10752
  154.6755  135.2960  154.9687 H   0  0  0  0  0  0  0  0  0  0  0  0  # atno 10764 bound_to 10752
  154.0490  135.6706  153.4851 H   0  0  0  0  0  0  0  0  0  0  0  0  # atno 10765 bound_to 10752
  140.4718  134.6158  157.4885 H   0  0  0  0  0  0  0  0  0  0  0  0  # atno 11005 bound_to 11000
  145.0455  140.8978  143.5027 LP  0  0  0  0  0  0  0  0  0  0  0  0  # atno 17320 bound_to 7965
  145.1238  139.2676  143.5575 LP  0  0  0  0  0  0  0  0  0  0  0  0  # atno 17321 bound_to 7965
  140.4988  144.1200  150.5966 LP  0  0  0  0  0  0  0  0  0  0  0  0  # atno 17342 bound_to 10162
  140.4086  143.2668  151.9860 LP  0  0  0  0  0  0  0  0  0  0  0  0  # atno 17343 bound_to 10162
  156.2189  130.3672  149.8580 LP  0  0  0  0  0  0  0  0  0  0  0  0  # atno 17370 bound_to 10713
  156.6438  130.8716  151.3519 LP  0  0  0  0  0  0  0  0  0  0  0  0  # atno 17371 bound_to 10713
  139.9880  134.7030  155.9739 LP  0  0  0  0  0  0  0  0  0  0  0  0  # atno 17394 bound_to 11000
  141.1573  133.6541  156.4204 LP  0  0  0  0  0  0  0  0  0  0  0  0  # atno 17395 bound_to 11000

$$$$
