AV-unprocessed.smi:2172|AV-procd|sdf|8834|dock4
  -GOLD-   2272012 23D 1   1.00000     0.00000
 Structure written by MMmdl.
 36 38  0  0  0  0  0  0  0  0  1 V2000
  151.9888  136.8738  154.2446 O   0  0  0  0  0  0  0  0  0  0  0  0
  151.4548  137.5742  155.3472 C   0  0  0  0  0  0  0  0  0  0  0  0
  150.3908  138.5560  154.9587 C   0  0  0  0  0  0  0  0  0  0  0  0
  149.2758  138.1676  154.3382 N   0  0  0  0  0  0  0  0  0  0  0  0
  148.5804  139.3510  154.1908 C   0  0  0  0  0  0  0  0  0  0  0  0
  147.3185  139.6077  153.6084 C   0  0  0  0  0  0  0  0  0  0  0  0
  146.7991  140.9186  153.5789 C   0  0  0  0  0  0  0  0  0  0  0  0
  147.5315  141.9888  154.1322 C   0  0  0  0  0  0  0  0  0  0  0  0
  148.7914  141.7548  154.7162 C   0  0  0  0  0  0  0  0  0  0  0  0
  149.3077  140.4449  154.7388 C   0  0  0  0  0  0  0  0  0  0  0  0
  150.4890  139.8860  155.2176 N   0  0  0  0  0  0  0  0  0  0  0  0
  151.5731  140.6117  155.8701 C   0  0  0  0  0  0  0  0  0  0  0  0
  151.5440  140.4804  157.4069 C   0  0  2  0  0  0  0  0  0  0  0  0
  150.3937  139.7656  157.8140 O   0  0  0  0  0  0  0  0  0  0  0  0
  151.6471  141.8417  158.0770 C   0  0  0  0  0  0  0  0  0  0  0  0
  152.0169  141.9301  159.4362 C   0  0  0  0  0  0  0  0  0  0  0  0
  152.1225  143.1869  160.0635 C   0  0  0  0  0  0  0  0  0  0  0  0
  151.8611  144.3630  159.3344 C   0  0  0  0  0  0  0  0  0  0  0  0
  151.9897  145.9022  160.1037 Cl  0  0  0  0  0  0  0  0  0  0  0  0
  151.4967  144.2815  157.9766 C   0  0  0  0  0  0  0  0  0  0  0  0
  151.3918  143.0249  157.3490 C   0  0  0  0  0  0  0  0  0  0  0  0
  152.3948  137.4969  153.6621 H   0  0  0  0  0  0  0  0  0  0  0  0
  151.0368  136.8483  156.0453 H   0  0  0  0  0  0  0  0  0  0  0  0
  152.2546  138.0885  155.8797 H   0  0  0  0  0  0  0  0  0  0  0  0
  146.7486  138.7940  153.1848 H   0  0  0  0  0  0  0  0  0  0  0  0
  145.8335  141.1032  153.1315 H   0  0  0  0  0  0  0  0  0  0  0  0
  147.1257  142.9896  154.1078 H   0  0  0  0  0  0  0  0  0  0  0  0
  149.3534  142.5728  155.1414 H   0  0  0  0  0  0  0  0  0  0  0  0
  152.5151  140.2209  155.4834 H   0  0  0  0  0  0  0  0  0  0  0  0
  151.5423  141.6622  155.5847 H   0  0  0  0  0  0  0  0  0  0  0  0
  152.3989  139.8848  157.7283 H   0  0  0  0  0  0  0  0  0  0  0  0
  149.6391  140.1448  157.3904 H   0  0  0  0  0  0  0  0  0  0  0  0
  152.2224  141.0339  160.0030 H   0  0  0  0  0  0  0  0  0  0  0  0
  152.4049  143.2471  161.1044 H   0  0  0  0  0  0  0  0  0  0  0  0
  151.2978  145.1820  157.4143 H   0  0  0  0  0  0  0  0  0  0  0  0
  151.1163  142.9736  156.3057 H   0  0  0  0  0  0  0  0  0  0  0  0
  1  2  1  0  0  0  0
  1 22  1  0  0  0  0
  2  3  1  0  0  0  0
  2 23  1  0  0  0  0
  2 24  1  0  0  0  0
  3 11  1  0  0  0  0
  3  4  2  0  0  0  0
  4  5  1  0  0  0  0
  5 10  2  0  0  0  0
  5  6  1  0  0  0  0
  6  7  2  0  0  0  0
  6 25  1  0  0  0  0
  7  8  1  0  0  0  0
  7 26  1  0  0  0  0
  8  9  2  0  0  0  0
  8 27  1  0  0  0  0
  9 10  1  0  0  0  0
  9 28  1  0  0  0  0
 10 11  1  0  0  0  0
 11 12  1  0  0  0  0
 12 13  1  0  0  0  0
 12 29  1  0  0  0  0
 12 30  1  0  0  0  0
 13 14  1  0  0  0  0
 13 15  1  0  0  0  0
 13 31  1  0  0  0  0
 14 32  1  0  0  0  0
 15 21  1  0  0  0  0
 15 16  2  0  0  0  0
 16 17  1  0  0  0  0
 16 33  1  0  0  0  0
 17 18  2  0  0  0  0
 17 34  1  0  0  0  0
 18 19  1  0  0  0  0
 18 20  1  0  0  0  0
 20 21  2  0  0  0  0
 20 35  1  0  0  0  0
 21 36  1  0  0  0  0
M  END
> <s_m_source_file>
AV-unprocessed.smi

> <i_m_source_file_index>
2172

> <i_lp_mmshare_version>
43012

> <i_f3d_flags>
0

> <s_epik_input>
W2NIXTFbY0hdW2NIXVtjSF1jKGMxMiluKGMobjIpW0NIMl1bT0hdKVtDSDJdW0NASF0oW09IXSljM1tjSF1bY0hdYyhDbClbY0hdW2NIXTM=

> <s_epik_cmdline>
J2VwaWtfcHl0aG9uJywgJy1waCcsICc3LjAnLCAnLXRuJywgJzgnLCAnLW1hJywgJzIwMCcsICctbWV0YWxfYmluZGluZycsICctaW1hZScsICc8aW5maWxlLm1hZT4nLCAnLW9tYWUnLCAnPG91dGZpbGUubWFlPic=

> <r_epik_Ionization_Penalty>
0.0634726

> <r_epik_Ionization_Penalty_Charging>
0

> <r_epik_Ionization_Penalty_Neutral>
0.0634726

> <r_epik_State_Penalty>
0.0551572

> <r_epik_Charging_Adjusted_Penalty>
0.0551572

> <i_epik_Tot_Q>
0

> <i_epik_Tot_abs_Q>
0

> <r_epik_Metal_State_Penalty>
5.78034e-05

> <b_epik_Metal_Only>
0

> <s_lp_Force_Field>
OPLS_2005

> <r_lp_Energy>
12.889

> <b_lp_Chiralities_Consistent>
1

> <s_lp_Variant>
AV-unprocessed.smi:2172-1

> <Gold.Version>
5.8.1

> <Gold.Id.Protein>
6NUR|6NUR_protein|mol2

> <Gold.PLP.Fitness>
49.7326

> <Gold.PLP.PLP>
-49.4569

> <Gold.PLP.part.hbond>
-1.8647

> <Gold.PLP.part.metal>
0.0000

> <Gold.PLP.part.buried>
-2.2663

> <Gold.PLP.part.nonpolar>
-45.4864

> <Gold.PLP.part.repulsive>
0.6230

> <Gold.PLP.ligand.clash>
0.0000

> <Gold.PLP.ligand.torsion>
1.3833

> <Gold.PLP.Chemscore.Hbond>
1.0000

> <Gold.PLP.Chemscore.CHOScore>
0.0000

> <Gold.PLP.Chemscore.Metal>
0.0000

> <Gold.Chemscore.Hbonds>
donor molecule, donor type, donor heavy atom, donor atom, acceptor molecule, acceptor atom, score
      P1  H 10752 10765       L1     1  0.78

> <Gold.PLP.Chemscore.Internal.Correction>
0.0423

> <Gold.Rescore>
     Score         DG    S(hbond)    S(metal)    S(lipo)     H(rot)  DE(clash)    DE(int)     intcor
     15.12     -17.13       0.81        0.00     133.82       2.62       0.55       1.47       ----

> <Gold.Chemscore.Fitness>
15.1170

> <Gold.Chemscore.DG>
-17.1301

> <Gold.Chemscore.ZeroCoef>
-5.4800

> <Gold.Chemscore.Hbond>
0.8111

> <Gold.Chemscore.Metal>
0.0000

> <Gold.Chemscore.Lipo>
133.8169

> <Gold.Chemscore.Internal_Hbond>
0.0000

> <Gold.Chemscore.DEClash>
0.5469

> <Gold.Chemscore.DEInternal>
1.4662

> <Gold.Chemscore.Rot>
2.6232

> <Gold.Chemscore.Internal.Correction>
   9.000000E+99

> <Gold.Chemscore.Hbonds>
donor molecule, donor type, donor heavy atom, donor atom, acceptor molecule, acceptor atom, score
      P1  H 10752 10765       L1     1  0.11

> <Gold.Chemscore.Hbond.Weighted>
-2.7089

> <Gold.Chemscore.Metal.Weighted>
-0.0000

> <Gold.Chemscore.Lipo.Weighted>
-15.6566

> <Gold.Chemscore.Internal_Hbond.Weighted>
0.0000

> <Gold.Chemscore.DEClash.Weighted>
0.5469

> <Gold.Chemscore.DEInternal.Weighted>
1.4662

> <Gold.Chemscore.Rot.Weighted>
6.7154

> <Gold.Chemscore.Internal.Correction.Weighted>
   9.000000E+99

> <Gold.Protein.RotatedTorsions>
[ 6907 6896 6895 6894 ] final  178.33 input  -60.11 | X-H torsion
[ 7974 7965 7964 7962 ] final  105.91 input  175.53 | X-H torsion
[ 8008 7997 7996 7995 ] final  177.62 input   59.86 | X-H torsion
[ 10167 10162 10161 10158 ] final  -60.26 input  -65.29 | X-H torsion
[ 10718 10713 10712 10709 ] final -113.05 input   66.30 | X-H torsion
[ 10763 10752 10751 10750 ] final  144.22 input  -60.55 | X-H torsion
[ 11005 11000 10999 10996 ] final -172.60 input  -57.11 | X-H torsion

> <Gold.Protein.ActiveResidues>
 VAL166  LYS551  ARG553  GLY616  TRP617  ASP618  TYR619  PRO620  LYS621  CYS622 
 ASP623  PHE694  ASN695  SER759  ASP760  ASP761  ALA762  ILE779  LEU786  VAL792 
 PHE793  MET794  SER795  GLU796  ALA797  LYS798  CYS799  TRP800  GLU811  SER814 

> <Gold.Protein.RotatedAtoms>
  151.6896  133.3311  159.3239 H   0  0  0  0  0  0  0  0  0  0  0  0  # atno 6907 bound_to 6896
  150.7785  134.6710  159.6401 H   0  0  0  0  0  0  0  0  0  0  0  0  # atno 6908 bound_to 6896
  152.3835  134.6557  160.0186 H   0  0  0  0  0  0  0  0  0  0  0  0  # atno 6909 bound_to 6896
  145.3135  139.2533  143.3750 H   0  0  0  0  0  0  0  0  0  0  0  0  # atno 7974 bound_to 7965
  156.0636  140.1354  156.9912 H   0  0  0  0  0  0  0  0  0  0  0  0  # atno 8008 bound_to 7997
  154.4494  140.0986  156.6625 H   0  0  0  0  0  0  0  0  0  0  0  0  # atno 8009 bound_to 7997
  155.5339  140.3459  155.4434 H   0  0  0  0  0  0  0  0  0  0  0  0  # atno 8010 bound_to 7997
  140.6082  143.2379  151.5770 H   0  0  0  0  0  0  0  0  0  0  0  0  # atno 10167 bound_to 10162
  156.0743  130.5952  150.8591 H   0  0  0  0  0  0  0  0  0  0  0  0  # atno 10718 bound_to 10713
  153.9852  135.2937  155.3417 H   0  0  0  0  0  0  0  0  0  0  0  0  # atno 10763 bound_to 10752
  154.7246  135.5094  153.8869 H   0  0  0  0  0  0  0  0  0  0  0  0  # atno 10764 bound_to 10752
  153.0835  135.6686  154.0111 H   0  0  0  0  0  0  0  0  0  0  0  0  # atno 10765 bound_to 10752
  140.4952  134.5947  157.4968 H   0  0  0  0  0  0  0  0  0  0  0  0  # atno 11005 bound_to 11000
  146.3109  140.3677  142.8671 LP  0  0  0  0  0  0  0  0  0  0  0  0  # atno 17320 bound_to 7965
  144.8996  140.7626  143.5875 LP  0  0  0  0  0  0  0  0  0  0  0  0  # atno 17321 bound_to 7965
  139.5341  144.2831  152.1213 LP  0  0  0  0  0  0  0  0  0  0  0  0  # atno 17342 bound_to 10162
  140.2025  144.4644  150.6425 LP  0  0  0  0  0  0  0  0  0  0  0  0  # atno 17343 bound_to 10162
  157.5830  131.0946  150.9241 LP  0  0  0  0  0  0  0  0  0  0  0  0  # atno 17370 bound_to 10713
  156.9432  130.5392  149.5280 LP  0  0  0  0  0  0  0  0  0  0  0  0  # atno 17371 bound_to 10713
  139.9746  134.7237  155.9975 LP  0  0  0  0  0  0  0  0  0  0  0  0  # atno 17394 bound_to 11000
  141.1464  133.6555  156.3880 LP  0  0  0  0  0  0  0  0  0  0  0  0  # atno 17395 bound_to 11000

$$$$
