AV-unprocessed.smi:2072|AV-procd|sdf|8448|dock2
  -GOLD-   2272011143D 1   1.00000     0.00000
 Structure written by MMmdl.
 40 42  0  0  0  0  0  0  0  0  2 V2000
  145.2361  138.3601  153.2596 O   0  0  0  0  0  0  0  0  0  0  0  0
  146.1749  137.7050  152.8085 C   0  0  0  0  0  0  0  0  0  0  0  0
  147.4783  137.9993  152.9535 N   0  0  0  0  0  0  0  0  0  0  0  0
  148.0802  139.1028  153.6187 C   0  0  0  0  0  0  0  0  0  0  0  0
  147.3887  140.2625  154.0476 C   0  0  0  0  0  0  0  0  0  0  0  0
  148.1124  141.2889  154.6848 C   0  0  0  0  0  0  0  0  0  0  0  0
  149.4993  141.1243  154.8645 C   0  0  0  0  0  0  0  0  0  0  0  0
  150.1730  140.0303  154.4523 N   0  0  0  0  0  0  0  0  0  0  0  0
  149.4727  139.0500  153.8432 C   0  0  0  0  0  0  0  0  0  0  0  0
  146.0084  136.5794  152.0999 N   0  0  0  0  0  0  0  0  0  0  0  0
  144.7130  135.9859  151.7782 C   0  0  2  0  0  0  0  0  0  0  0  0
  143.9637  135.4653  152.9981 C   0  0  0  0  0  0  0  0  0  0  0  0
  142.9316  134.5109  152.3878 C   0  0  0  0  0  0  0  0  0  0  0  0
  143.4983  134.0271  151.1044 N   0  3  2  0  0  0  0  0  0  0  0  0
  143.5751  132.5453  150.9971 C   0  0  0  0  0  0  0  0  0  0  0  0
  144.5123  132.1235  149.8553 C   0  0  0  0  0  0  0  0  0  0  0  0
  145.9524  132.6152  150.0956 C   0  0  0  0  0  0  0  0  0  0  0  0
  146.0096  133.8365  151.0332 C   0  0  0  0  0  0  0  0  0  0  0  0
  144.7754  134.7544  150.8538 C   0  0  2  0  0  0  0  0  0  0  0  0
  148.1271  137.3274  152.5702 H   0  0  0  0  0  0  0  0  0  0  0  0
  146.3296  140.3963  153.8953 H   0  0  0  0  0  0  0  0  0  0  0  0
  147.6148  142.1851  155.0247 H   0  0  0  0  0  0  0  0  0  0  0  0
  150.0835  141.8936  155.3478 H   0  0  0  0  0  0  0  0  0  0  0  0
  150.0458  138.1909  153.5258 H   0  0  0  0  0  0  0  0  0  0  0  0
  146.8309  136.0967  151.7677 H   0  0  0  0  0  0  0  0  0  0  0  0
  144.0866  136.7458  151.3058 H   0  0  0  0  0  0  0  0  0  0  0  0
  144.6392  134.9106  153.6513 H   0  0  0  0  0  0  0  0  0  0  0  0
  143.5050  136.2613  153.5857 H   0  0  0  0  0  0  0  0  0  0  0  0
  142.6757  133.7044  153.0765 H   0  0  0  0  0  0  0  0  0  0  0  0
  142.0101  135.0496  152.1645 H   0  0  0  0  0  0  0  0  0  0  0  0
  143.9388  132.1179  151.9331 H   0  0  0  0  0  0  0  0  0  0  0  0
  142.5719  132.1484  150.8383 H   0  0  0  0  0  0  0  0  0  0  0  0
  144.5050  131.0400  149.7339 H   0  0  0  0  0  0  0  0  0  0  0  0
  144.1371  132.5369  148.9180 H   0  0  0  0  0  0  0  0  0  0  0  0
  146.5571  131.8137  150.5212 H   0  0  0  0  0  0  0  0  0  0  0  0
  146.4077  132.8599  149.1352 H   0  0  0  0  0  0  0  0  0  0  0  0
  146.0579  133.4956  152.0684 H   0  0  0  0  0  0  0  0  0  0  0  0
  146.9373  134.3793  150.8502 H   0  0  0  0  0  0  0  0  0  0  0  0
  144.7695  135.0945  149.8170 H   0  0  0  0  0  0  0  0  0  0  0  0
  142.8631  134.3351  150.3819 H   0  0  0  0  0  0  0  0  0  0  0  0
  1  2  2  0  0  0  0
  2  3  1  0  0  0  0
  2 10  1  0  0  0  0
  3  4  1  0  0  0  0
  3 20  1  0  0  0  0
  4  9  1  0  0  0  0
  4  5  2  0  0  0  0
  5  6  1  0  0  0  0
  5 21  1  0  0  0  0
  6  7  2  0  0  0  0
  6 22  1  0  0  0  0
  7  8  1  0  0  0  0
  7 23  1  0  0  0  0
  8  9  2  0  0  0  0
  9 24  1  0  0  0  0
 10 11  1  0  0  0  0
 10 25  1  0  0  0  0
 11 19  1  0  0  0  0
 11 12  1  0  0  0  0
 11 26  1  0  0  0  0
 12 13  1  0  0  0  0
 12 27  1  0  0  0  0
 12 28  1  0  0  0  0
 13 14  1  0  0  0  0
 13 29  1  0  0  0  0
 13 30  1  0  0  0  0
 14 19  1  0  0  0  0
 14 15  1  0  0  0  0
 14 40  1  0  0  0  0
 15 16  1  0  0  0  0
 15 31  1  0  0  0  0
 15 32  1  0  0  0  0
 16 17  1  0  0  0  0
 16 33  1  0  0  0  0
 16 34  1  0  0  0  0
 17 18  1  0  0  0  0
 17 35  1  0  0  0  0
 17 36  1  0  0  0  0
 18 19  1  0  0  0  0
 18 37  1  0  0  0  0
 18 38  1  0  0  0  0
 19 39  1  0  0  0  0
M  CHG  1  14   1
M  END
> <s_m_source_file>
AV-unprocessed.smi

> <i_m_source_file_index>
2072

> <i_lp_mmshare_version>
43012

> <i_f3d_flags>
0

> <s_epik_input>
W0NIMl0xW0NIMl1bQ0gyXVtDSDJdW0NASF0oTjEyKVtDQEBIXShbQ0gyXVtDSDJdMilbTkhdQyg9TylbTkhdYzNbY0hdW2NIXVtjSF1uW2NIXTM=

> <s_epik_cmdline>
J2VwaWtfcHl0aG9uJywgJy1waCcsICc3LjAnLCAnLXRuJywgJzgnLCAnLW1hJywgJzIwMCcsICctbWV0YWxfYmluZGluZycsICctaW1hZScsICc8aW5maWxlLm1hZT4nLCAnLW9tYWUnLCAnPG91dGZpbGUubWFlPic=

> <r_lp_tautomer_probability>
1

> <r_epik_Ionization_Penalty>
0.00482425

> <r_epik_Ionization_Penalty_Charging>
0.000974069

> <r_epik_Ionization_Penalty_Neutral>
0.00385018

> <r_epik_State_Penalty>
-0

> <r_epik_Charging_Adjusted_Penalty>
0.000974069

> <i_epik_Tot_Q>
1

> <i_epik_Tot_abs_Q>
1

> <r_epik_Metal_State_Penalty>
-0

> <b_epik_Metal_Only>
0

> <s_lp_Force_Field>
OPLS_2005

> <r_lp_Energy>
44.3758

> <b_lp_Chiralities_Consistent>
1

> <s_lp_Variant>
AV-unprocessed.smi:2072-7

> <Gold.Version>
5.8.1

> <Gold.Id.Protein>
6NUR|6NUR_protein|mol2

> <Gold.PLP.Fitness>
49.1112

> <Gold.PLP.PLP>
-34.0023

> <Gold.PLP.part.hbond>
-4.0000

> <Gold.PLP.part.metal>
0.0000

> <Gold.PLP.part.buried>
-3.0329

> <Gold.PLP.part.nonpolar>
-30.9594

> <Gold.PLP.part.repulsive>
3.1333

> <Gold.PLP.ligand.clash>
0.0000

> <Gold.PLP.ligand.torsion>
0.0662

> <Gold.PLP.Chemscore.Hbond>
4.7030

> <Gold.PLP.Chemscore.CHOScore>
0.3768

> <Gold.PLP.Chemscore.Metal>
0.0000

> <Gold.Chemscore.Hbonds>
donor molecule, donor type, donor heavy atom, donor atom, acceptor molecule, acceptor atom, score
      L1  H     3    20       P1  7948  1.00
      L1  H    10    25       P1  7948  0.69
      L1  H    14    40       P1 10186  2.00
      P1  H  7989  7998       L1     8  1.00
      L1  C     9    24       P1  7948  0.38

> <Gold.PLP.Chemscore.Internal.Correction>
0.0016

> <Gold.Rescore>
     Score         DG    S(hbond)    S(metal)    S(lipo)     H(rot)  DE(clash)    DE(int)     intcor
     19.98     -23.78       3.18        0.00      87.45       1.00       2.61       1.18       ----

> <Gold.Chemscore.Fitness>
19.9834

> <Gold.Chemscore.DG>
-23.7797

> <Gold.Chemscore.ZeroCoef>
-5.4800

> <Gold.Chemscore.Hbond>
3.1819

> <Gold.Chemscore.Metal>
0.0000

> <Gold.Chemscore.Lipo>
87.4534

> <Gold.Chemscore.Internal_Hbond>
0.0000

> <Gold.Chemscore.DEClash>
2.6131

> <Gold.Chemscore.DEInternal>
1.1833

> <Gold.Chemscore.Rot>
1.0000

> <Gold.Chemscore.Internal.Correction>
   9.000000E+99

> <Gold.Chemscore.Hbonds>
donor molecule, donor type, donor heavy atom, donor atom, acceptor molecule, acceptor atom, score
      L1  H     3    20       P1  7948  0.93
      L1  H    10    25       P1  7948  0.65
      L1  H    14    40       P1 10186  0.67
      P1  H  7989  7998       L1     8  0.24

> <Gold.Chemscore.Hbond.Weighted>
-10.6277

> <Gold.Chemscore.Metal.Weighted>
-0.0000

> <Gold.Chemscore.Lipo.Weighted>
-10.2320

> <Gold.Chemscore.Internal_Hbond.Weighted>
0.0000

> <Gold.Chemscore.DEClash.Weighted>
2.6131

> <Gold.Chemscore.DEInternal.Weighted>
1.1833

> <Gold.Chemscore.Rot.Weighted>
2.5600

> <Gold.Chemscore.Internal.Correction.Weighted>
   9.000000E+99

> <Gold.Protein.RotatedTorsions>
[ 6907 6896 6895 6894 ] final  -52.41 input  -60.11 | X-H torsion
[ 7974 7965 7964 7962 ] final   46.74 input  175.53 | X-H torsion
[ 8008 7997 7996 7995 ] final  -74.08 input   59.86 | X-H torsion
[ 10167 10162 10161 10158 ] final -149.27 input  -65.29 | X-H torsion
[ 10718 10713 10712 10709 ] final   90.18 input   66.30 | X-H torsion
[ 10763 10752 10751 10750 ] final   74.66 input  -60.55 | X-H torsion
[ 11005 11000 10999 10996 ] final  -83.65 input  -57.11 | X-H torsion

> <Gold.Protein.ActiveResidues>
 VAL166  LYS551  ARG553  GLY616  TRP617  ASP618  TYR619  PRO620  LYS621  CYS622 
 ASP623  PHE694  ASN695  SER759  ASP760  ASP761  ALA762  ILE779  LEU786  VAL792 
 PHE793  MET794  SER795  GLU796  ALA797  LYS798  CYS799  TRP800  GLU811  SER814 

> <Gold.Protein.RotatedAtoms>
  150.8520  134.7848  159.7015 H   0  0  0  0  0  0  0  0  0  0  0  0  # atno 6907 bound_to 6896
  152.4582  134.5240  159.9801 H   0  0  0  0  0  0  0  0  0  0  0  0  # atno 6908 bound_to 6896
  151.5359  133.3403  159.2962 H   0  0  0  0  0  0  0  0  0  0  0  0  # atno 6909 bound_to 6896
  146.0362  139.4823  142.9807 H   0  0  0  0  0  0  0  0  0  0  0  0  # atno 7974 bound_to 7965
  154.5301  140.0767  156.8329 H   0  0  0  0  0  0  0  0  0  0  0  0  # atno 8008 bound_to 7997
  155.3393  140.3406  155.4221 H   0  0  0  0  0  0  0  0  0  0  0  0  # atno 8009 bound_to 7997
  156.1772  140.1640  156.8328 H   0  0  0  0  0  0  0  0  0  0  0  0  # atno 8010 bound_to 7997
  139.7457  143.8594  152.2574 H   0  0  0  0  0  0  0  0  0  0  0  0  # atno 10167 bound_to 10162
  157.6958  131.0361  150.3538 H   0  0  0  0  0  0  0  0  0  0  0  0  # atno 10718 bound_to 10713
  153.0602  135.5017  154.8076 H   0  0  0  0  0  0  0  0  0  0  0  0  # atno 10763 bound_to 10752
  154.6871  135.2978  154.9535 H   0  0  0  0  0  0  0  0  0  0  0  0  # atno 10764 bound_to 10752
  154.0302  135.6730  153.4833 H   0  0  0  0  0  0  0  0  0  0  0  0  # atno 10765 bound_to 10752
  141.1656  133.7305  156.8751 H   0  0  0  0  0  0  0  0  0  0  0  0  # atno 11005 bound_to 11000
  145.6960  141.0150  143.1529 LP  0  0  0  0  0  0  0  0  0  0  0  0  # atno 17320 bound_to 7965
  144.7053  139.8589  143.7432 LP  0  0  0  0  0  0  0  0  0  0  0  0  # atno 17321 bound_to 7965
  139.8558  144.7142  150.9159 LP  0  0  0  0  0  0  0  0  0  0  0  0  # atno 17342 bound_to 10162
  140.7792  143.3860  151.1393 LP  0  0  0  0  0  0  0  0  0  0  0  0  # atno 17343 bound_to 10162
  156.3983  130.3911  149.6978 LP  0  0  0  0  0  0  0  0  0  0  0  0  # atno 17370 bound_to 10713
  156.4304  130.7812  151.2832 LP  0  0  0  0  0  0  0  0  0  0  0  0  # atno 17371 bound_to 10713
  140.1754  134.9071  157.2884 LP  0  0  0  0  0  0  0  0  0  0  0  0  # atno 17394 bound_to 11000
  140.2455  134.3745  155.7463 LP  0  0  0  0  0  0  0  0  0  0  0  0  # atno 17395 bound_to 11000

$$$$
