AV-unprocessed.smi:1009|AV-procd|sdf|4414|dock8
  -GOLD-   22720 2363D 1   1.00000     0.00000
 Structure written by MMmdl.
 33 33  0  0  0  0  0  0  0  0  2 V2000
  146.9998  141.3540  153.6956 C   0  0  0  0  0  0  0  0  0  0  0  0
  146.1835  140.1291  153.8450 N   0  3  0  0  0  0  0  0  0  0  0  0
  145.8092  139.8957  155.2591 C   0  0  0  0  0  0  0  0  0  0  0  0
  146.8238  138.9516  153.2078 C   0  0  0  0  0  0  0  0  0  0  0  0
  146.0103  137.6576  153.4044 C   0  0  0  0  0  0  0  0  0  0  0  0
  146.5107  136.5867  152.5521 N   0  0  0  0  0  0  0  0  0  0  0  0
  145.7611  135.5990  152.0387 C   0  0  0  0  0  0  0  0  0  0  0  0
  144.5458  135.5106  152.2126 O   0  0  0  0  0  0  0  0  0  0  0  0
  146.4971  134.5408  151.2165 C   0  0  0  0  0  0  0  0  0  0  0  0
  145.6116  133.4407  150.8799 N   0  0  0  0  0  0  0  0  0  0  0  0
  145.8775  132.0848  150.9205 C   0  0  0  0  0  0  0  0  0  0  0  0
  144.7529  131.4327  150.5002 C   0  0  0  0  0  0  0  0  0  0  0  0
  143.8525  132.4967  150.2258 C   0  0  0  0  0  0  0  0  0  0  0  0
  142.5558  132.2976  149.7598 N   0  0  0  0  0  0  0  0  0  0  0  0
  144.3553  133.6970  150.4483 N   0  0  0  0  0  0  0  0  0  0  0  0
  147.9623  141.2461  154.1979 H   0  0  0  0  0  0  0  0  0  0  0  0
  146.4854  142.2158  154.1224 H   0  0  0  0  0  0  0  0  0  0  0  0
  147.1850  141.5710  152.6429 H   0  0  0  0  0  0  0  0  0  0  0  0
  146.6885  139.6733  155.8653 H   0  0  0  0  0  0  0  0  0  0  0  0
  145.1093  139.0665  155.3567 H   0  0  0  0  0  0  0  0  0  0  0  0
  145.3238  140.7778  155.6784 H   0  0  0  0  0  0  0  0  0  0  0  0
  146.9170  139.1313  152.1356 H   0  0  0  0  0  0  0  0  0  0  0  0
  147.8400  138.8393  153.5894 H   0  0  0  0  0  0  0  0  0  0  0  0
  146.0259  137.3266  154.4431 H   0  0  0  0  0  0  0  0  0  0  0  0
  144.9648  137.8328  153.1498 H   0  0  0  0  0  0  0  0  0  0  0  0
  147.5023  136.5776  152.3587 H   0  0  0  0  0  0  0  0  0  0  0  0
  146.8767  134.9825  150.2940 H   0  0  0  0  0  0  0  0  0  0  0  0
  147.3583  134.1614  151.7691 H   0  0  0  0  0  0  0  0  0  0  0  0
  146.8363  131.7024  151.2388 H   0  0  0  0  0  0  0  0  0  0  0  0
  144.6019  130.3676  150.4044 H   0  0  0  0  0  0  0  0  0  0  0  0
  142.1911  131.3707  149.5931 H   0  0  0  0  0  0  0  0  0  0  0  0
  141.9158  133.0697  149.6425 H   0  0  0  0  0  0  0  0  0  0  0  0
  145.3270  140.3014  153.3382 H   0  0  0  0  0  0  0  0  0  0  0  0
  1  2  1  0  0  0  0
  1 16  1  0  0  0  0
  1 17  1  0  0  0  0
  1 18  1  0  0  0  0
  2  3  1  0  0  0  0
  2  4  1  0  0  0  0
  2 33  1  0  0  0  0
  3 19  1  0  0  0  0
  3 20  1  0  0  0  0
  3 21  1  0  0  0  0
  4  5  1  0  0  0  0
  4 22  1  0  0  0  0
  4 23  1  0  0  0  0
  5  6  1  0  0  0  0
  5 24  1  0  0  0  0
  5 25  1  0  0  0  0
  6  7  1  0  0  0  0
  6 26  1  0  0  0  0
  7  8  2  0  0  0  0
  7  9  1  0  0  0  0
  9 10  1  0  0  0  0
  9 27  1  0  0  0  0
  9 28  1  0  0  0  0
 10 15  1  0  0  0  0
 10 11  1  0  0  0  0
 11 12  2  0  0  0  0
 11 29  1  0  0  0  0
 12 13  1  0  0  0  0
 12 30  1  0  0  0  0
 13 14  1  0  0  0  0
 13 15  2  0  0  0  0
 14 31  1  0  0  0  0
 14 32  1  0  0  0  0
M  CHG  1   2   1
M  END
> <s_m_source_file>
AV-unprocessed.smi

> <i_m_source_file_index>
1009

> <i_lp_mmshare_version>
43012

> <i_f3d_flags>
0

> <s_epik_input>
W0NIM11OKFtDSDNdKVtDSDJdW0NIMl1bTkhdQyg9TylbQ0gyXW4xW2NIXVtjSF1jKG4xKVtOSDJd

> <s_epik_cmdline>
J2VwaWtfcHl0aG9uJywgJy1waCcsICc3LjAnLCAnLXRuJywgJzgnLCAnLW1hJywgJzIwMCcsICctbWV0YWxfYmluZGluZycsICctaW1hZScsICc8aW5maWxlLm1hZT4nLCAnLW9tYWUnLCAnPG91dGZpbGUubWFlPic=

> <r_lp_tautomer_probability>
1

> <r_epik_Ionization_Penalty>
0.00595791

> <r_epik_Ionization_Penalty_Charging>
0.00581587

> <r_epik_Ionization_Penalty_Neutral>
0.000142034

> <r_epik_State_Penalty>
0.00427192

> <r_epik_Charging_Adjusted_Penalty>
0.0100878

> <i_epik_Tot_Q>
1

> <i_epik_Tot_abs_Q>
1

> <r_epik_Metal_State_Penalty>
-0

> <b_epik_Metal_Only>
0

> <s_lp_Force_Field>
OPLS_2005

> <r_lp_Energy>
4.99311

> <b_lp_Chiralities_Consistent>
1

> <s_lp_Variant>
AV-unprocessed.smi:1009-1

> <Gold.Version>
5.8.1

> <Gold.Id.Protein>
6NUR|6NUR_protein|mol2

> <Gold.PLP.Fitness>
41.5605

> <Gold.PLP.PLP>
-24.6914

> <Gold.PLP.part.hbond>
-4.0000

> <Gold.PLP.part.metal>
0.0000

> <Gold.PLP.part.buried>
-4.1651

> <Gold.PLP.part.nonpolar>
-16.3698

> <Gold.PLP.part.repulsive>
0.4531

> <Gold.PLP.ligand.clash>
0.0000

> <Gold.PLP.ligand.torsion>
0.5171

> <Gold.PLP.Chemscore.Hbond>
4.9920

> <Gold.PLP.Chemscore.CHOScore>
0.9661

> <Gold.PLP.Chemscore.Metal>
0.0000

> <Gold.Chemscore.Hbonds>
donor molecule, donor type, donor heavy atom, donor atom, acceptor molecule, acceptor atom, score
      L1  H     2    33       P1 10175  2.00
      L1  H     6    26       P1  7948  1.00
      L1  H    14    31       P1 10952  0.93
      L1  H    14    32       P1 10186  1.00
      L1  C    11    29       P1 10747  1.00

> <Gold.PLP.Chemscore.Internal.Correction>
0.0292

> <Gold.Rescore>
     Score         DG    S(hbond)    S(metal)    S(lipo)     H(rot)  DE(clash)    DE(int)     intcor
     15.28     -17.45       3.87        0.00      45.45       2.45       0.09       2.08       ----

> <Gold.Chemscore.Fitness>
15.2820

> <Gold.Chemscore.DG>
-17.4466

> <Gold.Chemscore.ZeroCoef>
-5.4800

> <Gold.Chemscore.Hbond>
3.8682

> <Gold.Chemscore.Metal>
0.0000

> <Gold.Chemscore.Lipo>
45.4535

> <Gold.Chemscore.Internal_Hbond>
0.0000

> <Gold.Chemscore.DEClash>
0.0861

> <Gold.Chemscore.DEInternal>
2.0785

> <Gold.Chemscore.Rot>
2.4497

> <Gold.Chemscore.Internal.Correction>
   9.000000E+99

> <Gold.Chemscore.Hbonds>
donor molecule, donor type, donor heavy atom, donor atom, acceptor molecule, acceptor atom, score
      L1  H     2    33       P1 10175  1.00
      L1  H     6    26       P1  7948  0.96
      L1  H    14    31       P1 10952  0.91
      L1  H    14    32       P1 10186  0.99

> <Gold.Chemscore.Hbond.Weighted>
-12.9198

> <Gold.Chemscore.Metal.Weighted>
-0.0000

> <Gold.Chemscore.Lipo.Weighted>
-5.3181

> <Gold.Chemscore.Internal_Hbond.Weighted>
0.0000

> <Gold.Chemscore.DEClash.Weighted>
0.0861

> <Gold.Chemscore.DEInternal.Weighted>
2.0785

> <Gold.Chemscore.Rot.Weighted>
6.2713

> <Gold.Chemscore.Internal.Correction.Weighted>
   9.000000E+99

> <Gold.Protein.RotatedTorsions>
[ 6907 6896 6895 6894 ] final  -97.88 input  -60.11 | X-H torsion
[ 7974 7965 7964 7962 ] final  -25.91 input  175.53 | X-H torsion
[ 8008 7997 7996 7995 ] final    2.15 input   59.86 | X-H torsion
[ 10167 10162 10161 10158 ] final   80.52 input  -65.29 | X-H torsion
[ 10718 10713 10712 10709 ] final -164.80 input   66.30 | X-H torsion
[ 10763 10752 10751 10750 ] final  177.14 input  -60.55 | X-H torsion
[ 11005 11000 10999 10996 ] final    4.89 input  -57.11 | X-H torsion

> <Gold.Protein.ActiveResidues>
 VAL166  LYS551  ARG553  GLY616  TRP617  ASP618  TYR619  PRO620  LYS621  CYS622 
 ASP623  PHE694  ASN695  SER759  ASP760  ASP761  ALA762  ILE779  LEU786  VAL792 
 PHE793  MET794  SER795  GLU796  ALA797  LYS798  CYS799  TRP800  GLU811  SER814 

> <Gold.Protein.RotatedAtoms>
  150.7029  134.1281  159.4059 H   0  0  0  0  0  0  0  0  0  0  0  0  # atno 6907 bound_to 6896
  151.9267  135.0272  160.0535 H   0  0  0  0  0  0  0  0  0  0  0  0  # atno 6908 bound_to 6896
  152.2210  133.4948  159.5199 H   0  0  0  0  0  0  0  0  0  0  0  0  # atno 6909 bound_to 6896
  146.1460  140.4949  142.8631 H   0  0  0  0  0  0  0  0  0  0  0  0  # atno 7974 bound_to 7965
  154.6881  140.2647  155.6840 H   0  0  0  0  0  0  0  0  0  0  0  0  # atno 8008 bound_to 7997
  156.2722  140.2796  156.1373 H   0  0  0  0  0  0  0  0  0  0  0  0  # atno 8009 bound_to 7997
  155.0935  140.0373  157.2666 H   0  0  0  0  0  0  0  0  0  0  0  0  # atno 8010 bound_to 7997
  139.9489  144.6039  150.8180 H   0  0  0  0  0  0  0  0  0  0  0  0  # atno 10167 bound_to 10162
  156.6442  130.8981  151.3001 H   0  0  0  0  0  0  0  0  0  0  0  0  # atno 10718 bound_to 10713
  154.4905  135.2779  155.1500 H   0  0  0  0  0  0  0  0  0  0  0  0  # atno 10763 bound_to 10752
  154.3174  135.6216  153.5496 H   0  0  0  0  0  0  0  0  0  0  0  0  # atno 10764 bound_to 10752
  152.9887  135.5734  154.5325 H   0  0  0  0  0  0  0  0  0  0  0  0  # atno 10765 bound_to 10752
  140.5768  134.0050  155.8031 H   0  0  0  0  0  0  0  0  0  0  0  0  # atno 11005 bound_to 11000
  144.7847  140.5912  143.6582 LP  0  0  0  0  0  0  0  0  0  0  0  0  # atno 17320 bound_to 7965
  145.4936  139.1487  143.3696 LP  0  0  0  0  0  0  0  0  0  0  0  0  # atno 17321 bound_to 7965
  140.7589  143.3117  151.2830 LP  0  0  0  0  0  0  0  0  0  0  0  0  # atno 17342 bound_to 10162
  139.6644  144.0131  152.2713 LP  0  0  0  0  0  0  0  0  0  0  0  0  # atno 17343 bound_to 10162
  157.7161  130.9499  150.1262 LP  0  0  0  0  0  0  0  0  0  0  0  0  # atno 17370 bound_to 10713
  156.2135  130.3668  149.8642 LP  0  0  0  0  0  0  0  0  0  0  0  0  # atno 17371 bound_to 10713
  141.1021  133.9751  157.3060 LP  0  0  0  0  0  0  0  0  0  0  0  0  # atno 17394 bound_to 11000
  139.9336  135.0198  156.8481 LP  0  0  0  0  0  0  0  0  0  0  0  0  # atno 17395 bound_to 11000

$$$$
