AV-unprocessed.smi:2202|AV-procd|sdf|8932|dock6
  -GOLD-   2272012143D 1   1.00000     0.00000
 Structure written by MMmdl.
 43 45  0  0  0  0  0  0  0  0  2 V2000
  151.6875  136.3671  156.1160 O   0  0  0  0  0  0  0  0  0  0  0  0
  150.9482  136.4871  155.1374 C   0  0  0  0  0  0  0  0  0  0  0  0
  151.0633  137.6966  154.1983 C   0  0  0  0  0  0  0  0  0  0  0  0
  151.0219  138.9886  154.8989 N   0  0  0  0  0  0  0  0  0  0  0  0
  152.0166  139.4572  155.6635 C   0  0  0  0  0  0  0  0  0  0  0  0
  153.0813  138.8817  155.8922 O   0  0  0  0  0  0  0  0  0  0  0  0
  151.6860  140.8402  156.2288 C   0  0  2  0  0  0  0  0  0  0  0  0
  151.7892  140.8639  157.7767 C   0  0  0  0  0  0  0  0  0  0  0  0
  150.5399  140.3409  158.4551 C   0  0  0  0  0  0  0  0  0  0  0  0
  149.3237  140.5804  157.9476 C   0  0  0  0  0  0  0  0  0  0  0  0
  149.1497  141.3836  156.6753 C   0  0  0  0  0  0  0  0  0  0  0  0
  150.2739  141.1169  155.6397 C   0  0  2  0  0  0  0  0  0  0  0  0
  150.0000  139.8511  154.8241 C   0  0  0  0  0  0  0  0  0  0  0  0
  148.9634  139.6857  154.1804 O   0  0  0  0  0  0  0  0  0  0  0  0
  150.0046  135.5878  154.8206 N   0  0  0  0  0  0  0  0  0  0  0  0
  149.7278  134.3716  155.5757 C   0  0  0  0  0  0  0  0  0  0  0  0
  149.9594  133.1116  154.7243 C   0  0  0  0  0  0  0  0  0  0  0  0
  148.7194  132.7049  153.9529 C   0  0  0  0  0  0  0  0  0  0  0  0
  148.1308  131.4288  154.0897 C   0  0  0  0  0  0  0  0  0  0  0  0
  146.9737  131.1209  153.3438 C   0  0  0  0  0  0  0  0  0  0  0  0
  146.4300  132.0939  152.4795 C   0  0  0  0  0  0  0  0  0  0  0  0
  147.0583  133.3523  152.3823 C   0  0  0  0  0  0  0  0  0  0  0  0
  148.1653  133.6094  153.1131 N   0  3  0  0  0  0  0  0  0  0  0  0
  151.9891  137.6066  153.6275 H   0  0  0  0  0  0  0  0  0  0  0  0
  150.2589  137.6493  153.4618 H   0  0  0  0  0  0  0  0  0  0  0  0
  152.4088  141.5426  155.8116 H   0  0  0  0  0  0  0  0  0  0  0  0
  152.6463  140.2835  158.1207 H   0  0  0  0  0  0  0  0  0  0  0  0
  151.9578  141.8837  158.1236 H   0  0  0  0  0  0  0  0  0  0  0  0
  150.6550  139.8141  159.3910 H   0  0  0  0  0  0  0  0  0  0  0  0
  148.4338  140.2517  158.4641 H   0  0  0  0  0  0  0  0  0  0  0  0
  148.1682  141.1653  156.2522 H   0  0  0  0  0  0  0  0  0  0  0  0
  149.1335  142.4401  156.9446 H   0  0  0  0  0  0  0  0  0  0  0  0
  150.3194  141.9511  154.9384 H   0  0  0  0  0  0  0  0  0  0  0  0
  149.4429  135.7567  153.9984 H   0  0  0  0  0  0  0  0  0  0  0  0
  150.3805  134.3556  156.4488 H   0  0  0  0  0  0  0  0  0  0  0  0
  148.7043  134.3979  155.9538 H   0  0  0  0  0  0  0  0  0  0  0  0
  150.7700  133.2762  154.0130 H   0  0  0  0  0  0  0  0  0  0  0  0
  150.2741  132.2840  155.3614 H   0  0  0  0  0  0  0  0  0  0  0  0
  148.5574  130.6947  154.7580 H   0  0  0  0  0  0  0  0  0  0  0  0
  146.5082  130.1502  153.4347 H   0  0  0  0  0  0  0  0  0  0  0  0
  145.5444  131.8779  151.8998 H   0  0  0  0  0  0  0  0  0  0  0  0
  146.7118  134.1550  151.7477 H   0  0  0  0  0  0  0  0  0  0  0  0
  148.6037  134.5269  153.0277 H   0  0  0  0  0  0  0  0  0  0  0  0
  1  2  2  0  0  0  0
  2  3  1  0  0  0  0
  2 15  1  0  0  0  0
  3  4  1  0  0  0  0
  3 24  1  0  0  0  0
  3 25  1  0  0  0  0
  4 13  1  0  0  0  0
  4  5  1  0  0  0  0
  5  6  2  0  0  0  0
  5  7  1  0  0  0  0
  7 12  1  0  0  0  0
  7  8  1  0  0  0  0
  7 26  1  0  0  0  0
  8  9  1  0  0  0  0
  8 27  1  0  0  0  0
  8 28  1  0  0  0  0
  9 10  2  0  0  0  0
  9 29  1  0  0  0  0
 10 11  1  0  0  0  0
 10 30  1  0  0  0  0
 11 12  1  0  0  0  0
 11 31  1  0  0  0  0
 11 32  1  0  0  0  0
 12 13  1  0  0  0  0
 12 33  1  0  0  0  0
 13 14  2  0  0  0  0
 15 16  1  0  0  0  0
 15 34  1  0  0  0  0
 16 17  1  0  0  0  0
 16 35  1  0  0  0  0
 16 36  1  0  0  0  0
 17 18  1  0  0  0  0
 17 37  1  0  0  0  0
 17 38  1  0  0  0  0
 18 23  1  0  0  0  0
 18 19  2  0  0  0  0
 19 20  1  0  0  0  0
 19 39  1  0  0  0  0
 20 21  2  0  0  0  0
 20 40  1  0  0  0  0
 21 22  1  0  0  0  0
 21 41  1  0  0  0  0
 22 23  2  0  0  0  0
 22 42  1  0  0  0  0
 23 43  1  0  0  0  0
M  CHG  1  23   1
M  END
> <s_m_source_file>
AV-unprocessed.smi

> <i_m_source_file_index>
2202

> <i_lp_mmshare_version>
43012

> <i_f3d_flags>
0

> <s_epik_input>
W0NIMl0xW0NIXT1bQ0hdW0NIMl1bQ0BIXShbQ0BIXTEyKUMoPU8pTihDMj1PKVtDSDJdQyg9TylbTkhdW0NIMl1bQ0gyXWMzW2NIXVtjSF1bY0hdW2NIXW4z

> <s_epik_cmdline>
J2VwaWtfcHl0aG9uJywgJy1waCcsICc3LjAnLCAnLXRuJywgJzgnLCAnLW1hJywgJzIwMCcsICctbWV0YWxfYmluZGluZycsICctaW1hZScsICc8aW5maWxlLm1hZT4nLCAnLW9tYWUnLCAnPG91dGZpbGUubWFlPic=

> <r_lp_tautomer_probability>
1

> <r_epik_Ionization_Penalty>
1.90039

> <r_epik_Ionization_Penalty_Charging>
1.90039

> <r_epik_Ionization_Penalty_Neutral>
1.50224e-07

> <r_epik_State_Penalty>
2.02162

> <r_epik_Charging_Adjusted_Penalty>
3.922

> <i_epik_Tot_Q>
1

> <i_epik_Tot_abs_Q>
1

> <r_epik_Metal_State_Penalty>
2.04542

> <b_epik_Metal_Only>
0

> <s_lp_Force_Field>
OPLS_2005

> <r_lp_Energy>
20.8283

> <b_lp_Chiralities_Consistent>
1

> <s_lp_Variant>
AV-unprocessed.smi:2202-4

> <Gold.Version>
5.8.1

> <Gold.Id.Protein>
6NUR|6NUR_protein|mol2

> <Gold.PLP.Fitness>
56.1919

> <Gold.PLP.PLP>
-41.8632

> <Gold.PLP.part.hbond>
-4.0113

> <Gold.PLP.part.metal>
0.0000

> <Gold.PLP.part.buried>
-4.3562

> <Gold.PLP.part.nonpolar>
-33.9073

> <Gold.PLP.part.repulsive>
0.8290

> <Gold.PLP.ligand.clash>
0.0000

> <Gold.PLP.ligand.torsion>
0.3501

> <Gold.PLP.Chemscore.Hbond>
5.0000

> <Gold.PLP.Chemscore.CHOScore>
0.0000

> <Gold.PLP.Chemscore.Metal>
0.0000

> <Gold.Chemscore.Hbonds>
donor molecule, donor type, donor heavy atom, donor atom, acceptor molecule, acceptor atom, score
      L1  H    15    34       P1  7948  0.55
      L1  H    23    43       P1  7948  1.72
      P1  H  7997  8009       L1     6  0.99
      P1  H 10752 10763       L1     1  0.55

> <Gold.PLP.Chemscore.Internal.Correction>
0.0288

> <Gold.Rescore>
     Score         DG    S(hbond)    S(metal)    S(lipo)     H(rot)  DE(clash)    DE(int)     intcor
     20.07     -20.82       3.35        0.00      78.59       1.96       0.23       0.53       ----

> <Gold.Chemscore.Fitness>
20.0693

> <Gold.Chemscore.DG>
-20.8247

> <Gold.Chemscore.ZeroCoef>
-5.4800

> <Gold.Chemscore.Hbond>
3.3455

> <Gold.Chemscore.Metal>
0.0000

> <Gold.Chemscore.Lipo>
78.5870

> <Gold.Chemscore.Internal_Hbond>
0.0000

> <Gold.Chemscore.DEClash>
0.2293

> <Gold.Chemscore.DEInternal>
0.5261

> <Gold.Chemscore.Rot>
1.9625

> <Gold.Chemscore.Internal.Correction>
   9.000000E+99

> <Gold.Chemscore.Hbonds>
donor molecule, donor type, donor heavy atom, donor atom, acceptor molecule, acceptor atom, score
      L1  H    15    34       P1  7948  0.30
      L1  H    23    43       P1  7948  0.18
      P1  H  7997  8009       L1     6  0.61
      P1  H 10752 10763       L1     1  0.03

> <Gold.Chemscore.Hbond.Weighted>
-11.1740

> <Gold.Chemscore.Metal.Weighted>
-0.0000

> <Gold.Chemscore.Lipo.Weighted>
-9.1947

> <Gold.Chemscore.Internal_Hbond.Weighted>
0.0000

> <Gold.Chemscore.DEClash.Weighted>
0.2293

> <Gold.Chemscore.DEInternal.Weighted>
0.5261

> <Gold.Chemscore.Rot.Weighted>
5.0240

> <Gold.Chemscore.Internal.Correction.Weighted>
   9.000000E+99

> <Gold.Protein.RotatedTorsions>
[ 6907 6896 6895 6894 ] final  113.00 input  -60.11 | X-H torsion
[ 7974 7965 7964 7962 ] final  175.12 input  175.53 | X-H torsion
[ 8008 7997 7996 7995 ] final -141.32 input   59.86 | X-H torsion
[ 10167 10162 10161 10158 ] final   56.30 input  -65.29 | X-H torsion
[ 10718 10713 10712 10709 ] final  168.73 input   66.30 | X-H torsion
[ 10763 10752 10751 10750 ] final   85.71 input  -60.55 | X-H torsion
[ 11005 11000 10999 10996 ] final  -90.44 input  -57.11 | X-H torsion

> <Gold.Protein.ActiveResidues>
 VAL166  LYS551  ARG553  GLY616  TRP617  ASP618  TYR619  PRO620  LYS621  CYS622 
 ASP623  PHE694  ASN695  SER759  ASP760  ASP761  ALA762  ILE779  LEU786  VAL792 
 PHE793  MET794  SER795  GLU796  ALA797  LYS798  CYS799  TRP800  GLU811  SER814 

> <Gold.Protein.RotatedAtoms>
  152.4885  133.8437  159.7165 H   0  0  0  0  0  0  0  0  0  0  0  0  # atno 6907 bound_to 6896
  150.8993  133.7130  159.2890 H   0  0  0  0  0  0  0  0  0  0  0  0  # atno 6908 bound_to 6896
  151.4576  135.1039  159.9768 H   0  0  0  0  0  0  0  0  0  0  0  0  # atno 6909 bound_to 6896
  144.7208  139.9900  143.6440 H   0  0  0  0  0  0  0  0  0  0  0  0  # atno 7974 bound_to 7965
  155.4758  140.0556  157.2973 H   0  0  0  0  0  0  0  0  0  0  0  0  # atno 8008 bound_to 7997
  154.4680  140.2027  156.0021 H   0  0  0  0  0  0  0  0  0  0  0  0  # atno 8009 bound_to 7997
  156.1007  140.3219  155.7943 H   0  0  0  0  0  0  0  0  0  0  0  0  # atno 8010 bound_to 7997
  140.2103  144.3896  150.6492 H   0  0  0  0  0  0  0  0  0  0  0  0  # atno 10167 bound_to 10162
  157.0329  131.0264  151.2739 H   0  0  0  0  0  0  0  0  0  0  0  0  # atno 10718 bound_to 10713
  153.1501  135.4607  154.9624 H   0  0  0  0  0  0  0  0  0  0  0  0  # atno 10763 bound_to 10752
  154.7818  135.3191  154.7976 H   0  0  0  0  0  0  0  0  0  0  0  0  # atno 10764 bound_to 10752
  153.8483  135.6924  153.4849 H   0  0  0  0  0  0  0  0  0  0  0  0  # atno 10765 bound_to 10752
  141.1565  133.7692  156.9738 H   0  0  0  0  0  0  0  0  0  0  0  0  # atno 11005 bound_to 11000
  146.0420  139.3430  143.0692 LP  0  0  0  0  0  0  0  0  0  0  0  0  # atno 17320 bound_to 7965
  145.8323  140.9624  143.0842 LP  0  0  0  0  0  0  0  0  0  0  0  0  # atno 17321 bound_to 7965
  140.6328  143.2190  151.6458 LP  0  0  0  0  0  0  0  0  0  0  0  0  # atno 17342 bound_to 10162
  139.5183  144.3290  152.0843 LP  0  0  0  0  0  0  0  0  0  0  0  0  # atno 17343 bound_to 10162
  157.5164  130.7970  149.7760 LP  0  0  0  0  0  0  0  0  0  0  0  0  # atno 17370 bound_to 10713
  156.0063  130.3854  150.2418 LP  0  0  0  0  0  0  0  0  0  0  0  0  # atno 17371 bound_to 10713
  140.1112  134.9476  157.2067 LP  0  0  0  0  0  0  0  0  0  0  0  0  # atno 17394 bound_to 11000
  140.3192  134.2936  155.7250 LP  0  0  0  0  0  0  0  0  0  0  0  0  # atno 17395 bound_to 11000

$$$$
