AV-unprocessed.smi:2456|AV-procd|sdf|9702|dock3
  -GOLD-   2272013343D 1   1.00000     0.00000
 Structure written by MMmdl.
 33 34  0  0  0  0  0  0  0  0  2 V2000
  150.6056  139.9740  156.1813 C   0  0  0  0  0  0  0  0  0  0  0  0
  150.5068  139.8357  157.7098 C   0  0  2  0  0  0  0  0  0  0  0  0
  149.2128  139.2279  158.0224 N   0  0  0  0  0  0  0  0  0  0  0  0
  149.0230  138.0734  158.6796 C   0  0  0  0  0  0  0  0  0  0  0  0
  149.9943  137.4268  159.0793 O   0  0  0  0  0  0  0  0  0  0  0  0
  147.7210  137.7400  158.8301 N   0  5  0  0  0  0  0  0  0  0  0  0
  147.3200  137.0707  159.9232 C   0  0  0  0  0  0  0  0  0  0  0  0
  147.2088  137.6427  161.1275 N   0  0  0  0  0  0  0  0  0  0  0  0
  146.7676  136.7660  162.1202 C   0  0  0  0  0  0  0  0  0  0  0  0
  146.5282  135.4988  161.6596 C   0  0  0  0  0  0  0  0  0  0  0  0
  146.8524  135.3679  159.9544 S   0  0  0  0  0  0  0  0  0  0  0  0
  150.6126  141.2495  158.3241 C   0  0  0  0  0  0  0  0  0  0  0  0
  149.7695  142.0993  158.0300 O   0  0  0  0  0  0  0  0  0  0  0  0
  151.6423  141.5294  159.1523 N   0  0  0  0  0  0  0  0  0  0  0  0
  151.8281  142.8338  159.7859 C   0  0  0  0  0  0  0  0  0  0  0  0
  152.9425  142.6429  160.8147 C   0  0  0  0  0  0  0  0  0  0  0  0
  153.7464  141.4681  160.2767 C   0  0  0  0  0  0  0  0  0  0  0  0
  152.7130  140.6129  159.5432 C   0  0  0  0  0  0  0  0  0  0  0  0
  151.5561  140.4180  155.8828 H   0  0  0  0  0  0  0  0  0  0  0  0
  149.8058  140.5968  155.7776 H   0  0  0  0  0  0  0  0  0  0  0  0
  150.5381  138.9986  155.6984 H   0  0  0  0  0  0  0  0  0  0  0  0
  151.2961  139.1737  158.0666 H   0  0  0  0  0  0  0  0  0  0  0  0
  148.3901  139.7291  157.7217 H   0  0  0  0  0  0  0  0  0  0  0  0
  146.6511  137.1304  163.1300 H   0  0  0  0  0  0  0  0  0  0  0  0
  146.1823  134.6400  162.2144 H   0  0  0  0  0  0  0  0  0  0  0  0
  152.1277  143.5570  159.0263 H   0  0  0  0  0  0  0  0  0  0  0  0
  150.9126  143.1961  160.2566 H   0  0  0  0  0  0  0  0  0  0  0  0
  153.5456  143.5400  160.9564 H   0  0  0  0  0  0  0  0  0  0  0  0
  152.5081  142.3760  161.7790 H   0  0  0  0  0  0  0  0  0  0  0  0
  154.4910  141.8311  159.5669 H   0  0  0  0  0  0  0  0  0  0  0  0
  154.2708  140.9193  161.0593 H   0  0  0  0  0  0  0  0  0  0  0  0
  152.3035  139.8543  160.2122 H   0  0  0  0  0  0  0  0  0  0  0  0
  153.1613  140.1088  158.6859 H   0  0  0  0  0  0  0  0  0  0  0  0
  1  2  1  0  0  0  0
  1 19  1  0  0  0  0
  1 20  1  0  0  0  0
  1 21  1  0  0  0  0
  2  3  1  0  0  0  0
  2 12  1  0  0  0  0
  2 22  1  0  0  0  0
  3  4  1  0  0  0  0
  3 23  1  0  0  0  0
  4  5  2  0  0  0  0
  4  6  1  0  0  0  0
  6  7  1  0  0  0  0
  7 11  1  0  0  0  0
  7  8  2  0  0  0  0
  8  9  1  0  0  0  0
  9 10  2  0  0  0  0
  9 24  1  0  0  0  0
 10 11  1  0  0  0  0
 10 25  1  0  0  0  0
 12 13  2  0  0  0  0
 12 14  1  0  0  0  0
 14 18  1  0  0  0  0
 14 15  1  0  0  0  0
 15 16  1  0  0  0  0
 15 26  1  0  0  0  0
 15 27  1  0  0  0  0
 16 17  1  0  0  0  0
 16 28  1  0  0  0  0
 16 29  1  0  0  0  0
 17 18  1  0  0  0  0
 17 30  1  0  0  0  0
 17 31  1  0  0  0  0
 18 32  1  0  0  0  0
 18 33  1  0  0  0  0
M  CHG  1   6  -1
M  END
> <s_m_source_file>
AV-unprocessed.smi

> <i_m_source_file_index>
2456

> <i_lp_mmshare_version>
43012

> <i_f3d_flags>
0

> <s_epik_input>
W0NIMl0xW0NIMl1bQ0gyXVtDSDJdTjFDKD1PKVtDQEhdKFtDSDNdKVtOSF1DKD1PKVtOSF1jMm5bY0hdW2NIXXMy

> <s_epik_cmdline>
J2VwaWtfcHl0aG9uJywgJy1waCcsICc3LjAnLCAnLXRuJywgJzgnLCAnLW1hJywgJzIwMCcsICctbWV0YWxfYmluZGluZycsICctaW1hZScsICc8aW5maWxlLm1hZT4nLCAnLW9tYWUnLCAnPG91dGZpbGUubWFlPic=

> <r_lp_tautomer_probability>
1

> <r_epik_Ionization_Penalty>
5.99337

> <r_epik_Ionization_Penalty_Charging>
5.23786

> <r_epik_Ionization_Penalty_Neutral>
0.755512

> <r_epik_State_Penalty>
5.23778

> <r_epik_Charging_Adjusted_Penalty>
10.4756

> <i_epik_Tot_Q>
-1

> <i_epik_Tot_abs_Q>
1

> <r_epik_Metal_State_Penalty>
1.29566

> <b_epik_Metal_Only>
1

> <s_lp_Force_Field>
OPLS_2005

> <r_lp_Energy>
24.4134

> <b_lp_Chiralities_Consistent>
1

> <s_lp_Variant>
AV-unprocessed.smi:2456-3

> <Gold.Version>
5.8.1

> <Gold.Id.Protein>
6NUR|6NUR_protein|mol2

> <Gold.PLP.Fitness>
43.3830

> <Gold.PLP.PLP>
-36.8894

> <Gold.PLP.part.hbond>
-3.0000

> <Gold.PLP.part.metal>
0.0000

> <Gold.PLP.part.buried>
-4.8547

> <Gold.PLP.part.nonpolar>
-29.0150

> <Gold.PLP.part.repulsive>
0.1652

> <Gold.PLP.ligand.clash>
0.0000

> <Gold.PLP.ligand.torsion>
0.9214

> <Gold.PLP.Chemscore.Hbond>
2.7680

> <Gold.PLP.Chemscore.CHOScore>
0.0000

> <Gold.PLP.Chemscore.Metal>
0.0000

> <Gold.Chemscore.Hbonds>
donor molecule, donor type, donor heavy atom, donor atom, acceptor molecule, acceptor atom, score
      P1  H  6931  6943       L1     8  0.55
      P1  H  6934  6947       L1     8  0.65

> <Gold.PLP.Chemscore.Internal.Correction>
0.0325

> <Gold.Rescore>
     Score         DG    S(hbond)    S(metal)    S(lipo)     H(rot)  DE(clash)    DE(int)     intcor
     17.85     -18.70       2.54        0.00      69.47       1.33       0.00       0.85       ----

> <Gold.Chemscore.Fitness>
17.8473

> <Gold.Chemscore.DG>
-18.6990

> <Gold.Chemscore.ZeroCoef>
-5.4800

> <Gold.Chemscore.Hbond>
2.5426

> <Gold.Chemscore.Metal>
0.0000

> <Gold.Chemscore.Lipo>
69.4738

> <Gold.Chemscore.Internal_Hbond>
0.0000

> <Gold.Chemscore.DEClash>
0.0000

> <Gold.Chemscore.DEInternal>
0.8517

> <Gold.Chemscore.Rot>
1.3288

> <Gold.Chemscore.Internal.Correction>
   9.000000E+99

> <Gold.Chemscore.Hbonds>
donor molecule, donor type, donor heavy atom, donor atom, acceptor molecule, acceptor atom, score
      P1  H  6931  6943       L1     8  0.16
      P1  H  6934  6947       L1     8  0.41

> <Gold.Chemscore.Hbond.Weighted>
-8.4922

> <Gold.Chemscore.Metal.Weighted>
-0.0000

> <Gold.Chemscore.Lipo.Weighted>
-8.1284

> <Gold.Chemscore.Internal_Hbond.Weighted>
0.0000

> <Gold.Chemscore.DEClash.Weighted>
0.0000

> <Gold.Chemscore.DEInternal.Weighted>
0.8517

> <Gold.Chemscore.Rot.Weighted>
3.4017

> <Gold.Chemscore.Internal.Correction.Weighted>
   9.000000E+99

> <Gold.Protein.RotatedTorsions>
[ 6907 6896 6895 6894 ] final  -20.01 input  -60.11 | X-H torsion
[ 7974 7965 7964 7962 ] final -179.97 input  175.53 | X-H torsion
[ 8008 7997 7996 7995 ] final  102.02 input   59.86 | X-H torsion
[ 10167 10162 10161 10158 ] final  119.04 input  -65.29 | X-H torsion
[ 10718 10713 10712 10709 ] final   22.58 input   66.30 | X-H torsion
[ 10763 10752 10751 10750 ] final  -94.00 input  -60.55 | X-H torsion
[ 11005 11000 10999 10996 ] final   -2.48 input  -57.11 | X-H torsion

> <Gold.Protein.ActiveResidues>
 VAL166  LYS551  ARG553  GLY616  TRP617  ASP618  TYR619  PRO620  LYS621  CYS622 
 ASP623  PHE694  ASN695  SER759  ASP760  ASP761  ALA762  ILE779  LEU786  VAL792 
 PHE793  MET794  SER795  GLU796  ALA797  LYS798  CYS799  TRP800  GLU811  SER814 

> <Gold.Protein.RotatedAtoms>
  151.2545  135.0633  159.9074 H   0  0  0  0  0  0  0  0  0  0  0  0  # atno 6907 bound_to 6896
  152.5375  134.0297  159.8029 H   0  0  0  0  0  0  0  0  0  0  0  0  # atno 6908 bound_to 6896
  151.0510  133.5575  159.2673 H   0  0  0  0  0  0  0  0  0  0  0  0  # atno 6909 bound_to 6896
  144.7140  140.0638  143.6431 H   0  0  0  0  0  0  0  0  0  0  0  0  # atno 7974 bound_to 7965
  156.1354  140.3188  155.8412 H   0  0  0  0  0  0  0  0  0  0  0  0  # atno 8008 bound_to 7997
  155.4255  140.0515  157.3039 H   0  0  0  0  0  0  0  0  0  0  0  0  # atno 8009 bound_to 7997
  154.4932  140.2100  155.9515 H   0  0  0  0  0  0  0  0  0  0  0  0  # atno 8010 bound_to 7997
  139.6072  144.7073  151.2926 H   0  0  0  0  0  0  0  0  0  0  0  0  # atno 10167 bound_to 10162
  157.1542  130.6688  149.6022 H   0  0  0  0  0  0  0  0  0  0  0  0  # atno 10718 bound_to 10713
  154.7013  135.5173  153.8531 H   0  0  0  0  0  0  0  0  0  0  0  0  # atno 10763 bound_to 10752
  153.0706  135.6600  154.0265 H   0  0  0  0  0  0  0  0  0  0  0  0  # atno 10764 bound_to 10752
  154.0123  135.3001  155.3370 H   0  0  0  0  0  0  0  0  0  0  0  0  # atno 10765 bound_to 10752
  140.6589  133.9338  155.8424 H   0  0  0  0  0  0  0  0  0  0  0  0  # atno 11005 bound_to 11000
  145.9841  139.2964  143.1024 LP  0  0  0  0  0  0  0  0  0  0  0  0  # atno 17320 bound_to 7965
  145.8977  140.9263  143.0519 LP  0  0  0  0  0  0  0  0  0  0  0  0  # atno 17321 bound_to 7965
  140.7293  143.6911  150.7921 LP  0  0  0  0  0  0  0  0  0  0  0  0  # atno 17342 bound_to 10162
  140.0499  143.5261  152.2679 LP  0  0  0  0  0  0  0  0  0  0  0  0  # atno 17343 bound_to 10162
  155.9765  130.4734  150.6532 LP  0  0  0  0  0  0  0  0  0  0  0  0  # atno 17370 bound_to 10713
  157.4192  131.0834  151.1147 LP  0  0  0  0  0  0  0  0  0  0  0  0  # atno 17371 bound_to 10713
  141.0480  134.0525  157.3819 LP  0  0  0  0  0  0  0  0  0  0  0  0  # atno 17394 bound_to 11000
  139.9020  135.0168  156.7312 LP  0  0  0  0  0  0  0  0  0  0  0  0  # atno 17395 bound_to 11000

$$$$
