AV-unprocessed.smi:2795|AV-procd|sdf|10779|dock7
  -GOLD-   2272015213D 1   1.00000     0.00000
 Structure written by MMmdl.
 37 38  0  0  0  0  0  0  0  0  2 V2000
  146.2940  141.5699  154.4231 C   0  0  0  0  0  0  0  0  0  0  0  0
  147.2622  140.5118  154.1208 N   0  0  0  0  0  0  0  0  0  0  0  0
  146.9348  139.4594  153.3608 C   0  0  0  0  0  0  0  0  0  0  0  0
  148.0198  138.6869  153.2783 N   0  3  0  0  0  0  0  0  0  0  0  0
  149.0466  139.2436  153.9894 C   0  0  0  0  0  0  0  0  0  0  0  0
  148.5750  140.4146  154.5304 C   0  0  0  0  0  0  0  0  0  0  0  0
  149.2728  141.4402  155.3729 C   0  0  0  0  0  0  0  0  0  0  0  0
  150.6774  140.9916  155.8260 C   0  0  0  0  0  0  0  0  0  0  0  0
  151.1911  141.7947  156.9333 N   0  0  0  0  0  0  0  0  0  0  0  0
  151.7310  141.3143  158.0660 C   0  0  0  0  0  0  0  0  0  0  0  0
  151.7891  140.1107  158.3212 O   0  0  0  0  0  0  0  0  0  0  0  0
  152.3058  142.3488  159.0448 C   0  0  1  0  0  0  0  0  0  0  0  0
  151.2944  143.4695  159.3806 C   0  0  0  0  0  0  0  0  0  0  0  0
  151.8711  144.4260  160.4299 C   0  0  0  0  0  0  0  0  0  0  0  0
  152.3575  143.6312  161.6454 C   0  0  0  0  0  0  0  0  0  0  0  0
  153.3184  142.5182  161.2014 C   0  0  0  0  0  0  0  0  0  0  0  0
  152.6756  141.6765  160.2502 O   0  0  0  0  0  0  0  0  0  0  0  0
  145.4756  141.5449  153.7021 H   0  0  0  0  0  0  0  0  0  0  0  0
  146.7826  142.5423  154.3685 H   0  0  0  0  0  0  0  0  0  0  0  0
  145.9008  141.4150  155.4280 H   0  0  0  0  0  0  0  0  0  0  0  0
  145.9809  139.2698  152.9017 H   0  0  0  0  0  0  0  0  0  0  0  0
  150.0214  138.7820  154.0497 H   0  0  0  0  0  0  0  0  0  0  0  0
  149.3377  142.3827  154.8289 H   0  0  0  0  0  0  0  0  0  0  0  0
  148.6569  141.6421  156.2496 H   0  0  0  0  0  0  0  0  0  0  0  0
  150.6388  139.9522  156.1520 H   0  0  0  0  0  0  0  0  0  0  0  0
  151.3688  141.0167  154.9821 H   0  0  0  0  0  0  0  0  0  0  0  0
  151.1760  142.7974  156.8130 H   0  0  0  0  0  0  0  0  0  0  0  0
  153.1978  142.7780  158.5851 H   0  0  0  0  0  0  0  0  0  0  0  0
  151.0321  144.0316  158.4833 H   0  0  0  0  0  0  0  0  0  0  0  0
  150.3681  143.0335  159.7591 H   0  0  0  0  0  0  0  0  0  0  0  0
  152.7035  144.9841  159.9994 H   0  0  0  0  0  0  0  0  0  0  0  0
  151.1221  145.1600  160.7289 H   0  0  0  0  0  0  0  0  0  0  0  0
  152.8496  144.2944  162.3573 H   0  0  0  0  0  0  0  0  0  0  0  0
  151.5043  143.1912  162.1632 H   0  0  0  0  0  0  0  0  0  0  0  0
  154.2306  142.9374  160.7741 H   0  0  0  0  0  0  0  0  0  0  0  0
  153.6162  141.9153  162.0594 H   0  0  0  0  0  0  0  0  0  0  0  0
  148.0731  137.8184  152.7611 H   0  0  0  0  0  0  0  0  0  0  0  0
  1  2  1  0  0  0  0
  1 18  1  0  0  0  0
  1 19  1  0  0  0  0
  1 20  1  0  0  0  0
  2  6  1  0  0  0  0
  2  3  1  0  0  0  0
  3  4  2  0  0  0  0
  3 21  1  0  0  0  0
  4  5  1  0  0  0  0
  4 37  1  0  0  0  0
  5  6  2  0  0  0  0
  5 22  1  0  0  0  0
  6  7  1  0  0  0  0
  7  8  1  0  0  0  0
  7 23  1  0  0  0  0
  7 24  1  0  0  0  0
  8  9  1  0  0  0  0
  8 25  1  0  0  0  0
  8 26  1  0  0  0  0
  9 10  1  0  0  0  0
  9 27  1  0  0  0  0
 10 11  2  0  0  0  0
 10 12  1  0  0  0  0
 12 17  1  0  0  0  0
 12 13  1  0  0  0  0
 12 28  1  0  0  0  0
 13 14  1  0  0  0  0
 13 29  1  0  0  0  0
 13 30  1  0  0  0  0
 14 15  1  0  0  0  0
 14 31  1  0  0  0  0
 14 32  1  0  0  0  0
 15 16  1  0  0  0  0
 15 33  1  0  0  0  0
 15 34  1  0  0  0  0
 16 17  1  0  0  0  0
 16 35  1  0  0  0  0
 16 36  1  0  0  0  0
M  CHG  1   4   1
M  END
> <s_m_source_file>
AV-unprocessed.smi

> <i_m_source_file_index>
2795

> <i_lp_mmshare_version>
43012

> <i_f3d_flags>
0

> <s_epik_input>
W0NIM11uMVtjSF1uW2NIXWMxW0NIMl1bQ0gyXVtOSF1DKD1PKVtDQEBIXTJbQ0gyXVtDSDJdW0NIMl1bQ0gyXU8y

> <s_epik_cmdline>
J2VwaWtfcHl0aG9uJywgJy1waCcsICc3LjAnLCAnLXRuJywgJzgnLCAnLW1hJywgJzIwMCcsICctbWV0YWxfYmluZGluZycsICctaW1hZScsICc8aW5maWxlLm1hZT4nLCAnLW9tYWUnLCAnPG91dGZpbGUubWFlPic=

> <r_lp_tautomer_probability>
1

> <r_epik_Ionization_Penalty>
0.154825

> <r_epik_Ionization_Penalty_Charging>
0

> <r_epik_Ionization_Penalty_Neutral>
0.154825

> <r_epik_State_Penalty>
0.144119

> <r_epik_Charging_Adjusted_Penalty>
0.144119

> <i_epik_Tot_Q>
1

> <i_epik_Tot_abs_Q>
1

> <r_epik_Metal_State_Penalty>
0.465431

> <b_epik_Metal_Only>
0

> <s_lp_Force_Field>
OPLS_2005

> <r_lp_Energy>
10.0187

> <b_lp_Chiralities_Consistent>
1

> <s_lp_Variant>
AV-unprocessed.smi:2795-2

> <Gold.Version>
5.8.1

> <Gold.Id.Protein>
6NUR|6NUR_protein|mol2

> <Gold.PLP.Fitness>
47.7959

> <Gold.PLP.PLP>
-40.3536

> <Gold.PLP.part.hbond>
-2.0000

> <Gold.PLP.part.metal>
0.0000

> <Gold.PLP.part.buried>
-3.2262

> <Gold.PLP.part.nonpolar>
-35.9609

> <Gold.PLP.part.repulsive>
0.1332

> <Gold.PLP.ligand.clash>
0.0000

> <Gold.PLP.ligand.torsion>
0.3098

> <Gold.PLP.Chemscore.Hbond>
2.0000

> <Gold.PLP.Chemscore.CHOScore>
0.6826

> <Gold.PLP.Chemscore.Metal>
0.0000

> <Gold.Chemscore.Hbonds>
donor molecule, donor type, donor heavy atom, donor atom, acceptor molecule, acceptor atom, score
      L1  H     4    37       P1  7948  2.00
      L1  C     3    21       P1 10175  0.76

> <Gold.PLP.Chemscore.Internal.Correction>
0.0140

> <Gold.Rescore>
     Score         DG    S(hbond)    S(metal)    S(lipo)     H(rot)  DE(clash)    DE(int)     intcor
     14.43     -14.57       0.99        0.00      89.38       1.82       0.00       0.14       ----

> <Gold.Chemscore.Fitness>
14.4332

> <Gold.Chemscore.DG>
-14.5735

> <Gold.Chemscore.ZeroCoef>
-5.4800

> <Gold.Chemscore.Hbond>
0.9885

> <Gold.Chemscore.Metal>
0.0000

> <Gold.Chemscore.Lipo>
89.3847

> <Gold.Chemscore.Internal_Hbond>
0.0000

> <Gold.Chemscore.DEClash>
0.0043

> <Gold.Chemscore.DEInternal>
0.1360

> <Gold.Chemscore.Rot>
1.8227

> <Gold.Chemscore.Internal.Correction>
   9.000000E+99

> <Gold.Chemscore.Hbonds>
donor molecule, donor type, donor heavy atom, donor atom, acceptor molecule, acceptor atom, score
      L1  H     4    37       P1  7948  0.94

> <Gold.Chemscore.Hbond.Weighted>
-3.3017

> <Gold.Chemscore.Metal.Weighted>
-0.0000

> <Gold.Chemscore.Lipo.Weighted>
-10.4580

> <Gold.Chemscore.Internal_Hbond.Weighted>
0.0000

> <Gold.Chemscore.DEClash.Weighted>
0.0043

> <Gold.Chemscore.DEInternal.Weighted>
0.1360

> <Gold.Chemscore.Rot.Weighted>
4.6662

> <Gold.Chemscore.Internal.Correction.Weighted>
   9.000000E+99

> <Gold.Protein.RotatedTorsions>
[ 6907 6896 6895 6894 ] final  -18.48 input  -60.11 | X-H torsion
[ 7974 7965 7964 7962 ] final  -79.34 input  175.53 | X-H torsion
[ 8008 7997 7996 7995 ] final  173.84 input   59.86 | X-H torsion
[ 10167 10162 10161 10158 ] final   75.77 input  -65.29 | X-H torsion
[ 10718 10713 10712 10709 ] final -150.45 input   66.30 | X-H torsion
[ 10763 10752 10751 10750 ] final   76.17 input  -60.55 | X-H torsion
[ 11005 11000 10999 10996 ] final -162.84 input  -57.11 | X-H torsion

> <Gold.Protein.ActiveResidues>
 VAL166  LYS551  ARG553  GLY616  TRP617  ASP618  TYR619  PRO620  LYS621  CYS622 
 ASP623  PHE694  ASN695  SER759  ASP760  ASP761  ALA762  ILE779  LEU786  VAL792 
 PHE793  MET794  SER795  GLU796  ALA797  LYS798  CYS799  TRP800  GLU811  SER814 

> <Gold.Protein.RotatedAtoms>
  151.2775  135.0703  159.9156 H   0  0  0  0  0  0  0  0  0  0  0  0  # atno 6907 bound_to 6896
  152.5340  134.0066  159.7929 H   0  0  0  0  0  0  0  0  0  0  0  0  # atno 6908 bound_to 6896
  151.0314  133.5736  159.2691 H   0  0  0  0  0  0  0  0  0  0  0  0  # atno 6909 bound_to 6896
  145.5745  140.9460  143.1377 H   0  0  0  0  0  0  0  0  0  0  0  0  # atno 7974 bound_to 7965
  156.1035  140.1450  156.9436 H   0  0  0  0  0  0  0  0  0  0  0  0  # atno 8008 bound_to 7997
  154.4718  140.0907  156.7208 H   0  0  0  0  0  0  0  0  0  0  0  0  # atno 8009 bound_to 7997
  155.4719  140.3442  155.4329 H   0  0  0  0  0  0  0  0  0  0  0  0  # atno 8010 bound_to 7997
  139.9994  144.5697  150.7750 H   0  0  0  0  0  0  0  0  0  0  0  0  # atno 10167 bound_to 10162
  156.4463  130.8146  151.2376 H   0  0  0  0  0  0  0  0  0  0  0  0  # atno 10718 bound_to 10713
  153.0706  135.4961  154.8297 H   0  0  0  0  0  0  0  0  0  0  0  0  # atno 10763 bound_to 10752
  154.7017  135.3003  154.9333 H   0  0  0  0  0  0  0  0  0  0  0  0  # atno 10764 bound_to 10752
  154.0055  135.6761  153.4814 H   0  0  0  0  0  0  0  0  0  0  0  0  # atno 10765 bound_to 10752
  140.6048  134.4910  157.5209 H   0  0  0  0  0  0  0  0  0  0  0  0  # atno 11005 bound_to 11000
  144.7422  139.7417  143.7306 LP  0  0  0  0  0  0  0  0  0  0  0  0  # atno 17320 bound_to 7965
  146.1760  139.4931  142.9897 LP  0  0  0  0  0  0  0  0  0  0  0  0  # atno 17321 bound_to 7965
  140.7424  143.2832  151.3538 LP  0  0  0  0  0  0  0  0  0  0  0  0  # atno 17342 bound_to 10162
  139.6282  144.0772  152.2453 LP  0  0  0  0  0  0  0  0  0  0  0  0  # atno 17343 bound_to 10162
  157.7504  131.0152  150.3495 LP  0  0  0  0  0  0  0  0  0  0  0  0  # atno 17370 bound_to 10713
  156.3864  130.3890  149.7063 LP  0  0  0  0  0  0  0  0  0  0  0  0  # atno 17371 bound_to 10713
  139.9217  134.8136  156.1191 LP  0  0  0  0  0  0  0  0  0  0  0  0  # atno 17394 bound_to 11000
  141.0848  133.6739  156.2413 LP  0  0  0  0  0  0  0  0  0  0  0  0  # atno 17395 bound_to 11000

$$$$
