AV-unprocessed.smi:1228|AV-procd|sdf|5149|dock7
  -GOLD-   22720 4223D 1   1.00000     0.00000
 Structure written by MMmdl.
 43 45  0  0  0  0  0  0  0  0  1 V2000
  149.7695  129.7459  155.0531 C   0  0  0  0  0  0  0  0  0  0  0  0
  149.5023  131.1202  154.5141 C   0  0  0  0  0  0  0  0  0  0  0  0
  150.1200  132.3474  154.8936 C   0  0  0  0  0  0  0  0  0  0  0  0
  149.4976  133.2602  154.0865 C   0  0  0  0  0  0  0  0  0  0  0  0
  149.6885  134.6042  154.0089 N   0  0  0  0  0  0  0  0  0  0  0  0
  150.4996  135.3823  154.7468 C   0  0  0  0  0  0  0  0  0  0  0  0
  151.2332  134.9915  155.6551 O   0  0  0  0  0  0  0  0  0  0  0  0
  150.4121  136.6658  154.3689 N   0  0  0  0  0  0  0  0  0  0  0  0
  151.1595  137.7709  154.9618 C   0  0  0  0  0  0  0  0  0  0  0  0
  151.2413  137.6220  156.4915 C   0  0  0  0  0  0  0  0  0  0  0  0
  151.8885  138.8612  157.1345 C   0  0  0  0  0  0  0  0  0  0  0  0
  151.1307  140.0650  156.7908 N   0  0  0  0  0  0  0  0  0  0  0  0
  151.7431  141.2080  157.4481 C   0  0  0  0  0  0  0  0  0  0  0  0
  151.2523  141.5631  158.8330 C   0  0  0  0  0  0  0  0  0  0  0  0
  150.8876  142.4367  157.6571 C   0  0  0  0  0  0  0  0  0  0  0  0
  151.1648  140.2772  155.3436 C   0  0  0  0  0  0  0  0  0  0  0  0
  150.4781  139.1052  154.6204 C   0  0  0  0  0  0  0  0  0  0  0  0
  148.5813  132.6030  153.2958 N   0  0  0  0  0  0  0  0  0  0  0  0
  147.6864  133.1345  152.2862 C   0  0  0  0  0  0  0  0  0  0  0  0
  148.5883  131.2792  153.5632 N   0  0  0  0  0  0  0  0  0  0  0  0
  150.5628  129.7633  155.8006 H   0  0  0  0  0  0  0  0  0  0  0  0
  150.0776  129.0651  154.2593 H   0  0  0  0  0  0  0  0  0  0  0  0
  148.8792  129.3290  155.5243 H   0  0  0  0  0  0  0  0  0  0  0  0
  150.8889  132.5072  155.6344 H   0  0  0  0  0  0  0  0  0  0  0  0
  149.1448  135.0748  153.3006 H   0  0  0  0  0  0  0  0  0  0  0  0
  149.7826  136.8981  153.6146 H   0  0  0  0  0  0  0  0  0  0  0  0
  152.1706  137.7874  154.5498 H   0  0  0  0  0  0  0  0  0  0  0  0
  150.2429  137.4786  156.9076 H   0  0  0  0  0  0  0  0  0  0  0  0
  151.8159  136.7329  156.7533 H   0  0  0  0  0  0  0  0  0  0  0  0
  151.9059  138.7392  158.2182 H   0  0  0  0  0  0  0  0  0  0  0  0
  152.9245  138.9613  156.8065 H   0  0  0  0  0  0  0  0  0  0  0  0
  152.7986  141.4052  157.2671 H   0  0  0  0  0  0  0  0  0  0  0  0
  150.4630  140.9522  159.2672 H   0  0  0  0  0  0  0  0  0  0  0  0
  151.9839  141.9495  159.5395 H   0  0  0  0  0  0  0  0  0  0  0  0
  151.3758  143.4062  157.5806 H   0  0  0  0  0  0  0  0  0  0  0  0
  149.8560  142.4059  157.3110 H   0  0  0  0  0  0  0  0  0  0  0  0
  150.6493  141.2068  155.0994 H   0  0  0  0  0  0  0  0  0  0  0  0
  152.1954  140.3831  155.0012 H   0  0  0  0  0  0  0  0  0  0  0  0
  150.5022  139.2723  153.5430 H   0  0  0  0  0  0  0  0  0  0  0  0
  149.4252  139.0725  154.9056 H   0  0  0  0  0  0  0  0  0  0  0  0
  147.1102  133.9606  152.7040 H   0  0  0  0  0  0  0  0  0  0  0  0
  146.9963  132.3635  151.9405 H   0  0  0  0  0  0  0  0  0  0  0  0
  148.2672  133.4969  151.4377 H   0  0  0  0  0  0  0  0  0  0  0  0
  1  2  1  0  0  0  0
  1 21  1  0  0  0  0
  1 22  1  0  0  0  0
  1 23  1  0  0  0  0
  2 20  2  0  0  0  0
  2  3  1  0  0  0  0
  3  4  2  0  0  0  0
  3 24  1  0  0  0  0
  4  5  1  0  0  0  0
  4 18  1  0  0  0  0
  5  6  1  0  0  0  0
  5 25  1  0  0  0  0
  6  7  2  0  0  0  0
  6  8  1  0  0  0  0
  8  9  1  0  0  0  0
  8 26  1  0  0  0  0
  9 17  1  0  0  0  0
  9 10  1  0  0  0  0
  9 27  1  0  0  0  0
 10 11  1  0  0  0  0
 10 28  1  0  0  0  0
 10 29  1  0  0  0  0
 11 12  1  0  0  0  0
 11 30  1  0  0  0  0
 11 31  1  0  0  0  0
 12 13  1  0  0  0  0
 12 16  1  0  0  0  0
 13 15  1  0  0  0  0
 13 14  1  0  0  0  0
 13 32  1  0  0  0  0
 14 15  1  0  0  0  0
 14 33  1  0  0  0  0
 14 34  1  0  0  0  0
 15 35  1  0  0  0  0
 15 36  1  0  0  0  0
 16 17  1  0  0  0  0
 16 37  1  0  0  0  0
 16 38  1  0  0  0  0
 17 39  1  0  0  0  0
 17 40  1  0  0  0  0
 18 19  1  0  0  0  0
 18 20  1  0  0  0  0
 19 41  1  0  0  0  0
 19 42  1  0  0  0  0
 19 43  1  0  0  0  0
M  END
> <s_m_source_file>
AV-unprocessed.smi

> <i_m_source_file_index>
1228

> <i_lp_mmshare_version>
43012

> <i_f3d_flags>
0

> <s_epik_input>
W0NIM11jMVtjSF1jKG4objEpW0NIM10pW05IXUMoPU8pW05IXVtDSF0yW0NIMl1bQ0gyXU4oW0NIMl1bQ0gyXTIpW0NIXTNbQ0gyXVtDSDJdMw==

> <s_epik_cmdline>
J2VwaWtfcHl0aG9uJywgJy1waCcsICc3LjAnLCAnLXRuJywgJzgnLCAnLW1hJywgJzIwMCcsICctbWV0YWxfYmluZGluZycsICctaW1hZScsICc8aW5maWxlLm1hZT4nLCAnLW9tYWUnLCAnPG91dGZpbGUubWFlPic=

> <r_lp_tautomer_probability>
1

> <r_epik_Ionization_Penalty>
1.01084

> <r_epik_Ionization_Penalty_Charging>
0

> <r_epik_Ionization_Penalty_Neutral>
1.01084

> <r_epik_State_Penalty>
1.06014

> <r_epik_Charging_Adjusted_Penalty>
1.06014

> <i_epik_Tot_Q>
0

> <i_epik_Tot_abs_Q>
0

> <r_epik_Metal_State_Penalty>
1.06013

> <b_epik_Metal_Only>
0

> <s_lp_Force_Field>
OPLS_2005

> <r_lp_Energy>
22.8061

> <b_lp_Chiralities_Consistent>
1

> <s_lp_Variant>
AV-unprocessed.smi:1228-3

> <Gold.Version>
5.8.1

> <Gold.Id.Protein>
6NUR|6NUR_protein|mol2

> <Gold.PLP.Fitness>
41.9013

> <Gold.PLP.PLP>
-34.2192

> <Gold.PLP.part.hbond>
-4.0903

> <Gold.PLP.part.metal>
0.0000

> <Gold.PLP.part.buried>
-1.4661

> <Gold.PLP.part.nonpolar>
-29.2660

> <Gold.PLP.part.repulsive>
0.2497

> <Gold.PLP.ligand.clash>
0.0000

> <Gold.PLP.ligand.torsion>
0.8597

> <Gold.PLP.Chemscore.Hbond>
2.7446

> <Gold.PLP.Chemscore.CHOScore>
0.0000

> <Gold.PLP.Chemscore.Metal>
0.0000

> <Gold.Chemscore.Hbonds>
donor molecule, donor type, donor heavy atom, donor atom, acceptor molecule, acceptor atom, score
      L1  H     5    25       P1  7948  0.85
      L1  H     8    26       P1  7948  0.88
      P1  H 10752 10763       L1     7  0.88

> <Gold.PLP.Chemscore.Internal.Correction>
1.1678

> <Gold.Rescore>
     Score         DG    S(hbond)    S(metal)    S(lipo)     H(rot)  DE(clash)    DE(int)     intcor
     12.81     -16.31       1.64        0.00      72.01       1.19       0.08       3.41       ----

> <Gold.Chemscore.Fitness>
12.8144

> <Gold.Chemscore.DG>
-16.3119

> <Gold.Chemscore.ZeroCoef>
-5.4800

> <Gold.Chemscore.Hbond>
1.6362

> <Gold.Chemscore.Metal>
0.0000

> <Gold.Chemscore.Lipo>
72.0141

> <Gold.Chemscore.Internal_Hbond>
0.0000

> <Gold.Chemscore.DEClash>
0.0837

> <Gold.Chemscore.DEInternal>
3.4138

> <Gold.Chemscore.Rot>
1.1948

> <Gold.Chemscore.Internal.Correction>
   9.000000E+99

> <Gold.Chemscore.Hbonds>
donor molecule, donor type, donor heavy atom, donor atom, acceptor molecule, acceptor atom, score
      L1  H     5    25       P1  7948  0.14
      L1  H     8    26       P1  7948  0.45
      P1  H 10752 10763       L1     7  0.18

> <Gold.Chemscore.Hbond.Weighted>
-5.4650

> <Gold.Chemscore.Metal.Weighted>
-0.0000

> <Gold.Chemscore.Lipo.Weighted>
-8.4257

> <Gold.Chemscore.Internal_Hbond.Weighted>
0.0000

> <Gold.Chemscore.DEClash.Weighted>
0.0837

> <Gold.Chemscore.DEInternal.Weighted>
3.4138

> <Gold.Chemscore.Rot.Weighted>
3.0587

> <Gold.Chemscore.Internal.Correction.Weighted>
   9.000000E+99

> <Gold.Protein.RotatedTorsions>
[ 6907 6896 6895 6894 ] final  177.18 input  -60.11 | X-H torsion
[ 7974 7965 7964 7962 ] final  133.27 input  175.53 | X-H torsion
[ 8008 7997 7996 7995 ] final   55.74 input   59.86 | X-H torsion
[ 10167 10162 10161 10158 ] final -175.29 input  -65.29 | X-H torsion
[ 10718 10713 10712 10709 ] final   36.29 input   66.30 | X-H torsion
[ 10763 10752 10751 10750 ] final   76.49 input  -60.55 | X-H torsion
[ 11005 11000 10999 10996 ] final  110.08 input  -57.11 | X-H torsion

> <Gold.Protein.ActiveResidues>
 VAL166  LYS551  ARG553  GLY616  TRP617  ASP618  TYR619  PRO620  LYS621  CYS622 
 ASP623  PHE694  ASN695  SER759  ASP760  ASP761  ALA762  ILE779  LEU786  VAL792 
 PHE793  MET794  SER795  GLU796  ALA797  LYS798  CYS799  TRP800  GLU811  SER814 

> <Gold.Protein.RotatedAtoms>
  151.7081  133.3312  159.3283 H   0  0  0  0  0  0  0  0  0  0  0  0  # atno 6907 bound_to 6896
  150.7706  134.6556  159.6321 H   0  0  0  0  0  0  0  0  0  0  0  0  # atno 6908 bound_to 6896
  152.3728  134.6711  160.0222 H   0  0  0  0  0  0  0  0  0  0  0  0  # atno 6909 bound_to 6896
  144.9883  139.4433  143.5352 H   0  0  0  0  0  0  0  0  0  0  0  0  # atno 7974 bound_to 7965
  155.5061  140.3476  155.4380 H   0  0  0  0  0  0  0  0  0  0  0  0  # atno 8008 bound_to 7997
  156.0881  140.1403  156.9655 H   0  0  0  0  0  0  0  0  0  0  0  0  # atno 8009 bound_to 7997
  154.4618  140.0932  156.6892 H   0  0  0  0  0  0  0  0  0  0  0  0  # atno 8010 bound_to 7997
  139.5588  144.1920  152.1205 H   0  0  0  0  0  0  0  0  0  0  0  0  # atno 10167 bound_to 10162
  157.3331  130.7508  149.6861 H   0  0  0  0  0  0  0  0  0  0  0  0  # atno 10718 bound_to 10713
  153.0729  135.4949  154.8344 H   0  0  0  0  0  0  0  0  0  0  0  0  # atno 10763 bound_to 10752
  154.7048  135.3008  154.9289 H   0  0  0  0  0  0  0  0  0  0  0  0  # atno 10764 bound_to 10752
  154.0002  135.6767  153.4811 H   0  0  0  0  0  0  0  0  0  0  0  0  # atno 10765 bound_to 10752
  139.8874  134.9475  156.6224 H   0  0  0  0  0  0  0  0  0  0  0  0  # atno 11005 bound_to 11000
  146.3425  139.9198  142.8768 LP  0  0  0  0  0  0  0  0  0  0  0  0  # atno 17320 bound_to 7965
  145.2322  140.9977  143.3984 LP  0  0  0  0  0  0  0  0  0  0  0  0  # atno 17321 bound_to 7965
  140.1430  144.5185  150.6733 LP  0  0  0  0  0  0  0  0  0  0  0  0  # atno 17342 bound_to 10162
  140.6865  143.2353  151.5245 LP  0  0  0  0  0  0  0  0  0  0  0  0  # atno 17343 bound_to 10162
  155.9698  130.4189  150.4351 LP  0  0  0  0  0  0  0  0  0  0  0  0  # atno 17370 bound_to 10713
  157.2386  131.0520  151.2450 LP  0  0  0  0  0  0  0  0  0  0  0  0  # atno 17371 bound_to 10713
  140.7729  133.8723  155.8506 LP  0  0  0  0  0  0  0  0  0  0  0  0  # atno 17394 bound_to 11000
  140.9827  134.1384  157.4480 LP  0  0  0  0  0  0  0  0  0  0  0  0  # atno 17395 bound_to 11000

$$$$
