AV-unprocessed.smi:78|AV-procd|sdf|776|dock6
  -GOLD-   2262017133D 1   1.00000     0.00000
 Structure written by MMmdl.
 56 59  0  0  0  0  0  0  0  0  1 V2000
  148.3563  136.8911  157.2034 C   0  0  0  0  0  0  0  0  0  0  0  0
  148.7223  136.8257  155.7113 C   0  0  0  0  0  0  0  0  0  0  0  0
  149.6246  135.6143  155.4334 C   0  0  0  0  0  0  0  0  0  0  0  0
  149.3915  138.1260  155.2064 C   0  0  0  0  0  0  0  0  0  0  0  0
  148.5461  139.4227  155.3587 C   0  0  1  0  0  0  0  0  0  0  0  0
  149.2499  140.7014  154.8513 C   0  0  0  0  0  0  0  0  0  0  0  0
  150.4769  140.7809  154.8502 O   0  0  0  0  0  0  0  0  0  0  0  0
  148.4809  141.7228  154.4328 N   0  0  0  0  0  0  0  0  0  0  0  0
  147.0167  141.7257  154.3688 C   0  0  0  0  0  0  0  0  0  0  0  0
  146.3631  140.5018  155.0471 C   0  0  0  0  0  0  0  0  0  0  0  0
  147.1686  139.3000  154.8530 N   0  0  0  0  0  0  0  0  0  0  0  0
  146.9287  138.7103  153.6531 C   0  0  0  0  0  0  0  0  0  0  0  0
  147.3197  139.3028  152.4937 N   0  0  0  0  0  0  0  0  0  0  0  0
  147.0626  138.7174  151.3204 C   0  0  0  0  0  0  0  0  0  0  0  0
  146.4302  137.5663  151.0828 N   0  0  0  0  0  0  0  0  0  0  0  0
  146.0266  136.9746  152.2436 C   0  0  0  0  0  0  0  0  0  0  0  0
  146.2362  137.4738  153.5591 C   0  0  0  0  0  0  0  0  0  0  0  0
  145.7040  136.5950  154.4935 N   0  0  0  0  0  0  0  0  0  0  0  0
  145.2114  135.6262  153.7704 C   0  0  0  0  0  0  0  0  0  0  0  0
  145.3358  135.7871  152.4079 N   0  0  0  0  0  0  0  0  0  0  0  0
  144.9156  134.8737  151.3862 C   0  0  0  0  0  0  0  0  0  0  0  0
  144.2015  133.5684  151.7487 C   0  0  0  0  0  0  0  0  0  0  0  0
  144.8514  132.8868  150.5219 C   0  0  0  0  0  0  0  0  0  0  0  0
  145.3459  131.4370  150.6965 C   0  0  0  0  0  0  0  0  0  0  0  0
  146.4402  131.3386  151.5862 O   0  0  0  0  0  0  0  0  0  0  0  0
  144.0204  132.9306  149.2251 C   0  0  0  0  0  0  0  0  0  0  0  0
  142.8117  132.2101  149.3571 O   0  0  0  0  0  0  0  0  0  0  0  0
  145.9199  133.9998  150.6265 C   0  0  0  0  0  0  0  0  0  0  0  0
  149.2311  137.1061  157.8177 H   0  0  0  0  0  0  0  0  0  0  0  0
  147.9359  135.9451  157.5454 H   0  0  0  0  0  0  0  0  0  0  0  0
  147.6099  137.6602  157.4008 H   0  0  0  0  0  0  0  0  0  0  0  0
  147.8008  136.6613  155.1534 H   0  0  0  0  0  0  0  0  0  0  0  0
  150.5729  135.6965  155.9655 H   0  0  0  0  0  0  0  0  0  0  0  0
  149.8460  135.5241  154.3695 H   0  0  0  0  0  0  0  0  0  0  0  0
  149.1459  134.6863  155.7473 H   0  0  0  0  0  0  0  0  0  0  0  0
  150.3332  138.2502  155.7431 H   0  0  0  0  0  0  0  0  0  0  0  0
  149.6796  137.9961  154.1632 H   0  0  0  0  0  0  0  0  0  0  0  0
  148.4435  139.5966  156.4299 H   0  0  0  0  0  0  0  0  0  0  0  0
  148.9495  142.5584  154.1135 H   0  0  0  0  0  0  0  0  0  0  0  0
  146.6324  142.6501  154.8000 H   0  0  0  0  0  0  0  0  0  0  0  0
  146.7447  141.7396  153.3129 H   0  0  0  0  0  0  0  0  0  0  0  0
  146.2846  140.6797  156.1202 H   0  0  0  0  0  0  0  0  0  0  0  0
  145.3400  140.3675  154.6917 H   0  0  0  0  0  0  0  0  0  0  0  0
  147.4110  139.2490  150.4471 H   0  0  0  0  0  0  0  0  0  0  0  0
  144.7351  134.7659  154.2173 H   0  0  0  0  0  0  0  0  0  0  0  0
  144.3129  135.4603  150.6908 H   0  0  0  0  0  0  0  0  0  0  0  0
  144.5407  133.1649  152.7040 H   0  0  0  0  0  0  0  0  0  0  0  0
  143.1133  133.6307  151.7215 H   0  0  0  0  0  0  0  0  0  0  0  0
  144.5531  130.7952  151.0815 H   0  0  0  0  0  0  0  0  0  0  0  0
  145.6554  131.0150  149.7396 H   0  0  0  0  0  0  0  0  0  0  0  0
  147.2330  131.2551  151.0786 H   0  0  0  0  0  0  0  0  0  0  0  0
  143.7677  133.9546  148.9496 H   0  0  0  0  0  0  0  0  0  0  0  0
  144.5826  132.5202  148.3857 H   0  0  0  0  0  0  0  0  0  0  0  0
  142.0941  132.8251  149.3591 H   0  0  0  0  0  0  0  0  0  0  0  0
  146.2442  134.4146  149.6716 H   0  0  0  0  0  0  0  0  0  0  0  0
  146.7797  133.7267  151.2402 H   0  0  0  0  0  0  0  0  0  0  0  0
  1  2  1  0  0  0  0
  1 29  1  0  0  0  0
  1 30  1  0  0  0  0
  1 31  1  0  0  0  0
  2  3  1  0  0  0  0
  2  4  1  0  0  0  0
  2 32  1  0  0  0  0
  3 33  1  0  0  0  0
  3 34  1  0  0  0  0
  3 35  1  0  0  0  0
  4  5  1  0  0  0  0
  4 36  1  0  0  0  0
  4 37  1  0  0  0  0
  5 11  1  0  0  0  0
  5  6  1  0  0  0  0
  5 38  1  0  0  0  0
  6  7  2  0  0  0  0
  6  8  1  0  0  0  0
  8  9  1  0  0  0  0
  8 39  1  0  0  0  0
  9 10  1  0  0  0  0
  9 40  1  0  0  0  0
  9 41  1  0  0  0  0
 10 11  1  0  0  0  0
 10 42  1  0  0  0  0
 10 43  1  0  0  0  0
 11 12  1  0  0  0  0
 12 17  1  0  0  0  0
 12 13  2  0  0  0  0
 13 14  1  0  0  0  0
 14 15  2  0  0  0  0
 14 44  1  0  0  0  0
 15 16  1  0  0  0  0
 16 20  1  0  0  0  0
 16 17  2  0  0  0  0
 17 18  1  0  0  0  0
 18 19  2  0  0  0  0
 19 20  1  0  0  0  0
 19 45  1  0  0  0  0
 20 21  1  0  0  0  0
 21 28  1  0  0  0  0
 21 22  1  0  0  0  0
 21 46  1  0  0  0  0
 22 23  1  0  0  0  0
 22 47  1  0  0  0  0
 22 48  1  0  0  0  0
 23 24  1  0  0  0  0
 23 26  1  0  0  0  0
 23 28  1  0  0  0  0
 24 25  1  0  0  0  0
 24 49  1  0  0  0  0
 24 50  1  0  0  0  0
 25 51  1  0  0  0  0
 26 27  1  0  0  0  0
 26 52  1  0  0  0  0
 26 53  1  0  0  0  0
 27 54  1  0  0  0  0
 28 55  1  0  0  0  0
 28 56  1  0  0  0  0
M  END
> <s_m_source_file>
AV-unprocessed.smi

> <i_m_source_file_index>
78

> <i_lp_mmshare_version>
43012

> <i_f3d_flags>
0

> <s_epik_input>
W0NIM11bQ0hdKFtDSDNdKVtDSDJdW0NAQEhdMUMoPU8pW05IXVtDSDJdW0NIMl1OMWMobltjSF1uMiljKGMyMyluW2NIXW4zW0NIXShbQ0gyXTQpW0NIMl1DNChbQ0gyXVtPSF0pW0NIMl1bT0hd

> <s_epik_cmdline>
J2VwaWtfcHl0aG9uJywgJy1waCcsICc3LjAnLCAnLXRuJywgJzgnLCAnLW1hJywgJzIwMCcsICctbWV0YWxfYmluZGluZycsICctaW1hZScsICc8aW5maWxlLm1hZT4nLCAnLW9tYWUnLCAnPG91dGZpbGUubWFlPic=

> <r_lp_tautomer_probability>
1

> <r_epik_Ionization_Penalty>
0.000550083

> <r_epik_Ionization_Penalty_Charging>
0

> <r_epik_Ionization_Penalty_Neutral>
0.000550083

> <r_epik_State_Penalty>
0.000250415

> <r_epik_Charging_Adjusted_Penalty>
0.000250415

> <i_epik_Tot_Q>
0

> <i_epik_Tot_abs_Q>
0

> <r_epik_Metal_State_Penalty>
-0

> <b_epik_Metal_Only>
0

> <s_lp_Force_Field>
OPLS_2005

> <r_lp_Energy>
48.678

> <b_lp_Chiralities_Consistent>
1

> <s_lp_Variant>
AV-unprocessed.smi:78-2

> <Gold.Version>
5.8.1

> <Gold.Id.Protein>
6NUR|6NUR_protein|mol2

> <Gold.PLP.Fitness>
47.5278

> <Gold.PLP.PLP>
-36.2890

> <Gold.PLP.part.hbond>
-5.5064

> <Gold.PLP.part.metal>
0.0000

> <Gold.PLP.part.buried>
-6.3542

> <Gold.PLP.part.nonpolar>
-28.8643

> <Gold.PLP.part.repulsive>
3.8880

> <Gold.PLP.ligand.clash>
0.0000

> <Gold.PLP.ligand.torsion>
0.7245

> <Gold.PLP.Chemscore.Hbond>
3.4668

> <Gold.PLP.Chemscore.CHOScore>
0.4842

> <Gold.PLP.Chemscore.Metal>
0.0000

> <Gold.Chemscore.Hbonds>
donor molecule, donor type, donor heavy atom, donor atom, acceptor molecule, acceptor atom, score
      L1  H    25    51       P1 10747  1.00
      L1  H    27    54       P1 10186  1.00
      P1  H  7989  7998       L1     7  0.85
      P1  H 10785 10796       L1    27  0.60
      L1  C    14    44       P1  7957  0.40

> <Gold.PLP.Chemscore.Internal.Correction>
0.8349

> <Gold.Rescore>
     Score         DG    S(hbond)    S(metal)    S(lipo)     H(rot)  DE(clash)    DE(int)     intcor
     11.83     -14.56       3.15        0.00      69.13       3.72       2.05       0.68       ----

> <Gold.Chemscore.Fitness>
11.8302

> <Gold.Chemscore.DG>
-14.5594

> <Gold.Chemscore.ZeroCoef>
-5.4800

> <Gold.Chemscore.Hbond>
3.1512

> <Gold.Chemscore.Metal>
0.0000

> <Gold.Chemscore.Lipo>
69.1255

> <Gold.Chemscore.Internal_Hbond>
0.0000

> <Gold.Chemscore.DEClash>
2.0468

> <Gold.Chemscore.DEInternal>
0.6825

> <Gold.Chemscore.Rot>
3.7239

> <Gold.Chemscore.Internal.Correction>
   9.000000E+99

> <Gold.Chemscore.Hbonds>
donor molecule, donor type, donor heavy atom, donor atom, acceptor molecule, acceptor atom, score
      L1  H    25    51       P1 10747  0.99
      L1  H    27    54       P1 10186  0.99
      P1  H  7989  7998       L1     7  0.83
      P1  H 10785 10796       L1    27  0.39

> <Gold.Chemscore.Hbond.Weighted>
-10.5250

> <Gold.Chemscore.Metal.Weighted>
-0.0000

> <Gold.Chemscore.Lipo.Weighted>
-8.0877

> <Gold.Chemscore.Internal_Hbond.Weighted>
0.0000

> <Gold.Chemscore.DEClash.Weighted>
2.0468

> <Gold.Chemscore.DEInternal.Weighted>
0.6825

> <Gold.Chemscore.Rot.Weighted>
9.5332

> <Gold.Chemscore.Internal.Correction.Weighted>
   9.000000E+99

> <Gold.Protein.RotatedTorsions>
[ 6907 6896 6895 6894 ] final  104.86 input  -60.11 | X-H torsion
[ 7974 7965 7964 7962 ] final   -2.71 input  175.53 | X-H torsion
[ 8008 7997 7996 7995 ] final  128.89 input   59.86 | X-H torsion
[ 10167 10162 10161 10158 ] final  153.10 input  -65.29 | X-H torsion
[ 10718 10713 10712 10709 ] final   85.54 input   66.30 | X-H torsion
[ 10763 10752 10751 10750 ] final -123.25 input  -60.55 | X-H torsion
[ 11005 11000 10999 10996 ] final  -28.49 input  -57.11 | X-H torsion

> <Gold.Protein.ActiveResidues>
 VAL166  LYS551  ARG553  GLY616  TRP617  ASP618  TYR619  PRO620  LYS621  CYS622 
 ASP623  PHE694  ASN695  SER759  ASP760  ASP761  ALA762  ILE779  LEU786  VAL792 
 PHE793  MET794  SER795  GLU796  ALA797  LYS798  CYS799  TRP800  GLU811  SER814 

> <Gold.Protein.RotatedAtoms>
  152.5250  133.9614  159.7718 H   0  0  0  0  0  0  0  0  0  0  0  0  # atno 6907 bound_to 6896
  150.9904  133.6147  159.2716 H   0  0  0  0  0  0  0  0  0  0  0  0  # atno 6908 bound_to 6896
  151.3292  135.0843  159.9386 H   0  0  0  0  0  0  0  0  0  0  0  0  # atno 6909 bound_to 6896
  146.2400  140.1612  142.8333 H   0  0  0  0  0  0  0  0  0  0  0  0  # atno 7974 bound_to 7965
  156.2925  140.2634  156.2509 H   0  0  0  0  0  0  0  0  0  0  0  0  # atno 8008 bound_to 7997
  154.9883  140.0389  157.2327 H   0  0  0  0  0  0  0  0  0  0  0  0  # atno 8009 bound_to 7997
  154.7709  140.2778  155.6144 H   0  0  0  0  0  0  0  0  0  0  0  0  # atno 8010 bound_to 7997
  139.4829  144.5302  151.7735 H   0  0  0  0  0  0  0  0  0  0  0  0  # atno 10167 bound_to 10162
  157.6916  131.0179  150.2838 H   0  0  0  0  0  0  0  0  0  0  0  0  # atno 10718 bound_to 10713
  154.8704  135.4104  154.2914 H   0  0  0  0  0  0  0  0  0  0  0  0  # atno 10763 bound_to 10752
  153.3789  135.7010  153.6586 H   0  0  0  0  0  0  0  0  0  0  0  0  # atno 10764 bound_to 10752
  153.5416  135.3647  155.2692 H   0  0  0  0  0  0  0  0  0  0  0  0  # atno 10765 bound_to 10752
  140.9213  133.7397  156.0805 H   0  0  0  0  0  0  0  0  0  0  0  0  # atno 11005 bound_to 11000
  145.0088  140.8696  143.5237 LP  0  0  0  0  0  0  0  0  0  0  0  0  # atno 17320 bound_to 7965
  145.1642  139.2441  143.5376 LP  0  0  0  0  0  0  0  0  0  0  0  0  # atno 17321 bound_to 7965
  140.4827  144.1426  150.5935 LP  0  0  0  0  0  0  0  0  0  0  0  0  # atno 17342 bound_to 10162
  140.4260  143.2590  151.9656 LP  0  0  0  0  0  0  0  0  0  0  0  0  # atno 17343 bound_to 10162
  156.3380  130.3811  149.7433 LP  0  0  0  0  0  0  0  0  0  0  0  0  # atno 17370 bound_to 10713
  156.4951  130.8103  151.3110 LP  0  0  0  0  0  0  0  0  0  0  0  0  # atno 17371 bound_to 10713
  140.7984  134.3537  157.5446 LP  0  0  0  0  0  0  0  0  0  0  0  0  # atno 17394 bound_to 11000
  139.8776  134.9183  156.3199 LP  0  0  0  0  0  0  0  0  0  0  0  0  # atno 17395 bound_to 11000

$$$$
