AV-unprocessed.smi:1213|AV-procd|sdf|5087|dock10
  -GOLD-   22720 4143D 1   1.00000     0.00000
 Structure written by MMmdl.
 35 36  0  0  0  0  0  0  0  0  2 V2000
  146.7581  136.1978  152.9318 N   0  0  0  0  0  0  0  0  0  0  0  0
  146.0794  137.2811  153.3182 C   0  0  0  0  0  0  0  0  0  0  0  0
  145.1376  137.2217  154.1054 O   0  0  0  0  0  0  0  0  0  0  0  0
  146.5165  138.6264  152.7272 C   0  0  0  0  0  0  0  0  0  0  0  0
  147.2051  139.5282  153.6794 N   0  0  0  0  0  0  0  0  0  0  0  0
  147.4173  140.8739  153.1252 C   0  0  0  0  0  0  0  0  0  0  0  0
  148.0749  141.7933  154.1698 C   0  0  0  0  0  0  0  0  0  0  0  0
  149.4120  141.2172  154.6559 C   0  0  0  0  0  0  0  0  0  0  0  0
  149.9554  142.0526  155.7236 N   0  0  0  0  0  0  0  0  0  0  0  0
  150.9191  141.7013  156.5874 C   0  0  0  0  0  0  0  0  0  0  0  0
  151.4282  140.5798  156.5205 O   0  0  0  0  0  0  0  0  0  0  0  0
  151.2333  142.6722  157.4753 N   0  5  0  0  0  0  0  0  0  0  0  0
  152.1172  142.4257  158.4559 C   0  0  0  0  0  0  0  0  0  0  0  0
  152.8035  141.2809  158.5483 N   0  0  0  0  0  0  0  0  0  0  0  0
  153.6621  141.2352  159.6482 C   0  0  0  0  0  0  0  0  0  0  0  0
  153.6216  142.3683  160.4168 C   0  0  0  0  0  0  0  0  0  0  0  0
  152.4971  143.5333  159.7782 S   0  0  0  0  0  0  0  0  0  0  0  0
  149.1833  139.7778  155.1446 C   0  0  0  0  0  0  0  0  0  0  0  0
  148.4892  138.9313  154.0636 C   0  0  0  0  0  0  0  0  0  0  0  0
  146.5115  135.2913  153.3018 H   0  0  0  0  0  0  0  0  0  0  0  0
  147.5213  136.2925  152.2773 H   0  0  0  0  0  0  0  0  0  0  0  0
  147.1788  138.4096  151.8876 H   0  0  0  0  0  0  0  0  0  0  0  0
  145.6433  139.1309  152.3090 H   0  0  0  0  0  0  0  0  0  0  0  0
  148.0366  140.8177  152.2282 H   0  0  0  0  0  0  0  0  0  0  0  0
  146.4717  141.3263  152.8267 H   0  0  0  0  0  0  0  0  0  0  0  0
  148.2308  142.7843  153.7415 H   0  0  0  0  0  0  0  0  0  0  0  0
  147.3957  141.9250  155.0139 H   0  0  0  0  0  0  0  0  0  0  0  0
  150.1075  141.2066  153.8146 H   0  0  0  0  0  0  0  0  0  0  0  0
  149.5677  142.9799  155.8181 H   0  0  0  0  0  0  0  0  0  0  0  0
  154.2655  140.3542  159.8079 H   0  0  0  0  0  0  0  0  0  0  0  0
  154.1795  142.5877  161.3145 H   0  0  0  0  0  0  0  0  0  0  0  0
  150.1339  139.3169  155.4158 H   0  0  0  0  0  0  0  0  0  0  0  0
  148.5736  139.7830  156.0497 H   0  0  0  0  0  0  0  0  0  0  0  0
  148.3269  137.9265  154.4562 H   0  0  0  0  0  0  0  0  0  0  0  0
  149.1378  138.8296  153.1915 H   0  0  0  0  0  0  0  0  0  0  0  0
  1  2  1  0  0  0  0
  1 20  1  0  0  0  0
  1 21  1  0  0  0  0
  2  3  2  0  0  0  0
  2  4  1  0  0  0  0
  4  5  1  0  0  0  0
  4 22  1  0  0  0  0
  4 23  1  0  0  0  0
  5 19  1  0  0  0  0
  5  6  1  0  0  0  0
  6  7  1  0  0  0  0
  6 24  1  0  0  0  0
  6 25  1  0  0  0  0
  7  8  1  0  0  0  0
  7 26  1  0  0  0  0
  7 27  1  0  0  0  0
  8  9  1  0  0  0  0
  8 18  1  0  0  0  0
  8 28  1  0  0  0  0
  9 10  1  0  0  0  0
  9 29  1  0  0  0  0
 10 11  2  0  0  0  0
 10 12  1  0  0  0  0
 12 13  1  0  0  0  0
 13 17  1  0  0  0  0
 13 14  2  0  0  0  0
 14 15  1  0  0  0  0
 15 16  2  0  0  0  0
 15 30  1  0  0  0  0
 16 17  1  0  0  0  0
 16 31  1  0  0  0  0
 18 19  1  0  0  0  0
 18 32  1  0  0  0  0
 18 33  1  0  0  0  0
 19 34  1  0  0  0  0
 19 35  1  0  0  0  0
M  CHG  1  12  -1
M  END
> <s_m_source_file>
AV-unprocessed.smi

> <i_m_source_file_index>
1213

> <i_lp_mmshare_version>
43012

> <i_f3d_flags>
0

> <s_epik_input>
W05IMl1DKD1PKVtDSDJdTjFbQ0gyXVtDSDJdW0NIXShbQ0gyXVtDSDJdMSlbTkhdQyg9TylbTkhdYzJuW2NIXVtjSF1zMg==

> <s_epik_cmdline>
J2VwaWtfcHl0aG9uJywgJy1waCcsICc3LjAnLCAnLXRuJywgJzgnLCAnLW1hJywgJzIwMCcsICctbWV0YWxfYmluZGluZycsICctaW1hZScsICc8aW5maWxlLm1hZT4nLCAnLW9tYWUnLCAnPG91dGZpbGUubWFlPic=

> <r_lp_tautomer_probability>
0.999

> <r_epik_Ionization_Penalty>
7.12626

> <r_epik_Ionization_Penalty_Charging>
5.84953

> <r_epik_Ionization_Penalty_Neutral>
1.27674

> <r_epik_State_Penalty>
5.99619

> <r_epik_Charging_Adjusted_Penalty>
11.8457

> <i_epik_Tot_Q>
-1

> <i_epik_Tot_abs_Q>
1

> <r_epik_Metal_State_Penalty>
1.98285

> <b_epik_Metal_Only>
1

> <s_lp_Force_Field>
OPLS_2005

> <r_lp_Energy>
7.2689

> <b_lp_Chiralities_Consistent>
1

> <s_lp_Variant>
AV-unprocessed.smi:1213-4

> <Gold.Version>
5.8.1

> <Gold.Id.Protein>
6NUR|6NUR_protein|mol2

> <Gold.PLP.Fitness>
38.5436

> <Gold.PLP.PLP>
-33.3134

> <Gold.PLP.part.hbond>
-1.9812

> <Gold.PLP.part.metal>
0.0000

> <Gold.PLP.part.buried>
-3.7671

> <Gold.PLP.part.nonpolar>
-28.3751

> <Gold.PLP.part.repulsive>
0.5287

> <Gold.PLP.ligand.clash>
0.0000

> <Gold.PLP.ligand.torsion>
0.3995

> <Gold.PLP.Chemscore.Hbond>
2.0000

> <Gold.PLP.Chemscore.CHOScore>
0.0000

> <Gold.PLP.Chemscore.Metal>
0.0000

> <Gold.Chemscore.Hbonds>
donor molecule, donor type, donor heavy atom, donor atom, acceptor molecule, acceptor atom, score
      L1  H     1    21       P1  7948  0.88
      L1  H     9    29       P1  8028  1.00

> <Gold.PLP.Chemscore.Internal.Correction>
0.0292

> <Gold.Rescore>
     Score         DG    S(hbond)    S(metal)    S(lipo)     H(rot)  DE(clash)    DE(int)     intcor
     11.82     -15.35       1.96        0.00      72.50       2.01       0.62       2.90       ----

> <Gold.Chemscore.Fitness>
11.8249

> <Gold.Chemscore.DG>
-15.3494

> <Gold.Chemscore.ZeroCoef>
-5.4800

> <Gold.Chemscore.Hbond>
1.9564

> <Gold.Chemscore.Metal>
0.0000

> <Gold.Chemscore.Lipo>
72.5015

> <Gold.Chemscore.Internal_Hbond>
0.0000

> <Gold.Chemscore.DEClash>
0.6221

> <Gold.Chemscore.DEInternal>
2.9025

> <Gold.Chemscore.Rot>
2.0107

> <Gold.Chemscore.Internal.Correction>
   9.000000E+99

> <Gold.Chemscore.Hbonds>
donor molecule, donor type, donor heavy atom, donor atom, acceptor molecule, acceptor atom, score
      L1  H     1    21       P1  7948  0.84
      L1  H     9    29       P1  8028  1.00

> <Gold.Chemscore.Hbond.Weighted>
-6.5342

> <Gold.Chemscore.Metal.Weighted>
-0.0000

> <Gold.Chemscore.Lipo.Weighted>
-8.4827

> <Gold.Chemscore.Internal_Hbond.Weighted>
0.0000

> <Gold.Chemscore.DEClash.Weighted>
0.6221

> <Gold.Chemscore.DEInternal.Weighted>
2.9025

> <Gold.Chemscore.Rot.Weighted>
5.1474

> <Gold.Chemscore.Internal.Correction.Weighted>
   9.000000E+99

> <Gold.Protein.RotatedTorsions>
[ 6907 6896 6895 6894 ] final  -70.01 input  -60.11 | X-H torsion
[ 7974 7965 7964 7962 ] final   75.08 input  175.53 | X-H torsion
[ 8008 7997 7996 7995 ] final  142.14 input   59.86 | X-H torsion
[ 10167 10162 10161 10158 ] final  177.20 input  -65.29 | X-H torsion
[ 10718 10713 10712 10709 ] final  -63.65 input   66.30 | X-H torsion
[ 10763 10752 10751 10750 ] final  160.60 input  -60.55 | X-H torsion
[ 11005 11000 10999 10996 ] final  -19.31 input  -57.11 | X-H torsion

> <Gold.Protein.ActiveResidues>
 VAL166  LYS551  ARG553  GLY616  TRP617  ASP618  TYR619  PRO620  LYS621  CYS622 
 ASP623  PHE694  ASN695  SER759  ASP760  ASP761  ALA762  ILE779  LEU786  VAL792 
 PHE793  MET794  SER795  GLU796  ALA797  LYS798  CYS799  TRP800  GLU811  SER814 

> <Gold.Protein.RotatedAtoms>
  150.7278  134.5515  159.5796 H   0  0  0  0  0  0  0  0  0  0  0  0  # atno 6907 bound_to 6896
  152.3001  134.7618  160.0368 H   0  0  0  0  0  0  0  0  0  0  0  0  # atno 6908 bound_to 6896
  151.8202  133.3358  159.3618 H   0  0  0  0  0  0  0  0  0  0  0  0  # atno 6909 bound_to 6896
  145.7201  139.2645  143.1601 H   0  0  0  0  0  0  0  0  0  0  0  0  # atno 7974 bound_to 7965
  156.2954  140.2297  156.4679 H   0  0  0  0  0  0  0  0  0  0  0  0  # atno 8008 bound_to 7997
  154.7961  140.0451  157.1259 H   0  0  0  0  0  0  0  0  0  0  0  0  # atno 8009 bound_to 7997
  154.9588  140.3051  155.5044 H   0  0  0  0  0  0  0  0  0  0  0  0  # atno 8010 bound_to 7997
  139.5244  144.2826  152.0534 H   0  0  0  0  0  0  0  0  0  0  0  0  # atno 10167 bound_to 10162
  156.0778  130.4223  150.1307 H   0  0  0  0  0  0  0  0  0  0  0  0  # atno 10718 bound_to 10713
  154.2499  135.2772  155.2820 H   0  0  0  0  0  0  0  0  0  0  0  0  # atno 10763 bound_to 10752
  154.5473  135.5685  153.6895 H   0  0  0  0  0  0  0  0  0  0  0  0  # atno 10764 bound_to 10752
  152.9982  135.6266  154.2646 H   0  0  0  0  0  0  0  0  0  0  0  0  # atno 10765 bound_to 10752
  140.8354  133.7966  155.9803 H   0  0  0  0  0  0  0  0  0  0  0  0  # atno 11005 bound_to 11000
  146.0633  140.7947  142.9724 LP  0  0  0  0  0  0  0  0  0  0  0  0  # atno 17320 bound_to 7965
  144.6919  140.3230  143.7229 LP  0  0  0  0  0  0  0  0  0  0  0  0  # atno 17321 bound_to 7965
  140.2280  144.4398  150.6312 LP  0  0  0  0  0  0  0  0  0  0  0  0  # atno 17342 bound_to 10162
  140.6374  143.2197  151.6365 LP  0  0  0  0  0  0  0  0  0  0  0  0  # atno 17343 bound_to 10162
  156.9345  130.9724  151.3527 LP  0  0  0  0  0  0  0  0  0  0  0  0  # atno 17370 bound_to 10713
  157.5881  130.8424  149.8619 LP  0  0  0  0  0  0  0  0  0  0  0  0  # atno 17371 bound_to 10713
  140.8953  134.2445  157.5072 LP  0  0  0  0  0  0  0  0  0  0  0  0  # atno 17394 bound_to 11000
  139.8704  134.9681  156.4619 LP  0  0  0  0  0  0  0  0  0  0  0  0  # atno 17395 bound_to 11000

$$$$
