AV-unprocessed.smi:2658|AV-procd|sdf|10310|dock6
  -GOLD-   2272014323D 1   1.00000     0.00000
 Structure written by MMmdl.
 47 49  0  0  0  0  0  0  0  0  2 V2000
  152.7044  143.3749  161.7392 C   0  0  0  0  0  0  0  0  0  0  0  0
  152.3352  142.7864  160.3879 C   0  0  0  0  0  0  0  0  0  0  0  0
  152.3620  141.3821  160.2338 C   0  0  0  0  0  0  0  0  0  0  0  0
  152.0275  140.8744  158.9839 C   0  0  0  0  0  0  0  0  0  0  0  0
  151.9663  139.5594  158.5179 N   0  3  0  0  0  0  0  0  0  0  0  0
  151.5924  139.5583  157.2087 C   0  0  0  0  0  0  0  0  0  0  0  0
  151.4128  140.8531  156.8314 N   0  0  0  0  0  0  0  0  0  0  0  0
  151.0186  141.4028  155.5266 C   0  0  0  0  0  0  0  0  0  0  0  0
  149.7010  140.7971  155.0003 C   0  0  2  0  0  0  0  0  0  0  0  0
  149.4577  141.1547  153.6546 O   0  0  0  0  0  0  0  0  0  0  0  0
  148.4712  141.1634  155.8465 C   0  0  0  0  0  0  0  0  0  0  0  0
  147.3841  141.5144  154.9939 O   0  0  0  0  0  0  0  0  0  0  0  0
  146.4357  142.3978  155.4663 C   0  0  0  0  0  0  0  0  0  0  0  0
  145.7433  143.2070  154.5459 C   0  0  0  0  0  0  0  0  0  0  0  0
  144.7795  144.0994  155.0514 C   0  0  0  0  0  0  0  0  0  0  0  0
  143.9970  145.0060  154.1199 C   0  0  0  0  0  0  0  0  0  0  0  0
  144.5805  144.1074  156.4504 C   0  0  0  0  0  0  0  0  0  0  0  0
  143.5624  145.0216  157.1059 C   0  0  0  0  0  0  0  0  0  0  0  0
  145.2800  143.3047  157.2861 N   0  0  0  0  0  0  0  0  0  0  0  0
  146.1974  142.4612  156.8018 N   0  0  0  0  0  0  0  0  0  0  0  0
  151.6713  141.7105  157.9078 C   0  0  0  0  0  0  0  0  0  0  0  0
  151.6356  143.0963  158.0446 C   0  0  0  0  0  0  0  0  0  0  0  0
  151.9756  143.6326  159.3072 C   0  0  0  0  0  0  0  0  0  0  0  0
  151.9506  145.1413  159.4837 C   0  0  0  0  0  0  0  0  0  0  0  0
  152.9527  142.5951  162.4597 H   0  0  0  0  0  0  0  0  0  0  0  0
  151.8744  143.9527  162.1461 H   0  0  0  0  0  0  0  0  0  0  0  0
  153.5704  144.0307  161.6467 H   0  0  0  0  0  0  0  0  0  0  0  0
  152.6355  140.7320  161.0519 H   0  0  0  0  0  0  0  0  0  0  0  0
  151.4649  138.6873  156.5818 H   0  0  0  0  0  0  0  0  0  0  0  0
  150.9028  142.4798  155.6547 H   0  0  0  0  0  0  0  0  0  0  0  0
  151.8375  141.2667  154.8201 H   0  0  0  0  0  0  0  0  0  0  0  0
  149.7957  139.7107  155.0086 H   0  0  0  0  0  0  0  0  0  0  0  0
  149.5074  140.3740  153.1246 H   0  0  0  0  0  0  0  0  0  0  0  0
  148.2064  140.3365  156.5082 H   0  0  0  0  0  0  0  0  0  0  0  0
  148.7189  142.0204  156.4754 H   0  0  0  0  0  0  0  0  0  0  0  0
  145.9495  143.1419  153.4877 H   0  0  0  0  0  0  0  0  0  0  0  0
  144.1483  146.0514  154.3896 H   0  0  0  0  0  0  0  0  0  0  0  0
  142.9311  144.7843  154.1777 H   0  0  0  0  0  0  0  0  0  0  0  0
  144.3136  144.8759  153.0847 H   0  0  0  0  0  0  0  0  0  0  0  0
  142.5692  144.8428  156.6934 H   0  0  0  0  0  0  0  0  0  0  0  0
  143.8252  146.0659  156.9361 H   0  0  0  0  0  0  0  0  0  0  0  0
  143.5128  144.8570  158.1830 H   0  0  0  0  0  0  0  0  0  0  0  0
  151.3671  143.7418  157.2217 H   0  0  0  0  0  0  0  0  0  0  0  0
  151.6553  145.6461  158.5633 H   0  0  0  0  0  0  0  0  0  0  0  0
  152.9375  145.5106  159.7637 H   0  0  0  0  0  0  0  0  0  0  0  0
  151.2408  145.4244  160.2612 H   0  0  0  0  0  0  0  0  0  0  0  0
  152.1681  138.7230  159.0508 H   0  0  0  0  0  0  0  0  0  0  0  0
  1  2  1  0  0  0  0
  1 25  1  0  0  0  0
  1 26  1  0  0  0  0
  1 27  1  0  0  0  0
  2 23  1  0  0  0  0
  2  3  2  0  0  0  0
  3  4  1  0  0  0  0
  3 28  1  0  0  0  0
  4 21  2  0  0  0  0
  4  5  1  0  0  0  0
  5  6  2  0  0  0  0
  5 47  1  0  0  0  0
  6  7  1  0  0  0  0
  6 29  1  0  0  0  0
  7  8  1  0  0  0  0
  7 21  1  0  0  0  0
  8  9  1  0  0  0  0
  8 30  1  0  0  0  0
  8 31  1  0  0  0  0
  9 10  1  0  0  0  0
  9 11  1  0  0  0  0
  9 32  1  0  0  0  0
 10 33  1  0  0  0  0
 11 12  1  0  0  0  0
 11 34  1  0  0  0  0
 11 35  1  0  0  0  0
 12 13  1  0  0  0  0
 13 20  1  0  0  0  0
 13 14  2  0  0  0  0
 14 15  1  0  0  0  0
 14 36  1  0  0  0  0
 15 16  1  0  0  0  0
 15 17  2  0  0  0  0
 16 37  1  0  0  0  0
 16 38  1  0  0  0  0
 16 39  1  0  0  0  0
 17 18  1  0  0  0  0
 17 19  1  0  0  0  0
 18 40  1  0  0  0  0
 18 41  1  0  0  0  0
 18 42  1  0  0  0  0
 19 20  2  0  0  0  0
 21 22  1  0  0  0  0
 22 23  2  0  0  0  0
 22 43  1  0  0  0  0
 23 24  1  0  0  0  0
 24 44  1  0  0  0  0
 24 45  1  0  0  0  0
 24 46  1  0  0  0  0
M  CHG  1   5   1
M  END
> <s_m_source_file>
AV-unprocessed.smi

> <i_m_source_file_index>
2658

> <i_lp_mmshare_version>
43012

> <i_f3d_flags>
0

> <s_epik_input>
W0NIM11jKFtjSF0xKWMoW0NIM10pW2NIXWMoYzEyKW4oW2NIXW4yKVtDSDJdW0NASF0oW09IXSlbQ0gyXU9jM1tjSF1jKFtDSDNdKWMoW0NIM10pbm4z

> <s_epik_cmdline>
J2VwaWtfcHl0aG9uJywgJy1waCcsICc3LjAnLCAnLXRuJywgJzgnLCAnLW1hJywgJzIwMCcsICctbWV0YWxfYmluZGluZycsICctaW1hZScsICc8aW5maWxlLm1hZT4nLCAnLW9tYWUnLCAnPG91dGZpbGUubWFlPic=

> <r_lp_tautomer_probability>
1

> <r_epik_Ionization_Penalty>
1.0494

> <r_epik_Ionization_Penalty_Charging>
1.04926

> <r_epik_Ionization_Penalty_Neutral>
0.000140304

> <r_epik_State_Penalty>
1.10197

> <r_epik_Charging_Adjusted_Penalty>
2.15123

> <i_epik_Tot_Q>
1

> <i_epik_Tot_abs_Q>
1

> <r_epik_Metal_State_Penalty>
1.19636

> <b_epik_Metal_Only>
0

> <s_lp_Force_Field>
OPLS_2005

> <r_lp_Energy>
21.5781

> <b_lp_Chiralities_Consistent>
1

> <s_lp_Variant>
AV-unprocessed.smi:2658-3

> <Gold.Version>
5.8.1

> <Gold.Id.Protein>
6NUR|6NUR_protein|mol2

> <Gold.PLP.Fitness>
50.3898

> <Gold.PLP.PLP>
-48.5010

> <Gold.PLP.part.hbond>
-3.0000

> <Gold.PLP.part.metal>
0.0000

> <Gold.PLP.part.buried>
-5.0163

> <Gold.PLP.part.nonpolar>
-40.0736

> <Gold.PLP.part.repulsive>
0.5206

> <Gold.PLP.ligand.clash>
0.2183

> <Gold.PLP.ligand.torsion>
1.2674

> <Gold.PLP.Chemscore.Hbond>
1.5360

> <Gold.PLP.Chemscore.CHOScore>
0.0000

> <Gold.PLP.Chemscore.Metal>
0.0000

> <Gold.Chemscore.Hbonds>
donor molecule, donor type, donor heavy atom, donor atom, acceptor molecule, acceptor atom, score
      L1  H    10    33       P1  7957  0.67
      P1  H  8011  8017       L1    10  0.91

> <Gold.PLP.Chemscore.Internal.Correction>
0.0339

> <Gold.Rescore>
     Score         DG    S(hbond)    S(metal)    S(lipo)     H(rot)  DE(clash)    DE(int)     intcor
     15.63     -18.21       1.10        0.00     131.43       2.47       1.38       1.19       ----

> <Gold.Chemscore.Fitness>
15.6334

> <Gold.Chemscore.DG>
-18.2068

> <Gold.Chemscore.ZeroCoef>
-5.4800

> <Gold.Chemscore.Hbond>
1.0984

> <Gold.Chemscore.Metal>
0.0000

> <Gold.Chemscore.Lipo>
131.4324

> <Gold.Chemscore.Internal_Hbond>
0.0000

> <Gold.Chemscore.DEClash>
1.3849

> <Gold.Chemscore.DEInternal>
1.1885

> <Gold.Chemscore.Rot>
2.4685

> <Gold.Chemscore.Internal.Correction>
   9.000000E+99

> <Gold.Chemscore.Hbonds>
donor molecule, donor type, donor heavy atom, donor atom, acceptor molecule, acceptor atom, score
      L1  H    10    33       P1  7957  0.66
      P1  H  8011  8017       L1    10  0.20

> <Gold.Chemscore.Hbond.Weighted>
-3.6685

> <Gold.Chemscore.Metal.Weighted>
-0.0000

> <Gold.Chemscore.Lipo.Weighted>
-15.3776

> <Gold.Chemscore.Internal_Hbond.Weighted>
0.0000

> <Gold.Chemscore.DEClash.Weighted>
1.3849

> <Gold.Chemscore.DEInternal.Weighted>
1.1885

> <Gold.Chemscore.Rot.Weighted>
6.3194

> <Gold.Chemscore.Internal.Correction.Weighted>
   9.000000E+99

> <Gold.Protein.RotatedTorsions>
[ 6907 6896 6895 6894 ] final    9.68 input  -60.11 | X-H torsion
[ 7974 7965 7964 7962 ] final -102.75 input  175.53 | X-H torsion
[ 8008 7997 7996 7995 ] final -112.87 input   59.86 | X-H torsion
[ 10167 10162 10161 10158 ] final   46.79 input  -65.29 | X-H torsion
[ 10718 10713 10712 10709 ] final  -12.60 input   66.30 | X-H torsion
[ 10763 10752 10751 10750 ] final  136.46 input  -60.55 | X-H torsion
[ 11005 11000 10999 10996 ] final  -46.61 input  -57.11 | X-H torsion

> <Gold.Protein.ActiveResidues>
 VAL166  LYS551  ARG553  GLY616  TRP617  ASP618  TYR619  PRO620  LYS621  CYS622 
 ASP623  PHE694  ASN695  SER759  ASP760  ASP761  ALA762  ILE779  LEU786  VAL792 
 PHE793  MET794  SER795  GLU796  ALA797  LYS798  CYS799  TRP800  GLU811  SER814 

> <Gold.Protein.RotatedAtoms>
  151.7261  135.0884  160.0292 H   0  0  0  0  0  0  0  0  0  0  0  0  # atno 6907 bound_to 6896
  152.3571  133.6246  159.5996 H   0  0  0  0  0  0  0  0  0  0  0  0  # atno 6908 bound_to 6896
  150.7579  133.9399  159.3494 H   0  0  0  0  0  0  0  0  0  0  0  0  # atno 6909 bound_to 6896
  145.2647  140.9280  143.3020 H   0  0  0  0  0  0  0  0  0  0  0  0  # atno 7974 bound_to 7965
  155.0119  140.0393  157.2403 H   0  0  0  0  0  0  0  0  0  0  0  0  # atno 8008 bound_to 7997
  154.7453  140.2756  155.6315 H   0  0  0  0  0  0  0  0  0  0  0  0  # atno 8009 bound_to 7997
  156.2873  140.2657  156.2191 H   0  0  0  0  0  0  0  0  0  0  0  0  # atno 8010 bound_to 7997
  140.3102  144.2829  150.6201 H   0  0  0  0  0  0  0  0  0  0  0  0  # atno 10167 bound_to 10162
  156.6422  130.4931  149.6091 H   0  0  0  0  0  0  0  0  0  0  0  0  # atno 10718 bound_to 10713
  153.8570  135.3072  155.3436 H   0  0  0  0  0  0  0  0  0  0  0  0  # atno 10763 bound_to 10752
  154.7866  135.4806  153.9962 H   0  0  0  0  0  0  0  0  0  0  0  0  # atno 10764 bound_to 10752
  153.1484  135.6838  153.9013 H   0  0  0  0  0  0  0  0  0  0  0  0  # atno 10765 bound_to 10752
  141.0589  133.6716  156.3179 H   0  0  0  0  0  0  0  0  0  0  0  0  # atno 11005 bound_to 11000
  144.9387  139.4213  143.6459 LP  0  0  0  0  0  0  0  0  0  0  0  0  # atno 17320 bound_to 7965
  146.3265  139.8336  142.8903 LP  0  0  0  0  0  0  0  0  0  0  0  0  # atno 17321 bound_to 7965
  140.5574  143.2197  151.7823 LP  0  0  0  0  0  0  0  0  0  0  0  0  # atno 17342 bound_to 10162
  139.4895  144.4394  151.9781 LP  0  0  0  0  0  0  0  0  0  0  0  0  # atno 17343 bound_to 10162
  156.2150  130.6702  151.1309 LP  0  0  0  0  0  0  0  0  0  0  0  0  # atno 17370 bound_to 10713
  157.7167  131.0705  150.6298 LP  0  0  0  0  0  0  0  0  0  0  0  0  # atno 17371 bound_to 10713
  140.5908  134.5652  157.5499 LP  0  0  0  0  0  0  0  0  0  0  0  0  # atno 17394 bound_to 11000
  139.9415  134.7779  156.0667 LP  0  0  0  0  0  0  0  0  0  0  0  0  # atno 17395 bound_to 11000

$$$$
