AV-unprocessed.smi:1240|AV-procd|sdf|5204|dock8
  -GOLD-   22720 4293D 1   1.00000     0.00000
 Structure written by MMmdl.
 48 50  0  0  0  0  0  0  0  0  2 V2000
  147.6606  133.1119  154.9131 O   0  0  0  0  0  0  0  0  0  0  0  0
  148.0969  133.9120  154.0860 C   0  0  0  0  0  0  0  0  0  0  0  0
  148.9210  134.9233  154.3939 N   0  0  0  0  0  0  0  0  0  0  0  0
  149.4151  135.2421  155.7309 C   0  0  0  0  0  0  0  0  0  0  0  0
  149.1776  136.7343  156.0865 C   0  0  1  0  0  0  0  0  0  0  0  0
  148.4555  136.9104  157.4599 C   0  0  2  0  0  0  0  0  0  0  0  0
  149.3111  136.7325  158.7180 C   0  0  0  0  0  0  0  0  0  0  0  0
  148.5006  135.7663  159.5811 C   0  0  0  0  0  0  0  0  0  0  0  0
  147.1650  135.9476  159.1412 O   0  0  0  0  0  0  0  0  0  0  0  0
  147.2077  136.0520  157.7276 C   0  0  0  0  0  0  0  0  0  0  0  0
  150.3400  137.6193  155.8653 N   0  0  0  0  0  0  0  0  0  0  0  0
  150.0509  139.0295  156.1192 C   0  0  0  0  0  0  0  0  0  0  0  0
  151.3157  139.8975  156.0252 C   0  0  0  0  0  0  0  0  0  0  0  0
  151.9050  139.7297  154.7406 O   0  0  0  0  0  0  0  0  0  0  0  0
  152.2559  138.3764  154.4735 C   0  0  0  0  0  0  0  0  0  0  0  0
  151.0114  137.4764  154.5752 C   0  0  0  0  0  0  0  0  0  0  0  0
  147.8004  133.9116  152.7749 N   0  0  0  0  0  0  0  0  0  0  0  0
  146.9614  133.0173  152.0556 C   0  0  0  0  0  0  0  0  0  0  0  0
  146.4586  131.8940  152.7491 C   0  0  0  0  0  0  0  0  0  0  0  0
  145.6098  130.9869  152.0826 C   0  0  0  0  0  0  0  0  0  0  0  0
  145.2760  131.2023  150.7922 N   0  3  0  0  0  0  0  0  0  0  0  0
  145.7196  132.2683  150.0919 C   0  0  0  0  0  0  0  0  0  0  0  0
  146.5714  133.2096  150.7054 C   0  0  0  0  0  0  0  0  0  0  0  0
  149.2248  135.5311  153.6470 H   0  0  0  0  0  0  0  0  0  0  0  0
  148.9593  134.5986  156.4843 H   0  0  0  0  0  0  0  0  0  0  0  0
  150.4775  135.0034  155.7308 H   0  0  0  0  0  0  0  0  0  0  0  0
  148.4295  137.0768  155.3696 H   0  0  0  0  0  0  0  0  0  0  0  0
  148.1036  137.9429  157.4927 H   0  0  0  0  0  0  0  0  0  0  0  0
  150.3162  136.3522  158.5390 H   0  0  0  0  0  0  0  0  0  0  0  0
  149.4183  137.6908  159.2279 H   0  0  0  0  0  0  0  0  0  0  0  0
  148.8039  134.7346  159.3966 H   0  0  0  0  0  0  0  0  0  0  0  0
  148.6040  135.9672  160.6476 H   0  0  0  0  0  0  0  0  0  0  0  0
  146.2955  136.5145  157.3509 H   0  0  0  0  0  0  0  0  0  0  0  0
  147.2707  135.0568  157.2928 H   0  0  0  0  0  0  0  0  0  0  0  0
  149.3243  139.4043  155.3987 H   0  0  0  0  0  0  0  0  0  0  0  0
  149.6057  139.1472  157.1077 H   0  0  0  0  0  0  0  0  0  0  0  0
  151.0663  140.9487  156.1692 H   0  0  0  0  0  0  0  0  0  0  0  0
  152.0312  139.6274  156.8036 H   0  0  0  0  0  0  0  0  0  0  0  0
  152.6903  138.3103  153.4758 H   0  0  0  0  0  0  0  0  0  0  0  0
  153.0227  138.0498  155.1777 H   0  0  0  0  0  0  0  0  0  0  0  0
  151.3388  136.4507  154.4304 H   0  0  0  0  0  0  0  0  0  0  0  0
  150.3247  137.7170  153.7634 H   0  0  0  0  0  0  0  0  0  0  0  0
  148.1723  134.6817  152.2386 H   0  0  0  0  0  0  0  0  0  0  0  0
  146.7234  131.7217  153.7825 H   0  0  0  0  0  0  0  0  0  0  0  0
  145.1897  130.1030  152.5406 H   0  0  0  0  0  0  0  0  0  0  0  0
  145.3777  132.3405  149.0697 H   0  0  0  0  0  0  0  0  0  0  0  0
  146.8970  134.0638  150.1318 H   0  0  0  0  0  0  0  0  0  0  0  0
  144.6592  130.5348  150.3283 H   0  0  0  0  0  0  0  0  0  0  0  0
  1  2  2  0  0  0  0
  2  3  1  0  0  0  0
  2 17  1  0  0  0  0
  3  4  1  0  0  0  0
  3 24  1  0  0  0  0
  4  5  1  0  0  0  0
  4 25  1  0  0  0  0
  4 26  1  0  0  0  0
  5  6  1  0  0  0  0
  5 11  1  0  0  0  0
  5 27  1  0  0  0  0
  6 10  1  0  0  0  0
  6  7  1  0  0  0  0
  6 28  1  0  0  0  0
  7  8  1  0  0  0  0
  7 29  1  0  0  0  0
  7 30  1  0  0  0  0
  8  9  1  0  0  0  0
  8 31  1  0  0  0  0
  8 32  1  0  0  0  0
  9 10  1  0  0  0  0
 10 33  1  0  0  0  0
 10 34  1  0  0  0  0
 11 16  1  0  0  0  0
 11 12  1  0  0  0  0
 12 13  1  0  0  0  0
 12 35  1  0  0  0  0
 12 36  1  0  0  0  0
 13 14  1  0  0  0  0
 13 37  1  0  0  0  0
 13 38  1  0  0  0  0
 14 15  1  0  0  0  0
 15 16  1  0  0  0  0
 15 39  1  0  0  0  0
 15 40  1  0  0  0  0
 16 41  1  0  0  0  0
 16 42  1  0  0  0  0
 17 18  1  0  0  0  0
 17 43  1  0  0  0  0
 18 23  1  0  0  0  0
 18 19  2  0  0  0  0
 19 20  1  0  0  0  0
 19 44  1  0  0  0  0
 20 21  2  0  0  0  0
 20 45  1  0  0  0  0
 21 22  1  0  0  0  0
 21 48  1  0  0  0  0
 22 23  2  0  0  0  0
 22 46  1  0  0  0  0
 23 47  1  0  0  0  0
M  CHG  1  21   1
M  END
> <s_m_source_file>
AV-unprocessed.smi

> <i_m_source_file_index>
1240

> <i_lp_mmshare_version>
43012

> <i_f3d_flags>
0

> <s_epik_input>
W2NIXTFbY0hdbltjSF1bY0hdYzFbTkhdQyg9TylbTkhdW0NIMl1bQ0BIXShbQ0BASF0yW0NIMl1bQ0gyXU9bQ0gyXTIpTjNbQ0gyXVtDSDJdT1tDSDJdW0NIMl0z

> <s_epik_cmdline>
J2VwaWtfcHl0aG9uJywgJy1waCcsICc3LjAnLCAnLXRuJywgJzgnLCAnLW1hJywgJzIwMCcsICctbWV0YWxfYmluZGluZycsICctaW1hZScsICc8aW5maWxlLm1hZT4nLCAnLW9tYWUnLCAnPG91dGZpbGUubWFlPic=

> <r_epik_Ionization_Penalty>
1.15944

> <r_epik_Ionization_Penalty_Charging>
1.0344

> <r_epik_Ionization_Penalty_Neutral>
0.125034

> <r_epik_State_Penalty>
1.2199

> <r_epik_Charging_Adjusted_Penalty>
2.25431

> <i_epik_Tot_Q>
1

> <i_epik_Tot_abs_Q>
1

> <r_epik_Metal_State_Penalty>
1.3155

> <b_epik_Metal_Only>
0

> <s_lp_Force_Field>
OPLS_2005

> <r_lp_Energy>
64.7191

> <b_lp_Chiralities_Consistent>
1

> <s_lp_Variant>
AV-unprocessed.smi:1240-10

> <Gold.Version>
5.8.1

> <Gold.Id.Protein>
6NUR|6NUR_protein|mol2

> <Gold.PLP.Fitness>
39.6224

> <Gold.PLP.PLP>
-32.0060

> <Gold.PLP.part.hbond>
-3.0000

> <Gold.PLP.part.metal>
0.0000

> <Gold.PLP.part.buried>
-5.6157

> <Gold.PLP.part.nonpolar>
-23.6407

> <Gold.PLP.part.repulsive>
0.2085

> <Gold.PLP.ligand.clash>
0.0000

> <Gold.PLP.ligand.torsion>
0.8353

> <Gold.PLP.Chemscore.Hbond>
2.9760

> <Gold.PLP.Chemscore.CHOScore>
0.0000

> <Gold.PLP.Chemscore.Metal>
0.0000

> <Gold.Chemscore.Hbonds>
donor molecule, donor type, donor heavy atom, donor atom, acceptor molecule, acceptor atom, score
      L1  H     3    24       P1  7948  0.99
      L1  H    17    43       P1  7948  1.00
      P1  H  7989  7998       L1    14  0.96

> <Gold.PLP.Chemscore.Internal.Correction>
0.3590

> <Gold.Rescore>
     Score         DG    S(hbond)    S(metal)    S(lipo)     H(rot)  DE(clash)    DE(int)     intcor
     16.42     -18.81       2.68        0.00      74.43       1.69       0.05       2.34       ----

> <Gold.Chemscore.Fitness>
16.4151

> <Gold.Chemscore.DG>
-18.8060

> <Gold.Chemscore.ZeroCoef>
-5.4800

> <Gold.Chemscore.Hbond>
2.6789

> <Gold.Chemscore.Metal>
0.0000

> <Gold.Chemscore.Lipo>
74.4259

> <Gold.Chemscore.Internal_Hbond>
0.0000

> <Gold.Chemscore.DEClash>
0.0515

> <Gold.Chemscore.DEInternal>
2.3394

> <Gold.Chemscore.Rot>
1.6912

> <Gold.Chemscore.Internal.Correction>
   9.000000E+99

> <Gold.Chemscore.Hbonds>
donor molecule, donor type, donor heavy atom, donor atom, acceptor molecule, acceptor atom, score
      L1  H     3    24       P1  7948  0.47
      L1  H    17    43       P1  7948  0.26
      P1  H  7989  7998       L1    14  0.90

> <Gold.Chemscore.Hbond.Weighted>
-8.9476

> <Gold.Chemscore.Metal.Weighted>
-0.0000

> <Gold.Chemscore.Lipo.Weighted>
-8.7078

> <Gold.Chemscore.Internal_Hbond.Weighted>
0.0000

> <Gold.Chemscore.DEClash.Weighted>
0.0515

> <Gold.Chemscore.DEInternal.Weighted>
2.3394

> <Gold.Chemscore.Rot.Weighted>
4.3295

> <Gold.Chemscore.Internal.Correction.Weighted>
   9.000000E+99

> <Gold.Protein.RotatedTorsions>
[ 6907 6896 6895 6894 ] final   97.02 input  -60.11 | X-H torsion
[ 7974 7965 7964 7962 ] final   90.58 input  175.53 | X-H torsion
[ 8008 7997 7996 7995 ] final  -46.81 input   59.86 | X-H torsion
[ 10167 10162 10161 10158 ] final -110.35 input  -65.29 | X-H torsion
[ 10718 10713 10712 10709 ] final -125.98 input   66.30 | X-H torsion
[ 10763 10752 10751 10750 ] final  -15.05 input  -60.55 | X-H torsion
[ 11005 11000 10999 10996 ] final  154.28 input  -57.11 | X-H torsion

> <Gold.Protein.ActiveResidues>
 VAL166  LYS551  ARG553  GLY616  TRP617  ASP618  TYR619  PRO620  LYS621  CYS622 
 ASP623  PHE694  ASN695  SER759  ASP760  ASP761  ALA762  ILE779  LEU786  VAL792 
 PHE793  MET794  SER795  GLU796  ALA797  LYS798  CYS799  TRP800  GLU811  SER814 

> <Gold.Protein.RotatedAtoms>
  152.5428  134.0798  159.8230 H   0  0  0  0  0  0  0  0  0  0  0  0  # atno 6907 bound_to 6896
  151.0901  133.5315  159.2623 H   0  0  0  0  0  0  0  0  0  0  0  0  # atno 6908 bound_to 6896
  151.2109  135.0490  159.8965 H   0  0  0  0  0  0  0  0  0  0  0  0  # atno 6909 bound_to 6896
  145.5172  139.2278  143.2692 H   0  0  0  0  0  0  0  0  0  0  0  0  # atno 7974 bound_to 7965
  154.4010  140.1362  156.4072 H   0  0  0  0  0  0  0  0  0  0  0  0  # atno 8008 bound_to 7997
  155.7768  140.3482  155.5256 H   0  0  0  0  0  0  0  0  0  0  0  0  # atno 8009 bound_to 7997
  155.8713  140.0972  157.1539 H   0  0  0  0  0  0  0  0  0  0  0  0  # atno 8010 bound_to 7997
  140.1454  143.4244  152.1533 H   0  0  0  0  0  0  0  0  0  0  0  0  # atno 10167 bound_to 10162
  156.1724  130.6676  151.0197 H   0  0  0  0  0  0  0  0  0  0  0  0  # atno 10718 bound_to 10713
  153.5374  135.7014  153.5653 H   0  0  0  0  0  0  0  0  0  0  0  0  # atno 10763 bound_to 10752
  153.3634  135.3964  155.1735 H   0  0  0  0  0  0  0  0  0  0  0  0  # atno 10764 bound_to 10752
  154.8677  135.3794  154.4876 H   0  0  0  0  0  0  0  0  0  0  0  0  # atno 10765 bound_to 10752
  140.1474  134.8698  157.2411 H   0  0  0  0  0  0  0  0  0  0  0  0  # atno 11005 bound_to 11000
  146.2129  140.5982  142.9051 LP  0  0  0  0  0  0  0  0  0  0  0  0  # atno 17320 bound_to 7965
  144.7696  140.5607  143.6679 LP  0  0  0  0  0  0  0  0  0  0  0  0  # atno 17321 bound_to 7965
  139.5451  144.7292  151.4608 LP  0  0  0  0  0  0  0  0  0  0  0  0  # atno 17342 bound_to 10162
  140.6735  143.8241  150.7029 LP  0  0  0  0  0  0  0  0  0  0  0  0  # atno 17343 bound_to 10162
  157.6812  131.0837  150.7365 LP  0  0  0  0  0  0  0  0  0  0  0  0  # atno 17370 bound_to 10713
  156.7424  130.4743  149.5474 LP  0  0  0  0  0  0  0  0  0  0  0  0  # atno 17371 bound_to 10713
  140.2646  134.3531  155.7394 LP  0  0  0  0  0  0  0  0  0  0  0  0  # atno 17394 bound_to 11000
  141.2194  133.7389  156.9132 LP  0  0  0  0  0  0  0  0  0  0  0  0  # atno 17395 bound_to 11000

$$$$
