AV-unprocessed.smi:1434|AV-procd|sdf|5852|dock7
  -GOLD-   22720 5523D 1   1.00000     0.00000
 Structure written by MMmdl.
 45 46  0  0  0  0  0  0  0  0  2 V2000
  144.4252  137.3088  154.3251 C   0  0  0  0  0  0  0  0  0  0  0  0
  145.9308  136.9871  155.3281 S   0  0  0  0  0  0  0  0  0  0  0  0
  145.7399  137.5472  156.6743 O   0  0  0  0  0  0  0  0  0  0  0  0
  146.3089  135.5754  155.1613 O   0  0  0  0  0  0  0  0  0  0  0  0
  147.1204  137.9488  154.5316 N   0  0  0  0  0  0  0  0  0  0  0  0
  148.5024  137.8857  155.0090 C   0  0  1  0  0  0  0  0  0  0  0  0
  148.9746  136.4187  155.0958 C   0  0  0  0  0  0  0  0  0  0  0  0
  150.4812  136.3229  155.4042 C   0  0  0  0  0  0  0  0  0  0  0  0
  151.2989  137.2168  154.4536 C   0  0  0  0  0  0  0  0  0  0  0  0
  150.7978  138.5986  154.5563 N   0  0  0  0  0  0  0  0  0  0  0  0
  151.3896  139.6133  155.2351 C   0  0  0  0  0  0  0  0  0  0  0  0
  152.5514  139.5681  155.6417 O   0  0  0  0  0  0  0  0  0  0  0  0
  150.5926  140.6663  155.4790 N   0  0  0  0  0  0  0  0  0  0  0  0
  151.0012  141.8594  156.2071 C   0  0  0  0  0  0  0  0  0  0  0  0
  150.4423  141.8418  157.6360 C   0  0  0  0  0  0  0  0  0  0  0  0
  150.9540  143.0051  158.4631 C   0  0  0  0  0  0  0  0  0  0  0  0
  151.8330  142.8226  159.5529 C   0  0  0  0  0  0  0  0  0  0  0  0
  152.2801  143.9498  160.2735 C   0  0  0  0  0  0  0  0  0  0  0  0
  151.8401  145.2336  159.8897 C   0  0  0  0  0  0  0  0  0  0  0  0
  150.9635  145.3582  158.7927 C   0  0  0  0  0  0  0  0  0  0  0  0
  150.5578  144.2542  158.1272 N   0  3  0  0  0  0  0  0  0  0  0  0
  149.4159  138.6984  154.0711 C   0  0  0  0  0  0  0  0  0  0  0  0
  143.5926  136.7324  154.7281 H   0  0  0  0  0  0  0  0  0  0  0  0
  144.6051  137.0106  153.2926 H   0  0  0  0  0  0  0  0  0  0  0  0
  144.1818  138.3703  154.3606 H   0  0  0  0  0  0  0  0  0  0  0  0
  146.8091  138.9158  154.4431 H   0  0  0  0  0  0  0  0  0  0  0  0
  148.5472  138.3350  156.0026 H   0  0  0  0  0  0  0  0  0  0  0  0
  148.4045  135.8764  155.8506 H   0  0  0  0  0  0  0  0  0  0  0  0
  148.7788  135.9197  154.1456 H   0  0  0  0  0  0  0  0  0  0  0  0
  150.6624  136.6283  156.4356 H   0  0  0  0  0  0  0  0  0  0  0  0
  150.8123  135.2870  155.3253 H   0  0  0  0  0  0  0  0  0  0  0  0
  152.3615  137.1140  154.6732 H   0  0  0  0  0  0  0  0  0  0  0  0
  151.1826  136.8691  153.4261 H   0  0  0  0  0  0  0  0  0  0  0  0
  149.6443  140.6349  155.1339 H   0  0  0  0  0  0  0  0  0  0  0  0
  152.0909  141.9154  156.2367 H   0  0  0  0  0  0  0  0  0  0  0  0
  150.6462  142.7412  155.6714 H   0  0  0  0  0  0  0  0  0  0  0  0
  149.3520  141.8754  157.6139 H   0  0  0  0  0  0  0  0  0  0  0  0
  150.7120  140.9074  158.1306 H   0  0  0  0  0  0  0  0  0  0  0  0
  152.1643  141.8331  159.8329 H   0  0  0  0  0  0  0  0  0  0  0  0
  152.9536  143.8309  161.1097 H   0  0  0  0  0  0  0  0  0  0  0  0
  152.1719  146.1095  160.4281 H   0  0  0  0  0  0  0  0  0  0  0  0
  150.5781  146.2996  158.4294 H   0  0  0  0  0  0  0  0  0  0  0  0
  149.3623  138.3067  153.0540 H   0  0  0  0  0  0  0  0  0  0  0  0
  149.0717  139.7320  154.0066 H   0  0  0  0  0  0  0  0  0  0  0  0
  149.9251  144.3685  157.3350 H   0  0  0  0  0  0  0  0  0  0  0  0
  1  2  1  0  0  0  0
  1 23  1  0  0  0  0
  1 24  1  0  0  0  0
  1 25  1  0  0  0  0
  2  3  2  0  0  0  0
  2  4  2  0  0  0  0
  2  5  1  0  0  0  0
  5  6  1  0  0  0  0
  5 26  1  0  0  0  0
  6 22  1  0  0  0  0
  6  7  1  0  0  0  0
  6 27  1  0  0  0  0
  7  8  1  0  0  0  0
  7 28  1  0  0  0  0
  7 29  1  0  0  0  0
  8  9  1  0  0  0  0
  8 30  1  0  0  0  0
  8 31  1  0  0  0  0
  9 10  1  0  0  0  0
  9 32  1  0  0  0  0
  9 33  1  0  0  0  0
 10 11  1  0  0  0  0
 10 22  1  0  0  0  0
 11 12  2  0  0  0  0
 11 13  1  0  0  0  0
 13 14  1  0  0  0  0
 13 34  1  0  0  0  0
 14 15  1  0  0  0  0
 14 35  1  0  0  0  0
 14 36  1  0  0  0  0
 15 16  1  0  0  0  0
 15 37  1  0  0  0  0
 15 38  1  0  0  0  0
 16 21  1  0  0  0  0
 16 17  2  0  0  0  0
 17 18  1  0  0  0  0
 17 39  1  0  0  0  0
 18 19  2  0  0  0  0
 18 40  1  0  0  0  0
 19 20  1  0  0  0  0
 19 41  1  0  0  0  0
 20 21  2  0  0  0  0
 20 42  1  0  0  0  0
 21 45  1  0  0  0  0
 22 43  1  0  0  0  0
 22 44  1  0  0  0  0
M  CHG  1  21   1
M  END
> <s_m_source_file>
AV-unprocessed.smi

> <i_m_source_file_index>
1434

> <i_lp_mmshare_version>
43012

> <i_f3d_flags>
0

> <s_epik_input>
W0NIM11TKD1PKSg9TylbTkhdW0NAQEhdMVtDSDJdW0NIMl1bQ0gyXU4oW0NIMl0xKUMoPU8pW05IXVtDSDJdW0NIMl1jMltjSF1bY0hdW2NIXVtjSF1uMg==

> <s_epik_cmdline>
J2VwaWtfcHl0aG9uJywgJy1waCcsICc3LjAnLCAnLXRuJywgJzgnLCAnLW1hJywgJzIwMCcsICctbWV0YWxfYmluZGluZycsICctaW1hZScsICc8aW5maWxlLm1hZT4nLCAnLW9tYWUnLCAnPG91dGZpbGUubWFlPic=

> <r_epik_Ionization_Penalty>
1.55113

> <r_epik_Ionization_Penalty_Charging>
1.55107

> <r_epik_Ionization_Penalty_Neutral>
6.01346e-05

> <r_epik_State_Penalty>
1.64529

> <r_epik_Charging_Adjusted_Penalty>
3.19637

> <i_epik_Tot_Q>
1

> <i_epik_Tot_abs_Q>
1

> <r_epik_Metal_State_Penalty>
1.69621

> <b_epik_Metal_Only>
0

> <s_lp_Force_Field>
OPLS_2005

> <r_lp_Energy>
28.1725

> <b_lp_Chiralities_Consistent>
1

> <s_lp_Variant>
AV-unprocessed.smi:1434-4

> <Gold.Version>
5.8.1

> <Gold.Id.Protein>
6NUR|6NUR_protein|mol2

> <Gold.PLP.Fitness>
43.2774

> <Gold.PLP.PLP>
-36.8530

> <Gold.PLP.part.hbond>
-2.0791

> <Gold.PLP.part.metal>
0.0000

> <Gold.PLP.part.buried>
-3.1159

> <Gold.PLP.part.nonpolar>
-30.8679

> <Gold.PLP.part.repulsive>
0.2423

> <Gold.PLP.ligand.clash>
2.1342

> <Gold.PLP.ligand.torsion>
0.3038

> <Gold.PLP.Chemscore.Hbond>
3.0000

> <Gold.PLP.Chemscore.CHOScore>
0.0000

> <Gold.PLP.Chemscore.Metal>
0.0000

> <Gold.Chemscore.Hbonds>
donor molecule, donor type, donor heavy atom, donor atom, acceptor molecule, acceptor atom, score
      L1  H    21    45       P1  8028  2.00
      P1  H  7997  8008       L1    12  1.00

> <Gold.PLP.Chemscore.Internal.Correction>
0.1661

> <Gold.Rescore>
     Score         DG    S(hbond)    S(metal)    S(lipo)     H(rot)  DE(clash)    DE(int)     intcor
     14.47     -16.84       1.77        0.00      93.28       2.13       0.64       1.73       ----

> <Gold.Chemscore.Fitness>
14.4685

> <Gold.Chemscore.DG>
-16.8421

> <Gold.Chemscore.ZeroCoef>
-5.4800

> <Gold.Chemscore.Hbond>
1.7689

> <Gold.Chemscore.Metal>
0.0000

> <Gold.Chemscore.Lipo>
93.2785

> <Gold.Chemscore.Internal_Hbond>
0.0000

> <Gold.Chemscore.DEClash>
0.6417

> <Gold.Chemscore.DEInternal>
1.7320

> <Gold.Chemscore.Rot>
2.1326

> <Gold.Chemscore.Internal.Correction>
   9.000000E+99

> <Gold.Chemscore.Hbonds>
donor molecule, donor type, donor heavy atom, donor atom, acceptor molecule, acceptor atom, score
      L1  H    21    45       P1  8028  0.39
      P1  H  7997  8008       L1    12  0.97

> <Gold.Chemscore.Hbond.Weighted>
-5.9081

> <Gold.Chemscore.Metal.Weighted>
-0.0000

> <Gold.Chemscore.Lipo.Weighted>
-10.9136

> <Gold.Chemscore.Internal_Hbond.Weighted>
0.0000

> <Gold.Chemscore.DEClash.Weighted>
0.6417

> <Gold.Chemscore.DEInternal.Weighted>
1.7320

> <Gold.Chemscore.Rot.Weighted>
5.4595

> <Gold.Chemscore.Internal.Correction.Weighted>
   9.000000E+99

> <Gold.Protein.RotatedTorsions>
[ 6907 6896 6895 6894 ] final  154.63 input  -60.11 | X-H torsion
[ 7974 7965 7964 7962 ] final  -25.31 input  175.53 | X-H torsion
[ 8008 7997 7996 7995 ] final  -40.98 input   59.86 | X-H torsion
[ 10167 10162 10161 10158 ] final -125.31 input  -65.29 | X-H torsion
[ 10718 10713 10712 10709 ] final   97.20 input   66.30 | X-H torsion
[ 10763 10752 10751 10750 ] final  174.19 input  -60.55 | X-H torsion
[ 11005 11000 10999 10996 ] final  112.51 input  -57.11 | X-H torsion

> <Gold.Protein.ActiveResidues>
 VAL166  LYS551  ARG553  GLY616  TRP617  ASP618  TYR619  PRO620  LYS621  CYS622 
 ASP623  PHE694  ASN695  SER759  ASP760  ASP761  ALA762  ILE779  LEU786  VAL792 
 PHE793  MET794  SER795  GLU796  ALA797  LYS798  CYS799  TRP800  GLU811  SER814 

> <Gold.Protein.RotatedAtoms>
  152.0558  133.4039  159.4396 H   0  0  0  0  0  0  0  0  0  0  0  0  # atno 6907 bound_to 6896
  150.6868  134.3257  159.4814 H   0  0  0  0  0  0  0  0  0  0  0  0  # atno 6908 bound_to 6896
  152.1072  134.9300  160.0618 H   0  0  0  0  0  0  0  0  0  0  0  0  # atno 6909 bound_to 6896
  146.1499  140.4870  142.8616 H   0  0  0  0  0  0  0  0  0  0  0  0  # atno 7974 bound_to 7965
  154.4007  140.1511  156.3117 H   0  0  0  0  0  0  0  0  0  0  0  0  # atno 8008 bound_to 7997
  155.8610  140.3453  155.5734 H   0  0  0  0  0  0  0  0  0  0  0  0  # atno 8009 bound_to 7997
  155.7880  140.0852  157.2014 H   0  0  0  0  0  0  0  0  0  0  0  0  # atno 8010 bound_to 7997
  139.9834  143.5717  152.2369 H   0  0  0  0  0  0  0  0  0  0  0  0  # atno 10167 bound_to 10162
  157.6916  131.0602  150.4608 H   0  0  0  0  0  0  0  0  0  0  0  0  # atno 10718 bound_to 10713
  154.4505  135.2764  155.1784 H   0  0  0  0  0  0  0  0  0  0  0  0  # atno 10763 bound_to 10752
  154.3613  135.6129  153.5696 H   0  0  0  0  0  0  0  0  0  0  0  0  # atno 10764 bound_to 10752
  152.9847  135.5835  154.4849 H   0  0  0  0  0  0  0  0  0  0  0  0  # atno 10765 bound_to 10752
  139.8929  134.9531  156.6596 H   0  0  0  0  0  0  0  0  0  0  0  0  # atno 11005 bound_to 11000
  144.7891  140.5996  143.6554 LP  0  0  0  0  0  0  0  0  0  0  0  0  # atno 17320 bound_to 7965
  145.4849  139.1492  143.3742 LP  0  0  0  0  0  0  0  0  0  0  0  0  # atno 17321 bound_to 7965
  139.6393  144.7653  151.2373 LP  0  0  0  0  0  0  0  0  0  0  0  0  # atno 17342 bound_to 10162
  140.7481  143.6345  150.8392 LP  0  0  0  0  0  0  0  0  0  0  0  0  # atno 17343 bound_to 10162
  156.4953  130.4104  149.6384 LP  0  0  0  0  0  0  0  0  0  0  0  0  # atno 17370 bound_to 10713
  156.3379  130.7366  151.2307 LP  0  0  0  0  0  0  0  0  0  0  0  0  # atno 17371 bound_to 10713
  140.7457  133.8940  155.8310 LP  0  0  0  0  0  0  0  0  0  0  0  0  # atno 17394 bound_to 11000
  141.0041  134.1110  157.4288 LP  0  0  0  0  0  0  0  0  0  0  0  0  # atno 17395 bound_to 11000

$$$$
