AV-unprocessed.smi:2424|AV-procd|sdf|9570|dock6
  -GOLD-   2272013203D 1   1.00000     0.00000
 Structure written by MMmdl.
 49 50  0  0  0  0  0  0  0  0  2 V2000
  149.3330  137.6010  157.8640 C   0  0  0  0  0  0  0  0  0  0  0  0
  149.4520  138.6468  156.7408 C   0  0  0  0  0  0  0  0  0  0  0  0
  149.2426  138.1242  155.2895 C   0  0  0  0  0  0  0  0  0  0  0  0
  150.2922  137.0197  155.0218 C   0  0  0  0  0  0  0  0  0  0  0  0
  151.7385  137.3688  155.4021 C   0  0  0  0  0  0  0  0  0  0  0  0
  147.7655  137.8603  154.8597 C   0  0  2  0  0  0  0  0  0  0  0  0
  147.6450  136.8877  153.7682 N   0  0  0  0  0  0  0  0  0  0  0  0
  146.5589  136.1504  153.5021 C   0  0  0  0  0  0  0  0  0  0  0  0
  145.5112  136.2331  154.1422 O   0  0  0  0  0  0  0  0  0  0  0  0
  146.7934  135.3137  152.4755 N   0  0  0  0  0  0  0  0  0  0  0  0
  145.9231  134.3937  151.8757 C   0  0  0  0  0  0  0  0  0  0  0  0
  144.5789  134.1949  152.1590 C   0  0  0  0  0  0  0  0  0  0  0  0
  143.7208  133.3254  151.5807 N   0  5  0  0  0  0  0  0  0  0  0  0
  144.1875  132.5180  150.5857 C   0  0  0  0  0  0  0  0  0  0  0  0
  143.4620  131.7014  150.0192 O   0  0  0  0  0  0  0  0  0  0  0  0
  145.6029  132.6328  150.1825 C   0  0  0  0  0  0  0  0  0  0  0  0
  146.1238  131.7338  149.0745 C   0  0  0  0  0  0  0  0  0  0  0  0
  146.4038  133.5301  150.8080 C   0  0  0  0  0  0  0  0  0  0  0  0
  147.6885  139.3108  154.3470 C   0  0  2  0  0  0  0  0  0  0  0  0
  146.8127  139.6593  153.1462 C   0  0  0  0  0  0  0  0  0  0  0  0
  149.2159  139.2291  154.1978 C   0  0  1  0  0  0  0  0  0  0  0  0
  149.9383  140.3988  154.5548 O   0  0  0  0  0  0  0  0  0  0  0  0
  149.1639  141.5824  154.4779 C   0  0  0  0  0  0  0  0  0  0  0  0
  149.6885  138.0152  158.8076 H   0  0  0  0  0  0  0  0  0  0  0  0
  149.9079  136.6990  157.6639 H   0  0  0  0  0  0  0  0  0  0  0  0
  148.2962  137.3050  158.0222 H   0  0  0  0  0  0  0  0  0  0  0  0
  148.7342  139.4315  156.9780 H   0  0  0  0  0  0  0  0  0  0  0  0
  150.4232  139.1353  156.8290 H   0  0  0  0  0  0  0  0  0  0  0  0
  150.0217  136.1133  155.5640 H   0  0  0  0  0  0  0  0  0  0  0  0
  150.2657  136.7221  153.9730 H   0  0  0  0  0  0  0  0  0  0  0  0
  152.3720  136.4837  155.3447 H   0  0  0  0  0  0  0  0  0  0  0  0
  151.8062  137.7565  156.4183 H   0  0  0  0  0  0  0  0  0  0  0  0
  152.1634  138.1076  154.7238 H   0  0  0  0  0  0  0  0  0  0  0  0
  147.0739  137.6805  155.6814 H   0  0  0  0  0  0  0  0  0  0  0  0
  148.4620  136.7483  153.1923 H   0  0  0  0  0  0  0  0  0  0  0  0
  147.7244  135.3305  152.0861 H   0  0  0  0  0  0  0  0  0  0  0  0
  144.1017  134.8288  152.9324 H   0  0  0  0  0  0  0  0  0  0  0  0
  147.1773  131.9257  148.8695 H   0  0  0  0  0  0  0  0  0  0  0  0
  145.5649  131.9011  148.1534 H   0  0  0  0  0  0  0  0  0  0  0  0
  146.0207  130.6852  149.3555 H   0  0  0  0  0  0  0  0  0  0  0  0
  147.4385  133.6069  150.5082 H   0  0  0  0  0  0  0  0  0  0  0  0
  147.4403  139.9577  155.1905 H   0  0  0  0  0  0  0  0  0  0  0  0
  147.1698  139.1830  152.2329 H   0  0  0  0  0  0  0  0  0  0  0  0
  146.7917  140.7341  152.9685 H   0  0  0  0  0  0  0  0  0  0  0  0
  145.7838  139.3363  153.3058 H   0  0  0  0  0  0  0  0  0  0  0  0
  149.5158  138.8464  153.2193 H   0  0  0  0  0  0  0  0  0  0  0  0
  149.7904  142.4421  154.7157 H   0  0  0  0  0  0  0  0  0  0  0  0
  148.3391  141.5650  155.1895 H   0  0  0  0  0  0  0  0  0  0  0  0
  148.7608  141.7276  153.4748 H   0  0  0  0  0  0  0  0  0  0  0  0
  1  2  1  0  0  0  0
  1 24  1  0  0  0  0
  1 25  1  0  0  0  0
  1 26  1  0  0  0  0
  2  3  1  0  0  0  0
  2 27  1  0  0  0  0
  2 28  1  0  0  0  0
  3 21  1  0  0  0  0
  3  4  1  0  0  0  0
  3  6  1  0  0  0  0
  4  5  1  0  0  0  0
  4 29  1  0  0  0  0
  4 30  1  0  0  0  0
  5 31  1  0  0  0  0
  5 32  1  0  0  0  0
  5 33  1  0  0  0  0
  6  7  1  0  0  0  0
  6 19  1  0  0  0  0
  6 34  1  0  0  0  0
  7  8  1  0  0  0  0
  7 35  1  0  0  0  0
  8  9  2  0  0  0  0
  8 10  1  0  0  0  0
 10 11  1  0  0  0  0
 10 36  1  0  0  0  0
 11 18  1  0  0  0  0
 11 12  2  0  0  0  0
 12 13  1  0  0  0  0
 12 37  1  0  0  0  0
 13 14  1  0  0  0  0
 14 15  2  0  0  0  0
 14 16  1  0  0  0  0
 16 17  1  0  0  0  0
 16 18  2  0  0  0  0
 17 38  1  0  0  0  0
 17 39  1  0  0  0  0
 17 40  1  0  0  0  0
 18 41  1  0  0  0  0
 19 20  1  0  0  0  0
 19 21  1  0  0  0  0
 19 42  1  0  0  0  0
 20 43  1  0  0  0  0
 20 44  1  0  0  0  0
 20 45  1  0  0  0  0
 21 22  1  0  0  0  0
 21 46  1  0  0  0  0
 22 23  1  0  0  0  0
 23 47  1  0  0  0  0
 23 48  1  0  0  0  0
 23 49  1  0  0  0  0
M  CHG  1  13  -1
M  END
> <s_m_source_file>
AV-unprocessed.smi

> <i_m_source_file_index>
2424

> <i_lp_mmshare_version>
43012

> <i_f3d_flags>
0

> <s_epik_input>
W0NIM11PW0NAQEhdMVtDQEhdKFtDSDNdKVtDQEBIXShDMShbQ0gyXVtDSDNdKVtDSDJdW0NIM10pW05IXUMoPU8pW05IXWMyW2NIXVtuSF1jKD1PKWMoW0NIM10pW2NIXTI=

> <s_epik_cmdline>
J2VwaWtfcHl0aG9uJywgJy1waCcsICc3LjAnLCAnLXRuJywgJzgnLCAnLW1hJywgJzIwMCcsICctbWV0YWxfYmluZGluZycsICctaW1hZScsICc8aW5maWxlLm1hZT4nLCAnLW9tYWUnLCAnPG91dGZpbGUubWFlPic=

> <r_lp_tautomer_probability>
1

> <r_epik_Ionization_Penalty>
7.6122

> <r_epik_Ionization_Penalty_Charging>
1.53843

> <r_epik_Ionization_Penalty_Neutral>
6.07377

> <r_epik_State_Penalty>
6.07371

> <r_epik_Charging_Adjusted_Penalty>
7.61214

> <i_epik_Tot_Q>
-1

> <i_epik_Tot_abs_Q>
1

> <r_epik_Metal_State_Penalty>
2.02136

> <b_epik_Metal_Only>
1

> <s_lp_Force_Field>
OPLS_2005

> <r_lp_Energy>
41.3797

> <b_lp_Chiralities_Consistent>
1

> <s_lp_Variant>
AV-unprocessed.smi:2424-12

> <Gold.Version>
5.8.1

> <Gold.Id.Protein>
6NUR|6NUR_protein|mol2

> <Gold.PLP.Fitness>
38.5828

> <Gold.PLP.PLP>
-30.6039

> <Gold.PLP.part.hbond>
-3.3004

> <Gold.PLP.part.metal>
0.0000

> <Gold.PLP.part.buried>
-2.3953

> <Gold.PLP.part.nonpolar>
-26.0947

> <Gold.PLP.part.repulsive>
1.4156

> <Gold.PLP.ligand.clash>
1.3814

> <Gold.PLP.ligand.torsion>
1.0875

> <Gold.PLP.Chemscore.Hbond>
3.6454

> <Gold.PLP.Chemscore.CHOScore>
0.0000

> <Gold.PLP.Chemscore.Metal>
0.0000

> <Gold.Chemscore.Hbonds>
donor molecule, donor type, donor heavy atom, donor atom, acceptor molecule, acceptor atom, score
      L1  H     7    35       P1  7948  0.86
      L1  H    10    36       P1  7948  0.86
      P1  H  7989  7998       L1    22  0.89
      P1  H 10785 10796       L1    15  1.00

> <Gold.PLP.Chemscore.Internal.Correction>
0.5991

> <Gold.Rescore>
     Score         DG    S(hbond)    S(metal)    S(lipo)     H(rot)  DE(clash)    DE(int)     intcor
     18.21     -21.08       2.98        0.00      81.42       1.52       0.57       2.30       ----

> <Gold.Chemscore.Fitness>
18.2122

> <Gold.Chemscore.DG>
-21.0817

> <Gold.Chemscore.ZeroCoef>
-5.4800

> <Gold.Chemscore.Hbond>
2.9845

> <Gold.Chemscore.Metal>
0.0000

> <Gold.Chemscore.Lipo>
81.4162

> <Gold.Chemscore.Internal_Hbond>
0.0000

> <Gold.Chemscore.DEClash>
0.5664

> <Gold.Chemscore.DEInternal>
2.3031

> <Gold.Chemscore.Rot>
1.5204

> <Gold.Chemscore.Internal.Correction>
   9.000000E+99

> <Gold.Chemscore.Hbonds>
donor molecule, donor type, donor heavy atom, donor atom, acceptor molecule, acceptor atom, score
      L1  H     7    35       P1  7948  0.79
      L1  H    10    36       P1  7948  0.78
      P1  H  7989  7998       L1    22  0.31
      P1  H 10785 10796       L1    15  0.88

> <Gold.Chemscore.Hbond.Weighted>
-9.9683

> <Gold.Chemscore.Metal.Weighted>
-0.0000

> <Gold.Chemscore.Lipo.Weighted>
-9.5257

> <Gold.Chemscore.Internal_Hbond.Weighted>
0.0000

> <Gold.Chemscore.DEClash.Weighted>
0.5664

> <Gold.Chemscore.DEInternal.Weighted>
2.3031

> <Gold.Chemscore.Rot.Weighted>
3.8922

> <Gold.Chemscore.Internal.Correction.Weighted>
   9.000000E+99

> <Gold.Protein.RotatedTorsions>
[ 6907 6896 6895 6894 ] final -125.86 input  -60.11 | X-H torsion
[ 7974 7965 7964 7962 ] final  -19.96 input  175.53 | X-H torsion
[ 8008 7997 7996 7995 ] final -144.23 input   59.86 | X-H torsion
[ 10167 10162 10161 10158 ] final -173.23 input  -65.29 | X-H torsion
[ 10718 10713 10712 10709 ] final   -9.26 input   66.30 | X-H torsion
[ 10763 10752 10751 10750 ] final   48.31 input  -60.55 | X-H torsion
[ 11005 11000 10999 10996 ] final  -84.78 input  -57.11 | X-H torsion

> <Gold.Protein.ActiveResidues>
 VAL166  LYS551  ARG553  GLY616  TRP617  ASP618  TYR619  PRO620  LYS621  CYS622 
 ASP623  PHE694  ASN695  SER759  ASP760  ASP761  ALA762  ILE779  LEU786  VAL792 
 PHE793  MET794  SER795  GLU796  ALA797  LYS798  CYS799  TRP800  GLU811  SER814 

> <Gold.Protein.RotatedAtoms>
  150.8910  133.7243  159.2904 H   0  0  0  0  0  0  0  0  0  0  0  0  # atno 6907 bound_to 6896
  151.4793  135.1050  159.9783 H   0  0  0  0  0  0  0  0  0  0  0  0  # atno 6908 bound_to 6896
  152.4820  133.8231  159.7119 H   0  0  0  0  0  0  0  0  0  0  0  0  # atno 6909 bound_to 6896
  146.1814  140.4135  142.8493 H   0  0  0  0  0  0  0  0  0  0  0  0  # atno 7974 bound_to 7965
  155.5235  140.0593  157.2902 H   0  0  0  0  0  0  0  0  0  0  0  0  # atno 8008 bound_to 7997
  154.4509  140.1948  156.0467 H   0  0  0  0  0  0  0  0  0  0  0  0  # atno 8009 bound_to 7997
  156.0702  140.3261  155.7571 H   0  0  0  0  0  0  0  0  0  0  0  0  # atno 8010 bound_to 7997
  139.5700  144.1664  152.1370 H   0  0  0  0  0  0  0  0  0  0  0  0  # atno 10167 bound_to 10162
  156.6905  130.5064  149.5945 H   0  0  0  0  0  0  0  0  0  0  0  0  # atno 10718 bound_to 10713
  152.9793  135.5948  154.3905 H   0  0  0  0  0  0  0  0  0  0  0  0  # atno 10763 bound_to 10752
  154.3561  135.2767  155.2347 H   0  0  0  0  0  0  0  0  0  0  0  0  # atno 10764 bound_to 10752
  154.4365  135.6023  153.6157 H   0  0  0  0  0  0  0  0  0  0  0  0  # atno 10765 bound_to 10752
  141.1647  133.7364  156.8919 H   0  0  0  0  0  0  0  0  0  0  0  0  # atno 11005 bound_to 11000
  144.8321  140.6724  143.6284 LP  0  0  0  0  0  0  0  0  0  0  0  0  # atno 17320 bound_to 7965
  145.4066  139.1588  143.4148 LP  0  0  0  0  0  0  0  0  0  0  0  0  # atno 17321 bound_to 7965
  140.1195  144.5386  150.6872 LP  0  0  0  0  0  0  0  0  0  0  0  0  # atno 17342 bound_to 10162
  140.6984  143.2419  151.4934 LP  0  0  0  0  0  0  0  0  0  0  0  0  # atno 17343 bound_to 10162
  156.1801  130.6493  151.0941 LP  0  0  0  0  0  0  0  0  0  0  0  0  # atno 17370 bound_to 10713
  157.7010  131.0776  150.6819 LP  0  0  0  0  0  0  0  0  0  0  0  0  # atno 17371 bound_to 10713
  140.1643  134.9144  157.2754 LP  0  0  0  0  0  0  0  0  0  0  0  0  # atno 17394 bound_to 11000
  140.2575  134.3610  155.7419 LP  0  0  0  0  0  0  0  0  0  0  0  0  # atno 17395 bound_to 11000

$$$$
