AV-unprocessed.smi:1966|AV-procd|sdf|7950|dock4
  -GOLD-   2272010113D 1   1.00000     0.00000
 Structure written by MMmdl.
 53 54  0  0  0  0  0  0  0  0  1 V2000
  146.1826  135.5317  153.2527 C   0  0  0  0  0  0  0  0  0  0  0  0
  147.1928  135.0181  154.2726 C   0  0  0  0  0  0  0  0  0  0  0  0
  146.8070  134.5419  155.3398 O   0  0  0  0  0  0  0  0  0  0  0  0
  148.4867  135.1219  153.9301 N   0  0  0  0  0  0  0  0  0  0  0  0
  149.6216  134.7102  154.7594 C   0  0  2  0  0  0  0  0  0  0  0  0
  150.4560  135.9583  155.1097 C   0  0  0  0  0  0  0  0  0  0  0  0
  151.2919  136.3802  154.3097 O   0  0  0  0  0  0  0  0  0  0  0  0
  150.2214  136.4900  156.3238 N   0  0  0  0  0  0  0  0  0  0  0  0
  150.8017  137.6392  156.9268 C   0  0  0  0  0  0  0  0  0  0  0  0
  152.1228  138.0883  156.6946 C   0  0  0  0  0  0  0  0  0  0  0  0
  152.5697  139.2570  157.3404 C   0  0  0  0  0  0  0  0  0  0  0  0
  151.6872  139.9586  158.1948 C   0  0  0  0  0  0  0  0  0  0  0  0
  152.1161  141.1359  158.8458 N   0  0  0  0  0  0  0  0  0  0  0  0
  151.5197  142.4036  158.4338 C   0  0  0  0  0  0  0  0  0  0  0  0
  151.8440  143.5076  159.4559 C   0  0  2  0  0  0  0  0  0  0  0  0
  151.3491  144.8808  158.9903 C   0  0  0  0  0  0  0  0  0  0  0  0
  153.2565  143.5877  159.6416 O   0  0  0  0  0  0  0  0  0  0  0  0
  153.8723  142.3736  160.0766 C   0  0  1  0  0  0  0  0  0  0  0  0
  153.5273  142.0375  161.5386 C   0  0  0  0  0  0  0  0  0  0  0  0
  153.5525  141.2305  159.0930 C   0  0  0  0  0  0  0  0  0  0  0  0
  150.4204  139.5276  158.4114 N   0  0  0  0  0  0  0  0  0  0  0  0
  149.9959  138.4072  157.7908 C   0  0  0  0  0  0  0  0  0  0  0  0
  150.4843  133.6898  153.9589 C   0  0  0  0  0  0  0  0  0  0  0  0
  149.6248  132.5579  153.3615 C   0  0  0  0  0  0  0  0  0  0  0  0
  151.6228  133.0696  154.7957 C   0  0  0  0  0  0  0  0  0  0  0  0
  146.3489  136.5907  153.0530 H   0  0  0  0  0  0  0  0  0  0  0  0
  145.1633  135.4097  153.6205 H   0  0  0  0  0  0  0  0  0  0  0  0
  146.2755  134.9836  152.3149 H   0  0  0  0  0  0  0  0  0  0  0  0
  148.7076  135.5314  153.0341 H   0  0  0  0  0  0  0  0  0  0  0  0
  149.2550  134.2364  155.6728 H   0  0  0  0  0  0  0  0  0  0  0  0
  149.5632  135.9877  156.9019 H   0  0  0  0  0  0  0  0  0  0  0  0
  152.7989  137.5739  156.0303 H   0  0  0  0  0  0  0  0  0  0  0  0
  153.5828  139.5944  157.1799 H   0  0  0  0  0  0  0  0  0  0  0  0
  151.9019  142.6761  157.4489 H   0  0  0  0  0  0  0  0  0  0  0  0
  150.4372  142.3004  158.3472 H   0  0  0  0  0  0  0  0  0  0  0  0
  151.3602  143.2800  160.4058 H   0  0  0  0  0  0  0  0  0  0  0  0
  150.2687  144.8797  158.8435 H   0  0  0  0  0  0  0  0  0  0  0  0
  151.8154  145.1696  158.0478 H   0  0  0  0  0  0  0  0  0  0  0  0
  151.5839  145.6490  159.7275 H   0  0  0  0  0  0  0  0  0  0  0  0
  154.9477  142.5500  160.0405 H   0  0  0  0  0  0  0  0  0  0  0  0
  154.1180  141.1908  161.8889 H   0  0  0  0  0  0  0  0  0  0  0  0
  152.4779  141.7724  161.6657 H   0  0  0  0  0  0  0  0  0  0  0  0
  153.7417  142.8823  162.1934 H   0  0  0  0  0  0  0  0  0  0  0  0
  153.9653  140.2987  159.4770 H   0  0  0  0  0  0  0  0  0  0  0  0
  154.0483  141.4203  158.1401 H   0  0  0  0  0  0  0  0  0  0  0  0
  148.9761  138.1142  157.9945 H   0  0  0  0  0  0  0  0  0  0  0  0
  150.9494  134.2122  153.1209 H   0  0  0  0  0  0  0  0  0  0  0  0
  149.1005  132.0068  154.1427 H   0  0  0  0  0  0  0  0  0  0  0  0
  150.2405  131.8461  152.8111 H   0  0  0  0  0  0  0  0  0  0  0  0
  148.8780  132.9358  152.6629 H   0  0  0  0  0  0  0  0  0  0  0  0
  151.2333  132.5737  155.6853 H   0  0  0  0  0  0  0  0  0  0  0  0
  152.3493  133.8149  155.1193 H   0  0  0  0  0  0  0  0  0  0  0  0
  152.1734  132.3268  154.2177 H   0  0  0  0  0  0  0  0  0  0  0  0
  1  2  1  0  0  0  0
  1 26  1  0  0  0  0
  1 27  1  0  0  0  0
  1 28  1  0  0  0  0
  2  3  2  0  0  0  0
  2  4  1  0  0  0  0
  4  5  1  0  0  0  0
  4 29  1  0  0  0  0
  5  6  1  0  0  0  0
  5 23  1  0  0  0  0
  5 30  1  0  0  0  0
  6  7  2  0  0  0  0
  6  8  1  0  0  0  0
  8  9  1  0  0  0  0
  8 31  1  0  0  0  0
  9 22  1  0  0  0  0
  9 10  2  0  0  0  0
 10 11  1  0  0  0  0
 10 32  1  0  0  0  0
 11 12  2  0  0  0  0
 11 33  1  0  0  0  0
 12 13  1  0  0  0  0
 12 21  1  0  0  0  0
 13 20  1  0  0  0  0
 13 14  1  0  0  0  0
 14 15  1  0  0  0  0
 14 34  1  0  0  0  0
 14 35  1  0  0  0  0
 15 16  1  0  0  0  0
 15 17  1  0  0  0  0
 15 36  1  0  0  0  0
 16 37  1  0  0  0  0
 16 38  1  0  0  0  0
 16 39  1  0  0  0  0
 17 18  1  0  0  0  0
 18 19  1  0  0  0  0
 18 20  1  0  0  0  0
 18 40  1  0  0  0  0
 19 41  1  0  0  0  0
 19 42  1  0  0  0  0
 19 43  1  0  0  0  0
 20 44  1  0  0  0  0
 20 45  1  0  0  0  0
 21 22  2  0  0  0  0
 22 46  1  0  0  0  0
 23 24  1  0  0  0  0
 23 25  1  0  0  0  0
 23 47  1  0  0  0  0
 24 48  1  0  0  0  0
 24 49  1  0  0  0  0
 24 50  1  0  0  0  0
 25 51  1  0  0  0  0
 25 52  1  0  0  0  0
 25 53  1  0  0  0  0
M  END
> <s_m_source_file>
AV-unprocessed.smi

> <i_m_source_file_index>
1966

> <i_lp_mmshare_version>
43012

> <i_f3d_flags>
0

> <s_epik_input>
W0NIM11DKD1PKVtOSF1bQ0BASF0oW0NIXShbQ0gzXSlbQ0gzXSlDKD1PKVtOSF1jMVtjSF1bY0hdYyhuW2NIXTEpTjJbQ0gyXVtDQEBIXShbQ0gzXSlPW0NAQEhdKFtDSDNdKVtDSDJdMg==

> <s_epik_cmdline>
J2VwaWtfcHl0aG9uJywgJy1waCcsICc3LjAnLCAnLXRuJywgJzgnLCAnLW1hJywgJzIwMCcsICctbWV0YWxfYmluZGluZycsICctaW1hZScsICc8aW5maWxlLm1hZT4nLCAnLW9tYWUnLCAnPG91dGZpbGUubWFlPic=

> <r_lp_tautomer_probability>
1

> <r_epik_Ionization_Penalty>
0.000679699

> <r_epik_Ionization_Penalty_Charging>
0

> <r_epik_Ionization_Penalty_Neutral>
0.000679699

> <r_epik_State_Penalty>
0.000430485

> <r_epik_Charging_Adjusted_Penalty>
0.000430485

> <i_epik_Tot_Q>
0

> <i_epik_Tot_abs_Q>
0

> <r_epik_Metal_State_Penalty>
-0

> <b_epik_Metal_Only>
0

> <s_lp_Force_Field>
OPLS_2005

> <r_lp_Energy>
28.7238

> <b_lp_Chiralities_Consistent>
1

> <s_lp_Variant>
AV-unprocessed.smi:1966-3

> <Gold.Version>
5.8.1

> <Gold.Id.Protein>
6NUR|6NUR_protein|mol2

> <Gold.PLP.Fitness>
42.6992

> <Gold.PLP.PLP>
-39.1401

> <Gold.PLP.part.hbond>
-2.0000

> <Gold.PLP.part.metal>
0.0000

> <Gold.PLP.part.buried>
-5.5707

> <Gold.PLP.part.nonpolar>
-31.3265

> <Gold.PLP.part.repulsive>
0.2380

> <Gold.PLP.ligand.clash>
0.0000

> <Gold.PLP.ligand.torsion>
1.3882

> <Gold.PLP.Chemscore.Hbond>
2.0000

> <Gold.PLP.Chemscore.CHOScore>
0.0000

> <Gold.PLP.Chemscore.Metal>
0.0000

> <Gold.Chemscore.Hbonds>
donor molecule, donor type, donor heavy atom, donor atom, acceptor molecule, acceptor atom, score
      L1  H     4    29       P1  7948  0.59
      P1  H 10752 10763       L1     7  0.99

> <Gold.PLP.Chemscore.Internal.Correction>
0.3356

> <Gold.Rescore>
     Score         DG    S(hbond)    S(metal)    S(lipo)     H(rot)  DE(clash)    DE(int)     intcor
     17.47     -19.64       1.97        0.00     101.46       1.68       0.08       2.09       ----

> <Gold.Chemscore.Fitness>
17.4670

> <Gold.Chemscore.DG>
-19.6392

> <Gold.Chemscore.ZeroCoef>
-5.4800

> <Gold.Chemscore.Hbond>
1.9696

> <Gold.Chemscore.Metal>
0.0000

> <Gold.Chemscore.Lipo>
101.4610

> <Gold.Chemscore.Internal_Hbond>
0.0000

> <Gold.Chemscore.DEClash>
0.0820

> <Gold.Chemscore.DEInternal>
2.0901

> <Gold.Chemscore.Rot>
1.6759

> <Gold.Chemscore.Internal.Correction>
   9.000000E+99

> <Gold.Chemscore.Hbonds>
donor molecule, donor type, donor heavy atom, donor atom, acceptor molecule, acceptor atom, score
      L1  H     4    29       P1  7948  0.53
      P1  H 10752 10763       L1     7  0.66

> <Gold.Chemscore.Hbond.Weighted>
-6.5784

> <Gold.Chemscore.Metal.Weighted>
-0.0000

> <Gold.Chemscore.Lipo.Weighted>
-11.8709

> <Gold.Chemscore.Internal_Hbond.Weighted>
0.0000

> <Gold.Chemscore.DEClash.Weighted>
0.0820

> <Gold.Chemscore.DEInternal.Weighted>
2.0901

> <Gold.Chemscore.Rot.Weighted>
4.2902

> <Gold.Chemscore.Internal.Correction.Weighted>
   9.000000E+99

> <Gold.Protein.RotatedTorsions>
[ 6907 6896 6895 6894 ] final   40.57 input  -60.11 | X-H torsion
[ 7974 7965 7964 7962 ] final -164.14 input  175.53 | X-H torsion
[ 8008 7997 7996 7995 ] final  138.70 input   59.86 | X-H torsion
[ 10167 10162 10161 10158 ] final   38.59 input  -65.29 | X-H torsion
[ 10718 10713 10712 10709 ] final -130.19 input   66.30 | X-H torsion
[ 10763 10752 10751 10750 ] final   66.17 input  -60.55 | X-H torsion
[ 11005 11000 10999 10996 ] final   19.63 input  -57.11 | X-H torsion

> <Gold.Protein.ActiveResidues>
 VAL166  LYS551  ARG553  GLY616  TRP617  ASP618  TYR619  PRO620  LYS621  CYS622 
 ASP623  PHE694  ASN695  SER759  ASP760  ASP761  ALA762  ILE779  LEU786  VAL792 
 PHE793  MET794  SER795  GLU796  ALA797  LYS798  CYS799  TRP800  GLU811  SER814 

> <Gold.Protein.RotatedAtoms>
  152.1842  134.8728  160.0523 H   0  0  0  0  0  0  0  0  0  0  0  0  # atno 6907 bound_to 6896
  151.9641  133.3699  159.4054 H   0  0  0  0  0  0  0  0  0  0  0  0  # atno 6908 bound_to 6896
  150.6923  134.4133  159.5215 H   0  0  0  0  0  0  0  0  0  0  0  0  # atno 6909 bound_to 6896
  144.7305  140.3005  143.6205 H   0  0  0  0  0  0  0  0  0  0  0  0  # atno 7974 bound_to 7965
  156.2995  140.2387  156.4117 H   0  0  0  0  0  0  0  0  0  0  0  0  # atno 8008 bound_to 7997
  154.8435  140.0427  157.1577 H   0  0  0  0  0  0  0  0  0  0  0  0  # atno 8009 bound_to 7997
  154.9076  140.2986  155.5287 H   0  0  0  0  0  0  0  0  0  0  0  0  # atno 8010 bound_to 7997
  140.3922  144.1837  150.6131 H   0  0  0  0  0  0  0  0  0  0  0  0  # atno 10167 bound_to 10162
  156.2120  130.6924  151.0660 H   0  0  0  0  0  0  0  0  0  0  0  0  # atno 10718 bound_to 10713
  153.0128  135.5330  154.6781 H   0  0  0  0  0  0  0  0  0  0  0  0  # atno 10763 bound_to 10752
  154.5948  135.2862  155.0599 H   0  0  0  0  0  0  0  0  0  0  0  0  # atno 10764 bound_to 10752
  154.1679  135.6537  153.5054 H   0  0  0  0  0  0  0  0  0  0  0  0  # atno 10765 bound_to 10752
  140.4116  134.1612  155.7667 H   0  0  0  0  0  0  0  0  0  0  0  0  # atno 11005 bound_to 11000
  145.7765  139.1876  143.2182 LP  0  0  0  0  0  0  0  0  0  0  0  0  # atno 17320 bound_to 7965
  146.0868  140.7701  142.9614 LP  0  0  0  0  0  0  0  0  0  0  0  0  # atno 17321 bound_to 7965
  140.4828  143.2373  151.8931 LP  0  0  0  0  0  0  0  0  0  0  0  0  # atno 17342 bound_to 10162
  139.4788  144.5251  151.8746 LP  0  0  0  0  0  0  0  0  0  0  0  0  # atno 17343 bound_to 10162
  157.7043  131.0763  150.6718 LP  0  0  0  0  0  0  0  0  0  0  0  0  # atno 17370 bound_to 10713
  156.6778  130.4558  149.5637 LP  0  0  0  0  0  0  0  0  0  0  0  0  # atno 17371 bound_to 10713
  141.1819  133.8396  157.1228 LP  0  0  0  0  0  0  0  0  0  0  0  0  # atno 17394 bound_to 11000
  140.0263  134.9922  157.0693 LP  0  0  0  0  0  0  0  0  0  0  0  0  # atno 17395 bound_to 11000

$$$$
