AV-unprocessed.smi:2451|AV-procd|sdf|9683|dock4
  -GOLD-   2272013323D 1   1.00000     0.00000
 Structure written by MMmdl.
 37 38  0  0  0  0  0  0  0  0  2 V2000
  151.5981  145.8877  160.3978 C   0  0  0  0  0  0  0  0  0  0  0  0
  151.6023  144.3696  160.1463 C   0  0  2  0  0  0  0  0  0  0  0  0
  152.7585  143.6768  160.9108 C   0  0  0  0  0  0  0  0  0  0  0  0
  152.6924  142.1487  160.6968 C   0  0  0  0  0  0  0  0  0  0  0  0
  152.6178  141.7409  159.2035 C   0  0  0  0  0  0  0  0  0  0  0  0
  151.4618  142.4393  158.4440 C   0  0  2  0  0  0  0  0  0  0  0  0
  151.4536  142.0634  157.0368 N   0  5  0  0  0  0  0  0  0  0  0  0
  151.4010  140.4973  156.6155 S   0  0  0  0  0  0  0  0  0  0  0  0
  150.8622  140.2842  155.2618 O   0  0  0  0  0  0  0  0  0  0  0  0
  152.6477  139.7947  156.9600 O   0  0  0  0  0  0  0  0  0  0  0  0
  150.1252  139.8664  157.7931 C   0  0  0  0  0  0  0  0  0  0  0  0
  150.1505  138.3624  157.8497 C   0  0  0  0  0  0  0  0  0  0  0  0
  149.9657  137.4311  156.7897 C   0  0  0  0  0  0  0  0  0  0  0  0
  150.0916  136.2185  157.4027 C   0  0  0  0  0  0  0  0  0  0  0  0
  150.3220  136.3790  158.7300 O   0  0  0  0  0  0  0  0  0  0  0  0
  150.3542  137.7506  159.0066 N   0  0  0  0  0  0  0  0  0  0  0  0
  151.5769  143.9895  158.6253 C   0  0  2  0  0  0  0  0  0  0  0  0
  152.7578  144.6316  157.8446 C   0  0  0  0  0  0  0  0  0  0  0  0
  152.5415  146.3515  160.1105 H   0  0  0  0  0  0  0  0  0  0  0  0
  151.4420  146.1037  161.4551 H   0  0  0  0  0  0  0  0  0  0  0  0
  150.7972  146.3761  159.8423 H   0  0  0  0  0  0  0  0  0  0  0  0
  150.6709  144.0125  160.5938 H   0  0  0  0  0  0  0  0  0  0  0  0
  153.7208  144.0568  160.5667 H   0  0  0  0  0  0  0  0  0  0  0  0
  152.7001  143.9031  161.9758 H   0  0  0  0  0  0  0  0  0  0  0  0
  153.5637  141.6814  161.1563 H   0  0  0  0  0  0  0  0  0  0  0  0
  151.8284  141.7492  161.2319 H   0  0  0  0  0  0  0  0  0  0  0  0
  153.5697  141.9700  158.7229 H   0  0  0  0  0  0  0  0  0  0  0  0
  152.5053  140.6585  159.1397 H   0  0  0  0  0  0  0  0  0  0  0  0
  150.5299  142.1358  158.9234 H   0  0  0  0  0  0  0  0  0  0  0  0
  150.3474  140.2919  158.7719 H   0  0  0  0  0  0  0  0  0  0  0  0
  149.1489  140.2426  157.4892 H   0  0  0  0  0  0  0  0  0  0  0  0
  149.7809  137.6255  155.7436 H   0  0  0  0  0  0  0  0  0  0  0  0
  150.0430  135.1996  157.0484 H   0  0  0  0  0  0  0  0  0  0  0  0
  150.6662  144.4201  158.2060 H   0  0  0  0  0  0  0  0  0  0  0  0
  153.7316  144.3020  158.2082 H   0  0  0  0  0  0  0  0  0  0  0  0
  152.7371  145.7176  157.9238 H   0  0  0  0  0  0  0  0  0  0  0  0
  152.7189  144.4193  156.7748 H   0  0  0  0  0  0  0  0  0  0  0  0
  1  2  1  0  0  0  0
  1 19  1  0  0  0  0
  1 20  1  0  0  0  0
  1 21  1  0  0  0  0
  2 17  1  0  0  0  0
  2  3  1  0  0  0  0
  2 22  1  0  0  0  0
  3  4  1  0  0  0  0
  3 23  1  0  0  0  0
  3 24  1  0  0  0  0
  4  5  1  0  0  0  0
  4 25  1  0  0  0  0
  4 26  1  0  0  0  0
  5  6  1  0  0  0  0
  5 27  1  0  0  0  0
  5 28  1  0  0  0  0
  6  7  1  0  0  0  0
  6 17  1  0  0  0  0
  6 29  1  0  0  0  0
  7  8  1  0  0  0  0
  8  9  2  0  0  0  0
  8 10  2  0  0  0  0
  8 11  1  0  0  0  0
 11 12  1  0  0  0  0
 11 30  1  0  0  0  0
 11 31  1  0  0  0  0
 12 16  2  0  0  0  0
 12 13  1  0  0  0  0
 13 14  2  0  0  0  0
 13 32  1  0  0  0  0
 14 15  1  0  0  0  0
 14 33  1  0  0  0  0
 15 16  1  0  0  0  0
 17 18  1  0  0  0  0
 17 34  1  0  0  0  0
 18 35  1  0  0  0  0
 18 36  1  0  0  0  0
 18 37  1  0  0  0  0
M  CHG  1   7  -1
M  END
> <s_m_source_file>
AV-unprocessed.smi

> <i_m_source_file_index>
2451

> <i_lp_mmshare_version>
43012

> <i_f3d_flags>
0

> <s_epik_input>
W0NIM11bQ0BASF0xW0NIMl1bQ0gyXVtDSDJdW0NASF0oW0NASF0xW0NIM10pW05IXVMoPU8pKD1PKVtDSDJdYzJbY0hdW2NIXW9uMg==

> <s_epik_cmdline>
J2VwaWtfcHl0aG9uJywgJy1waCcsICc3LjAnLCAnLXRuJywgJzgnLCAnLW1hJywgJzIwMCcsICctbWV0YWxfYmluZGluZycsICctaW1hZScsICc8aW5maWxlLm1hZT4nLCAnLW9tYWUnLCAnPG91dGZpbGUubWFlPic=

> <r_lp_tautomer_probability>
1

> <r_epik_Ionization_Penalty>
5.22693

> <r_epik_Ionization_Penalty_Charging>
5.22693

> <r_epik_Ionization_Penalty_Neutral>
2.67702e-10

> <r_epik_State_Penalty>
5.22685

> <r_epik_Charging_Adjusted_Penalty>
10.4538

> <i_epik_Tot_Q>
-1

> <i_epik_Tot_abs_Q>
1

> <r_epik_Metal_State_Penalty>
1.28716

> <b_epik_Metal_Only>
1

> <s_lp_Force_Field>
OPLS_2005

> <r_lp_Energy>
15.3168

> <b_lp_Chiralities_Consistent>
1

> <s_lp_Variant>
AV-unprocessed.smi:2451-15

> <Gold.Version>
5.8.1

> <Gold.Id.Protein>
6NUR|6NUR_protein|mol2

> <Gold.PLP.Fitness>
41.7260

> <Gold.PLP.PLP>
-33.4209

> <Gold.PLP.part.hbond>
-3.0000

> <Gold.PLP.part.metal>
0.0000

> <Gold.PLP.part.buried>
-2.8703

> <Gold.PLP.part.nonpolar>
-27.2216

> <Gold.PLP.part.repulsive>
0.0943

> <Gold.PLP.ligand.clash>
0.0000

> <Gold.PLP.ligand.torsion>
0.8443

> <Gold.PLP.Chemscore.Hbond>
3.0000

> <Gold.PLP.Chemscore.CHOScore>
0.0000

> <Gold.PLP.Chemscore.Metal>
0.0000

> <Gold.Chemscore.Hbonds>
donor molecule, donor type, donor heavy atom, donor atom, acceptor molecule, acceptor atom, score
      P1  H  6896  6908       L1    15  1.00
      P1  H  7989  7998       L1     9  1.00
      P1  H  7997  8010       L1    10  1.00

> <Gold.PLP.Chemscore.Internal.Correction>
0.9938

> <Gold.Rescore>
     Score         DG    S(hbond)    S(metal)    S(lipo)     H(rot)  DE(clash)    DE(int)     intcor
     21.24     -23.70       2.92        0.00     103.06       1.40       0.50       1.96       ----

> <Gold.Chemscore.Fitness>
21.2435

> <Gold.Chemscore.DG>
-23.6994

> <Gold.Chemscore.ZeroCoef>
-5.4800

> <Gold.Chemscore.Hbond>
2.9166

> <Gold.Chemscore.Metal>
0.0000

> <Gold.Chemscore.Lipo>
103.0617

> <Gold.Chemscore.Internal_Hbond>
0.0000

> <Gold.Chemscore.DEClash>
0.4976

> <Gold.Chemscore.DEInternal>
1.9583

> <Gold.Chemscore.Rot>
1.3986

> <Gold.Chemscore.Internal.Correction>
   9.000000E+99

> <Gold.Chemscore.Hbonds>
donor molecule, donor type, donor heavy atom, donor atom, acceptor molecule, acceptor atom, score
      P1  H  6896  6908       L1    15  0.91
      P1  H  7989  7998       L1     9  0.93
      P1  H  7997  8010       L1    10  1.00

> <Gold.Chemscore.Hbond.Weighted>
-9.7416

> <Gold.Chemscore.Metal.Weighted>
-0.0000

> <Gold.Chemscore.Lipo.Weighted>
-12.0582

> <Gold.Chemscore.Internal_Hbond.Weighted>
0.0000

> <Gold.Chemscore.DEClash.Weighted>
0.4976

> <Gold.Chemscore.DEInternal.Weighted>
1.9583

> <Gold.Chemscore.Rot.Weighted>
3.5804

> <Gold.Chemscore.Internal.Correction.Weighted>
   9.000000E+99

> <Gold.Protein.RotatedTorsions>
[ 6907 6896 6895 6894 ] final -170.97 input  -60.11 | X-H torsion
[ 7974 7965 7964 7962 ] final -138.47 input  175.53 | X-H torsion
[ 8008 7997 7996 7995 ] final   67.21 input   59.86 | X-H torsion
[ 10167 10162 10161 10158 ] final  113.57 input  -65.29 | X-H torsion
[ 10718 10713 10712 10709 ] final   26.91 input   66.30 | X-H torsion
[ 10763 10752 10751 10750 ] final -174.98 input  -60.55 | X-H torsion
[ 11005 11000 10999 10996 ] final  104.41 input  -57.11 | X-H torsion

> <Gold.Protein.ActiveResidues>
 VAL166  LYS551  ARG553  GLY616  TRP617  ASP618  TYR619  PRO620  LYS621  CYS622 
 ASP623  PHE694  ASN695  SER759  ASP760  ASP761  ALA762  ILE779  LEU786  VAL792 
 PHE793  MET794  SER795  GLU796  ALA797  LYS798  CYS799  TRP800  GLU811  SER814 

> <Gold.Protein.RotatedAtoms>
  151.5163  133.3475  159.2893 H   0  0  0  0  0  0  0  0  0  0  0  0  # atno 6907 bound_to 6896
  150.8680  134.8050  159.7144 H   0  0  0  0  0  0  0  0  0  0  0  0  # atno 6908 bound_to 6896
  152.4678  134.5043  159.9786 H   0  0  0  0  0  0  0  0  0  0  0  0  # atno 6909 bound_to 6896
  144.8756  140.6432  143.5239 H   0  0  0  0  0  0  0  0  0  0  0  0  # atno 7974 bound_to 7965
  155.6894  140.3496  155.4887 H   0  0  0  0  0  0  0  0  0  0  0  0  # atno 8008 bound_to 7997
  155.9537  140.1124  157.0977 H   0  0  0  0  0  0  0  0  0  0  0  0  # atno 8009 bound_to 7997
  154.4127  140.1189  156.5073 H   0  0  0  0  0  0  0  0  0  0  0  0  # atno 8010 bound_to 7997
  139.6452  144.7126  151.2158 H   0  0  0  0  0  0  0  0  0  0  0  0  # atno 10167 bound_to 10162
  157.2132  130.6944  149.6237 H   0  0  0  0  0  0  0  0  0  0  0  0  # atno 10718 bound_to 10713
  154.5898  135.2844  155.0647 H   0  0  0  0  0  0  0  0  0  0  0  0  # atno 10763 bound_to 10752
  154.1952  135.6434  153.5075 H   0  0  0  0  0  0  0  0  0  0  0  0  # atno 10764 bound_to 10752
  153.0117  135.5455  154.6580 H   0  0  0  0  0  0  0  0  0  0  0  0  # atno 10765 bound_to 10752
  139.8792  134.9299  156.5358 H   0  0  0  0  0  0  0  0  0  0  0  0  # atno 11005 bound_to 11000
  145.4049  139.1591  143.4157 LP  0  0  0  0  0  0  0  0  0  0  0  0  # atno 17320 bound_to 7965
  146.2960  140.4148  142.8721 LP  0  0  0  0  0  0  0  0  0  0  0  0  # atno 17321 bound_to 7965
  140.7511  143.6244  150.8482 LP  0  0  0  0  0  0  0  0  0  0  0  0  # atno 17342 bound_to 10162
  139.9886  143.5872  152.2918 LP  0  0  0  0  0  0  0  0  0  0  0  0  # atno 17343 bound_to 10162
  155.9689  130.4544  150.5850 LP  0  0  0  0  0  0  0  0  0  0  0  0  # atno 17370 bound_to 10713
  157.3651  131.0756  151.1604 LP  0  0  0  0  0  0  0  0  0  0  0  0  # atno 17371 bound_to 10713
  140.8347  133.8251  155.9017 LP  0  0  0  0  0  0  0  0  0  0  0  0  # atno 17394 bound_to 11000
  140.9295  134.2040  157.4873 LP  0  0  0  0  0  0  0  0  0  0  0  0  # atno 17395 bound_to 11000

$$$$
