AV-unprocessed.smi:2139|AV-procd|sdf|8713|dock6
  -GOLD-   2272011473D 1   1.00000     0.00000
 Structure written by MMmdl.
 40 41  0  0  0  0  0  0  0  0  1 V2000
  152.4033  143.5766  160.8717 C   0  0  0  0  0  0  0  0  0  0  0  0
  152.4399  142.4775  159.8000 C   0  0  0  0  0  0  0  0  0  0  0  0
  151.6660  142.8326  158.5157 C   0  0  1  0  0  0  0  0  0  0  0  0
  152.1998  144.1182  157.8691 C   0  0  0  0  0  0  0  0  0  0  0  0
  151.7444  141.7407  157.5464 N   0  0  0  0  0  0  0  0  0  0  0  0
  150.7035  141.1630  156.9233 C   0  0  0  0  0  0  0  0  0  0  0  0
  149.5292  141.4771  157.1203 O   0  0  0  0  0  0  0  0  0  0  0  0
  151.0666  140.0521  155.9718 C   0  0  0  0  0  0  0  0  0  0  0  0
  152.3312  139.4288  156.0844 C   0  0  0  0  0  0  0  0  0  0  0  0
  152.6964  138.4261  155.1690 C   0  0  0  0  0  0  0  0  0  0  0  0
  151.7817  138.0835  154.1590 C   0  0  0  0  0  0  0  0  0  0  0  0
  150.5727  138.6658  154.0319 N   0  0  0  0  0  0  0  0  0  0  0  0
  150.2086  139.6316  154.9119 C   0  0  0  0  0  0  0  0  0  0  0  0
  148.9150  140.1678  154.7561 N   0  0  0  0  0  0  0  0  0  0  0  0
  148.8055  141.5899  154.4500 C   0  0  0  0  0  0  0  0  0  0  0  0
  147.3367  142.0330  154.5653 C   0  0  0  0  0  0  0  0  0  0  0  0
  146.5251  141.2264  153.7152 O   0  0  0  0  0  0  0  0  0  0  0  0
  146.5851  139.8461  154.0659 C   0  0  0  0  0  0  0  0  0  0  0  0
  148.0332  139.3440  153.9397 C   0  0  0  0  0  0  0  0  0  0  0  0
  153.0288  143.3073  161.7228 H   0  0  0  0  0  0  0  0  0  0  0  0
  151.3926  143.7361  161.2458 H   0  0  0  0  0  0  0  0  0  0  0  0
  152.7689  144.5249  160.4767 H   0  0  0  0  0  0  0  0  0  0  0  0
  153.4817  142.2805  159.5440 H   0  0  0  0  0  0  0  0  0  0  0  0
  152.0520  141.5497  160.2223 H   0  0  0  0  0  0  0  0  0  0  0  0
  150.6266  143.0171  158.7923 H   0  0  0  0  0  0  0  0  0  0  0  0
  152.1326  144.9609  158.5576 H   0  0  0  0  0  0  0  0  0  0  0  0
  151.6263  144.3761  156.9781 H   0  0  0  0  0  0  0  0  0  0  0  0
  153.2442  144.0120  157.5742 H   0  0  0  0  0  0  0  0  0  0  0  0
  152.6686  141.3973  157.3292 H   0  0  0  0  0  0  0  0  0  0  0  0
  153.0274  139.7192  156.8582 H   0  0  0  0  0  0  0  0  0  0  0  0
  153.6573  137.9376  155.2350 H   0  0  0  0  0  0  0  0  0  0  0  0
  152.0262  137.3213  153.4340 H   0  0  0  0  0  0  0  0  0  0  0  0
  149.4272  142.1668  155.1351 H   0  0  0  0  0  0  0  0  0  0  0  0
  149.1693  141.7794  153.4393 H   0  0  0  0  0  0  0  0  0  0  0  0
  146.9881  141.9575  155.5964 H   0  0  0  0  0  0  0  0  0  0  0  0
  147.2346  143.0770  154.2693 H   0  0  0  0  0  0  0  0  0  0  0  0
  146.2116  139.7008  155.0811 H   0  0  0  0  0  0  0  0  0  0  0  0
  145.9313  139.2809  153.4014 H   0  0  0  0  0  0  0  0  0  0  0  0
  148.3582  139.3944  152.8996 H   0  0  0  0  0  0  0  0  0  0  0  0
  148.0938  138.2990  154.2413 H   0  0  0  0  0  0  0  0  0  0  0  0
  1  2  1  0  0  0  0
  1 20  1  0  0  0  0
  1 21  1  0  0  0  0
  1 22  1  0  0  0  0
  2  3  1  0  0  0  0
  2 23  1  0  0  0  0
  2 24  1  0  0  0  0
  3  4  1  0  0  0  0
  3  5  1  0  0  0  0
  3 25  1  0  0  0  0
  4 26  1  0  0  0  0
  4 27  1  0  0  0  0
  4 28  1  0  0  0  0
  5  6  1  0  0  0  0
  5 29  1  0  0  0  0
  6  7  2  0  0  0  0
  6  8  1  0  0  0  0
  8 13  1  0  0  0  0
  8  9  2  0  0  0  0
  9 10  1  0  0  0  0
  9 30  1  0  0  0  0
 10 11  2  0  0  0  0
 10 31  1  0  0  0  0
 11 12  1  0  0  0  0
 11 32  1  0  0  0  0
 12 13  2  0  0  0  0
 13 14  1  0  0  0  0
 14 19  1  0  0  0  0
 14 15  1  0  0  0  0
 15 16  1  0  0  0  0
 15 33  1  0  0  0  0
 15 34  1  0  0  0  0
 16 17  1  0  0  0  0
 16 35  1  0  0  0  0
 16 36  1  0  0  0  0
 17 18  1  0  0  0  0
 18 19  1  0  0  0  0
 18 37  1  0  0  0  0
 18 38  1  0  0  0  0
 19 39  1  0  0  0  0
 19 40  1  0  0  0  0
M  END
> <s_m_source_file>
AV-unprocessed.smi

> <i_m_source_file_index>
2139

> <i_lp_mmshare_version>
43012

> <i_f3d_flags>
0

> <s_epik_input>
W0NIM11bQ0gyXVtDQEhdKFtDSDNdKVtOSF1DKD1PKWMxW2NIXVtjSF1bY0hdbmMxTjJbQ0gyXVtDSDJdT1tDSDJdW0NIMl0y

> <s_epik_cmdline>
J2VwaWtfcHl0aG9uJywgJy1waCcsICc3LjAnLCAnLXRuJywgJzgnLCAnLW1hJywgJzIwMCcsICctbWV0YWxfYmluZGluZycsICctaW1hZScsICc8aW5maWxlLm1hZT4nLCAnLW9tYWUnLCAnPG91dGZpbGUubWFlPic=

> <r_lp_tautomer_probability>
1

> <r_epik_Ionization_Penalty>
1.73125e-05

> <r_epik_Ionization_Penalty_Charging>
0

> <r_epik_Ionization_Penalty_Neutral>
1.73125e-05

> <r_epik_State_Penalty>
-0

> <r_epik_Charging_Adjusted_Penalty>
0

> <i_epik_Tot_Q>
0

> <i_epik_Tot_abs_Q>
0

> <r_epik_Metal_State_Penalty>
-0

> <b_epik_Metal_Only>
0

> <s_lp_Force_Field>
OPLS_2005

> <r_lp_Energy>
25.2402

> <b_lp_Chiralities_Consistent>
1

> <s_lp_Variant>
AV-unprocessed.smi:2139-2

> <Gold.Version>
5.8.1

> <Gold.Id.Protein>
6NUR|6NUR_protein|mol2

> <Gold.PLP.Fitness>
39.2354

> <Gold.PLP.PLP>
-37.0878

> <Gold.PLP.part.hbond>
0.0000

> <Gold.PLP.part.metal>
0.0000

> <Gold.PLP.part.buried>
-1.6841

> <Gold.PLP.part.nonpolar>
-35.7644

> <Gold.PLP.part.repulsive>
0.6778

> <Gold.PLP.ligand.clash>
0.0000

> <Gold.PLP.ligand.torsion>
0.5533

> <Gold.PLP.Chemscore.Hbond>
0.0000

> <Gold.PLP.Chemscore.CHOScore>
1.0000

> <Gold.PLP.Chemscore.Metal>
0.0000

> <Gold.Chemscore.Hbonds>
donor molecule, donor type, donor heavy atom, donor atom, acceptor molecule, acceptor atom, score
      L1  C    11    32       P1  7949  1.00

> <Gold.PLP.Chemscore.Internal.Correction>
0.2541

> <Gold.Rescore>
     Score         DG    S(hbond)    S(metal)    S(lipo)     H(rot)  DE(clash)    DE(int)     intcor
     10.31     -14.15       0.00        0.00     102.66       1.30       0.40       3.44       ----

> <Gold.Chemscore.Fitness>
10.3135

> <Gold.Chemscore.DG>
-14.1530

> <Gold.Chemscore.ZeroCoef>
-5.4800

> <Gold.Chemscore.Hbond>
0.0000

> <Gold.Chemscore.Metal>
0.0000

> <Gold.Chemscore.Lipo>
102.6631

> <Gold.Chemscore.Internal_Hbond>
0.0000

> <Gold.Chemscore.DEClash>
0.4031

> <Gold.Chemscore.DEInternal>
3.4365

> <Gold.Chemscore.Rot>
1.3041

> <Gold.Chemscore.Internal.Correction>
   9.000000E+99

> <Gold.Chemscore.Hbond.Weighted>
-0.0000

> <Gold.Chemscore.Metal.Weighted>
-0.0000

> <Gold.Chemscore.Lipo.Weighted>
-12.0116

> <Gold.Chemscore.Internal_Hbond.Weighted>
0.0000

> <Gold.Chemscore.DEClash.Weighted>
0.4031

> <Gold.Chemscore.DEInternal.Weighted>
3.4365

> <Gold.Chemscore.Rot.Weighted>
3.3385

> <Gold.Chemscore.Internal.Correction.Weighted>
   9.000000E+99

> <Gold.Protein.RotatedTorsions>
[ 6907 6896 6895 6894 ] final -100.23 input  -60.11 | X-H torsion
[ 7974 7965 7964 7962 ] final -110.14 input  175.53 | X-H torsion
[ 8008 7997 7996 7995 ] final  -65.54 input   59.86 | X-H torsion
[ 10167 10162 10161 10158 ] final  -93.03 input  -65.29 | X-H torsion
[ 10718 10713 10712 10709 ] final  159.14 input   66.30 | X-H torsion
[ 10763 10752 10751 10750 ] final  -15.26 input  -60.55 | X-H torsion
[ 11005 11000 10999 10996 ] final  -13.74 input  -57.11 | X-H torsion

> <Gold.Protein.ActiveResidues>
 VAL166  LYS551  ARG553  GLY616  TRP617  ASP618  TYR619  PRO620  LYS621  CYS622 
 ASP623  PHE694  ASN695  SER759  ASP760  ASP761  ALA762  ILE779  LEU786  VAL792 
 PHE793  MET794  SER795  GLU796  ALA797  LYS798  CYS799  TRP800  GLU811  SER814 

> <Gold.Protein.RotatedAtoms>
  150.7108  134.0919  159.3934 H   0  0  0  0  0  0  0  0  0  0  0  0  # atno 6907 bound_to 6896
  151.8905  135.0416  160.0506 H   0  0  0  0  0  0  0  0  0  0  0  0  # atno 6908 bound_to 6896
  152.2495  133.5168  159.5354 H   0  0  0  0  0  0  0  0  0  0  0  0  # atno 6909 bound_to 6896
  145.1719  140.8929  143.3530 H   0  0  0  0  0  0  0  0  0  0  0  0  # atno 7974 bound_to 7965
  154.4678  140.0931  156.7066 H   0  0  0  0  0  0  0  0  0  0  0  0  # atno 8008 bound_to 7997
  155.4809  140.3467  155.4321 H   0  0  0  0  0  0  0  0  0  0  0  0  # atno 8009 bound_to 7997
  156.0987  140.1416  156.9485 H   0  0  0  0  0  0  0  0  0  0  0  0  # atno 8010 bound_to 7997
  140.3287  143.3007  151.9966 H   0  0  0  0  0  0  0  0  0  0  0  0  # atno 10167 bound_to 10162
  157.1683  131.0604  151.2196 H   0  0  0  0  0  0  0  0  0  0  0  0  # atno 10718 bound_to 10713
  153.5407  135.7013  153.5638 H   0  0  0  0  0  0  0  0  0  0  0  0  # atno 10763 bound_to 10752
  153.3605  135.3971  155.1714 H   0  0  0  0  0  0  0  0  0  0  0  0  # atno 10764 bound_to 10752
  154.8674  135.3787  154.4911 H   0  0  0  0  0  0  0  0  0  0  0  0  # atno 10765 bound_to 10752
  140.7792  133.8376  155.9277 H   0  0  0  0  0  0  0  0  0  0  0  0  # atno 11005 bound_to 11000
  145.0224  139.3412  143.6065 LP  0  0  0  0  0  0  0  0  0  0  0  0  # atno 17320 bound_to 7965
  146.3467  139.9530  142.8726 LP  0  0  0  0  0  0  0  0  0  0  0  0  # atno 17321 bound_to 7965
  139.4860  144.6252  151.7178 LP  0  0  0  0  0  0  0  0  0  0  0  0  # atno 17342 bound_to 10162
  140.5417  144.0569  150.6091 LP  0  0  0  0  0  0  0  0  0  0  0  0  # atno 17343 bound_to 10162
  157.4068  130.7363  149.6808 LP  0  0  0  0  0  0  0  0  0  0  0  0  # atno 17370 bound_to 10713
  155.9742  130.4106  150.3939 LP  0  0  0  0  0  0  0  0  0  0  0  0  # atno 17371 bound_to 10713
  140.9499  134.1792  157.4736 LP  0  0  0  0  0  0  0  0  0  0  0  0  # atno 17394 bound_to 11000
  139.8745  134.9905  156.5505 LP  0  0  0  0  0  0  0  0  0  0  0  0  # atno 17395 bound_to 11000

$$$$
