AV-unprocessed.smi:1190|AV-procd|sdf|4980|dock9
  -GOLD-   22720 3573D 1   1.00000     0.00000
 Structure written by MMmdl.
 43 44  0  0  0  0  0  0  0  0  1 V2000
  146.2894  128.9381  152.8688 C   0  0  0  0  0  0  0  0  0  0  0  0
  147.1686  129.2900  153.9316 O   0  0  0  0  0  0  0  0  0  0  0  0
  147.7186  130.5554  153.9346 C   0  0  0  0  0  0  0  0  0  0  0  0
  147.1469  131.5403  153.1053 C   0  0  0  0  0  0  0  0  0  0  0  0
  147.7041  132.8327  153.1053 C   0  0  0  0  0  0  0  0  0  0  0  0
  148.8162  133.1044  153.9274 C   0  0  0  0  0  0  0  0  0  0  0  0
  149.3399  134.4260  153.9129 N   0  0  0  0  0  0  0  0  0  0  0  0
  150.1153  135.0397  154.8232 C   0  0  0  0  0  0  0  0  0  0  0  0
  150.5449  134.5293  155.8572 O   0  0  0  0  0  0  0  0  0  0  0  0
  150.3769  136.3018  154.4558 N   0  0  0  0  0  0  0  0  0  0  0  0
  151.1558  137.2713  155.2240 C   0  0  0  0  0  0  0  0  0  0  0  0
  151.8088  138.3496  154.3197 C   0  0  2  0  0  0  0  0  0  0  0  0
  153.3381  138.3111  154.5402 C   0  0  0  0  0  0  0  0  0  0  0  0
  151.2236  139.6998  154.4752 N   0  0  0  0  0  0  0  0  0  0  0  0
  149.7761  139.7170  154.2444 C   0  0  0  0  0  0  0  0  0  0  0  0
  149.1670  141.1190  154.4197 C   0  0  0  0  0  0  0  0  0  0  0  0
  149.4617  141.6089  155.7214 O   0  0  0  0  0  0  0  0  0  0  0  0
  150.8604  141.6731  155.9671 C   0  0  0  0  0  0  0  0  0  0  0  0
  151.4808  140.2752  155.7990 C   0  0  0  0  0  0  0  0  0  0  0  0
  149.3116  132.0494  154.7331 C   0  0  0  0  0  0  0  0  0  0  0  0
  148.7825  130.8072  154.7365 N   0  0  0  0  0  0  0  0  0  0  0  0
  145.9537  127.9100  153.0033 H   0  0  0  0  0  0  0  0  0  0  0  0
  146.7876  128.9980  151.9001 H   0  0  0  0  0  0  0  0  0  0  0  0
  145.4049  129.5764  152.8570 H   0  0  0  0  0  0  0  0  0  0  0  0
  146.2956  131.3091  152.4819 H   0  0  0  0  0  0  0  0  0  0  0  0
  147.2807  133.6044  152.4788 H   0  0  0  0  0  0  0  0  0  0  0  0
  149.1218  134.9645  153.0875 H   0  0  0  0  0  0  0  0  0  0  0  0
  149.9793  136.6330  153.5891 H   0  0  0  0  0  0  0  0  0  0  0  0
  150.5390  137.7478  155.9877 H   0  0  0  0  0  0  0  0  0  0  0  0
  151.9118  136.7285  155.7902 H   0  0  0  0  0  0  0  0  0  0  0  0
  151.6400  138.0287  153.2906 H   0  0  0  0  0  0  0  0  0  0  0  0
  153.7123  137.2868  154.5378 H   0  0  0  0  0  0  0  0  0  0  0  0
  153.6170  138.7603  155.4938 H   0  0  0  0  0  0  0  0  0  0  0  0
  153.8789  138.8332  153.7515 H   0  0  0  0  0  0  0  0  0  0  0  0
  149.5461  139.3847  153.2330 H   0  0  0  0  0  0  0  0  0  0  0  0
  149.2841  139.0210  154.9255 H   0  0  0  0  0  0  0  0  0  0  0  0
  149.5564  141.8058  153.6666 H   0  0  0  0  0  0  0  0  0  0  0  0
  148.0855  141.0812  154.2900 H   0  0  0  0  0  0  0  0  0  0  0  0
  151.3253  142.3865  155.2848 H   0  0  0  0  0  0  0  0  0  0  0  0
  151.0275  142.0421  156.9792 H   0  0  0  0  0  0  0  0  0  0  0  0
  151.0915  139.6116  156.5726 H   0  0  0  0  0  0  0  0  0  0  0  0
  152.5510  140.3704  155.9744 H   0  0  0  0  0  0  0  0  0  0  0  0
  150.1375  132.1822  155.4132 H   0  0  0  0  0  0  0  0  0  0  0  0
  1  2  1  0  0  0  0
  1 22  1  0  0  0  0
  1 23  1  0  0  0  0
  1 24  1  0  0  0  0
  2  3  1  0  0  0  0
  3 21  1  0  0  0  0
  3  4  2  0  0  0  0
  4  5  1  0  0  0  0
  4 25  1  0  0  0  0
  5  6  2  0  0  0  0
  5 26  1  0  0  0  0
  6  7  1  0  0  0  0
  6 20  1  0  0  0  0
  7  8  1  0  0  0  0
  7 27  1  0  0  0  0
  8  9  2  0  0  0  0
  8 10  1  0  0  0  0
 10 11  1  0  0  0  0
 10 28  1  0  0  0  0
 11 12  1  0  0  0  0
 11 29  1  0  0  0  0
 11 30  1  0  0  0  0
 12 13  1  0  0  0  0
 12 14  1  0  0  0  0
 12 31  1  0  0  0  0
 13 32  1  0  0  0  0
 13 33  1  0  0  0  0
 13 34  1  0  0  0  0
 14 19  1  0  0  0  0
 14 15  1  0  0  0  0
 15 16  1  0  0  0  0
 15 35  1  0  0  0  0
 15 36  1  0  0  0  0
 16 17  1  0  0  0  0
 16 37  1  0  0  0  0
 16 38  1  0  0  0  0
 17 18  1  0  0  0  0
 18 19  1  0  0  0  0
 18 39  1  0  0  0  0
 18 40  1  0  0  0  0
 19 41  1  0  0  0  0
 19 42  1  0  0  0  0
 20 21  2  0  0  0  0
 20 43  1  0  0  0  0
M  END
> <s_m_source_file>
AV-unprocessed.smi

> <i_m_source_file_index>
1190

> <i_lp_mmshare_version>
43012

> <i_f3d_flags>
0

> <s_epik_input>
W0NIM11PYzFbY0hdW2NIXWMoW2NIXW4xKVtOSF1DKD1PKVtOSF1bQ0gyXVtDQEhdKFtDSDNdKU4yW0NIMl1bQ0gyXU9bQ0gyXVtDSDJdMg==

> <s_epik_cmdline>
J2VwaWtfcHl0aG9uJywgJy1waCcsICc3LjAnLCAnLXRuJywgJzgnLCAnLW1hJywgJzIwMCcsICctbWV0YWxfYmluZGluZycsICctaW1hZScsICc8aW5maWxlLm1hZT4nLCAnLW9tYWUnLCAnPG91dGZpbGUubWFlPic=

> <r_lp_tautomer_probability>
1

> <r_epik_Ionization_Penalty>
0.266084

> <r_epik_Ionization_Penalty_Charging>
0

> <r_epik_Ionization_Penalty_Neutral>
0.266084

> <r_epik_State_Penalty>
0.257924

> <r_epik_Charging_Adjusted_Penalty>
0.257924

> <i_epik_Tot_Q>
0

> <i_epik_Tot_abs_Q>
0

> <r_epik_Metal_State_Penalty>
0.257922

> <b_epik_Metal_Only>
0

> <s_lp_Force_Field>
OPLS_2005

> <r_lp_Energy>
36.3321

> <b_lp_Chiralities_Consistent>
1

> <s_lp_Variant>
AV-unprocessed.smi:1190-1

> <Gold.Version>
5.8.1

> <Gold.Id.Protein>
6NUR|6NUR_protein|mol2

> <Gold.PLP.Fitness>
44.8516

> <Gold.PLP.PLP>
-39.3877

> <Gold.PLP.part.hbond>
-3.9840

> <Gold.PLP.part.metal>
0.0000

> <Gold.PLP.part.buried>
-4.0577

> <Gold.PLP.part.nonpolar>
-32.7289

> <Gold.PLP.part.repulsive>
0.4452

> <Gold.PLP.ligand.clash>
0.0000

> <Gold.PLP.ligand.torsion>
1.2013

> <Gold.PLP.Chemscore.Hbond>
2.6100

> <Gold.PLP.Chemscore.CHOScore>
0.0000

> <Gold.PLP.Chemscore.Metal>
0.0000

> <Gold.Chemscore.Hbonds>
donor molecule, donor type, donor heavy atom, donor atom, acceptor molecule, acceptor atom, score
      L1  H     7    27       P1  7948  0.70
      L1  H    10    28       P1  7948  0.93
      P1  H  7989  7998       L1    14  0.95

> <Gold.PLP.Chemscore.Internal.Correction>
0.0365

> <Gold.Rescore>
     Score         DG    S(hbond)    S(metal)    S(lipo)     H(rot)  DE(clash)    DE(int)     intcor
     13.38     -15.60       1.54        0.00      80.31       1.73       0.06       2.16       ----

> <Gold.Chemscore.Fitness>
13.3762

> <Gold.Chemscore.DG>
-15.5974

> <Gold.Chemscore.ZeroCoef>
-5.4800

> <Gold.Chemscore.Hbond>
1.5414

> <Gold.Chemscore.Metal>
0.0000

> <Gold.Chemscore.Lipo>
80.3087

> <Gold.Chemscore.Internal_Hbond>
0.0000

> <Gold.Chemscore.DEClash>
0.0631

> <Gold.Chemscore.DEInternal>
2.1581

> <Gold.Chemscore.Rot>
1.7292

> <Gold.Chemscore.Internal.Correction>
   9.000000E+99

> <Gold.Chemscore.Hbonds>
donor molecule, donor type, donor heavy atom, donor atom, acceptor molecule, acceptor atom, score
      L1  H     7    27       P1  7948  0.07
      L1  H    10    28       P1  7948  0.19
      P1  H  7989  7998       L1    14  0.08

> <Gold.Chemscore.Hbond.Weighted>
-5.1481

> <Gold.Chemscore.Metal.Weighted>
-0.0000

> <Gold.Chemscore.Lipo.Weighted>
-9.3961

> <Gold.Chemscore.Internal_Hbond.Weighted>
0.0000

> <Gold.Chemscore.DEClash.Weighted>
0.0631

> <Gold.Chemscore.DEInternal.Weighted>
2.1581

> <Gold.Chemscore.Rot.Weighted>
4.4268

> <Gold.Chemscore.Internal.Correction.Weighted>
   9.000000E+99

> <Gold.Protein.RotatedTorsions>
[ 6907 6896 6895 6894 ] final   14.98 input  -60.11 | X-H torsion
[ 7974 7965 7964 7962 ] final    8.05 input  175.53 | X-H torsion
[ 8008 7997 7996 7995 ] final   71.32 input   59.86 | X-H torsion
[ 10167 10162 10161 10158 ] final   -7.20 input  -65.29 | X-H torsion
[ 10718 10713 10712 10709 ] final -109.48 input   66.30 | X-H torsion
[ 10763 10752 10751 10750 ] final  138.04 input  -60.55 | X-H torsion
[ 11005 11000 10999 10996 ] final -108.18 input  -57.11 | X-H torsion

> <Gold.Protein.ActiveResidues>
 VAL166  LYS551  ARG553  GLY616  TRP617  ASP618  TYR619  PRO620  LYS621  CYS622 
 ASP623  PHE694  ASN695  SER759  ASP760  ASP761  ALA762  ILE779  LEU786  VAL792 
 PHE793  MET794  SER795  GLU796  ALA797  LYS798  CYS799  TRP800  GLU811  SER814 

> <Gold.Protein.RotatedAtoms>
  151.8108  135.0681  160.0412 H   0  0  0  0  0  0  0  0  0  0  0  0  # atno 6907 bound_to 6896
  152.3022  133.5662  159.5634 H   0  0  0  0  0  0  0  0  0  0  0  0  # atno 6908 bound_to 6896
  150.7279  134.0191  159.3737 H   0  0  0  0  0  0  0  0  0  0  0  0  # atno 6909 bound_to 6896
  146.2420  139.9991  142.8418 H   0  0  0  0  0  0  0  0  0  0  0  0  # atno 7974 bound_to 7965
  155.7521  140.3488  155.5156 H   0  0  0  0  0  0  0  0  0  0  0  0  # atno 8008 bound_to 7997
  155.8994  140.1031  157.1382 H   0  0  0  0  0  0  0  0  0  0  0  0  # atno 8009 bound_to 7997
  154.4042  140.1289  156.4404 H   0  0  0  0  0  0  0  0  0  0  0  0  # atno 8010 bound_to 7997
  140.7021  143.6108  150.8706 H   0  0  0  0  0  0  0  0  0  0  0  0  # atno 10167 bound_to 10162
  156.0539  130.5766  150.8106 H   0  0  0  0  0  0  0  0  0  0  0  0  # atno 10718 bound_to 10713
  153.8831  135.3042  155.3446 H   0  0  0  0  0  0  0  0  0  0  0  0  # atno 10763 bound_to 10752
  154.7752  135.4865  153.9733 H   0  0  0  0  0  0  0  0  0  0  0  0  # atno 10764 bound_to 10752
  153.1340  135.6810  153.9229 H   0  0  0  0  0  0  0  0  0  0  0  0  # atno 10765 bound_to 10752
  141.0915  133.9046  157.2064 H   0  0  0  0  0  0  0  0  0  0  0  0  # atno 11005 bound_to 11000
  145.1432  140.9582  143.4476 LP  0  0  0  0  0  0  0  0  0  0  0  0  # atno 17320 bound_to 7965
  145.0276  139.3369  143.6041 LP  0  0  0  0  0  0  0  0  0  0  0  0  # atno 17321 bound_to 7965
  139.9831  143.5929  152.2936 LP  0  0  0  0  0  0  0  0  0  0  0  0  # atno 17342 bound_to 10162
  139.6557  144.7662  151.2060 LP  0  0  0  0  0  0  0  0  0  0  0  0  # atno 17343 bound_to 10162
  157.5492  131.0943  150.9719 LP  0  0  0  0  0  0  0  0  0  0  0  0  # atno 17370 bound_to 10713
  156.9983  130.5590  149.5309 LP  0  0  0  0  0  0  0  0  0  0  0  0  # atno 17371 bound_to 10713
  139.9742  135.0119  156.9589 LP  0  0  0  0  0  0  0  0  0  0  0  0  # atno 17394 bound_to 11000
  140.5241  134.0878  155.7299 LP  0  0  0  0  0  0  0  0  0  0  0  0  # atno 17395 bound_to 11000

$$$$
