AV-unprocessed.smi:2113|AV-procd|sdf|8616|dock6
  -GOLD-   2272011363D 1   1.00000     0.00000
 Structure written by MMmdl.
 44 45  0  0  0  0  0  0  0  0  1 V2000
  147.2498  143.3168  153.3089 C   0  0  0  0  0  0  0  0  0  0  0  0
  147.7202  141.9008  153.6483 C   0  0  0  0  0  0  0  0  0  0  0  0
  147.6386  141.1004  152.4749 O   0  0  0  0  0  0  0  0  0  0  0  0
  147.1434  139.7774  152.6663 C   0  0  1  0  0  0  0  0  0  0  0  0
  147.1274  139.0862  151.2949 C   0  0  0  0  0  0  0  0  0  0  0  0
  148.0241  139.0109  153.6657 C   0  0  0  0  0  0  0  0  0  0  0  0
  147.5693  138.6643  154.7562 O   0  0  0  0  0  0  0  0  0  0  0  0
  149.2820  138.7499  153.2771 N   0  0  0  0  0  0  0  0  0  0  0  0
  150.2783  138.0646  154.0925 C   0  0  0  0  0  0  0  0  0  0  0  0
  150.7506  138.8921  155.2763 C   0  0  0  0  0  0  0  0  0  0  0  0
  149.8488  139.3392  156.2624 C   0  0  0  0  0  0  0  0  0  0  0  0
  150.3399  140.0913  157.3462 C   0  0  0  0  0  0  0  0  0  0  0  0
  151.7239  140.3794  157.4157 C   0  0  0  0  0  0  0  0  0  0  0  0
  152.2403  141.1221  158.4992 N   0  0  0  0  0  0  0  0  0  0  0  0
  152.5313  140.3604  159.7110 C   0  0  0  0  0  0  0  0  0  0  0  0
  153.3706  141.2049  160.6855 C   0  0  0  0  0  0  0  0  0  0  0  0
  152.7086  142.4371  160.9506 O   0  0  0  0  0  0  0  0  0  0  0  0
  152.5381  143.2117  159.7682 C   0  0  0  0  0  0  0  0  0  0  0  0
  151.6650  142.4394  158.7651 C   0  0  0  0  0  0  0  0  0  0  0  0
  152.5871  139.9480  156.4626 N   0  0  0  0  0  0  0  0  0  0  0  0
  152.1108  139.2292  155.4243 C   0  0  0  0  0  0  0  0  0  0  0  0
  147.2939  143.9627  154.1858 H   0  0  0  0  0  0  0  0  0  0  0  0
  146.2207  143.3116  152.9486 H   0  0  0  0  0  0  0  0  0  0  0  0
  147.8742  143.7616  152.5340 H   0  0  0  0  0  0  0  0  0  0  0  0
  148.7418  141.9376  154.0276 H   0  0  0  0  0  0  0  0  0  0  0  0
  147.0905  141.4820  154.4342 H   0  0  0  0  0  0  0  0  0  0  0  0
  146.1175  139.8242  153.0372 H   0  0  0  0  0  0  0  0  0  0  0  0
  146.7737  138.0578  151.3736 H   0  0  0  0  0  0  0  0  0  0  0  0
  148.1201  139.0658  150.8432 H   0  0  0  0  0  0  0  0  0  0  0  0
  146.4647  139.6098  150.6058 H   0  0  0  0  0  0  0  0  0  0  0  0
  149.5725  139.0614  152.3618 H   0  0  0  0  0  0  0  0  0  0  0  0
  149.8848  137.1048  154.4320 H   0  0  0  0  0  0  0  0  0  0  0  0
  151.1400  137.8402  153.4636 H   0  0  0  0  0  0  0  0  0  0  0  0
  148.7964  139.1054  156.1953 H   0  0  0  0  0  0  0  0  0  0  0  0
  149.6573  140.4199  158.1155 H   0  0  0  0  0  0  0  0  0  0  0  0
  151.5893  140.0755  160.1812 H   0  0  0  0  0  0  0  0  0  0  0  0
  153.0670  139.4384  159.4904 H   0  0  0  0  0  0  0  0  0  0  0  0
  153.5085  140.6677  161.6239 H   0  0  0  0  0  0  0  0  0  0  0  0
  154.3651  141.3942  160.2779 H   0  0  0  0  0  0  0  0  0  0  0  0
  152.0632  144.1578  160.0277 H   0  0  0  0  0  0  0  0  0  0  0  0
  153.5101  143.4522  159.3340 H   0  0  0  0  0  0  0  0  0  0  0  0
  151.5861  143.0115  157.8398 H   0  0  0  0  0  0  0  0  0  0  0  0
  150.6562  142.3198  159.1628 H   0  0  0  0  0  0  0  0  0  0  0  0
  152.8408  138.9079  154.6963 H   0  0  0  0  0  0  0  0  0  0  0  0
  1  2  1  0  0  0  0
  1 22  1  0  0  0  0
  1 23  1  0  0  0  0
  1 24  1  0  0  0  0
  2  3  1  0  0  0  0
  2 25  1  0  0  0  0
  2 26  1  0  0  0  0
  3  4  1  0  0  0  0
  4  5  1  0  0  0  0
  4  6  1  0  0  0  0
  4 27  1  0  0  0  0
  5 28  1  0  0  0  0
  5 29  1  0  0  0  0
  5 30  1  0  0  0  0
  6  7  2  0  0  0  0
  6  8  1  0  0  0  0
  8  9  1  0  0  0  0
  8 31  1  0  0  0  0
  9 10  1  0  0  0  0
  9 32  1  0  0  0  0
  9 33  1  0  0  0  0
 10 21  1  0  0  0  0
 10 11  2  0  0  0  0
 11 12  1  0  0  0  0
 11 34  1  0  0  0  0
 12 13  2  0  0  0  0
 12 35  1  0  0  0  0
 13 14  1  0  0  0  0
 13 20  1  0  0  0  0
 14 19  1  0  0  0  0
 14 15  1  0  0  0  0
 15 16  1  0  0  0  0
 15 36  1  0  0  0  0
 15 37  1  0  0  0  0
 16 17  1  0  0  0  0
 16 38  1  0  0  0  0
 16 39  1  0  0  0  0
 17 18  1  0  0  0  0
 18 19  1  0  0  0  0
 18 40  1  0  0  0  0
 18 41  1  0  0  0  0
 19 42  1  0  0  0  0
 19 43  1  0  0  0  0
 20 21  2  0  0  0  0
 21 44  1  0  0  0  0
M  END
> <s_m_source_file>
AV-unprocessed.smi

> <i_m_source_file_index>
2113

> <i_lp_mmshare_version>
43012

> <i_f3d_flags>
0

> <s_epik_input>
W0NIM11bQ0gyXU9bQ0BIXShbQ0gzXSlDKD1PKVtOSF1bQ0gyXWMxW2NIXVtjSF1jKG5bY0hdMSlOMltDSDJdW0NIMl1PW0NIMl1bQ0gyXTI=

> <s_epik_cmdline>
J2VwaWtfcHl0aG9uJywgJy1waCcsICc3LjAnLCAnLXRuJywgJzgnLCAnLW1hJywgJzIwMCcsICctbWV0YWxfYmluZGluZycsICctaW1hZScsICc8aW5maWxlLm1hZT4nLCAnLW9tYWUnLCAnPG91dGZpbGUubWFlPic=

> <r_lp_tautomer_probability>
1

> <r_epik_Ionization_Penalty>
0.00454344

> <r_epik_Ionization_Penalty_Charging>
0

> <r_epik_Ionization_Penalty_Neutral>
0.00454344

> <r_epik_State_Penalty>
0.00328127

> <r_epik_Charging_Adjusted_Penalty>
0.00328127

> <i_epik_Tot_Q>
0

> <i_epik_Tot_abs_Q>
0

> <r_epik_Metal_State_Penalty>
-0

> <b_epik_Metal_Only>
0

> <s_lp_Force_Field>
OPLS_2005

> <r_lp_Energy>
17.3963

> <b_lp_Chiralities_Consistent>
1

> <s_lp_Variant>
AV-unprocessed.smi:2113-2

> <Gold.Version>
5.8.1

> <Gold.Id.Protein>
6NUR|6NUR_protein|mol2

> <Gold.PLP.Fitness>
43.8122

> <Gold.PLP.PLP>
-38.9343

> <Gold.PLP.part.hbond>
-3.0000

> <Gold.PLP.part.metal>
0.0000

> <Gold.PLP.part.buried>
-1.7546

> <Gold.PLP.part.nonpolar>
-34.6688

> <Gold.PLP.part.repulsive>
0.3541

> <Gold.PLP.ligand.clash>
0.0000

> <Gold.PLP.ligand.torsion>
0.7659

> <Gold.PLP.Chemscore.Hbond>
2.0000

> <Gold.PLP.Chemscore.CHOScore>
0.0000

> <Gold.PLP.Chemscore.Metal>
0.0000

> <Gold.Chemscore.Hbonds>
donor molecule, donor type, donor heavy atom, donor atom, acceptor molecule, acceptor atom, score
      L1  H     8    31       P1  7957  1.00
      P1  H  7997  8009       L1    20  1.00

> <Gold.PLP.Chemscore.Internal.Correction>
0.4098

> <Gold.Rescore>
     Score         DG    S(hbond)    S(metal)    S(lipo)     H(rot)  DE(clash)    DE(int)     intcor
     17.12     -18.21       1.92        0.00      95.36       1.90       0.35       0.74       ----

> <Gold.Chemscore.Fitness>
17.1164

> <Gold.Chemscore.DG>
-18.2117

> <Gold.Chemscore.ZeroCoef>
-5.4800

> <Gold.Chemscore.Hbond>
1.9239

> <Gold.Chemscore.Metal>
0.0000

> <Gold.Chemscore.Lipo>
95.3635

> <Gold.Chemscore.Internal_Hbond>
0.0000

> <Gold.Chemscore.DEClash>
0.3517

> <Gold.Chemscore.DEInternal>
0.7436

> <Gold.Chemscore.Rot>
1.8952

> <Gold.Chemscore.Internal.Correction>
   9.000000E+99

> <Gold.Chemscore.Hbonds>
donor molecule, donor type, donor heavy atom, donor atom, acceptor molecule, acceptor atom, score
      L1  H     8    31       P1  7957  0.79
      P1  H  7997  8009       L1    20  0.91

> <Gold.Chemscore.Hbond.Weighted>
-6.4257

> <Gold.Chemscore.Metal.Weighted>
-0.0000

> <Gold.Chemscore.Lipo.Weighted>
-11.1575

> <Gold.Chemscore.Internal_Hbond.Weighted>
0.0000

> <Gold.Chemscore.DEClash.Weighted>
0.3517

> <Gold.Chemscore.DEInternal.Weighted>
0.7436

> <Gold.Chemscore.Rot.Weighted>
4.8516

> <Gold.Chemscore.Internal.Correction.Weighted>
   9.000000E+99

> <Gold.Protein.RotatedTorsions>
[ 6907 6896 6895 6894 ] final  167.50 input  -60.11 | X-H torsion
[ 7974 7965 7964 7962 ] final -102.77 input  175.53 | X-H torsion
[ 8008 7997 7996 7995 ] final -177.11 input   59.86 | X-H torsion
[ 10167 10162 10161 10158 ] final  117.03 input  -65.29 | X-H torsion
[ 10718 10713 10712 10709 ] final -125.57 input   66.30 | X-H torsion
[ 10763 10752 10751 10750 ] final   39.59 input  -60.55 | X-H torsion
[ 11005 11000 10999 10996 ] final   45.38 input  -57.11 | X-H torsion

> <Gold.Protein.ActiveResidues>
 VAL166  LYS551  ARG553  GLY616  TRP617  ASP618  TYR619  PRO620  LYS621  CYS622 
 ASP623  PHE694  ASN695  SER759  ASP760  ASP761  ALA762  ILE779  LEU786  VAL792 
 PHE793  MET794  SER795  GLU796  ALA797  LYS798  CYS799  TRP800  GLU811  SER814 

> <Gold.Protein.RotatedAtoms>
  151.8624  133.3459  159.3707 H   0  0  0  0  0  0  0  0  0  0  0  0  # atno 6907 bound_to 6896
  150.7175  134.5193  159.5655 H   0  0  0  0  0  0  0  0  0  0  0  0  # atno 6908 bound_to 6896
  152.2709  134.7934  160.0465 H   0  0  0  0  0  0  0  0  0  0  0  0  # atno 6909 bound_to 6896
  145.2645  140.9279  143.3022 H   0  0  0  0  0  0  0  0  0  0  0  0  # atno 7974 bound_to 7965
  156.0030  140.1224  157.0529 H   0  0  0  0  0  0  0  0  0  0  0  0  # atno 8008 bound_to 7997
  154.4249  140.1103  156.5792 H   0  0  0  0  0  0  0  0  0  0  0  0  # atno 8009 bound_to 7997
  155.6186  140.3472  155.4647 H   0  0  0  0  0  0  0  0  0  0  0  0  # atno 8010 bound_to 7997
  139.6206  144.7100  151.2642 H   0  0  0  0  0  0  0  0  0  0  0  0  # atno 10167 bound_to 10162
  156.1687  130.6652  151.0150 H   0  0  0  0  0  0  0  0  0  0  0  0  # atno 10718 bound_to 10713
  152.9962  135.6216  154.2490 H   0  0  0  0  0  0  0  0  0  0  0  0  # atno 10763 bound_to 10752
  154.2229  135.2795  155.2920 H   0  0  0  0  0  0  0  0  0  0  0  0  # atno 10764 bound_to 10752
  154.5513  135.5732  153.6983 H   0  0  0  0  0  0  0  0  0  0  0  0  # atno 10765 bound_to 10752
  140.1465  134.4516  155.8412 H   0  0  0  0  0  0  0  0  0  0  0  0  # atno 11005 bound_to 11000
  144.9389  139.4211  143.6458 LP  0  0  0  0  0  0  0  0  0  0  0  0  # atno 17320 bound_to 7965
  146.3265  139.8339  142.8903 LP  0  0  0  0  0  0  0  0  0  0  0  0  # atno 17321 bound_to 7965
  140.7380  143.6662  150.8121 LP  0  0  0  0  0  0  0  0  0  0  0  0  # atno 17342 bound_to 10162
  140.0272  143.5481  152.2775 LP  0  0  0  0  0  0  0  0  0  0  0  0  # atno 17343 bound_to 10162
  157.6787  131.0844  150.7427 LP  0  0  0  0  0  0  0  0  0  0  0  0  # atno 17370 bound_to 10713
  156.7487  130.4762  149.5461 LP  0  0  0  0  0  0  0  0  0  0  0  0  # atno 17371 bound_to 10713
  141.2193  133.6854  156.7343 LP  0  0  0  0  0  0  0  0  0  0  0  0  # atno 17394 bound_to 11000
  140.2657  134.8432  157.3800 LP  0  0  0  0  0  0  0  0  0  0  0  0  # atno 17395 bound_to 11000

$$$$
