AV-unprocessed.smi:781|AV-procd|sdf|3711|dock2
  -GOLD-   22720 1133D 1   1.00000     0.00000
 Structure written by MMmdl.
 38 40  0  0  0  0  0  0  0  0  1 V2000
  152.3774  136.1164  157.2582 C   0  0  0  0  0  0  0  0  0  0  0  0
  151.2139  135.5142  156.5477 C   0  0  0  0  0  0  0  0  0  0  0  0
  150.6272  135.7714  155.3406 C   0  0  0  0  0  0  0  0  0  0  0  0
  149.5676  134.8268  155.2921 C   0  0  0  0  0  0  0  0  0  0  0  0
  148.6983  134.7657  154.1734 N   0  0  0  0  0  0  0  0  0  0  0  0
  147.5963  134.0098  154.0322 C   0  0  0  0  0  0  0  0  0  0  0  0
  147.1642  133.2208  154.8730 O   0  0  0  0  0  0  0  0  0  0  0  0
  147.0066  134.2275  152.8477 N   0  0  0  0  0  0  0  0  0  0  0  0
  145.7892  133.5674  152.3733 C   0  0  2  0  0  0  0  0  0  0  0  0
  146.1434  132.2496  151.6502 C   0  0  1  0  0  0  0  0  0  0  0  0
  144.8716  131.3929  151.5148 C   0  0  0  0  0  0  0  0  0  0  0  0
  144.0657  132.1591  150.4484 C   0  0  0  0  0  0  0  0  0  0  0  0
  144.9865  133.3487  150.1097 C   0  0  2  0  0  0  0  0  0  0  0  0
  146.3631  132.7044  150.2124 C   0  0  0  0  0  0  0  0  0  0  0  0
  144.9872  134.3518  151.2899 C   0  0  2  0  0  0  0  0  0  0  0  0
  145.5379  135.7449  150.9075 C   0  0  0  0  0  0  0  0  0  0  0  0
  144.9634  136.1889  149.6967 O   0  0  0  0  0  0  0  0  0  0  0  0
  149.5113  134.0632  156.3727 N   0  0  0  0  0  0  0  0  0  0  0  0
  150.5662  134.4999  157.1829 O   0  0  0  0  0  0  0  0  0  0  0  0
  153.0149  136.6651  156.5647 H   0  0  0  0  0  0  0  0  0  0  0  0
  152.9833  135.3460  157.7352 H   0  0  0  0  0  0  0  0  0  0  0  0
  152.0415  136.8095  158.0296 H   0  0  0  0  0  0  0  0  0  0  0  0
  150.9126  136.5158  154.6123 H   0  0  0  0  0  0  0  0  0  0  0  0
  148.9377  135.3680  153.4000 H   0  0  0  0  0  0  0  0  0  0  0  0
  147.4308  134.8959  152.2212 H   0  0  0  0  0  0  0  0  0  0  0  0
  145.1506  133.3496  153.2318 H   0  0  0  0  0  0  0  0  0  0  0  0
  146.9789  131.7080  152.0960 H   0  0  0  0  0  0  0  0  0  0  0  0
  145.1152  130.3896  151.1627 H   0  0  0  0  0  0  0  0  0  0  0  0
  144.3315  131.2937  152.4569 H   0  0  0  0  0  0  0  0  0  0  0  0
  143.9030  131.5328  149.5703 H   0  0  0  0  0  0  0  0  0  0  0  0
  143.0893  132.4790  150.8139 H   0  0  0  0  0  0  0  0  0  0  0  0
  144.7630  133.7969  149.1412 H   0  0  0  0  0  0  0  0  0  0  0  0
  147.1879  133.4094  150.0997 H   0  0  0  0  0  0  0  0  0  0  0  0
  146.5062  131.8774  149.5145 H   0  0  0  0  0  0  0  0  0  0  0  0
  143.9660  134.4959  151.6468 H   0  0  0  0  0  0  0  0  0  0  0  0
  145.2897  136.4781  151.6750 H   0  0  0  0  0  0  0  0  0  0  0  0
  146.6230  135.7347  150.8045 H   0  0  0  0  0  0  0  0  0  0  0  0
  144.7060  137.0922  149.7996 H   0  0  0  0  0  0  0  0  0  0  0  0
  1  2  1  0  0  0  0
  1 20  1  0  0  0  0
  1 21  1  0  0  0  0
  1 22  1  0  0  0  0
  2 19  1  0  0  0  0
  2  3  2  0  0  0  0
  3  4  1  0  0  0  0
  3 23  1  0  0  0  0
  4  5  1  0  0  0  0
  4 18  2  0  0  0  0
  5  6  1  0  0  0  0
  5 24  1  0  0  0  0
  6  7  2  0  0  0  0
  6  8  1  0  0  0  0
  8  9  1  0  0  0  0
  8 25  1  0  0  0  0
  9 15  1  0  0  0  0
  9 10  1  0  0  0  0
  9 26  1  0  0  0  0
 10 14  1  0  0  0  0
 10 11  1  0  0  0  0
 10 27  1  0  0  0  0
 11 12  1  0  0  0  0
 11 28  1  0  0  0  0
 11 29  1  0  0  0  0
 12 13  1  0  0  0  0
 12 30  1  0  0  0  0
 12 31  1  0  0  0  0
 13 14  1  0  0  0  0
 13 15  1  0  0  0  0
 13 32  1  0  0  0  0
 14 33  1  0  0  0  0
 14 34  1  0  0  0  0
 15 16  1  0  0  0  0
 15 35  1  0  0  0  0
 16 17  1  0  0  0  0
 16 36  1  0  0  0  0
 16 37  1  0  0  0  0
 17 38  1  0  0  0  0
 18 19  1  0  0  0  0
M  END
> <s_m_source_file>
AV-unprocessed.smi

> <i_m_source_file_index>
781

> <i_lp_mmshare_version>
43012

> <i_f3d_flags>
0

> <s_epik_input>
W0NIM11jMVtjSF1jKG5vMSlbTkhdQyg9TylbTkhdW0NASF0oW0NAQEhdMjMpW0NASF0oW0NIMl1bT0hdKVtDQEBIXShbQ0gyXTMpW0NIMl1bQ0gyXTI=

> <s_epik_cmdline>
J2VwaWtfcHl0aG9uJywgJy1waCcsICc3LjAnLCAnLXRuJywgJzgnLCAnLW1hJywgJzIwMCcsICctbWV0YWxfYmluZGluZycsICctaW1hZScsICc8aW5maWxlLm1hZT4nLCAnLW9tYWUnLCAnPG91dGZpbGUubWFlPic=

> <r_lp_tautomer_probability>
1

> <r_epik_Ionization_Penalty>
2.32222e-05

> <r_epik_Ionization_Penalty_Charging>
0

> <r_epik_Ionization_Penalty_Neutral>
2.32222e-05

> <r_epik_State_Penalty>
-0

> <r_epik_Charging_Adjusted_Penalty>
0

> <i_epik_Tot_Q>
0

> <i_epik_Tot_abs_Q>
0

> <r_epik_Metal_State_Penalty>
-0

> <b_epik_Metal_Only>
0

> <s_lp_Force_Field>
OPLS_2005

> <r_lp_Energy>
47.5532

> <b_lp_Chiralities_Consistent>
1

> <s_lp_Variant>
AV-unprocessed.smi:781-5

> <Gold.Version>
5.8.1

> <Gold.Id.Protein>
6NUR|6NUR_protein|mol2

> <Gold.PLP.Fitness>
41.3976

> <Gold.PLP.PLP>
-32.4888

> <Gold.PLP.part.hbond>
-5.0000

> <Gold.PLP.part.metal>
0.0000

> <Gold.PLP.part.buried>
-3.7997

> <Gold.PLP.part.nonpolar>
-23.2905

> <Gold.PLP.part.repulsive>
0.0300

> <Gold.PLP.ligand.clash>
0.0000

> <Gold.PLP.ligand.torsion>
0.4660

> <Gold.PLP.Chemscore.Hbond>
3.2766

> <Gold.PLP.Chemscore.CHOScore>
0.0000

> <Gold.PLP.Chemscore.Metal>
0.0000

> <Gold.Chemscore.Hbonds>
donor molecule, donor type, donor heavy atom, donor atom, acceptor molecule, acceptor atom, score
      L1  H     5    24       P1  7948  1.00
      L1  H     8    25       P1  7948  0.98
      L1  H    17    38       P1 10171  1.00
      P1  H  6896  6908       L1    19  0.35

> <Gold.PLP.Chemscore.Internal.Correction>
0.0112

> <Gold.Rescore>
     Score         DG    S(hbond)    S(metal)    S(lipo)     H(rot)  DE(clash)    DE(int)     intcor
     18.17     -19.98       3.36        0.00      68.60       1.86       0.10       1.71       ----

> <Gold.Chemscore.Fitness>
18.1667

> <Gold.Chemscore.DG>
-19.9766

> <Gold.Chemscore.ZeroCoef>
-5.4800

> <Gold.Chemscore.Hbond>
3.3619

> <Gold.Chemscore.Metal>
0.0000

> <Gold.Chemscore.Lipo>
68.6005

> <Gold.Chemscore.Internal_Hbond>
0.0000

> <Gold.Chemscore.DEClash>
0.1044

> <Gold.Chemscore.DEInternal>
1.7055

> <Gold.Chemscore.Rot>
1.8587

> <Gold.Chemscore.Internal.Correction>
   9.000000E+99

> <Gold.Chemscore.Hbonds>
donor molecule, donor type, donor heavy atom, donor atom, acceptor molecule, acceptor atom, score
      L1  H     5    24       P1  7948  0.65
      L1  H     8    25       P1  7948  0.83
      L1  H    17    38       P1 10171  1.00
      P1  H  6896  6908       L1    19  0.35

> <Gold.Chemscore.Hbond.Weighted>
-11.2287

> <Gold.Chemscore.Metal.Weighted>
-0.0000

> <Gold.Chemscore.Lipo.Weighted>
-8.0263

> <Gold.Chemscore.Internal_Hbond.Weighted>
0.0000

> <Gold.Chemscore.DEClash.Weighted>
0.1044

> <Gold.Chemscore.DEInternal.Weighted>
1.7055

> <Gold.Chemscore.Rot.Weighted>
4.7583

> <Gold.Chemscore.Internal.Correction.Weighted>
   9.000000E+99

> <Gold.Protein.RotatedTorsions>
[ 6907 6896 6895 6894 ] final  124.24 input  -60.11 | X-H torsion
[ 7974 7965 7964 7962 ] final  130.89 input  175.53 | X-H torsion
[ 8008 7997 7996 7995 ] final   -1.96 input   59.86 | X-H torsion
[ 10167 10162 10161 10158 ] final  117.29 input  -65.29 | X-H torsion
[ 10718 10713 10712 10709 ] final  -43.65 input   66.30 | X-H torsion
[ 10763 10752 10751 10750 ] final -104.47 input  -60.55 | X-H torsion
[ 11005 11000 10999 10996 ] final  -26.88 input  -57.11 | X-H torsion

> <Gold.Protein.ActiveResidues>
 VAL166  LYS551  ARG553  GLY616  TRP617  ASP618  TYR619  PRO620  LYS621  CYS622 
 ASP623  PHE694  ASN695  SER759  ASP760  ASP761  ALA762  ILE779  LEU786  VAL792 
 PHE793  MET794  SER795  GLU796  ALA797  LYS798  CYS799  TRP800  GLU811  SER814 

> <Gold.Protein.RotatedAtoms>
  152.4094  133.6940  159.6384 H   0  0  0  0  0  0  0  0  0  0  0  0  # atno 6907 bound_to 6896
  150.7976  133.8650  159.3251 H   0  0  0  0  0  0  0  0  0  0  0  0  # atno 6908 bound_to 6896
  151.6396  135.1016  160.0190 H   0  0  0  0  0  0  0  0  0  0  0  0  # atno 6909 bound_to 6896
  145.0131  139.4201  143.5235 H   0  0  0  0  0  0  0  0  0  0  0  0  # atno 7974 bound_to 7965
  154.6410  140.2546  155.7322 H   0  0  0  0  0  0  0  0  0  0  0  0  # atno 8008 bound_to 7997
  156.2529  140.2887  156.0724 H   0  0  0  0  0  0  0  0  0  0  0  0  # atno 8009 bound_to 7997
  155.1596  140.0384  157.2830 H   0  0  0  0  0  0  0  0  0  0  0  0  # atno 8010 bound_to 7997
  139.6189  144.7097  151.2679 H   0  0  0  0  0  0  0  0  0  0  0  0  # atno 10167 bound_to 10162
  156.2467  130.4184  149.8697 H   0  0  0  0  0  0  0  0  0  0  0  0  # atno 10718 bound_to 10713
  154.7880  135.4785  153.9989 H   0  0  0  0  0  0  0  0  0  0  0  0  # atno 10763 bound_to 10752
  153.1589  135.6805  153.8779 H   0  0  0  0  0  0  0  0  0  0  0  0  # atno 10764 bound_to 10752
  153.8399  135.3180  155.3403 H   0  0  0  0  0  0  0  0  0  0  0  0  # atno 10765 bound_to 10752
  140.9069  133.7487  156.0618 H   0  0  0  0  0  0  0  0  0  0  0  0  # atno 11005 bound_to 11000
  146.3473  139.9586  142.8720 LP  0  0  0  0  0  0  0  0  0  0  0  0  # atno 17320 bound_to 7965
  145.1996  140.9848  143.4163 LP  0  0  0  0  0  0  0  0  0  0  0  0  # atno 17321 bound_to 7965
  140.7369  143.6694  150.8094 LP  0  0  0  0  0  0  0  0  0  0  0  0  # atno 17342 bound_to 10162
  140.0302  143.5452  152.2763 LP  0  0  0  0  0  0  0  0  0  0  0  0  # atno 17343 bound_to 10162
  156.6259  130.8646  151.3485 LP  0  0  0  0  0  0  0  0  0  0  0  0  # atno 17370 bound_to 10713
  157.7198  130.9543  150.1393 LP  0  0  0  0  0  0  0  0  0  0  0  0  # atno 17371 bound_to 10713
  140.8160  134.3344  157.5397 LP  0  0  0  0  0  0  0  0  0  0  0  0  # atno 17394 bound_to 11000
  139.8751  134.9282  156.3444 LP  0  0  0  0  0  0  0  0  0  0  0  0  # atno 17395 bound_to 11000

$$$$
