AV-unprocessed.smi:2821|AV-procd|sdf|10859|dock1
  -GOLD-   2272015303D 1   1.00000     0.00000
 Structure written by MMmdl.
 36 37  0  0  0  0  0  0  0  0  1 V2000
  153.0804  137.2226  158.5826 C   0  0  0  0  0  0  0  0  0  0  0  0
  154.0296  137.1965  157.3826 C   0  0  0  0  0  0  0  0  0  0  0  0
  153.2709  137.3971  156.1939 O   0  0  0  0  0  0  0  0  0  0  0  0
  152.5468  138.5648  156.0713 C   0  0  0  0  0  0  0  0  0  0  0  0
  151.7624  138.7807  154.9181 C   0  0  0  0  0  0  0  0  0  0  0  0
  151.0245  139.9008  154.7548 N   0  0  0  0  0  0  0  0  0  0  0  0
  151.0707  140.8074  155.7558 C   0  0  0  0  0  0  0  0  0  0  0  0
  151.8488  140.6043  156.9167 C   0  0  0  0  0  0  0  0  0  0  0  0
  151.8457  141.5797  157.9243 N   0  0  0  0  0  0  0  0  0  0  0  0
  152.3137  141.2916  159.2796 C   0  0  1  0  0  0  0  0  0  0  0  0
  153.7468  140.7426  159.2247 C   0  0  0  0  0  0  0  0  0  0  0  0
  152.2223  142.5212  160.2179 C   0  0  1  0  0  0  0  0  0  0  0  0
  153.0957  143.7303  159.8341 C   0  0  0  0  0  0  0  0  0  0  0  0
  152.0849  144.8159  159.5189 C   0  0  0  0  0  0  0  0  0  0  0  0
  150.9034  144.4177  160.3913 C   0  0  0  0  0  0  0  0  0  0  0  0
  150.8825  143.0042  160.2833 O   0  0  0  0  0  0  0  0  0  0  0  0
  152.5960  139.4850  157.0668 N   0  0  0  0  0  0  0  0  0  0  0  0
  153.6258  137.0671  159.5135 H   0  0  0  0  0  0  0  0  0  0  0  0
  152.3259  136.4399  158.5018 H   0  0  0  0  0  0  0  0  0  0  0  0
  152.5648  138.1806  158.6528 H   0  0  0  0  0  0  0  0  0  0  0  0
  154.7800  137.9814  157.4941 H   0  0  0  0  0  0  0  0  0  0  0  0
  154.5475  136.2367  157.3453 H   0  0  0  0  0  0  0  0  0  0  0  0
  151.7241  138.0492  154.1245 H   0  0  0  0  0  0  0  0  0  0  0  0
  150.4754  141.7001  155.6297 H   0  0  0  0  0  0  0  0  0  0  0  0
  151.2630  142.3941  157.7959 H   0  0  0  0  0  0  0  0  0  0  0  0
  151.6978  140.4966  159.7013 H   0  0  0  0  0  0  0  0  0  0  0  0
  154.1031  140.4757  160.2200 H   0  0  0  0  0  0  0  0  0  0  0  0
  154.4420  141.4722  158.8081 H   0  0  0  0  0  0  0  0  0  0  0  0
  153.7988  139.8447  158.6080 H   0  0  0  0  0  0  0  0  0  0  0  0
  152.4851  142.2114  161.2304 H   0  0  0  0  0  0  0  0  0  0  0  0
  153.7048  144.0281  160.6885 H   0  0  0  0  0  0  0  0  0  0  0  0
  153.7722  143.5429  159.0002 H   0  0  0  0  0  0  0  0  0  0  0  0
  152.4534  145.8200  159.7297 H   0  0  0  0  0  0  0  0  0  0  0  0
  151.8010  144.7688  158.4667 H   0  0  0  0  0  0  0  0  0  0  0  0
  151.0728  144.7017  161.4311 H   0  0  0  0  0  0  0  0  0  0  0  0
  149.9636  144.8590  160.0589 H   0  0  0  0  0  0  0  0  0  0  0  0
  1  2  1  0  0  0  0
  1 18  1  0  0  0  0
  1 19  1  0  0  0  0
  1 20  1  0  0  0  0
  2  3  1  0  0  0  0
  2 21  1  0  0  0  0
  2 22  1  0  0  0  0
  3  4  1  0  0  0  0
  4 17  1  0  0  0  0
  4  5  2  0  0  0  0
  5  6  1  0  0  0  0
  5 23  1  0  0  0  0
  6  7  2  0  0  0  0
  7  8  1  0  0  0  0
  7 24  1  0  0  0  0
  8  9  1  0  0  0  0
  8 17  2  0  0  0  0
  9 10  1  0  0  0  0
  9 25  1  0  0  0  0
 10 11  1  0  0  0  0
 10 12  1  0  0  0  0
 10 26  1  0  0  0  0
 11 27  1  0  0  0  0
 11 28  1  0  0  0  0
 11 29  1  0  0  0  0
 12 16  1  0  0  0  0
 12 13  1  0  0  0  0
 12 30  1  0  0  0  0
 13 14  1  0  0  0  0
 13 31  1  0  0  0  0
 13 32  1  0  0  0  0
 14 15  1  0  0  0  0
 14 33  1  0  0  0  0
 14 34  1  0  0  0  0
 15 16  1  0  0  0  0
 15 35  1  0  0  0  0
 15 36  1  0  0  0  0
M  END
> <s_m_source_file>
AV-unprocessed.smi

> <i_m_source_file_index>
2821

> <i_lp_mmshare_version>
43012

> <i_f3d_flags>
0

> <s_epik_input>
W0NIM11bQ0gyXU9jMVtjSF1uW2NIXWMobjEpW05IXVtDQEhdKFtDSDNdKVtDQEBIXTJbQ0gyXVtDSDJdW0NIMl1PMg==

> <s_epik_cmdline>
J2VwaWtfcHl0aG9uJywgJy1waCcsICc3LjAnLCAnLXRuJywgJzgnLCAnLW1hJywgJzIwMCcsICctbWV0YWxfYmluZGluZycsICctaW1hZScsICc8aW5maWxlLm1hZT4nLCAnLW9tYWUnLCAnPG91dGZpbGUubWFlPic=

> <r_lp_tautomer_probability>
1

> <r_epik_Ionization_Penalty>
4.69533e-05

> <r_epik_Ionization_Penalty_Charging>
0

> <r_epik_Ionization_Penalty_Neutral>
4.69533e-05

> <r_epik_State_Penalty>
-0

> <r_epik_Charging_Adjusted_Penalty>
0

> <i_epik_Tot_Q>
0

> <i_epik_Tot_abs_Q>
0

> <r_epik_Metal_State_Penalty>
-0

> <b_epik_Metal_Only>
0

> <s_lp_Force_Field>
OPLS_2005

> <r_lp_Energy>
30.0608

> <b_lp_Chiralities_Consistent>
1

> <s_lp_Variant>
AV-unprocessed.smi:2821-4

> <Gold.Version>
5.8.1

> <Gold.Id.Protein>
6NUR|6NUR_protein|mol2

> <Gold.PLP.Fitness>
39.7599

> <Gold.PLP.PLP>
-32.9299

> <Gold.PLP.part.hbond>
-4.0000

> <Gold.PLP.part.metal>
0.0000

> <Gold.PLP.part.buried>
-4.1831

> <Gold.PLP.part.nonpolar>
-24.1883

> <Gold.PLP.part.repulsive>
0.1989

> <Gold.PLP.ligand.clash>
0.0000

> <Gold.PLP.ligand.torsion>
0.0815

> <Gold.PLP.Chemscore.Hbond>
2.3140

> <Gold.PLP.Chemscore.CHOScore>
0.0000

> <Gold.PLP.Chemscore.Metal>
0.0000

> <Gold.Chemscore.Hbonds>
donor molecule, donor type, donor heavy atom, donor atom, acceptor molecule, acceptor atom, score
      P1  H  7989  7998       L1     6  0.95
      P1  H  7997  8008       L1    17  0.99
      P1  H 10752 10765       L1     3  0.35

> <Gold.PLP.Chemscore.Internal.Correction>
0.0511

> <Gold.Rescore>
     Score         DG    S(hbond)    S(metal)    S(lipo)     H(rot)  DE(clash)    DE(int)     intcor
     11.25     -14.24       0.83        0.00      85.20       1.55       0.17       2.81       ----

> <Gold.Chemscore.Fitness>
11.2528

> <Gold.Chemscore.DG>
-14.2377

> <Gold.Chemscore.ZeroCoef>
-5.4800

> <Gold.Chemscore.Hbond>
0.8267

> <Gold.Chemscore.Metal>
0.0000

> <Gold.Chemscore.Lipo>
85.1961

> <Gold.Chemscore.Internal_Hbond>
0.0000

> <Gold.Chemscore.DEClash>
0.1711

> <Gold.Chemscore.DEInternal>
2.8138

> <Gold.Chemscore.Rot>
1.5514

> <Gold.Chemscore.Internal.Correction>
   9.000000E+99

> <Gold.Chemscore.Hbonds>
donor molecule, donor type, donor heavy atom, donor atom, acceptor molecule, acceptor atom, score
      P1  H  7989  7998       L1     6  0.17
      P1  H  7997  8008       L1    17  0.14
      P1  H 10752 10765       L1     3  0.10

> <Gold.Chemscore.Hbond.Weighted>
-2.7612

> <Gold.Chemscore.Metal.Weighted>
-0.0000

> <Gold.Chemscore.Lipo.Weighted>
-9.9679

> <Gold.Chemscore.Internal_Hbond.Weighted>
0.0000

> <Gold.Chemscore.DEClash.Weighted>
0.1711

> <Gold.Chemscore.DEInternal.Weighted>
2.8138

> <Gold.Chemscore.Rot.Weighted>
3.9715

> <Gold.Chemscore.Internal.Correction.Weighted>
   9.000000E+99

> <Gold.Protein.RotatedTorsions>
[ 6907 6896 6895 6894 ] final  139.76 input  -60.11 | X-H torsion
[ 7974 7965 7964 7962 ] final -144.30 input  175.53 | X-H torsion
[ 8008 7997 7996 7995 ] final  -80.72 input   59.86 | X-H torsion
[ 10167 10162 10161 10158 ] final  160.11 input  -65.29 | X-H torsion
[ 10718 10713 10712 10709 ] final  147.65 input   66.30 | X-H torsion
[ 10763 10752 10751 10750 ] final -130.13 input  -60.55 | X-H torsion
[ 11005 11000 10999 10996 ] final   -5.32 input  -57.11 | X-H torsion

> <Gold.Protein.ActiveResidues>
 VAL166  LYS551  ARG553  GLY616  TRP617  ASP618  TYR619  PRO620  LYS621  CYS622 
 ASP623  PHE694  ASN695  SER759  ASP760  ASP761  ALA762  ILE779  LEU786  VAL792 
 PHE793  MET794  SER795  GLU796  ALA797  LYS798  CYS799  TRP800  GLU811  SER814 

> <Gold.Protein.RotatedAtoms>
  152.2511  133.5216  159.5325 H   0  0  0  0  0  0  0  0  0  0  0  0  # atno 6907 bound_to 6896
  150.7094  134.0958  159.3957 H   0  0  0  0  0  0  0  0  0  0  0  0  # atno 6908 bound_to 6896
  151.8878  135.0428  160.0545 H   0  0  0  0  0  0  0  0  0  0  0  0  # atno 6909 bound_to 6896
  144.8308  140.5727  143.5517 H   0  0  0  0  0  0  0  0  0  0  0  0  # atno 7974 bound_to 7965
  154.5911  140.0658  156.9239 H   0  0  0  0  0  0  0  0  0  0  0  0  # atno 8008 bound_to 7997
  155.2294  140.3336  155.4287 H   0  0  0  0  0  0  0  0  0  0  0  0  # atno 8009 bound_to 7997
  156.2256  140.1818  156.7355 H   0  0  0  0  0  0  0  0  0  0  0  0  # atno 8010 bound_to 7997
  139.4837  144.4665  151.8634 H   0  0  0  0  0  0  0  0  0  0  0  0  # atno 10167 bound_to 10162
  157.3184  131.0900  151.1261 H   0  0  0  0  0  0  0  0  0  0  0  0  # atno 10718 bound_to 10713
  154.8756  135.3872  154.4033 H   0  0  0  0  0  0  0  0  0  0  0  0  # atno 10763 bound_to 10752
  153.4755  135.7030  153.5973 H   0  0  0  0  0  0  0  0  0  0  0  0  # atno 10764 bound_to 10752
  153.4412  135.3855  155.2197 H   0  0  0  0  0  0  0  0  0  0  0  0  # atno 10765 bound_to 10752
  140.6898  133.9081  155.8611 H   0  0  0  0  0  0  0  0  0  0  0  0  # atno 11005 bound_to 11000
  145.4901  139.1489  143.3714 LP  0  0  0  0  0  0  0  0  0  0  0  0  # atno 17320 bound_to 7965
  146.2610  140.5039  142.8853 LP  0  0  0  0  0  0  0  0  0  0  0  0  # atno 17321 bound_to 7965
  140.4131  144.2342  150.5888 LP  0  0  0  0  0  0  0  0  0  0  0  0  # atno 17342 bound_to 10162
  140.4947  143.2336  151.8767 LP  0  0  0  0  0  0  0  0  0  0  0  0  # atno 17343 bound_to 10162
  157.2555  130.6634  149.5951 LP  0  0  0  0  0  0  0  0  0  0  0  0  # atno 17370 bound_to 10713
  155.9683  130.4525  150.5775 LP  0  0  0  0  0  0  0  0  0  0  0  0  # atno 17371 bound_to 10713
  141.0250  134.0836  157.4078 LP  0  0  0  0  0  0  0  0  0  0  0  0  # atno 17394 bound_to 11000
  139.8927  135.0126  156.6858 LP  0  0  0  0  0  0  0  0  0  0  0  0  # atno 17395 bound_to 11000

$$$$
