AV-unprocessed.smi:2829|AV-procd|sdf|10900|dock5
  -GOLD-   2272015343D 1   1.00000     0.00000
 Structure written by MMmdl.
 50 53  0  0  0  0  0  0  0  0  1 V2000
  144.2715  132.9416  148.7536 C   0  0  0  0  0  0  0  0  0  0  0  0
  144.7839  132.8207  150.2038 C   0  0  0  0  0  0  0  0  0  0  0  0
  143.8843  131.8516  150.9989 C   0  0  0  0  0  0  0  0  0  0  0  0
  146.1983  132.2001  150.1459 C   0  0  0  0  0  0  0  0  0  0  0  0
  144.7756  134.2062  150.8743 C   0  0  0  0  0  0  0  0  0  0  0  0
  144.4434  135.3963  150.1884 C   0  0  0  0  0  0  0  0  0  0  0  0
  144.4684  136.5987  150.9147 C   0  0  0  0  0  0  0  0  0  0  0  0
  144.8209  136.5525  152.2783 C   0  0  0  0  0  0  0  0  0  0  0  0
  144.8138  137.8022  152.9490 N   0  0  0  0  0  0  0  0  0  0  0  0
  145.2169  138.0786  154.2047 C   0  0  0  0  0  0  0  0  0  0  0  0
  145.7609  137.2753  154.9600 O   0  0  0  0  0  0  0  0  0  0  0  0
  144.9778  139.3452  154.5882 N   0  0  0  0  0  0  0  0  0  0  0  0
  145.2925  139.9563  155.8804 C   0  0  2  0  0  0  0  0  0  0  0  0
  144.1515  140.8529  156.3977 C   0  0  1  0  0  0  0  0  0  0  0  0
  143.4336  140.4944  157.6710 C   0  0  0  0  0  0  0  0  0  0  0  0
  144.1362  141.3649  158.7167 C   0  0  0  0  0  0  0  0  0  0  0  0
  145.4076  141.6605  158.1435 O   0  0  0  0  0  0  0  0  0  0  0  0
  145.2057  141.8951  156.7532 C   0  0  1  0  0  0  0  0  0  0  0  0
  146.1990  141.2050  155.8105 C   0  0  0  0  0  0  0  0  0  0  0  0
  146.5945  141.8864  154.4862 C   0  0  0  0  0  0  0  0  0  0  0  0
  148.0163  141.3511  154.6740 C   0  0  0  0  0  0  0  0  0  0  0  0
  147.6934  141.1270  156.1544 C   0  0  0  0  0  0  0  0  0  0  0  0
  145.1304  135.3737  152.8736 N   0  0  0  0  0  0  0  0  0  0  0  0
  145.1082  134.2267  152.1884 N   0  0  0  0  0  0  0  0  0  0  0  0
  144.2836  131.9767  148.2457 H   0  0  0  0  0  0  0  0  0  0  0  0
  144.8891  133.6270  148.1719 H   0  0  0  0  0  0  0  0  0  0  0  0
  143.2459  133.3108  148.7154 H   0  0  0  0  0  0  0  0  0  0  0  0
  142.8475  132.1886  151.0231 H   0  0  0  0  0  0  0  0  0  0  0  0
  144.2224  131.7556  152.0315 H   0  0  0  0  0  0  0  0  0  0  0  0
  143.8867  130.8543  150.5581 H   0  0  0  0  0  0  0  0  0  0  0  0
  146.1802  131.2198  149.6680 H   0  0  0  0  0  0  0  0  0  0  0  0
  146.6185  132.0605  151.1427 H   0  0  0  0  0  0  0  0  0  0  0  0
  146.8880  132.8202  149.5720 H   0  0  0  0  0  0  0  0  0  0  0  0
  144.1736  135.4140  149.1439 H   0  0  0  0  0  0  0  0  0  0  0  0
  144.2184  137.5331  150.4333 H   0  0  0  0  0  0  0  0  0  0  0  0
  144.4052  138.5688  152.4352 H   0  0  0  0  0  0  0  0  0  0  0  0
  144.5373  139.9488  153.9088 H   0  0  0  0  0  0  0  0  0  0  0  0
  145.6221  139.2503  156.6457 H   0  0  0  0  0  0  0  0  0  0  0  0
  143.5024  141.2083  155.5950 H   0  0  0  0  0  0  0  0  0  0  0  0
  142.3651  140.7064  157.6248 H   0  0  0  0  0  0  0  0  0  0  0  0
  143.5549  139.4357  157.9025 H   0  0  0  0  0  0  0  0  0  0  0  0
  143.5907  142.2977  158.8680 H   0  0  0  0  0  0  0  0  0  0  0  0
  144.2363  140.8673  159.6814 H   0  0  0  0  0  0  0  0  0  0  0  0
  144.9265  142.9201  156.5049 H   0  0  0  0  0  0  0  0  0  0  0  0
  146.0893  141.5262  153.5902 H   0  0  0  0  0  0  0  0  0  0  0  0
  146.5541  142.9747  154.5486 H   0  0  0  0  0  0  0  0  0  0  0  0
  148.1946  140.4224  154.1315 H   0  0  0  0  0  0  0  0  0  0  0  0
  148.8033  142.0820  154.4876 H   0  0  0  0  0  0  0  0  0  0  0  0
  148.0228  141.9532  156.7862 H   0  0  0  0  0  0  0  0  0  0  0  0
  148.0216  140.1644  156.5473 H   0  0  0  0  0  0  0  0  0  0  0  0
  1  2  1  0  0  0  0
  1 25  1  0  0  0  0
  1 26  1  0  0  0  0
  1 27  1  0  0  0  0
  2  3  1  0  0  0  0
  2  4  1  0  0  0  0
  2  5  1  0  0  0  0
  3 28  1  0  0  0  0
  3 29  1  0  0  0  0
  3 30  1  0  0  0  0
  4 31  1  0  0  0  0
  4 32  1  0  0  0  0
  4 33  1  0  0  0  0
  5 24  1  0  0  0  0
  5  6  2  0  0  0  0
  6  7  1  0  0  0  0
  6 34  1  0  0  0  0
  7  8  2  0  0  0  0
  7 35  1  0  0  0  0
  8  9  1  0  0  0  0
  8 23  1  0  0  0  0
  9 10  1  0  0  0  0
  9 36  1  0  0  0  0
 10 11  2  0  0  0  0
 10 12  1  0  0  0  0
 12 13  1  0  0  0  0
 12 37  1  0  0  0  0
 13 19  1  0  0  0  0
 13 14  1  0  0  0  0
 13 38  1  0  0  0  0
 14 18  1  0  0  0  0
 14 15  1  0  0  0  0
 14 39  1  0  0  0  0
 15 16  1  0  0  0  0
 15 40  1  0  0  0  0
 15 41  1  0  0  0  0
 16 17  1  0  0  0  0
 16 42  1  0  0  0  0
 16 43  1  0  0  0  0
 17 18  1  0  0  0  0
 18 19  1  0  0  0  0
 18 44  1  0  0  0  0
 19 22  1  0  0  0  0
 19 20  1  0  0  0  0
 20 21  1  0  0  0  0
 20 45  1  0  0  0  0
 20 46  1  0  0  0  0
 21 22  1  0  0  0  0
 21 47  1  0  0  0  0
 21 48  1  0  0  0  0
 22 49  1  0  0  0  0
 22 50  1  0  0  0  0
 23 24  2  0  0  0  0
M  END
> <s_m_source_file>
AV-unprocessed.smi

> <i_m_source_file_index>
2829

> <i_lp_mmshare_version>
43012

> <i_f3d_flags>
0

> <s_epik_input>
W0NIM11DKFtDSDNdKShbQ0gzXSljMVtjSF1bY0hdYyhubjEpW05IXUMoPU8pW05IXVtDQEBIXTJbQ0BIXShbQ0gyXVtDSDJdTzMpW0NAQEhdM0MyNFtDSDJdW0NIMl1bQ0gyXTQ=

> <s_epik_cmdline>
J2VwaWtfcHl0aG9uJywgJy1waCcsICc3LjAnLCAnLXRuJywgJzgnLCAnLW1hJywgJzIwMCcsICctbWV0YWxfYmluZGluZycsICctaW1hZScsICc8aW5maWxlLm1hZT4nLCAnLW9tYWUnLCAnPG91dGZpbGUubWFlPic=

> <r_lp_tautomer_probability>
1

> <r_epik_Ionization_Penalty>
0.011915

> <r_epik_Ionization_Penalty_Charging>
0

> <r_epik_Ionization_Penalty_Neutral>
0.011915

> <r_epik_State_Penalty>
0.00486223

> <r_epik_Charging_Adjusted_Penalty>
0.00486223

> <i_epik_Tot_Q>
0

> <i_epik_Tot_abs_Q>
0

> <r_epik_Metal_State_Penalty>
-0

> <b_epik_Metal_Only>
0

> <s_lp_Force_Field>
OPLS_2005

> <r_lp_Energy>
59.5843

> <b_lp_Chiralities_Consistent>
1

> <s_lp_Variant>
AV-unprocessed.smi:2829-3

> <Gold.Version>
5.8.1

> <Gold.Id.Protein>
6NUR|6NUR_protein|mol2

> <Gold.PLP.Fitness>
36.3270

> <Gold.PLP.PLP>
-30.5804

> <Gold.PLP.part.hbond>
-2.1232

> <Gold.PLP.part.metal>
0.0000

> <Gold.PLP.part.buried>
3.5321

> <Gold.PLP.part.nonpolar>
-31.0485

> <Gold.PLP.part.repulsive>
0.3098

> <Gold.PLP.ligand.clash>
0.0000

> <Gold.PLP.ligand.torsion>
0.2124

> <Gold.PLP.Chemscore.Hbond>
1.9920

> <Gold.PLP.Chemscore.CHOScore>
0.0000

> <Gold.PLP.Chemscore.Metal>
0.0000

> <Gold.Chemscore.Hbonds>
donor molecule, donor type, donor heavy atom, donor atom, acceptor molecule, acceptor atom, score
      L1  H     9    36       P1 10175  0.98
      L1  H    12    37       P1 10175  1.00

> <Gold.PLP.Chemscore.Internal.Correction>
0.1953

> <Gold.Rescore>
     Score         DG    S(hbond)    S(metal)    S(lipo)     H(rot)  DE(clash)    DE(int)     intcor
     16.09     -19.56       1.95        0.00      90.23       1.16       2.03       1.44       ----

> <Gold.Chemscore.Fitness>
16.0907

> <Gold.Chemscore.DG>
-19.5608

> <Gold.Chemscore.ZeroCoef>
-5.4800

> <Gold.Chemscore.Hbond>
1.9455

> <Gold.Chemscore.Metal>
0.0000

> <Gold.Chemscore.Lipo>
90.2303

> <Gold.Chemscore.Internal_Hbond>
0.0000

> <Gold.Chemscore.DEClash>
2.0261

> <Gold.Chemscore.DEInternal>
1.4441

> <Gold.Chemscore.Rot>
1.1618

> <Gold.Chemscore.Internal.Correction>
   9.000000E+99

> <Gold.Chemscore.Hbonds>
donor molecule, donor type, donor heavy atom, donor atom, acceptor molecule, acceptor atom, score
      L1  H     9    36       P1 10175  0.89
      L1  H    12    37       P1 10175  1.00

> <Gold.Chemscore.Hbond.Weighted>
-6.4980

> <Gold.Chemscore.Metal.Weighted>
-0.0000

> <Gold.Chemscore.Lipo.Weighted>
-10.5569

> <Gold.Chemscore.Internal_Hbond.Weighted>
0.0000

> <Gold.Chemscore.DEClash.Weighted>
2.0261

> <Gold.Chemscore.DEInternal.Weighted>
1.4441

> <Gold.Chemscore.Rot.Weighted>
2.9741

> <Gold.Chemscore.Internal.Correction.Weighted>
   9.000000E+99

> <Gold.Protein.RotatedTorsions>
[ 6907 6896 6895 6894 ] final  -78.68 input  -60.11 | X-H torsion
[ 7974 7965 7964 7962 ] final -161.04 input  175.53 | X-H torsion
[ 8008 7997 7996 7995 ] final  -74.94 input   59.86 | X-H torsion
[ 10167 10162 10161 10158 ] final  -60.92 input  -65.29 | X-H torsion
[ 10718 10713 10712 10709 ] final  -45.50 input   66.30 | X-H torsion
[ 10763 10752 10751 10750 ] final   71.85 input  -60.55 | X-H torsion
[ 11005 11000 10999 10996 ] final -102.30 input  -57.11 | X-H torsion

> <Gold.Protein.ActiveResidues>
 VAL166  LYS551  ARG553  GLY616  TRP617  ASP618  TYR619  PRO620  LYS621  CYS622 
 ASP623  PHE694  ASN695  SER759  ASP760  ASP761  ALA762  ILE779  LEU786  VAL792 
 PHE793  MET794  SER795  GLU796  ALA797  LYS798  CYS799  TRP800  GLU811  SER814 

> <Gold.Protein.RotatedAtoms>
  150.6967  134.4236  159.5215 H   0  0  0  0  0  0  0  0  0  0  0  0  # atno 6907 bound_to 6896
  152.1974  134.8615  160.0520 H   0  0  0  0  0  0  0  0  0  0  0  0  # atno 6908 bound_to 6896
  151.9548  133.3642  159.4050 H   0  0  0  0  0  0  0  0  0  0  0  0  # atno 6909 bound_to 6896
  144.7405  140.3455  143.6126 H   0  0  0  0  0  0  0  0  0  0  0  0  # atno 7974 bound_to 7965
  154.5373  140.0753  156.8450 H   0  0  0  0  0  0  0  0  0  0  0  0  # atno 8008 bound_to 7997
  155.3251  140.3398  155.4222 H   0  0  0  0  0  0  0  0  0  0  0  0  # atno 8009 bound_to 7997
  156.1841  140.1662  156.8205 H   0  0  0  0  0  0  0  0  0  0  0  0  # atno 8010 bound_to 7997
  140.6040  143.2368  151.5864 H   0  0  0  0  0  0  0  0  0  0  0  0  # atno 10167 bound_to 10162
  156.2277  130.4170  149.8913 H   0  0  0  0  0  0  0  0  0  0  0  0  # atno 10718 bound_to 10713
  153.0423  135.5122  154.7655 H   0  0  0  0  0  0  0  0  0  0  0  0  # atno 10763 bound_to 10752
  154.6583  135.2935  154.9902 H   0  0  0  0  0  0  0  0  0  0  0  0  # atno 10764 bound_to 10752
  154.0762  135.6670  153.4884 H   0  0  0  0  0  0  0  0  0  0  0  0  # atno 10765 bound_to 10752
  141.1195  133.8547  157.1342 H   0  0  0  0  0  0  0  0  0  0  0  0  # atno 11005 bound_to 11000
  145.7330  139.1742  143.2419 LP  0  0  0  0  0  0  0  0  0  0  0  0  # atno 17320 bound_to 7965
  146.1191  140.7331  142.9466 LP  0  0  0  0  0  0  0  0  0  0  0  0  # atno 17321 bound_to 7965
  139.5311  144.2913  152.1149 LP  0  0  0  0  0  0  0  0  0  0  0  0  # atno 17342 bound_to 10162
  140.2099  144.4573  150.6390 LP  0  0  0  0  0  0  0  0  0  0  0  0  # atno 17343 bound_to 10162
  156.6538  130.8754  151.3536 LP  0  0  0  0  0  0  0  0  0  0  0  0  # atno 17370 bound_to 10713
  157.7118  130.9449  150.1116 LP  0  0  0  0  0  0  0  0  0  0  0  0  # atno 17371 bound_to 10713
  140.0141  134.9975  157.0457 LP  0  0  0  0  0  0  0  0  0  0  0  0  # atno 17394 bound_to 11000
  140.4549  134.1544  155.7185 LP  0  0  0  0  0  0  0  0  0  0  0  0  # atno 17395 bound_to 11000

$$$$
