AV-unprocessed.smi:2875|AV-procd|sdf|11041|dock10
  -GOLD-   2272015503D 1   1.00000     0.00000
 Structure written by MMmdl.
 39 39  0  0  0  0  0  0  0  0  2 V2000
  152.8938  144.4696  158.1571 C   0  0  0  0  0  0  0  0  0  0  0  0
  151.8645  144.6083  159.2871 C   0  0  0  0  0  0  0  0  0  0  0  0
  150.8478  143.4501  159.3685 C   0  0  0  0  0  0  0  0  0  0  0  0
  151.4679  142.1238  159.1397 N   0  0  0  0  0  0  0  0  0  0  0  0
  150.9600  141.2747  158.1181 C   0  0  0  0  0  0  0  0  0  0  0  0
  149.8740  141.6959  157.3640 N   0  0  0  0  0  0  0  0  0  0  0  0
  151.5273  140.0577  157.8992 C   0  0  0  0  0  0  0  0  0  0  0  0
  151.0886  139.2030  156.8672 N   0  0  0  0  0  0  0  0  0  0  0  0
  150.0381  138.2265  157.2026 C   0  0  0  0  0  0  0  0  0  0  0  0
  150.5765  136.7870  157.2329 C   0  0  0  0  0  0  0  0  0  0  0  0
  149.7578  135.9992  158.0805 O   0  0  0  0  0  0  0  0  0  0  0  0
  148.4266  135.8956  157.6097 C   0  0  0  0  0  0  0  0  0  0  0  0
  151.6414  139.2259  155.6256 C   0  0  0  0  0  0  0  0  0  0  0  0
  151.0585  138.3357  154.5208 C   0  0  0  0  0  0  0  0  0  0  0  0
  152.5841  139.9632  155.3335 O   0  0  0  0  0  0  0  0  0  0  0  0
  152.6851  139.6599  158.7114 C   0  0  0  0  0  0  0  0  0  0  0  0
  153.2432  138.5807  158.5102 O   0  0  0  0  0  0  0  0  0  0  0  0
  153.1076  140.5197  159.6748 N   0  5  0  0  0  0  0  0  0  0  0  0
  152.5322  141.7333  159.9069 C   0  0  0  0  0  0  0  0  0  0  0  0
  152.9491  142.4871  160.7876 O   0  0  0  0  0  0  0  0  0  0  0  0
  153.5504  145.3390  158.1243 H   0  0  0  0  0  0  0  0  0  0  0  0
  152.4049  144.3857  157.1866 H   0  0  0  0  0  0  0  0  0  0  0  0
  153.5221  143.5897  158.2967 H   0  0  0  0  0  0  0  0  0  0  0  0
  152.3900  144.7068  160.2374 H   0  0  0  0  0  0  0  0  0  0  0  0
  151.3188  145.5423  159.1515 H   0  0  0  0  0  0  0  0  0  0  0  0
  150.3693  143.4682  160.3492 H   0  0  0  0  0  0  0  0  0  0  0  0
  150.0201  143.6452  158.6882 H   0  0  0  0  0  0  0  0  0  0  0  0
  149.4319  142.5903  157.5192 H   0  0  0  0  0  0  0  0  0  0  0  0
  149.4575  141.1046  156.6592 H   0  0  0  0  0  0  0  0  0  0  0  0
  149.5980  138.4750  158.1699 H   0  0  0  0  0  0  0  0  0  0  0  0
  149.2139  138.2811  156.4900 H   0  0  0  0  0  0  0  0  0  0  0  0
  150.6138  136.3652  156.2274 H   0  0  0  0  0  0  0  0  0  0  0  0
  151.5956  136.7864  157.6216 H   0  0  0  0  0  0  0  0  0  0  0  0
  147.8451  135.2750  158.2913 H   0  0  0  0  0  0  0  0  0  0  0  0
  148.3924  135.4364  156.6209 H   0  0  0  0  0  0  0  0  0  0  0  0
  147.9508  136.8757  157.5586 H   0  0  0  0  0  0  0  0  0  0  0  0
  149.9742  138.4364  154.4636 H   0  0  0  0  0  0  0  0  0  0  0  0
  151.3057  137.2887  154.6955 H   0  0  0  0  0  0  0  0  0  0  0  0
  151.4672  138.6151  153.5494 H   0  0  0  0  0  0  0  0  0  0  0  0
  1  2  1  0  0  0  0
  1 21  1  0  0  0  0
  1 22  1  0  0  0  0
  1 23  1  0  0  0  0
  2  3  1  0  0  0  0
  2 24  1  0  0  0  0
  2 25  1  0  0  0  0
  3  4  1  0  0  0  0
  3 26  1  0  0  0  0
  3 27  1  0  0  0  0
  4 19  1  0  0  0  0
  4  5  1  0  0  0  0
  5  6  1  0  0  0  0
  5  7  2  0  0  0  0
  6 28  1  0  0  0  0
  6 29  1  0  0  0  0
  7  8  1  0  0  0  0
  7 16  1  0  0  0  0
  8  9  1  0  0  0  0
  8 13  1  0  0  0  0
  9 10  1  0  0  0  0
  9 30  1  0  0  0  0
  9 31  1  0  0  0  0
 10 11  1  0  0  0  0
 10 32  1  0  0  0  0
 10 33  1  0  0  0  0
 11 12  1  0  0  0  0
 12 34  1  0  0  0  0
 12 35  1  0  0  0  0
 12 36  1  0  0  0  0
 13 14  1  0  0  0  0
 13 15  2  0  0  0  0
 14 37  1  0  0  0  0
 14 38  1  0  0  0  0
 14 39  1  0  0  0  0
 16 17  2  0  0  0  0
 16 18  1  0  0  0  0
 18 19  1  0  0  0  0
 19 20  2  0  0  0  0
M  CHG  1  18  -1
M  END
> <s_m_source_file>
AV-unprocessed.smi

> <i_m_source_file_index>
2875

> <i_lp_mmshare_version>
43012

> <i_f3d_flags>
0

> <s_epik_input>
W0NIM11bQ0gyXVtDSDJdbjFjKFtOSDJdKWMoYyg9TylbbkhdYzE9TylOKEMoPU8pW0NIM10pW0NIMl1bQ0gyXU9bQ0gzXQ==

> <s_epik_cmdline>
J2VwaWtfcHl0aG9uJywgJy1waCcsICc3LjAnLCAnLXRuJywgJzgnLCAnLW1hJywgJzIwMCcsICctbWV0YWxfYmluZGluZycsICctaW1hZScsICc8aW5maWxlLm1hZT4nLCAnLW9tYWUnLCAnPG91dGZpbGUubWFlPic=

> <r_lp_tautomer_probability>
1

> <r_epik_Ionization_Penalty>
7.11914

> <r_epik_Ionization_Penalty_Charging>
0.302695

> <r_epik_Ionization_Penalty_Neutral>
6.81644

> <r_epik_State_Penalty>
6.81644

> <r_epik_Charging_Adjusted_Penalty>
7.11913

> <i_epik_Tot_Q>
-1

> <i_epik_Tot_abs_Q>
1

> <r_epik_Metal_State_Penalty>
2.72963

> <b_epik_Metal_Only>
1

> <s_epik_Chemistry_Notes>
This compound has an imine and may undergo hydrolysis.

> <s_lp_Force_Field>
OPLS_2005

> <r_lp_Energy>
36.1064

> <b_lp_Chiralities_Consistent>
1

> <s_lp_Variant>
AV-unprocessed.smi:2875-2

> <Gold.Version>
5.8.1

> <Gold.Id.Protein>
6NUR|6NUR_protein|mol2

> <Gold.PLP.Fitness>
41.0232

> <Gold.PLP.PLP>
-35.1400

> <Gold.PLP.part.hbond>
-3.8261

> <Gold.PLP.part.metal>
0.0000

> <Gold.PLP.part.buried>
-4.7787

> <Gold.PLP.part.nonpolar>
-26.7308

> <Gold.PLP.part.repulsive>
0.0670

> <Gold.PLP.ligand.clash>
0.0000

> <Gold.PLP.ligand.torsion>
1.8411

> <Gold.PLP.Chemscore.Hbond>
2.4446

> <Gold.PLP.Chemscore.CHOScore>
0.0000

> <Gold.PLP.Chemscore.Metal>
0.0000

> <Gold.Chemscore.Hbonds>
donor molecule, donor type, donor heavy atom, donor atom, acceptor molecule, acceptor atom, score
      P1  H  6896  6908       L1    11  0.52
      P1  H  7989  7998       L1    15  0.26
      P1  H  7997  8008       L1    15  1.00

> <Gold.PLP.Chemscore.Internal.Correction>
2.2316

> <Gold.Rescore>
     Score         DG    S(hbond)    S(metal)    S(lipo)     H(rot)  DE(clash)    DE(int)     intcor
     10.30     -13.37       1.94        0.00      56.86       2.04       0.02       3.05       ----

> <Gold.Chemscore.Fitness>
10.2968

> <Gold.Chemscore.DG>
-13.3732

> <Gold.Chemscore.ZeroCoef>
-5.4800

> <Gold.Chemscore.Hbond>
1.9357

> <Gold.Chemscore.Metal>
0.0000

> <Gold.Chemscore.Lipo>
56.8591

> <Gold.Chemscore.Internal_Hbond>
0.0000

> <Gold.Chemscore.DEClash>
0.0215

> <Gold.Chemscore.DEInternal>
3.0549

> <Gold.Chemscore.Rot>
2.0409

> <Gold.Chemscore.Internal.Correction>
   9.000000E+99

> <Gold.Chemscore.Hbonds>
donor molecule, donor type, donor heavy atom, donor atom, acceptor molecule, acceptor atom, score
      P1  H  6896  6908       L1    11  0.47
      P1  H  7989  7998       L1    15  0.05
      P1  H  7997  8008       L1    15  0.99

> <Gold.Chemscore.Hbond.Weighted>
-6.4653

> <Gold.Chemscore.Metal.Weighted>
-0.0000

> <Gold.Chemscore.Lipo.Weighted>
-6.6525

> <Gold.Chemscore.Internal_Hbond.Weighted>
0.0000

> <Gold.Chemscore.DEClash.Weighted>
0.0215

> <Gold.Chemscore.DEInternal.Weighted>
3.0549

> <Gold.Chemscore.Rot.Weighted>
5.2246

> <Gold.Chemscore.Internal.Correction.Weighted>
   9.000000E+99

> <Gold.Protein.RotatedTorsions>
[ 6907 6896 6895 6894 ] final -177.46 input  -60.11 | X-H torsion
[ 7974 7965 7964 7962 ] final   44.17 input  175.53 | X-H torsion
[ 8008 7997 7996 7995 ] final  -19.39 input   59.86 | X-H torsion
[ 10167 10162 10161 10158 ] final  109.26 input  -65.29 | X-H torsion
[ 10718 10713 10712 10709 ] final -120.08 input   66.30 | X-H torsion
[ 10763 10752 10751 10750 ] final   71.57 input  -60.55 | X-H torsion
[ 11005 11000 10999 10996 ] final -123.26 input  -57.11 | X-H torsion

> <Gold.Protein.ActiveResidues>
 VAL166  LYS551  ARG553  GLY616  TRP617  ASP618  TYR619  PRO620  LYS621  CYS622 
 ASP623  PHE694  ASN695  SER759  ASP760  ASP761  ALA762  ILE779  LEU786  VAL792 
 PHE793  MET794  SER795  GLU796  ALA797  LYS798  CYS799  TRP800  GLU811  SER814 

> <Gold.Protein.RotatedAtoms>
  151.6213  133.3339  159.3088 H   0  0  0  0  0  0  0  0  0  0  0  0  # atno 6907 bound_to 6896
  150.8104  134.7260  159.6694 H   0  0  0  0  0  0  0  0  0  0  0  0  # atno 6908 bound_to 6896
  152.4201  134.5976  160.0042 H   0  0  0  0  0  0  0  0  0  0  0  0  # atno 6909 bound_to 6896
  146.0591  139.5104  142.9669 H   0  0  0  0  0  0  0  0  0  0  0  0  # atno 7974 bound_to 7965
  154.4840  140.2090  155.9699 H   0  0  0  0  0  0  0  0  0  0  0  0  # atno 8008 bound_to 7997
  156.1207  140.3214  155.8174 H   0  0  0  0  0  0  0  0  0  0  0  0  # atno 8009 bound_to 7997
  155.4472  140.0514  157.2995 H   0  0  0  0  0  0  0  0  0  0  0  0  # atno 8010 bound_to 7997
  139.6781  144.7120  151.1565 H   0  0  0  0  0  0  0  0  0  0  0  0  # atno 10167 bound_to 10162
  156.1230  130.6338  150.9496 H   0  0  0  0  0  0  0  0  0  0  0  0  # atno 10718 bound_to 10713
  153.0407  135.5132  154.7613 H   0  0  0  0  0  0  0  0  0  0  0  0  # atno 10763 bound_to 10752
  154.6553  135.2931  154.9937 H   0  0  0  0  0  0  0  0  0  0  0  0  # atno 10764 bound_to 10752
  154.0807  135.6664  153.4890 H   0  0  0  0  0  0  0  0  0  0  0  0  # atno 10765 bound_to 10752
  140.9932  134.0509  157.3629 H   0  0  0  0  0  0  0  0  0  0  0  0  # atno 11005 bound_to 11000
  145.6591  141.0245  143.1719 LP  0  0  0  0  0  0  0  0  0  0  0  0  # atno 17320 bound_to 7965
  144.7165  139.8180  143.7397 LP  0  0  0  0  0  0  0  0  0  0  0  0  # atno 17321 bound_to 7965
  140.7642  143.5741  150.8964 LP  0  0  0  0  0  0  0  0  0  0  0  0  # atno 17342 bound_to 10162
  139.9411  143.6381  152.3053 LP  0  0  0  0  0  0  0  0  0  0  0  0  # atno 17343 bound_to 10162
  157.6413  131.0910  150.8245 LP  0  0  0  0  0  0  0  0  0  0  0  0  # atno 17370 bound_to 10713
  156.8339  130.5025  149.5328 LP  0  0  0  0  0  0  0  0  0  0  0  0  # atno 17371 bound_to 10713
  139.9002  135.0161  156.7232 LP  0  0  0  0  0  0  0  0  0  0  0  0  # atno 17394 bound_to 11000
  140.7007  133.9309  155.8022 LP  0  0  0  0  0  0  0  0  0  0  0  0  # atno 17395 bound_to 11000

$$$$
