AV-unprocessed.smi:2963|AV-procd|sdf|11319|dock1
  -GOLD-   2272016223D 1   1.00000     0.00000
 Structure written by MMmdl.
 41 43  0  0  0  0  0  0  0  0  1 V2000
  149.1692  141.0958  154.3950 C   0  0  0  0  0  0  0  0  0  0  0  0
  149.3967  140.1655  155.4419 O   0  0  0  0  0  0  0  0  0  0  0  0
  150.5690  140.4358  156.1982 C   0  0  0  0  0  0  0  0  0  0  0  0
  150.5404  139.7488  157.5754 C   0  0  0  0  0  0  0  0  0  0  0  0
  151.5198  140.3199  158.4894 N   0  0  0  0  0  0  0  0  0  0  0  0
  152.4399  139.6777  159.2507 C   0  0  0  0  0  0  0  0  0  0  0  0
  152.5971  137.9242  159.2556 S   0  0  0  0  0  0  0  0  0  0  0  0
  154.0300  137.8147  160.3696 C   0  0  0  0  0  0  0  0  0  0  0  0
  154.1611  136.4734  161.1085 C   0  0  0  0  0  0  0  0  0  0  0  0
  154.1935  135.4333  160.4457 O   0  0  0  0  0  0  0  0  0  0  0  0
  154.2438  136.5077  162.4654 N   0  0  0  0  0  0  0  0  0  0  0  0
  154.1954  137.7457  163.2456 C   0  0  0  0  0  0  0  0  0  0  0  0
  154.3092  137.2836  164.6941 C   0  0  0  0  0  0  0  0  0  0  0  0
  154.4213  135.8538  164.5458 N   0  0  0  0  0  0  0  0  0  0  0  0
  154.3815  135.4338  163.2791 C   0  0  0  0  0  0  0  0  0  0  0  0
  154.4622  134.2486  162.9538 O   0  0  0  0  0  0  0  0  0  0  0  0
  153.2257  140.4594  159.9917 N   0  0  0  0  0  0  0  0  0  0  0  0
  152.7716  141.7267  159.6854 C   0  0  0  0  0  0  0  0  0  0  0  0
  153.1980  142.9924  160.1474 C   0  0  0  0  0  0  0  0  0  0  0  0
  152.5740  144.1690  159.6832 C   0  0  0  0  0  0  0  0  0  0  0  0
  151.5180  144.0968  158.7517 C   0  0  0  0  0  0  0  0  0  0  0  0
  151.0774  142.8456  158.2792 C   0  0  0  0  0  0  0  0  0  0  0  0
  151.7030  141.6745  158.7469 C   0  0  0  0  0  0  0  0  0  0  0  0
  148.2479  140.8382  153.8726 H   0  0  0  0  0  0  0  0  0  0  0  0
  149.9820  141.0747  153.6681 H   0  0  0  0  0  0  0  0  0  0  0  0
  149.0664  142.1136  154.7713 H   0  0  0  0  0  0  0  0  0  0  0  0
  151.4191  140.0564  155.6307 H   0  0  0  0  0  0  0  0  0  0  0  0
  150.7309  141.5099  156.3017 H   0  0  0  0  0  0  0  0  0  0  0  0
  149.5523  139.8651  158.0218 H   0  0  0  0  0  0  0  0  0  0  0  0
  150.6996  138.6753  157.4822 H   0  0  0  0  0  0  0  0  0  0  0  0
  154.9283  137.9737  159.7723 H   0  0  0  0  0  0  0  0  0  0  0  0
  153.9662  138.6296  161.0911 H   0  0  0  0  0  0  0  0  0  0  0  0
  155.0241  138.4064  162.9862 H   0  0  0  0  0  0  0  0  0  0  0  0
  153.2582  138.2799  163.0820 H   0  0  0  0  0  0  0  0  0  0  0  0
  155.1927  137.6898  165.1882 H   0  0  0  0  0  0  0  0  0  0  0  0
  153.4241  137.5397  165.2776 H   0  0  0  0  0  0  0  0  0  0  0  0
  154.5201  135.2352  165.3377 H   0  0  0  0  0  0  0  0  0  0  0  0
  154.0063  143.0585  160.8603 H   0  0  0  0  0  0  0  0  0  0  0  0
  152.9079  145.1312  160.0428 H   0  0  0  0  0  0  0  0  0  0  0  0
  151.0464  145.0029  158.4001 H   0  0  0  0  0  0  0  0  0  0  0  0
  150.2698  142.7866  157.5647 H   0  0  0  0  0  0  0  0  0  0  0  0
  1  2  1  0  0  0  0
  1 24  1  0  0  0  0
  1 25  1  0  0  0  0
  1 26  1  0  0  0  0
  2  3  1  0  0  0  0
  3  4  1  0  0  0  0
  3 27  1  0  0  0  0
  3 28  1  0  0  0  0
  4  5  1  0  0  0  0
  4 29  1  0  0  0  0
  4 30  1  0  0  0  0
  5 23  1  0  0  0  0
  5  6  1  0  0  0  0
  6  7  1  0  0  0  0
  6 17  2  0  0  0  0
  7  8  1  0  0  0  0
  8  9  1  0  0  0  0
  8 31  1  0  0  0  0
  8 32  1  0  0  0  0
  9 10  2  0  0  0  0
  9 11  1  0  0  0  0
 11 15  1  0  0  0  0
 11 12  1  0  0  0  0
 12 13  1  0  0  0  0
 12 33  1  0  0  0  0
 12 34  1  0  0  0  0
 13 14  1  0  0  0  0
 13 35  1  0  0  0  0
 13 36  1  0  0  0  0
 14 15  1  0  0  0  0
 14 37  1  0  0  0  0
 15 16  2  0  0  0  0
 17 18  1  0  0  0  0
 18 23  2  0  0  0  0
 18 19  1  0  0  0  0
 19 20  2  0  0  0  0
 19 38  1  0  0  0  0
 20 21  1  0  0  0  0
 20 39  1  0  0  0  0
 21 22  2  0  0  0  0
 21 40  1  0  0  0  0
 22 23  1  0  0  0  0
 22 41  1  0  0  0  0
M  END
> <s_m_source_file>
AV-unprocessed.smi

> <i_m_source_file_index>
2963

> <i_lp_mmshare_version>
43012

> <i_f3d_flags>
0

> <s_epik_input>
W2NIXTFbY0hdW2NIXVtjSF1jKGMxMiluKFtDSDJdW0NIMl1PW0NIM10pYyhuMilTW0NIMl1DKD1PKU4zW0NIMl1bQ0gyXVtOSF1DMz1P

> <s_epik_cmdline>
J2VwaWtfcHl0aG9uJywgJy1waCcsICc3LjAnLCAnLXRuJywgJzgnLCAnLW1hJywgJzIwMCcsICctbWV0YWxfYmluZGluZycsICctaW1hZScsICc8aW5maWxlLm1hZT4nLCAnLW9tYWUnLCAnPG91dGZpbGUubWFlPic=

> <r_lp_tautomer_probability>
0.9999

> <r_epik_Ionization_Penalty>
0.0341365

> <r_epik_Ionization_Penalty_Charging>
0

> <r_epik_Ionization_Penalty_Neutral>
0.0341365

> <r_epik_State_Penalty>
0.0283589

> <r_epik_Charging_Adjusted_Penalty>
0.0283589

> <i_epik_Tot_Q>
0

> <i_epik_Tot_abs_Q>
0

> <r_epik_Metal_State_Penalty>
0.0267964

> <b_epik_Metal_Only>
0

> <s_lp_Force_Field>
OPLS_2005

> <r_lp_Energy>
40.6732

> <b_lp_Chiralities_Consistent>
1

> <s_lp_Variant>
AV-unprocessed.smi:2963-1

> <Gold.Version>
5.8.1

> <Gold.Id.Protein>
6NUR|6NUR_protein|mol2

> <Gold.PLP.Fitness>
48.5633

> <Gold.PLP.PLP>
-46.2769

> <Gold.PLP.part.hbond>
-1.2439

> <Gold.PLP.part.metal>
0.0000

> <Gold.PLP.part.buried>
-6.7986

> <Gold.PLP.part.nonpolar>
-38.8493

> <Gold.PLP.part.repulsive>
0.1011

> <Gold.PLP.ligand.clash>
0.0000

> <Gold.PLP.ligand.torsion>
0.4288

> <Gold.PLP.Chemscore.Hbond>
1.0000

> <Gold.PLP.Chemscore.CHOScore>
0.0000

> <Gold.PLP.Chemscore.Metal>
0.0000

> <Gold.Chemscore.Hbonds>
donor molecule, donor type, donor heavy atom, donor atom, acceptor molecule, acceptor atom, score
      P1  H  6896  6908       L1    10  1.00

> <Gold.PLP.Chemscore.Internal.Correction>
0.1439

> <Gold.Rescore>
     Score         DG    S(hbond)    S(metal)    S(lipo)     H(rot)  DE(clash)    DE(int)     intcor
     13.85     -15.72       0.98        0.00     110.43       2.33       0.03       1.84       ----

> <Gold.Chemscore.Fitness>
13.8535

> <Gold.Chemscore.DG>
-15.7192

> <Gold.Chemscore.ZeroCoef>
-5.4800

> <Gold.Chemscore.Hbond>
0.9816

> <Gold.Chemscore.Metal>
0.0000

> <Gold.Chemscore.Lipo>
110.4309

> <Gold.Chemscore.Internal_Hbond>
0.0000

> <Gold.Chemscore.DEClash>
0.0256

> <Gold.Chemscore.DEInternal>
1.8402

> <Gold.Chemscore.Rot>
2.3280

> <Gold.Chemscore.Internal.Correction>
   9.000000E+99

> <Gold.Chemscore.Hbonds>
donor molecule, donor type, donor heavy atom, donor atom, acceptor molecule, acceptor atom, score
      P1  H  6896  6908       L1    10  0.84

> <Gold.Chemscore.Hbond.Weighted>
-3.2786

> <Gold.Chemscore.Metal.Weighted>
-0.0000

> <Gold.Chemscore.Lipo.Weighted>
-12.9204

> <Gold.Chemscore.Internal_Hbond.Weighted>
0.0000

> <Gold.Chemscore.DEClash.Weighted>
0.0256

> <Gold.Chemscore.DEInternal.Weighted>
1.8402

> <Gold.Chemscore.Rot.Weighted>
5.9598

> <Gold.Chemscore.Internal.Correction.Weighted>
   9.000000E+99

> <Gold.Protein.RotatedTorsions>
[ 6907 6896 6895 6894 ] final  -65.33 input  -60.11 | X-H torsion
[ 7974 7965 7964 7962 ] final   70.61 input  175.53 | X-H torsion
[ 8008 7997 7996 7995 ] final  -68.26 input   59.86 | X-H torsion
[ 10167 10162 10161 10158 ] final -139.95 input  -65.29 | X-H torsion
[ 10718 10713 10712 10709 ] final   30.22 input   66.30 | X-H torsion
[ 10763 10752 10751 10750 ] final  108.79 input  -60.55 | X-H torsion
[ 11005 11000 10999 10996 ] final  178.57 input  -57.11 | X-H torsion

> <Gold.Protein.ActiveResidues>
 VAL166  LYS551  ARG553  GLY616  TRP617  ASP618  TYR619  PRO620  LYS621  CYS622 
 ASP623  PHE694  ASN695  SER759  ASP760  ASP761  ALA762  ILE779  LEU786  VAL792 
 PHE793  MET794  SER795  GLU796  ALA797  LYS798  CYS799  TRP800  GLU811  SER814 

> <Gold.Protein.RotatedAtoms>
  150.7531  134.6175  159.6118 H   0  0  0  0  0  0  0  0  0  0  0  0  # atno 6907 bound_to 6896
  152.3491  134.7027  160.0250 H   0  0  0  0  0  0  0  0  0  0  0  0  # atno 6908 bound_to 6896
  151.7454  133.3288  159.3413 H   0  0  0  0  0  0  0  0  0  0  0  0  # atno 6909 bound_to 6896
  145.7760  139.2865  143.1293 H   0  0  0  0  0  0  0  0  0  0  0  0  # atno 7974 bound_to 7965
  154.4855  140.0876  156.7477 H   0  0  0  0  0  0  0  0  0  0  0  0  # atno 8008 bound_to 7997
  155.4360  140.3452  155.4266 H   0  0  0  0  0  0  0  0  0  0  0  0  # atno 8009 bound_to 7997
  156.1256  140.1486  156.9130 H   0  0  0  0  0  0  0  0  0  0  0  0  # atno 8010 bound_to 7997
  139.8329  143.7423  152.2665 H   0  0  0  0  0  0  0  0  0  0  0  0  # atno 10167 bound_to 10162
  157.2567  130.7141  149.6433 H   0  0  0  0  0  0  0  0  0  0  0  0  # atno 10718 bound_to 10713
  153.4256  135.3801  155.2138 H   0  0  0  0  0  0  0  0  0  0  0  0  # atno 10763 bound_to 10752
  154.8747  135.3827  154.4331 H   0  0  0  0  0  0  0  0  0  0  0  0  # atno 10764 bound_to 10752
  153.4857  135.7088  153.5975 H   0  0  0  0  0  0  0  0  0  0  0  0  # atno 10765 bound_to 10752
  140.3966  134.6815  157.4538 H   0  0  0  0  0  0  0  0  0  0  0  0  # atno 11005 bound_to 11000
  146.0122  140.8425  142.9965 LP  0  0  0  0  0  0  0  0  0  0  0  0  # atno 17320 bound_to 7965
  144.6804  140.2506  143.7332 LP  0  0  0  0  0  0  0  0  0  0  0  0  # atno 17321 bound_to 7965
  139.7636  144.7499  151.0327 LP  0  0  0  0  0  0  0  0  0  0  0  0  # atno 17342 bound_to 10162
  140.7805  143.4723  151.0129 LP  0  0  0  0  0  0  0  0  0  0  0  0  # atno 17343 bound_to 10162
  155.9665  130.4410  150.5323 LP  0  0  0  0  0  0  0  0  0  0  0  0  # atno 17370 bound_to 10713
  157.3219  131.0683  151.1925 LP  0  0  0  0  0  0  0  0  0  0  0  0  # atno 17371 bound_to 10713
  140.0367  134.6327  155.9034 LP  0  0  0  0  0  0  0  0  0  0  0  0  # atno 17394 bound_to 11000
  141.1872  133.6559  156.5271 LP  0  0  0  0  0  0  0  0  0  0  0  0  # atno 17395 bound_to 11000

$$$$
