AV-unprocessed.smi:1|AV-procd|sdf|12|dock3
  -GOLD-   2262015103D 1   1.00000     0.00000
 Structure written by MMmdl.
 57 62  0  0  0  0  0  0  0  0  1 V2000
  155.1022  140.2120  159.3807 O   0  0  0  0  0  0  0  0  0  0  0  0
  153.9135  140.2156  159.7122 C   0  0  0  0  0  0  0  0  0  0  0  0
  152.9517  139.2330  159.5162 N   0  0  0  0  0  0  0  0  0  0  0  0
  152.1731  139.2805  158.4778 C   0  0  0  0  0  0  0  0  0  0  0  0
  152.0718  140.1838  157.4123 N   0  0  0  0  0  0  0  0  0  0  0  0
  151.1674  140.0964  156.3435 C   0  0  0  0  0  0  0  0  0  0  0  0
  150.2822  139.1485  156.1906 N   0  0  0  0  0  0  0  0  0  0  0  0
  150.3347  138.2236  157.2237 C   0  0  0  0  0  0  0  0  0  0  0  0
  151.1711  138.2037  158.3200 C   0  0  0  0  0  0  0  0  0  0  0  0
  150.9019  137.1059  159.1292 N   0  0  0  0  0  0  0  0  0  0  0  0
  149.9073  136.5057  158.4820 C   0  0  0  0  0  0  0  0  0  0  0  0
  149.5153  137.1002  157.3396 N   0  0  0  0  0  0  0  0  0  0  0  0
  148.4136  136.6258  156.4433 C   0  0  1  0  0  0  0  0  0  0  0  0
  148.7072  135.3347  155.9973 O   0  0  0  0  0  0  0  0  0  0  0  0
  147.7254  134.4064  156.4517 C   0  0  2  0  0  0  0  0  0  0  0  0
  147.5393  133.2652  155.4451 C   0  0  0  0  0  0  0  0  0  0  0  0
  147.1339  133.8104  154.2007 O   0  0  0  0  0  0  0  0  0  0  0  0
  147.4155  133.1611  153.0552 C   0  0  0  0  0  0  0  0  0  0  0  0
  148.4051  132.4418  152.9043 O   0  0  0  0  0  0  0  0  0  0  0  0
  146.4022  133.4030  151.9879 C   0  0  0  0  0  0  0  0  0  0  0  0
  146.1657  132.4018  151.0170 C   0  0  0  0  0  0  0  0  0  0  0  0
  145.2117  132.5997  150.0001 C   0  0  0  0  0  0  0  0  0  0  0  0
  144.4823  133.8015  149.9414 C   0  0  0  0  0  0  0  0  0  0  0  0
  144.7087  134.8055  150.9008 C   0  0  0  0  0  0  0  0  0  0  0  0
  145.6626  134.6097  151.9185 C   0  0  0  0  0  0  0  0  0  0  0  0
  146.4791  135.2598  156.6803 C   0  0  2  0  0  0  0  0  0  0  0  0
  145.7866  135.4988  155.4660 O   0  0  0  0  0  0  0  0  0  0  0  0
  145.3286  137.1046  155.4282 S   0  0  0  0  0  0  0  0  0  0  0  0
  145.8816  137.7126  154.2085 O   0  0  0  0  0  0  0  0  0  0  0  0
  143.9026  137.1871  155.7790 O   0  0  0  0  0  0  0  0  0  0  0  0
  146.2204  137.6426  156.7360 O   0  0  0  0  0  0  0  0  0  0  0  0
  147.0614  136.5883  157.1711 C   0  0  2  0  0  0  0  0  0  0  0  0
  153.3833  141.4314  160.3997 C   0  0  0  0  0  0  0  0  0  0  0  0
  153.5725  141.5983  161.7880 C   0  0  0  0  0  0  0  0  0  0  0  0
  153.0776  142.7476  162.4349 C   0  0  0  0  0  0  0  0  0  0  0  0
  152.3948  143.7333  161.6963 C   0  0  0  0  0  0  0  0  0  0  0  0
  152.2071  143.5705  160.3100 C   0  0  0  0  0  0  0  0  0  0  0  0
  152.7013  142.4217  159.6616 C   0  0  0  0  0  0  0  0  0  0  0  0
  151.2571  140.9068  155.6188 H   0  0  0  0  0  0  0  0  0  0  0  0
  149.4487  135.6007  158.8525 H   0  0  0  0  0  0  0  0  0  0  0  0
  148.4268  137.3085  155.5924 H   0  0  0  0  0  0  0  0  0  0  0  0
  148.0426  133.9965  157.4100 H   0  0  0  0  0  0  0  0  0  0  0  0
  148.4819  132.7327  155.3101 H   0  0  0  0  0  0  0  0  0  0  0  0
  146.8020  132.5475  155.8079 H   0  0  0  0  0  0  0  0  0  0  0  0
  146.7128  131.4704  151.0424 H   0  0  0  0  0  0  0  0  0  0  0  0
  145.0392  131.8274  149.2650 H   0  0  0  0  0  0  0  0  0  0  0  0
  143.7499  133.9519  149.1621 H   0  0  0  0  0  0  0  0  0  0  0  0
  144.1489  135.7282  150.8573 H   0  0  0  0  0  0  0  0  0  0  0  0
  145.8106  135.4004  152.6395 H   0  0  0  0  0  0  0  0  0  0  0  0
  145.7929  134.8127  157.4005 H   0  0  0  0  0  0  0  0  0  0  0  0
  147.1932  136.5920  158.2532 H   0  0  0  0  0  0  0  0  0  0  0  0
  154.0963  140.8470  162.3612 H   0  0  0  0  0  0  0  0  0  0  0  0
  153.2222  142.8735  163.4978 H   0  0  0  0  0  0  0  0  0  0  0  0
  152.0159  144.6142  162.1930 H   0  0  0  0  0  0  0  0  0  0  0  0
  151.6841  144.3269  159.7437 H   0  0  0  0  0  0  0  0  0  0  0  0
  152.5551  142.3046  158.5975 H   0  0  0  0  0  0  0  0  0  0  0  0
  152.7090  140.9676  157.4153 H   0  0  0  0  0  0  0  0  0  0  0  0
  1  2  2  0  0  0  0
  2  3  1  0  0  0  0
  2 33  1  0  0  0  0
  3  4  2  0  0  0  0
  4  9  1  0  0  0  0
  4  5  1  0  0  0  0
  5  6  1  0  0  0  0
  5 57  1  0  0  0  0
  6  7  2  0  0  0  0
  6 39  1  0  0  0  0
  7  8  1  0  0  0  0
  8 12  1  0  0  0  0
  8  9  2  0  0  0  0
  9 10  1  0  0  0  0
 10 11  2  0  0  0  0
 11 12  1  0  0  0  0
 11 40  1  0  0  0  0
 12 13  1  0  0  0  0
 13 32  1  0  0  0  0
 13 14  1  0  0  0  0
 13 41  1  0  0  0  0
 14 15  1  0  0  0  0
 15 16  1  0  0  0  0
 15 26  1  0  0  0  0
 15 42  1  0  0  0  0
 16 17  1  0  0  0  0
 16 43  1  0  0  0  0
 16 44  1  0  0  0  0
 17 18  1  0  0  0  0
 18 19  2  0  0  0  0
 18 20  1  0  0  0  0
 20 25  1  0  0  0  0
 20 21  2  0  0  0  0
 21 22  1  0  0  0  0
 21 45  1  0  0  0  0
 22 23  2  0  0  0  0
 22 46  1  0  0  0  0
 23 24  1  0  0  0  0
 23 47  1  0  0  0  0
 24 25  2  0  0  0  0
 24 48  1  0  0  0  0
 25 49  1  0  0  0  0
 26 32  1  0  0  0  0
 26 27  1  0  0  0  0
 26 50  1  0  0  0  0
 27 28  1  0  0  0  0
 28 29  2  0  0  0  0
 28 30  2  0  0  0  0
 28 31  1  0  0  0  0
 31 32  1  0  0  0  0
 32 51  1  0  0  0  0
 33 38  1  0  0  0  0
 33 34  2  0  0  0  0
 34 35  1  0  0  0  0
 34 52  1  0  0  0  0
 35 36  2  0  0  0  0
 35 53  1  0  0  0  0
 36 37  1  0  0  0  0
 36 54  1  0  0  0  0
 37 38  2  0  0  0  0
 37 55  1  0  0  0  0
 38 56  1  0  0  0  0
M  END
> <s_m_source_file>
AV-unprocessed.smi

> <i_m_source_file_index>
1

> <i_lp_mmshare_version>
43012

> <i_f3d_flags>
0

> <s_epik_input>
W2NIXTFbY0hdW2NIXVtjSF1bY0hdYzFDKD1PKVtOSF1jKG5bY0hdbjIpYyhjMjMpbltjSF1uM1tDQEBIXShbQ0BIXShbQ0BIXTQ1KU9TKE81KSg9Tyk9TylPW0NASF00W0NIMl1PQyg9TyljNltjSF1bY0hdW2NIXVtjSF1bY0hdNg==

> <s_epik_cmdline>
J2VwaWtfcHl0aG9uJywgJy1waCcsICc3LjAnLCAnLXRuJywgJzgnLCAnLW1hJywgJzIwMCcsICctbWV0YWxfYmluZGluZycsICctaW1hZScsICc8aW5maWxlLm1hZT4nLCAnLW9tYWUnLCAnPG91dGZpbGUubWFlPic=

> <r_epik_Ionization_Penalty>
0.122545

> <r_epik_Ionization_Penalty_Charging>
0.122545

> <r_epik_Ionization_Penalty_Neutral>
7.8935e-16

> <r_epik_State_Penalty>
2.69178

> <r_epik_Charging_Adjusted_Penalty>
2.81433

> <i_epik_Tot_Q>
0

> <i_epik_Tot_abs_Q>
0

> <r_epik_Metal_State_Penalty>
3.02665

> <b_epik_Metal_Only>
0

> <s_epik_Chemistry_Notes>
This compound has an ester and may undergo hydrolysis at high or low pH. This compound contains an acetal/aminal-like group ( X-CH(R)-Y where X, Y are N, S, or O) that may be acid/base labile, releasing an aldehyde.

> <s_lp_Force_Field>
OPLS_2005

> <r_lp_Energy>
62.4663

> <b_lp_Chiralities_Consistent>
1

> <s_lp_Variant>
AV-unprocessed.smi:1-12

> <Gold.Version>
5.8.1

> <Gold.Id.Protein>
6NUR|6NUR_protein|mol2

> <Gold.PLP.Fitness>
48.1643

> <Gold.PLP.PLP>
-50.2714

> <Gold.PLP.part.hbond>
-1.5912

> <Gold.PLP.part.metal>
0.0000

> <Gold.PLP.part.buried>
-7.0262

> <Gold.PLP.part.nonpolar>
-41.9591

> <Gold.PLP.part.repulsive>
0.4981

> <Gold.PLP.ligand.clash>
0.0000

> <Gold.PLP.ligand.torsion>
3.1136

> <Gold.PLP.Chemscore.Hbond>
1.2523

> <Gold.PLP.Chemscore.CHOScore>
0.0000

> <Gold.PLP.Chemscore.Metal>
0.0000

> <Gold.Chemscore.Hbonds>
donor molecule, donor type, donor heavy atom, donor atom, acceptor molecule, acceptor atom, score
      P1  H  6896  6908       L1    10  0.25
      P1  H  7997  8008       L1     1  0.94

> <Gold.PLP.Chemscore.Internal.Correction>
0.3634

> <Gold.Rescore>
     Score         DG    S(hbond)    S(metal)    S(lipo)     H(rot)  DE(clash)    DE(int)     intcor
     12.98     -17.76       1.35        0.00     112.98       2.13       0.04       4.74       ----

> <Gold.Chemscore.Fitness>
12.9770

> <Gold.Chemscore.DG>
-17.7616

> <Gold.Chemscore.ZeroCoef>
-5.4800

> <Gold.Chemscore.Hbond>
1.3545

> <Gold.Chemscore.Metal>
0.0000

> <Gold.Chemscore.Lipo>
112.9820

> <Gold.Chemscore.Internal_Hbond>
0.0000

> <Gold.Chemscore.DEClash>
0.0405

> <Gold.Chemscore.DEInternal>
4.7441

> <Gold.Chemscore.Rot>
2.1333

> <Gold.Chemscore.Internal.Correction>
   9.000000E+99

> <Gold.Chemscore.Hbonds>
donor molecule, donor type, donor heavy atom, donor atom, acceptor molecule, acceptor atom, score
      P1  H  6896  6908       L1    10  0.01
      P1  H  7997  8008       L1     1  0.67

> <Gold.Chemscore.Hbond.Weighted>
-4.5241

> <Gold.Chemscore.Metal.Weighted>
-0.0000

> <Gold.Chemscore.Lipo.Weighted>
-13.2189

> <Gold.Chemscore.Internal_Hbond.Weighted>
0.0000

> <Gold.Chemscore.DEClash.Weighted>
0.0405

> <Gold.Chemscore.DEInternal.Weighted>
4.7441

> <Gold.Chemscore.Rot.Weighted>
5.4614

> <Gold.Chemscore.Internal.Correction.Weighted>
   9.000000E+99

> <Gold.Protein.RotatedTorsions>
[ 6907 6896 6895 6894 ] final -126.71 input  -60.11 | X-H torsion
[ 7974 7965 7964 7962 ] final    7.47 input  175.53 | X-H torsion
[ 8008 7997 7996 7995 ] final -130.92 input   59.86 | X-H torsion
[ 10167 10162 10161 10158 ] final  103.32 input  -65.29 | X-H torsion
[ 10718 10713 10712 10709 ] final -103.25 input   66.30 | X-H torsion
[ 10763 10752 10751 10750 ] final -147.50 input  -60.55 | X-H torsion
[ 11005 11000 10999 10996 ] final -114.91 input  -57.11 | X-H torsion

> <Gold.Protein.ActiveResidues>
 VAL166  LYS551  ARG553  GLY616  TRP617  ASP618  TYR619  PRO620  LYS621  CYS622 
 ASP623  PHE694  ASN695  SER759  ASP760  ASP761  ALA762  ILE779  LEU786  VAL792 
 PHE793  MET794  SER795  GLU796  ALA797  LYS798  CYS799  TRP800  GLU811  SER814 

> <Gold.Protein.RotatedAtoms>
  150.8997  133.7135  159.2882 H   0  0  0  0  0  0  0  0  0  0  0  0  # atno 6907 bound_to 6896
  151.4657  135.1040  159.9747 H   0  0  0  0  0  0  0  0  0  0  0  0  # atno 6908 bound_to 6896
  152.4869  133.8349  159.7178 H   0  0  0  0  0  0  0  0  0  0  0  0  # atno 6909 bound_to 6896
  146.2426  140.0078  142.8409 H   0  0  0  0  0  0  0  0  0  0  0  0  # atno 7974 bound_to 7965
  155.3037  140.0454  157.3031 H   0  0  0  0  0  0  0  0  0  0  0  0  # atno 8008 bound_to 7997
  154.5472  140.2306  155.8511 H   0  0  0  0  0  0  0  0  0  0  0  0  # atno 8009 bound_to 7997
  156.1934  140.3044  155.9386 H   0  0  0  0  0  0  0  0  0  0  0  0  # atno 8010 bound_to 7997
  139.7273  144.7044  151.0777 H   0  0  0  0  0  0  0  0  0  0  0  0  # atno 10167 bound_to 10162
  156.0258  130.5458  150.7226 H   0  0  0  0  0  0  0  0  0  0  0  0  # atno 10718 bound_to 10713
  154.8282  135.3358  154.6828 H   0  0  0  0  0  0  0  0  0  0  0  0  # atno 10763 bound_to 10752
  153.7451  135.6943  153.4962 H   0  0  0  0  0  0  0  0  0  0  0  0  # atno 10764 bound_to 10752
  153.2216  135.4447  155.0446 H   0  0  0  0  0  0  0  0  0  0  0  0  # atno 10765 bound_to 10752
  141.0522  133.9669  157.2817 H   0  0  0  0  0  0  0  0  0  0  0  0  # atno 11005 bound_to 11000
  145.1356  140.9542  143.4519 LP  0  0  0  0  0  0  0  0  0  0  0  0  # atno 17320 bound_to 7965
  145.0345  139.3312  143.6007 LP  0  0  0  0  0  0  0  0  0  0  0  0  # atno 17321 bound_to 7965
  140.7765  143.5088  150.9678 LP  0  0  0  0  0  0  0  0  0  0  0  0  # atno 17342 bound_to 10162
  139.8776  143.7113  152.3160 LP  0  0  0  0  0  0  0  0  0  0  0  0  # atno 17343 bound_to 10162
  157.4838  131.0905  151.0506 LP  0  0  0  0  0  0  0  0  0  0  0  0  # atno 17370 bound_to 10713
  157.0932  130.5951  149.5444 LP  0  0  0  0  0  0  0  0  0  0  0  0  # atno 17371 bound_to 10713
  139.9360  135.0196  156.8556 LP  0  0  0  0  0  0  0  0  0  0  0  0  # atno 17394 bound_to 11000
  140.6033  134.0151  155.7546 LP  0  0  0  0  0  0  0  0  0  0  0  0  # atno 17395 bound_to 11000

$$$$
