AV-unprocessed.smi:2001|AV-procd|sdf|8105|dock9
  -GOLD-   2272010333D 1   1.00000     0.00000
 Structure written by MMmdl.
 51 52  0  0  0  0  0  0  0  0  2 V2000
  155.4202  139.6269  162.6122 C   0  0  0  0  0  0  0  0  0  0  0  0
  155.2791  140.7295  161.7335 O   0  0  0  0  0  0  0  0  0  0  0  0
  154.0968  140.6561  160.9553 C   0  0  0  0  0  0  0  0  0  0  0  0
  154.0099  141.9058  160.0663 C   0  0  0  0  0  0  0  0  0  0  0  0
  152.7949  141.9010  159.2454 N   0  0  0  0  0  0  0  0  0  0  0  0
  152.8137  140.9766  158.2139 N   0  0  0  0  0  0  0  0  0  0  0  0
  151.8019  140.8749  157.4136 C   0  0  0  0  0  0  0  0  0  0  0  0
  151.7864  139.8994  156.2878 C   0  0  0  0  0  0  0  0  0  0  0  0
  152.8145  139.3549  155.8821 O   0  0  0  0  0  0  0  0  0  0  0  0
  150.5774  139.6548  155.7531 N   0  0  0  0  0  0  0  0  0  0  0  0
  150.3289  138.7220  154.6626 C   0  0  0  0  0  0  0  0  0  0  0  0
  150.7539  137.3001  155.0646 C   0  0  0  0  0  0  0  0  0  0  0  0
  149.7204  136.2810  154.7518 N   0  3  1  0  0  0  0  0  0  0  0  0
  150.2115  134.9006  154.9766 C   0  0  0  0  0  0  0  0  0  0  0  0
  149.1368  133.8692  154.5840 C   0  0  1  0  0  0  0  0  0  0  0  0
  149.5793  132.4327  154.8833 C   0  0  0  0  0  0  0  0  0  0  0  0
  147.9503  134.1304  155.3250 O   0  0  0  0  0  0  0  0  0  0  0  0
  147.4087  135.4185  155.0552 C   0  0  1  0  0  0  0  0  0  0  0  0
  146.0908  135.5533  155.8262 C   0  0  0  0  0  0  0  0  0  0  0  0
  148.4356  136.4919  155.4641 C   0  0  0  0  0  0  0  0  0  0  0  0
  150.6314  141.7192  157.5828 C   0  0  0  0  0  0  0  0  0  0  0  0
  150.6251  142.6114  158.5974 C   0  0  0  0  0  0  0  0  0  0  0  0
  151.7555  142.7467  159.5173 C   0  0  0  0  0  0  0  0  0  0  0  0
  151.7702  143.5461  160.4526 O   0  0  0  0  0  0  0  0  0  0  0  0
  156.3428  139.7297  163.1833 H   0  0  0  0  0  0  0  0  0  0  0  0
  155.4681  138.6867  162.0617 H   0  0  0  0  0  0  0  0  0  0  0  0
  154.5908  139.5769  163.3189 H   0  0  0  0  0  0  0  0  0  0  0  0
  154.1147  139.7566  160.3373 H   0  0  0  0  0  0  0  0  0  0  0  0
  153.2249  140.5914  161.6083 H   0  0  0  0  0  0  0  0  0  0  0  0
  154.0506  142.8064  160.6817 H   0  0  0  0  0  0  0  0  0  0  0  0
  154.8914  141.9548  159.4243 H   0  0  0  0  0  0  0  0  0  0  0  0
  149.7804  140.1408  156.1394 H   0  0  0  0  0  0  0  0  0  0  0  0
  149.2691  138.7521  154.4080 H   0  0  0  0  0  0  0  0  0  0  0  0
  150.8841  139.0485  153.7821 H   0  0  0  0  0  0  0  0  0  0  0  0
  151.6678  137.0531  154.5219 H   0  0  0  0  0  0  0  0  0  0  0  0
  151.0036  137.2575  156.1260 H   0  0  0  0  0  0  0  0  0  0  0  0
  151.1140  134.7307  154.3879 H   0  0  0  0  0  0  0  0  0  0  0  0
  150.4857  134.7793  156.0260 H   0  0  0  0  0  0  0  0  0  0  0  0
  148.9198  133.9503  153.5174 H   0  0  0  0  0  0  0  0  0  0  0  0
  150.4876  132.1795  154.3362 H   0  0  0  0  0  0  0  0  0  0  0  0
  148.8073  131.7191  154.5940 H   0  0  0  0  0  0  0  0  0  0  0  0
  149.7788  132.2940  155.9463 H   0  0  0  0  0  0  0  0  0  0  0  0
  147.1950  135.5020  153.9880 H   0  0  0  0  0  0  0  0  0  0  0  0
  145.6280  136.5242  155.6474 H   0  0  0  0  0  0  0  0  0  0  0  0
  146.2484  135.4501  156.9002 H   0  0  0  0  0  0  0  0  0  0  0  0
  145.3798  134.7859  155.5195 H   0  0  0  0  0  0  0  0  0  0  0  0
  148.6065  136.4588  156.5415 H   0  0  0  0  0  0  0  0  0  0  0  0
  148.0308  137.4769  155.2348 H   0  0  0  0  0  0  0  0  0  0  0  0
  149.7824  141.6408  156.9193 H   0  0  0  0  0  0  0  0  0  0  0  0
  149.7610  143.2446  158.7355 H   0  0  0  0  0  0  0  0  0  0  0  0
  149.5269  136.3563  153.7632 H   0  0  0  0  0  0  0  0  0  0  0  0
  1  2  1  0  0  0  0
  1 25  1  0  0  0  0
  1 26  1  0  0  0  0
  1 27  1  0  0  0  0
  2  3  1  0  0  0  0
  3  4  1  0  0  0  0
  3 28  1  0  0  0  0
  3 29  1  0  0  0  0
  4  5  1  0  0  0  0
  4 30  1  0  0  0  0
  4 31  1  0  0  0  0
  5 23  1  0  0  0  0
  5  6  1  0  0  0  0
  6  7  2  0  0  0  0
  7  8  1  0  0  0  0
  7 21  1  0  0  0  0
  8  9  2  0  0  0  0
  8 10  1  0  0  0  0
 10 11  1  0  0  0  0
 10 32  1  0  0  0  0
 11 12  1  0  0  0  0
 11 33  1  0  0  0  0
 11 34  1  0  0  0  0
 12 13  1  0  0  0  0
 12 35  1  0  0  0  0
 12 36  1  0  0  0  0
 13 20  1  0  0  0  0
 13 14  1  0  0  0  0
 13 51  1  0  0  0  0
 14 15  1  0  0  0  0
 14 37  1  0  0  0  0
 14 38  1  0  0  0  0
 15 16  1  0  0  0  0
 15 17  1  0  0  0  0
 15 39  1  0  0  0  0
 16 40  1  0  0  0  0
 16 41  1  0  0  0  0
 16 42  1  0  0  0  0
 17 18  1  0  0  0  0
 18 19  1  0  0  0  0
 18 20  1  0  0  0  0
 18 43  1  0  0  0  0
 19 44  1  0  0  0  0
 19 45  1  0  0  0  0
 19 46  1  0  0  0  0
 20 47  1  0  0  0  0
 20 48  1  0  0  0  0
 21 22  2  0  0  0  0
 21 49  1  0  0  0  0
 22 23  1  0  0  0  0
 22 50  1  0  0  0  0
 23 24  2  0  0  0  0
M  CHG  1  13   1
M  END
> <s_m_source_file>
AV-unprocessed.smi

> <i_m_source_file_index>
2001

> <i_lp_mmshare_version>
43012

> <i_f3d_flags>
0

> <s_epik_input>
W0NIM11PW0NIMl1bQ0gyXW4xbmMoW2NIXVtjSF1jMT1PKUMoPU8pW05IXVtDSDJdW0NIMl1OMltDSDJdW0NAQEhdKFtDSDNdKU9bQ0BASF0oW0NIM10pW0NIMl0y

> <s_epik_cmdline>
J2VwaWtfcHl0aG9uJywgJy1waCcsICc3LjAnLCAnLXRuJywgJzgnLCAnLW1hJywgJzIwMCcsICctbWV0YWxfYmluZGluZycsICctaW1hZScsICc8aW5maWxlLm1hZT4nLCAnLW9tYWUnLCAnPG91dGZpbGUubWFlPic=

> <r_lp_tautomer_probability>
1

> <r_epik_Ionization_Penalty>
0.724354

> <r_epik_Ionization_Penalty_Charging>
0.724348

> <r_epik_Ionization_Penalty_Neutral>
6.1656e-06

> <r_epik_State_Penalty>
0.749058

> <r_epik_Charging_Adjusted_Penalty>
1.47341

> <i_epik_Tot_Q>
1

> <i_epik_Tot_abs_Q>
1

> <r_epik_Metal_State_Penalty>
0.750779

> <b_epik_Metal_Only>
0

> <s_lp_Force_Field>
OPLS_2005

> <r_lp_Energy>
35.6345

> <b_lp_Chiralities_Consistent>
1

> <s_lp_Variant>
AV-unprocessed.smi:2001-4

> <Gold.Version>
5.8.1

> <Gold.Id.Protein>
6NUR|6NUR_protein|mol2

> <Gold.PLP.Fitness>
47.5565

> <Gold.PLP.PLP>
-39.5405

> <Gold.PLP.part.hbond>
-4.1610

> <Gold.PLP.part.metal>
0.0000

> <Gold.PLP.part.buried>
-4.1158

> <Gold.PLP.part.nonpolar>
-31.3679

> <Gold.PLP.part.repulsive>
0.2691

> <Gold.PLP.ligand.clash>
0.0000

> <Gold.PLP.ligand.torsion>
0.6006

> <Gold.PLP.Chemscore.Hbond>
3.0000

> <Gold.PLP.Chemscore.CHOScore>
0.0000

> <Gold.PLP.Chemscore.Metal>
0.0000

> <Gold.Chemscore.Hbonds>
donor molecule, donor type, donor heavy atom, donor atom, acceptor molecule, acceptor atom, score
      L1  H    13    51       P1  7948  2.00
      P1  H  7997  8010       L1     9  1.00

> <Gold.PLP.Chemscore.Internal.Correction>
0.2172

> <Gold.Rescore>
     Score         DG    S(hbond)    S(metal)    S(lipo)     H(rot)  DE(clash)    DE(int)     intcor
     14.34     -15.22       1.89        0.00      74.70       2.07       0.00       0.88       ----

> <Gold.Chemscore.Fitness>
14.3415

> <Gold.Chemscore.DG>
-15.2225

> <Gold.Chemscore.ZeroCoef>
-5.4800

> <Gold.Chemscore.Hbond>
1.8884

> <Gold.Chemscore.Metal>
0.0000

> <Gold.Chemscore.Lipo>
74.6986

> <Gold.Chemscore.Internal_Hbond>
0.0000

> <Gold.Chemscore.DEClash>
0.0044

> <Gold.Chemscore.DEInternal>
0.8766

> <Gold.Chemscore.Rot>
2.0721

> <Gold.Chemscore.Internal.Correction>
   9.000000E+99

> <Gold.Chemscore.Hbonds>
donor molecule, donor type, donor heavy atom, donor atom, acceptor molecule, acceptor atom, score
      L1  H    13    51       P1  7948  0.69
      P1  H  7997  8010       L1     9  0.97

> <Gold.Chemscore.Hbond.Weighted>
-6.3074

> <Gold.Chemscore.Metal.Weighted>
-0.0000

> <Gold.Chemscore.Lipo.Weighted>
-8.7397

> <Gold.Chemscore.Internal_Hbond.Weighted>
0.0000

> <Gold.Chemscore.DEClash.Weighted>
0.0044

> <Gold.Chemscore.DEInternal.Weighted>
0.8766

> <Gold.Chemscore.Rot.Weighted>
5.3047

> <Gold.Chemscore.Internal.Correction.Weighted>
   9.000000E+99

> <Gold.Protein.RotatedTorsions>
[ 6907 6896 6895 6894 ] final  136.75 input  -60.11 | X-H torsion
[ 7974 7965 7964 7962 ] final  -19.29 input  175.53 | X-H torsion
[ 8008 7997 7996 7995 ] final   87.95 input   59.86 | X-H torsion
[ 10167 10162 10161 10158 ] final  -78.05 input  -65.29 | X-H torsion
[ 10718 10713 10712 10709 ] final  140.62 input   66.30 | X-H torsion
[ 10763 10752 10751 10750 ] final  148.34 input  -60.55 | X-H torsion
[ 11005 11000 10999 10996 ] final  -48.42 input  -57.11 | X-H torsion

> <Gold.Protein.ActiveResidues>
 VAL166  LYS551  ARG553  GLY616  TRP617  ASP618  TYR619  PRO620  LYS621  CYS622 
 ASP623  PHE694  ASN695  SER759  ASP760  ASP761  ALA762  ILE779  LEU786  VAL792 
 PHE793  MET794  SER795  GLU796  ALA797  LYS798  CYS799  TRP800  GLU811  SER814 

> <Gold.Protein.RotatedAtoms>
  152.2858  133.5514  159.5525 H   0  0  0  0  0  0  0  0  0  0  0  0  # atno 6907 bound_to 6896
  150.7214  134.0499  159.3803 H   0  0  0  0  0  0  0  0  0  0  0  0  # atno 6908 bound_to 6896
  151.8407  135.0591  160.0498 H   0  0  0  0  0  0  0  0  0  0  0  0  # atno 6909 bound_to 6896
  146.1848  140.4042  142.8480 H   0  0  0  0  0  0  0  0  0  0  0  0  # atno 7974 bound_to 7965
  155.9817  140.3377  155.6669 H   0  0  0  0  0  0  0  0  0  0  0  0  # atno 8008 bound_to 7997
  155.6539  140.0708  157.2595 H   0  0  0  0  0  0  0  0  0  0  0  0  # atno 8009 bound_to 7997
  154.4194  140.1720  156.1692 H   0  0  0  0  0  0  0  0  0  0  0  0  # atno 8010 bound_to 7997
  140.4716  143.2425  151.8195 H   0  0  0  0  0  0  0  0  0  0  0  0  # atno 10167 bound_to 10162
  157.4012  131.1017  151.0549 H   0  0  0  0  0  0  0  0  0  0  0  0  # atno 10718 bound_to 10713
  154.0532  135.2880  155.3337 H   0  0  0  0  0  0  0  0  0  0  0  0  # atno 10763 bound_to 10752
  154.6856  135.5246  153.8325 H   0  0  0  0  0  0  0  0  0  0  0  0  # atno 10764 bound_to 10752
  153.0552  135.6592  154.0726 H   0  0  0  0  0  0  0  0  0  0  0  0  # atno 10765 bound_to 10752
  141.0699  133.6682  156.3438 H   0  0  0  0  0  0  0  0  0  0  0  0  # atno 11005 bound_to 11000
  144.8379  140.6810  143.6249 LP  0  0  0  0  0  0  0  0  0  0  0  0  # atno 17320 bound_to 7965
  145.3969  139.1605  143.4198 LP  0  0  0  0  0  0  0  0  0  0  0  0  # atno 17321 bound_to 7965
  139.4819  144.4884  151.9217 LP  0  0  0  0  0  0  0  0  0  0  0  0  # atno 17342 bound_to 10162
  140.3969  144.2543  150.5895 LP  0  0  0  0  0  0  0  0  0  0  0  0  # atno 17343 bound_to 10162
  157.1547  130.6199  149.5593 LP  0  0  0  0  0  0  0  0  0  0  0  0  # atno 17370 bound_to 10713
  155.9824  130.4837  150.6878 LP  0  0  0  0  0  0  0  0  0  0  0  0  # atno 17371 bound_to 10713
  140.5694  134.5855  157.5454 LP  0  0  0  0  0  0  0  0  0  0  0  0  # atno 17394 bound_to 11000
  139.9513  134.7611  156.0441 LP  0  0  0  0  0  0  0  0  0  0  0  0  # atno 17395 bound_to 11000

$$$$
