AV-unprocessed.smi:771|AV-procd|sdf|3684|dock4
  -GOLD-   22720 1103D 1   1.00000     0.00000
 Structure written by MMmdl.
 41 42  0  0  0  0  0  0  0  0  3 V2000
  145.4903  138.2245  154.2344 O   0  0  0  0  0  0  0  0  0  0  0  0
  146.3091  137.9598  153.3528 C   0  0  0  0  0  0  0  0  0  0  0  0
  147.3543  138.9913  152.9041 C   0  0  0  0  0  0  0  0  0  0  0  0
  148.2535  139.4212  153.9880 N   0  0  0  0  0  0  0  0  0  0  0  0
  149.5678  138.9145  153.9594 C   0  0  0  0  0  0  0  0  0  0  0  0
  150.4831  139.2441  154.8916 C   0  0  0  0  0  0  0  0  0  0  0  0
  151.8297  138.7182  154.8428 N   0  3  0  0  0  0  0  0  0  0  0  0
  151.9987  137.5686  154.4492 O   0  0  0  0  0  0  0  0  0  0  0  0
  152.7619  139.4350  155.1953 O   0  5  0  0  0  0  0  0  0  0  0  0
  150.0736  140.1500  155.9472 C   0  0  0  0  0  0  0  0  0  0  0  0
  148.8194  140.6420  155.9775 C   0  0  0  0  0  0  0  0  0  0  0  0
  147.8267  140.2866  154.9580 C   0  0  0  0  0  0  0  0  0  0  0  0
  146.6825  140.7406  154.9747 O   0  0  0  0  0  0  0  0  0  0  0  0
  146.3519  136.7751  152.7250 N   0  0  0  0  0  0  0  0  0  0  0  0
  145.4419  135.6606  152.9720 C   0  0  0  0  0  0  0  0  0  0  0  0
  145.6076  134.5082  151.9503 C   0  0  1  0  0  0  0  0  0  0  0  0
  145.3125  133.1323  152.5930 C   0  0  0  0  0  0  0  0  0  0  0  0
  145.4463  131.9812  151.5846 C   0  0  0  0  0  0  0  0  0  0  0  0
  144.5382  132.2031  150.3682 C   0  0  0  0  0  0  0  0  0  0  0  0
  144.8400  133.5525  149.7026 C   0  0  0  0  0  0  0  0  0  0  0  0
  144.7116  134.7156  150.7040 C   0  0  2  0  0  0  0  0  0  0  0  0
  145.0705  135.9064  150.0321 O   0  0  0  0  0  0  0  0  0  0  0  0
  147.9198  138.5749  152.0688 H   0  0  0  0  0  0  0  0  0  0  0  0
  146.8356  139.8577  152.4900 H   0  0  0  0  0  0  0  0  0  0  0  0
  149.7739  138.2539  153.1293 H   0  0  0  0  0  0  0  0  0  0  0  0
  150.7692  140.4413  156.7204 H   0  0  0  0  0  0  0  0  0  0  0  0
  148.5363  141.3160  156.7728 H   0  0  0  0  0  0  0  0  0  0  0  0
  147.0597  136.6371  152.0180 H   0  0  0  0  0  0  0  0  0  0  0  0
  145.6302  135.2911  153.9804 H   0  0  0  0  0  0  0  0  0  0  0  0
  144.4175  136.0362  152.9723 H   0  0  0  0  0  0  0  0  0  0  0  0
  146.6452  134.4975  151.6126 H   0  0  0  0  0  0  0  0  0  0  0  0
  145.9896  132.9472  153.4272 H   0  0  0  0  0  0  0  0  0  0  0  0
  144.3044  133.1317  153.0099 H   0  0  0  0  0  0  0  0  0  0  0  0
  146.4841  131.8990  151.2583 H   0  0  0  0  0  0  0  0  0  0  0  0
  145.1976  131.0351  152.0663 H   0  0  0  0  0  0  0  0  0  0  0  0
  144.6732  131.3943  149.6496 H   0  0  0  0  0  0  0  0  0  0  0  0
  143.4930  132.1717  150.6787 H   0  0  0  0  0  0  0  0  0  0  0  0
  145.8488  133.5298  149.2874 H   0  0  0  0  0  0  0  0  0  0  0  0
  144.1629  133.7062  148.8614 H   0  0  0  0  0  0  0  0  0  0  0  0
  143.6702  134.8059  151.0158 H   0  0  0  0  0  0  0  0  0  0  0  0
  145.4623  135.6779  149.2028 H   0  0  0  0  0  0  0  0  0  0  0  0
  1  2  2  0  0  0  0
  2  3  1  0  0  0  0
  2 14  1  0  0  0  0
  3  4  1  0  0  0  0
  3 23  1  0  0  0  0
  3 24  1  0  0  0  0
  4 12  1  0  0  0  0
  4  5  1  0  0  0  0
  5  6  2  0  0  0  0
  5 25  1  0  0  0  0
  6  7  1  0  0  0  0
  6 10  1  0  0  0  0
  7  8  2  0  0  0  0
  7  9  1  0  0  0  0
 10 11  2  0  0  0  0
 10 26  1  0  0  0  0
 11 12  1  0  0  0  0
 11 27  1  0  0  0  0
 12 13  2  0  0  0  0
 14 15  1  0  0  0  0
 14 28  1  0  0  0  0
 15 16  1  0  0  0  0
 15 29  1  0  0  0  0
 15 30  1  0  0  0  0
 16 21  1  0  0  0  0
 16 17  1  0  0  0  0
 16 31  1  0  0  0  0
 17 18  1  0  0  0  0
 17 32  1  0  0  0  0
 17 33  1  0  0  0  0
 18 19  1  0  0  0  0
 18 34  1  0  0  0  0
 18 35  1  0  0  0  0
 19 20  1  0  0  0  0
 19 36  1  0  0  0  0
 19 37  1  0  0  0  0
 20 21  1  0  0  0  0
 20 38  1  0  0  0  0
 20 39  1  0  0  0  0
 21 22  1  0  0  0  0
 21 40  1  0  0  0  0
 22 41  1  0  0  0  0
M  CHG  1   7   1
M  CHG  1   9  -1
M  END
> <s_m_source_file>
AV-unprocessed.smi

> <i_m_source_file_index>
771

> <i_lp_mmshare_version>
43012

> <i_f3d_flags>
0

> <s_epik_input>
Tz1jMVtjSF1bY0hdYyhbTitdKD1PKVtPLV0pW2NIXW4xW0NIMl1DKD1PKVtOSF1bQ0gyXVtDQEBIXTJbQ0gyXVtDSDJdW0NIMl1bQ0gyXVtDQEhdMltPSF0=

> <s_epik_cmdline>
J2VwaWtfcHl0aG9uJywgJy1waCcsICc3LjAnLCAnLXRuJywgJzgnLCAnLW1hJywgJzIwMCcsICctbWV0YWxfYmluZGluZycsICctaW1hZScsICc8aW5maWxlLm1hZT4nLCAnLW9tYWUnLCAnPG91dGZpbGUubWFlPic=

> <r_lp_tautomer_probability>
1

> <r_epik_Ionization_Penalty>
3.77175e-07

> <r_epik_Ionization_Penalty_Charging>
7.70067e-11

> <r_epik_Ionization_Penalty_Neutral>
3.77098e-07

> <r_epik_State_Penalty>
-0

> <r_epik_Charging_Adjusted_Penalty>
7.70067e-11

> <i_epik_Tot_Q>
0

> <i_epik_Tot_abs_Q>
2

> <r_epik_Metal_State_Penalty>
-0

> <b_epik_Metal_Only>
0

> <s_lp_Force_Field>
OPLS_2005

> <r_lp_Energy>
22.9473

> <b_lp_Chiralities_Consistent>
1

> <s_lp_Variant>
AV-unprocessed.smi:771-4

> <Gold.Version>
5.8.1

> <Gold.Id.Protein>
6NUR|6NUR_protein|mol2

> <Gold.PLP.Fitness>
46.2677

> <Gold.PLP.PLP>
-33.5049

> <Gold.PLP.part.hbond>
-5.8709

> <Gold.PLP.part.metal>
0.0000

> <Gold.PLP.part.buried>
-0.5148

> <Gold.PLP.part.nonpolar>
-28.1990

> <Gold.PLP.part.repulsive>
0.3707

> <Gold.PLP.ligand.clash>
0.0000

> <Gold.PLP.ligand.torsion>
1.1187

> <Gold.PLP.Chemscore.Hbond>
3.6084

> <Gold.PLP.Chemscore.CHOScore>
1.3751

> <Gold.PLP.Chemscore.Metal>
0.0000

> <Gold.Chemscore.Hbonds>
donor molecule, donor type, donor heavy atom, donor atom, acceptor molecule, acceptor atom, score
      L1  H    14    28       P1  7948  0.83
      L1  H    22    41       P1  7921  1.00
      P1  H  7997  8010       L1     9  1.00
      P1  H 10752 10765       L1     8  0.63
      L1  C     5    25       P1  7948  1.00
      L1  C     5    25       P1  7957  0.28

> <Gold.PLP.Chemscore.Internal.Correction>
0.0495

> <Gold.Rescore>
     Score         DG    S(hbond)    S(metal)    S(lipo)     H(rot)  DE(clash)    DE(int)     intcor
     16.36     -19.75       3.63        0.00      72.59       2.48       1.09       2.31       ----

> <Gold.Chemscore.Fitness>
16.3614

> <Gold.Chemscore.DG>
-19.7536

> <Gold.Chemscore.ZeroCoef>
-5.4800

> <Gold.Chemscore.Hbond>
3.6281

> <Gold.Chemscore.Metal>
0.0000

> <Gold.Chemscore.Lipo>
72.5878

> <Gold.Chemscore.Internal_Hbond>
0.0000

> <Gold.Chemscore.DEClash>
1.0864

> <Gold.Chemscore.DEInternal>
2.3058

> <Gold.Chemscore.Rot>
2.4753

> <Gold.Chemscore.Internal.Correction>
   9.000000E+99

> <Gold.Chemscore.Hbonds>
donor molecule, donor type, donor heavy atom, donor atom, acceptor molecule, acceptor atom, score
      L1  H    14    28       P1  7948  0.83
      L1  H    22    41       P1  7921  1.00
      P1  H  7997  8010       L1     9  0.97
      P1  H 10752 10765       L1     8  0.62

> <Gold.Chemscore.Hbond.Weighted>
-12.1177

> <Gold.Chemscore.Metal.Weighted>
-0.0000

> <Gold.Chemscore.Lipo.Weighted>
-8.4928

> <Gold.Chemscore.Internal_Hbond.Weighted>
0.0000

> <Gold.Chemscore.DEClash.Weighted>
1.0864

> <Gold.Chemscore.DEInternal.Weighted>
2.3058

> <Gold.Chemscore.Rot.Weighted>
6.3369

> <Gold.Chemscore.Internal.Correction.Weighted>
   9.000000E+99

> <Gold.Protein.RotatedTorsions>
[ 6907 6896 6895 6894 ] final  -53.05 input  -60.11 | X-H torsion
[ 7974 7965 7964 7962 ] final -174.09 input  175.53 | X-H torsion
[ 8008 7997 7996 7995 ] final  109.67 input   59.86 | X-H torsion
[ 10167 10162 10161 10158 ] final   -2.82 input  -65.29 | X-H torsion
[ 10718 10713 10712 10709 ] final   -4.91 input   66.30 | X-H torsion
[ 10763 10752 10751 10750 ] final  152.73 input  -60.55 | X-H torsion
[ 11005 11000 10999 10996 ] final   58.96 input  -57.11 | X-H torsion

> <Gold.Protein.ActiveResidues>
 VAL166  LYS551  ARG553  GLY616  TRP617  ASP618  TYR619  PRO620  LYS621  CYS622 
 ASP623  PHE694  ASN695  SER759  ASP760  ASP761  ALA762  ILE779  LEU786  VAL792 
 PHE793  MET794  SER795  GLU796  ALA797  LYS798  CYS799  TRP800  GLU811  SER814 

> <Gold.Protein.RotatedAtoms>
  150.8462  134.7771  159.6971 H   0  0  0  0  0  0  0  0  0  0  0  0  # atno 6907 bound_to 6896
  152.4538  134.5333  159.9827 H   0  0  0  0  0  0  0  0  0  0  0  0  # atno 6908 bound_to 6896
  151.5463  133.3386  159.2980 H   0  0  0  0  0  0  0  0  0  0  0  0  # atno 6909 bound_to 6896
  144.7134  140.1523  143.6383 H   0  0  0  0  0  0  0  0  0  0  0  0  # atno 7974 bound_to 7965
  156.1996  140.3053  155.9499 H   0  0  0  0  0  0  0  0  0  0  0  0  # atno 8008 bound_to 7997
  155.2985  140.0445  157.3045 H   0  0  0  0  0  0  0  0  0  0  0  0  # atno 8009 bound_to 7997
  154.5554  140.2304  155.8428 H   0  0  0  0  0  0  0  0  0  0  0  0  # atno 8010 bound_to 7997
  140.6866  143.6613  150.8264 H   0  0  0  0  0  0  0  0  0  0  0  0  # atno 10167 bound_to 10162
  156.7544  130.5249  149.5797 H   0  0  0  0  0  0  0  0  0  0  0  0  # atno 10718 bound_to 10713
  154.1247  135.2830  155.3200 H   0  0  0  0  0  0  0  0  0  0  0  0  # atno 10763 bound_to 10752
  154.6398  135.5406  153.7779 H   0  0  0  0  0  0  0  0  0  0  0  0  # atno 10764 bound_to 10752
  153.0301  135.6483  154.1400 H   0  0  0  0  0  0  0  0  0  0  0  0  # atno 10765 bound_to 10752
  140.0339  134.5972  155.9471 H   0  0  0  0  0  0  0  0  0  0  0  0  # atno 11005 bound_to 11000
  145.9105  139.2484  143.1440 LP  0  0  0  0  0  0  0  0  0  0  0  0  # atno 17320 bound_to 7965
  145.9721  140.8752  143.0157 LP  0  0  0  0  0  0  0  0  0  0  0  0  # atno 17321 bound_to 7965
  140.0320  143.5433  152.2756 LP  0  0  0  0  0  0  0  0  0  0  0  0  # atno 17342 bound_to 10162
  139.6230  144.7632  151.2700 LP  0  0  0  0  0  0  0  0  0  0  0  0  # atno 17343 bound_to 10162
  156.1380  130.6225  151.0427 LP  0  0  0  0  0  0  0  0  0  0  0  0  # atno 17370 bound_to 10713
  157.6763  131.0849  150.7486 LP  0  0  0  0  0  0  0  0  0  0  0  0  # atno 17371 bound_to 10713
  141.1846  133.6553  156.5164 LP  0  0  0  0  0  0  0  0  0  0  0  0  # atno 17394 bound_to 11000
  140.4180  134.7212  157.4874 LP  0  0  0  0  0  0  0  0  0  0  0  0  # atno 17395 bound_to 11000

$$$$
