AV-unprocessed.smi:1444|AV-procd|sdf|5883|dock7
  -GOLD-   22720 5563D 1   1.00000     0.00000
 Structure written by MMmdl.
 44 45  0  0  0  0  0  0  0  0  2 V2000
  151.9831  139.2258  154.7955 C   0  0  0  0  0  0  0  0  0  0  0  0
  150.7253  138.6510  154.4583 O   0  0  0  0  0  0  0  0  0  0  0  0
  149.6251  139.4814  154.3563 C   0  0  0  0  0  0  0  0  0  0  0  0
  149.8194  140.8208  154.4466 N   0  0  0  0  0  0  0  0  0  0  0  0
  148.7485  141.6338  154.3469 C   0  0  0  0  0  0  0  0  0  0  0  0
  147.4391  141.1596  154.1502 C   0  0  0  0  0  0  0  0  0  0  0  0
  147.2341  139.7708  154.0563 C   0  0  0  0  0  0  0  0  0  0  0  0
  148.3485  138.9018  154.1621 C   0  0  0  0  0  0  0  0  0  0  0  0
  148.2773  137.4813  154.0852 N   0  0  0  0  0  0  0  0  0  0  0  0
  147.3259  136.6909  153.5601 C   0  0  0  0  0  0  0  0  0  0  0  0
  146.2954  137.0727  153.0073 O   0  0  0  0  0  0  0  0  0  0  0  0
  147.6484  135.3969  153.7024 N   0  0  0  0  0  0  0  0  0  0  0  0
  146.8373  134.2529  153.2840 C   0  0  2  0  0  0  0  0  0  0  0  0
  146.3635  133.4966  154.5326 C   0  0  0  0  0  0  0  0  0  0  0  0
  147.6228  133.3223  152.3314 C   0  0  0  0  0  0  0  0  0  0  0  0
  146.7430  132.4616  151.5007 N   0  3  0  0  0  0  0  0  0  0  0  0
  145.9089  131.5376  152.3037 C   0  0  0  0  0  0  0  0  0  0  0  0
  145.0825  130.6274  151.3789 C   0  0  0  0  0  0  0  0  0  0  0  0
  144.2851  131.4243  150.5116 O   0  0  0  0  0  0  0  0  0  0  0  0
  145.0774  132.2608  149.6770 C   0  0  0  0  0  0  0  0  0  0  0  0
  145.9005  133.2243  150.5474 C   0  0  0  0  0  0  0  0  0  0  0  0
  152.7378  138.4405  154.8361 H   0  0  0  0  0  0  0  0  0  0  0  0
  151.9530  139.7062  155.7747 H   0  0  0  0  0  0  0  0  0  0  0  0
  152.3037  139.9532  154.0483 H   0  0  0  0  0  0  0  0  0  0  0  0
  148.9413  142.6934  154.4255 H   0  0  0  0  0  0  0  0  0  0  0  0
  146.6095  141.8468  154.0737 H   0  0  0  0  0  0  0  0  0  0  0  0
  146.2284  139.4149  153.9050 H   0  0  0  0  0  0  0  0  0  0  0  0
  149.0595  137.0007  154.5059 H   0  0  0  0  0  0  0  0  0  0  0  0
  148.5185  135.1820  154.1676 H   0  0  0  0  0  0  0  0  0  0  0  0
  145.9412  134.6157  152.7785 H   0  0  0  0  0  0  0  0  0  0  0  0
  145.7232  132.6565  154.2623 H   0  0  0  0  0  0  0  0  0  0  0  0
  145.7886  134.1477  155.1922 H   0  0  0  0  0  0  0  0  0  0  0  0
  147.2049  133.1028  155.1039 H   0  0  0  0  0  0  0  0  0  0  0  0
  148.2338  133.9466  151.6773 H   0  0  0  0  0  0  0  0  0  0  0  0
  148.3210  132.6969  152.8898 H   0  0  0  0  0  0  0  0  0  0  0  0
  146.5435  130.9259  152.9461 H   0  0  0  0  0  0  0  0  0  0  0  0
  145.2478  132.1114  152.9553 H   0  0  0  0  0  0  0  0  0  0  0  0
  145.7318  129.9719  150.7958 H   0  0  0  0  0  0  0  0  0  0  0  0
  144.4290  129.9851  151.9697 H   0  0  0  0  0  0  0  0  0  0  0  0
  145.7283  131.6549  149.0444 H   0  0  0  0  0  0  0  0  0  0  0  0
  144.4203  132.8228  149.0131 H   0  0  0  0  0  0  0  0  0  0  0  0
  145.2346  133.8916  151.0967 H   0  0  0  0  0  0  0  0  0  0  0  0
  146.5209  133.8497  149.9064 H   0  0  0  0  0  0  0  0  0  0  0  0
  147.3560  131.8790  150.9477 H   0  0  0  0  0  0  0  0  0  0  0  0
  1  2  1  0  0  0  0
  1 22  1  0  0  0  0
  1 23  1  0  0  0  0
  1 24  1  0  0  0  0
  2  3  1  0  0  0  0
  3  8  1  0  0  0  0
  3  4  2  0  0  0  0
  4  5  1  0  0  0  0
  5  6  2  0  0  0  0
  5 25  1  0  0  0  0
  6  7  1  0  0  0  0
  6 26  1  0  0  0  0
  7  8  2  0  0  0  0
  7 27  1  0  0  0  0
  8  9  1  0  0  0  0
  9 10  1  0  0  0  0
  9 28  1  0  0  0  0
 10 11  2  0  0  0  0
 10 12  1  0  0  0  0
 12 13  1  0  0  0  0
 12 29  1  0  0  0  0
 13 14  1  0  0  0  0
 13 15  1  0  0  0  0
 13 30  1  0  0  0  0
 14 31  1  0  0  0  0
 14 32  1  0  0  0  0
 14 33  1  0  0  0  0
 15 16  1  0  0  0  0
 15 34  1  0  0  0  0
 15 35  1  0  0  0  0
 16 21  1  0  0  0  0
 16 17  1  0  0  0  0
 16 44  1  0  0  0  0
 17 18  1  0  0  0  0
 17 36  1  0  0  0  0
 17 37  1  0  0  0  0
 18 19  1  0  0  0  0
 18 38  1  0  0  0  0
 18 39  1  0  0  0  0
 19 20  1  0  0  0  0
 20 21  1  0  0  0  0
 20 40  1  0  0  0  0
 20 41  1  0  0  0  0
 21 42  1  0  0  0  0
 21 43  1  0  0  0  0
M  CHG  1  16   1
M  END
> <s_m_source_file>
AV-unprocessed.smi

> <i_m_source_file_index>
1444

> <i_lp_mmshare_version>
43012

> <i_f3d_flags>
0

> <s_epik_input>
W0NIM11PYzFuW2NIXVtjSF1bY0hdYzFbTkhdQyg9TylbTkhdW0NASF0oW0NIM10pW0NIMl1OMltDSDJdW0NIMl1PW0NIMl1bQ0gyXTI=

> <s_epik_cmdline>
J2VwaWtfcHl0aG9uJywgJy1waCcsICc3LjAnLCAnLXRuJywgJzgnLCAnLW1hJywgJzIwMCcsICctbWV0YWxfYmluZGluZycsICctaW1hZScsICc8aW5maWxlLm1hZT4nLCAnLW9tYWUnLCAnPG91dGZpbGUubWFlPic=

> <r_lp_tautomer_probability>
1

> <r_epik_Ionization_Penalty>
0.602604

> <r_epik_Ionization_Penalty_Charging>
0.602531

> <r_epik_Ionization_Penalty_Neutral>
7.37688e-05

> <r_epik_State_Penalty>
0.617039

> <r_epik_Charging_Adjusted_Penalty>
1.21957

> <i_epik_Tot_Q>
1

> <i_epik_Tot_abs_Q>
1

> <r_epik_Metal_State_Penalty>
0.617045

> <b_epik_Metal_Only>
0

> <s_lp_Force_Field>
OPLS_2005

> <r_lp_Energy>
24.7121

> <b_lp_Chiralities_Consistent>
1

> <s_lp_Variant>
AV-unprocessed.smi:1444-3

> <Gold.Version>
5.8.1

> <Gold.Id.Protein>
6NUR|6NUR_protein|mol2

> <Gold.PLP.Fitness>
38.7733

> <Gold.PLP.PLP>
-31.1146

> <Gold.PLP.part.hbond>
-4.6092

> <Gold.PLP.part.metal>
0.0000

> <Gold.PLP.part.buried>
0.4595

> <Gold.PLP.part.nonpolar>
-28.2262

> <Gold.PLP.part.repulsive>
1.6955

> <Gold.PLP.ligand.clash>
0.0000

> <Gold.PLP.ligand.torsion>
0.3699

> <Gold.PLP.Chemscore.Hbond>
1.7862

> <Gold.PLP.Chemscore.CHOScore>
1.0000

> <Gold.PLP.Chemscore.Metal>
0.0000

> <Gold.Chemscore.Hbonds>
donor molecule, donor type, donor heavy atom, donor atom, acceptor molecule, acceptor atom, score
      L1  H    16    44       P1 10747  1.00
      P1  H  7989  7998       L1     4  0.60
      P1  H 10785 10796       L1    19  0.01
      L1  C     5    25       P1  8028  1.00

> <Gold.PLP.Chemscore.Internal.Correction>
0.0398

> <Gold.Rescore>
     Score         DG    S(hbond)    S(metal)    S(lipo)     H(rot)  DE(clash)    DE(int)     intcor
     10.84     -14.12       1.15        0.00      79.88       1.78       1.99       1.28       ----

> <Gold.Chemscore.Fitness>
10.8428

> <Gold.Chemscore.DG>
-14.1172

> <Gold.Chemscore.ZeroCoef>
-5.4800

> <Gold.Chemscore.Hbond>
1.1523

> <Gold.Chemscore.Metal>
0.0000

> <Gold.Chemscore.Lipo>
79.8768

> <Gold.Chemscore.Internal_Hbond>
0.0000

> <Gold.Chemscore.DEClash>
1.9947

> <Gold.Chemscore.DEInternal>
1.2797

> <Gold.Chemscore.Rot>
1.7801

> <Gold.Chemscore.Internal.Correction>
   9.000000E+99

> <Gold.Chemscore.Hbonds>
donor molecule, donor type, donor heavy atom, donor atom, acceptor molecule, acceptor atom, score
      L1  H    16    44       P1 10747  0.93
      P1  H  7989  7998       L1     4  0.11
      P1  H 10785 10796       L1    19  0.01

> <Gold.Chemscore.Hbond.Weighted>
-3.8486

> <Gold.Chemscore.Metal.Weighted>
-0.0000

> <Gold.Chemscore.Lipo.Weighted>
-9.3456

> <Gold.Chemscore.Internal_Hbond.Weighted>
0.0000

> <Gold.Chemscore.DEClash.Weighted>
1.9947

> <Gold.Chemscore.DEInternal.Weighted>
1.2797

> <Gold.Chemscore.Rot.Weighted>
4.5570

> <Gold.Chemscore.Internal.Correction.Weighted>
   9.000000E+99

> <Gold.Protein.RotatedTorsions>
[ 6907 6896 6895 6894 ] final  166.29 input  -60.11 | X-H torsion
[ 7974 7965 7964 7962 ] final -142.04 input  175.53 | X-H torsion
[ 8008 7997 7996 7995 ] final  179.69 input   59.86 | X-H torsion
[ 10167 10162 10161 10158 ] final   58.07 input  -65.29 | X-H torsion
[ 10718 10713 10712 10709 ] final  130.70 input   66.30 | X-H torsion
[ 10763 10752 10751 10750 ] final  175.12 input  -60.55 | X-H torsion
[ 11005 11000 10999 10996 ] final -136.32 input  -57.11 | X-H torsion

> <Gold.Protein.ActiveResidues>
 VAL166  LYS551  ARG553  GLY616  TRP617  ASP618  TYR619  PRO620  LYS621  CYS622 
 ASP623  PHE694  ASN695  SER759  ASP760  ASP761  ALA762  ILE779  LEU786  VAL792 
 PHE793  MET794  SER795  GLU796  ALA797  LYS798  CYS799  TRP800  GLU811  SER814 

> <Gold.Protein.RotatedAtoms>
  151.8813  133.3496  159.3766 H   0  0  0  0  0  0  0  0  0  0  0  0  # atno 6907 bound_to 6896
  150.7127  134.5016  159.5573 H   0  0  0  0  0  0  0  0  0  0  0  0  # atno 6908 bound_to 6896
  152.2568  134.8076  160.0488 H   0  0  0  0  0  0  0  0  0  0  0  0  # atno 6909 bound_to 6896
  144.8473  140.6006  143.5413 H   0  0  0  0  0  0  0  0  0  0  0  0  # atno 7974 bound_to 7965
  156.0405  140.1302  157.0161 H   0  0  0  0  0  0  0  0  0  0  0  0  # atno 8008 bound_to 7997
  154.4389  140.1031  156.6300 H   0  0  0  0  0  0  0  0  0  0  0  0  # atno 8009 bound_to 7997
  155.5674  140.3466  155.4508 H   0  0  0  0  0  0  0  0  0  0  0  0  # atno 8010 bound_to 7997
  140.1912  144.4084  150.6570 H   0  0  0  0  0  0  0  0  0  0  0  0  # atno 10167 bound_to 10162
  157.5037  131.1095  150.9391 H   0  0  0  0  0  0  0  0  0  0  0  0  # atno 10718 bound_to 10713
  154.4633  135.2768  155.1697 H   0  0  0  0  0  0  0  0  0  0  0  0  # atno 10763 bound_to 10752
  154.3476  135.6157  153.5630 H   0  0  0  0  0  0  0  0  0  0  0  0  # atno 10764 bound_to 10752
  152.9857  135.5803  154.4999 H   0  0  0  0  0  0  0  0  0  0  0  0  # atno 10765 bound_to 10752
  140.8816  134.1924  157.4587 H   0  0  0  0  0  0  0  0  0  0  0  0  # atno 11005 bound_to 11000
  145.4571  139.1517  143.3887 LP  0  0  0  0  0  0  0  0  0  0  0  0  # atno 17320 bound_to 7965
  146.2755  140.4699  142.8797 LP  0  0  0  0  0  0  0  0  0  0  0  0  # atno 17321 bound_to 7965
  140.6454  143.2212  151.6196 LP  0  0  0  0  0  0  0  0  0  0  0  0  # atno 17342 bound_to 10162
  139.5255  144.3072  152.1023 LP  0  0  0  0  0  0  0  0  0  0  0  0  # atno 17343 bound_to 10162
  157.0054  130.5616  149.5315 LP  0  0  0  0  0  0  0  0  0  0  0  0  # atno 17370 bound_to 10713
  156.0245  130.5339  150.8368 LP  0  0  0  0  0  0  0  0  0  0  0  0  # atno 17371 bound_to 10713
  139.8720  134.9820  156.5138 LP  0  0  0  0  0  0  0  0  0  0  0  0  # atno 17394 bound_to 11000
  140.8454  133.8173  155.9116 LP  0  0  0  0  0  0  0  0  0  0  0  0  # atno 17395 bound_to 11000

$$$$
