AV-unprocessed.smi:102|AV-procd|sdf|950|dock8
  -GOLD-   2262017483D 1   1.00000     0.00000
 Structure written by MMmdl.
 44 45  0  0  0  0  0  0  0  0  1 V2000
  147.0031  133.2707  152.4726 C   0  0  0  0  0  0  0  0  0  0  0  0
  146.1323  133.9591  153.5151 C   0  0  0  0  0  0  0  0  0  0  0  0
  144.9982  134.3563  153.2476 O   0  0  0  0  0  0  0  0  0  0  0  0
  146.7463  134.0656  154.7012 O   0  0  0  0  0  0  0  0  0  0  0  0
  146.1069  134.7492  155.7687 C   0  0  0  0  0  0  0  0  0  0  0  0
  147.0282  134.8152  156.9978 C   0  0  1  0  0  0  0  0  0  0  0  0
  148.3536  135.1630  156.6360 O   0  0  0  0  0  0  0  0  0  0  0  0
  149.0170  135.6169  157.7710 C   0  0  1  0  0  0  0  0  0  0  0  0
  149.9558  136.7175  157.3318 N   0  0  0  0  0  0  0  0  0  0  0  0
  150.0899  137.0277  155.9844 C   0  0  0  0  0  0  0  0  0  0  0  0
  150.9729  137.9416  155.5186 C   0  0  0  0  0  0  0  0  0  0  0  0
  151.0414  138.1859  154.1989 F   0  0  0  0  0  0  0  0  0  0  0  0
  151.8666  138.6443  156.4334 C   0  0  0  0  0  0  0  0  0  0  0  0
  152.6895  139.4985  156.1104 O   0  0  0  0  0  0  0  0  0  0  0  0
  151.7379  138.2615  157.7715 N   0  0  0  0  0  0  0  0  0  0  0  0
  150.8398  137.3114  158.2624 C   0  0  0  0  0  0  0  0  0  0  0  0
  150.8426  137.0358  159.4613 O   0  0  0  0  0  0  0  0  0  0  0  0
  147.9748  136.1043  158.7974 C   0  0  2  0  0  0  0  0  0  0  0  0
  148.1270  135.4008  160.0239 O   0  0  0  0  0  0  0  0  0  0  0  0
  147.7461  135.9711  161.1802 C   0  0  0  0  0  0  0  0  0  0  0  0
  147.3476  134.9436  162.2309 C   0  0  0  0  0  0  0  0  0  0  0  0
  147.7027  137.1794  161.4123 O   0  0  0  0  0  0  0  0  0  0  0  0
  146.6398  135.7732  158.1357 C   0  0  1  0  0  0  0  0  0  0  0  0
  146.0445  136.9912  157.7000 O   0  0  0  0  0  0  0  0  0  0  0  0
  145.7772  137.9807  158.5712 C   0  0  0  0  0  0  0  0  0  0  0  0
  145.1688  139.2001  157.8921 C   0  0  0  0  0  0  0  0  0  0  0  0
  145.9673  137.9511  159.7869 O   0  0  0  0  0  0  0  0  0  0  0  0
  152.3550  138.7022  158.4382 H   0  0  0  0  0  0  0  0  0  0  0  0
  147.9518  133.7964  152.3634 H   0  0  0  0  0  0  0  0  0  0  0  0
  146.5025  133.2561  151.5043 H   0  0  0  0  0  0  0  0  0  0  0  0
  147.2081  132.2424  152.7708 H   0  0  0  0  0  0  0  0  0  0  0  0
  145.8305  135.7585  155.4601 H   0  0  0  0  0  0  0  0  0  0  0  0
  145.1860  134.2237  156.0241 H   0  0  0  0  0  0  0  0  0  0  0  0
  147.0821  133.8138  157.4279 H   0  0  0  0  0  0  0  0  0  0  0  0
  149.6166  134.8005  158.1759 H   0  0  0  0  0  0  0  0  0  0  0  0
  149.4772  136.5121  155.2601 H   0  0  0  0  0  0  0  0  0  0  0  0
  148.0879  137.1755  158.9702 H   0  0  0  0  0  0  0  0  0  0  0  0
  148.2245  134.3938  162.5729 H   0  0  0  0  0  0  0  0  0  0  0  0
  146.6318  134.2334  161.8166 H   0  0  0  0  0  0  0  0  0  0  0  0
  146.8898  135.4333  163.0908 H   0  0  0  0  0  0  0  0  0  0  0  0
  145.9833  135.2634  158.8424 H   0  0  0  0  0  0  0  0  0  0  0  0
  144.0957  139.0612  157.7605 H   0  0  0  0  0  0  0  0  0  0  0  0
  145.6211  139.3592  156.9130 H   0  0  0  0  0  0  0  0  0  0  0  0
  145.3313  140.0931  158.4957 H   0  0  0  0  0  0  0  0  0  0  0  0
  1  2  1  0  0  0  0
  1 29  1  0  0  0  0
  1 30  1  0  0  0  0
  1 31  1  0  0  0  0
  2  3  2  0  0  0  0
  2  4  1  0  0  0  0
  4  5  1  0  0  0  0
  5  6  1  0  0  0  0
  5 32  1  0  0  0  0
  5 33  1  0  0  0  0
  6 23  1  0  0  0  0
  6  7  1  0  0  0  0
  6 34  1  0  0  0  0
  7  8  1  0  0  0  0
  8  9  1  0  0  0  0
  8 18  1  0  0  0  0
  8 35  1  0  0  0  0
  9 16  1  0  0  0  0
  9 10  1  0  0  0  0
 10 11  2  0  0  0  0
 10 36  1  0  0  0  0
 11 12  1  0  0  0  0
 11 13  1  0  0  0  0
 13 14  2  0  0  0  0
 13 15  1  0  0  0  0
 15 28  1  0  0  0  0
 15 16  1  0  0  0  0
 16 17  2  0  0  0  0
 18 19  1  0  0  0  0
 18 23  1  0  0  0  0
 18 37  1  0  0  0  0
 19 20  1  0  0  0  0
 20 21  1  0  0  0  0
 20 22  2  0  0  0  0
 21 38  1  0  0  0  0
 21 39  1  0  0  0  0
 21 40  1  0  0  0  0
 23 24  1  0  0  0  0
 23 41  1  0  0  0  0
 24 25  1  0  0  0  0
 25 26  1  0  0  0  0
 25 27  2  0  0  0  0
 26 42  1  0  0  0  0
 26 43  1  0  0  0  0
 26 44  1  0  0  0  0
M  END
> <s_m_source_file>
AV-unprocessed.smi

> <i_m_source_file_index>
102

> <i_lp_mmshare_version>
43012

> <i_f3d_flags>
0

> <s_epik_input>
W0NIM11DKD1PKU9bQ0gyXVtDQEBIXTFPW0NASF0oW0NAQEhdKE9DKD1PKVtDSDNdKVtDQEhdMU9DKD1PKVtDSDNdKW4yW2NIXWMoRiljKD1PKVtuSF1jMj1P

> <s_epik_cmdline>
J2VwaWtfcHl0aG9uJywgJy1waCcsICc3LjAnLCAnLXRuJywgJzgnLCAnLW1hJywgJzIwMCcsICctbWV0YWxfYmluZGluZycsICctaW1hZScsICc8aW5maWxlLm1hZT4nLCAnLW9tYWUnLCAnPG91dGZpbGUubWFlPic=

> <r_lp_tautomer_probability>
0.999537

> <r_epik_Ionization_Penalty>
0.058267

> <r_epik_Ionization_Penalty_Charging>
0.058267

> <r_epik_Ionization_Penalty_Neutral>
6.57791e-16

> <r_epik_State_Penalty>
0.0503774

> <r_epik_Charging_Adjusted_Penalty>
0.108644

> <i_epik_Tot_Q>
0

> <i_epik_Tot_abs_Q>
0

> <r_epik_Metal_State_Penalty>
2.6644

> <b_epik_Metal_Only>
0

> <s_epik_Chemistry_Notes>
This compound has an ester and may undergo hydrolysis at high or low pH. This compound contains an acetal/aminal-like group ( X-CH(R)-Y where X, Y are N, S, or O) that may be acid/base labile, releasing an aldehyde.

> <s_lp_Force_Field>
OPLS_2005

> <r_lp_Energy>
13.4822

> <b_lp_Chiralities_Consistent>
1

> <s_lp_Variant>
AV-unprocessed.smi:102-6

> <Gold.Version>
5.8.1

> <Gold.Id.Protein>
6NUR|6NUR_protein|mol2

> <Gold.PLP.Fitness>
37.0015

> <Gold.PLP.PLP>
-26.9478

> <Gold.PLP.part.hbond>
-5.0000

> <Gold.PLP.part.metal>
0.0000

> <Gold.PLP.part.buried>
-5.2049

> <Gold.PLP.part.nonpolar>
-17.3564

> <Gold.PLP.part.repulsive>
0.1904

> <Gold.PLP.ligand.clash>
0.0074

> <Gold.PLP.ligand.torsion>
0.9090

> <Gold.PLP.Chemscore.Hbond>
3.8960

> <Gold.PLP.Chemscore.CHOScore>
0.0000

> <Gold.PLP.Chemscore.Metal>
0.0000

> <Gold.Chemscore.Hbonds>
donor molecule, donor type, donor heavy atom, donor atom, acceptor molecule, acceptor atom, score
      P1  H  6896  6907       L1    17  1.00
      P1  H  6931  6943       L1    22  1.00
      P1  H  6934  6947       L1    27  0.86
      P1  H  7997  8009       L1    14  1.00

> <Gold.PLP.Chemscore.Internal.Correction>
0.1911

> <Gold.Rescore>
     Score         DG    S(hbond)    S(metal)    S(lipo)     H(rot)  DE(clash)    DE(int)     intcor
      8.70     -11.02       3.80        0.00      27.52       4.05       0.02       2.30       ----

> <Gold.Chemscore.Fitness>
8.7006

> <Gold.Chemscore.DG>
-11.0247

> <Gold.Chemscore.ZeroCoef>
-5.4800

> <Gold.Chemscore.Hbond>
3.8019

> <Gold.Chemscore.Metal>
0.0000

> <Gold.Chemscore.Lipo>
27.5169

> <Gold.Chemscore.Internal_Hbond>
0.0000

> <Gold.Chemscore.DEClash>
0.0210

> <Gold.Chemscore.DEInternal>
2.3032

> <Gold.Chemscore.Rot>
4.0520

> <Gold.Chemscore.Internal.Correction>
   9.000000E+99

> <Gold.Chemscore.Hbonds>
donor molecule, donor type, donor heavy atom, donor atom, acceptor molecule, acceptor atom, score
      P1  H  6896  6907       L1    17  0.90
      P1  H  6931  6943       L1    22  0.94
      P1  H  6934  6947       L1    27  0.84
      P1  H  7997  8009       L1    14  1.00

> <Gold.Chemscore.Hbond.Weighted>
-12.6984

> <Gold.Chemscore.Metal.Weighted>
-0.0000

> <Gold.Chemscore.Lipo.Weighted>
-3.2195

> <Gold.Chemscore.Internal_Hbond.Weighted>
0.0000

> <Gold.Chemscore.DEClash.Weighted>
0.0210

> <Gold.Chemscore.DEInternal.Weighted>
2.3032

> <Gold.Chemscore.Rot.Weighted>
10.3732

> <Gold.Chemscore.Internal.Correction.Weighted>
   9.000000E+99

> <Gold.Protein.RotatedTorsions>
[ 6907 6896 6895 6894 ] final  -17.33 input  -60.11 | X-H torsion
[ 7974 7965 7964 7962 ] final  -65.79 input  175.53 | X-H torsion
[ 8008 7997 7996 7995 ] final -162.75 input   59.86 | X-H torsion
[ 10167 10162 10161 10158 ] final  -54.77 input  -65.29 | X-H torsion
[ 10718 10713 10712 10709 ] final -105.08 input   66.30 | X-H torsion
[ 10763 10752 10751 10750 ] final  102.43 input  -60.55 | X-H torsion
[ 11005 11000 10999 10996 ] final -178.44 input  -57.11 | X-H torsion

> <Gold.Protein.ActiveResidues>
 VAL166  LYS551  ARG553  GLY616  TRP617  ASP618  TYR619  PRO620  LYS621  CYS622 
 ASP623  PHE694  ASN695  SER759  ASP760  ASP761  ALA762  ILE779  LEU786  VAL792 
 PHE793  MET794  SER795  GLU796  ALA797  LYS798  CYS799  TRP800  GLU811  SER814 

> <Gold.Protein.RotatedAtoms>
  151.2949  135.0752  159.9217 H   0  0  0  0  0  0  0  0  0  0  0  0  # atno 6907 bound_to 6896
  152.5309  133.9893  159.7853 H   0  0  0  0  0  0  0  0  0  0  0  0  # atno 6908 bound_to 6896
  151.0169  133.5861  159.2706 H   0  0  0  0  0  0  0  0  0  0  0  0  # atno 6909 bound_to 6896
  145.7499  140.8913  143.0485 H   0  0  0  0  0  0  0  0  0  0  0  0  # atno 7974 bound_to 7965
  155.8113  140.0906  157.1902 H   0  0  0  0  0  0  0  0  0  0  0  0  # atno 8008 bound_to 7997
  154.3980  140.1454  156.3450 H   0  0  0  0  0  0  0  0  0  0  0  0  # atno 8009 bound_to 7997
  155.8362  140.3440  155.5605 H   0  0  0  0  0  0  0  0  0  0  0  0  # atno 8010 bound_to 7997
  140.6412  143.2509  151.4984 H   0  0  0  0  0  0  0  0  0  0  0  0  # atno 10167 bound_to 10162
  156.0331  130.5546  150.7488 H   0  0  0  0  0  0  0  0  0  0  0  0  # atno 10718 bound_to 10713
  153.3394  135.4011  155.1560 H   0  0  0  0  0  0  0  0  0  0  0  0  # atno 10763 bound_to 10752
  154.8640  135.3630  154.5365 H   0  0  0  0  0  0  0  0  0  0  0  0  # atno 10764 bound_to 10752
  153.5809  135.7076  153.5523 H   0  0  0  0  0  0  0  0  0  0  0  0  # atno 10765 bound_to 10752
  140.4297  134.6530  157.4706 H   0  0  0  0  0  0  0  0  0  0  0  0  # atno 11005 bound_to 11000
  144.6852  139.9576  143.7479 LP  0  0  0  0  0  0  0  0  0  0  0  0  # atno 17320 bound_to 7965
  146.0367  139.3384  143.0722 LP  0  0  0  0  0  0  0  0  0  0  0  0  # atno 17321 bound_to 7965
  139.5621  144.2130  152.1708 LP  0  0  0  0  0  0  0  0  0  0  0  0  # atno 17342 bound_to 10162
  140.1401  144.5209  150.6749 LP  0  0  0  0  0  0  0  0  0  0  0  0  # atno 17343 bound_to 10162
  157.5038  131.0920  151.0282 LP  0  0  0  0  0  0  0  0  0  0  0  0  # atno 17370 bound_to 10713
  157.0656  130.5843  149.5393 LP  0  0  0  0  0  0  0  0  0  0  0  0  # atno 17371 bound_to 10713
  140.0143  134.6643  155.9334 LP  0  0  0  0  0  0  0  0  0  0  0  0  # atno 17394 bound_to 11000
  141.1750  133.6540  156.4796 LP  0  0  0  0  0  0  0  0  0  0  0  0  # atno 17395 bound_to 11000

$$$$
