AV-unprocessed.smi:1254|AV-procd|sdf|5278|dock6
  -GOLD-   22720 4393D 1   1.00000     0.00000
 Structure written by MMmdl.
 45 46  0  0  0  0  0  0  0  0  3 V2000
  146.8741  123.4433  147.2897 C   0  0  0  0  0  0  0  0  0  0  0  0
  147.3484  124.0381  148.5715 C   0  0  0  0  0  0  0  0  0  0  0  0
  148.2418  125.0308  148.8585 C   0  0  0  0  0  0  0  0  0  0  0  0
  148.2243  125.0828  150.2791 C   0  0  0  0  0  0  0  0  0  0  0  0
  148.9395  125.9207  151.0455 N   0  5  0  0  0  0  0  0  0  0  0  0
  148.3237  126.6866  151.9749 C   0  0  0  0  0  0  0  0  0  0  0  0
  147.1189  126.6959  152.2375 O   0  0  0  0  0  0  0  0  0  0  0  0
  149.1570  127.4930  152.6437 N   0  0  0  0  0  0  0  0  0  0  0  0
  148.7623  128.4191  153.6961 C   0  0  0  0  0  0  0  0  0  0  0  0
  148.4785  129.8097  153.1129 C   0  0  1  0  0  0  0  0  0  0  0  0
  147.0031  129.9678  152.6958 C   0  0  0  0  0  0  0  0  0  0  0  0
  146.7445  131.3437  152.2035 N   0  3  1  0  0  0  0  0  0  0  0  0
  145.3508  131.5593  151.7366 C   0  0  0  0  0  0  0  0  0  0  0  0
  145.2526  132.5388  150.5471 C   0  0  0  0  0  0  0  0  0  0  0  0
  146.1041  132.0785  149.3518 C   0  0  0  0  0  0  0  0  0  0  0  0
  145.6600  133.9548  150.9808 C   0  0  0  0  0  0  0  0  0  0  0  0
  147.1606  132.3410  153.2175 C   0  0  0  0  0  0  0  0  0  0  0  0
  148.6241  132.1121  153.6269 C   0  0  0  0  0  0  0  0  0  0  0  0
  148.7774  130.7840  154.1082 O   0  0  0  0  0  0  0  0  0  0  0  0
  147.3805  124.2114  150.8069 N   0  0  0  0  0  0  0  0  0  0  0  0
  146.8202  123.5321  149.7185 O   0  0  0  0  0  0  0  0  0  0  0  0
  146.5673  124.2231  146.5929 H   0  0  0  0  0  0  0  0  0  0  0  0
  146.0224  122.7829  147.4538 H   0  0  0  0  0  0  0  0  0  0  0  0
  147.6672  122.8620  146.8192 H   0  0  0  0  0  0  0  0  0  0  0  0
  148.8194  125.6230  148.1647 H   0  0  0  0  0  0  0  0  0  0  0  0
  150.1366  127.4548  152.4035 H   0  0  0  0  0  0  0  0  0  0  0  0
  147.8690  128.0292  154.1865 H   0  0  0  0  0  0  0  0  0  0  0  0
  149.5461  128.4797  154.4529 H   0  0  0  0  0  0  0  0  0  0  0  0
  149.1204  129.9670  152.2433 H   0  0  0  0  0  0  0  0  0  0  0  0
  146.7706  129.2383  151.9209 H   0  0  0  0  0  0  0  0  0  0  0  0
  146.3485  129.7537  153.5423 H   0  0  0  0  0  0  0  0  0  0  0  0
  144.9067  130.5962  151.4801 H   0  0  0  0  0  0  0  0  0  0  0  0
  144.7531  131.9588  152.5575 H   0  0  0  0  0  0  0  0  0  0  0  0
  144.2160  132.5993  150.2172 H   0  0  0  0  0  0  0  0  0  0  0  0
  147.1567  131.9922  149.6240 H   0  0  0  0  0  0  0  0  0  0  0  0
  146.0333  132.7856  148.5247 H   0  0  0  0  0  0  0  0  0  0  0  0
  145.7762  131.1086  148.9771 H   0  0  0  0  0  0  0  0  0  0  0  0
  146.6959  133.9842  151.3207 H   0  0  0  0  0  0  0  0  0  0  0  0
  145.0318  134.3130  151.7971 H   0  0  0  0  0  0  0  0  0  0  0  0
  145.5608  134.6630  150.1575 H   0  0  0  0  0  0  0  0  0  0  0  0
  147.0473  133.3490  152.8166 H   0  0  0  0  0  0  0  0  0  0  0  0
  146.5115  132.2674  154.0916 H   0  0  0  0  0  0  0  0  0  0  0  0
  149.2985  132.2905  152.7877 H   0  0  0  0  0  0  0  0  0  0  0  0
  148.9074  132.8083  154.4165 H   0  0  0  0  0  0  0  0  0  0  0  0
  147.3425  131.4893  151.4025 H   0  0  0  0  0  0  0  0  0  0  0  0
  1  2  1  0  0  0  0
  1 22  1  0  0  0  0
  1 23  1  0  0  0  0
  1 24  1  0  0  0  0
  2 21  1  0  0  0  0
  2  3  2  0  0  0  0
  3  4  1  0  0  0  0
  3 25  1  0  0  0  0
  4  5  1  0  0  0  0
  4 20  2  0  0  0  0
  5  6  1  0  0  0  0
  6  7  2  0  0  0  0
  6  8  1  0  0  0  0
  8  9  1  0  0  0  0
  8 26  1  0  0  0  0
  9 10  1  0  0  0  0
  9 27  1  0  0  0  0
  9 28  1  0  0  0  0
 10 19  1  0  0  0  0
 10 11  1  0  0  0  0
 10 29  1  0  0  0  0
 11 12  1  0  0  0  0
 11 30  1  0  0  0  0
 11 31  1  0  0  0  0
 12 13  1  0  0  0  0
 12 17  1  0  0  0  0
 12 45  1  0  0  0  0
 13 14  1  0  0  0  0
 13 32  1  0  0  0  0
 13 33  1  0  0  0  0
 14 15  1  0  0  0  0
 14 16  1  0  0  0  0
 14 34  1  0  0  0  0
 15 35  1  0  0  0  0
 15 36  1  0  0  0  0
 15 37  1  0  0  0  0
 16 38  1  0  0  0  0
 16 39  1  0  0  0  0
 16 40  1  0  0  0  0
 17 18  1  0  0  0  0
 17 41  1  0  0  0  0
 17 42  1  0  0  0  0
 18 19  1  0  0  0  0
 18 43  1  0  0  0  0
 18 44  1  0  0  0  0
 20 21  1  0  0  0  0
M  CHG  1   5  -1
M  CHG  1  12   1
M  END
> <s_m_source_file>
AV-unprocessed.smi

> <i_m_source_file_index>
1254

> <i_lp_mmshare_version>
43012

> <i_f3d_flags>
0

> <s_epik_input>
W0NIM11jMVtjSF1jKG5vMSlbTkhdQyg9TylbTkhdW0NIMl1bQ0BASF0yW0NIMl1OKFtDSDJdW0NIMl1PMilbQ0gyXVtDSF0oW0NIM10pW0NIM10=

> <s_epik_cmdline>
J2VwaWtfcHl0aG9uJywgJy1waCcsICc3LjAnLCAnLXRuJywgJzgnLCAnLW1hJywgJzIwMCcsICctbWV0YWxfYmluZGluZycsICctaW1hZScsICc8aW5maWxlLm1hZT4nLCAnLW9tYWUnLCAnPG91dGZpbGUubWFlPic=

> <r_epik_Ionization_Penalty>
6.33139

> <r_epik_Ionization_Penalty_Charging>
6.33128

> <r_epik_Ionization_Penalty_Neutral>
0.000104968

> <r_epik_State_Penalty>
6.32522

> <r_epik_Charging_Adjusted_Penalty>
12.6565

> <i_epik_Tot_Q>
0

> <i_epik_Tot_abs_Q>
2

> <r_epik_Metal_State_Penalty>
2.26285

> <b_epik_Metal_Only>
1

> <s_lp_Force_Field>
OPLS_2005

> <r_lp_Energy>
6.3285

> <b_lp_Chiralities_Consistent>
1

> <s_lp_Variant>
AV-unprocessed.smi:1254-10

> <Gold.Version>
5.8.1

> <Gold.Id.Protein>
6NUR|6NUR_protein|mol2

> <Gold.PLP.Fitness>
40.1497

> <Gold.PLP.PLP>
-36.9990

> <Gold.PLP.part.hbond>
-3.0027

> <Gold.PLP.part.metal>
0.0000

> <Gold.PLP.part.buried>
-4.7265

> <Gold.PLP.part.nonpolar>
-28.9647

> <Gold.PLP.part.repulsive>
0.4954

> <Gold.PLP.ligand.clash>
0.0000

> <Gold.PLP.ligand.torsion>
1.4358

> <Gold.PLP.Chemscore.Hbond>
1.9516

> <Gold.PLP.Chemscore.CHOScore>
0.0000

> <Gold.PLP.Chemscore.Metal>
0.0000

> <Gold.Chemscore.Hbonds>
donor molecule, donor type, donor heavy atom, donor atom, acceptor molecule, acceptor atom, score
      L1  H     8    26       P1 10737  0.99
      L1  H    12    45       P1 10747  0.83

> <Gold.PLP.Chemscore.Internal.Correction>
0.1676

> <Gold.Rescore>
     Score         DG    S(hbond)    S(metal)    S(lipo)     H(rot)  DE(clash)    DE(int)     intcor
     13.87     -17.39       1.90        0.00      84.54       1.69       0.83       2.70       ----

> <Gold.Chemscore.Fitness>
13.8691

> <Gold.Chemscore.DG>
-17.3917

> <Gold.Chemscore.ZeroCoef>
-5.4800

> <Gold.Chemscore.Hbond>
1.9023

> <Gold.Chemscore.Metal>
0.0000

> <Gold.Chemscore.Lipo>
84.5374

> <Gold.Chemscore.Internal_Hbond>
0.0000

> <Gold.Chemscore.DEClash>
0.8258

> <Gold.Chemscore.DEInternal>
2.6968

> <Gold.Chemscore.Rot>
1.6926

> <Gold.Chemscore.Internal.Correction>
   9.000000E+99

> <Gold.Chemscore.Hbonds>
donor molecule, donor type, donor heavy atom, donor atom, acceptor molecule, acceptor atom, score
      L1  H     8    26       P1 10737  0.92
      L1  H    12    45       P1 10747  0.77

> <Gold.Chemscore.Hbond.Weighted>
-6.3538

> <Gold.Chemscore.Metal.Weighted>
-0.0000

> <Gold.Chemscore.Lipo.Weighted>
-9.8909

> <Gold.Chemscore.Internal_Hbond.Weighted>
0.0000

> <Gold.Chemscore.DEClash.Weighted>
0.8258

> <Gold.Chemscore.DEInternal.Weighted>
2.6968

> <Gold.Chemscore.Rot.Weighted>
4.3330

> <Gold.Chemscore.Internal.Correction.Weighted>
   9.000000E+99

> <Gold.Protein.RotatedTorsions>
[ 6907 6896 6895 6894 ] final -153.95 input  -60.11 | X-H torsion
[ 7974 7965 7964 7962 ] final   81.37 input  175.53 | X-H torsion
[ 8008 7997 7996 7995 ] final   97.22 input   59.86 | X-H torsion
[ 10167 10162 10161 10158 ] final -129.05 input  -65.29 | X-H torsion
[ 10718 10713 10712 10709 ] final  -64.60 input   66.30 | X-H torsion
[ 10763 10752 10751 10750 ] final -110.42 input  -60.55 | X-H torsion
[ 11005 11000 10999 10996 ] final -148.56 input  -57.11 | X-H torsion

> <Gold.Protein.ActiveResidues>
 VAL166  LYS551  ARG553  GLY616  TRP617  ASP618  TYR619  PRO620  LYS621  CYS622 
 ASP623  PHE694  ASN695  SER759  ASP760  ASP761  ALA762  ILE779  LEU786  VAL792 
 PHE793  MET794  SER795  GLU796  ALA797  LYS798  CYS799  TRP800  GLU811  SER814 

> <Gold.Protein.RotatedAtoms>
  151.2503  133.4354  159.2610 H   0  0  0  0  0  0  0  0  0  0  0  0  # atno 6907 bound_to 6896
  151.0624  134.9745  159.8277 H   0  0  0  0  0  0  0  0  0  0  0  0  # atno 6908 bound_to 6896
  152.5400  134.2452  159.8930 H   0  0  0  0  0  0  0  0  0  0  0  0  # atno 6909 bound_to 6896
  145.6391  139.2421  143.2041 H   0  0  0  0  0  0  0  0  0  0  0  0  # atno 7974 bound_to 7965
  156.0878  140.3261  155.7777 H   0  0  0  0  0  0  0  0  0  0  0  0  # atno 8008 bound_to 7997
  155.5046  140.0572  157.2951 H   0  0  0  0  0  0  0  0  0  0  0  0  # atno 8009 bound_to 7997
  154.4620  140.1971  156.0236 H   0  0  0  0  0  0  0  0  0  0  0  0  # atno 8010 bound_to 7997
  139.9438  143.6133  152.2496 H   0  0  0  0  0  0  0  0  0  0  0  0  # atno 10167 bound_to 10162
  156.0719  130.4235  150.1443 H   0  0  0  0  0  0  0  0  0  0  0  0  # atno 10718 bound_to 10713
  154.8247  135.4565  154.0883 H   0  0  0  0  0  0  0  0  0  0  0  0  # atno 10763 bound_to 10752
  153.2207  135.6893  153.8010 H   0  0  0  0  0  0  0  0  0  0  0  0  # atno 10764 bound_to 10752
  153.7428  135.3310  155.3284 H   0  0  0  0  0  0  0  0  0  0  0  0  # atno 10765 bound_to 10752
  140.7599  134.3310  157.5104 H   0  0  0  0  0  0  0  0  0  0  0  0  # atno 11005 bound_to 11000
  146.1295  140.7204  142.9419 LP  0  0  0  0  0  0  0  0  0  0  0  0  # atno 17320 bound_to 7965
  144.7164  140.4224  143.7041 LP  0  0  0  0  0  0  0  0  0  0  0  0  # atno 17321 bound_to 7965
  139.6683  144.7661  151.1831 LP  0  0  0  0  0  0  0  0  0  0  0  0  # atno 17342 bound_to 10162
  140.7603  143.5904  150.8802 LP  0  0  0  0  0  0  0  0  0  0  0  0  # atno 17343 bound_to 10162
  156.9492  130.9769  151.3501 LP  0  0  0  0  0  0  0  0  0  0  0  0  # atno 17370 bound_to 10713
  157.5795  130.8366  149.8502 LP  0  0  0  0  0  0  0  0  0  0  0  0  # atno 17371 bound_to 10713
  139.8772  134.9195  156.3229 LP  0  0  0  0  0  0  0  0  0  0  0  0  # atno 17394 bound_to 11000
  140.9673  133.7350  156.0484 LP  0  0  0  0  0  0  0  0  0  0  0  0  # atno 17395 bound_to 11000

$$$$
