AV-unprocessed.smi:1386|AV-procd|sdf|5638|dock5
  -GOLD-   22720 5253D 1   1.00000     0.00000
 Structure written by MMmdl.
 35 36  0  0  0  0  0  0  0  0  1 V2000
  151.3452  139.8749  156.2625 C   0  0  0  0  0  0  0  0  0  0  0  0
  150.5284  141.1318  156.5973 C   0  0  2  0  0  0  0  0  0  0  0  0
  150.0355  141.8440  155.3233 C   0  0  0  0  0  0  0  0  0  0  0  0
  148.8650  141.2015  154.7541 N   0  0  0  0  0  0  0  0  0  0  0  0
  147.6460  141.7944  154.4540 C   0  0  0  0  0  0  0  0  0  0  0  0
  146.8479  140.8055  153.9247 C   0  0  0  0  0  0  0  0  0  0  0  0
  147.5505  139.6032  153.8914 N   0  0  0  0  0  0  0  0  0  0  0  0
  148.7353  139.9153  154.4000 C   0  0  0  0  0  0  0  0  0  0  0  0
  151.3358  142.0492  157.3986 N   0  0  0  0  0  0  0  0  0  0  0  0
  152.1366  141.7074  158.4222 C   0  0  0  0  0  0  0  0  0  0  0  0
  152.3051  140.5350  158.7603 O   0  0  0  0  0  0  0  0  0  0  0  0
  152.7257  142.7550  159.0532 N   0  0  0  0  0  0  0  0  0  0  0  0
  153.1109  142.8060  160.4735 C   0  0  0  0  0  0  0  0  0  0  0  0
  152.0130  143.5354  161.2650 C   0  0  0  0  0  0  0  0  0  0  0  0
  151.8430  145.2584  160.7036 S   0  0  0  0  0  0  0  0  0  0  0  0
  151.7257  144.9865  158.9074 C   0  0  0  0  0  0  0  0  0  0  0  0
  152.8554  144.0682  158.4109 C   0  0  0  0  0  0  0  0  0  0  0  0
  150.7537  139.1665  155.6822 H   0  0  0  0  0  0  0  0  0  0  0  0
  151.6722  139.3635  157.1685 H   0  0  0  0  0  0  0  0  0  0  0  0
  152.2337  140.1217  155.6800 H   0  0  0  0  0  0  0  0  0  0  0  0
  149.6512  140.8231  157.1693 H   0  0  0  0  0  0  0  0  0  0  0  0
  149.7982  142.8885  155.5311 H   0  0  0  0  0  0  0  0  0  0  0  0
  150.8201  141.8464  154.5658 H   0  0  0  0  0  0  0  0  0  0  0  0
  147.4541  142.8420  154.6335 H   0  0  0  0  0  0  0  0  0  0  0  0
  145.8306  140.8664  153.5676 H   0  0  0  0  0  0  0  0  0  0  0  0
  149.5307  139.1930  154.5107 H   0  0  0  0  0  0  0  0  0  0  0  0
  151.2524  143.0312  157.1802 H   0  0  0  0  0  0  0  0  0  0  0  0
  153.2919  141.8215  160.9052 H   0  0  0  0  0  0  0  0  0  0  0  0
  154.0592  143.3346  160.5815 H   0  0  0  0  0  0  0  0  0  0  0  0
  151.0562  143.0252  161.1486 H   0  0  0  0  0  0  0  0  0  0  0  0
  152.2476  143.5367  162.3296 H   0  0  0  0  0  0  0  0  0  0  0  0
  150.7526  144.5517  158.6759 H   0  0  0  0  0  0  0  0  0  0  0  0
  151.7719  145.9521  158.4038 H   0  0  0  0  0  0  0  0  0  0  0  0
  153.8269  144.5068  158.6427 H   0  0  0  0  0  0  0  0  0  0  0  0
  152.8242  143.9964  157.3226 H   0  0  0  0  0  0  0  0  0  0  0  0
  1  2  1  0  0  0  0
  1 18  1  0  0  0  0
  1 19  1  0  0  0  0
  1 20  1  0  0  0  0
  2  3  1  0  0  0  0
  2  9  1  0  0  0  0
  2 21  1  0  0  0  0
  3  4  1  0  0  0  0
  3 22  1  0  0  0  0
  3 23  1  0  0  0  0
  4  8  1  0  0  0  0
  4  5  1  0  0  0  0
  5  6  2  0  0  0  0
  5 24  1  0  0  0  0
  6  7  1  0  0  0  0
  6 25  1  0  0  0  0
  7  8  2  0  0  0  0
  8 26  1  0  0  0  0
  9 10  1  0  0  0  0
  9 27  1  0  0  0  0
 10 11  2  0  0  0  0
 10 12  1  0  0  0  0
 12 17  1  0  0  0  0
 12 13  1  0  0  0  0
 13 14  1  0  0  0  0
 13 28  1  0  0  0  0
 13 29  1  0  0  0  0
 14 15  1  0  0  0  0
 14 30  1  0  0  0  0
 14 31  1  0  0  0  0
 15 16  1  0  0  0  0
 16 17  1  0  0  0  0
 16 32  1  0  0  0  0
 16 33  1  0  0  0  0
 17 34  1  0  0  0  0
 17 35  1  0  0  0  0
M  END
> <s_m_source_file>
AV-unprocessed.smi

> <i_m_source_file_index>
1386

> <i_lp_mmshare_version>
43012

> <i_f3d_flags>
0

> <s_epik_input>
W2NIXTFuW2NIXVtjSF1uMVtDSDJdW0NAQEhdKFtDSDNdKVtOSF1DKD1PKU4yW0NIMl1bQ0gyXVNbQ0gyXVtDSDJdMg==

> <s_epik_cmdline>
J2VwaWtfcHl0aG9uJywgJy1waCcsICc3LjAnLCAnLXRuJywgJzgnLCAnLW1hJywgJzIwMCcsICctbWV0YWxfYmluZGluZycsICctaW1hZScsICc8aW5maWxlLm1hZT4nLCAnLW9tYWUnLCAnPG91dGZpbGUubWFlPic=

> <r_lp_tautomer_probability>
1

> <r_epik_Ionization_Penalty>
0.622677

> <r_epik_Ionization_Penalty_Charging>
0.62263

> <r_epik_Ionization_Penalty_Neutral>
4.67019e-05

> <r_epik_State_Penalty>
0.63879

> <r_epik_Charging_Adjusted_Penalty>
1.26142

> <i_epik_Tot_Q>
0

> <i_epik_Tot_abs_Q>
0

> <r_epik_Metal_State_Penalty>
0.307117

> <b_epik_Metal_Only>
0

> <s_lp_Force_Field>
OPLS_2005

> <r_lp_Energy>
25.5009

> <b_lp_Chiralities_Consistent>
1

> <s_lp_Variant>
AV-unprocessed.smi:1386-3

> <Gold.Version>
5.8.1

> <Gold.Id.Protein>
6NUR|6NUR_protein|mol2

> <Gold.PLP.Fitness>
44.1171

> <Gold.PLP.PLP>
-40.4739

> <Gold.PLP.part.hbond>
0.0000

> <Gold.PLP.part.metal>
0.0000

> <Gold.PLP.part.buried>
-2.9704

> <Gold.PLP.part.nonpolar>
-38.3770

> <Gold.PLP.part.repulsive>
0.2236

> <Gold.PLP.ligand.clash>
1.0061

> <Gold.PLP.ligand.torsion>
0.6936

> <Gold.PLP.Chemscore.Hbond>
0.0000

> <Gold.PLP.Chemscore.CHOScore>
2.0000

> <Gold.PLP.Chemscore.Metal>
0.0000

> <Gold.Chemscore.Hbonds>
donor molecule, donor type, donor heavy atom, donor atom, acceptor molecule, acceptor atom, score
      L1  C     5    24       P1  8028  0.99
      L1  C     6    25       P1 10175  1.00

> <Gold.PLP.Chemscore.Internal.Correction>
0.0366

> <Gold.Rescore>
     Score         DG    S(hbond)    S(metal)    S(lipo)     H(rot)  DE(clash)    DE(int)     intcor
     11.12     -12.65       0.00        0.00      96.10       1.59       0.15       1.38       ----

> <Gold.Chemscore.Fitness>
11.1215

> <Gold.Chemscore.DG>
-12.6527

> <Gold.Chemscore.ZeroCoef>
-5.4800

> <Gold.Chemscore.Hbond>
0.0000

> <Gold.Chemscore.Metal>
0.0000

> <Gold.Chemscore.Lipo>
96.0965

> <Gold.Chemscore.Internal_Hbond>
0.0000

> <Gold.Chemscore.DEClash>
0.1500

> <Gold.Chemscore.DEInternal>
1.3812

> <Gold.Chemscore.Rot>
1.5901

> <Gold.Chemscore.Internal.Correction>
   9.000000E+99

> <Gold.Chemscore.Hbond.Weighted>
-0.0000

> <Gold.Chemscore.Metal.Weighted>
-0.0000

> <Gold.Chemscore.Lipo.Weighted>
-11.2433

> <Gold.Chemscore.Internal_Hbond.Weighted>
0.0000

> <Gold.Chemscore.DEClash.Weighted>
0.1500

> <Gold.Chemscore.DEInternal.Weighted>
1.3812

> <Gold.Chemscore.Rot.Weighted>
4.0706

> <Gold.Chemscore.Internal.Correction.Weighted>
   9.000000E+99

> <Gold.Protein.RotatedTorsions>
[ 6907 6896 6895 6894 ] final   40.59 input  -60.11 | X-H torsion
[ 7974 7965 7964 7962 ] final -154.19 input  175.53 | X-H torsion
[ 8008 7997 7996 7995 ] final -175.23 input   59.86 | X-H torsion
[ 10167 10162 10161 10158 ] final  -80.98 input  -65.29 | X-H torsion
[ 10718 10713 10712 10709 ] final -138.33 input   66.30 | X-H torsion
[ 10763 10752 10751 10750 ] final  -27.43 input  -60.55 | X-H torsion
[ 11005 11000 10999 10996 ] final -158.93 input  -57.11 | X-H torsion

> <Gold.Protein.ActiveResidues>
 VAL166  LYS551  ARG553  GLY616  TRP617  ASP618  TYR619  PRO620  LYS621  CYS622 
 ASP623  PHE694  ASN695  SER759  ASP760  ASP761  ALA762  ILE779  LEU786  VAL792 
 PHE793  MET794  SER795  GLU796  ALA797  LYS798  CYS799  TRP800  GLU811  SER814 

> <Gold.Protein.RotatedAtoms>
  152.1844  134.8726  160.0523 H   0  0  0  0  0  0  0  0  0  0  0  0  # atno 6907 bound_to 6896
  151.9638  133.3699  159.4053 H   0  0  0  0  0  0  0  0  0  0  0  0  # atno 6908 bound_to 6896
  150.6923  134.4136  159.5217 H   0  0  0  0  0  0  0  0  0  0  0  0  # atno 6909 bound_to 6896
  144.7702  140.4422  143.5913 H   0  0  0  0  0  0  0  0  0  0  0  0  # atno 7974 bound_to 7965
  155.9800  140.1180  157.0735 H   0  0  0  0  0  0  0  0  0  0  0  0  # atno 8008 bound_to 7997
  154.4180  140.1146  156.5490 H   0  0  0  0  0  0  0  0  0  0  0  0  # atno 8009 bound_to 7997
  155.6483  140.3473  155.4741 H   0  0  0  0  0  0  0  0  0  0  0  0  # atno 8010 bound_to 7997
  140.4453  143.2501  151.8567 H   0  0  0  0  0  0  0  0  0  0  0  0  # atno 10167 bound_to 10162
  156.2981  130.7413  151.1457 H   0  0  0  0  0  0  0  0  0  0  0  0  # atno 10718 bound_to 10713
  153.7320  135.6938  153.4987 H   0  0  0  0  0  0  0  0  0  0  0  0  # atno 10763 bound_to 10752
  153.2129  135.4396  155.0399 H   0  0  0  0  0  0  0  0  0  0  0  0  # atno 10764 bound_to 10752
  154.8250  135.3441  154.6849 H   0  0  0  0  0  0  0  0  0  0  0  0  # atno 10765 bound_to 10752
  140.6482  134.4479  157.5234 H   0  0  0  0  0  0  0  0  0  0  0  0  # atno 11005 bound_to 11000
  145.6347  139.1541  143.2949 LP  0  0  0  0  0  0  0  0  0  0  0  0  # atno 17320 bound_to 7965
  146.1842  140.6448  142.9175 LP  0  0  0  0  0  0  0  0  0  0  0  0  # atno 17321 bound_to 7965
  139.4792  144.5182  151.8838 LP  0  0  0  0  0  0  0  0  0  0  0  0  # atno 17342 bound_to 10162
  140.4270  144.2166  150.5887 LP  0  0  0  0  0  0  0  0  0  0  0  0  # atno 17343 bound_to 10162
  157.7360  131.0566  150.5435 LP  0  0  0  0  0  0  0  0  0  0  0  0  # atno 17370 bound_to 10713
  156.5559  130.4243  149.6085 LP  0  0  0  0  0  0  0  0  0  0  0  0  # atno 17371 bound_to 10713
  139.9055  134.8458  156.1722 LP  0  0  0  0  0  0  0  0  0  0  0  0  # atno 17394 bound_to 11000
  141.0556  133.6866  156.1855 LP  0  0  0  0  0  0  0  0  0  0  0  0  # atno 17395 bound_to 11000

$$$$
