AV-unprocessed.smi:72|AV-procd|sdf|706|dock1
  -GOLD-   2262017 23D 1   1.00000     0.00000
 Structure written by MMmdl.
 30 31  0  0  0  0  0  0  0  0  2 V2000
  150.0343  134.6989  154.2117 N   0  0  0  0  0  0  0  0  0  0  0  0
  150.4871  135.9233  154.6561 C   0  0  0  0  0  0  0  0  0  0  0  0
  150.0742  137.0495  153.9690 N   0  3  0  0  0  0  0  0  0  0  0  0
  150.4014  138.3090  154.2872 C   0  0  0  0  0  0  0  0  0  0  0  0
  151.1404  138.5318  155.3575 N   0  0  0  0  0  0  0  0  0  0  0  0
  151.5354  139.9346  155.7641 C   0  0  1  0  0  0  0  0  0  0  0  0
  151.0380  140.8233  154.8069 O   0  0  0  0  0  0  0  0  0  0  0  0
  149.8446  141.4629  155.2574 C   0  0  1  0  0  0  0  0  0  0  0  0
  148.5927  140.6180  154.9174 C   0  0  0  0  0  0  0  0  0  0  0  0
  148.2145  140.8369  153.5756 O   0  0  0  0  0  0  0  0  0  0  0  0
  150.1391  141.6232  156.7542 C   0  0  1  0  0  0  0  0  0  0  0  0
  148.9701  141.7630  157.5379 O   0  0  0  0  0  0  0  0  0  0  0  0
  150.9104  140.3577  157.1144 C   0  0  2  0  0  0  0  0  0  0  0  0
  151.8993  140.6634  158.0771 O   0  0  0  0  0  0  0  0  0  0  0  0
  151.6930  137.4308  156.0638 C   0  0  0  0  0  0  0  0  0  0  0  0
  152.4884  137.6135  156.9836 O   0  0  0  0  0  0  0  0  0  0  0  0
  151.2877  136.1505  155.6598 N   0  0  0  0  0  0  0  0  0  0  0  0
  152.6266  139.9299  155.7481 H   0  0  0  0  0  0  0  0  0  0  0  0
  149.7516  142.4452  154.7921 H   0  0  0  0  0  0  0  0  0  0  0  0
  150.7699  142.5033  156.8920 H   0  0  0  0  0  0  0  0  0  0  0  0
  150.2369  139.5826  157.4837 H   0  0  0  0  0  0  0  0  0  0  0  0
  150.2942  133.8236  154.6443 H   0  0  0  0  0  0  0  0  0  0  0  0
  149.4123  134.5774  153.4253 H   0  0  0  0  0  0  0  0  0  0  0  0
  150.0630  139.1101  153.6441 H   0  0  0  0  0  0  0  0  0  0  0  0
  148.7334  139.5549  155.1066 H   0  0  0  0  0  0  0  0  0  0  0  0
  147.7443  140.9329  155.5246 H   0  0  0  0  0  0  0  0  0  0  0  0
  148.9169  140.5479  153.0127 H   0  0  0  0  0  0  0  0  0  0  0  0
  148.2174  141.6116  156.9862 H   0  0  0  0  0  0  0  0  0  0  0  0
  151.6598  141.4662  158.5144 H   0  0  0  0  0  0  0  0  0  0  0  0
  149.4857  136.9079  153.1603 H   0  0  0  0  0  0  0  0  0  0  0  0
  1  2  1  0  0  0  0
  1 22  1  0  0  0  0
  1 23  1  0  0  0  0
  2 17  2  0  0  0  0
  2  3  1  0  0  0  0
  3  4  2  0  0  0  0
  3 30  1  0  0  0  0
  4  5  1  0  0  0  0
  4 24  1  0  0  0  0
  5  6  1  0  0  0  0
  5 15  1  0  0  0  0
  6 18  1  0  0  0  0
  6 13  1  0  0  0  0
  6  7  1  0  0  0  0
  7  8  1  0  0  0  0
  8 19  1  0  0  0  0
  8  9  1  0  0  0  0
  8 11  1  0  0  0  0
  9 10  1  0  0  0  0
  9 25  1  0  0  0  0
  9 26  1  0  0  0  0
 10 27  1  0  0  0  0
 11 20  1  0  0  0  0
 11 12  1  0  0  0  0
 11 13  1  0  0  0  0
 12 28  1  0  0  0  0
 13 21  1  0  0  0  0
 13 14  1  0  0  0  0
 14 29  1  0  0  0  0
 15 16  2  0  0  0  0
 15 17  1  0  0  0  0
M  CHG  1   3   1
M  END
> <s_m_source_file>
AV-unprocessed.smi

> <i_m_source_file_index>
72

> <i_lp_mmshare_version>
43012

> <i_f3d_flags>
0

> <s_epik_input>
W05IMl1jMW5bY0hdbihjKD1PKW4xKVtDQEBIXTJPW0NASF0oW0NIMl1bT0hdKVtDQEBIXShbT0hdKVtDQEhdMltPSF0=

> <s_epik_cmdline>
J2VwaWtfcHl0aG9uJywgJy1waCcsICc3LjAnLCAnLXRuJywgJzgnLCAnLW1hJywgJzIwMCcsICctbWV0YWxfYmluZGluZycsICctaW1hZScsICc8aW5maWxlLm1hZT4nLCAnLW9tYWUnLCAnPG91dGZpbGUubWFlPic=

> <r_lp_tautomer_probability>
4.77166e-05

> <r_epik_Ionization_Penalty>
0.104979

> <r_epik_Ionization_Penalty_Charging>
0.0999619

> <r_epik_Ionization_Penalty_Neutral>
0.00501745

> <r_epik_State_Penalty>
2.51541

> <r_epik_Charging_Adjusted_Penalty>
2.61537

> <i_epik_Tot_Q>
1

> <i_epik_Tot_abs_Q>
1

> <r_epik_Metal_State_Penalty>
3.53763

> <b_epik_Metal_Only>
0

> <s_epik_Chemistry_Notes>
This compound contains an acetal/aminal-like group ( X-CH(R)-Y where X, Y are N, S, or O) that may be acid/base labile, releasing an aldehyde.

> <s_lp_Force_Field>
OPLS_2005

> <r_lp_Energy>
30.8227

> <b_lp_Chiralities_Consistent>
1

> <s_lp_Variant>
AV-unprocessed.smi:72-44

> <Gold.Version>
5.8.1

> <Gold.Id.Protein>
6NUR|6NUR_protein|mol2

> <Gold.PLP.Fitness>
35.5927

> <Gold.PLP.PLP>
-20.8350

> <Gold.PLP.part.hbond>
-5.5087

> <Gold.PLP.part.metal>
0.0000

> <Gold.PLP.part.buried>
1.1299

> <Gold.PLP.part.nonpolar>
-16.7541

> <Gold.PLP.part.repulsive>
0.2661

> <Gold.PLP.ligand.clash>
0.0023

> <Gold.PLP.ligand.torsion>
0.2883

> <Gold.PLP.Chemscore.Hbond>
4.5334

> <Gold.PLP.Chemscore.CHOScore>
0.5584

> <Gold.PLP.Chemscore.Metal>
0.0000

> <Gold.Chemscore.Hbonds>
donor molecule, donor type, donor heavy atom, donor atom, acceptor molecule, acceptor atom, score
      L1  H     1    23       P1  7948  0.08
      L1  H     3    30       P1  7948  1.98
      L1  H    10    27       P1  7957  0.97
      P1  H  7989  7998       L1     7  0.62
      P1  H 10752 10765       L1    17  0.90
      L1  C     4    24       P1  7957  0.62

> <Gold.PLP.Chemscore.Internal.Correction>
0.0610

> <Gold.Rescore>
     Score         DG    S(hbond)    S(metal)    S(lipo)     H(rot)  DE(clash)    DE(int)     intcor
      5.14      -6.72       2.69        0.00      22.96       4.08       0.01       1.58       ----

> <Gold.Chemscore.Fitness>
5.1367

> <Gold.Chemscore.DG>
-6.7189

> <Gold.Chemscore.ZeroCoef>
-5.4800

> <Gold.Chemscore.Hbond>
2.6926

> <Gold.Chemscore.Metal>
0.0000

> <Gold.Chemscore.Lipo>
22.9583

> <Gold.Chemscore.Internal_Hbond>
0.0000

> <Gold.Chemscore.DEClash>
0.0060

> <Gold.Chemscore.DEInternal>
1.5762

> <Gold.Chemscore.Rot>
4.0783

> <Gold.Chemscore.Internal.Correction>
   9.000000E+99

> <Gold.Chemscore.Hbonds>
donor molecule, donor type, donor heavy atom, donor atom, acceptor molecule, acceptor atom, score
      L1  H     3    30       P1  7948  0.72
      L1  H    10    27       P1  7957  0.87
      P1  H  7989  7998       L1     7  0.59
      P1  H 10752 10765       L1    17  0.04

> <Gold.Chemscore.Hbond.Weighted>
-8.9932

> <Gold.Chemscore.Metal.Weighted>
-0.0000

> <Gold.Chemscore.Lipo.Weighted>
-2.6861

> <Gold.Chemscore.Internal_Hbond.Weighted>
0.0000

> <Gold.Chemscore.DEClash.Weighted>
0.0060

> <Gold.Chemscore.DEInternal.Weighted>
1.5762

> <Gold.Chemscore.Rot.Weighted>
10.4404

> <Gold.Chemscore.Internal.Correction.Weighted>
   9.000000E+99

> <Gold.Protein.RotatedTorsions>
[ 6907 6896 6895 6894 ] final   92.88 input  -60.11 | X-H torsion
[ 7974 7965 7964 7962 ] final  131.61 input  175.53 | X-H torsion
[ 8008 7997 7996 7995 ] final   43.86 input   59.86 | X-H torsion
[ 10167 10162 10161 10158 ] final -161.46 input  -65.29 | X-H torsion
[ 10718 10713 10712 10709 ] final  120.32 input   66.30 | X-H torsion
[ 10763 10752 10751 10750 ] final -165.64 input  -60.55 | X-H torsion
[ 11005 11000 10999 10996 ] final -166.29 input  -57.11 | X-H torsion

> <Gold.Protein.ActiveResidues>
 VAL166  LYS551  ARG553  GLY616  TRP617  ASP618  TYR619  PRO620  LYS621  CYS622 
 ASP623  PHE694  ASN695  SER759  ASP760  ASP761  ALA762  ILE779  LEU786  VAL792 
 PHE793  MET794  SER795  GLU796  ALA797  LYS798  CYS799  TRP800  GLU811  SER814 

> <Gold.Protein.RotatedAtoms>
  152.5453  134.1434  159.8488 H   0  0  0  0  0  0  0  0  0  0  0  0  # atno 6907 bound_to 6896
  151.1468  133.4927  159.2603 H   0  0  0  0  0  0  0  0  0  0  0  0  # atno 6908 bound_to 6896
  151.1514  135.0239  159.8725 H   0  0  0  0  0  0  0  0  0  0  0  0  # atno 6909 bound_to 6896
  145.0055  139.4271  143.5271 H   0  0  0  0  0  0  0  0  0  0  0  0  # atno 7974 bound_to 7965
  155.3098  140.3390  155.4244 H   0  0  0  0  0  0  0  0  0  0  0  0  # atno 8008 bound_to 7997
  156.1961  140.1715  156.8033 H   0  0  0  0  0  0  0  0  0  0  0  0  # atno 8009 bound_to 7997
  154.5501  140.0707  156.8637 H   0  0  0  0  0  0  0  0  0  0  0  0  # atno 8010 bound_to 7997
  139.6464  144.0165  152.2130 H   0  0  0  0  0  0  0  0  0  0  0  0  # atno 10167 bound_to 10162
  157.5899  131.1065  150.8019 H   0  0  0  0  0  0  0  0  0  0  0  0  # atno 10718 bound_to 10713
  154.6912  135.2971  154.9477 H   0  0  0  0  0  0  0  0  0  0  0  0  # atno 10763 bound_to 10752
  154.0439  135.6653  153.4797 H   0  0  0  0  0  0  0  0  0  0  0  0  # atno 10764 bound_to 10752
  153.0613  135.5114  154.8005 H   0  0  0  0  0  0  0  0  0  0  0  0  # atno 10765 bound_to 10752
  140.5661  134.5284  157.5153 H   0  0  0  0  0  0  0  0  0  0  0  0  # atno 11005 bound_to 11000
  146.3460  139.9468  142.8734 LP  0  0  0  0  0  0  0  0  0  0  0  0  # atno 17320 bound_to 7965
  145.2095  140.9889  143.4109 LP  0  0  0  0  0  0  0  0  0  0  0  0  # atno 17321 bound_to 7965
  139.9867  144.6390  150.7851 LP  0  0  0  0  0  0  0  0  0  0  0  0  # atno 17342 bound_to 10162
  140.7516  143.2976  151.3164 LP  0  0  0  0  0  0  0  0  0  0  0  0  # atno 17343 bound_to 10162
  156.8443  130.5059  149.5318 LP  0  0  0  0  0  0  0  0  0  0  0  0  # atno 17370 bound_to 10713
  156.0952  130.5927  150.9802 LP  0  0  0  0  0  0  0  0  0  0  0  0  # atno 17371 bound_to 10713
  139.9384  134.7832  156.0742 LP  0  0  0  0  0  0  0  0  0  0  0  0  # atno 17394 bound_to 11000
  141.1085  133.6651  156.2921 LP  0  0  0  0  0  0  0  0  0  0  0  0  # atno 17395 bound_to 11000

$$$$
