AV-unprocessed.smi:3125|AV-procd|sdf|11908|dock2
  -GOLD-   2272017293D 1   1.00000     0.00000
 Structure written by MMmdl.
 28 29  0  0  0  0  0  0  0  0  2 V2000
  153.1270  138.1185  156.4841 C   0  0  0  0  0  0  0  0  0  0  0  0
  152.1469  138.5423  155.5024 N   0  0  0  0  0  0  0  0  0  0  0  0
  151.6876  137.7772  154.4382 C   0  0  0  0  0  0  0  0  0  0  0  0
  150.7716  138.5466  153.7639 C   0  0  0  0  0  0  0  0  0  0  0  0
  150.6547  139.7794  154.3950 N   0  0  0  0  0  0  0  0  0  0  0  0
  151.5005  139.7235  155.4208 C   0  0  0  0  0  0  0  0  0  0  0  0
  151.6963  140.8533  156.3937 C   0  0  2  0  0  0  0  0  0  0  0  0
  151.5880  140.3774  157.8553 C   0  0  0  0  0  0  0  0  0  0  0  0
  151.7660  141.5577  158.8226 C   0  0  0  0  0  0  0  0  0  0  0  0
  150.7786  142.6897  158.4945 C   0  0  0  0  0  0  0  0  0  0  0  0
  150.9276  143.1203  157.0874 N   0  3  0  0  0  0  0  0  0  0  0  0
  150.7218  142.0182  156.1218 C   0  0  0  0  0  0  0  0  0  0  0  0
  153.4370  137.0916  156.2881 H   0  0  0  0  0  0  0  0  0  0  0  0
  152.6951  138.1692  157.4839 H   0  0  0  0  0  0  0  0  0  0  0  0
  154.0031  138.7654  156.4343 H   0  0  0  0  0  0  0  0  0  0  0  0
  152.0398  136.7727  154.2537 H   0  0  0  0  0  0  0  0  0  0  0  0
  150.1934  138.3104  152.8829 H   0  0  0  0  0  0  0  0  0  0  0  0
  152.7030  141.2496  156.2616 H   0  0  0  0  0  0  0  0  0  0  0  0
  150.6154  139.9135  158.0263 H   0  0  0  0  0  0  0  0  0  0  0  0
  152.3382  139.6125  158.0595 H   0  0  0  0  0  0  0  0  0  0  0  0
  151.6217  141.2228  159.8503 H   0  0  0  0  0  0  0  0  0  0  0  0
  152.7886  141.9328  158.7605 H   0  0  0  0  0  0  0  0  0  0  0  0
  149.7522  142.3597  158.6629 H   0  0  0  0  0  0  0  0  0  0  0  0
  150.9505  143.5440  159.1495 H   0  0  0  0  0  0  0  0  0  0  0  0
  150.2590  143.8529  156.8959 H   0  0  0  0  0  0  0  0  0  0  0  0
  150.8646  142.4038  155.1119 H   0  0  0  0  0  0  0  0  0  0  0  0
  149.6868  141.6795  156.1899 H   0  0  0  0  0  0  0  0  0  0  0  0
  151.8595  143.4889  156.9611 H   0  0  0  0  0  0  0  0  0  0  0  0
  1  2  1  0  0  0  0
  1 13  1  0  0  0  0
  1 14  1  0  0  0  0
  1 15  1  0  0  0  0
  2  6  1  0  0  0  0
  2  3  1  0  0  0  0
  3  4  2  0  0  0  0
  3 16  1  0  0  0  0
  4  5  1  0  0  0  0
  4 17  1  0  0  0  0
  5  6  2  0  0  0  0
  6  7  1  0  0  0  0
  7 12  1  0  0  0  0
  7  8  1  0  0  0  0
  7 18  1  0  0  0  0
  8  9  1  0  0  0  0
  8 19  1  0  0  0  0
  8 20  1  0  0  0  0
  9 10  1  0  0  0  0
  9 21  1  0  0  0  0
  9 22  1  0  0  0  0
 10 11  1  0  0  0  0
 10 23  1  0  0  0  0
 10 24  1  0  0  0  0
 11 12  1  0  0  0  0
 11 25  1  0  0  0  0
 11 28  1  0  0  0  0
 12 26  1  0  0  0  0
 12 27  1  0  0  0  0
M  CHG  1  11   1
M  END
> <s_m_source_file>
AV-unprocessed.smi

> <i_m_source_file_index>
3125

> <i_lp_mmshare_version>
43012

> <i_f3d_flags>
0

> <s_epik_input>
W0NIM11uMVtjSF1bY0hdbmMxW0NAQEhdMltDSDJdW0NIMl1bQ0gyXVtOSF1bQ0gyXTI=

> <s_epik_cmdline>
J2VwaWtfcHl0aG9uJywgJy1waCcsICc3LjAnLCAnLXRuJywgJzgnLCAnLW1hJywgJzIwMCcsICctbWV0YWxfYmluZGluZycsICctaW1hZScsICc8aW5maWxlLm1hZT4nLCAnLW9tYWUnLCAnPG91dGZpbGUubWFlPic=

> <r_lp_tautomer_probability>
1

> <r_epik_Ionization_Penalty>
0.177191

> <r_epik_Ionization_Penalty_Charging>
0.177191

> <r_epik_Ionization_Penalty_Neutral>
7.05152e-14

> <r_epik_State_Penalty>
0.46716

> <r_epik_Charging_Adjusted_Penalty>
0.644351

> <i_epik_Tot_Q>
1

> <i_epik_Tot_abs_Q>
1

> <r_epik_Metal_State_Penalty>
0.000708398

> <b_epik_Metal_Only>
0

> <s_lp_Force_Field>
OPLS_2005

> <r_lp_Energy>
12.4076

> <b_lp_Chiralities_Consistent>
1

> <s_lp_Variant>
AV-unprocessed.smi:3125-3

> <Gold.Version>
5.8.1

> <Gold.Id.Protein>
6NUR|6NUR_protein|mol2

> <Gold.PLP.Fitness>
38.1750

> <Gold.PLP.PLP>
-24.7582

> <Gold.PLP.part.hbond>
-2.0000

> <Gold.PLP.part.metal>
0.0000

> <Gold.PLP.part.buried>
-2.9220

> <Gold.PLP.part.nonpolar>
-18.3691

> <Gold.PLP.part.repulsive>
0.1340

> <Gold.PLP.ligand.clash>
0.0000

> <Gold.PLP.ligand.torsion>
0.1240

> <Gold.PLP.Chemscore.Hbond>
2.7000

> <Gold.PLP.Chemscore.CHOScore>
1.8462

> <Gold.PLP.Chemscore.Metal>
0.0000

> <Gold.Chemscore.Hbonds>
donor molecule, donor type, donor heavy atom, donor atom, acceptor molecule, acceptor atom, score
      L1  H    11    25       P1  8028  2.00
      P1  H  7989  7998       L1     5  0.70
      L1  C     4    17       P1  7948  0.83
      L1  C     4    17       P1  7949  0.03
      L1  C     4    17       P1  7957  0.84

> <Gold.PLP.Chemscore.Internal.Correction>
0.0262

> <Gold.Rescore>
     Score         DG    S(hbond)    S(metal)    S(lipo)     H(rot)  DE(clash)    DE(int)     intcor
     15.14     -15.52       1.86        0.00      54.54       1.00       0.32       0.05       ----

> <Gold.Chemscore.Fitness>
15.1440

> <Gold.Chemscore.DG>
-15.5202

> <Gold.Chemscore.ZeroCoef>
-5.4800

> <Gold.Chemscore.Hbond>
1.8621

> <Gold.Chemscore.Metal>
0.0000

> <Gold.Chemscore.Lipo>
54.5368

> <Gold.Chemscore.Internal_Hbond>
0.0000

> <Gold.Chemscore.DEClash>
0.3240

> <Gold.Chemscore.DEInternal>
0.0522

> <Gold.Chemscore.Rot>
1.0000

> <Gold.Chemscore.Internal.Correction>
   9.000000E+99

> <Gold.Chemscore.Hbonds>
donor molecule, donor type, donor heavy atom, donor atom, acceptor molecule, acceptor atom, score
      L1  H    11    25       P1  8028  0.89
      P1  H  7989  7998       L1     5  0.04

> <Gold.Chemscore.Hbond.Weighted>
-6.2194

> <Gold.Chemscore.Metal.Weighted>
-0.0000

> <Gold.Chemscore.Lipo.Weighted>
-6.3808

> <Gold.Chemscore.Internal_Hbond.Weighted>
0.0000

> <Gold.Chemscore.DEClash.Weighted>
0.3240

> <Gold.Chemscore.DEInternal.Weighted>
0.0522

> <Gold.Chemscore.Rot.Weighted>
2.5600

> <Gold.Chemscore.Internal.Correction.Weighted>
   9.000000E+99

> <Gold.Protein.RotatedTorsions>
[ 6907 6896 6895 6894 ] final  -12.81 input  -60.11 | X-H torsion
[ 7974 7965 7964 7962 ] final   18.11 input  175.53 | X-H torsion
[ 8008 7997 7996 7995 ] final  -77.72 input   59.86 | X-H torsion
[ 10167 10162 10161 10158 ] final   57.61 input  -65.29 | X-H torsion
[ 10718 10713 10712 10709 ] final -161.62 input   66.30 | X-H torsion
[ 10763 10752 10751 10750 ] final   28.80 input  -60.55 | X-H torsion
[ 11005 11000 10999 10996 ] final  -37.67 input  -57.11 | X-H torsion

> <Gold.Protein.ActiveResidues>
 VAL166  LYS551  ARG553  GLY616  TRP617  ASP618  TYR619  PRO620  LYS621  CYS622 
 ASP623  PHE694  ASN695  SER759  ASP760  ASP761  ALA762  ILE779  LEU786  VAL792 
 PHE793  MET794  SER795  GLU796  ALA797  LYS798  CYS799  TRP800  GLU811  SER814 

> <Gold.Protein.RotatedAtoms>
  151.3647  135.0911  159.9445 H   0  0  0  0  0  0  0  0  0  0  0  0  # atno 6907 bound_to 6896
  152.5152  133.9223  159.7551 H   0  0  0  0  0  0  0  0  0  0  0  0  # atno 6908 bound_to 6896
  150.9625  133.6375  159.2781 H   0  0  0  0  0  0  0  0  0  0  0  0  # atno 6909 bound_to 6896
  146.2196  139.8505  142.8623 H   0  0  0  0  0  0  0  0  0  0  0  0  # atno 7974 bound_to 7965
  154.5622  140.0706  156.8837 H   0  0  0  0  0  0  0  0  0  0  0  0  # atno 8008 bound_to 7997
  155.2789  140.3370  155.4241 H   0  0  0  0  0  0  0  0  0  0  0  0  # atno 8009 bound_to 7997
  156.2052  140.1737  156.7801 H   0  0  0  0  0  0  0  0  0  0  0  0  # atno 8010 bound_to 7997
  140.1961  144.4036  150.6549 H   0  0  0  0  0  0  0  0  0  0  0  0  # atno 10167 bound_to 10162
  156.5988  130.8802  151.2908 H   0  0  0  0  0  0  0  0  0  0  0  0  # atno 10718 bound_to 10713
  153.0469  135.6504  154.0793 H   0  0  0  0  0  0  0  0  0  0  0  0  # atno 10763 bound_to 10752
  154.0489  135.2897  155.3345 H   0  0  0  0  0  0  0  0  0  0  0  0  # atno 10764 bound_to 10752
  154.6733  135.5348  153.8232 H   0  0  0  0  0  0  0  0  0  0  0  0  # atno 10765 bound_to 10752
  140.9969  133.6975  156.1951 H   0  0  0  0  0  0  0  0  0  0  0  0  # atno 11005 bound_to 11000
  145.2806  141.0137  143.3720 LP  0  0  0  0  0  0  0  0  0  0  0  0  # atno 17320 bound_to 7965
  144.9153  139.4478  143.6567 LP  0  0  0  0  0  0  0  0  0  0  0  0  # atno 17321 bound_to 7965
  140.6422  143.2206  151.6264 LP  0  0  0  0  0  0  0  0  0  0  0  0  # atno 17342 bound_to 10162
  139.5236  144.3128  152.0978 LP  0  0  0  0  0  0  0  0  0  0  0  0  # atno 17343 bound_to 10162
  157.7285  130.9657  150.1744 LP  0  0  0  0  0  0  0  0  0  0  0  0  # atno 17370 bound_to 10713
  156.2486  130.3698  149.8257 LP  0  0  0  0  0  0  0  0  0  0  0  0  # atno 17371 bound_to 10713
  140.6951  134.4624  157.5588 LP  0  0  0  0  0  0  0  0  0  0  0  0  # atno 17394 bound_to 11000
  139.9019  134.8536  156.1860 LP  0  0  0  0  0  0  0  0  0  0  0  0  # atno 17395 bound_to 11000

$$$$
