AV-unprocessed.smi:207|AV-procd|sdf|1603|dock9
  -GOLD-   2262019523D 1   1.00000     0.00000
 Structure written by MMmdl.
 56 59  0  0  0  0  0  0  0  0  2 V2000
  144.9477  136.6756  155.6618 C   0  0  0  0  0  0  0  0  0  0  0  0
  144.6472  137.9673  154.8654 C   0  0  0  0  0  0  0  0  0  0  0  0
  143.5112  138.7435  155.5713 C   0  0  0  0  0  0  0  0  0  0  0  0
  145.8868  138.8980  154.9071 C   0  0  0  0  0  0  0  0  0  0  0  0
  146.9769  138.4230  154.0613 N   0  0  0  0  0  0  0  0  0  0  0  0
  148.2092  138.9162  154.3469 C   0  0  0  0  0  0  0  0  0  0  0  0
  149.2766  138.2119  153.8894 N   0  0  0  0  0  0  0  0  0  0  0  0
  150.5208  138.6321  154.1314 C   0  0  0  0  0  0  0  0  0  0  0  0
  150.9185  139.7130  154.8029 N   0  0  0  0  0  0  0  0  0  0  0  0
  149.8556  140.4300  155.2652 C   0  0  0  0  0  0  0  0  0  0  0  0
  148.4784  140.1081  155.0860 C   0  0  0  0  0  0  0  0  0  0  0  0
  147.6926  141.0659  155.7184 N   0  0  0  0  0  0  0  0  0  0  0  0
  148.5510  141.9004  156.2365 C   0  0  0  0  0  0  0  0  0  0  0  0
  149.8740  141.6001  156.0051 N   0  0  0  0  0  0  0  0  0  0  0  0
  151.0309  142.3489  156.4755 C   0  0  0  0  0  0  0  0  0  0  0  0
  151.3705  142.1275  157.9622 C   0  0  0  0  0  0  0  0  0  0  0  0
  151.4713  140.6118  158.2293 C   0  0  0  0  0  0  0  0  0  0  0  0
  152.5397  140.0069  157.5279 O   0  0  0  0  0  0  0  0  0  0  0  0
  152.5235  142.9901  158.4972 C   0  0  0  0  0  0  0  0  0  0  0  0
  151.7374  143.4355  159.6244 O   0  0  0  0  0  0  0  0  0  0  0  0
  150.5475  142.9304  158.9800 C   0  0  0  0  0  0  0  0  0  0  0  0
  146.6077  138.1905  152.6747 C   0  0  0  0  0  0  0  0  0  0  0  0
  145.4239  137.2207  152.5984 C   0  0  0  0  0  0  0  0  0  0  0  0
  144.2756  137.6654  153.4387 N   0  3  1  0  0  0  0  0  0  0  0  0
  143.0899  136.7801  153.2547 C   0  0  0  0  0  0  0  0  0  0  0  0
  143.4438  135.2975  153.4560 C   0  0  0  0  0  0  0  0  0  0  0  0
  142.3384  134.6104  154.0029 O   0  0  0  0  0  0  0  0  0  0  0  0
  145.2243  136.9090  156.6906 H   0  0  0  0  0  0  0  0  0  0  0  0
  145.7746  136.1106  155.2320 H   0  0  0  0  0  0  0  0  0  0  0  0
  144.0841  136.0121  155.7076 H   0  0  0  0  0  0  0  0  0  0  0  0
  143.8380  139.1146  156.5438 H   0  0  0  0  0  0  0  0  0  0  0  0
  142.6285  138.1353  155.7629 H   0  0  0  0  0  0  0  0  0  0  0  0
  143.1970  139.6075  154.9846 H   0  0  0  0  0  0  0  0  0  0  0  0
  145.6125  139.8930  154.5525 H   0  0  0  0  0  0  0  0  0  0  0  0
  146.2118  139.0257  155.9404 H   0  0  0  0  0  0  0  0  0  0  0  0
  151.3106  138.0143  153.7297 H   0  0  0  0  0  0  0  0  0  0  0  0
  148.2401  142.7661  156.8035 H   0  0  0  0  0  0  0  0  0  0  0  0
  151.8835  142.0834  155.8492 H   0  0  0  0  0  0  0  0  0  0  0  0
  150.8439  143.4056  156.2794 H   0  0  0  0  0  0  0  0  0  0  0  0
  151.6291  140.4109  159.2888 H   0  0  0  0  0  0  0  0  0  0  0  0
  150.5504  140.1029  157.9426 H   0  0  0  0  0  0  0  0  0  0  0  0
  152.1838  139.5161  156.8027 H   0  0  0  0  0  0  0  0  0  0  0  0
  153.4102  142.4290  158.7940 H   0  0  0  0  0  0  0  0  0  0  0  0
  152.7956  143.8209  157.8440 H   0  0  0  0  0  0  0  0  0  0  0  0
  149.9609  143.7394  158.5442 H   0  0  0  0  0  0  0  0  0  0  0  0
  149.9346  142.3189  159.6430 H   0  0  0  0  0  0  0  0  0  0  0  0
  146.3403  139.1397  152.2086 H   0  0  0  0  0  0  0  0  0  0  0  0
  147.4513  137.7772  152.1204 H   0  0  0  0  0  0  0  0  0  0  0  0
  145.1162  137.1277  151.5575 H   0  0  0  0  0  0  0  0  0  0  0  0
  145.7450  136.2267  152.9120 H   0  0  0  0  0  0  0  0  0  0  0  0
  142.3056  137.0748  153.9537 H   0  0  0  0  0  0  0  0  0  0  0  0
  142.6464  136.8831  152.2672 H   0  0  0  0  0  0  0  0  0  0  0  0
  143.7517  134.8172  152.5279 H   0  0  0  0  0  0  0  0  0  0  0  0
  144.2794  135.2083  154.1506 H   0  0  0  0  0  0  0  0  0  0  0  0
  142.6037  133.7264  154.2081 H   0  0  0  0  0  0  0  0  0  0  0  0
  143.9945  138.5594  153.0613 H   0  0  0  0  0  0  0  0  0  0  0  0
  1  2  1  0  0  0  0
  1 28  1  0  0  0  0
  1 29  1  0  0  0  0
  1 30  1  0  0  0  0
  2 24  1  0  0  0  0
  2  3  1  0  0  0  0
  2  4  1  0  0  0  0
  3 31  1  0  0  0  0
  3 32  1  0  0  0  0
  3 33  1  0  0  0  0
  4  5  1  0  0  0  0
  4 34  1  0  0  0  0
  4 35  1  0  0  0  0
  5  6  1  0  0  0  0
  5 22  1  0  0  0  0
  6 11  1  0  0  0  0
  6  7  2  0  0  0  0
  7  8  1  0  0  0  0
  8  9  2  0  0  0  0
  8 36  1  0  0  0  0
  9 10  1  0  0  0  0
 10 14  1  0  0  0  0
 10 11  2  0  0  0  0
 11 12  1  0  0  0  0
 12 13  2  0  0  0  0
 13 14  1  0  0  0  0
 13 37  1  0  0  0  0
 14 15  1  0  0  0  0
 15 16  1  0  0  0  0
 15 38  1  0  0  0  0
 15 39  1  0  0  0  0
 16 21  1  0  0  0  0
 16 17  1  0  0  0  0
 16 19  1  0  0  0  0
 17 18  1  0  0  0  0
 17 40  1  0  0  0  0
 17 41  1  0  0  0  0
 18 42  1  0  0  0  0
 19 20  1  0  0  0  0
 19 43  1  0  0  0  0
 19 44  1  0  0  0  0
 20 21  1  0  0  0  0
 21 45  1  0  0  0  0
 21 46  1  0  0  0  0
 22 23  1  0  0  0  0
 22 47  1  0  0  0  0
 22 48  1  0  0  0  0
 23 24  1  0  0  0  0
 23 49  1  0  0  0  0
 23 50  1  0  0  0  0
 24 25  1  0  0  0  0
 24 56  1  0  0  0  0
 25 26  1  0  0  0  0
 25 51  1  0  0  0  0
 25 52  1  0  0  0  0
 26 27  1  0  0  0  0
 26 53  1  0  0  0  0
 26 54  1  0  0  0  0
 27 55  1  0  0  0  0
M  CHG  1  24   1
M  END
> <s_m_source_file>
AV-unprocessed.smi

> <i_m_source_file_index>
207

> <i_lp_mmshare_version>
43012

> <i_f3d_flags>
0

> <s_epik_input>
W09IXVtDSDJdW0NIMl1OMVtDSDJdW0NIMl1OKFtDSDJdQzEoW0NIM10pW0NIM10pYyhuW2NIXW4yKWMoYzIzKW5bY0hdbjNbQ0gyXUM0KFtDSDJdW09IXSlbQ0gyXU9bQ0gyXTQ=

> <s_epik_cmdline>
J2VwaWtfcHl0aG9uJywgJy1waCcsICc3LjAnLCAnLXRuJywgJzgnLCAnLW1hJywgJzIwMCcsICctbWV0YWxfYmluZGluZycsICctaW1hZScsICc8aW5maWxlLm1hZT4nLCAnLW9tYWUnLCAnPG91dGZpbGUubWFlPic=

> <r_lp_tautomer_probability>
1

> <r_epik_Ionization_Penalty>
0.416568

> <r_epik_Ionization_Penalty_Charging>
0.416506

> <r_epik_Ionization_Penalty_Neutral>
6.2219e-05

> <r_epik_State_Penalty>
0.419386

> <r_epik_Charging_Adjusted_Penalty>
0.835892

> <i_epik_Tot_Q>
1

> <i_epik_Tot_abs_Q>
1

> <r_epik_Metal_State_Penalty>
0.420232

> <b_epik_Metal_Only>
0

> <s_lp_Force_Field>
OPLS_2005

> <r_lp_Energy>
56.8459

> <b_lp_Chiralities_Consistent>
1

> <s_lp_Variant>
AV-unprocessed.smi:207-2

> <Gold.Version>
5.8.1

> <Gold.Id.Protein>
6NUR|6NUR_protein|mol2

> <Gold.PLP.Fitness>
45.3943

> <Gold.PLP.PLP>
-30.0244

> <Gold.PLP.part.hbond>
-4.1305

> <Gold.PLP.part.metal>
0.0000

> <Gold.PLP.part.buried>
-5.3875

> <Gold.PLP.part.nonpolar>
-23.8479

> <Gold.PLP.part.repulsive>
2.2257

> <Gold.PLP.ligand.clash>
0.0000

> <Gold.PLP.ligand.torsion>
1.0700

> <Gold.PLP.Chemscore.Hbond>
4.9913

> <Gold.PLP.Chemscore.CHOScore>
0.5479

> <Gold.PLP.Chemscore.Metal>
0.0000

> <Gold.Chemscore.Hbonds>
donor molecule, donor type, donor heavy atom, donor atom, acceptor molecule, acceptor atom, score
      L1  H    24    56       P1 10175  2.00
      L1  H    27    55       P1 10957  0.98
      P1  H  7989  7998       L1     9  1.00
      P1  H  7997  8009       L1    18  0.85
      L1  C    13    37       P1  8028  0.60

> <Gold.PLP.Chemscore.Internal.Correction>
0.8926

> <Gold.Rescore>
     Score         DG    S(hbond)    S(metal)    S(lipo)     H(rot)  DE(clash)    DE(int)     intcor
      8.99     -13.16       2.94        0.00      64.77       3.80       1.07       3.11       ----

> <Gold.Chemscore.Fitness>
8.9861

> <Gold.Chemscore.DG>
-13.1601

> <Gold.Chemscore.ZeroCoef>
-5.4800

> <Gold.Chemscore.Hbond>
2.9429

> <Gold.Chemscore.Metal>
0.0000

> <Gold.Chemscore.Lipo>
64.7695

> <Gold.Chemscore.Internal_Hbond>
0.0000

> <Gold.Chemscore.DEClash>
1.0679

> <Gold.Chemscore.DEInternal>
3.1062

> <Gold.Chemscore.Rot>
3.7997

> <Gold.Chemscore.Internal.Correction>
   9.000000E+99

> <Gold.Chemscore.Hbonds>
donor molecule, donor type, donor heavy atom, donor atom, acceptor molecule, acceptor atom, score
      L1  H    24    56       P1 10175  0.96
      L1  H    27    55       P1 10957  0.92
      P1  H  7989  7998       L1     9  0.17
      P1  H  7997  8009       L1    18  0.15

> <Gold.Chemscore.Hbond.Weighted>
-9.8294

> <Gold.Chemscore.Metal.Weighted>
-0.0000

> <Gold.Chemscore.Lipo.Weighted>
-7.5780

> <Gold.Chemscore.Internal_Hbond.Weighted>
0.0000

> <Gold.Chemscore.DEClash.Weighted>
1.0679

> <Gold.Chemscore.DEInternal.Weighted>
3.1062

> <Gold.Chemscore.Rot.Weighted>
9.7273

> <Gold.Chemscore.Internal.Correction.Weighted>
   9.000000E+99

> <Gold.Protein.RotatedTorsions>
[ 6907 6896 6895 6894 ] final -126.32 input  -60.11 | X-H torsion
[ 7974 7965 7964 7962 ] final  -76.61 input  175.53 | X-H torsion
[ 8008 7997 7996 7995 ] final  162.09 input   59.86 | X-H torsion
[ 10167 10162 10161 10158 ] final    0.13 input  -65.29 | X-H torsion
[ 10718 10713 10712 10709 ] final -116.06 input   66.30 | X-H torsion
[ 10763 10752 10751 10750 ] final  135.58 input  -60.55 | X-H torsion
[ 11005 11000 10999 10996 ] final  122.15 input  -57.11 | X-H torsion

> <Gold.Protein.ActiveResidues>
 VAL166  LYS551  ARG553  GLY616  TRP617  ASP618  TYR619  PRO620  LYS621  CYS622 
 ASP623  PHE694  ASN695  SER759  ASP760  ASP761  ALA762  ILE779  LEU786  VAL792 
 PHE793  MET794  SER795  GLU796  ALA797  LYS798  CYS799  TRP800  GLU811  SER814 

> <Gold.Protein.RotatedAtoms>
  150.8957  133.7184  159.2892 H   0  0  0  0  0  0  0  0  0  0  0  0  # atno 6907 bound_to 6896
  151.4720  135.1045  159.9763 H   0  0  0  0  0  0  0  0  0  0  0  0  # atno 6908 bound_to 6896
  152.4847  133.8295  159.7151 H   0  0  0  0  0  0  0  0  0  0  0  0  # atno 6909 bound_to 6896
  145.6106  140.9387  143.1191 H   0  0  0  0  0  0  0  0  0  0  0  0  # atno 7974 bound_to 7965
  156.2056  140.1759  156.7806 H   0  0  0  0  0  0  0  0  0  0  0  0  # atno 8008 bound_to 7997
  154.5651  140.0692  156.8909 H   0  0  0  0  0  0  0  0  0  0  0  0  # atno 8009 bound_to 7997
  155.2777  140.3347  155.4263 H   0  0  0  0  0  0  0  0  0  0  0  0  # atno 8010 bound_to 7997
  140.6742  143.6962  150.7988 H   0  0  0  0  0  0  0  0  0  0  0  0  # atno 10167 bound_to 10162
  156.0938  130.6115  150.8987 H   0  0  0  0  0  0  0  0  0  0  0  0  # atno 10718 bound_to 10713
  153.8424  135.3089  155.3427 H   0  0  0  0  0  0  0  0  0  0  0  0  # atno 10763 bound_to 10752
  154.7927  135.4773  154.0092 H   0  0  0  0  0  0  0  0  0  0  0  0  # atno 10764 bound_to 10752
  153.1568  135.6853  153.8893 H   0  0  0  0  0  0  0  0  0  0  0  0  # atno 10765 bound_to 10752
  139.9256  134.9640  156.8066 H   0  0  0  0  0  0  0  0  0  0  0  0  # atno 11005 bound_to 11000
  144.7271  139.7840  143.7361 LP  0  0  0  0  0  0  0  0  0  0  0  0  # atno 17320 bound_to 7965
  146.1507  139.4589  143.0050 LP  0  0  0  0  0  0  0  0  0  0  0  0  # atno 17321 bound_to 7965
  140.0653  143.5115  152.2607 LP  0  0  0  0  0  0  0  0  0  0  0  0  # atno 17342 bound_to 10162
  139.6026  144.7587  151.3136 LP  0  0  0  0  0  0  0  0  0  0  0  0  # atno 17343 bound_to 10162
  157.6094  131.0937  150.8822 LP  0  0  0  0  0  0  0  0  0  0  0  0  # atno 17370 bound_to 10713
  156.8965  130.5231  149.5284 LP  0  0  0  0  0  0  0  0  0  0  0  0  # atno 17371 bound_to 10713
  140.6346  133.9874  155.7678 LP  0  0  0  0  0  0  0  0  0  0  0  0  # atno 17394 bound_to 11000
  141.0811  134.0061  157.3385 LP  0  0  0  0  0  0  0  0  0  0  0  0  # atno 17395 bound_to 11000

$$$$
