AV-unprocessed.smi:2732|AV-procd|sdf|10533|dock6
  -GOLD-   2272014583D 1   1.00000     0.00000
 Structure written by MMmdl.
 34 35  0  0  0  0  0  0  0  0  1 V2000
  154.5965  140.1627  160.0051 C   0  0  0  0  0  0  0  0  0  0  0  0
  153.2663  140.9033  159.8022 C   0  0  1  0  0  0  0  0  0  0  0  0
  153.5445  142.3007  159.8316 O   0  0  0  0  0  0  0  0  0  0  0  0
  152.4655  143.1272  160.2504 C   0  0  0  0  0  0  0  0  0  0  0  0
  152.4574  144.3809  159.4036 C   0  0  0  0  0  0  0  0  0  0  0  0
  151.2237  145.2524  159.3375 C   0  0  0  0  0  0  0  0  0  0  0  0
  151.6382  144.4442  158.1344 C   0  0  0  0  0  0  0  0  0  0  0  0
  152.6103  140.5185  158.4657 C   0  0  0  0  0  0  0  0  0  0  0  0
  153.1174  139.6356  157.7750 O   0  0  0  0  0  0  0  0  0  0  0  0
  151.5083  141.2192  158.1376 N   0  0  0  0  0  0  0  0  0  0  0  0
  150.6809  141.1298  156.9832 C   0  0  0  0  0  0  0  0  0  0  0  0
  149.3743  141.6665  156.8728 C   0  0  0  0  0  0  0  0  0  0  0  0
  148.6707  141.5031  155.6636 C   0  0  0  0  0  0  0  0  0  0  0  0
  149.2955  140.8127  154.6067 C   0  0  0  0  0  0  0  0  0  0  0  0
  148.6282  140.6322  153.3979 N   0  0  0  0  0  0  0  0  0  0  0  0
  150.5400  140.3005  154.6965 N   0  0  0  0  0  0  0  0  0  0  0  0
  151.2088  140.4606  155.8583 C   0  0  0  0  0  0  0  0  0  0  0  0
  154.4562  139.0816  159.9774 H   0  0  0  0  0  0  0  0  0  0  0  0
  155.0332  140.4128  160.9722 H   0  0  0  0  0  0  0  0  0  0  0  0
  155.3254  140.4271  159.2379 H   0  0  0  0  0  0  0  0  0  0  0  0
  152.6028  140.6494  160.6315 H   0  0  0  0  0  0  0  0  0  0  0  0
  151.5057  142.6186  160.1519 H   0  0  0  0  0  0  0  0  0  0  0  0
  152.5898  143.4083  161.2969 H   0  0  0  0  0  0  0  0  0  0  0  0
  153.4100  144.9074  159.3882 H   0  0  0  0  0  0  0  0  0  0  0  0
  150.3396  144.9247  159.8811 H   0  0  0  0  0  0  0  0  0  0  0  0
  151.3714  146.3295  159.2938 H   0  0  0  0  0  0  0  0  0  0  0  0
  152.0646  144.9807  157.2890 H   0  0  0  0  0  0  0  0  0  0  0  0
  151.0330  143.5766  157.8784 H   0  0  0  0  0  0  0  0  0  0  0  0
  151.2349  141.9287  158.8022 H   0  0  0  0  0  0  0  0  0  0  0  0
  148.8927  142.2004  157.6755 H   0  0  0  0  0  0  0  0  0  0  0  0
  147.6727  141.9020  155.5548 H   0  0  0  0  0  0  0  0  0  0  0  0
  147.6942  140.9862  153.2510 H   0  0  0  0  0  0  0  0  0  0  0  0
  149.0623  140.1469  152.6258 H   0  0  0  0  0  0  0  0  0  0  0  0
  152.2021  140.0369  155.8898 H   0  0  0  0  0  0  0  0  0  0  0  0
  1  2  1  0  0  0  0
  1 18  1  0  0  0  0
  1 19  1  0  0  0  0
  1 20  1  0  0  0  0
  2  3  1  0  0  0  0
  2  8  1  0  0  0  0
  2 21  1  0  0  0  0
  3  4  1  0  0  0  0
  4  5  1  0  0  0  0
  4 22  1  0  0  0  0
  4 23  1  0  0  0  0
  5  7  1  0  0  0  0
  5  6  1  0  0  0  0
  5 24  1  0  0  0  0
  6  7  1  0  0  0  0
  6 25  1  0  0  0  0
  6 26  1  0  0  0  0
  7 27  1  0  0  0  0
  7 28  1  0  0  0  0
  8  9  2  0  0  0  0
  8 10  1  0  0  0  0
 10 11  1  0  0  0  0
 10 29  1  0  0  0  0
 11 17  1  0  0  0  0
 11 12  2  0  0  0  0
 12 13  1  0  0  0  0
 12 30  1  0  0  0  0
 13 14  2  0  0  0  0
 13 31  1  0  0  0  0
 14 15  1  0  0  0  0
 14 16  1  0  0  0  0
 15 32  1  0  0  0  0
 15 33  1  0  0  0  0
 16 17  2  0  0  0  0
 17 34  1  0  0  0  0
M  END
> <s_m_source_file>
AV-unprocessed.smi

> <i_m_source_file_index>
2732

> <i_lp_mmshare_version>
43012

> <i_f3d_flags>
0

> <s_epik_input>
W0NIMl0xW0NIMl1bQ0hdMVtDSDJdT1tDQEBIXShbQ0gzXSlDKD1PKVtOSF1jMltjSF1bY0hdYyhbTkgyXSluW2NIXTI=

> <s_epik_cmdline>
J2VwaWtfcHl0aG9uJywgJy1waCcsICc3LjAnLCAnLXRuJywgJzgnLCAnLW1hJywgJzIwMCcsICctbWV0YWxfYmluZGluZycsICctaW1hZScsICc8aW5maWxlLm1hZT4nLCAnLW9tYWUnLCAnPG91dGZpbGUubWFlPic=

> <r_lp_tautomer_probability>
1

> <r_epik_Ionization_Penalty>
0.0764773

> <r_epik_Ionization_Penalty_Charging>
0

> <r_epik_Ionization_Penalty_Neutral>
0.0764773

> <r_epik_State_Penalty>
0.0673619

> <r_epik_Charging_Adjusted_Penalty>
0.0673619

> <i_epik_Tot_Q>
0

> <i_epik_Tot_abs_Q>
0

> <r_epik_Metal_State_Penalty>
0.0594329

> <b_epik_Metal_Only>
0

> <s_lp_Force_Field>
OPLS_2005

> <r_lp_Energy>
18.9716

> <b_lp_Chiralities_Consistent>
1

> <s_lp_Variant>
AV-unprocessed.smi:2732-2

> <Gold.Version>
5.8.1

> <Gold.Id.Protein>
6NUR|6NUR_protein|mol2

> <Gold.PLP.Fitness>
47.4211

> <Gold.PLP.PLP>
-39.8218

> <Gold.PLP.part.hbond>
-2.8167

> <Gold.PLP.part.metal>
0.0000

> <Gold.PLP.part.buried>
-6.0067

> <Gold.PLP.part.nonpolar>
-31.8948

> <Gold.PLP.part.repulsive>
0.3243

> <Gold.PLP.ligand.clash>
0.0000

> <Gold.PLP.ligand.torsion>
0.9728

> <Gold.PLP.Chemscore.Hbond>
2.9920

> <Gold.PLP.Chemscore.CHOScore>
0.0000

> <Gold.PLP.Chemscore.Metal>
0.0000

> <Gold.Chemscore.Hbonds>
donor molecule, donor type, donor heavy atom, donor atom, acceptor molecule, acceptor atom, score
      L1  H    15    33       P1  7957  1.00
      P1  H  7989  7998       L1    16  1.00
      P1  H  7997  8008       L1     9  1.00

> <Gold.PLP.Chemscore.Internal.Correction>
0.5689

> <Gold.Rescore>
     Score         DG    S(hbond)    S(metal)    S(lipo)     H(rot)  DE(clash)    DE(int)     intcor
     17.89     -20.33       2.75        0.00      86.00       1.72       0.00       2.43       ----

> <Gold.Chemscore.Fitness>
17.8947

> <Gold.Chemscore.DG>
-20.3271

> <Gold.Chemscore.ZeroCoef>
-5.4800

> <Gold.Chemscore.Hbond>
2.7538

> <Gold.Chemscore.Metal>
0.0000

> <Gold.Chemscore.Lipo>
86.0022

> <Gold.Chemscore.Internal_Hbond>
0.0000

> <Gold.Chemscore.DEClash>
0.0015

> <Gold.Chemscore.DEInternal>
2.4309

> <Gold.Chemscore.Rot>
1.7237

> <Gold.Chemscore.Internal.Correction>
   9.000000E+99

> <Gold.Chemscore.Hbonds>
donor molecule, donor type, donor heavy atom, donor atom, acceptor molecule, acceptor atom, score
      L1  H    15    33       P1  7957  0.94
      P1  H  7989  7998       L1    16  0.39
      P1  H  7997  8008       L1     9  0.89

> <Gold.Chemscore.Hbond.Weighted>
-9.1976

> <Gold.Chemscore.Metal.Weighted>
-0.0000

> <Gold.Chemscore.Lipo.Weighted>
-10.0623

> <Gold.Chemscore.Internal_Hbond.Weighted>
0.0000

> <Gold.Chemscore.DEClash.Weighted>
0.0015

> <Gold.Chemscore.DEInternal.Weighted>
2.4309

> <Gold.Chemscore.Rot.Weighted>
4.4127

> <Gold.Chemscore.Internal.Correction.Weighted>
   9.000000E+99

> <Gold.Protein.RotatedTorsions>
[ 6907 6896 6895 6894 ] final  -19.39 input  -60.11 | X-H torsion
[ 7974 7965 7964 7962 ] final -118.20 input  175.53 | X-H torsion
[ 8008 7997 7996 7995 ] final  -91.92 input   59.86 | X-H torsion
[ 10167 10162 10161 10158 ] final  -15.30 input  -65.29 | X-H torsion
[ 10718 10713 10712 10709 ] final -156.47 input   66.30 | X-H torsion
[ 10763 10752 10751 10750 ] final   37.34 input  -60.55 | X-H torsion
[ 11005 11000 10999 10996 ] final -144.07 input  -57.11 | X-H torsion

> <Gold.Protein.ActiveResidues>
 VAL166  LYS551  ARG553  GLY616  TRP617  ASP618  TYR619  PRO620  LYS621  CYS622 
 ASP623  PHE694  ASN695  SER759  ASP760  ASP761  ALA762  ILE779  LEU786  VAL792 
 PHE793  MET794  SER795  GLU796  ALA797  LYS798  CYS799  TRP800  GLU811  SER814 

> <Gold.Protein.RotatedAtoms>
  151.2639  135.0663  159.9108 H   0  0  0  0  0  0  0  0  0  0  0  0  # atno 6907 bound_to 6896
  152.5361  134.0202  159.7988 H   0  0  0  0  0  0  0  0  0  0  0  0  # atno 6908 bound_to 6896
  151.0429  133.5640  159.2680 H   0  0  0  0  0  0  0  0  0  0  0  0  # atno 6909 bound_to 6896
  145.0765  140.8396  143.4064 H   0  0  0  0  0  0  0  0  0  0  0  0  # atno 7974 bound_to 7965
  154.7166  140.0514  157.0601 H   0  0  0  0  0  0  0  0  0  0  0  0  # atno 8008 bound_to 7997
  155.0483  140.3176  155.4682 H   0  0  0  0  0  0  0  0  0  0  0  0  # atno 8009 bound_to 7997
  156.2805  140.2120  156.5608 H   0  0  0  0  0  0  0  0  0  0  0  0  # atno 8010 bound_to 7997
  140.7216  143.5232  150.9608 H   0  0  0  0  0  0  0  0  0  0  0  0  # atno 10167 bound_to 10162
  156.5270  130.8504  151.2703 H   0  0  0  0  0  0  0  0  0  0  0  0  # atno 10718 bound_to 10713
  153.0041  135.6280  154.2129 H   0  0  0  0  0  0  0  0  0  0  0  0  # atno 10763 bound_to 10752
  154.1873  135.2810  155.3035 H   0  0  0  0  0  0  0  0  0  0  0  0  # atno 10764 bound_to 10752
  154.5788  135.5654  153.7224 H   0  0  0  0  0  0  0  0  0  0  0  0  # atno 10765 bound_to 10752
  140.8061  134.2799  157.4959 H   0  0  0  0  0  0  0  0  0  0  0  0  # atno 11005 bound_to 11000
  145.1229  139.2681  143.5579 LP  0  0  0  0  0  0  0  0  0  0  0  0  # atno 17320 bound_to 7965
  146.3530  140.0858  142.8615 LP  0  0  0  0  0  0  0  0  0  0  0  0  # atno 17321 bound_to 7965
  139.8950  143.6906  152.3140 LP  0  0  0  0  0  0  0  0  0  0  0  0  # atno 17342 bound_to 10162
  139.7235  144.7597  151.0916 LP  0  0  0  0  0  0  0  0  0  0  0  0  # atno 17343 bound_to 10162
  157.7428  130.9898  150.2542 LP  0  0  0  0  0  0  0  0  0  0  0  0  # atno 17370 bound_to 10713
  156.3095  130.3770  149.7675 LP  0  0  0  0  0  0  0  0  0  0  0  0  # atno 17371 bound_to 10713
  139.8717  134.9457  156.3917 LP  0  0  0  0  0  0  0  0  0  0  0  0  # atno 17394 bound_to 11000
  140.9245  133.7622  155.9948 LP  0  0  0  0  0  0  0  0  0  0  0  0  # atno 17395 bound_to 11000

$$$$
