AV-unprocessed.smi:37|AV-procd|sdf|305|dock8
  -GOLD-   2262016113D 1   1.00000     0.00000
 Structure written by MMmdl.
 44 45  0  0  0  0  0  0  0  0  1 V2000
  157.2126  136.6240  154.5748 C   0  0  0  0  0  0  0  0  0  0  0  0
  157.3138  137.3133  155.9423 C   0  0  0  0  0  0  0  0  0  0  0  0
  156.0652  137.0990  156.7956 C   0  0  0  0  0  0  0  0  0  0  0  0
  156.1375  136.6311  157.9318 O   0  0  0  0  0  0  0  0  0  0  0  0
  154.9372  137.4576  156.1635 O   0  0  0  0  0  0  0  0  0  0  0  0
  153.7362  137.6149  156.9007 C   0  0  0  0  0  0  0  0  0  0  0  0
  152.6203  138.0703  155.9527 C   0  0  2  0  0  0  0  0  0  0  0  0
  152.7203  139.4668  155.6718 O   0  0  0  0  0  0  0  0  0  0  0  0
  151.4487  140.0517  155.6222 C   0  0  2  0  0  0  0  0  0  0  0  0
  151.2854  141.0164  156.7799 N   0  0  0  0  0  0  0  0  0  0  0  0
  152.2850  141.2274  157.7227 C   0  0  0  0  0  0  0  0  0  0  0  0
  152.1463  142.0794  158.7659 C   0  0  0  0  0  0  0  0  0  0  0  0
  153.1577  142.2303  159.6380 F   0  0  0  0  0  0  0  0  0  0  0  0
  150.9104  142.8330  158.9543 C   0  0  0  0  0  0  0  0  0  0  0  0
  150.6912  143.6264  159.8674 O   0  0  0  0  0  0  0  0  0  0  0  0
  149.9329  142.5884  157.9857 N   0  0  0  0  0  0  0  0  0  0  0  0
  150.0623  141.7124  156.9070 C   0  0  0  0  0  0  0  0  0  0  0  0
  149.1302  141.5665  156.1173 O   0  0  0  0  0  0  0  0  0  0  0  0
  150.4239  138.9183  155.7351 C   0  0  1  0  0  0  0  0  0  0  0  0
  149.9735  138.2608  153.9050 Br  0  0  0  0  0  0  0  0  0  0  0  0
  151.2113  137.8760  156.5104 C   0  0  1  0  0  0  0  0  0  0  0  0
  150.7387  136.5531  156.2969 O   0  0  0  0  0  0  0  0  0  0  0  0
  150.2007  135.8547  157.3109 C   0  0  0  0  0  0  0  0  0  0  0  0
  150.1624  136.2059  158.4901 O   0  0  0  0  0  0  0  0  0  0  0  0
  149.6029  134.5263  156.8549 C   0  0  0  0  0  0  0  0  0  0  0  0
  149.8525  134.2640  155.3633 C   0  0  0  0  0  0  0  0  0  0  0  0
  149.0587  143.0856  158.0764 H   0  0  0  0  0  0  0  0  0  0  0  0
  158.0978  136.8331  153.9742 H   0  0  0  0  0  0  0  0  0  0  0  0
  156.3439  136.9749  154.0167 H   0  0  0  0  0  0  0  0  0  0  0  0
  157.1333  135.5411  154.6763 H   0  0  0  0  0  0  0  0  0  0  0  0
  158.1807  136.9399  156.4870 H   0  0  0  0  0  0  0  0  0  0  0  0
  157.4658  138.3842  155.8050 H   0  0  0  0  0  0  0  0  0  0  0  0
  153.4689  136.6781  157.3905 H   0  0  0  0  0  0  0  0  0  0  0  0
  153.8893  138.3625  157.6799 H   0  0  0  0  0  0  0  0  0  0  0  0
  152.7151  137.5525  154.9966 H   0  0  0  0  0  0  0  0  0  0  0  0
  151.3514  140.6577  154.7194 H   0  0  0  0  0  0  0  0  0  0  0  0
  153.2225  140.7003  157.6441 H   0  0  0  0  0  0  0  0  0  0  0  0
  149.4998  139.2283  156.2240 H   0  0  0  0  0  0  0  0  0  0  0  0
  151.2159  138.1318  157.5716 H   0  0  0  0  0  0  0  0  0  0  0  0
  150.0348  133.7216  157.4504 H   0  0  0  0  0  0  0  0  0  0  0  0
  148.5320  134.5328  157.0597 H   0  0  0  0  0  0  0  0  0  0  0  0
  149.4541  133.2924  155.0717 H   0  0  0  0  0  0  0  0  0  0  0  0
  150.9186  134.2666  155.1335 H   0  0  0  0  0  0  0  0  0  0  0  0
  149.3715  135.0178  154.7390 H   0  0  0  0  0  0  0  0  0  0  0  0
  1  2  1  0  0  0  0
  1 28  1  0  0  0  0
  1 29  1  0  0  0  0
  1 30  1  0  0  0  0
  2  3  1  0  0  0  0
  2 31  1  0  0  0  0
  2 32  1  0  0  0  0
  3  4  2  0  0  0  0
  3  5  1  0  0  0  0
  5  6  1  0  0  0  0
  6  7  1  0  0  0  0
  6 33  1  0  0  0  0
  6 34  1  0  0  0  0
  7 21  1  0  0  0  0
  7  8  1  0  0  0  0
  7 35  1  0  0  0  0
  8  9  1  0  0  0  0
  9 10  1  0  0  0  0
  9 19  1  0  0  0  0
  9 36  1  0  0  0  0
 10 17  1  0  0  0  0
 10 11  1  0  0  0  0
 11 12  2  0  0  0  0
 11 37  1  0  0  0  0
 12 13  1  0  0  0  0
 12 14  1  0  0  0  0
 14 15  2  0  0  0  0
 14 16  1  0  0  0  0
 16 27  1  0  0  0  0
 16 17  1  0  0  0  0
 17 18  2  0  0  0  0
 19 20  1  0  0  0  0
 19 21  1  0  0  0  0
 19 38  1  0  0  0  0
 21 22  1  0  0  0  0
 21 39  1  0  0  0  0
 22 23  1  0  0  0  0
 23 24  2  0  0  0  0
 23 25  1  0  0  0  0
 25 26  1  0  0  0  0
 25 40  1  0  0  0  0
 25 41  1  0  0  0  0
 26 42  1  0  0  0  0
 26 43  1  0  0  0  0
 26 44  1  0  0  0  0
M  END
> <s_m_source_file>
AV-unprocessed.smi

> <i_m_source_file_index>
37

> <i_lp_mmshare_version>
43012

> <i_f3d_flags>
0

> <s_epik_input>
W0NIM11bQ0gyXUMoPU8pT1tDSDJdW0NAQEhdMU9bQ0BASF0objJbY0hdYyhGKWMoPU8pW25IXWMyPU8pW0NAQEhdKEJyKVtDQEhdMU9DKD1PKVtDSDJdW0NIM10=

> <s_epik_cmdline>
J2VwaWtfcHl0aG9uJywgJy1waCcsICc3LjAnLCAnLXRuJywgJzgnLCAnLW1hJywgJzIwMCcsICctbWV0YWxfYmluZGluZycsICctaW1hZScsICc8aW5maWxlLm1hZT4nLCAnLW9tYWUnLCAnPG91dGZpbGUubWFlPic=

> <r_lp_tautomer_probability>
0.999537

> <r_epik_Ionization_Penalty>
0.104106

> <r_epik_Ionization_Penalty_Charging>
0.104106

> <r_epik_Ionization_Penalty_Neutral>
3.94675e-16

> <r_epik_State_Penalty>
0.0940182

> <r_epik_Charging_Adjusted_Penalty>
0.198124

> <i_epik_Tot_Q>
0

> <i_epik_Tot_abs_Q>
0

> <r_epik_Metal_State_Penalty>
3.05314

> <b_epik_Metal_Only>
0

> <s_epik_Chemistry_Notes>
This compound has an ester and may undergo hydrolysis at high or low pH. This compound contains an acetal/aminal-like group ( X-CH(R)-Y where X, Y are N, S, or O) that may be acid/base labile, releasing an aldehyde.

> <s_lp_Force_Field>
OPLS_2005

> <r_lp_Energy>
22.9743

> <b_lp_Chiralities_Consistent>
1

> <s_lp_Variant>
AV-unprocessed.smi:37-3

> <Gold.Version>
5.8.1

> <Gold.Id.Protein>
6NUR|6NUR_protein|mol2

> <Gold.PLP.Fitness>
36.3041

> <Gold.PLP.PLP>
-32.5571

> <Gold.PLP.part.hbond>
-4.7526

> <Gold.PLP.part.metal>
0.0000

> <Gold.PLP.part.buried>
-2.4218

> <Gold.PLP.part.nonpolar>
-25.4129

> <Gold.PLP.part.repulsive>
0.3349

> <Gold.PLP.ligand.clash>
0.0000

> <Gold.PLP.ligand.torsion>
1.1566

> <Gold.PLP.Chemscore.Hbond>
1.9600

> <Gold.PLP.Chemscore.CHOScore>
0.0000

> <Gold.PLP.Chemscore.Metal>
0.0000

> <Gold.Chemscore.Hbonds>
donor molecule, donor type, donor heavy atom, donor atom, acceptor molecule, acceptor atom, score
      P1  H  6896  6907       L1    24  0.98
      P1  H  7997  8009       L1     8  1.00

> <Gold.PLP.Chemscore.Internal.Correction>
0.1802

> <Gold.Rescore>
     Score         DG    S(hbond)    S(metal)    S(lipo)     H(rot)  DE(clash)    DE(int)     intcor
      7.58     -10.30       1.69        0.00      65.71       3.33       0.30       2.42       ----

> <Gold.Chemscore.Fitness>
7.5778

> <Gold.Chemscore.DG>
-10.2966

> <Gold.Chemscore.ZeroCoef>
-5.4800

> <Gold.Chemscore.Hbond>
1.6929

> <Gold.Chemscore.Metal>
0.0000

> <Gold.Chemscore.Lipo>
65.7091

> <Gold.Chemscore.Internal_Hbond>
0.0000

> <Gold.Chemscore.DEClash>
0.3021

> <Gold.Chemscore.DEInternal>
2.4167

> <Gold.Chemscore.Rot>
3.3303

> <Gold.Chemscore.Internal.Correction>
   9.000000E+99

> <Gold.Chemscore.Hbonds>
donor molecule, donor type, donor heavy atom, donor atom, acceptor molecule, acceptor atom, score
      P1  H  6896  6907       L1    24  0.65
      P1  H  7997  8009       L1     8  0.70

> <Gold.Chemscore.Hbond.Weighted>
-5.6542

> <Gold.Chemscore.Metal.Weighted>
-0.0000

> <Gold.Chemscore.Lipo.Weighted>
-7.6880

> <Gold.Chemscore.Internal_Hbond.Weighted>
0.0000

> <Gold.Chemscore.DEClash.Weighted>
0.3021

> <Gold.Chemscore.DEInternal.Weighted>
2.4167

> <Gold.Chemscore.Rot.Weighted>
8.5256

> <Gold.Chemscore.Internal.Correction.Weighted>
   9.000000E+99

> <Gold.Protein.RotatedTorsions>
[ 6907 6896 6895 6894 ] final  -60.53 input  -60.11 | X-H torsion
[ 7974 7965 7964 7962 ] final  -31.52 input  175.53 | X-H torsion
[ 8008 7997 7996 7995 ] final -165.45 input   59.86 | X-H torsion
[ 10167 10162 10161 10158 ] final   84.83 input  -65.29 | X-H torsion
[ 10718 10713 10712 10709 ] final    6.99 input   66.30 | X-H torsion
[ 10763 10752 10751 10750 ] final -150.03 input  -60.55 | X-H torsion
[ 11005 11000 10999 10996 ] final  160.95 input  -57.11 | X-H torsion

> <Gold.Protein.ActiveResidues>
 VAL166  LYS551  ARG553  GLY616  TRP617  ASP618  TYR619  PRO620  LYS621  CYS622 
 ASP623  PHE694  ASN695  SER759  ASP760  ASP761  ALA762  ILE779  LEU786  VAL792 
 PHE793  MET794  SER795  GLU796  ALA797  LYS798  CYS799  TRP800  GLU811  SER814 

> <Gold.Protein.RotatedAtoms>
  150.7849  134.6825  159.6451 H   0  0  0  0  0  0  0  0  0  0  0  0  # atno 6907 bound_to 6896
  152.3943  134.6388  160.0104 H   0  0  0  0  0  0  0  0  0  0  0  0  # atno 6908 bound_to 6896
  151.6678  133.3278  159.3225 H   0  0  0  0  0  0  0  0  0  0  0  0  # atno 6909 bound_to 6896
  146.1061  140.5677  142.8799 H   0  0  0  0  0  0  0  0  0  0  0  0  # atno 7974 bound_to 7965
  155.8500  140.0961  157.1680 H   0  0  0  0  0  0  0  0  0  0  0  0  # atno 8008 bound_to 7997
  154.3985  140.1385  156.3895 H   0  0  0  0  0  0  0  0  0  0  0  0  # atno 8009 bound_to 7997
  155.7971  140.3454  155.5384 H   0  0  0  0  0  0  0  0  0  0  0  0  # atno 8010 bound_to 7997
  139.9040  144.6312  150.8607 H   0  0  0  0  0  0  0  0  0  0  0  0  # atno 10167 bound_to 10162
  156.9304  130.5824  149.5649 H   0  0  0  0  0  0  0  0  0  0  0  0  # atno 10718 bound_to 10713
  154.8142  135.3294  154.7221 H   0  0  0  0  0  0  0  0  0  0  0  0  # atno 10763 bound_to 10752
  153.7864  135.6914  153.4883 H   0  0  0  0  0  0  0  0  0  0  0  0  # atno 10764 bound_to 10752
  153.1946  135.4538  155.0138 H   0  0  0  0  0  0  0  0  0  0  0  0  # atno 10765 bound_to 10752
  140.2109  134.8268  157.3120 H   0  0  0  0  0  0  0  0  0  0  0  0  # atno 11005 bound_to 11000
  144.7472  140.5099  143.6827 LP  0  0  0  0  0  0  0  0  0  0  0  0  # atno 17320 bound_to 7965
  145.5757  139.1486  143.3263 LP  0  0  0  0  0  0  0  0  0  0  0  0  # atno 17321 bound_to 7965
  140.7700  143.3415  151.2198 LP  0  0  0  0  0  0  0  0  0  0  0  0  # atno 17342 bound_to 10162
  139.7000  143.9549  152.2901 LP  0  0  0  0  0  0  0  0  0  0  0  0  # atno 17343 bound_to 10162
  156.0450  130.5527  150.8859 LP  0  0  0  0  0  0  0  0  0  0  0  0  # atno 17370 bound_to 10713
  157.5851  131.0945  150.9210 LP  0  0  0  0  0  0  0  0  0  0  0  0  # atno 17371 bound_to 10713
  140.1952  134.4323  155.7693 LP  0  0  0  0  0  0  0  0  0  0  0  0  # atno 17394 bound_to 11000
  141.2226  133.7045  156.8092 LP  0  0  0  0  0  0  0  0  0  0  0  0  # atno 17395 bound_to 11000

$$$$
