AV-unprocessed.smi:1381|AV-procd|sdf|5603|dock10
  -GOLD-   22720 5213D 1   1.00000     0.00000
 Structure written by MMmdl.
 42 43  0  0  0  0  0  0  0  0  1 V2000
  143.9939  131.9414  150.2980 C   0  0  0  0  0  0  0  0  0  0  0  0
  144.3363  133.2596  150.9029 C   0  0  0  0  0  0  0  0  0  0  0  0
  145.4802  134.0074  150.9181 C   0  0  0  0  0  0  0  0  0  0  0  0
  145.1063  135.1487  151.6763 C   0  0  0  0  0  0  0  0  0  0  0  0
  146.0348  136.1900  151.9296 N   0  0  0  0  0  0  0  0  0  0  0  0
  145.8110  137.3487  152.5726 C   0  0  0  0  0  0  0  0  0  0  0  0
  144.7343  137.6939  153.0599 O   0  0  0  0  0  0  0  0  0  0  0  0
  146.9200  138.1005  152.6205 N   0  0  0  0  0  0  0  0  0  0  0  0
  147.0173  139.4184  153.2402 C   0  0  0  0  0  0  0  0  0  0  0  0
  147.2520  139.3369  154.7623 C   0  0  0  0  0  0  0  0  0  0  0  0
  148.6542  139.3595  155.1763 N   0  0  0  0  0  0  0  0  0  0  0  0
  149.0923  140.7202  155.4596 C   0  0  0  0  0  0  0  0  0  0  0  0
  150.5537  140.7658  155.9407 C   0  0  2  0  0  0  0  0  0  0  0  0
  151.0426  142.2006  156.1641 C   0  0  0  0  0  0  0  0  0  0  0  0
  151.3923  140.1586  154.9596 O   0  0  0  0  0  0  0  0  0  0  0  0
  151.0272  138.8288  154.5862 C   0  0  1  0  0  0  0  0  0  0  0  0
  151.3937  137.8092  155.6781 C   0  0  0  0  0  0  0  0  0  0  0  0
  149.5421  138.7743  154.1743 C   0  0  0  0  0  0  0  0  0  0  0  0
  143.8473  135.1033  152.0846 N   0  0  0  0  0  0  0  0  0  0  0  0
  143.3474  133.8924  151.5910 O   0  0  0  0  0  0  0  0  0  0  0  0
  144.8785  131.4658  149.8742 H   0  0  0  0  0  0  0  0  0  0  0  0
  143.2597  132.0611  149.5013 H   0  0  0  0  0  0  0  0  0  0  0  0
  143.5751  131.2691  151.0470 H   0  0  0  0  0  0  0  0  0  0  0  0
  146.4298  133.7724  150.4610 H   0  0  0  0  0  0  0  0  0  0  0  0
  146.9705  136.0359  151.5844 H   0  0  0  0  0  0  0  0  0  0  0  0
  147.7602  137.7381  152.1946 H   0  0  0  0  0  0  0  0  0  0  0  0
  147.8428  139.9592  152.7743 H   0  0  0  0  0  0  0  0  0  0  0  0
  146.1184  139.9934  153.0155 H   0  0  0  0  0  0  0  0  0  0  0  0
  146.6868  140.1092  155.2865 H   0  0  0  0  0  0  0  0  0  0  0  0
  146.8209  138.3909  155.0932 H   0  0  0  0  0  0  0  0  0  0  0  0
  148.9825  141.3366  154.5658 H   0  0  0  0  0  0  0  0  0  0  0  0
  148.4509  141.1623  156.2229 H   0  0  0  0  0  0  0  0  0  0  0  0
  150.6449  140.2224  156.8818 H   0  0  0  0  0  0  0  0  0  0  0  0
  150.4409  142.7066  156.9197 H   0  0  0  0  0  0  0  0  0  0  0  0
  150.9877  142.7843  155.2449 H   0  0  0  0  0  0  0  0  0  0  0  0
  152.0786  142.2100  156.5037 H   0  0  0  0  0  0  0  0  0  0  0  0
  151.6261  138.5827  153.7091 H   0  0  0  0  0  0  0  0  0  0  0  0
  151.2221  136.7904  155.3304 H   0  0  0  0  0  0  0  0  0  0  0  0
  150.8032  137.9471  156.5836 H   0  0  0  0  0  0  0  0  0  0  0  0
  152.4462  137.8926  155.9493 H   0  0  0  0  0  0  0  0  0  0  0  0
  149.2675  137.7375  153.9820 H   0  0  0  0  0  0  0  0  0  0  0  0
  149.4191  139.3057  153.2292 H   0  0  0  0  0  0  0  0  0  0  0  0
  1  2  1  0  0  0  0
  1 21  1  0  0  0  0
  1 22  1  0  0  0  0
  1 23  1  0  0  0  0
  2 20  1  0  0  0  0
  2  3  2  0  0  0  0
  3  4  1  0  0  0  0
  3 24  1  0  0  0  0
  4  5  1  0  0  0  0
  4 19  2  0  0  0  0
  5  6  1  0  0  0  0
  5 25  1  0  0  0  0
  6  7  2  0  0  0  0
  6  8  1  0  0  0  0
  8  9  1  0  0  0  0
  8 26  1  0  0  0  0
  9 10  1  0  0  0  0
  9 27  1  0  0  0  0
  9 28  1  0  0  0  0
 10 11  1  0  0  0  0
 10 29  1  0  0  0  0
 10 30  1  0  0  0  0
 11 18  1  0  0  0  0
 11 12  1  0  0  0  0
 12 13  1  0  0  0  0
 12 31  1  0  0  0  0
 12 32  1  0  0  0  0
 13 14  1  0  0  0  0
 13 15  1  0  0  0  0
 13 33  1  0  0  0  0
 14 34  1  0  0  0  0
 14 35  1  0  0  0  0
 14 36  1  0  0  0  0
 15 16  1  0  0  0  0
 16 17  1  0  0  0  0
 16 18  1  0  0  0  0
 16 37  1  0  0  0  0
 17 38  1  0  0  0  0
 17 39  1  0  0  0  0
 17 40  1  0  0  0  0
 18 41  1  0  0  0  0
 18 42  1  0  0  0  0
 19 20  1  0  0  0  0
M  END
> <s_m_source_file>
AV-unprocessed.smi

> <i_m_source_file_index>
1381

> <i_lp_mmshare_version>
43012

> <i_f3d_flags>
0

> <s_epik_input>
W0NIM11jMVtjSF1jKG5vMSlbTkhdQyg9TylbTkhdW0NIMl1bQ0gyXU4yW0NIMl1bQ0BASF0oW0NIM10pT1tDQEBIXShbQ0gzXSlbQ0gyXTI=

> <s_epik_cmdline>
J2VwaWtfcHl0aG9uJywgJy1waCcsICc3LjAnLCAnLXRuJywgJzgnLCAnLW1hJywgJzIwMCcsICctbWV0YWxfYmluZGluZycsICctaW1hZScsICc8aW5maWxlLm1hZT4nLCAnLW9tYWUnLCAnPG91dGZpbGUubWFlPic=

> <r_epik_Ionization_Penalty>
0.214073

> <r_epik_Ionization_Penalty_Charging>
0

> <r_epik_Ionization_Penalty_Neutral>
0.214073

> <r_epik_State_Penalty>
0.204211

> <r_epik_Charging_Adjusted_Penalty>
0.204211

> <i_epik_Tot_Q>
0

> <i_epik_Tot_abs_Q>
0

> <r_epik_Metal_State_Penalty>
0.217067

> <b_epik_Metal_Only>
0

> <s_lp_Force_Field>
OPLS_2005

> <r_lp_Energy>
25.417

> <b_lp_Chiralities_Consistent>
1

> <s_lp_Variant>
AV-unprocessed.smi:1381-2

> <Gold.Version>
5.8.1

> <Gold.Id.Protein>
6NUR|6NUR_protein|mol2

> <Gold.PLP.Fitness>
38.8229

> <Gold.PLP.PLP>
-31.5192

> <Gold.PLP.part.hbond>
-3.0000

> <Gold.PLP.part.metal>
0.0000

> <Gold.PLP.part.buried>
-7.2357

> <Gold.PLP.part.nonpolar>
-23.2026

> <Gold.PLP.part.repulsive>
1.2472

> <Gold.PLP.ligand.clash>
0.0000

> <Gold.PLP.ligand.torsion>
0.7799

> <Gold.PLP.Chemscore.Hbond>
2.9520

> <Gold.PLP.Chemscore.CHOScore>
0.0000

> <Gold.PLP.Chemscore.Metal>
0.0000

> <Gold.Chemscore.Hbonds>
donor molecule, donor type, donor heavy atom, donor atom, acceptor molecule, acceptor atom, score
      L1  H     5    25       P1  7948  1.00
      L1  H     8    26       P1  7948  1.00
      P1  H  7989  7998       L1    15  1.00

> <Gold.PLP.Chemscore.Internal.Correction>
0.0074

> <Gold.Rescore>
     Score         DG    S(hbond)    S(metal)    S(lipo)     H(rot)  DE(clash)    DE(int)     intcor
     16.35     -18.31       2.51        0.00      72.24       1.57       0.02       1.93       ----

> <Gold.Chemscore.Fitness>
16.3544

> <Gold.Chemscore.DG>
-18.3099

> <Gold.Chemscore.ZeroCoef>
-5.4800

> <Gold.Chemscore.Hbond>
2.5138

> <Gold.Chemscore.Metal>
0.0000

> <Gold.Chemscore.Lipo>
72.2414

> <Gold.Chemscore.Internal_Hbond>
0.0000

> <Gold.Chemscore.DEClash>
0.0246

> <Gold.Chemscore.DEInternal>
1.9309

> <Gold.Chemscore.Rot>
1.5697

> <Gold.Chemscore.Internal.Correction>
   9.000000E+99

> <Gold.Chemscore.Hbonds>
donor molecule, donor type, donor heavy atom, donor atom, acceptor molecule, acceptor atom, score
      L1  H     5    25       P1  7948  0.92
      L1  H     8    26       P1  7948  0.94
      P1  H  7989  7998       L1    15  0.33

> <Gold.Chemscore.Hbond.Weighted>
-8.3961

> <Gold.Chemscore.Metal.Weighted>
-0.0000

> <Gold.Chemscore.Lipo.Weighted>
-8.4522

> <Gold.Chemscore.Internal_Hbond.Weighted>
0.0000

> <Gold.Chemscore.DEClash.Weighted>
0.0246

> <Gold.Chemscore.DEInternal.Weighted>
1.9309

> <Gold.Chemscore.Rot.Weighted>
4.0185

> <Gold.Chemscore.Internal.Correction.Weighted>
   9.000000E+99

> <Gold.Protein.RotatedTorsions>
[ 6907 6896 6895 6894 ] final  125.09 input  -60.11 | X-H torsion
[ 7974 7965 7964 7962 ] final   -5.80 input  175.53 | X-H torsion
[ 8008 7997 7996 7995 ] final   30.70 input   59.86 | X-H torsion
[ 10167 10162 10161 10158 ] final  -46.71 input  -65.29 | X-H torsion
[ 10718 10713 10712 10709 ] final   -7.30 input   66.30 | X-H torsion
[ 10763 10752 10751 10750 ] final  -25.82 input  -60.55 | X-H torsion
[ 11005 11000 10999 10996 ] final  -30.78 input  -57.11 | X-H torsion

> <Gold.Protein.ActiveResidues>
 VAL166  LYS551  ARG553  GLY616  TRP617  ASP618  TYR619  PRO620  LYS621  CYS622 
 ASP623  PHE694  ASN695  SER759  ASP760  ASP761  ALA762  ILE779  LEU786  VAL792 
 PHE793  MET794  SER795  GLU796  ALA797  LYS798  CYS799  TRP800  GLU811  SER814 

> <Gold.Protein.RotatedAtoms>
  152.4022  133.6835  159.6325 H   0  0  0  0  0  0  0  0  0  0  0  0  # atno 6907 bound_to 6896
  150.7912  133.8771  159.3284 H   0  0  0  0  0  0  0  0  0  0  0  0  # atno 6908 bound_to 6896
  151.6534  135.1000  160.0216 H   0  0  0  0  0  0  0  0  0  0  0  0  # atno 6909 bound_to 6896
  146.2345  140.2075  142.8334 H   0  0  0  0  0  0  0  0  0  0  0  0  # atno 7974 bound_to 7965
  155.0947  140.3223  155.4564 H   0  0  0  0  0  0  0  0  0  0  0  0  # atno 8008 bound_to 7997
  156.2733  140.2071  156.6020 H   0  0  0  0  0  0  0  0  0  0  0  0  # atno 8009 bound_to 7997
  154.6876  140.0520  157.0317 H   0  0  0  0  0  0  0  0  0  0  0  0  # atno 8010 bound_to 7997
  140.6806  143.2818  151.3822 H   0  0  0  0  0  0  0  0  0  0  0  0  # atno 10167 bound_to 10162
  156.7193  130.5146  149.5872 H   0  0  0  0  0  0  0  0  0  0  0  0  # atno 10718 bound_to 10713
  153.7059  135.6953  153.5050 H   0  0  0  0  0  0  0  0  0  0  0  0  # atno 10763 bound_to 10752
  153.2308  135.4338  155.0592 H   0  0  0  0  0  0  0  0  0  0  0  0  # atno 10764 bound_to 10752
  154.8330  135.3483  154.6598 H   0  0  0  0  0  0  0  0  0  0  0  0  # atno 10765 bound_to 10752
  140.9412  133.7277  156.1079 H   0  0  0  0  0  0  0  0  0  0  0  0  # atno 11005 bound_to 11000
  144.9733  140.8389  143.5442 LP  0  0  0  0  0  0  0  0  0  0  0  0  # atno 17320 bound_to 7965
  145.2059  139.2228  143.5168 LP  0  0  0  0  0  0  0  0  0  0  0  0  # atno 17321 bound_to 7965
  139.6126  144.1068  152.2314 LP  0  0  0  0  0  0  0  0  0  0  0  0  # atno 17342 bound_to 10162
  140.0487  144.5950  150.7353 LP  0  0  0  0  0  0  0  0  0  0  0  0  # atno 17343 bound_to 10162
  156.1606  130.6371  151.0714 LP  0  0  0  0  0  0  0  0  0  0  0  0  # atno 17370 bound_to 10713
  157.6905  131.0811  150.7122 LP  0  0  0  0  0  0  0  0  0  0  0  0  # atno 17371 bound_to 10713
  140.7731  134.3810  157.5503 LP  0  0  0  0  0  0  0  0  0  0  0  0  # atno 17394 bound_to 11000
  139.8821  134.9035  156.2855 LP  0  0  0  0  0  0  0  0  0  0  0  0  # atno 17395 bound_to 11000

$$$$
