AV-unprocessed.smi:993|AV-procd|sdf|4336|dock4
  -GOLD-   22720 2233D 1   1.00000     0.00000
 Structure written by MMmdl.
 31 32  0  0  0  0  0  0  0  0  2 V2000
  148.6699  141.2773  154.9577 C   0  0  0  0  0  0  0  0  0  0  0  0
  149.9075  141.0829  155.8165 C   0  0  0  0  0  0  0  0  0  0  0  0
  150.1296  142.0884  156.7385 N   0  0  0  0  0  0  0  0  0  0  0  0
  151.2308  142.0054  157.5817 C   0  0  0  0  0  0  0  0  0  0  0  0
  151.3649  143.0601  158.4828 N   0  0  0  0  0  0  0  0  0  0  0  0
  152.2716  143.1031  159.6251 C   0  0  0  0  0  0  0  0  0  0  0  0
  152.2625  144.5475  160.1270 C   0  0  0  0  0  0  0  0  0  0  0  0
  150.8847  145.0498  159.7158 C   0  0  0  0  0  0  0  0  0  0  0  0
  150.6262  144.3141  158.4012 C   0  0  0  0  0  0  0  0  0  0  0  0
  152.0823  141.0222  157.5419 N   0  0  0  0  0  0  0  0  0  0  0  0
  151.9132  139.9718  156.6266 C   0  0  0  0  0  0  0  0  0  0  0  0
  152.7214  139.0449  156.5912 O   0  0  0  0  0  0  0  0  0  0  0  0
  150.7459  140.0235  155.7207 C   0  0  0  0  0  0  0  0  0  0  0  0
  150.5351  138.8866  154.7191 C   0  0  0  0  0  0  0  0  0  0  0  0
  150.7647  137.4815  155.2880 C   0  0  0  0  0  0  0  0  0  0  0  0
  151.6710  136.8059  154.7536 O   0  0  0  0  0  0  0  0  0  0  0  0
  150.0434  137.0978  156.2358 O   0  5  0  0  0  0  0  0  0  0  0  0
  149.4690  142.8504  156.7737 H   0  0  0  0  0  0  0  0  0  0  0  0
  147.9810  140.4427  155.0887 H   0  0  0  0  0  0  0  0  0  0  0  0
  148.9430  141.3378  153.9042 H   0  0  0  0  0  0  0  0  0  0  0  0
  148.1385  142.1932  155.2187 H   0  0  0  0  0  0  0  0  0  0  0  0
  153.2801  142.7871  159.3555 H   0  0  0  0  0  0  0  0  0  0  0  0
  151.8981  142.4278  160.3957 H   0  0  0  0  0  0  0  0  0  0  0  0
  152.4461  144.6266  161.1988 H   0  0  0  0  0  0  0  0  0  0  0  0
  153.0312  145.1221  159.6088 H   0  0  0  0  0  0  0  0  0  0  0  0
  150.1462  144.7471  160.4593 H   0  0  0  0  0  0  0  0  0  0  0  0
  150.8365  146.1341  159.6124 H   0  0  0  0  0  0  0  0  0  0  0  0
  149.5600  144.1461  158.2432 H   0  0  0  0  0  0  0  0  0  0  0  0
  151.0064  144.8909  157.5570 H   0  0  0  0  0  0  0  0  0  0  0  0
  151.1703  139.0148  153.8425 H   0  0  0  0  0  0  0  0  0  0  0  0
  149.5143  138.9377  154.3402 H   0  0  0  0  0  0  0  0  0  0  0  0
  1 19  1  0  0  0  0
  1 20  1  0  0  0  0
  1 21  1  0  0  0  0
  1  2  1  0  0  0  0
  2 13  2  0  0  0  0
  2  3  1  0  0  0  0
  3 18  1  0  0  0  0
  3  4  1  0  0  0  0
  4  5  1  0  0  0  0
  4 10  2  0  0  0  0
  5  9  1  0  0  0  0
  5  6  1  0  0  0  0
  6  7  1  0  0  0  0
  6 22  1  0  0  0  0
  6 23  1  0  0  0  0
  7  8  1  0  0  0  0
  7 24  1  0  0  0  0
  7 25  1  0  0  0  0
  8  9  1  0  0  0  0
  8 26  1  0  0  0  0
  8 27  1  0  0  0  0
  9 28  1  0  0  0  0
  9 29  1  0  0  0  0
 10 11  1  0  0  0  0
 11 12  2  0  0  0  0
 11 13  1  0  0  0  0
 13 14  1  0  0  0  0
 14 15  1  0  0  0  0
 14 30  1  0  0  0  0
 14 31  1  0  0  0  0
 15 16  2  0  0  0  0
 15 17  1  0  0  0  0
M  CHG  1  17  -1
M  END
> <s_m_source_file>
AV-unprocessed.smi

> <i_m_source_file_index>
993

> <i_lp_mmshare_version>
43012

> <i_f3d_flags>
0

> <s_epik_input>
W0NIMl0xW0NIMl1bQ0gyXVtDSDJdTjFjKG5jMltDSDNdKVtuSF1jKD1PKWMyW0NIMl1DKD1PKVtPSF0=

> <s_epik_cmdline>
J2VwaWtfcHl0aG9uJywgJy1waCcsICc3LjAnLCAnLXRuJywgJzgnLCAnLW1hJywgJzIwMCcsICctbWV0YWxfYmluZGluZycsICctaW1hZScsICc8aW5maWxlLm1hZT4nLCAnLW9tYWUnLCAnPG91dGZpbGUubWFlPic=

> <r_lp_tautomer_probability>
0.108306

> <r_epik_Ionization_Penalty>
0.978387

> <r_epik_Ionization_Penalty_Charging>
0.00633795

> <r_epik_Ionization_Penalty_Neutral>
0.972049

> <r_epik_State_Penalty>
1.38976

> <r_epik_Charging_Adjusted_Penalty>
1.3961

> <i_epik_Tot_Q>
-1

> <i_epik_Tot_abs_Q>
1

> <r_epik_Metal_State_Penalty>
0.631271

> <b_epik_Metal_Only>
0

> <s_lp_Force_Field>
OPLS_2005

> <r_lp_Energy>
28.5052

> <b_lp_Chiralities_Consistent>
1

> <s_lp_Variant>
AV-unprocessed.smi:993-2

> <Gold.Version>
5.8.1

> <Gold.Id.Protein>
6NUR|6NUR_protein|mol2

> <Gold.PLP.Fitness>
47.3632

> <Gold.PLP.PLP>
-36.4093

> <Gold.PLP.part.hbond>
-3.0000

> <Gold.PLP.part.metal>
0.0000

> <Gold.PLP.part.buried>
-1.3608

> <Gold.PLP.part.nonpolar>
-31.6735

> <Gold.PLP.part.repulsive>
0.2840

> <Gold.PLP.ligand.clash>
0.0000

> <Gold.PLP.ligand.torsion>
0.2985

> <Gold.PLP.Chemscore.Hbond>
3.8500

> <Gold.PLP.Chemscore.CHOScore>
0.0000

> <Gold.PLP.Chemscore.Metal>
0.0000

> <Gold.Chemscore.Hbonds>
donor molecule, donor type, donor heavy atom, donor atom, acceptor molecule, acceptor atom, score
      L1  H     3    18       P1  8028  0.38
      P1  H  7997  8009       L1    12  0.90
      P1  H 10752 10765       L1    16  2.00

> <Gold.PLP.Chemscore.Internal.Correction>
0.0009

> <Gold.Rescore>
     Score         DG    S(hbond)    S(metal)    S(lipo)     H(rot)  DE(clash)    DE(int)     intcor
     16.27     -17.27       2.06        0.00      74.86       1.51       0.16       0.84       ----

> <Gold.Chemscore.Fitness>
16.2728

> <Gold.Chemscore.DG>
-17.2710

> <Gold.Chemscore.ZeroCoef>
-5.4800

> <Gold.Chemscore.Hbond>
2.0635

> <Gold.Chemscore.Metal>
0.0000

> <Gold.Chemscore.Lipo>
74.8569

> <Gold.Chemscore.Internal_Hbond>
0.0000

> <Gold.Chemscore.DEClash>
0.1615

> <Gold.Chemscore.DEInternal>
0.8367

> <Gold.Chemscore.Rot>
1.5075

> <Gold.Chemscore.Internal.Correction>
   9.000000E+99

> <Gold.Chemscore.Hbonds>
donor molecule, donor type, donor heavy atom, donor atom, acceptor molecule, acceptor atom, score
      L1  H     3    18       P1  8028  0.38
      P1  H  7997  8009       L1    12  0.18
      P1  H 10752 10765       L1    16  1.00

> <Gold.Chemscore.Hbond.Weighted>
-6.8919

> <Gold.Chemscore.Metal.Weighted>
-0.0000

> <Gold.Chemscore.Lipo.Weighted>
-8.7583

> <Gold.Chemscore.Internal_Hbond.Weighted>
0.0000

> <Gold.Chemscore.DEClash.Weighted>
0.1615

> <Gold.Chemscore.DEInternal.Weighted>
0.8367

> <Gold.Chemscore.Rot.Weighted>
3.8592

> <Gold.Chemscore.Internal.Correction.Weighted>
   9.000000E+99

> <Gold.Protein.RotatedTorsions>
[ 6907 6896 6895 6894 ] final  -12.06 input  -60.11 | X-H torsion
[ 7974 7965 7964 7962 ] final   25.25 input  175.53 | X-H torsion
[ 8008 7997 7996 7995 ] final -170.55 input   59.86 | X-H torsion
[ 10167 10162 10161 10158 ] final -177.13 input  -65.29 | X-H torsion
[ 10718 10713 10712 10709 ] final   42.59 input   66.30 | X-H torsion
[ 10763 10752 10751 10750 ] final  177.86 input  -60.55 | X-H torsion
[ 11005 11000 10999 10996 ] final  -64.27 input  -57.11 | X-H torsion

> <Gold.Protein.ActiveResidues>
 VAL166  LYS551  ARG553  GLY616  TRP617  ASP618  TYR619  PRO620  LYS621  CYS622 
 ASP623  PHE694  ASN695  SER759  ASP760  ASP761  ALA762  ILE779  LEU786  VAL792 
 PHE793  MET794  SER795  GLU796  ALA797  LYS798  CYS799  TRP800  GLU811  SER814 

> <Gold.Protein.RotatedAtoms>
  151.3764  135.0932  159.9481 H   0  0  0  0  0  0  0  0  0  0  0  0  # atno 6907 bound_to 6896
  152.5121  133.9114  159.7500 H   0  0  0  0  0  0  0  0  0  0  0  0  # atno 6908 bound_to 6896
  150.9539  133.6464  159.2796 H   0  0  0  0  0  0  0  0  0  0  0  0  # atno 6909 bound_to 6896
  146.1898  139.7492  142.8840 H   0  0  0  0  0  0  0  0  0  0  0  0  # atno 7974 bound_to 7965
  155.9198  140.1072  157.1215 H   0  0  0  0  0  0  0  0  0  0  0  0  # atno 8008 bound_to 7997
  154.4052  140.1258  156.4730 H   0  0  0  0  0  0  0  0  0  0  0  0  # atno 8009 bound_to 7997
  155.7209  140.3470  155.5018 H   0  0  0  0  0  0  0  0  0  0  0  0  # atno 8010 bound_to 7997
  139.5495  144.2146  152.1051 H   0  0  0  0  0  0  0  0  0  0  0  0  # atno 10167 bound_to 10162
  157.4065  130.7890  149.7393 H   0  0  0  0  0  0  0  0  0  0  0  0  # atno 10718 bound_to 10713
  154.5001  135.2783  155.1427 H   0  0  0  0  0  0  0  0  0  0  0  0  # atno 10763 bound_to 10752
  154.3064  135.6238  153.5450 H   0  0  0  0  0  0  0  0  0  0  0  0  # atno 10764 bound_to 10752
  152.9901  135.5709  154.5442 H   0  0  0  0  0  0  0  0  0  0  0  0  # atno 10765 bound_to 10752
  141.1419  133.6663  156.5807 H   0  0  0  0  0  0  0  0  0  0  0  0  # atno 11005 bound_to 11000
  145.3828  141.0361  143.3168 LP  0  0  0  0  0  0  0  0  0  0  0  0  # atno 17320 bound_to 7965
  144.8465  139.5389  143.6876 LP  0  0  0  0  0  0  0  0  0  0  0  0  # atno 17321 bound_to 7965
  140.1639  144.5000  150.6617 LP  0  0  0  0  0  0  0  0  0  0  0  0  # atno 17342 bound_to 10162
  140.6754  143.2303  151.5521 LP  0  0  0  0  0  0  0  0  0  0  0  0  # atno 17343 bound_to 10162
  155.9838  130.3997  150.3345 LP  0  0  0  0  0  0  0  0  0  0  0  0  # atno 17370 bound_to 10713
  157.1478  131.0313  151.2899 LP  0  0  0  0  0  0  0  0  0  0  0  0  # atno 17371 bound_to 10713
  140.3840  134.7499  157.4679 LP  0  0  0  0  0  0  0  0  0  0  0  0  # atno 17394 bound_to 11000
  140.0616  134.5987  155.8742 LP  0  0  0  0  0  0  0  0  0  0  0  0  # atno 17395 bound_to 11000

$$$$
