AV-unprocessed.smi:2882|AV-procd|sdf|11074|dock3
  -GOLD-   2272015543D 1   1.00000     0.00000
 Structure written by MMmdl.
 28 30  0  0  0  0  0  0  0  0  1 V2000
  153.4127  138.6751  155.7367 N   0  0  0  0  0  0  0  0  0  0  0  0
  152.4724  139.3384  155.6146 C   0  0  0  0  0  0  0  0  0  0  0  0
  151.2880  140.1734  155.4597 C   0  0  0  0  0  0  0  0  0  0  0  0
  150.4506  139.8577  154.4444 N   0  0  0  0  0  0  0  0  0  0  0  0
  149.3462  140.6192  154.2941 C   0  0  0  0  0  0  0  0  0  0  0  0
  149.0720  141.6990  155.1554 C   0  0  0  0  0  0  0  0  0  0  0  0
  149.9019  142.0217  156.1698 N   0  0  0  0  0  0  0  0  0  0  0  0
  151.0155  141.2641  156.3329 C   0  0  0  0  0  0  0  0  0  0  0  0
  151.8918  141.5909  157.3839 N   0  0  0  0  0  0  0  0  0  0  0  0
  151.5016  142.5257  158.4339 C   0  0  1  0  0  0  0  0  0  0  0  0
  151.9125  142.0596  159.8368 C   0  0  0  0  0  0  0  0  0  0  0  0
  152.7501  143.2448  160.3327 C   0  0  2  0  0  0  0  0  0  0  0  0
  151.8973  144.4954  160.5870 C   0  0  0  0  0  0  0  0  0  0  0  0
  151.5756  144.9491  159.1635 C   0  0  0  0  0  0  0  0  0  0  0  0
  152.2572  143.8606  158.3233 C   0  0  1  0  0  0  0  0  0  0  0  0
  153.3988  143.6093  159.1276 O   0  0  0  0  0  0  0  0  0  0  0  0
  148.6789  140.3661  153.4836 H   0  0  0  0  0  0  0  0  0  0  0  0
  148.1870  142.3050  155.0301 H   0  0  0  0  0  0  0  0  0  0  0  0
  152.7040  141.0119  157.5443 H   0  0  0  0  0  0  0  0  0  0  0  0
  150.4275  142.7069  158.3714 H   0  0  0  0  0  0  0  0  0  0  0  0
  151.0549  141.8568  160.4788 H   0  0  0  0  0  0  0  0  0  0  0  0
  152.5258  141.1581  159.7984 H   0  0  0  0  0  0  0  0  0  0  0  0
  153.4270  142.9957  161.1501 H   0  0  0  0  0  0  0  0  0  0  0  0
  151.0052  144.2754  161.1742 H   0  0  0  0  0  0  0  0  0  0  0  0
  152.4721  145.2600  161.1108 H   0  0  0  0  0  0  0  0  0  0  0  0
  150.5043  145.0166  158.9713 H   0  0  0  0  0  0  0  0  0  0  0  0
  152.0201  145.9249  158.9645 H   0  0  0  0  0  0  0  0  0  0  0  0
  152.4786  144.1737  157.3022 H   0  0  0  0  0  0  0  0  0  0  0  0
  1  2  3  0  0  0  0
  2  3  1  0  0  0  0
  3  8  1  0  0  0  0
  3  4  2  0  0  0  0
  4  5  1  0  0  0  0
  5  6  2  0  0  0  0
  5 17  1  0  0  0  0
  6  7  1  0  0  0  0
  6 18  1  0  0  0  0
  7  8  2  0  0  0  0
  8  9  1  0  0  0  0
  9 10  1  0  0  0  0
  9 19  1  0  0  0  0
 10 15  1  0  0  0  0
 10 11  1  0  0  0  0
 10 20  1  0  0  0  0
 11 12  1  0  0  0  0
 11 21  1  0  0  0  0
 11 22  1  0  0  0  0
 12 16  1  0  0  0  0
 12 13  1  0  0  0  0
 12 23  1  0  0  0  0
 13 14  1  0  0  0  0
 13 24  1  0  0  0  0
 13 25  1  0  0  0  0
 14 15  1  0  0  0  0
 14 26  1  0  0  0  0
 14 27  1  0  0  0  0
 15 16  1  0  0  0  0
 15 28  1  0  0  0  0
M  END
> <s_m_source_file>
AV-unprocessed.smi

> <i_m_source_file_index>
2882

> <i_lp_mmshare_version>
43012

> <i_f3d_flags>
0

> <s_epik_input>
TiNDYzFuW2NIXVtjSF1uYzFbTkhdW0NASF0oW0NIMl1bQ0BASF0yMylbQ0BASF0oTzMpW0NIMl1bQ0gyXTI=

> <s_epik_cmdline>
J2VwaWtfcHl0aG9uJywgJy1waCcsICc3LjAnLCAnLXRuJywgJzgnLCAnLW1hJywgJzIwMCcsICctbWV0YWxfYmluZGluZycsICctaW1hZScsICc8aW5maWxlLm1hZT4nLCAnLW9tYWUnLCAnPG91dGZpbGUubWFlPic=

> <r_lp_tautomer_probability>
1

> <r_epik_Ionization_Penalty>
4.95445e-05

> <r_epik_Ionization_Penalty_Charging>
0

> <r_epik_Ionization_Penalty_Neutral>
4.95445e-05

> <r_epik_State_Penalty>
-0

> <r_epik_Charging_Adjusted_Penalty>
0

> <i_epik_Tot_Q>
0

> <i_epik_Tot_abs_Q>
0

> <r_epik_Metal_State_Penalty>
-0

> <b_epik_Metal_Only>
0

> <s_lp_Force_Field>
OPLS_2005

> <r_lp_Energy>
50.0658

> <b_lp_Chiralities_Consistent>
1

> <s_lp_Variant>
AV-unprocessed.smi:2882-4

> <Gold.Version>
5.8.1

> <Gold.Id.Protein>
6NUR|6NUR_protein|mol2

> <Gold.PLP.Fitness>
39.5019

> <Gold.PLP.PLP>
-34.2816

> <Gold.PLP.part.hbond>
-2.0000

> <Gold.PLP.part.metal>
0.0000

> <Gold.PLP.part.buried>
1.9867

> <Gold.PLP.part.nonpolar>
-33.5827

> <Gold.PLP.part.repulsive>
1.5800

> <Gold.PLP.ligand.clash>
0.0000

> <Gold.PLP.ligand.torsion>
0.2041

> <Gold.PLP.Chemscore.Hbond>
0.5913

> <Gold.PLP.Chemscore.CHOScore>
1.2781

> <Gold.PLP.Chemscore.Metal>
0.0000

> <Gold.Chemscore.Hbonds>
donor molecule, donor type, donor heavy atom, donor atom, acceptor molecule, acceptor atom, score
      P1  H  7989  7998       L1     4  0.10
      P1  H  7997  8008       L1     1  0.45
      L1  C     5    17       P1  7957  0.80
      L1  C     6    18       P1  8028  0.48

> <Gold.PLP.Chemscore.Internal.Correction>
0.0202

> <Gold.Rescore>
     Score         DG    S(hbond)    S(metal)    S(lipo)     H(rot)  DE(clash)    DE(int)     intcor
     15.42     -15.57       0.89        0.00      82.79       1.00       0.11       0.04       ----

> <Gold.Chemscore.Fitness>
15.4232

> <Gold.Chemscore.DG>
-15.5748

> <Gold.Chemscore.ZeroCoef>
-5.4800

> <Gold.Chemscore.Hbond>
0.8886

> <Gold.Chemscore.Metal>
0.0000

> <Gold.Chemscore.Lipo>
82.7937

> <Gold.Chemscore.Internal_Hbond>
0.0000

> <Gold.Chemscore.DEClash>
0.1113

> <Gold.Chemscore.DEInternal>
0.0403

> <Gold.Chemscore.Rot>
1.0000

> <Gold.Chemscore.Internal.Correction>
   9.000000E+99

> <Gold.Chemscore.Hbonds>
donor molecule, donor type, donor heavy atom, donor atom, acceptor molecule, acceptor atom, score
      P1  H  7997  8008       L1     1  0.03

> <Gold.Chemscore.Hbond.Weighted>
-2.9680

> <Gold.Chemscore.Metal.Weighted>
-0.0000

> <Gold.Chemscore.Lipo.Weighted>
-9.6869

> <Gold.Chemscore.Internal_Hbond.Weighted>
0.0000

> <Gold.Chemscore.DEClash.Weighted>
0.1113

> <Gold.Chemscore.DEInternal.Weighted>
0.0403

> <Gold.Chemscore.Rot.Weighted>
2.5600

> <Gold.Chemscore.Internal.Correction.Weighted>
   9.000000E+99

> <Gold.Protein.RotatedTorsions>
[ 6907 6896 6895 6894 ] final  -14.91 input  -60.11 | X-H torsion
[ 7974 7965 7964 7962 ] final  178.91 input  175.53 | X-H torsion
[ 8008 7997 7996 7995 ] final  -17.38 input   59.86 | X-H torsion
[ 10167 10162 10161 10158 ] final  -47.92 input  -65.29 | X-H torsion
[ 10718 10713 10712 10709 ] final -143.71 input   66.30 | X-H torsion
[ 10763 10752 10751 10750 ] final    4.42 input  -60.55 | X-H torsion
[ 11005 11000 10999 10996 ] final  151.16 input  -57.11 | X-H torsion

> <Gold.Protein.ActiveResidues>
 VAL166  LYS551  ARG553  GLY616  TRP617  ASP618  TYR619  PRO620  LYS621  CYS622 
 ASP623  PHE694  ASN695  SER759  ASP760  ASP761  ALA762  ILE779  LEU786  VAL792 
 PHE793  MET794  SER795  GLU796  ALA797  LYS798  CYS799  TRP800  GLU811  SER814 

> <Gold.Protein.RotatedAtoms>
  151.3321  135.0844  159.9341 H   0  0  0  0  0  0  0  0  0  0  0  0  # atno 6907 bound_to 6896
  152.5232  133.9532  159.7692 H   0  0  0  0  0  0  0  0  0  0  0  0  # atno 6908 bound_to 6896
  150.9873  133.6132  159.2743 H   0  0  0  0  0  0  0  0  0  0  0  0  # atno 6909 bound_to 6896
  144.7151  140.0469  143.6436 H   0  0  0  0  0  0  0  0  0  0  0  0  # atno 7974 bound_to 7965
  154.4983  140.2144  155.9400 H   0  0  0  0  0  0  0  0  0  0  0  0  # atno 8008 bound_to 7997
  156.1400  140.3181  155.8448 H   0  0  0  0  0  0  0  0  0  0  0  0  # atno 8009 bound_to 7997
  155.4138  140.0492  157.3021 H   0  0  0  0  0  0  0  0  0  0  0  0  # atno 8010 bound_to 7997
  140.6754  143.2763  151.3996 H   0  0  0  0  0  0  0  0  0  0  0  0  # atno 10167 bound_to 10162
  156.3612  130.7739  151.1907 H   0  0  0  0  0  0  0  0  0  0  0  0  # atno 10718 bound_to 10713
  153.2714  135.6932  153.7477 H   0  0  0  0  0  0  0  0  0  0  0  0  # atno 10763 bound_to 10752
  153.6498  135.3378  155.3097 H   0  0  0  0  0  0  0  0  0  0  0  0  # atno 10764 bound_to 10752
  154.8465  135.4452  154.1738 H   0  0  0  0  0  0  0  0  0  0  0  0  # atno 10765 bound_to 10752
  140.1194  134.8873  157.2051 H   0  0  0  0  0  0  0  0  0  0  0  0  # atno 11005 bound_to 11000
  145.9977  139.3065  143.0946 LP  0  0  0  0  0  0  0  0  0  0  0  0  # atno 17320 bound_to 7965
  145.8830  140.9351  143.0591 LP  0  0  0  0  0  0  0  0  0  0  0  0  # atno 17321 bound_to 7965
  139.6043  144.1229  152.2232 LP  0  0  0  0  0  0  0  0  0  0  0  0  # atno 17342 bound_to 10162
  140.0623  144.5846  150.7253 LP  0  0  0  0  0  0  0  0  0  0  0  0  # atno 17343 bound_to 10162
  157.7473  131.0399  150.4574 LP  0  0  0  0  0  0  0  0  0  0  0  0  # atno 17370 bound_to 10713
  156.4785  130.4068  149.6475 LP  0  0  0  0  0  0  0  0  0  0  0  0  # atno 17371 bound_to 10713
  140.2985  134.3159  155.7296 LP  0  0  0  0  0  0  0  0  0  0  0  0  # atno 17394 bound_to 11000
  141.2148  133.7577  156.9606 LP  0  0  0  0  0  0  0  0  0  0  0  0  # atno 17395 bound_to 11000

$$$$
