AV-unprocessed.smi:2012|AV-procd|sdf|8155|dock7
  -GOLD-   2272010393D 1   1.00000     0.00000
 Structure written by MMmdl.
 50 51  0  0  0  0  0  0  0  0  1 V2000
  145.8557  135.0508  151.8998 C   0  0  0  0  0  0  0  0  0  0  0  0
  146.3896  135.0025  153.3267 C   0  0  0  0  0  0  0  0  0  0  0  0
  145.6164  134.8299  154.2686 O   0  0  0  0  0  0  0  0  0  0  0  0
  147.7156  135.1604  153.4712 N   0  0  0  0  0  0  0  0  0  0  0  0
  148.4343  135.1927  154.7473 C   0  0  2  0  0  0  0  0  0  0  0  0
  148.8025  136.6580  155.0440 C   0  0  0  0  0  0  0  0  0  0  0  0
  149.0014  137.0317  156.2011 O   0  0  0  0  0  0  0  0  0  0  0  0
  148.9041  137.4718  153.9819 N   0  0  0  0  0  0  0  0  0  0  0  0
  149.3372  138.8653  154.0348 C   0  0  0  0  0  0  0  0  0  0  0  0
  150.5837  139.1192  154.8772 C   0  0  0  0  0  0  0  0  0  0  0  0
  151.7759  138.4317  154.5783 C   0  0  0  0  0  0  0  0  0  0  0  0
  152.9170  138.6923  155.3602 C   0  0  0  0  0  0  0  0  0  0  0  0
  152.9282  139.5695  156.3855 N   0  0  0  0  0  0  0  0  0  0  0  0
  151.7854  140.2313  156.6934 C   0  0  0  0  0  0  0  0  0  0  0  0
  151.8115  141.1577  157.7587 N   0  0  0  0  0  0  0  0  0  0  0  0
  152.4648  140.7658  159.0058 C   0  0  0  0  0  0  0  0  0  0  0  0
  152.6989  141.9993  159.8951 C   0  0  0  0  0  0  0  0  0  0  0  0
  151.4690  142.6860  160.1033 O   0  0  0  0  0  0  0  0  0  0  0  0
  150.9081  143.1524  158.8802 C   0  0  0  0  0  0  0  0  0  0  0  0
  150.6059  141.9584  157.9594 C   0  0  0  0  0  0  0  0  0  0  0  0
  150.5925  140.0252  155.9621 C   0  0  0  0  0  0  0  0  0  0  0  0
  149.7227  134.3265  154.6275 C   0  0  0  0  0  0  0  0  0  0  0  0
  149.4111  132.9047  154.1206 C   0  0  0  0  0  0  0  0  0  0  0  0
  150.5057  134.2287  155.9535 C   0  0  0  0  0  0  0  0  0  0  0  0
  145.9543  136.0575  151.4933 H   0  0  0  0  0  0  0  0  0  0  0  0
  144.8016  134.7727  151.8707 H   0  0  0  0  0  0  0  0  0  0  0  0
  146.4079  134.3620  151.2598 H   0  0  0  0  0  0  0  0  0  0  0  0
  148.2686  135.3003  152.6381 H   0  0  0  0  0  0  0  0  0  0  0  0
  147.8009  134.7941  155.5429 H   0  0  0  0  0  0  0  0  0  0  0  0
  148.7230  137.0841  153.0673 H   0  0  0  0  0  0  0  0  0  0  0  0
  149.5425  139.1928  153.0156 H   0  0  0  0  0  0  0  0  0  0  0  0
  148.5200  139.4892  154.4008 H   0  0  0  0  0  0  0  0  0  0  0  0
  151.8201  137.7251  153.7626 H   0  0  0  0  0  0  0  0  0  0  0  0
  153.8480  138.1855  155.1533 H   0  0  0  0  0  0  0  0  0  0  0  0
  151.8395  140.0397  159.5272 H   0  0  0  0  0  0  0  0  0  0  0  0
  153.4221  140.2855  158.7996 H   0  0  0  0  0  0  0  0  0  0  0  0
  153.1033  141.6942  160.8603 H   0  0  0  0  0  0  0  0  0  0  0  0
  153.4295  142.6714  159.4418 H   0  0  0  0  0  0  0  0  0  0  0  0
  149.9911  143.7005  159.0966 H   0  0  0  0  0  0  0  0  0  0  0  0
  151.5906  143.8531  158.3960 H   0  0  0  0  0  0  0  0  0  0  0  0
  150.1980  142.3322  157.0223 H   0  0  0  0  0  0  0  0  0  0  0  0
  149.8373  141.3276  158.4078 H   0  0  0  0  0  0  0  0  0  0  0  0
  149.7013  140.5767  156.2144 H   0  0  0  0  0  0  0  0  0  0  0  0
  150.3861  134.7876  153.8934 H   0  0  0  0  0  0  0  0  0  0  0  0
  148.7236  132.3889  154.7917 H   0  0  0  0  0  0  0  0  0  0  0  0
  150.3189  132.3045  154.0526 H   0  0  0  0  0  0  0  0  0  0  0  0
  148.9624  132.9140  153.1272 H   0  0  0  0  0  0  0  0  0  0  0  0
  149.8844  133.8140  156.7481 H   0  0  0  0  0  0  0  0  0  0  0  0
  150.8718  135.1992  156.2888 H   0  0  0  0  0  0  0  0  0  0  0  0
  151.3785  133.5841  155.8461 H   0  0  0  0  0  0  0  0  0  0  0  0
  1  2  1  0  0  0  0
  1 25  1  0  0  0  0
  1 26  1  0  0  0  0
  1 27  1  0  0  0  0
  2  3  2  0  0  0  0
  2  4  1  0  0  0  0
  4  5  1  0  0  0  0
  4 28  1  0  0  0  0
  5  6  1  0  0  0  0
  5 22  1  0  0  0  0
  5 29  1  0  0  0  0
  6  7  2  0  0  0  0
  6  8  1  0  0  0  0
  8  9  1  0  0  0  0
  8 30  1  0  0  0  0
  9 10  1  0  0  0  0
  9 31  1  0  0  0  0
  9 32  1  0  0  0  0
 10 21  1  0  0  0  0
 10 11  2  0  0  0  0
 11 12  1  0  0  0  0
 11 33  1  0  0  0  0
 12 13  2  0  0  0  0
 12 34  1  0  0  0  0
 13 14  1  0  0  0  0
 14 15  1  0  0  0  0
 14 21  2  0  0  0  0
 15 20  1  0  0  0  0
 15 16  1  0  0  0  0
 16 17  1  0  0  0  0
 16 35  1  0  0  0  0
 16 36  1  0  0  0  0
 17 18  1  0  0  0  0
 17 37  1  0  0  0  0
 17 38  1  0  0  0  0
 18 19  1  0  0  0  0
 19 20  1  0  0  0  0
 19 39  1  0  0  0  0
 19 40  1  0  0  0  0
 20 41  1  0  0  0  0
 20 42  1  0  0  0  0
 21 43  1  0  0  0  0
 22 23  1  0  0  0  0
 22 24  1  0  0  0  0
 22 44  1  0  0  0  0
 23 45  1  0  0  0  0
 23 46  1  0  0  0  0
 23 47  1  0  0  0  0
 24 48  1  0  0  0  0
 24 49  1  0  0  0  0
 24 50  1  0  0  0  0
M  END
> <s_m_source_file>
AV-unprocessed.smi

> <i_m_source_file_index>
2012

> <i_lp_mmshare_version>
43012

> <i_f3d_flags>
0

> <s_epik_input>
W0NIM11DKD1PKVtOSF1bQ0BASF0oW0NIXShbQ0gzXSlbQ0gzXSlDKD1PKVtOSF1bQ0gyXWMxW2NIXVtjSF1uYyhbY0hdMSlOMltDSDJdW0NIMl1PW0NIMl1bQ0gyXTI=

> <s_epik_cmdline>
J2VwaWtfcHl0aG9uJywgJy1waCcsICc3LjAnLCAnLXRuJywgJzgnLCAnLW1hJywgJzIwMCcsICctbWV0YWxfYmluZGluZycsICctaW1hZScsICc8aW5maWxlLm1hZT4nLCAnLW9tYWUnLCAnPG91dGZpbGUubWFlPic=

> <r_lp_tautomer_probability>
1

> <r_epik_Ionization_Penalty>
0.00518786

> <r_epik_Ionization_Penalty_Charging>
0

> <r_epik_Ionization_Penalty_Neutral>
0.00518786

> <r_epik_State_Penalty>
0.00378052

> <r_epik_Charging_Adjusted_Penalty>
0.00378052

> <i_epik_Tot_Q>
0

> <i_epik_Tot_abs_Q>
0

> <r_epik_Metal_State_Penalty>
-0

> <b_epik_Metal_Only>
0

> <s_lp_Force_Field>
OPLS_2005

> <r_lp_Energy>
14.5368

> <b_lp_Chiralities_Consistent>
1

> <s_lp_Variant>
AV-unprocessed.smi:2012-1

> <Gold.Version>
5.8.1

> <Gold.Id.Protein>
6NUR|6NUR_protein|mol2

> <Gold.PLP.Fitness>
46.1898

> <Gold.PLP.PLP>
-39.2086

> <Gold.PLP.part.hbond>
-3.3272

> <Gold.PLP.part.metal>
0.0000

> <Gold.PLP.part.buried>
-4.4386

> <Gold.PLP.part.nonpolar>
-31.9606

> <Gold.PLP.part.repulsive>
0.1042

> <Gold.PLP.ligand.clash>
0.0000

> <Gold.PLP.ligand.torsion>
1.2575

> <Gold.PLP.Chemscore.Hbond>
3.0000

> <Gold.PLP.Chemscore.CHOScore>
0.0000

> <Gold.PLP.Chemscore.Metal>
0.0000

> <Gold.Chemscore.Hbonds>
donor molecule, donor type, donor heavy atom, donor atom, acceptor molecule, acceptor atom, score
      L1  H     4    28       P1  7948  0.55
      L1  H     8    30       P1  7948  0.88
      P1  H  7997  8009       L1    13  0.94

> <Gold.PLP.Chemscore.Internal.Correction>
0.4963

> <Gold.Rescore>
     Score         DG    S(hbond)    S(metal)    S(lipo)     H(rot)  DE(clash)    DE(int)     intcor
     17.78     -20.00       2.80        0.00      91.87       2.18       0.02       2.20       ----

> <Gold.Chemscore.Fitness>
17.7759

> <Gold.Chemscore.DG>
-19.9995

> <Gold.Chemscore.ZeroCoef>
-5.4800

> <Gold.Chemscore.Hbond>
2.8010

> <Gold.Chemscore.Metal>
0.0000

> <Gold.Chemscore.Lipo>
91.8658

> <Gold.Chemscore.Internal_Hbond>
0.0000

> <Gold.Chemscore.DEClash>
0.0229

> <Gold.Chemscore.DEInternal>
2.2007

> <Gold.Chemscore.Rot>
2.1813

> <Gold.Chemscore.Internal.Correction>
   9.000000E+99

> <Gold.Chemscore.Hbonds>
donor molecule, donor type, donor heavy atom, donor atom, acceptor molecule, acceptor atom, score
      L1  H     4    28       P1  7948  0.51
      L1  H     8    30       P1  7948  0.85
      P1  H  7997  8009       L1    13  0.36

> <Gold.Chemscore.Hbond.Weighted>
-9.3554

> <Gold.Chemscore.Metal.Weighted>
-0.0000

> <Gold.Chemscore.Lipo.Weighted>
-10.7483

> <Gold.Chemscore.Internal_Hbond.Weighted>
0.0000

> <Gold.Chemscore.DEClash.Weighted>
0.0229

> <Gold.Chemscore.DEInternal.Weighted>
2.2007

> <Gold.Chemscore.Rot.Weighted>
5.5842

> <Gold.Chemscore.Internal.Correction.Weighted>
   9.000000E+99

> <Gold.Protein.RotatedTorsions>
[ 6907 6896 6895 6894 ] final  171.45 input  -60.11 | X-H torsion
[ 7974 7965 7964 7962 ] final -109.47 input  175.53 | X-H torsion
[ 8008 7997 7996 7995 ] final -162.89 input   59.86 | X-H torsion
[ 10167 10162 10161 10158 ] final   80.51 input  -65.29 | X-H torsion
[ 10718 10713 10712 10709 ] final   29.30 input   66.30 | X-H torsion
[ 10763 10752 10751 10750 ] final  176.03 input  -60.55 | X-H torsion
[ 11005 11000 10999 10996 ] final  -95.21 input  -57.11 | X-H torsion

> <Gold.Protein.ActiveResidues>
 VAL166  LYS551  ARG553  GLY616  TRP617  ASP618  TYR619  PRO620  LYS621  CYS622 
 ASP623  PHE694  ASN695  SER759  ASP760  ASP761  ALA762  ILE779  LEU786  VAL792 
 PHE793  MET794  SER795  GLU796  ALA797  LYS798  CYS799  TRP800  GLU811  SER814 

> <Gold.Protein.RotatedAtoms>
  151.8000  133.3369  159.3523 H   0  0  0  0  0  0  0  0  0  0  0  0  # atno 6907 bound_to 6896
  150.7362  134.5762  159.5925 H   0  0  0  0  0  0  0  0  0  0  0  0  # atno 6908 bound_to 6896
  152.3150  134.7452  160.0379 H   0  0  0  0  0  0  0  0  0  0  0  0  # atno 6909 bound_to 6896
  145.1801  140.8967  143.3485 H   0  0  0  0  0  0  0  0  0  0  0  0  # atno 7974 bound_to 7965
  155.8133  140.0909  157.1891 H   0  0  0  0  0  0  0  0  0  0  0  0  # atno 8008 bound_to 7997
  154.3979  140.1450  156.3473 H   0  0  0  0  0  0  0  0  0  0  0  0  # atno 8009 bound_to 7997
  155.8342  140.3441  155.5594 H   0  0  0  0  0  0  0  0  0  0  0  0  # atno 8010 bound_to 7997
  139.9490  144.6039  150.8179 H   0  0  0  0  0  0  0  0  0  0  0  0  # atno 10167 bound_to 10162
  157.2448  130.7086  149.6376 H   0  0  0  0  0  0  0  0  0  0  0  0  # atno 10718 bound_to 10713
  154.4756  135.2773  155.1610 H   0  0  0  0  0  0  0  0  0  0  0  0  # atno 10763 bound_to 10752
  154.3341  135.6184  153.5569 H   0  0  0  0  0  0  0  0  0  0  0  0  # atno 10764 bound_to 10752
  152.9869  135.5772  154.5146 H   0  0  0  0  0  0  0  0  0  0  0  0  # atno 10765 bound_to 10752
  141.1448  133.8010  157.0403 H   0  0  0  0  0  0  0  0  0  0  0  0  # atno 11005 bound_to 11000
  145.0145  139.3479  143.6103 LP  0  0  0  0  0  0  0  0  0  0  0  0  # atno 17320 bound_to 7965
  146.3454  139.9421  142.8739 LP  0  0  0  0  0  0  0  0  0  0  0  0  # atno 17321 bound_to 7965
  140.7588  143.3116  151.2831 LP  0  0  0  0  0  0  0  0  0  0  0  0  # atno 17342 bound_to 10162
  139.6644  144.0132  152.2713 LP  0  0  0  0  0  0  0  0  0  0  0  0  # atno 17343 bound_to 10162
  155.9668  130.4446  150.5470 LP  0  0  0  0  0  0  0  0  0  0  0  0  # atno 17370 bound_to 10713
  157.3341  131.0705  151.1838 LP  0  0  0  0  0  0  0  0  0  0  0  0  # atno 17371 bound_to 10713
  140.0697  134.9709  157.1446 LP  0  0  0  0  0  0  0  0  0  0  0  0  # atno 17394 bound_to 11000
  140.3729  134.2371  155.7176 LP  0  0  0  0  0  0  0  0  0  0  0  0  # atno 17395 bound_to 11000

$$$$
