AV-unprocessed.smi:53|AV-procd|sdf|514|dock7
  -GOLD-   2262016383D 1   1.00000     0.00000
 Structure written by MMmdl.
 30 31  0  0  0  0  0  0  0  0  1 V2000
  153.5341  142.9240  159.4671 N   0  0  0  0  0  0  0  0  0  0  0  0
  152.5210  142.3134  158.8369 C   0  0  0  0  0  0  0  0  0  0  0  0
  151.4106  143.0818  158.3234 C   0  0  0  0  0  0  0  0  0  0  0  0
  150.4307  142.3954  157.6952 C   0  0  0  0  0  0  0  0  0  0  0  0
  150.4834  141.0166  157.5188 N   0  0  0  0  0  0  0  0  0  0  0  0
  149.3685  140.2353  156.8398 C   0  0  1  0  0  0  0  0  0  0  0  0
  148.2451  141.0472  156.6789 O   0  0  0  0  0  0  0  0  0  0  0  0
  148.2904  141.6705  155.4016 C   0  0  2  0  0  0  0  0  0  0  0  0
  146.8938  142.1816  155.0184 C   0  0  0  0  0  0  0  0  0  0  0  0
  147.0035  143.1964  154.0430 O   0  0  0  0  0  0  0  0  0  0  0  0
  148.7960  140.5324  154.5135 C   0  0  1  0  0  0  0  0  0  0  0  0
  149.4606  141.0530  153.3794 O   0  0  0  0  0  0  0  0  0  0  0  0
  149.7732  139.7809  155.4167 C   0  0  2  0  0  0  0  0  0  0  0  0
  149.6152  138.3862  155.2463 O   0  0  0  0  0  0  0  0  0  0  0  0
  151.5673  140.2905  158.0718 C   0  0  0  0  0  0  0  0  0  0  0  0
  151.6281  139.0638  157.9996 O   0  0  0  0  0  0  0  0  0  0  0  0
  152.5525  141.0026  158.7011 N   0  0  0  0  0  0  0  0  0  0  0  0
  149.1407  139.4218  157.5321 H   0  0  0  0  0  0  0  0  0  0  0  0
  149.0177  142.4850  155.4056 H   0  0  0  0  0  0  0  0  0  0  0  0
  147.9659  139.8919  154.2101 H   0  0  0  0  0  0  0  0  0  0  0  0
  150.8058  140.0645  155.2072 H   0  0  0  0  0  0  0  0  0  0  0  0
  154.3061  142.3836  159.8299 H   0  0  0  0  0  0  0  0  0  0  0  0
  153.5202  143.9272  159.5813 H   0  0  0  0  0  0  0  0  0  0  0  0
  151.3355  144.1554  158.4210 H   0  0  0  0  0  0  0  0  0  0  0  0
  149.5945  142.9714  157.3294 H   0  0  0  0  0  0  0  0  0  0  0  0
  146.3049  141.3729  154.5845 H   0  0  0  0  0  0  0  0  0  0  0  0
  146.3508  142.5479  155.8901 H   0  0  0  0  0  0  0  0  0  0  0  0
  147.7438  143.7426  154.2593 H   0  0  0  0  0  0  0  0  0  0  0  0
  149.4833  140.3829  152.7129 H   0  0  0  0  0  0  0  0  0  0  0  0
  150.1973  138.0995  154.5595 H   0  0  0  0  0  0  0  0  0  0  0  0
  1  2  1  0  0  0  0
  1 22  1  0  0  0  0
  1 23  1  0  0  0  0
  2 17  2  0  0  0  0
  2  3  1  0  0  0  0
  3  4  2  0  0  0  0
  3 24  1  0  0  0  0
  4  5  1  0  0  0  0
  4 25  1  0  0  0  0
  5  6  1  0  0  0  0
  5 15  1  0  0  0  0
  6 18  1  0  0  0  0
  6 13  1  0  0  0  0
  6  7  1  0  0  0  0
  7  8  1  0  0  0  0
  8 19  1  0  0  0  0
  8  9  1  0  0  0  0
  8 11  1  0  0  0  0
  9 10  1  0  0  0  0
  9 26  1  0  0  0  0
  9 27  1  0  0  0  0
 10 28  1  0  0  0  0
 11 20  1  0  0  0  0
 11 12  1  0  0  0  0
 11 13  1  0  0  0  0
 12 29  1  0  0  0  0
 13 21  1  0  0  0  0
 13 14  1  0  0  0  0
 14 30  1  0  0  0  0
 15 16  2  0  0  0  0
 15 17  1  0  0  0  0
M  END
> <s_m_source_file>
AV-unprocessed.smi

> <i_m_source_file_index>
53

> <i_lp_mmshare_version>
43012

> <i_f3d_flags>
0

> <s_epik_input>
W05IMl1jMVtjSF1bY0hdbihjKD1PKW4xKVtDQEBIXTJPW0NASF0oW0NIMl1bT0hdKVtDQEBIXShbT0hdKVtDQEBIXTJbT0hd

> <s_epik_cmdline>
J2VwaWtfcHl0aG9uJywgJy1waCcsICc3LjAnLCAnLXRuJywgJzgnLCAnLW1hJywgJzIwMCcsICctbWV0YWxfYmluZGluZycsICctaW1hZScsICc8aW5maWxlLm1hZT4nLCAnLW9tYWUnLCAnPG91dGZpbGUubWFlPic=

> <r_lp_tautomer_probability>
0.99996

> <r_epik_Ionization_Penalty>
0.00069087

> <r_epik_Ionization_Penalty_Charging>
2.61959e-08

> <r_epik_Ionization_Penalty_Neutral>
0.000690844

> <r_epik_State_Penalty>
1.15523e-05

> <r_epik_Charging_Adjusted_Penalty>
1.15785e-05

> <i_epik_Tot_Q>
0

> <i_epik_Tot_abs_Q>
0

> <r_epik_Metal_State_Penalty>
-0

> <b_epik_Metal_Only>
0

> <s_epik_Chemistry_Notes>
This compound contains an acetal/aminal-like group ( X-CH(R)-Y where X, Y are N, S, or O) that may be acid/base labile, releasing an aldehyde.

> <s_lp_Force_Field>
OPLS_2005

> <r_lp_Energy>
26.6068

> <b_lp_Chiralities_Consistent>
1

> <s_lp_Variant>
AV-unprocessed.smi:53-2

> <Gold.Version>
5.8.1

> <Gold.Id.Protein>
6NUR|6NUR_protein|mol2

> <Gold.PLP.Fitness>
35.1594

> <Gold.PLP.PLP>
-24.8563

> <Gold.PLP.part.hbond>
-4.7115

> <Gold.PLP.part.metal>
0.0000

> <Gold.PLP.part.buried>
-2.7106

> <Gold.PLP.part.nonpolar>
-17.0209

> <Gold.PLP.part.repulsive>
0.0992

> <Gold.PLP.ligand.clash>
0.0000

> <Gold.PLP.ligand.torsion>
0.6404

> <Gold.PLP.Chemscore.Hbond>
2.8484

> <Gold.PLP.Chemscore.CHOScore>
1.0000

> <Gold.PLP.Chemscore.Metal>
0.0000

> <Gold.Chemscore.Hbonds>
donor molecule, donor type, donor heavy atom, donor atom, acceptor molecule, acceptor atom, score
      L1  H    10    28       P1  8028  1.00
      L1  H    12    29       P1  7957  0.93
      P1  H  7989  7998       L1    12  0.05
      P1  H  8011  8017       L1    12  0.85
      L1  C     4    25       P1  8028  1.00

> <Gold.PLP.Chemscore.Internal.Correction>
0.0387

> <Gold.Rescore>
     Score         DG    S(hbond)    S(metal)    S(lipo)     H(rot)  DE(clash)    DE(int)     intcor
      5.05      -5.84       1.60        0.00      38.52       3.71       0.15       0.64       ----

> <Gold.Chemscore.Fitness>
5.0492

> <Gold.Chemscore.DG>
-5.8437

> <Gold.Chemscore.ZeroCoef>
-5.4800

> <Gold.Chemscore.Hbond>
1.6027

> <Gold.Chemscore.Metal>
0.0000

> <Gold.Chemscore.Lipo>
38.5224

> <Gold.Chemscore.Internal_Hbond>
0.0000

> <Gold.Chemscore.DEClash>
0.1539

> <Gold.Chemscore.DEInternal>
0.6405

> <Gold.Chemscore.Rot>
3.7095

> <Gold.Chemscore.Internal.Correction>
   9.000000E+99

> <Gold.Chemscore.Hbonds>
donor molecule, donor type, donor heavy atom, donor atom, acceptor molecule, acceptor atom, score
      L1  H    10    28       P1  8028  0.32
      L1  H    12    29       P1  7957  0.89
      P1  H  8011  8017       L1    12  0.14

> <Gold.Chemscore.Hbond.Weighted>
-5.3530

> <Gold.Chemscore.Metal.Weighted>
-0.0000

> <Gold.Chemscore.Lipo.Weighted>
-4.5071

> <Gold.Chemscore.Internal_Hbond.Weighted>
0.0000

> <Gold.Chemscore.DEClash.Weighted>
0.1539

> <Gold.Chemscore.DEInternal.Weighted>
0.6405

> <Gold.Chemscore.Rot.Weighted>
9.4964

> <Gold.Chemscore.Internal.Correction.Weighted>
   9.000000E+99

> <Gold.Protein.RotatedTorsions>
[ 6907 6896 6895 6894 ] final  120.98 input  -60.11 | X-H torsion
[ 7974 7965 7964 7962 ] final  -29.95 input  175.53 | X-H torsion
[ 8008 7997 7996 7995 ] final -172.14 input   59.86 | X-H torsion
[ 10167 10162 10161 10158 ] final  127.17 input  -65.29 | X-H torsion
[ 10718 10713 10712 10709 ] final  171.49 input   66.30 | X-H torsion
[ 10763 10752 10751 10750 ] final -148.00 input  -60.55 | X-H torsion
[ 11005 11000 10999 10996 ] final -116.26 input  -57.11 | X-H torsion

> <Gold.Protein.ActiveResidues>
 VAL166  LYS551  ARG553  GLY616  TRP617  ASP618  TYR619  PRO620  LYS621  CYS622 
 ASP623  PHE694  ASN695  SER759  ASP760  ASP761  ALA762  ILE779  LEU786  VAL792 
 PHE793  MET794  SER795  GLU796  ALA797  LYS798  CYS799  TRP800  GLU811  SER814 

> <Gold.Protein.RotatedAtoms>
  152.4357  133.7356  159.6611 H   0  0  0  0  0  0  0  0  0  0  0  0  # atno 6907 bound_to 6896
  150.8240  133.8193  159.3132 H   0  0  0  0  0  0  0  0  0  0  0  0  # atno 6908 bound_to 6896
  151.5867  135.1058  160.0081 H   0  0  0  0  0  0  0  0  0  0  0  0  # atno 6909 bound_to 6896
  146.1179  140.5478  142.8748 H   0  0  0  0  0  0  0  0  0  0  0  0  # atno 7974 bound_to 7965
  155.9407  140.1108  157.1058 H   0  0  0  0  0  0  0  0  0  0  0  0  # atno 8008 bound_to 7997
  154.4088  140.1219  156.4989 H   0  0  0  0  0  0  0  0  0  0  0  0  # atno 8009 bound_to 7997
  155.6966  140.3472  155.4918 H   0  0  0  0  0  0  0  0  0  0  0  0  # atno 8010 bound_to 7997
  139.5592  144.6870  151.4092 H   0  0  0  0  0  0  0  0  0  0  0  0  # atno 10167 bound_to 10162
  156.9928  131.0153  151.2852 H   0  0  0  0  0  0  0  0  0  0  0  0  # atno 10718 bound_to 10713
  154.8256  135.3346  154.6906 H   0  0  0  0  0  0  0  0  0  0  0  0  # atno 10763 bound_to 10752
  153.7532  135.6938  153.4945 H   0  0  0  0  0  0  0  0  0  0  0  0  # atno 10764 bound_to 10752
  153.2162  135.4465  155.0387 H   0  0  0  0  0  0  0  0  0  0  0  0  # atno 10765 bound_to 10752
  141.0434  133.9800  157.2958 H   0  0  0  0  0  0  0  0  0  0  0  0  # atno 11005 bound_to 11000
  144.7570  140.5331  143.6762 LP  0  0  0  0  0  0  0  0  0  0  0  0  # atno 17320 bound_to 7965
  145.5528  139.1477  143.3385 LP  0  0  0  0  0  0  0  0  0  0  0  0  # atno 17321 bound_to 7965
  140.6870  143.7951  150.7200 LP  0  0  0  0  0  0  0  0  0  0  0  0  # atno 17342 bound_to 10162
  140.1422  143.4431  152.2186 LP  0  0  0  0  0  0  0  0  0  0  0  0  # atno 17343 bound_to 10162
  157.5446  130.8142  149.8070 LP  0  0  0  0  0  0  0  0  0  0  0  0  # atno 17370 bound_to 10713
  156.0200  130.3799  150.1990 LP  0  0  0  0  0  0  0  0  0  0  0  0  # atno 17371 bound_to 10713
  139.9293  135.0200  156.8344 LP  0  0  0  0  0  0  0  0  0  0  0  0  # atno 17394 bound_to 11000
  140.6192  134.0010  155.7611 LP  0  0  0  0  0  0  0  0  0  0  0  0  # atno 17395 bound_to 11000

$$$$
