AV-unprocessed.smi:949|AV-procd|sdf|4247|dock4
  -GOLD-   22720 2153D 1   1.00000     0.00000
 Structure written by MMmdl.
 32 33  0  0  0  0  0  0  0  0  1 V2000
  151.1142  141.7102  158.8177 C   0  0  0  0  0  0  0  0  0  0  0  0
  151.4980  142.7273  157.7277 C   0  0  1  0  0  0  0  0  0  0  0  0
  150.6359  142.5749  156.5604 N   0  0  0  0  0  0  0  0  0  0  0  0
  150.5342  141.3760  155.8323 C   0  0  0  0  0  0  0  0  0  0  0  0
  151.4636  140.3169  155.9649 C   0  0  0  0  0  0  0  0  0  0  0  0
  151.2841  139.1519  155.1937 C   0  0  0  0  0  0  0  0  0  0  0  0
  150.2665  138.9846  154.3249 N   0  0  0  0  0  0  0  0  0  0  0  0
  149.3806  139.9935  154.1965 C   0  0  0  0  0  0  0  0  0  0  0  0
  149.4649  141.2025  154.9188 C   0  0  0  0  0  0  0  0  0  0  0  0
  148.4991  142.1918  154.7175 N   0  0  0  0  0  0  0  0  0  0  0  0
  151.4169  144.1703  158.2633 C   0  0  2  0  0  0  0  0  0  0  0  0
  152.4362  144.4956  159.3589 C   0  0  0  0  0  0  0  0  0  0  0  0
  151.7469  145.6159  160.1021 C   0  0  0  0  0  0  0  0  0  0  0  0
  150.2974  145.1455  160.0806 C   0  0  0  0  0  0  0  0  0  0  0  0
  150.1471  144.4080  158.8706 O   0  0  0  0  0  0  0  0  0  0  0  0
  151.7741  141.7903  159.6818 H   0  0  0  0  0  0  0  0  0  0  0  0
  151.1817  140.6845  158.4556 H   0  0  0  0  0  0  0  0  0  0  0  0
  150.0932  141.8699  159.1661 H   0  0  0  0  0  0  0  0  0  0  0  0
  152.5310  142.5521  157.4273 H   0  0  0  0  0  0  0  0  0  0  0  0
  150.0955  143.3732  156.2612 H   0  0  0  0  0  0  0  0  0  0  0  0
  152.3038  140.3710  156.6394 H   0  0  0  0  0  0  0  0  0  0  0  0
  151.9800  138.3304  155.2780 H   0  0  0  0  0  0  0  0  0  0  0  0
  148.5778  139.8294  153.4923 H   0  0  0  0  0  0  0  0  0  0  0  0
  148.5368  143.0658  155.2222 H   0  0  0  0  0  0  0  0  0  0  0  0
  147.8594  142.1455  153.9378 H   0  0  0  0  0  0  0  0  0  0  0  0
  151.5304  144.8855  157.4469 H   0  0  0  0  0  0  0  0  0  0  0  0
  152.5767  143.6408  160.0222 H   0  0  0  0  0  0  0  0  0  0  0  0
  153.4105  144.7831  158.9623 H   0  0  0  0  0  0  0  0  0  0  0  0
  152.1326  145.7662  161.1107 H   0  0  0  0  0  0  0  0  0  0  0  0
  151.8493  146.5516  159.5508 H   0  0  0  0  0  0  0  0  0  0  0  0
  150.1035  144.4753  160.9191 H   0  0  0  0  0  0  0  0  0  0  0  0
  149.5888  145.9721  160.1359 H   0  0  0  0  0  0  0  0  0  0  0  0
  1  2  1  0  0  0  0
  1 16  1  0  0  0  0
  1 17  1  0  0  0  0
  1 18  1  0  0  0  0
  2  3  1  0  0  0  0
  2 11  1  0  0  0  0
  2 19  1  0  0  0  0
  3  4  1  0  0  0  0
  3 20  1  0  0  0  0
  4  9  1  0  0  0  0
  4  5  2  0  0  0  0
  5  6  1  0  0  0  0
  5 21  1  0  0  0  0
  6  7  2  0  0  0  0
  6 22  1  0  0  0  0
  7  8  1  0  0  0  0
  8  9  2  0  0  0  0
  8 23  1  0  0  0  0
  9 10  1  0  0  0  0
 10 24  1  0  0  0  0
 10 25  1  0  0  0  0
 11 15  1  0  0  0  0
 11 12  1  0  0  0  0
 11 26  1  0  0  0  0
 12 13  1  0  0  0  0
 12 27  1  0  0  0  0
 12 28  1  0  0  0  0
 13 14  1  0  0  0  0
 13 29  1  0  0  0  0
 13 30  1  0  0  0  0
 14 15  1  0  0  0  0
 14 31  1  0  0  0  0
 14 32  1  0  0  0  0
M  END
> <s_m_source_file>
AV-unprocessed.smi

> <i_m_source_file_index>
949

> <i_lp_mmshare_version>
43012

> <i_f3d_flags>
0

> <s_epik_input>
TzFbQ0gyXVtDSDJdW0NIMl1bQ0BIXTFbQ0BIXShbQ0gzXSlbTkhdYzJbY0hdW2NIXW5bY0hdYzJbTkgyXQ==

> <s_epik_cmdline>
J2VwaWtfcHl0aG9uJywgJy1waCcsICc3LjAnLCAnLXRuJywgJzgnLCAnLW1hJywgJzIwMCcsICctbWV0YWxfYmluZGluZycsICctaW1hZScsICc8aW5maWxlLm1hZT4nLCAnLW9tYWUnLCAnPG91dGZpbGUubWFlPic=

> <r_epik_Ionization_Penalty>
3.88091

> <r_epik_Ionization_Penalty_Charging>
0

> <r_epik_Ionization_Penalty_Neutral>
3.88091

> <r_epik_State_Penalty>
3.88049

> <r_epik_Charging_Adjusted_Penalty>
3.88049

> <i_epik_Tot_Q>
0

> <i_epik_Tot_abs_Q>
0

> <r_epik_Metal_State_Penalty>
0.313783

> <b_epik_Metal_Only>
1

> <s_lp_Force_Field>
OPLS_2005

> <r_lp_Energy>
23.3849

> <b_lp_Chiralities_Consistent>
1

> <s_lp_Variant>
AV-unprocessed.smi:949-6

> <Gold.Version>
5.8.1

> <Gold.Id.Protein>
6NUR|6NUR_protein|mol2

> <Gold.PLP.Fitness>
44.1707

> <Gold.PLP.PLP>
-36.8391

> <Gold.PLP.part.hbond>
-2.0000

> <Gold.PLP.part.metal>
0.0000

> <Gold.PLP.part.buried>
-4.3948

> <Gold.PLP.part.nonpolar>
-31.1619

> <Gold.PLP.part.repulsive>
0.6518

> <Gold.PLP.ligand.clash>
0.0000

> <Gold.PLP.ligand.torsion>
0.1240

> <Gold.PLP.Chemscore.Hbond>
2.0000

> <Gold.PLP.Chemscore.CHOScore>
0.5225

> <Gold.PLP.Chemscore.Metal>
0.0000

> <Gold.Chemscore.Hbonds>
donor molecule, donor type, donor heavy atom, donor atom, acceptor molecule, acceptor atom, score
      L1  H     3    20       P1  8028  1.00
      L1  H    10    24       P1  8028  1.00
      L1  C     8    23       P1  7957  0.50

> <Gold.PLP.Chemscore.Internal.Correction>
0.0122

> <Gold.Rescore>
     Score         DG    S(hbond)    S(metal)    S(lipo)     H(rot)  DE(clash)    DE(int)     intcor
     20.78     -20.99       1.99        0.00     102.33       1.22       0.10       0.10       ----

> <Gold.Chemscore.Fitness>
20.7828

> <Gold.Chemscore.DG>
-20.9903

> <Gold.Chemscore.ZeroCoef>
-5.4800

> <Gold.Chemscore.Hbond>
1.9920

> <Gold.Chemscore.Metal>
0.0000

> <Gold.Chemscore.Lipo>
102.3272

> <Gold.Chemscore.Internal_Hbond>
0.0000

> <Gold.Chemscore.DEClash>
0.1041

> <Gold.Chemscore.DEInternal>
0.1034

> <Gold.Chemscore.Rot>
1.2169

> <Gold.Chemscore.Internal.Correction>
   9.000000E+99

> <Gold.Chemscore.Hbonds>
donor molecule, donor type, donor heavy atom, donor atom, acceptor molecule, acceptor atom, score
      L1  H     3    20       P1  8028  1.00
      L1  H    10    24       P1  8028  1.00

> <Gold.Chemscore.Hbond.Weighted>
-6.6531

> <Gold.Chemscore.Metal.Weighted>
-0.0000

> <Gold.Chemscore.Lipo.Weighted>
-11.9723

> <Gold.Chemscore.Internal_Hbond.Weighted>
0.0000

> <Gold.Chemscore.DEClash.Weighted>
0.1041

> <Gold.Chemscore.DEInternal.Weighted>
0.1034

> <Gold.Chemscore.Rot.Weighted>
3.1152

> <Gold.Chemscore.Internal.Correction.Weighted>
   9.000000E+99

> <Gold.Protein.RotatedTorsions>
[ 6907 6896 6895 6894 ] final  -46.93 input  -60.11 | X-H torsion
[ 7974 7965 7964 7962 ] final  -74.34 input  175.53 | X-H torsion
[ 8008 7997 7996 7995 ] final  117.82 input   59.86 | X-H torsion
[ 10167 10162 10161 10158 ] final   69.63 input  -65.29 | X-H torsion
[ 10718 10713 10712 10709 ] final -140.12 input   66.30 | X-H torsion
[ 10763 10752 10751 10750 ] final -164.62 input  -60.55 | X-H torsion
[ 11005 11000 10999 10996 ] final  -65.87 input  -57.11 | X-H torsion

> <Gold.Protein.ActiveResidues>
 VAL166  LYS551  ARG553  GLY616  TRP617  ASP618  TYR619  PRO620  LYS621  CYS622 
 ASP623  PHE694  ASN695  SER759  ASP760  ASP761  ALA762  ILE779  LEU786  VAL792 
 PHE793  MET794  SER795  GLU796  ALA797  LYS798  CYS799  TRP800  GLU811  SER814 

> <Gold.Protein.RotatedAtoms>
  150.9061  134.8476  159.7392 H   0  0  0  0  0  0  0  0  0  0  0  0  # atno 6907 bound_to 6896
  152.4919  134.4430  159.9559 H   0  0  0  0  0  0  0  0  0  0  0  0  # atno 6908 bound_to 6896
  151.4476  133.3587  159.2826 H   0  0  0  0  0  0  0  0  0  0  0  0  # atno 6909 bound_to 6896
  145.6403  140.9313  143.1039 H   0  0  0  0  0  0  0  0  0  0  0  0  # atno 7974 bound_to 7965
  156.2514  140.2888  156.0738 H   0  0  0  0  0  0  0  0  0  0  0  0  # atno 8008 bound_to 7997
  155.1641  140.0400  157.2866 H   0  0  0  0  0  0  0  0  0  0  0  0  # atno 8009 bound_to 7997
  154.6372  140.2513  155.7371 H   0  0  0  0  0  0  0  0  0  0  0  0  # atno 8010 bound_to 7997
  140.0657  144.5195  150.7263 H   0  0  0  0  0  0  0  0  0  0  0  0  # atno 10167 bound_to 10162
  156.3186  130.7521  151.1614 H   0  0  0  0  0  0  0  0  0  0  0  0  # atno 10718 bound_to 10713
  154.7011  135.2988  154.9340 H   0  0  0  0  0  0  0  0  0  0  0  0  # atno 10763 bound_to 10752
  154.0272  135.6675  153.4781 H   0  0  0  0  0  0  0  0  0  0  0  0  # atno 10764 bound_to 10752
  153.0682  135.5076  154.8155 H   0  0  0  0  0  0  0  0  0  0  0  0  # atno 10765 bound_to 10752
  141.1466  133.6689  156.6053 H   0  0  0  0  0  0  0  0  0  0  0  0  # atno 11005 bound_to 11000
  144.7160  139.8197  143.7398 LP  0  0  0  0  0  0  0  0  0  0  0  0  # atno 17320 bound_to 7965
  146.1286  139.4316  143.0183 LP  0  0  0  0  0  0  0  0  0  0  0  0  # atno 17321 bound_to 7965
  140.7150  143.2537  151.4462 LP  0  0  0  0  0  0  0  0  0  0  0  0  # atno 17342 bound_to 10162
  139.5866  144.1590  152.2037 LP  0  0  0  0  0  0  0  0  0  0  0  0  # atno 17343 bound_to 10162
  157.7407  131.0514  150.5149 LP  0  0  0  0  0  0  0  0  0  0  0  0  # atno 17370 bound_to 10713
  156.5298  130.4182  149.6207 LP  0  0  0  0  0  0  0  0  0  0  0  0  # atno 17371 bound_to 10713
  140.3657  134.7649  157.4564 LP  0  0  0  0  0  0  0  0  0  0  0  0  # atno 17394 bound_to 11000
  140.0750  134.5810  155.8601 LP  0  0  0  0  0  0  0  0  0  0  0  0  # atno 17395 bound_to 11000

$$$$
