AV-unprocessed.smi:2119|AV-procd|sdf|8634|dock8
  -GOLD-   2272011383D 1   1.00000     0.00000
 Structure written by MMmdl.
 48 50  0  0  0  0  0  0  0  0  2 V2000
  144.6309  136.2335  153.2050 O   0  0  0  0  0  0  0  0  0  0  0  0
  145.7927  136.3050  152.8045 C   0  0  0  0  0  0  0  0  0  0  0  0
  146.6457  137.2646  153.1885 N   0  0  0  0  0  0  0  0  0  0  0  0
  146.3177  138.3504  154.1049 C   0  0  0  0  0  0  0  0  0  0  0  0
  147.0094  139.6989  153.7530 C   0  0  2  0  0  0  0  0  0  0  0  0
  148.4355  139.8519  154.3544 C   0  0  2  0  0  0  0  0  0  0  0  0
  149.3893  138.7258  153.9864 C   0  0  0  0  0  0  0  0  0  0  0  0
  150.4953  138.8850  155.0216 C   0  0  0  0  0  0  0  0  0  0  0  0
  149.8434  139.3434  156.1987 O   0  0  0  0  0  0  0  0  0  0  0  0
  148.5271  139.7873  155.8853 C   0  0  0  0  0  0  0  0  0  0  0  0
  146.1656  140.8694  154.1385 N   0  3  0  0  0  0  0  0  0  0  0  0
  145.6476  140.8129  155.5272 C   0  0  0  0  0  0  0  0  0  0  0  0
  144.6359  141.9480  155.7574 C   0  0  0  0  0  0  0  0  0  0  0  0
  145.2480  143.2012  155.4752 O   0  0  0  0  0  0  0  0  0  0  0  0
  145.6800  143.2953  154.1227 C   0  0  0  0  0  0  0  0  0  0  0  0
  146.7322  142.2097  153.8424 C   0  0  0  0  0  0  0  0  0  0  0  0
  146.3764  135.4492  151.9491 N   0  0  0  0  0  0  0  0  0  0  0  0
  145.7952  134.3395  151.2790 C   0  0  0  0  0  0  0  0  0  0  0  0
  146.5375  133.3442  150.5984 C   0  0  0  0  0  0  0  0  0  0  0  0
  145.8469  132.2783  149.9904 C   0  0  0  0  0  0  0  0  0  0  0  0
  144.4427  132.2421  150.0911 C   0  0  0  0  0  0  0  0  0  0  0  0
  143.7236  133.1760  150.7484 N   0  0  0  0  0  0  0  0  0  0  0  0
  144.3924  134.1946  151.3297 C   0  0  0  0  0  0  0  0  0  0  0  0
  147.5852  137.2448  152.8191 H   0  0  0  0  0  0  0  0  0  0  0  0
  145.2332  138.4615  154.1281 H   0  0  0  0  0  0  0  0  0  0  0  0
  146.6123  138.0236  155.1021 H   0  0  0  0  0  0  0  0  0  0  0  0
  147.1233  139.7517  152.6694 H   0  0  0  0  0  0  0  0  0  0  0  0
  148.8757  140.7947  154.0276 H   0  0  0  0  0  0  0  0  0  0  0  0
  148.9020  137.7571  154.1075 H   0  0  0  0  0  0  0  0  0  0  0  0
  149.7651  138.7940  152.9650 H   0  0  0  0  0  0  0  0  0  0  0  0
  151.0398  137.9573  155.1994 H   0  0  0  0  0  0  0  0  0  0  0  0
  151.2106  139.6435  154.7010 H   0  0  0  0  0  0  0  0  0  0  0  0
  148.3275  140.7490  156.3580 H   0  0  0  0  0  0  0  0  0  0  0  0
  147.8217  139.0593  156.2880 H   0  0  0  0  0  0  0  0  0  0  0  0
  145.1638  139.8525  155.7088 H   0  0  0  0  0  0  0  0  0  0  0  0
  146.4673  140.8993  156.2410 H   0  0  0  0  0  0  0  0  0  0  0  0
  143.7520  141.8132  155.1318 H   0  0  0  0  0  0  0  0  0  0  0  0
  144.2959  141.9447  156.7931 H   0  0  0  0  0  0  0  0  0  0  0  0
  144.8287  143.1969  153.4471 H   0  0  0  0  0  0  0  0  0  0  0  0
  146.1067  144.2844  153.9559 H   0  0  0  0  0  0  0  0  0  0  0  0
  147.6114  142.3957  154.4602 H   0  0  0  0  0  0  0  0  0  0  0  0
  147.0482  142.2702  152.8013 H   0  0  0  0  0  0  0  0  0  0  0  0
  147.3641  135.5823  151.7879 H   0  0  0  0  0  0  0  0  0  0  0  0
  147.6149  133.3680  150.5436 H   0  0  0  0  0  0  0  0  0  0  0  0
  146.3827  131.5030  149.4628 H   0  0  0  0  0  0  0  0  0  0  0  0
  143.8829  131.4378  149.6369 H   0  0  0  0  0  0  0  0  0  0  0  0
  143.7850  134.9211  151.8498 H   0  0  0  0  0  0  0  0  0  0  0  0
  145.3436  140.7901  153.5567 H   0  0  0  0  0  0  0  0  0  0  0  0
  1  2  2  0  0  0  0
  2  3  1  0  0  0  0
  2 17  1  0  0  0  0
  3  4  1  0  0  0  0
  3 24  1  0  0  0  0
  4  5  1  0  0  0  0
  4 25  1  0  0  0  0
  4 26  1  0  0  0  0
  5  6  1  0  0  0  0
  5 11  1  0  0  0  0
  5 27  1  0  0  0  0
  6 10  1  0  0  0  0
  6  7  1  0  0  0  0
  6 28  1  0  0  0  0
  7  8  1  0  0  0  0
  7 29  1  0  0  0  0
  7 30  1  0  0  0  0
  8  9  1  0  0  0  0
  8 31  1  0  0  0  0
  8 32  1  0  0  0  0
  9 10  1  0  0  0  0
 10 33  1  0  0  0  0
 10 34  1  0  0  0  0
 11 16  1  0  0  0  0
 11 12  1  0  0  0  0
 11 48  1  0  0  0  0
 12 13  1  0  0  0  0
 12 35  1  0  0  0  0
 12 36  1  0  0  0  0
 13 14  1  0  0  0  0
 13 37  1  0  0  0  0
 13 38  1  0  0  0  0
 14 15  1  0  0  0  0
 15 16  1  0  0  0  0
 15 39  1  0  0  0  0
 15 40  1  0  0  0  0
 16 41  1  0  0  0  0
 16 42  1  0  0  0  0
 17 18  1  0  0  0  0
 17 43  1  0  0  0  0
 18 23  1  0  0  0  0
 18 19  2  0  0  0  0
 19 20  1  0  0  0  0
 19 44  1  0  0  0  0
 20 21  2  0  0  0  0
 20 45  1  0  0  0  0
 21 22  1  0  0  0  0
 21 46  1  0  0  0  0
 22 23  2  0  0  0  0
 23 47  1  0  0  0  0
M  CHG  1  11   1
M  END
> <s_m_source_file>
AV-unprocessed.smi

> <i_m_source_file_index>
2119

> <i_lp_mmshare_version>
43012

> <i_f3d_flags>
0

> <s_epik_input>
W2NIXTFuW2NIXVtjSF1bY0hdYzFbTkhdQyg9TylbTkhdW0NIMl1bQ0BIXShbQ0BASF0yW0NIMl1bQ0gyXU9bQ0gyXTIpTjNbQ0gyXVtDSDJdT1tDSDJdW0NIMl0z

> <s_epik_cmdline>
J2VwaWtfcHl0aG9uJywgJy1waCcsICc3LjAnLCAnLXRuJywgJzgnLCAnLW1hJywgJzIwMCcsICctbWV0YWxfYmluZGluZycsICctaW1hZScsICc8aW5maWxlLm1hZT4nLCAnLW9tYWUnLCAnPG91dGZpbGUubWFlPic=

> <r_epik_Ionization_Penalty>
0.987463

> <r_epik_Ionization_Penalty_Charging>
0.98326

> <r_epik_Ionization_Penalty_Neutral>
0.00420251

> <r_epik_State_Penalty>
1.01721

> <r_epik_Charging_Adjusted_Penalty>
2.00047

> <i_epik_Tot_Q>
1

> <i_epik_Tot_abs_Q>
1

> <r_epik_Metal_State_Penalty>
1.01439

> <b_epik_Metal_Only>
0

> <s_lp_Force_Field>
OPLS_2005

> <r_lp_Energy>
39.8774

> <b_lp_Chiralities_Consistent>
1

> <s_lp_Variant>
AV-unprocessed.smi:2119-5

> <Gold.Version>
5.8.1

> <Gold.Id.Protein>
6NUR|6NUR_protein|mol2

> <Gold.PLP.Fitness>
45.8320

> <Gold.PLP.PLP>
-35.1445

> <Gold.PLP.part.hbond>
-3.0000

> <Gold.PLP.part.metal>
0.0000

> <Gold.PLP.part.buried>
-7.6999

> <Gold.PLP.part.nonpolar>
-25.7737

> <Gold.PLP.part.repulsive>
0.5937

> <Gold.PLP.ligand.clash>
0.0000

> <Gold.PLP.ligand.torsion>
0.6896

> <Gold.PLP.Chemscore.Hbond>
3.9440

> <Gold.PLP.Chemscore.CHOScore>
0.0000

> <Gold.PLP.Chemscore.Metal>
0.0000

> <Gold.Chemscore.Hbonds>
donor molecule, donor type, donor heavy atom, donor atom, acceptor molecule, acceptor atom, score
      L1  H     3    24       P1  7948  0.94
      L1  H    11    48       P1 10175  2.00
      L1  H    17    43       P1  7948  1.00

> <Gold.PLP.Chemscore.Internal.Correction>
0.2349

> <Gold.Rescore>
     Score         DG    S(hbond)    S(metal)    S(lipo)     H(rot)  DE(clash)    DE(int)     intcor
     18.55     -20.85       2.91        0.00      85.60       1.70       0.10       2.20       ----

> <Gold.Chemscore.Fitness>
18.5513

> <Gold.Chemscore.DG>
-20.8469

> <Gold.Chemscore.ZeroCoef>
-5.4800

> <Gold.Chemscore.Hbond>
2.9069

> <Gold.Chemscore.Metal>
0.0000

> <Gold.Chemscore.Lipo>
85.6024

> <Gold.Chemscore.Internal_Hbond>
0.0000

> <Gold.Chemscore.DEClash>
0.0986

> <Gold.Chemscore.DEInternal>
2.1970

> <Gold.Chemscore.Rot>
1.7021

> <Gold.Chemscore.Internal.Correction>
   9.000000E+99

> <Gold.Chemscore.Hbonds>
donor molecule, donor type, donor heavy atom, donor atom, acceptor molecule, acceptor atom, score
      L1  H     3    24       P1  7948  0.91
      L1  H    11    48       P1 10175  0.85
      L1  H    17    43       P1  7948  1.00

> <Gold.Chemscore.Hbond.Weighted>
-9.7089

> <Gold.Chemscore.Metal.Weighted>
-0.0000

> <Gold.Chemscore.Lipo.Weighted>
-10.0155

> <Gold.Chemscore.Internal_Hbond.Weighted>
0.0000

> <Gold.Chemscore.DEClash.Weighted>
0.0986

> <Gold.Chemscore.DEInternal.Weighted>
2.1970

> <Gold.Chemscore.Rot.Weighted>
4.3575

> <Gold.Chemscore.Internal.Correction.Weighted>
   9.000000E+99

> <Gold.Protein.RotatedTorsions>
[ 6907 6896 6895 6894 ] final   -4.23 input  -60.11 | X-H torsion
[ 7974 7965 7964 7962 ] final -130.92 input  175.53 | X-H torsion
[ 8008 7997 7996 7995 ] final -151.79 input   59.86 | X-H torsion
[ 10167 10162 10161 10158 ] final   81.54 input  -65.29 | X-H torsion
[ 10718 10713 10712 10709 ] final   53.07 input   66.30 | X-H torsion
[ 10763 10752 10751 10750 ] final  -32.81 input  -60.55 | X-H torsion
[ 11005 11000 10999 10996 ] final  -35.57 input  -57.11 | X-H torsion

> <Gold.Protein.ActiveResidues>
 VAL166  LYS551  ARG553  GLY616  TRP617  ASP618  TYR619  PRO620  LYS621  CYS622 
 ASP623  PHE694  ASN695  SER759  ASP760  ASP761  ALA762  ILE779  LEU786  VAL792 
 PHE793  MET794  SER795  GLU796  ALA797  LYS798  CYS799  TRP800  GLU811  SER814 

> <Gold.Protein.RotatedAtoms>
  151.5010  135.1062  159.9828 H   0  0  0  0  0  0  0  0  0  0  0  0  # atno 6907 bound_to 6896
  152.4701  133.8007  159.6962 H   0  0  0  0  0  0  0  0  0  0  0  0  # atno 6908 bound_to 6896
  150.8706  133.7448  159.2988 H   0  0  0  0  0  0  0  0  0  0  0  0  # atno 6909 bound_to 6896
  144.9428  140.7258  143.4836 H   0  0  0  0  0  0  0  0  0  0  0  0  # atno 7974 bound_to 7965
  155.6450  140.0706  157.2606 H   0  0  0  0  0  0  0  0  0  0  0  0  # atno 8008 bound_to 7997
  154.4175  140.1743  156.1663 H   0  0  0  0  0  0  0  0  0  0  0  0  # atno 8009 bound_to 7997
  155.9824  140.3352  155.6679 H   0  0  0  0  0  0  0  0  0  0  0  0  # atno 8010 bound_to 7997
  139.9381  144.6107  150.8278 H   0  0  0  0  0  0  0  0  0  0  0  0  # atno 10167 bound_to 10162
  157.5133  130.8516  149.8463 H   0  0  0  0  0  0  0  0  0  0  0  0  # atno 10718 bound_to 10713
  153.8199  135.6875  153.4828 H   0  0  0  0  0  0  0  0  0  0  0  0  # atno 10763 bound_to 10752
  153.1576  135.4593  154.9724 H   0  0  0  0  0  0  0  0  0  0  0  0  # atno 10764 bound_to 10752
  154.7932  135.3309  154.7672 H   0  0  0  0  0  0  0  0  0  0  0  0  # atno 10765 bound_to 10752
  140.9806  133.7058  156.1678 H   0  0  0  0  0  0  0  0  0  0  0  0  # atno 11005 bound_to 11000
  145.2964  139.1865  143.4713 LP  0  0  0  0  0  0  0  0  0  0  0  0  # atno 17320 bound_to 7965
  146.3292  140.2948  142.8617 LP  0  0  0  0  0  0  0  0  0  0  0  0  # atno 17321 bound_to 7965
  140.7618  143.3184  151.2679 LP  0  0  0  0  0  0  0  0  0  0  0  0  # atno 17342 bound_to 10162
  139.6726  143.9993  152.2762 LP  0  0  0  0  0  0  0  0  0  0  0  0  # atno 17343 bound_to 10162
  156.0304  130.3766  150.1705 LP  0  0  0  0  0  0  0  0  0  0  0  0  # atno 17370 bound_to 10713
  156.9894  130.9888  151.3418 LP  0  0  0  0  0  0  0  0  0  0  0  0  # atno 17371 bound_to 10713
  140.7191  134.4377  157.5576 LP  0  0  0  0  0  0  0  0  0  0  0  0  # atno 17394 bound_to 11000
  139.8949  134.8696  156.2157 LP  0  0  0  0  0  0  0  0  0  0  0  0  # atno 17395 bound_to 11000

$$$$
