AV-unprocessed.smi:2243|AV-procd|sdf|9071|dock6
  -GOLD-   2272012273D 1   1.00000     0.00000
 Structure written by MMmdl.
 33 34  0  0  0  0  0  0  0  0  2 V2000
  152.3716  138.9648  158.5823 C   0  0  0  0  0  0  0  0  0  0  0  0
  152.0072  140.1834  157.7167 C   0  0  1  0  0  0  0  0  0  0  0  0
  150.8439  139.8214  156.9038 N   0  0  0  0  0  0  0  0  0  0  0  0
  150.8317  139.5397  155.5914 C   0  0  0  0  0  0  0  0  0  0  0  0
  151.8755  139.5899  154.9368 O   0  0  0  0  0  0  0  0  0  0  0  0
  149.6055  139.2243  155.1169 N   0  5  0  0  0  0  0  0  0  0  0  0
  148.8165  140.1865  154.6123 C   0  0  0  0  0  0  0  0  0  0  0  0
  149.0159  141.5026  154.7037 N   0  0  0  0  0  0  0  0  0  0  0  0
  147.9544  142.0940  154.0364 C   0  0  0  0  0  0  0  0  0  0  0  0
  147.1518  141.0956  153.5560 C   0  0  0  0  0  0  0  0  0  0  0  0
  147.6874  139.8880  153.9089 O   0  0  0  0  0  0  0  0  0  0  0  0
  151.7208  141.4625  158.5497 C   0  0  0  0  0  0  0  0  0  0  0  0
  151.3712  142.6829  157.6713 C   0  0  0  0  0  0  0  0  0  0  0  0
  151.1627  143.9448  158.5233 C   0  0  0  0  0  0  0  0  0  0  0  0
  152.3257  144.2073  159.2987 O   0  0  0  0  0  0  0  0  0  0  0  0
  152.6169  143.1618  160.2174 C   0  0  0  0  0  0  0  0  0  0  0  0
  152.9029  141.8548  159.4597 C   0  0  0  0  0  0  0  0  0  0  0  0
  153.3133  139.1095  159.1107 H   0  0  0  0  0  0  0  0  0  0  0  0
  152.4894  138.0721  157.9671 H   0  0  0  0  0  0  0  0  0  0  0  0
  151.5980  138.7572  159.3222 H   0  0  0  0  0  0  0  0  0  0  0  0
  152.8625  140.3834  157.0692 H   0  0  0  0  0  0  0  0  0  0  0  0
  149.9595  139.7676  157.3872 H   0  0  0  0  0  0  0  0  0  0  0  0
  147.8558  143.1664  153.9563 H   0  0  0  0  0  0  0  0  0  0  0  0
  146.2349  141.0744  152.9867 H   0  0  0  0  0  0  0  0  0  0  0  0
  150.8606  141.2600  159.1899 H   0  0  0  0  0  0  0  0  0  0  0  0
  152.1709  142.8602  156.9508 H   0  0  0  0  0  0  0  0  0  0  0  0
  150.4666  142.4982  157.0920 H   0  0  0  0  0  0  0  0  0  0  0  0
  150.9690  144.8028  157.8793 H   0  0  0  0  0  0  0  0  0  0  0  0
  150.2942  143.8348  159.1746 H   0  0  0  0  0  0  0  0  0  0  0  0
  153.4863  143.4480  160.8094 H   0  0  0  0  0  0  0  0  0  0  0  0
  151.7874  143.0332  160.9145 H   0  0  0  0  0  0  0  0  0  0  0  0
  153.1097  141.0696  160.1861 H   0  0  0  0  0  0  0  0  0  0  0  0
  153.8069  141.9740  158.8609 H   0  0  0  0  0  0  0  0  0  0  0  0
  1  2  1  0  0  0  0
  1 18  1  0  0  0  0
  1 19  1  0  0  0  0
  1 20  1  0  0  0  0
  2  3  1  0  0  0  0
  2 12  1  0  0  0  0
  2 21  1  0  0  0  0
  3 22  1  0  0  0  0
  3  4  1  0  0  0  0
  4  6  1  0  0  0  0
  4  5  2  0  0  0  0
  6  7  1  0  0  0  0
  7 11  1  0  0  0  0
  7  8  2  0  0  0  0
  8  9  1  0  0  0  0
  9 23  1  0  0  0  0
  9 10  2  0  0  0  0
 10 24  1  0  0  0  0
 10 11  1  0  0  0  0
 12 17  1  0  0  0  0
 12 13  1  0  0  0  0
 12 25  1  0  0  0  0
 13 14  1  0  0  0  0
 13 26  1  0  0  0  0
 13 27  1  0  0  0  0
 14 15  1  0  0  0  0
 14 28  1  0  0  0  0
 14 29  1  0  0  0  0
 15 16  1  0  0  0  0
 16 17  1  0  0  0  0
 16 30  1  0  0  0  0
 16 31  1  0  0  0  0
 17 32  1  0  0  0  0
 17 33  1  0  0  0  0
M  CHG  1   6  -1
M  END
> <s_m_source_file>
AV-unprocessed.smi

> <i_m_source_file_index>
2243

> <i_lp_mmshare_version>
43012

> <i_f3d_flags>
0

> <s_epik_input>
W0NIMl0xW0NIMl1PW0NIMl1bQ0gyXVtDSF0xW0NASF0oW0NIM10pW05IXUMoPU8pW05IXWMybltjSF1bY0hdbzI=

> <s_epik_cmdline>
J2VwaWtfcHl0aG9uJywgJy1waCcsICc3LjAnLCAnLXRuJywgJzgnLCAnLW1hJywgJzIwMCcsICctbWV0YWxfYmluZGluZycsICctaW1hZScsICc8aW5maWxlLm1hZT4nLCAnLW9tYWUnLCAnPG91dGZpbGUubWFlPic=

> <r_lp_tautomer_probability>
0.107061

> <r_epik_Ionization_Penalty>
11.1403

> <r_epik_Ionization_Penalty_Charging>
7.81312

> <r_epik_Ionization_Penalty_Neutral>
3.32719

> <r_epik_State_Penalty>
5.94317

> <r_epik_Charging_Adjusted_Penalty>
13.7563

> <i_epik_Tot_Q>
-1

> <i_epik_Tot_abs_Q>
1

> <r_epik_Metal_State_Penalty>
1.86619

> <b_epik_Metal_Only>
1

> <s_lp_Force_Field>
OPLS_2005

> <r_lp_Energy>
6.4903

> <b_lp_Chiralities_Consistent>
1

> <s_lp_Variant>
AV-unprocessed.smi:2243-10

> <Gold.Version>
5.8.1

> <Gold.Id.Protein>
6NUR|6NUR_protein|mol2

> <Gold.PLP.Fitness>
38.0830

> <Gold.PLP.PLP>
-31.7192

> <Gold.PLP.part.hbond>
-0.7741

> <Gold.PLP.part.metal>
0.0000

> <Gold.PLP.part.buried>
-5.1158

> <Gold.PLP.part.nonpolar>
-25.7444

> <Gold.PLP.part.repulsive>
0.5382

> <Gold.PLP.ligand.clash>
0.0000

> <Gold.PLP.ligand.torsion>
0.9211

> <Gold.PLP.Chemscore.Hbond>
0.9120

> <Gold.PLP.Chemscore.CHOScore>
1.8176

> <Gold.PLP.Chemscore.Metal>
0.0000

> <Gold.Chemscore.Hbonds>
donor molecule, donor type, donor heavy atom, donor atom, acceptor molecule, acceptor atom, score
      P1  H  7989  7998       L1     5  0.99
      L1  C     9    23       P1  8028  0.86
      L1  C    10    24       P1 10175  0.68

> <Gold.PLP.Chemscore.Internal.Correction>
0.0171

> <Gold.Rescore>
     Score         DG    S(hbond)    S(metal)    S(lipo)     H(rot)  DE(clash)    DE(int)     intcor
     14.07     -14.99       0.94        0.00      83.05       1.31       0.00       0.91       ----

> <Gold.Chemscore.Fitness>
14.0735

> <Gold.Chemscore.DG>
-14.9914

> <Gold.Chemscore.ZeroCoef>
-5.4800

> <Gold.Chemscore.Hbond>
0.9397

> <Gold.Chemscore.Metal>
0.0000

> <Gold.Chemscore.Lipo>
83.0505

> <Gold.Chemscore.Internal_Hbond>
0.0000

> <Gold.Chemscore.DEClash>
0.0048

> <Gold.Chemscore.DEInternal>
0.9131

> <Gold.Chemscore.Rot>
1.3063

> <Gold.Chemscore.Internal.Correction>
   9.000000E+99

> <Gold.Chemscore.Hbonds>
donor molecule, donor type, donor heavy atom, donor atom, acceptor molecule, acceptor atom, score
      P1  H  7989  7998       L1     5  0.65

> <Gold.Chemscore.Hbond.Weighted>
-3.1387

> <Gold.Chemscore.Metal.Weighted>
-0.0000

> <Gold.Chemscore.Lipo.Weighted>
-9.7169

> <Gold.Chemscore.Internal_Hbond.Weighted>
0.0000

> <Gold.Chemscore.DEClash.Weighted>
0.0048

> <Gold.Chemscore.DEInternal.Weighted>
0.9131

> <Gold.Chemscore.Rot.Weighted>
3.3443

> <Gold.Chemscore.Internal.Correction.Weighted>
   9.000000E+99

> <Gold.Protein.RotatedTorsions>
[ 6907 6896 6895 6894 ] final  -82.29 input  -60.11 | X-H torsion
[ 7974 7965 7964 7962 ] final  -75.88 input  175.53 | X-H torsion
[ 8008 7997 7996 7995 ] final  -71.04 input   59.86 | X-H torsion
[ 10167 10162 10161 10158 ] final   63.00 input  -65.29 | X-H torsion
[ 10718 10713 10712 10709 ] final    2.26 input   66.30 | X-H torsion
[ 10763 10752 10751 10750 ] final -109.40 input  -60.55 | X-H torsion
[ 11005 11000 10999 10996 ] final  155.29 input  -57.11 | X-H torsion

> <Gold.Protein.ActiveResidues>
 VAL166  LYS551  ARG553  GLY616  TRP617  ASP618  TYR619  PRO620  LYS621  CYS622 
 ASP623  PHE694  ASN695  SER759  ASP760  ASP761  ALA762  ILE779  LEU786  VAL792 
 PHE793  MET794  SER795  GLU796  ALA797  LYS798  CYS799  TRP800  GLU811  SER814 

> <Gold.Protein.RotatedAtoms>
  150.6899  134.3687  159.4982 H   0  0  0  0  0  0  0  0  0  0  0  0  # atno 6907 bound_to 6896
  152.1506  134.8988  160.0557 H   0  0  0  0  0  0  0  0  0  0  0  0  # atno 6908 bound_to 6896
  152.0087  133.3818  159.4248 H   0  0  0  0  0  0  0  0  0  0  0  0  # atno 6909 bound_to 6896
  145.6202  140.9365  143.1142 H   0  0  0  0  0  0  0  0  0  0  0  0  # atno 7974 bound_to 7965
  154.5057  140.0823  156.7889 H   0  0  0  0  0  0  0  0  0  0  0  0  # atno 8008 bound_to 7997
  155.3899  140.3432  155.4232 H   0  0  0  0  0  0  0  0  0  0  0  0  # atno 8009 bound_to 7997
  156.1512  140.1559  156.8753 H   0  0  0  0  0  0  0  0  0  0  0  0  # atno 8010 bound_to 7997
  140.1378  144.4582  150.6828 H   0  0  0  0  0  0  0  0  0  0  0  0  # atno 10167 bound_to 10162
  156.8604  130.5585  149.5663 H   0  0  0  0  0  0  0  0  0  0  0  0  # atno 10718 bound_to 10713
  154.8191  135.4602  154.0727 H   0  0  0  0  0  0  0  0  0  0  0  0  # atno 10763 bound_to 10752
  153.2096  135.6880  153.8137 H   0  0  0  0  0  0  0  0  0  0  0  0  # atno 10764 bound_to 10752
  153.7593  135.3286  155.3311 H   0  0  0  0  0  0  0  0  0  0  0  0  # atno 10765 bound_to 10752
  140.1568  134.8637  157.2524 H   0  0  0  0  0  0  0  0  0  0  0  0  # atno 11005 bound_to 11000
  144.7234  139.7955  143.7374 LP  0  0  0  0  0  0  0  0  0  0  0  0  # atno 17320 bound_to 7965
  146.1437  139.4500  143.0093 LP  0  0  0  0  0  0  0  0  0  0  0  0  # atno 17321 bound_to 7965
  140.6779  143.2313  151.5461 LP  0  0  0  0  0  0  0  0  0  0  0  0  # atno 17342 bound_to 10162
  139.5487  144.2452  152.1491 LP  0  0  0  0  0  0  0  0  0  0  0  0  # atno 17343 bound_to 10162
  156.0780  130.5797  150.9509 LP  0  0  0  0  0  0  0  0  0  0  0  0  # atno 17370 bound_to 10713
  157.6253  131.0926  150.8545 LP  0  0  0  0  0  0  0  0  0  0  0  0  # atno 17371 bound_to 10713
  140.2538  134.3651  155.7432 LP  0  0  0  0  0  0  0  0  0  0  0  0  # atno 17394 bound_to 11000
  141.2205  133.7331  156.8976 LP  0  0  0  0  0  0  0  0  0  0  0  0  # atno 17395 bound_to 11000

$$$$
