AV-unprocessed.smi:2644|AV-procd|sdf|10278|dock1
  -GOLD-   2272014293D 1   1.00000     0.00000
 Structure written by MMmdl.
 42 44  0  0  0  0  0  0  0  0  1 V2000
  146.8654  140.2824  153.8397 C   0  0  0  0  0  0  0  0  0  0  0  0
  147.5996  139.1470  154.2742 O   0  0  0  0  0  0  0  0  0  0  0  0
  148.8905  139.3417  154.7159 C   0  0  0  0  0  0  0  0  0  0  0  0
  149.1867  140.5875  155.3051 C   0  0  0  0  0  0  0  0  0  0  0  0
  150.4747  140.8602  155.8021 C   0  0  0  0  0  0  0  0  0  0  0  0
  151.4842  139.8843  155.7162 C   0  0  0  0  0  0  0  0  0  0  0  0
  151.2102  138.6336  155.1234 C   0  0  0  0  0  0  0  0  0  0  0  0
  152.2751  137.5435  155.0805 C   0  0  1  0  0  0  0  0  0  0  0  0
  152.5058  137.0632  153.7714 O   0  0  0  0  0  0  0  0  0  0  0  0
  153.6238  138.0088  155.6792 C   0  0  0  0  0  0  0  0  0  0  0  0
  153.5895  138.0887  157.1461 N   0  0  0  0  0  0  0  0  0  0  0  0
  153.3861  139.3660  157.6387 N   0  0  0  0  0  0  0  0  0  0  0  0
  153.2345  139.5802  158.9043 C   0  0  0  0  0  0  0  0  0  0  0  0
  152.9613  140.9500  159.3001 C   0  0  0  0  0  0  0  0  0  0  0  0
  153.3565  141.4339  160.5223 C   0  0  0  0  0  0  0  0  0  0  0  0
  152.9701  142.7960  160.7019 C   0  0  0  0  0  0  0  0  0  0  0  0
  152.2910  143.3191  159.6283 C   0  0  0  0  0  0  0  0  0  0  0  0
  151.7449  144.6986  159.4800 C   0  0  0  0  0  0  0  0  0  0  0  0
  152.1044  142.1396  158.3541 S   0  0  0  0  0  0  0  0  0  0  0  0
  153.3324  138.4636  159.8334 C   0  0  0  0  0  0  0  0  0  0  0  0
  153.5449  137.2213  159.3478 C   0  0  0  0  0  0  0  0  0  0  0  0
  153.6755  136.9648  157.9151 C   0  0  0  0  0  0  0  0  0  0  0  0
  153.8304  135.8393  157.4419 O   0  0  0  0  0  0  0  0  0  0  0  0
  149.9178  138.3700  154.6201 C   0  0  0  0  0  0  0  0  0  0  0  0
  145.8851  139.9636  153.4859 H   0  0  0  0  0  0  0  0  0  0  0  0
  147.3658  140.7879  153.0122 H   0  0  0  0  0  0  0  0  0  0  0  0
  146.7073  140.9904  154.6544 H   0  0  0  0  0  0  0  0  0  0  0  0
  148.4154  141.3395  155.3845 H   0  0  0  0  0  0  0  0  0  0  0  0
  150.6852  141.8157  156.2593 H   0  0  0  0  0  0  0  0  0  0  0  0
  152.4640  140.0943  156.1194 H   0  0  0  0  0  0  0  0  0  0  0  0
  151.9115  136.6922  155.6572 H   0  0  0  0  0  0  0  0  0  0  0  0
  151.7330  136.6027  153.4821 H   0  0  0  0  0  0  0  0  0  0  0  0
  154.4291  137.3469  155.3552 H   0  0  0  0  0  0  0  0  0  0  0  0
  153.8799  138.9900  155.2745 H   0  0  0  0  0  0  0  0  0  0  0  0
  153.8953  140.8984  161.2890 H   0  0  0  0  0  0  0  0  0  0  0  0
  153.2012  143.3406  161.6057 H   0  0  0  0  0  0  0  0  0  0  0  0
  152.0316  145.3277  160.3230 H   0  0  0  0  0  0  0  0  0  0  0  0
  150.6561  144.6793  159.4289 H   0  0  0  0  0  0  0  0  0  0  0  0
  152.1182  145.1669  158.5692 H   0  0  0  0  0  0  0  0  0  0  0  0
  153.2370  138.6111  160.8974 H   0  0  0  0  0  0  0  0  0  0  0  0
  153.6167  136.3919  160.0360 H   0  0  0  0  0  0  0  0  0  0  0  0
  149.7287  137.4001  154.1859 H   0  0  0  0  0  0  0  0  0  0  0  0
  1  2  1  0  0  0  0
  1 25  1  0  0  0  0
  1 26  1  0  0  0  0
  1 27  1  0  0  0  0
  2  3  1  0  0  0  0
  3 24  1  0  0  0  0
  3  4  2  0  0  0  0
  4  5  1  0  0  0  0
  4 28  1  0  0  0  0
  5  6  2  0  0  0  0
  5 29  1  0  0  0  0
  6  7  1  0  0  0  0
  6 30  1  0  0  0  0
  7  8  1  0  0  0  0
  7 24  2  0  0  0  0
  8  9  1  0  0  0  0
  8 10  1  0  0  0  0
  8 31  1  0  0  0  0
  9 32  1  0  0  0  0
 10 11  1  0  0  0  0
 10 33  1  0  0  0  0
 10 34  1  0  0  0  0
 11 22  1  0  0  0  0
 11 12  1  0  0  0  0
 12 13  2  0  0  0  0
 13 14  1  0  0  0  0
 13 20  1  0  0  0  0
 14 19  1  0  0  0  0
 14 15  2  0  0  0  0
 15 16  1  0  0  0  0
 15 35  1  0  0  0  0
 16 17  2  0  0  0  0
 16 36  1  0  0  0  0
 17 18  1  0  0  0  0
 17 19  1  0  0  0  0
 18 37  1  0  0  0  0
 18 38  1  0  0  0  0
 18 39  1  0  0  0  0
 20 21  2  0  0  0  0
 20 40  1  0  0  0  0
 21 22  1  0  0  0  0
 21 41  1  0  0  0  0
 22 23  2  0  0  0  0
 24 42  1  0  0  0  0
M  END
> <s_m_source_file>
AV-unprocessed.smi

> <i_m_source_file_index>
2644

> <i_lp_mmshare_version>
43012

> <i_f3d_flags>
0

> <s_epik_input>
W0NIM11PYzFbY0hdW2NIXVtjSF1jKFtjSF0xKVtDQEhdKFtPSF0pW0NIMl1uMm5jKFtjSF1bY0hdYzI9TyktYzNbY0hdW2NIXWMoczMpW0NIM10=

> <s_epik_cmdline>
J2VwaWtfcHl0aG9uJywgJy1waCcsICc3LjAnLCAnLXRuJywgJzgnLCAnLW1hJywgJzIwMCcsICctbWV0YWxfYmluZGluZycsICctaW1hZScsICc8aW5maWxlLm1hZT4nLCAnLW9tYWUnLCAnPG91dGZpbGUubWFlPic=

> <r_lp_tautomer_probability>
1

> <r_epik_Ionization_Penalty>
1.30631e-07

> <r_epik_Ionization_Penalty_Charging>
5.89185e-08

> <r_epik_Ionization_Penalty_Neutral>
7.1713e-08

> <r_epik_State_Penalty>
-0

> <r_epik_Charging_Adjusted_Penalty>
5.89185e-08

> <i_epik_Tot_Q>
0

> <i_epik_Tot_abs_Q>
0

> <r_epik_Metal_State_Penalty>
-0

> <b_epik_Metal_Only>
0

> <s_lp_Force_Field>
OPLS_2005

> <r_lp_Energy>
28.4714

> <b_lp_Chiralities_Consistent>
1

> <s_lp_Variant>
AV-unprocessed.smi:2644-2

> <Gold.Version>
5.8.1

> <Gold.Id.Protein>
6NUR|6NUR_protein|mol2

> <Gold.PLP.Fitness>
58.8934

> <Gold.PLP.PLP>
-50.8094

> <Gold.PLP.part.hbond>
-4.0000

> <Gold.PLP.part.metal>
0.0000

> <Gold.PLP.part.buried>
-1.0415

> <Gold.PLP.part.nonpolar>
-44.4391

> <Gold.PLP.part.repulsive>
0.1425

> <Gold.PLP.ligand.clash>
0.0000

> <Gold.PLP.ligand.torsion>
1.1888

> <Gold.PLP.Chemscore.Hbond>
3.4320

> <Gold.PLP.Chemscore.CHOScore>
0.0000

> <Gold.PLP.Chemscore.Metal>
0.0000

> <Gold.Chemscore.Hbonds>
donor molecule, donor type, donor heavy atom, donor atom, acceptor molecule, acceptor atom, score
      L1  H     9    32       P1  7949  0.39
      P1  H  7997  8009       L1    12  0.88
      P1  H 10752 10764       L1     9  0.25
      P1  H 10752 10765       L1    23  0.81

> <Gold.PLP.Chemscore.Internal.Correction>
0.1655

> <Gold.Rescore>
     Score         DG    S(hbond)    S(metal)    S(lipo)     H(rot)  DE(clash)    DE(int)     intcor
     21.77     -24.99       2.19        0.00     147.40       1.98       0.59       2.64       ----

> <Gold.Chemscore.Fitness>
21.7656

> <Gold.Chemscore.DG>
-24.9931

> <Gold.Chemscore.ZeroCoef>
-5.4800

> <Gold.Chemscore.Hbond>
2.1947

> <Gold.Chemscore.Metal>
0.0000

> <Gold.Chemscore.Lipo>
147.4002

> <Gold.Chemscore.Internal_Hbond>
0.0000

> <Gold.Chemscore.DEClash>
0.5913

> <Gold.Chemscore.DEInternal>
2.6362

> <Gold.Chemscore.Rot>
1.9777

> <Gold.Chemscore.Internal.Correction>
   9.000000E+99

> <Gold.Chemscore.Hbonds>
donor molecule, donor type, donor heavy atom, donor atom, acceptor molecule, acceptor atom, score
      L1  H     9    32       P1  7949  0.39
      P1  H  7997  8009       L1    12  0.14
      P1  H 10752 10765       L1    23  0.80

> <Gold.Chemscore.Hbond.Weighted>
-7.3302

> <Gold.Chemscore.Metal.Weighted>
-0.0000

> <Gold.Chemscore.Lipo.Weighted>
-17.2458

> <Gold.Chemscore.Internal_Hbond.Weighted>
0.0000

> <Gold.Chemscore.DEClash.Weighted>
0.5913

> <Gold.Chemscore.DEInternal.Weighted>
2.6362

> <Gold.Chemscore.Rot.Weighted>
5.0629

> <Gold.Chemscore.Internal.Correction.Weighted>
   9.000000E+99

> <Gold.Protein.RotatedTorsions>
[ 6907 6896 6895 6894 ] final  -48.36 input  -60.11 | X-H torsion
[ 7974 7965 7964 7962 ] final -134.65 input  175.53 | X-H torsion
[ 8008 7997 7996 7995 ] final  150.62 input   59.86 | X-H torsion
[ 10167 10162 10161 10158 ] final  -99.13 input  -65.29 | X-H torsion
[ 10718 10713 10712 10709 ] final  -41.52 input   66.30 | X-H torsion
[ 10763 10752 10751 10750 ] final -109.26 input  -60.55 | X-H torsion
[ 11005 11000 10999 10996 ] final  179.57 input  -57.11 | X-H torsion

> <Gold.Protein.ActiveResidues>
 VAL166  LYS551  ARG553  GLY616  TRP617  ASP618  TYR619  PRO620  LYS621  CYS622 
 ASP623  PHE694  ASN695  SER759  ASP760  ASP761  ALA762  ILE779  LEU786  VAL792 
 PHE793  MET794  SER795  GLU796  ALA797  LYS798  CYS799  TRP800  GLU811  SER814 

> <Gold.Protein.RotatedAtoms>
  150.8914  134.8318  159.7295 H   0  0  0  0  0  0  0  0  0  0  0  0  # atno 6907 bound_to 6896
  152.4839  134.4643  159.9625 H   0  0  0  0  0  0  0  0  0  0  0  0  # atno 6908 bound_to 6896
  151.4705  133.3531  159.2858 H   0  0  0  0  0  0  0  0  0  0  0  0  # atno 6909 bound_to 6896
  144.9084  140.6862  143.5041 H   0  0  0  0  0  0  0  0  0  0  0  0  # atno 7974 bound_to 7965
  156.2708  140.2070  156.6046 H   0  0  0  0  0  0  0  0  0  0  0  0  # atno 8008 bound_to 7997
  154.6879  140.0533  157.0357 H   0  0  0  0  0  0  0  0  0  0  0  0  # atno 8009 bound_to 7997
  155.0908  140.3196  155.4577 H   0  0  0  0  0  0  0  0  0  0  0  0  # atno 8010 bound_to 7997
  140.2657  143.3377  152.0583 H   0  0  0  0  0  0  0  0  0  0  0  0  # atno 10167 bound_to 10162
  156.2695  130.4205  149.8453 H   0  0  0  0  0  0  0  0  0  0  0  0  # atno 10718 bound_to 10713
  154.8183  135.4607  154.0705 H   0  0  0  0  0  0  0  0  0  0  0  0  # atno 10763 bound_to 10752
  153.2080  135.6878  153.8156 H   0  0  0  0  0  0  0  0  0  0  0  0  # atno 10764 bound_to 10752
  153.7617  135.3283  155.3315 H   0  0  0  0  0  0  0  0  0  0  0  0  # atno 10765 bound_to 10752
  140.4077  134.6720  157.4597 H   0  0  0  0  0  0  0  0  0  0  0  0  # atno 11005 bound_to 11000
  145.3497  139.1709  143.4441 LP  0  0  0  0  0  0  0  0  0  0  0  0  # atno 17320 bound_to 7965
  146.3145  140.3547  142.8659 LP  0  0  0  0  0  0  0  0  0  0  0  0  # atno 17321 bound_to 7965
  139.5003  144.6690  151.6289 LP  0  0  0  0  0  0  0  0  0  0  0  0  # atno 17342 bound_to 10162
  140.5930  143.9746  150.6337 LP  0  0  0  0  0  0  0  0  0  0  0  0  # atno 17343 bound_to 10162
  156.5940  130.8518  151.3415 LP  0  0  0  0  0  0  0  0  0  0  0  0  # atno 17370 bound_to 10713
  157.7279  130.9649  150.1719 LP  0  0  0  0  0  0  0  0  0  0  0  0  # atno 17371 bound_to 10713
  140.0290  134.6434  155.9132 LP  0  0  0  0  0  0  0  0  0  0  0  0  # atno 17394 bound_to 11000
  141.1833  133.6550  156.5111 LP  0  0  0  0  0  0  0  0  0  0  0  0  # atno 17395 bound_to 11000

$$$$
