AV-unprocessed.smi:2822|AV-procd|sdf|10872|dock4
  -GOLD-   2272015313D 1   1.00000     0.00000
 Structure written by MMmdl.
 40 42  0  0  0  0  0  0  0  0  2 V2000
  152.9557  141.0782  159.8766 Cl  0  0  0  0  0  0  0  0  0  0  0  0
  152.3043  142.6297  159.4769 C   0  0  0  0  0  0  0  0  0  0  0  0
  152.4785  143.7110  160.3649 C   0  0  0  0  0  0  0  0  0  0  0  0
  152.0013  144.9513  160.1299 N   0  0  0  0  0  0  0  0  0  0  0  0
  151.3239  145.1560  158.9813 C   0  0  0  0  0  0  0  0  0  0  0  0
  151.0930  144.1463  158.0259 C   0  0  0  0  0  0  0  0  0  0  0  0
  151.5927  142.8459  158.2743 C   0  0  0  0  0  0  0  0  0  0  0  0
  151.4083  141.7823  157.3772 N   0  0  0  0  0  0  0  0  0  0  0  0
  150.5157  141.9228  156.2369 C   0  0  0  0  0  0  0  0  0  0  0  0
  150.0566  140.5584  155.7039 C   0  0  2  0  0  0  0  0  0  0  0  0
  149.8377  139.5492  156.8460 C   0  0  0  0  0  0  0  0  0  0  0  0
  149.4794  138.2149  156.3041 N   0  3  2  0  0  0  0  0  0  0  0  0
  149.1949  137.1972  157.3494 C   0  0  0  0  0  0  0  0  0  0  0  0
  150.4793  136.6824  158.0270 C   0  0  0  0  0  0  0  0  0  0  0  0
  151.4814  136.1617  156.9878 C   0  0  0  0  0  0  0  0  0  0  0  0
  151.7610  137.2368  155.9278 C   0  0  0  0  0  0  0  0  0  0  0  0
  150.4499  137.7362  155.2811 C   0  0  2  0  0  0  0  0  0  0  0  0
  150.6887  138.8299  154.2211 C   0  0  0  0  0  0  0  0  0  0  0  0
  151.0725  140.0482  154.8466 O   0  0  0  0  0  0  0  0  0  0  0  0
  153.0165  143.5767  161.2918 H   0  0  0  0  0  0  0  0  0  0  0  0
  150.9542  146.1572  158.8163 H   0  0  0  0  0  0  0  0  0  0  0  0
  150.5445  144.3865  157.1276 H   0  0  0  0  0  0  0  0  0  0  0  0
  151.6694  140.8517  157.6714 H   0  0  0  0  0  0  0  0  0  0  0  0
  149.6517  142.5281  156.5143 H   0  0  0  0  0  0  0  0  0  0  0  0
  151.0485  142.4575  155.4497 H   0  0  0  0  0  0  0  0  0  0  0  0
  149.1269  140.6851  155.1453 H   0  0  0  0  0  0  0  0  0  0  0  0
  150.7379  139.4826  157.4576 H   0  0  0  0  0  0  0  0  0  0  0  0
  149.0375  139.8989  157.4997 H   0  0  0  0  0  0  0  0  0  0  0  0
  148.5085  137.6062  158.0916 H   0  0  0  0  0  0  0  0  0  0  0  0
  148.6755  136.3613  156.8793 H   0  0  0  0  0  0  0  0  0  0  0  0
  150.9387  137.4768  158.6158 H   0  0  0  0  0  0  0  0  0  0  0  0
  150.2322  135.8883  158.7319 H   0  0  0  0  0  0  0  0  0  0  0  0
  152.4096  135.8642  157.4764 H   0  0  0  0  0  0  0  0  0  0  0  0
  151.0809  135.2676  156.5081 H   0  0  0  0  0  0  0  0  0  0  0  0
  152.3023  138.0674  156.3823 H   0  0  0  0  0  0  0  0  0  0  0  0
  152.4209  136.8284  155.1616 H   0  0  0  0  0  0  0  0  0  0  0  0
  149.9901  136.8854  154.7759 H   0  0  0  0  0  0  0  0  0  0  0  0
  151.4710  138.5238  153.5259 H   0  0  0  0  0  0  0  0  0  0  0  0
  149.7887  138.9910  153.6252 H   0  0  0  0  0  0  0  0  0  0  0  0
  148.6080  138.3558  155.8131 H   0  0  0  0  0  0  0  0  0  0  0  0
  1  2  1  0  0  0  0
  2  7  1  0  0  0  0
  2  3  2  0  0  0  0
  3  4  1  0  0  0  0
  3 20  1  0  0  0  0
  4  5  2  0  0  0  0
  5  6  1  0  0  0  0
  5 21  1  0  0  0  0
  6  7  2  0  0  0  0
  6 22  1  0  0  0  0
  7  8  1  0  0  0  0
  8  9  1  0  0  0  0
  8 23  1  0  0  0  0
  9 10  1  0  0  0  0
  9 24  1  0  0  0  0
  9 25  1  0  0  0  0
 10 19  1  0  0  0  0
 10 11  1  0  0  0  0
 10 26  1  0  0  0  0
 11 12  1  0  0  0  0
 11 27  1  0  0  0  0
 11 28  1  0  0  0  0
 12 17  1  0  0  0  0
 12 13  1  0  0  0  0
 12 40  1  0  0  0  0
 13 14  1  0  0  0  0
 13 29  1  0  0  0  0
 13 30  1  0  0  0  0
 14 15  1  0  0  0  0
 14 31  1  0  0  0  0
 14 32  1  0  0  0  0
 15 16  1  0  0  0  0
 15 33  1  0  0  0  0
 15 34  1  0  0  0  0
 16 17  1  0  0  0  0
 16 35  1  0  0  0  0
 16 36  1  0  0  0  0
 17 18  1  0  0  0  0
 17 37  1  0  0  0  0
 18 19  1  0  0  0  0
 18 38  1  0  0  0  0
 18 39  1  0  0  0  0
M  CHG  1  12   1
M  END
> <s_m_source_file>
AV-unprocessed.smi

> <i_m_source_file_index>
2822

> <i_lp_mmshare_version>
43012

> <i_f3d_flags>
0

> <s_epik_input>
Q2xjMVtjSF1uW2NIXVtjSF1jMVtOSF1bQ0gyXVtDQEhdKFtDSDJdMilPW0NIMl1bQ0BASF0oTjIzKVtDSDJdW0NIMl1bQ0gyXVtDSDJdMw==

> <s_epik_cmdline>
J2VwaWtfcHl0aG9uJywgJy1waCcsICc3LjAnLCAnLXRuJywgJzgnLCAnLW1hJywgJzIwMCcsICctbWV0YWxfYmluZGluZycsICctaW1hZScsICc8aW5maWxlLm1hZT4nLCAnLW9tYWUnLCAnPG91dGZpbGUubWFlPic=

> <r_lp_tautomer_probability>
0.999999

> <r_epik_Ionization_Penalty>
0.88937

> <r_epik_Ionization_Penalty_Charging>
0.0803403

> <r_epik_Ionization_Penalty_Neutral>
0.80903

> <r_epik_State_Penalty>
0.931884

> <r_epik_Charging_Adjusted_Penalty>
1.01222

> <i_epik_Tot_Q>
1

> <i_epik_Tot_abs_Q>
1

> <r_epik_Metal_State_Penalty>
0.0782275

> <b_epik_Metal_Only>
0

> <s_lp_Force_Field>
OPLS_2005

> <r_lp_Energy>
31.6827

> <b_lp_Chiralities_Consistent>
1

> <s_lp_Variant>
AV-unprocessed.smi:2822-13

> <Gold.Version>
5.8.1

> <Gold.Id.Protein>
6NUR|6NUR_protein|mol2

> <Gold.PLP.Fitness>
36.3623

> <Gold.PLP.PLP>
-34.1715

> <Gold.PLP.part.hbond>
-1.0000

> <Gold.PLP.part.metal>
0.0000

> <Gold.PLP.part.buried>
-4.8839

> <Gold.PLP.part.nonpolar>
-28.8253

> <Gold.PLP.part.repulsive>
0.2195

> <Gold.PLP.ligand.clash>
0.0000

> <Gold.PLP.ligand.torsion>
0.4057

> <Gold.PLP.Chemscore.Hbond>
1.0000

> <Gold.PLP.Chemscore.CHOScore>
0.0000

> <Gold.PLP.Chemscore.Metal>
0.0000

> <Gold.Chemscore.Hbonds>
donor molecule, donor type, donor heavy atom, donor atom, acceptor molecule, acceptor atom, score
      P1  H  7989  7998       L1    19  0.95

> <Gold.PLP.Chemscore.Internal.Correction>
0.0022

> <Gold.Rescore>
     Score         DG    S(hbond)    S(metal)    S(lipo)     H(rot)  DE(clash)    DE(int)     intcor
     17.58     -18.05       0.84        0.00     109.08       1.17       0.01       0.46       ----

> <Gold.Chemscore.Fitness>
17.5797

> <Gold.Chemscore.DG>
-18.0536

> <Gold.Chemscore.ZeroCoef>
-5.4800

> <Gold.Chemscore.Hbond>
0.8399

> <Gold.Chemscore.Metal>
0.0000

> <Gold.Chemscore.Lipo>
109.0758

> <Gold.Chemscore.Internal_Hbond>
0.0000

> <Gold.Chemscore.DEClash>
0.0145

> <Gold.Chemscore.DEInternal>
0.4594

> <Gold.Chemscore.Rot>
1.1693

> <Gold.Chemscore.Internal.Correction>
   9.000000E+99

> <Gold.Chemscore.Hbonds>
donor molecule, donor type, donor heavy atom, donor atom, acceptor molecule, acceptor atom, score
      P1  H  7989  7998       L1    19  0.21

> <Gold.Chemscore.Hbond.Weighted>
-2.8051

> <Gold.Chemscore.Metal.Weighted>
-0.0000

> <Gold.Chemscore.Lipo.Weighted>
-12.7619

> <Gold.Chemscore.Internal_Hbond.Weighted>
0.0000

> <Gold.Chemscore.DEClash.Weighted>
0.0145

> <Gold.Chemscore.DEInternal.Weighted>
0.4594

> <Gold.Chemscore.Rot.Weighted>
2.9934

> <Gold.Chemscore.Internal.Correction.Weighted>
   9.000000E+99

> <Gold.Protein.RotatedTorsions>
[ 6907 6896 6895 6894 ] final -152.03 input  -60.11 | X-H torsion
[ 7974 7965 7964 7962 ] final  -56.83 input  175.53 | X-H torsion
[ 8008 7997 7996 7995 ] final -152.17 input   59.86 | X-H torsion
[ 10167 10162 10161 10158 ] final -115.90 input  -65.29 | X-H torsion
[ 10718 10713 10712 10709 ] final    4.87 input   66.30 | X-H torsion
[ 10763 10752 10751 10750 ] final   91.45 input  -60.55 | X-H torsion
[ 11005 11000 10999 10996 ] final  -36.60 input  -57.11 | X-H torsion

> <Gold.Protein.ActiveResidues>
 VAL166  LYS551  ARG553  GLY616  TRP617  ASP618  TYR619  PRO620  LYS621  CYS622 
 ASP623  PHE694  ASN695  SER759  ASP760  ASP761  ALA762  ILE779  LEU786  VAL792 
 PHE793  MET794  SER795  GLU796  ALA797  LYS798  CYS799  TRP800  GLU811  SER814 

> <Gold.Protein.RotatedAtoms>
  151.2218  133.4498  159.2600 H   0  0  0  0  0  0  0  0  0  0  0  0  # atno 6907 bound_to 6896
  151.0878  134.9898  159.8398 H   0  0  0  0  0  0  0  0  0  0  0  0  # atno 6908 bound_to 6896
  152.5431  134.2153  159.8819 H   0  0  0  0  0  0  0  0  0  0  0  0  # atno 6909 bound_to 6896
  145.8581  140.8304  142.9951 H   0  0  0  0  0  0  0  0  0  0  0  0  # atno 7974 bound_to 7965
  155.6510  140.0712  157.2587 H   0  0  0  0  0  0  0  0  0  0  0  0  # atno 8008 bound_to 7997
  154.4162  140.1733  156.1724 H   0  0  0  0  0  0  0  0  0  0  0  0  # atno 8009 bound_to 7997
  155.9777  140.3356  155.6637 H   0  0  0  0  0  0  0  0  0  0  0  0  # atno 8010 bound_to 7997
  140.0851  143.4752  152.1903 H   0  0  0  0  0  0  0  0  0  0  0  0  # atno 10167 bound_to 10162
  156.8990  130.5715  149.5648 H   0  0  0  0  0  0  0  0  0  0  0  0  # atno 10718 bound_to 10713
  153.2084  135.4397  155.0350 H   0  0  0  0  0  0  0  0  0  0  0  0  # atno 10763 bound_to 10752
  154.8186  135.3327  154.7106 H   0  0  0  0  0  0  0  0  0  0  0  0  # atno 10764 bound_to 10752
  153.7546  135.6996  153.4994 H   0  0  0  0  0  0  0  0  0  0  0  0  # atno 10765 bound_to 10752
  140.9887  133.7016  156.1812 H   0  0  0  0  0  0  0  0  0  0  0  0  # atno 11005 bound_to 11000
  144.6727  140.1055  143.7458 LP  0  0  0  0  0  0  0  0  0  0  0  0  # atno 17320 bound_to 7965
  145.9279  139.2587  143.1342 LP  0  0  0  0  0  0  0  0  0  0  0  0  # atno 17321 bound_to 7965
  139.5757  144.7486  151.3771 LP  0  0  0  0  0  0  0  0  0  0  0  0  # atno 17342 bound_to 10162
  140.7058  143.7518  150.7479 LP  0  0  0  0  0  0  0  0  0  0  0  0  # atno 17343 bound_to 10162
  156.0591  130.5647  150.9155 LP  0  0  0  0  0  0  0  0  0  0  0  0  # atno 17370 bound_to 10713
  157.6038  131.0940  150.8915 LP  0  0  0  0  0  0  0  0  0  0  0  0  # atno 17371 bound_to 10713
  140.7073  134.4499  157.5583 LP  0  0  0  0  0  0  0  0  0  0  0  0  # atno 17394 bound_to 11000
  139.8982  134.8618  156.2010 LP  0  0  0  0  0  0  0  0  0  0  0  0  # atno 17395 bound_to 11000

$$$$
