AV-unprocessed.smi:2829|AV-procd|sdf|10899|dock2
  -GOLD-   2272015343D 1   1.00000     0.00000
 Structure written by MMmdl.
 50 53  0  0  0  0  0  0  0  0  1 V2000
  142.3271  135.0413  162.5487 C   0  0  0  0  0  0  0  0  0  0  0  0
  143.7344  135.2907  161.9605 C   0  0  0  0  0  0  0  0  0  0  0  0
  144.0706  136.7806  162.1801 C   0  0  0  0  0  0  0  0  0  0  0  0
  144.7287  134.4085  162.7440 C   0  0  0  0  0  0  0  0  0  0  0  0
  143.8131  134.9559  160.4601 C   0  0  0  0  0  0  0  0  0  0  0  0
  144.9786  135.1463  159.6836 C   0  0  0  0  0  0  0  0  0  0  0  0
  144.9217  134.8010  158.3227 C   0  0  0  0  0  0  0  0  0  0  0  0
  143.7145  134.2850  157.8105 C   0  0  0  0  0  0  0  0  0  0  0  0
  143.7280  133.9613  156.4291 N   0  0  0  0  0  0  0  0  0  0  0  0
  144.5627  134.4191  155.4756 C   0  0  0  0  0  0  0  0  0  0  0  0
  145.4166  135.2867  155.6483 O   0  0  0  0  0  0  0  0  0  0  0  0
  144.3841  133.8492  154.2716 N   0  0  0  0  0  0  0  0  0  0  0  0
  145.1189  134.1195  153.0365 C   0  0  1  0  0  0  0  0  0  0  0  0
  144.5783  133.3094  151.8565 C   0  0  2  0  0  0  0  0  0  0  0  0
  145.0941  132.1633  151.0645 C   0  0  0  0  0  0  0  0  0  0  0  0
  144.7099  132.6941  149.6597 C   0  0  0  0  0  0  0  0  0  0  0  0
  144.2915  134.0668  149.8569 O   0  0  0  0  0  0  0  0  0  0  0  0
  145.0058  134.4914  151.0021 C   0  0  1  0  0  0  0  0  0  0  0  0
  144.5820  135.3384  152.2095 C   0  0  0  0  0  0  0  0  0  0  0  0
  145.1279  136.7564  152.4147 C   0  0  0  0  0  0  0  0  0  0  0  0
  143.7721  137.1523  153.0097 C   0  0  0  0  0  0  0  0  0  0  0  0
  143.1599  135.9137  152.3468 C   0  0  0  0  0  0  0  0  0  0  0  0
  142.6329  134.1299  158.6141 N   0  0  0  0  0  0  0  0  0  0  0  0
  142.6798  134.4579  159.9084 N   0  0  0  0  0  0  0  0  0  0  0  0
  142.2938  135.2884  163.6105 H   0  0  0  0  0  0  0  0  0  0  0  0
  142.0305  133.9958  162.4564 H   0  0  0  0  0  0  0  0  0  0  0  0
  141.5698  135.6526  162.0560 H   0  0  0  0  0  0  0  0  0  0  0  0
  143.3838  137.4261  161.6311 H   0  0  0  0  0  0  0  0  0  0  0  0
  145.0818  137.0211  161.8494 H   0  0  0  0  0  0  0  0  0  0  0  0
  144.0056  137.0518  163.2342 H   0  0  0  0  0  0  0  0  0  0  0  0
  144.6842  134.6133  163.8141 H   0  0  0  0  0  0  0  0  0  0  0  0
  145.7584  134.5795  162.4279 H   0  0  0  0  0  0  0  0  0  0  0  0
  144.5138  133.3488  162.6029 H   0  0  0  0  0  0  0  0  0  0  0  0
  145.8957  135.5410  160.0922 H   0  0  0  0  0  0  0  0  0  0  0  0
  145.7876  134.9306  157.6897 H   0  0  0  0  0  0  0  0  0  0  0  0
  143.0538  133.2695  156.1374 H   0  0  0  0  0  0  0  0  0  0  0  0
  143.6428  133.1671  154.2019 H   0  0  0  0  0  0  0  0  0  0  0  0
  146.2077  134.0768  153.1273 H   0  0  0  0  0  0  0  0  0  0  0  0
  143.4870  133.2345  151.9339 H   0  0  0  0  0  0  0  0  0  0  0  0
  146.1725  132.0420  151.1755 H   0  0  0  0  0  0  0  0  0  0  0  0
  144.5999  131.2226  151.3084 H   0  0  0  0  0  0  0  0  0  0  0  0
  145.5623  132.6501  148.9809 H   0  0  0  0  0  0  0  0  0  0  0  0
  143.8936  132.1232  149.2168 H   0  0  0  0  0  0  0  0  0  0  0  0
  146.0838  134.5361  150.8152 H   0  0  0  0  0  0  0  0  0  0  0  0
  145.9674  136.8302  153.1062 H   0  0  0  0  0  0  0  0  0  0  0  0
  145.3367  137.2647  151.4723 H   0  0  0  0  0  0  0  0  0  0  0  0
  143.7561  137.0999  154.0990 H   0  0  0  0  0  0  0  0  0  0  0  0
  143.3779  138.1021  152.6477 H   0  0  0  0  0  0  0  0  0  0  0  0
  142.7053  136.1380  151.3809 H   0  0  0  0  0  0  0  0  0  0  0  0
  142.4820  135.3476  152.9858 H   0  0  0  0  0  0  0  0  0  0  0  0
  1  2  1  0  0  0  0
  1 25  1  0  0  0  0
  1 26  1  0  0  0  0
  1 27  1  0  0  0  0
  2  3  1  0  0  0  0
  2  4  1  0  0  0  0
  2  5  1  0  0  0  0
  3 28  1  0  0  0  0
  3 29  1  0  0  0  0
  3 30  1  0  0  0  0
  4 31  1  0  0  0  0
  4 32  1  0  0  0  0
  4 33  1  0  0  0  0
  5 24  1  0  0  0  0
  5  6  2  0  0  0  0
  6  7  1  0  0  0  0
  6 34  1  0  0  0  0
  7  8  2  0  0  0  0
  7 35  1  0  0  0  0
  8  9  1  0  0  0  0
  8 23  1  0  0  0  0
  9 10  1  0  0  0  0
  9 36  1  0  0  0  0
 10 11  2  0  0  0  0
 10 12  1  0  0  0  0
 12 13  1  0  0  0  0
 12 37  1  0  0  0  0
 13 19  1  0  0  0  0
 13 14  1  0  0  0  0
 13 38  1  0  0  0  0
 14 18  1  0  0  0  0
 14 15  1  0  0  0  0
 14 39  1  0  0  0  0
 15 16  1  0  0  0  0
 15 40  1  0  0  0  0
 15 41  1  0  0  0  0
 16 17  1  0  0  0  0
 16 42  1  0  0  0  0
 16 43  1  0  0  0  0
 17 18  1  0  0  0  0
 18 19  1  0  0  0  0
 18 44  1  0  0  0  0
 19 22  1  0  0  0  0
 19 20  1  0  0  0  0
 20 21  1  0  0  0  0
 20 45  1  0  0  0  0
 20 46  1  0  0  0  0
 21 22  1  0  0  0  0
 21 47  1  0  0  0  0
 21 48  1  0  0  0  0
 22 49  1  0  0  0  0
 22 50  1  0  0  0  0
 23 24  2  0  0  0  0
M  END
> <s_m_source_file>
AV-unprocessed.smi

> <i_m_source_file_index>
2829

> <i_lp_mmshare_version>
43012

> <i_f3d_flags>
0

> <s_epik_input>
W0NIM11DKFtDSDNdKShbQ0gzXSljMVtjSF1bY0hdYyhubjEpW05IXUMoPU8pW05IXVtDQEBIXTJbQ0BIXShbQ0gyXVtDSDJdTzMpW0NAQEhdM0MyNFtDSDJdW0NIMl1bQ0gyXTQ=

> <s_epik_cmdline>
J2VwaWtfcHl0aG9uJywgJy1waCcsICc3LjAnLCAnLXRuJywgJzgnLCAnLW1hJywgJzIwMCcsICctbWV0YWxfYmluZGluZycsICctaW1hZScsICc8aW5maWxlLm1hZT4nLCAnLW9tYWUnLCAnPG91dGZpbGUubWFlPic=

> <r_lp_tautomer_probability>
1

> <r_epik_Ionization_Penalty>
0.011915

> <r_epik_Ionization_Penalty_Charging>
0

> <r_epik_Ionization_Penalty_Neutral>
0.011915

> <r_epik_State_Penalty>
0.00486223

> <r_epik_Charging_Adjusted_Penalty>
0.00486223

> <i_epik_Tot_Q>
0

> <i_epik_Tot_abs_Q>
0

> <r_epik_Metal_State_Penalty>
-0

> <b_epik_Metal_Only>
0

> <s_lp_Force_Field>
OPLS_2005

> <r_lp_Energy>
82.5072

> <b_lp_Chiralities_Consistent>
1

> <s_lp_Variant>
AV-unprocessed.smi:2829-2

> <Gold.Version>
5.8.1

> <Gold.Id.Protein>
6NUR|6NUR_protein|mol2

> <Gold.PLP.Fitness>
38.0557

> <Gold.PLP.PLP>
-29.6010

> <Gold.PLP.part.hbond>
-3.0000

> <Gold.PLP.part.metal>
0.0000

> <Gold.PLP.part.buried>
-6.4262

> <Gold.PLP.part.nonpolar>
-20.9681

> <Gold.PLP.part.repulsive>
1.2707

> <Gold.PLP.ligand.clash>
0.0000

> <Gold.PLP.ligand.torsion>
0.2912

> <Gold.PLP.Chemscore.Hbond>
2.9040

> <Gold.PLP.Chemscore.CHOScore>
0.0000

> <Gold.PLP.Chemscore.Metal>
0.0000

> <Gold.Chemscore.Hbonds>
donor molecule, donor type, donor heavy atom, donor atom, acceptor molecule, acceptor atom, score
      L1  H     9    36       P1 10957  0.91
      L1  H    12    37       P1 10957  1.00
      P1  H 11000 11005       L1    23  0.98

> <Gold.PLP.Chemscore.Internal.Correction>
0.3250

> <Gold.Rescore>
     Score         DG    S(hbond)    S(metal)    S(lipo)     H(rot)  DE(clash)    DE(int)     intcor
     18.41     -20.27       2.79        0.00      72.26       1.16       0.15       1.71       ----

> <Gold.Chemscore.Fitness>
18.4113

> <Gold.Chemscore.DG>
-20.2679

> <Gold.Chemscore.ZeroCoef>
-5.4800

> <Gold.Chemscore.Hbond>
2.7868

> <Gold.Chemscore.Metal>
0.0000

> <Gold.Chemscore.Lipo>
72.2583

> <Gold.Chemscore.Internal_Hbond>
0.0000

> <Gold.Chemscore.DEClash>
0.1484

> <Gold.Chemscore.DEInternal>
1.7082

> <Gold.Chemscore.Rot>
1.1618

> <Gold.Chemscore.Internal.Correction>
   9.000000E+99

> <Gold.Chemscore.Hbonds>
donor molecule, donor type, donor heavy atom, donor atom, acceptor molecule, acceptor atom, score
      L1  H     9    36       P1 10957  0.84
      L1  H    12    37       P1 10957  0.98
      P1  H 11000 11005       L1    23  0.67

> <Gold.Chemscore.Hbond.Weighted>
-9.3078

> <Gold.Chemscore.Metal.Weighted>
-0.0000

> <Gold.Chemscore.Lipo.Weighted>
-8.4542

> <Gold.Chemscore.Internal_Hbond.Weighted>
0.0000

> <Gold.Chemscore.DEClash.Weighted>
0.1484

> <Gold.Chemscore.DEInternal.Weighted>
1.7082

> <Gold.Chemscore.Rot.Weighted>
2.9741

> <Gold.Chemscore.Internal.Correction.Weighted>
   9.000000E+99

> <Gold.Protein.RotatedTorsions>
[ 6907 6896 6895 6894 ] final  164.42 input  -60.11 | X-H torsion
[ 7974 7965 7964 7962 ] final  -70.82 input  175.53 | X-H torsion
[ 8008 7997 7996 7995 ] final   12.43 input   59.86 | X-H torsion
[ 10167 10162 10161 10158 ] final  -54.33 input  -65.29 | X-H torsion
[ 10718 10713 10712 10709 ] final -107.31 input   66.30 | X-H torsion
[ 10763 10752 10751 10750 ] final   56.57 input  -60.55 | X-H torsion
[ 11005 11000 10999 10996 ] final -138.49 input  -57.11 | X-H torsion

> <Gold.Protein.ActiveResidues>
 VAL166  LYS551  ARG553  GLY616  TRP617  ASP618  TYR619  PRO620  LYS621  CYS622 
 ASP623  PHE694  ASN695  SER759  ASP760  ASP761  ALA762  ILE779  LEU786  VAL792 
 PHE793  MET794  SER795  GLU796  ALA797  LYS798  CYS799  TRP800  GLU811  SER814 

> <Gold.Protein.RotatedAtoms>
  151.9101  133.3559  159.3860 H   0  0  0  0  0  0  0  0  0  0  0  0  # atno 6907 bound_to 6896
  150.7060  134.4741  159.5448 H   0  0  0  0  0  0  0  0  0  0  0  0  # atno 6908 bound_to 6896
  152.2345  134.8289  160.0520 H   0  0  0  0  0  0  0  0  0  0  0  0  # atno 6909 bound_to 6896
  145.6861  140.9170  143.0807 H   0  0  0  0  0  0  0  0  0  0  0  0  # atno 7974 bound_to 7965
  154.8205  140.2883  155.5790 H   0  0  0  0  0  0  0  0  0  0  0  0  # atno 8008 bound_to 7997
  156.2997  140.2551  156.3041 H   0  0  0  0  0  0  0  0  0  0  0  0  # atno 8009 bound_to 7997
  154.9344  140.0383  157.2054 H   0  0  0  0  0  0  0  0  0  0  0  0  # atno 8010 bound_to 7997
  140.6436  143.2522  151.4921 H   0  0  0  0  0  0  0  0  0  0  0  0  # atno 10167 bound_to 10162
  156.0431  130.5656  150.7804 H   0  0  0  0  0  0  0  0  0  0  0  0  # atno 10718 bound_to 10713
  152.9834  135.5671  154.5251 H   0  0  0  0  0  0  0  0  0  0  0  0  # atno 10763 bound_to 10752
  154.4732  135.2785  155.1629 H   0  0  0  0  0  0  0  0  0  0  0  0  # atno 10764 bound_to 10752
  154.3168  135.6277  153.5543 H   0  0  0  0  0  0  0  0  0  0  0  0  # atno 10765 bound_to 10752
  140.8610  134.2168  157.4707 H   0  0  0  0  0  0  0  0  0  0  0  0  # atno 11005 bound_to 11000
  144.7011  139.8760  143.7444 LP  0  0  0  0  0  0  0  0  0  0  0  0  # atno 17320 bound_to 7965
  146.0923  139.3913  143.0398 LP  0  0  0  0  0  0  0  0  0  0  0  0  # atno 17321 bound_to 7965
  139.5646  144.2074  152.1745 LP  0  0  0  0  0  0  0  0  0  0  0  0  # atno 17342 bound_to 10162
  140.1351  144.5253  150.6778 LP  0  0  0  0  0  0  0  0  0  0  0  0  # atno 17343 bound_to 10162
  157.5273  131.0935  151.0001 LP  0  0  0  0  0  0  0  0  0  0  0  0  # atno 17370 bound_to 10713
  157.0316  130.5713  149.5344 LP  0  0  0  0  0  0  0  0  0  0  0  0  # atno 17371 bound_to 10713
  139.8707  134.9729  156.4792 LP  0  0  0  0  0  0  0  0  0  0  0  0  # atno 17394 bound_to 11000
  140.8682  133.8008  155.9337 LP  0  0  0  0  0  0  0  0  0  0  0  0  # atno 17395 bound_to 11000

$$$$
