AV-unprocessed.smi:2113|AV-procd|sdf|8615|dock4
  -GOLD-   2272011353D 1   1.00000     0.00000
 Structure written by MMmdl.
 44 45  0  0  0  0  0  0  0  0  1 V2000
  148.5939  132.2632  153.4617 C   0  0  0  0  0  0  0  0  0  0  0  0
  149.2022  132.8301  154.7460 C   0  0  0  0  0  0  0  0  0  0  0  0
  149.7264  134.1248  154.4725 O   0  0  0  0  0  0  0  0  0  0  0  0
  149.8510  134.9908  155.5990 C   0  0  2  0  0  0  0  0  0  0  0  0
  148.4482  135.5162  155.9368 C   0  0  0  0  0  0  0  0  0  0  0  0
  150.8192  136.1417  155.2832 C   0  0  0  0  0  0  0  0  0  0  0  0
  151.8280  136.3112  155.9687 O   0  0  0  0  0  0  0  0  0  0  0  0
  150.4802  136.9443  154.2622 N   0  0  0  0  0  0  0  0  0  0  0  0
  151.2050  138.1503  153.8779 C   0  0  0  0  0  0  0  0  0  0  0  0
  151.3709  139.1335  155.0253 C   0  0  0  0  0  0  0  0  0  0  0  0
  150.4318  140.1597  155.2523 C   0  0  0  0  0  0  0  0  0  0  0  0
  150.6205  141.0296  156.3423 C   0  0  0  0  0  0  0  0  0  0  0  0
  151.7480  140.8529  157.1795 C   0  0  0  0  0  0  0  0  0  0  0  0
  151.9467  141.7026  158.2895 N   0  0  0  0  0  0  0  0  0  0  0  0
  151.8593  143.1454  158.0710 C   0  0  0  0  0  0  0  0  0  0  0  0
  151.8273  143.8907  159.4158 C   0  0  0  0  0  0  0  0  0  0  0  0
  152.9612  143.5232  160.1943 O   0  0  0  0  0  0  0  0  0  0  0  0
  152.9697  142.1308  160.4903 C   0  0  0  0  0  0  0  0  0  0  0  0
  153.0360  141.3193  159.1849 C   0  0  0  0  0  0  0  0  0  0  0  0
  152.6597  139.8764  156.9445 N   0  0  0  0  0  0  0  0  0  0  0  0
  152.4728  139.0434  155.8989 C   0  0  0  0  0  0  0  0  0  0  0  0
  148.1768  131.2708  153.6336 H   0  0  0  0  0  0  0  0  0  0  0  0
  149.3471  132.1784  152.6779 H   0  0  0  0  0  0  0  0  0  0  0  0
  147.7934  132.9036  153.0910 H   0  0  0  0  0  0  0  0  0  0  0  0
  148.4385  132.8901  155.5226 H   0  0  0  0  0  0  0  0  0  0  0  0
  149.9821  132.1565  155.1009 H   0  0  0  0  0  0  0  0  0  0  0  0
  150.2196  134.4204  156.4539 H   0  0  0  0  0  0  0  0  0  0  0  0
  148.4739  136.1972  156.7881 H   0  0  0  0  0  0  0  0  0  0  0  0
  147.7801  134.6939  156.1936 H   0  0  0  0  0  0  0  0  0  0  0  0
  148.0044  136.0483  155.0943 H   0  0  0  0  0  0  0  0  0  0  0  0
  149.6368  136.7323  153.7492 H   0  0  0  0  0  0  0  0  0  0  0  0
  152.1782  137.8843  153.4617 H   0  0  0  0  0  0  0  0  0  0  0  0
  150.6511  138.6434  153.0789 H   0  0  0  0  0  0  0  0  0  0  0  0
  149.5753  140.2790  154.6049 H   0  0  0  0  0  0  0  0  0  0  0  0
  149.9085  141.8224  156.5163 H   0  0  0  0  0  0  0  0  0  0  0  0
  152.7170  143.4750  157.4829 H   0  0  0  0  0  0  0  0  0  0  0  0
  150.9606  143.3876  157.5024 H   0  0  0  0  0  0  0  0  0  0  0  0
  151.8448  144.9676  159.2489 H   0  0  0  0  0  0  0  0  0  0  0  0
  150.9094  143.6678  159.9623 H   0  0  0  0  0  0  0  0  0  0  0  0
  153.8347  141.9066  161.1143 H   0  0  0  0  0  0  0  0  0  0  0  0
  152.0829  141.8653  161.0680 H   0  0  0  0  0  0  0  0  0  0  0  0
  153.0063  140.2581  159.4273 H   0  0  0  0  0  0  0  0  0  0  0  0
  153.9859  141.5025  158.6806 H   0  0  0  0  0  0  0  0  0  0  0  0
  153.2222  138.2772  155.7637 H   0  0  0  0  0  0  0  0  0  0  0  0
  1  2  1  0  0  0  0
  1 22  1  0  0  0  0
  1 23  1  0  0  0  0
  1 24  1  0  0  0  0
  2  3  1  0  0  0  0
  2 25  1  0  0  0  0
  2 26  1  0  0  0  0
  3  4  1  0  0  0  0
  4  5  1  0  0  0  0
  4  6  1  0  0  0  0
  4 27  1  0  0  0  0
  5 28  1  0  0  0  0
  5 29  1  0  0  0  0
  5 30  1  0  0  0  0
  6  7  2  0  0  0  0
  6  8  1  0  0  0  0
  8  9  1  0  0  0  0
  8 31  1  0  0  0  0
  9 10  1  0  0  0  0
  9 32  1  0  0  0  0
  9 33  1  0  0  0  0
 10 21  1  0  0  0  0
 10 11  2  0  0  0  0
 11 12  1  0  0  0  0
 11 34  1  0  0  0  0
 12 13  2  0  0  0  0
 12 35  1  0  0  0  0
 13 14  1  0  0  0  0
 13 20  1  0  0  0  0
 14 19  1  0  0  0  0
 14 15  1  0  0  0  0
 15 16  1  0  0  0  0
 15 36  1  0  0  0  0
 15 37  1  0  0  0  0
 16 17  1  0  0  0  0
 16 38  1  0  0  0  0
 16 39  1  0  0  0  0
 17 18  1  0  0  0  0
 18 19  1  0  0  0  0
 18 40  1  0  0  0  0
 18 41  1  0  0  0  0
 19 42  1  0  0  0  0
 19 43  1  0  0  0  0
 20 21  2  0  0  0  0
 21 44  1  0  0  0  0
M  END
> <s_m_source_file>
AV-unprocessed.smi

> <i_m_source_file_index>
2113

> <i_lp_mmshare_version>
43012

> <i_f3d_flags>
0

> <s_epik_input>
W0NIM11bQ0gyXU9bQ0BIXShbQ0gzXSlDKD1PKVtOSF1bQ0gyXWMxW2NIXVtjSF1jKG5bY0hdMSlOMltDSDJdW0NIMl1PW0NIMl1bQ0gyXTI=

> <s_epik_cmdline>
J2VwaWtfcHl0aG9uJywgJy1waCcsICc3LjAnLCAnLXRuJywgJzgnLCAnLW1hJywgJzIwMCcsICctbWV0YWxfYmluZGluZycsICctaW1hZScsICc8aW5maWxlLm1hZT4nLCAnLW9tYWUnLCAnPG91dGZpbGUubWFlPic=

> <r_lp_tautomer_probability>
1

> <r_epik_Ionization_Penalty>
0.00454344

> <r_epik_Ionization_Penalty_Charging>
0

> <r_epik_Ionization_Penalty_Neutral>
0.00454344

> <r_epik_State_Penalty>
0.00328127

> <r_epik_Charging_Adjusted_Penalty>
0.00328127

> <i_epik_Tot_Q>
0

> <i_epik_Tot_abs_Q>
0

> <r_epik_Metal_State_Penalty>
-0

> <b_epik_Metal_Only>
0

> <s_lp_Force_Field>
OPLS_2005

> <r_lp_Energy>
17.3889

> <b_lp_Chiralities_Consistent>
1

> <s_lp_Variant>
AV-unprocessed.smi:2113-1

> <Gold.Version>
5.8.1

> <Gold.Id.Protein>
6NUR|6NUR_protein|mol2

> <Gold.PLP.Fitness>
47.0860

> <Gold.PLP.PLP>
-39.8919

> <Gold.PLP.part.hbond>
-4.0000

> <Gold.PLP.part.metal>
0.0000

> <Gold.PLP.part.buried>
-3.8888

> <Gold.PLP.part.nonpolar>
-32.3433

> <Gold.PLP.part.repulsive>
0.2377

> <Gold.PLP.ligand.clash>
0.0000

> <Gold.PLP.ligand.torsion>
0.8162

> <Gold.PLP.Chemscore.Hbond>
2.8080

> <Gold.PLP.Chemscore.CHOScore>
0.0000

> <Gold.PLP.Chemscore.Metal>
0.0000

> <Gold.Chemscore.Hbonds>
donor molecule, donor type, donor heavy atom, donor atom, acceptor molecule, acceptor atom, score
      L1  H     8    31       P1  7948  0.80
      P1  H  7997  8008       L1    20  0.94
      P1  H 10752 10765       L1     7  1.00

> <Gold.PLP.Chemscore.Internal.Correction>
0.4026

> <Gold.Rescore>
     Score         DG    S(hbond)    S(metal)    S(lipo)     H(rot)  DE(clash)    DE(int)     intcor
     15.93     -18.66       2.02        0.00      96.46       1.90       0.54       2.19       ----

> <Gold.Chemscore.Fitness>
15.9310

> <Gold.Chemscore.DG>
-18.6629

> <Gold.Chemscore.ZeroCoef>
-5.4800

> <Gold.Chemscore.Hbond>
2.0204

> <Gold.Chemscore.Metal>
0.0000

> <Gold.Chemscore.Lipo>
96.4642

> <Gold.Chemscore.Internal_Hbond>
0.0000

> <Gold.Chemscore.DEClash>
0.5382

> <Gold.Chemscore.DEInternal>
2.1937

> <Gold.Chemscore.Rot>
1.8952

> <Gold.Chemscore.Internal.Correction>
   9.000000E+99

> <Gold.Chemscore.Hbonds>
donor molecule, donor type, donor heavy atom, donor atom, acceptor molecule, acceptor atom, score
      L1  H     8    31       P1  7948  0.53
      P1  H  7997  8008       L1    20  0.23
      P1  H 10752 10765       L1     7  0.40

> <Gold.Chemscore.Hbond.Weighted>
-6.7482

> <Gold.Chemscore.Metal.Weighted>
-0.0000

> <Gold.Chemscore.Lipo.Weighted>
-11.2863

> <Gold.Chemscore.Internal_Hbond.Weighted>
0.0000

> <Gold.Chemscore.DEClash.Weighted>
0.5382

> <Gold.Chemscore.DEInternal.Weighted>
2.1937

> <Gold.Chemscore.Rot.Weighted>
4.8516

> <Gold.Chemscore.Internal.Correction.Weighted>
   9.000000E+99

> <Gold.Protein.RotatedTorsions>
[ 6907 6896 6895 6894 ] final  -51.18 input  -60.11 | X-H torsion
[ 7974 7965 7964 7962 ] final  -71.51 input  175.53 | X-H torsion
[ 8008 7997 7996 7995 ] final  -75.69 input   59.86 | X-H torsion
[ 10167 10162 10161 10158 ] final   65.69 input  -65.29 | X-H torsion
[ 10718 10713 10712 10709 ] final   19.10 input   66.30 | X-H torsion
[ 10763 10752 10751 10750 ] final -152.57 input  -60.55 | X-H torsion
[ 11005 11000 10999 10996 ] final  135.09 input  -57.11 | X-H torsion

> <Gold.Protein.ActiveResidues>
 VAL166  LYS551  ARG553  GLY616  TRP617  ASP618  TYR619  PRO620  LYS621  CYS622 
 ASP623  PHE694  ASN695  SER759  ASP760  ASP761  ALA762  ILE779  LEU786  VAL792 
 PHE793  MET794  SER795  GLU796  ALA797  LYS798  CYS799  TRP800  GLU811  SER814 

> <Gold.Protein.RotatedAtoms>
  150.8636  134.7994  159.7101 H   0  0  0  0  0  0  0  0  0  0  0  0  # atno 6907 bound_to 6896
  152.4665  134.5060  159.9749 H   0  0  0  0  0  0  0  0  0  0  0  0  # atno 6908 bound_to 6896
  151.5160  133.3437  159.2928 H   0  0  0  0  0  0  0  0  0  0  0  0  # atno 6909 bound_to 6896
  145.6772  140.9201  143.0852 H   0  0  0  0  0  0  0  0  0  0  0  0  # atno 7974 bound_to 7965
  154.5439  140.0740  156.8556 H   0  0  0  0  0  0  0  0  0  0  0  0  # atno 8008 bound_to 7997
  155.3126  140.3391  155.4225 H   0  0  0  0  0  0  0  0  0  0  0  0  # atno 8009 bound_to 7997
  156.1900  140.1682  156.8097 H   0  0  0  0  0  0  0  0  0  0  0  0  # atno 8010 bound_to 7997
  140.1085  144.4839  150.6992 H   0  0  0  0  0  0  0  0  0  0  0  0  # atno 10167 bound_to 10162
  157.1057  130.6487  149.5884 H   0  0  0  0  0  0  0  0  0  0  0  0  # atno 10718 bound_to 10713
  154.7985  135.3233  154.7608 H   0  0  0  0  0  0  0  0  0  0  0  0  # atno 10763 bound_to 10752
  153.8281  135.6882  153.4822 H   0  0  0  0  0  0  0  0  0  0  0  0  # atno 10764 bound_to 10752
  153.1689  135.4631  154.9818 H   0  0  0  0  0  0  0  0  0  0  0  0  # atno 10765 bound_to 10752
  139.9957  134.9498  156.9959 H   0  0  0  0  0  0  0  0  0  0  0  0  # atno 11005 bound_to 11000
  144.7038  139.8649  143.7436 LP  0  0  0  0  0  0  0  0  0  0  0  0  # atno 17320 bound_to 7965
  146.0995  139.3990  143.0355 LP  0  0  0  0  0  0  0  0  0  0  0  0  # atno 17321 bound_to 7965
  140.6938  143.2392  151.5056 LP  0  0  0  0  0  0  0  0  0  0  0  0  # atno 17342 bound_to 10162
  139.5632  144.2106  152.1724 LP  0  0  0  0  0  0  0  0  0  0  0  0  # atno 17343 bound_to 10162
  155.9862  130.4896  150.7070 LP  0  0  0  0  0  0  0  0  0  0  0  0  # atno 17370 bound_to 10713
  157.4602  131.0882  151.0753 LP  0  0  0  0  0  0  0  0  0  0  0  0  # atno 17371 bound_to 10713
  140.4823  134.1277  155.7219 LP  0  0  0  0  0  0  0  0  0  0  0  0  # atno 17394 bound_to 11000
  141.1602  133.8807  157.1868 LP  0  0  0  0  0  0  0  0  0  0  0  0  # atno 17395 bound_to 11000

$$$$
