AV-unprocessed.smi:2660|AV-procd|sdf|10314|dock3
  -GOLD-   2272014333D 1   1.00000     0.00000
 Structure written by MMmdl.
 36 37  0  0  0  0  0  0  0  0  1 V2000
  145.5817  139.4258  153.5506 N   0  0  0  0  0  0  0  0  0  0  0  0
  146.1109  139.8759  154.6952 C   0  0  0  0  0  0  0  0  0  0  0  0
  145.3774  140.4498  155.5001 O   0  0  0  0  0  0  0  0  0  0  0  0
  147.5606  139.6102  154.8416 C   0  0  0  0  0  0  0  0  0  0  0  0
  148.2766  138.9345  153.9147 C   0  0  0  0  0  0  0  0  0  0  0  0
  149.6819  138.7012  154.1009 C   0  0  0  0  0  0  0  0  0  0  0  0
  150.3077  139.1700  155.1965 C   0  0  0  0  0  0  0  0  0  0  0  0
  151.8049  138.9146  155.4121 C   0  0  0  0  0  0  0  0  0  0  0  0
  152.4749  140.0590  155.5569 F   0  0  0  0  0  0  0  0  0  0  0  0
  152.0283  138.2019  156.5144 F   0  0  0  0  0  0  0  0  0  0  0  0
  152.3377  138.2874  154.3628 F   0  0  0  0  0  0  0  0  0  0  0  0
  149.5716  139.9091  156.1750 N   0  0  0  0  0  0  0  0  0  0  0  0
  150.2555  140.4647  157.3699 C   0  0  0  0  0  0  0  0  0  0  0  0
  150.1325  142.0111  157.4708 C   0  0  2  0  0  0  0  0  0  0  0  0
  150.3816  142.5841  156.2035 O   0  0  0  0  0  0  0  0  0  0  0  0
  151.0750  142.5884  158.5178 C   0  0  0  0  0  0  0  0  0  0  0  0
  151.1277  143.9832  158.7283 C   0  0  0  0  0  0  0  0  0  0  0  0
  151.9923  144.5226  159.7002 C   0  0  0  0  0  0  0  0  0  0  0  0
  152.8091  143.6708  160.4680 C   0  0  0  0  0  0  0  0  0  0  0  0
  152.7607  142.2786  160.2634 C   0  0  0  0  0  0  0  0  0  0  0  0
  151.8966  141.7385  159.2911 C   0  0  0  0  0  0  0  0  0  0  0  0
  148.2169  140.1332  156.0676 C   0  0  0  0  0  0  0  0  0  0  0  0
  147.6177  140.7428  156.9584 O   0  0  0  0  0  0  0  0  0  0  0  0
  144.5980  139.5621  153.3685 H   0  0  0  0  0  0  0  0  0  0  0  0
  146.1636  138.9515  152.8759 H   0  0  0  0  0  0  0  0  0  0  0  0
  147.8285  138.5485  153.0112 H   0  0  0  0  0  0  0  0  0  0  0  0
  150.2168  138.1378  153.3510 H   0  0  0  0  0  0  0  0  0  0  0  0
  149.8155  140.0019  158.2558 H   0  0  0  0  0  0  0  0  0  0  0  0
  151.2934  140.1628  157.4717 H   0  0  0  0  0  0  0  0  0  0  0  0
  149.1121  142.2924  157.7353 H   0  0  0  0  0  0  0  0  0  0  0  0
  149.7273  143.2468  156.0419 H   0  0  0  0  0  0  0  0  0  0  0  0
  150.5011  144.6454  158.1488 H   0  0  0  0  0  0  0  0  0  0  0  0
  152.0271  145.5905  159.8576 H   0  0  0  0  0  0  0  0  0  0  0  0
  153.4711  144.0851  161.2140 H   0  0  0  0  0  0  0  0  0  0  0  0
  153.3856  141.6242  160.8534 H   0  0  0  0  0  0  0  0  0  0  0  0
  151.8631  140.6691  159.1423 H   0  0  0  0  0  0  0  0  0  0  0  0
  1  2  1  0  0  0  0
  1 24  1  0  0  0  0
  1 25  1  0  0  0  0
  2  3  2  0  0  0  0
  2  4  1  0  0  0  0
  4 22  1  0  0  0  0
  4  5  2  0  0  0  0
  5  6  1  0  0  0  0
  5 26  1  0  0  0  0
  6  7  2  0  0  0  0
  6 27  1  0  0  0  0
  7  8  1  0  0  0  0
  7 12  1  0  0  0  0
  8  9  1  0  0  0  0
  8 10  1  0  0  0  0
  8 11  1  0  0  0  0
 12 13  1  0  0  0  0
 12 22  1  0  0  0  0
 13 14  1  0  0  0  0
 13 28  1  0  0  0  0
 13 29  1  0  0  0  0
 14 15  1  0  0  0  0
 14 16  1  0  0  0  0
 14 30  1  0  0  0  0
 15 31  1  0  0  0  0
 16 21  1  0  0  0  0
 16 17  2  0  0  0  0
 17 18  1  0  0  0  0
 17 32  1  0  0  0  0
 18 19  2  0  0  0  0
 18 33  1  0  0  0  0
 19 20  1  0  0  0  0
 19 34  1  0  0  0  0
 20 21  2  0  0  0  0
 20 35  1  0  0  0  0
 21 36  1  0  0  0  0
 22 23  2  0  0  0  0
M  END
> <s_m_source_file>
AV-unprocessed.smi

> <i_m_source_file_index>
2660

> <i_lp_mmshare_version>
43012

> <i_f3d_flags>
0

> <s_epik_input>
W05IMl1DKD1PKWMxW2NIXVtjSF1jKEMoRikoRilGKW4oYzE9TylbQ0gyXVtDQEhdKFtPSF0pYzJbY0hdW2NIXVtjSF1bY0hdW2NIXTI=

> <s_epik_cmdline>
J2VwaWtfcHl0aG9uJywgJy1waCcsICc3LjAnLCAnLXRuJywgJzgnLCAnLW1hJywgJzIwMCcsICctbWV0YWxfYmluZGluZycsICctaW1hZScsICc8aW5maWxlLm1hZT4nLCAnLW9tYWUnLCAnPG91dGZpbGUubWFlPic=

> <r_lp_tautomer_probability>
1

> <r_epik_Ionization_Penalty>
1.58596e-06

> <r_epik_Ionization_Penalty_Charging>
5.13453e-09

> <r_epik_Ionization_Penalty_Neutral>
1.58083e-06

> <r_epik_State_Penalty>
-0

> <r_epik_Charging_Adjusted_Penalty>
5.13453e-09

> <i_epik_Tot_Q>
0

> <i_epik_Tot_abs_Q>
0

> <r_epik_Metal_State_Penalty>
-0

> <b_epik_Metal_Only>
0

> <s_lp_Force_Field>
OPLS_2005

> <r_lp_Energy>
35.2508

> <b_lp_Chiralities_Consistent>
1

> <s_lp_Variant>
AV-unprocessed.smi:2660-1

> <Gold.Version>
5.8.1

> <Gold.Id.Protein>
6NUR|6NUR_protein|mol2

> <Gold.PLP.Fitness>
40.2608

> <Gold.PLP.PLP>
-36.7649

> <Gold.PLP.part.hbond>
-1.6094

> <Gold.PLP.part.metal>
0.0000

> <Gold.PLP.part.buried>
-2.7758

> <Gold.PLP.part.nonpolar>
-31.6712

> <Gold.PLP.part.repulsive>
0.1290

> <Gold.PLP.ligand.clash>
5.2652

> <Gold.PLP.ligand.torsion>
0.1423

> <Gold.PLP.Chemscore.Hbond>
1.8480

> <Gold.PLP.Chemscore.CHOScore>
0.0000

> <Gold.PLP.Chemscore.Metal>
0.0000

> <Gold.Chemscore.Hbonds>
donor molecule, donor type, donor heavy atom, donor atom, acceptor molecule, acceptor atom, score
      L1  H     1    24       P1 10175  0.78
      L1  H    15    31       P1  8028  1.00

> <Gold.PLP.Chemscore.Internal.Correction>
3.5016

> <Gold.Rescore>
     Score         DG    S(hbond)    S(metal)    S(lipo)     H(rot)  DE(clash)    DE(int)     intcor
     12.30     -17.93       1.85        0.00     102.05       2.21       0.35       5.28       ----

> <Gold.Chemscore.Fitness>
12.3034

> <Gold.Chemscore.DG>
-17.9317

> <Gold.Chemscore.ZeroCoef>
-5.4800

> <Gold.Chemscore.Hbond>
1.8461

> <Gold.Chemscore.Metal>
0.0000

> <Gold.Chemscore.Lipo>
102.0483

> <Gold.Chemscore.Internal_Hbond>
0.0000

> <Gold.Chemscore.DEClash>
0.3463

> <Gold.Chemscore.DEInternal>
5.2820

> <Gold.Chemscore.Rot>
2.2086

> <Gold.Chemscore.Internal.Correction>
   9.000000E+99

> <Gold.Chemscore.Hbonds>
donor molecule, donor type, donor heavy atom, donor atom, acceptor molecule, acceptor atom, score
      L1  H     1    24       P1 10175  0.75
      L1  H    15    31       P1  8028  1.00

> <Gold.Chemscore.Hbond.Weighted>
-6.1660

> <Gold.Chemscore.Metal.Weighted>
-0.0000

> <Gold.Chemscore.Lipo.Weighted>
-11.9397

> <Gold.Chemscore.Internal_Hbond.Weighted>
0.0000

> <Gold.Chemscore.DEClash.Weighted>
0.3463

> <Gold.Chemscore.DEInternal.Weighted>
5.2820

> <Gold.Chemscore.Rot.Weighted>
5.6540

> <Gold.Chemscore.Internal.Correction.Weighted>
   9.000000E+99

> <Gold.Protein.RotatedTorsions>
[ 6907 6896 6895 6894 ] final -174.89 input  -60.11 | X-H torsion
[ 7974 7965 7964 7962 ] final  112.91 input  175.53 | X-H torsion
[ 8008 7997 7996 7995 ] final -138.32 input   59.86 | X-H torsion
[ 10167 10162 10161 10158 ] final  172.54 input  -65.29 | X-H torsion
[ 10718 10713 10712 10709 ] final  -58.32 input   66.30 | X-H torsion
[ 10763 10752 10751 10750 ] final  128.63 input  -60.55 | X-H torsion
[ 11005 11000 10999 10996 ] final -106.07 input  -57.11 | X-H torsion

> <Gold.Protein.ActiveResidues>
 VAL166  LYS551  ARG553  GLY616  TRP617  ASP618  TYR619  PRO620  LYS621  CYS622 
 ASP623  PHE694  ASN695  SER759  ASP760  ASP761  ALA762  ILE779  LEU786  VAL792 
 PHE793  MET794  SER795  GLU796  ALA797  LYS798  CYS799  TRP800  GLU811  SER814 

> <Gold.Protein.RotatedAtoms>
  151.5796  133.3379  159.3005 H   0  0  0  0  0  0  0  0  0  0  0  0  # atno 6907 bound_to 6896
  150.8321  134.7581  159.6873 H   0  0  0  0  0  0  0  0  0  0  0  0  # atno 6908 bound_to 6896
  152.4403  134.5611  159.9946 H   0  0  0  0  0  0  0  0  0  0  0  0  # atno 6909 bound_to 6896
  145.2236  139.2851  143.4205 H   0  0  0  0  0  0  0  0  0  0  0  0  # atno 7974 bound_to 7965
  155.4264  140.0522  157.3022 H   0  0  0  0  0  0  0  0  0  0  0  0  # atno 8008 bound_to 7997
  154.4879  140.2108  155.9572 H   0  0  0  0  0  0  0  0  0  0  0  0  # atno 8009 bound_to 7997
  156.1301  140.3173  155.8341 H   0  0  0  0  0  0  0  0  0  0  0  0  # atno 8010 bound_to 7997
  139.5080  144.3362  152.0063 H   0  0  0  0  0  0  0  0  0  0  0  0  # atno 10167 bound_to 10162
  156.1144  130.4172  150.0561 H   0  0  0  0  0  0  0  0  0  0  0  0  # atno 10718 bound_to 10713
  153.7287  135.3242  155.3281 H   0  0  0  0  0  0  0  0  0  0  0  0  # atno 10763 bound_to 10752
  154.8333  135.4517  154.1144 H   0  0  0  0  0  0  0  0  0  0  0  0  # atno 10764 bound_to 10752
  153.2285  135.6957  153.7998 H   0  0  0  0  0  0  0  0  0  0  0  0  # atno 10765 bound_to 10752
  141.1023  133.8862  157.1811 H   0  0  0  0  0  0  0  0  0  0  0  0  # atno 11005 bound_to 11000
  146.3370  140.2549  142.8600 LP  0  0  0  0  0  0  0  0  0  0  0  0  # atno 17320 bound_to 7965
  144.9742  140.8398  143.5436 LP  0  0  0  0  0  0  0  0  0  0  0  0  # atno 17321 bound_to 7965
  140.2800  144.3870  150.6122 LP  0  0  0  0  0  0  0  0  0  0  0  0  # atno 17342 bound_to 10162
  140.6025  143.2167  151.7045 LP  0  0  0  0  0  0  0  0  0  0  0  0  # atno 17343 bound_to 10162
  156.8515  130.9460  151.3625 LP  0  0  0  0  0  0  0  0  0  0  0  0  # atno 17370 bound_to 10713
  157.6327  130.8742  149.9303 LP  0  0  0  0  0  0  0  0  0  0  0  0  # atno 17371 bound_to 10713
  139.9879  135.0075  156.9905 LP  0  0  0  0  0  0  0  0  0  0  0  0  # atno 17394 bound_to 11000
  140.4991  134.1115  155.7247 LP  0  0  0  0  0  0  0  0  0  0  0  0  # atno 17395 bound_to 11000

$$$$
