AV-unprocessed.smi:99|AV-procd|sdf|866|dock1
  -GOLD-   2262017313D 1   1.00000     0.00000
 Structure written by MMmdl.
 53 56  0  0  0  0  0  0  0  0  1 V2000
  148.6825  134.2432  158.3438 O   0  0  0  0  0  0  0  0  0  0  0  0
  147.9608  135.1109  158.8396 C   0  0  0  0  0  0  0  0  0  0  0  0
  147.3662  136.0845  158.1240 O   0  0  0  0  0  0  0  0  0  0  0  0
  147.5789  136.1643  156.7251 C   0  0  0  0  0  0  0  0  0  0  0  0
  146.9094  137.4405  156.1848 C   0  0  1  0  0  0  0  0  0  0  0  0
  147.5307  138.5932  156.7549 O   0  0  0  0  0  0  0  0  0  0  0  0
  148.4711  139.1599  155.8819 C   0  0  1  0  0  0  0  0  0  0  0  0
  149.8300  139.2067  156.5535 N   0  0  0  0  0  0  0  0  0  0  0  0
  150.0365  138.7747  157.8585 C   0  0  0  0  0  0  0  0  0  0  0  0
  151.2456  138.8143  158.4666 C   0  0  0  0  0  0  0  0  0  0  0  0
  152.4141  139.3292  157.7607 C   0  0  0  0  0  0  0  0  0  0  0  0
  153.5484  139.4044  158.2279 O   0  0  0  0  0  0  0  0  0  0  0  0
  152.1607  139.7569  156.4544 N   0  0  0  0  0  0  0  0  0  0  0  0
  150.9196  139.7206  155.8172 C   0  0  0  0  0  0  0  0  0  0  0  0
  150.8066  140.1229  154.6597 O   0  0  0  0  0  0  0  0  0  0  0  0
  148.4582  138.3295  154.5783 C   0  0  1  0  0  0  0  0  0  0  0  0
  149.5101  137.3783  154.5115 O   0  0  0  0  0  0  0  0  0  0  0  0
  147.0928  137.6654  154.6847 C   0  0  1  0  0  0  0  0  0  0  0  0
  146.9462  136.4934  153.8898 O   0  0  0  0  0  0  0  0  0  0  0  0
  145.8013  136.2444  153.2204 C   0  0  0  0  0  0  0  0  0  0  0  0
  144.8080  136.9725  153.2699 O   0  0  0  0  0  0  0  0  0  0  0  0
  145.8695  134.9961  152.4077 C   0  0  0  0  0  0  0  0  0  0  0  0
  145.0334  134.8587  151.2752 C   0  0  0  0  0  0  0  0  0  0  0  0
  145.0792  133.6920  150.4873 C   0  0  0  0  0  0  0  0  0  0  0  0
  145.9629  132.6493  150.8215 C   0  0  0  0  0  0  0  0  0  0  0  0
  146.8000  132.7739  151.9455 C   0  0  0  0  0  0  0  0  0  0  0  0
  146.7546  133.9390  152.7356 C   0  0  0  0  0  0  0  0  0  0  0  0
  147.6527  135.1919  160.2963 C   0  0  0  0  0  0  0  0  0  0  0  0
  147.5361  133.9990  161.0475 C   0  0  0  0  0  0  0  0  0  0  0  0
  147.2470  134.0445  162.4253 C   0  0  0  0  0  0  0  0  0  0  0  0
  147.0725  135.2835  163.0688 C   0  0  0  0  0  0  0  0  0  0  0  0
  147.1879  136.4774  162.3330 C   0  0  0  0  0  0  0  0  0  0  0  0
  147.4764  136.4339  160.9549 C   0  0  0  0  0  0  0  0  0  0  0  0
  152.9411  140.1220  155.9280 H   0  0  0  0  0  0  0  0  0  0  0  0
  148.6462  136.1536  156.5052 H   0  0  0  0  0  0  0  0  0  0  0  0
  147.1403  135.2828  156.2556 H   0  0  0  0  0  0  0  0  0  0  0  0
  145.8479  137.4251  156.4341 H   0  0  0  0  0  0  0  0  0  0  0  0
  148.1833  140.2019  155.7269 H   0  0  0  0  0  0  0  0  0  0  0  0
  149.2143  138.3873  158.4393 H   0  0  0  0  0  0  0  0  0  0  0  0
  151.3486  138.4642  159.4836 H   0  0  0  0  0  0  0  0  0  0  0  0
  148.5265  138.9909  153.7141 H   0  0  0  0  0  0  0  0  0  0  0  0
  149.4369  136.9064  153.6960 H   0  0  0  0  0  0  0  0  0  0  0  0
  146.3388  138.3965  154.3873 H   0  0  0  0  0  0  0  0  0  0  0  0
  144.3475  135.6464  150.9981 H   0  0  0  0  0  0  0  0  0  0  0  0
  144.4358  133.5979  149.6249 H   0  0  0  0  0  0  0  0  0  0  0  0
  145.9987  131.7555  150.2164 H   0  0  0  0  0  0  0  0  0  0  0  0
  147.4798  131.9749  152.2031 H   0  0  0  0  0  0  0  0  0  0  0  0
  147.4118  134.0015  153.5907 H   0  0  0  0  0  0  0  0  0  0  0  0
  147.6654  133.0358  160.5749 H   0  0  0  0  0  0  0  0  0  0  0  0
  147.1586  133.1268  162.9881 H   0  0  0  0  0  0  0  0  0  0  0  0
  146.8504  135.3181  164.1250 H   0  0  0  0  0  0  0  0  0  0  0  0
  147.0549  137.4292  162.8259 H   0  0  0  0  0  0  0  0  0  0  0  0
  147.5607  137.3691  160.4207 H   0  0  0  0  0  0  0  0  0  0  0  0
  1  2  2  0  0  0  0
  2  3  1  0  0  0  0
  2 28  1  0  0  0  0
  3  4  1  0  0  0  0
  4  5  1  0  0  0  0
  4 35  1  0  0  0  0
  4 36  1  0  0  0  0
  5 18  1  0  0  0  0
  5  6  1  0  0  0  0
  5 37  1  0  0  0  0
  6  7  1  0  0  0  0
  7  8  1  0  0  0  0
  7 16  1  0  0  0  0
  7 38  1  0  0  0  0
  8 14  1  0  0  0  0
  8  9  1  0  0  0  0
  9 10  2  0  0  0  0
  9 39  1  0  0  0  0
 10 11  1  0  0  0  0
 10 40  1  0  0  0  0
 11 12  2  0  0  0  0
 11 13  1  0  0  0  0
 13 34  1  0  0  0  0
 13 14  1  0  0  0  0
 14 15  2  0  0  0  0
 16 17  1  0  0  0  0
 16 18  1  0  0  0  0
 16 41  1  0  0  0  0
 17 42  1  0  0  0  0
 18 19  1  0  0  0  0
 18 43  1  0  0  0  0
 19 20  1  0  0  0  0
 20 21  2  0  0  0  0
 20 22  1  0  0  0  0
 22 27  1  0  0  0  0
 22 23  2  0  0  0  0
 23 24  1  0  0  0  0
 23 44  1  0  0  0  0
 24 25  2  0  0  0  0
 24 45  1  0  0  0  0
 25 26  1  0  0  0  0
 25 46  1  0  0  0  0
 26 27  2  0  0  0  0
 26 47  1  0  0  0  0
 27 48  1  0  0  0  0
 28 33  1  0  0  0  0
 28 29  2  0  0  0  0
 29 30  1  0  0  0  0
 29 49  1  0  0  0  0
 30 31  2  0  0  0  0
 30 50  1  0  0  0  0
 31 32  1  0  0  0  0
 31 51  1  0  0  0  0
 32 33  2  0  0  0  0
 32 52  1  0  0  0  0
 33 53  1  0  0  0  0
M  END
> <s_m_source_file>
AV-unprocessed.smi

> <i_m_source_file_index>
99

> <i_lp_mmshare_version>
43012

> <i_f3d_flags>
0

> <s_epik_input>
W2NIXTFbY0hdW2NIXVtjSF1bY0hdYzFDKD1PKU9bQ0gyXVtDQEBIXTJPW0NAQEhdKG4zW2NIXVtjSF1jKD1PKVtuSF1jMz1PKVtDQEBIXShbT0hdKVtDQEhdMk9DKD1PKWM0W2NIXVtjSF1bY0hdW2NIXVtjSF00

> <s_epik_cmdline>
J2VwaWtfcHl0aG9uJywgJy1waCcsICc3LjAnLCAnLXRuJywgJzgnLCAnLW1hJywgJzIwMCcsICctbWV0YWxfYmluZGluZycsICctaW1hZScsICc8aW5maWxlLm1hZT4nLCAnLW9tYWUnLCAnPG91dGZpbGUubWFlPic=

> <r_lp_tautomer_probability>
1

> <r_epik_Ionization_Penalty>
0.00454555

> <r_epik_Ionization_Penalty_Charging>
0.0045191

> <r_epik_Ionization_Penalty_Neutral>
2.64449e-05

> <r_epik_State_Penalty>
-0

> <r_epik_Charging_Adjusted_Penalty>
0.0045191

> <i_epik_Tot_Q>
0

> <i_epik_Tot_abs_Q>
0

> <r_epik_Metal_State_Penalty>
1.27877

> <b_epik_Metal_Only>
0

> <s_epik_Chemistry_Notes>
This compound has an ester and may undergo hydrolysis at high or low pH. This compound contains an acetal/aminal-like group ( X-CH(R)-Y where X, Y are N, S, or O) that may be acid/base labile, releasing an aldehyde.

> <s_lp_Force_Field>
OPLS_2005

> <r_lp_Energy>
46.8901

> <b_lp_Chiralities_Consistent>
1

> <s_lp_Variant>
AV-unprocessed.smi:99-2

> <Gold.Version>
5.8.1

> <Gold.Id.Protein>
6NUR|6NUR_protein|mol2

> <Gold.PLP.Fitness>
52.2886

> <Gold.PLP.PLP>
-42.9431

> <Gold.PLP.part.hbond>
-3.8295

> <Gold.PLP.part.metal>
0.0000

> <Gold.PLP.part.buried>
-6.4978

> <Gold.PLP.part.nonpolar>
-34.5118

> <Gold.PLP.part.repulsive>
2.1390

> <Gold.PLP.ligand.clash>
0.0000

> <Gold.PLP.ligand.torsion>
1.3366

> <Gold.PLP.Chemscore.Hbond>
3.8775

> <Gold.PLP.Chemscore.CHOScore>
0.0000

> <Gold.PLP.Chemscore.Metal>
0.0000

> <Gold.Chemscore.Hbonds>
donor molecule, donor type, donor heavy atom, donor atom, acceptor molecule, acceptor atom, score
      L1  H    17    42       P1  7948  1.00
      P1  H  6896  6908       L1     1  0.52
      P1  H  7989  7998       L1    15  1.00
      P1  H  7997  8008       L1    12  1.00

> <Gold.PLP.Chemscore.Internal.Correction>
0.3862

> <Gold.Rescore>
     Score         DG    S(hbond)    S(metal)    S(lipo)     H(rot)  DE(clash)    DE(int)     intcor
     14.55     -17.87       2.92        0.00      92.22       3.19       0.26       3.07       ----

> <Gold.Chemscore.Fitness>
14.5455

> <Gold.Chemscore.DG>
-17.8714

> <Gold.Chemscore.ZeroCoef>
-5.4800

> <Gold.Chemscore.Hbond>
2.9246

> <Gold.Chemscore.Metal>
0.0000

> <Gold.Chemscore.Lipo>
92.2238

> <Gold.Chemscore.Internal_Hbond>
0.0000

> <Gold.Chemscore.DEClash>
0.2586

> <Gold.Chemscore.DEInternal>
3.0673

> <Gold.Chemscore.Rot>
3.1903

> <Gold.Chemscore.Internal.Correction>
   9.000000E+99

> <Gold.Chemscore.Hbonds>
donor molecule, donor type, donor heavy atom, donor atom, acceptor molecule, acceptor atom, score
      L1  H    17    42       P1  7948  0.90
      P1  H  6896  6908       L1     1  0.44
      P1  H  7989  7998       L1    15  0.99
      P1  H  7997  8008       L1    12  0.96

> <Gold.Chemscore.Hbond.Weighted>
-9.7683

> <Gold.Chemscore.Metal.Weighted>
-0.0000

> <Gold.Chemscore.Lipo.Weighted>
-10.7902

> <Gold.Chemscore.Internal_Hbond.Weighted>
0.0000

> <Gold.Chemscore.DEClash.Weighted>
0.2586

> <Gold.Chemscore.DEInternal.Weighted>
3.0673

> <Gold.Chemscore.Rot.Weighted>
8.1671

> <Gold.Chemscore.Internal.Correction.Weighted>
   9.000000E+99

> <Gold.Protein.RotatedTorsions>
[ 6907 6896 6895 6894 ] final  138.45 input  -60.11 | X-H torsion
[ 7974 7965 7964 7962 ] final -145.40 input  175.53 | X-H torsion
[ 8008 7997 7996 7995 ] final -107.12 input   59.86 | X-H torsion
[ 10167 10162 10161 10158 ] final   15.89 input  -65.29 | X-H torsion
[ 10718 10713 10712 10709 ] final  -31.67 input   66.30 | X-H torsion
[ 10763 10752 10751 10750 ] final  -13.14 input  -60.55 | X-H torsion
[ 11005 11000 10999 10996 ] final  -85.30 input  -57.11 | X-H torsion

> <Gold.Protein.ActiveResidues>
 VAL166  LYS551  ARG553  GLY616  TRP617  ASP618  TYR619  PRO620  LYS621  CYS622 
 ASP623  PHE694  ASN695  SER759  ASP760  ASP761  ALA762  ILE779  LEU786  VAL792 
 PHE793  MET794  SER795  GLU796  ALA797  LYS798  CYS799  TRP800  GLU811  SER814 

> <Gold.Protein.RotatedAtoms>
  152.2664  133.5343  159.5412 H   0  0  0  0  0  0  0  0  0  0  0  0  # atno 6907 bound_to 6896
  150.7143  134.0758  159.3889 H   0  0  0  0  0  0  0  0  0  0  0  0  # atno 6908 bound_to 6896
  151.8674  135.0502  160.0526 H   0  0  0  0  0  0  0  0  0  0  0  0  # atno 6909 bound_to 6896
  144.8230  140.5588  143.5566 H   0  0  0  0  0  0  0  0  0  0  0  0  # atno 7974 bound_to 7965
  154.9247  140.0406  157.2016 H   0  0  0  0  0  0  0  0  0  0  0  0  # atno 8008 bound_to 7997
  154.8219  140.2885  155.5759 H   0  0  0  0  0  0  0  0  0  0  0  0  # atno 8009 bound_to 7997
  156.2980  140.2517  156.3128 H   0  0  0  0  0  0  0  0  0  0  0  0  # atno 8010 bound_to 7997
  140.5836  143.8934  150.6810 H   0  0  0  0  0  0  0  0  0  0  0  0  # atno 10167 bound_to 10162
  156.3843  130.4361  149.7444 H   0  0  0  0  0  0  0  0  0  0  0  0  # atno 10718 bound_to 10713
  153.5088  135.7016  153.5792 H   0  0  0  0  0  0  0  0  0  0  0  0  # atno 10763 bound_to 10752
  153.3891  135.3900  155.1911 H   0  0  0  0  0  0  0  0  0  0  0  0  # atno 10764 bound_to 10752
  154.8705  135.3854  154.4566 H   0  0  0  0  0  0  0  0  0  0  0  0  # atno 10765 bound_to 10752
  141.1642  133.7392  156.8995 H   0  0  0  0  0  0  0  0  0  0  0  0  # atno 11005 bound_to 11000
  145.5063  139.1481  143.3629 LP  0  0  0  0  0  0  0  0  0  0  0  0  # atno 17320 bound_to 7965
  146.2535  140.5203  142.8883 LP  0  0  0  0  0  0  0  0  0  0  0  0  # atno 17321 bound_to 7965
  140.2439  143.3643  152.1463 LP  0  0  0  0  0  0  0  0  0  0  0  0  # atno 17342 bound_to 10162
  139.5184  144.7005  151.5507 LP  0  0  0  0  0  0  0  0  0  0  0  0  # atno 17343 bound_to 10162
  156.4522  130.7912  151.2933 LP  0  0  0  0  0  0  0  0  0  0  0  0  # atno 17370 bound_to 10713
  157.7495  131.0092  150.3257 LP  0  0  0  0  0  0  0  0  0  0  0  0  # atno 17371 bound_to 10713
  140.1593  134.9177  157.2693 LP  0  0  0  0  0  0  0  0  0  0  0  0  # atno 17394 bound_to 11000
  140.2631  134.3548  155.7399 LP  0  0  0  0  0  0  0  0  0  0  0  0  # atno 17395 bound_to 11000

$$$$
