AV-unprocessed.smi:2173|AV-procd|sdf|8838|dock2
  -GOLD-   2272012 33D 1   1.00000     0.00000
 Structure written by MMmdl.
 35 36  0  0  0  0  0  0  0  0  1 V2000
  152.7698  140.3682  158.0002 O   0  0  0  0  0  0  0  0  0  0  0  0
  152.9791  140.7384  159.1561 C   0  0  0  0  0  0  0  0  0  0  0  0
  153.7350  140.0496  160.0263 N   0  0  0  0  0  0  0  0  0  0  0  0
  154.3673  138.7588  159.7657 C   0  0  0  0  0  0  0  0  0  0  0  0
  154.0016  137.6935  160.8193 C   0  0  0  0  0  0  0  0  0  0  0  0
  154.7388  137.8513  162.1392 C   0  0  0  0  0  0  0  0  0  0  0  0
  154.5081  136.9499  163.1999 C   0  0  0  0  0  0  0  0  0  0  0  0
  155.1811  137.1613  164.4187 C   0  0  0  0  0  0  0  0  0  0  0  0
  156.0553  138.2599  164.5294 C   0  0  0  0  0  0  0  0  0  0  0  0
  156.2184  139.1014  163.4112 C   0  0  0  0  0  0  0  0  0  0  0  0
  155.5789  138.9071  162.2381 N   0  0  0  0  0  0  0  0  0  0  0  0
  152.3451  142.0329  159.6801 C   0  0  2  0  0  0  0  0  0  0  0  0
  152.3146  143.1149  158.5767 C   0  0  0  0  0  0  0  0  0  0  0  0
  151.9276  144.4782  159.1219 C   0  0  0  0  0  0  0  0  0  0  0  0
  151.9449  144.7822  160.4311 C   0  0  0  0  0  0  0  0  0  0  0  0
  152.3595  143.7995  161.5122 C   0  0  0  0  0  0  0  0  0  0  0  0
  153.0712  142.5617  160.9335 C   0  0  0  0  0  0  0  0  0  0  0  0
  153.8482  140.4312  160.9542 H   0  0  0  0  0  0  0  0  0  0  0  0
  154.1108  138.3996  158.7677 H   0  0  0  0  0  0  0  0  0  0  0  0
  155.4471  138.9086  159.7632 H   0  0  0  0  0  0  0  0  0  0  0  0
  152.9287  137.7257  161.0120 H   0  0  0  0  0  0  0  0  0  0  0  0
  154.2030  136.6992  160.4175 H   0  0  0  0  0  0  0  0  0  0  0  0
  153.8222  136.1233  163.0869 H   0  0  0  0  0  0  0  0  0  0  0  0
  155.0263  136.4957  165.2548 H   0  0  0  0  0  0  0  0  0  0  0  0
  156.5863  138.4541  165.4492 H   0  0  0  0  0  0  0  0  0  0  0  0
  156.8778  139.9551  163.4608 H   0  0  0  0  0  0  0  0  0  0  0  0
  151.3150  141.8133  159.9678 H   0  0  0  0  0  0  0  0  0  0  0  0
  153.2847  143.2099  158.0867 H   0  0  0  0  0  0  0  0  0  0  0  0
  151.5972  142.8335  157.8050 H   0  0  0  0  0  0  0  0  0  0  0  0
  151.6375  145.2272  158.3996 H   0  0  0  0  0  0  0  0  0  0  0  0
  151.6433  145.7669  160.7570 H   0  0  0  0  0  0  0  0  0  0  0  0
  153.0112  144.3033  162.2264 H   0  0  0  0  0  0  0  0  0  0  0  0
  151.4634  143.4983  162.0557 H   0  0  0  0  0  0  0  0  0  0  0  0
  153.1408  141.7868  161.6981 H   0  0  0  0  0  0  0  0  0  0  0  0
  154.0969  142.8307  160.6748 H   0  0  0  0  0  0  0  0  0  0  0  0
  1  2  2  0  0  0  0
  2  3  1  0  0  0  0
  2 12  1  0  0  0  0
  3  4  1  0  0  0  0
  3 18  1  0  0  0  0
  4  5  1  0  0  0  0
  4 19  1  0  0  0  0
  4 20  1  0  0  0  0
  5  6  1  0  0  0  0
  5 21  1  0  0  0  0
  5 22  1  0  0  0  0
  6 11  1  0  0  0  0
  6  7  2  0  0  0  0
  7  8  1  0  0  0  0
  7 23  1  0  0  0  0
  8  9  2  0  0  0  0
  8 24  1  0  0  0  0
  9 10  1  0  0  0  0
  9 25  1  0  0  0  0
 10 11  2  0  0  0  0
 10 26  1  0  0  0  0
 12 17  1  0  0  0  0
 12 13  1  0  0  0  0
 12 27  1  0  0  0  0
 13 14  1  0  0  0  0
 13 28  1  0  0  0  0
 13 29  1  0  0  0  0
 14 15  2  0  0  0  0
 14 30  1  0  0  0  0
 15 16  1  0  0  0  0
 15 31  1  0  0  0  0
 16 17  1  0  0  0  0
 16 32  1  0  0  0  0
 16 33  1  0  0  0  0
 17 34  1  0  0  0  0
 17 35  1  0  0  0  0
M  END
> <s_m_source_file>
AV-unprocessed.smi

> <i_m_source_file_index>
2173

> <i_lp_mmshare_version>
43012

> <i_f3d_flags>
0

> <s_epik_input>
W0NIMl0xW0NIMl1bQ0hdPVtDSF1bQ0gyXVtDQEhdMUMoPU8pW05IXVtDSDJdW0NIMl1jMltjSF1bY0hdW2NIXVtjSF1uMg==

> <s_epik_cmdline>
J2VwaWtfcHl0aG9uJywgJy1waCcsICc3LjAnLCAnLXRuJywgJzgnLCAnLW1hJywgJzIwMCcsICctbWV0YWxfYmluZGluZycsICctaW1hZScsICc8aW5maWxlLm1hZT4nLCAnLW9tYWUnLCAnPG91dGZpbGUubWFlPic=

> <r_epik_Ionization_Penalty>
0.0268825

> <r_epik_Ionization_Penalty_Charging>
0

> <r_epik_Ionization_Penalty_Neutral>
0.0268825

> <r_epik_State_Penalty>
0.0219706

> <r_epik_Charging_Adjusted_Penalty>
0.0219706

> <i_epik_Tot_Q>
0

> <i_epik_Tot_abs_Q>
0

> <r_epik_Metal_State_Penalty>
0.0210138

> <b_epik_Metal_Only>
0

> <s_lp_Force_Field>
OPLS_2005

> <r_lp_Energy>
7.98713

> <b_lp_Chiralities_Consistent>
1

> <s_lp_Variant>
AV-unprocessed.smi:2173-1

> <Gold.Version>
5.8.1

> <Gold.Id.Protein>
6NUR|6NUR_protein|mol2

> <Gold.PLP.Fitness>
45.6708

> <Gold.PLP.PLP>
-44.3116

> <Gold.PLP.part.hbond>
-1.0000

> <Gold.PLP.part.metal>
0.0000

> <Gold.PLP.part.buried>
-3.9722

> <Gold.PLP.part.nonpolar>
-39.7042

> <Gold.PLP.part.repulsive>
0.0698

> <Gold.PLP.ligand.clash>
0.0000

> <Gold.PLP.ligand.torsion>
0.6856

> <Gold.PLP.Chemscore.Hbond>
0.8960

> <Gold.PLP.Chemscore.CHOScore>
0.0000

> <Gold.PLP.Chemscore.Metal>
0.0000

> <Gold.Chemscore.Hbonds>
donor molecule, donor type, donor heavy atom, donor atom, acceptor molecule, acceptor atom, score
      P1  H  7997  8008       L1     1  0.79

> <Gold.PLP.Chemscore.Internal.Correction>
0.0424

> <Gold.Rescore>
     Score         DG    S(hbond)    S(metal)    S(lipo)     H(rot)  DE(clash)    DE(int)     intcor
     18.69     -19.57       0.93        0.00     124.27       1.39       0.05       0.82       ----

> <Gold.Chemscore.Fitness>
18.6947

> <Gold.Chemscore.DG>
-19.5663

> <Gold.Chemscore.ZeroCoef>
-5.4800

> <Gold.Chemscore.Hbond>
0.9300

> <Gold.Chemscore.Metal>
0.0000

> <Gold.Chemscore.Lipo>
124.2740

> <Gold.Chemscore.Internal_Hbond>
0.0000

> <Gold.Chemscore.DEClash>
0.0538

> <Gold.Chemscore.DEInternal>
0.8178

> <Gold.Chemscore.Rot>
1.3907

> <Gold.Chemscore.Internal.Correction>
   9.000000E+99

> <Gold.Chemscore.Hbonds>
donor molecule, donor type, donor heavy atom, donor atom, acceptor molecule, acceptor atom, score
      P1  H  7997  8008       L1     1  0.59

> <Gold.Chemscore.Hbond.Weighted>
-3.1063

> <Gold.Chemscore.Metal.Weighted>
-0.0000

> <Gold.Chemscore.Lipo.Weighted>
-14.5401

> <Gold.Chemscore.Internal_Hbond.Weighted>
0.0000

> <Gold.Chemscore.DEClash.Weighted>
0.0538

> <Gold.Chemscore.DEInternal.Weighted>
0.8178

> <Gold.Chemscore.Rot.Weighted>
3.5601

> <Gold.Chemscore.Internal.Correction.Weighted>
   9.000000E+99

> <Gold.Protein.RotatedTorsions>
[ 6907 6896 6895 6894 ] final  -76.53 input  -60.11 | X-H torsion
[ 7974 7965 7964 7962 ] final  -97.17 input  175.53 | X-H torsion
[ 8008 7997 7996 7995 ] final  -82.58 input   59.86 | X-H torsion
[ 10167 10162 10161 10158 ] final   41.80 input  -65.29 | X-H torsion
[ 10718 10713 10712 10709 ] final  -53.46 input   66.30 | X-H torsion
[ 10763 10752 10751 10750 ] final   64.80 input  -60.55 | X-H torsion
[ 11005 11000 10999 10996 ] final  -10.18 input  -57.11 | X-H torsion

> <Gold.Protein.ActiveResidues>
 VAL166  LYS551  ARG553  GLY616  TRP617  ASP618  TYR619  PRO620  LYS621  CYS622 
 ASP623  PHE694  ASN695  SER759  ASP760  ASP761  ALA762  ILE779  LEU786  VAL792 
 PHE793  MET794  SER795  GLU796  ALA797  LYS798  CYS799  TRP800  GLU811  SER814 

> <Gold.Protein.RotatedAtoms>
  150.7024  134.4557  159.5356 H   0  0  0  0  0  0  0  0  0  0  0  0  # atno 6907 bound_to 6896
  152.2242  134.8381  160.0491 H   0  0  0  0  0  0  0  0  0  0  0  0  # atno 6908 bound_to 6896
  151.9221  133.3553  159.3937 H   0  0  0  0  0  0  0  0  0  0  0  0  # atno 6909 bound_to 6896
  145.3372  140.9453  143.2628 H   0  0  0  0  0  0  0  0  0  0  0  0  # atno 7974 bound_to 7965
  154.6101  140.0631  156.9482 H   0  0  0  0  0  0  0  0  0  0  0  0  # atno 8008 bound_to 7997
  155.1987  140.3313  155.4328 H   0  0  0  0  0  0  0  0  0  0  0  0  # atno 8009 bound_to 7997
  156.2371  140.1868  156.7072 H   0  0  0  0  0  0  0  0  0  0  0  0  # atno 8010 bound_to 7997
  140.3607  144.2232  150.6138 H   0  0  0  0  0  0  0  0  0  0  0  0  # atno 10167 bound_to 10162
  156.1533  130.4151  149.9910 H   0  0  0  0  0  0  0  0  0  0  0  0  # atno 10718 bound_to 10713
  153.0070  135.5380  154.6567 H   0  0  0  0  0  0  0  0  0  0  0  0  # atno 10763 bound_to 10752
  154.5786  135.2848  155.0758 H   0  0  0  0  0  0  0  0  0  0  0  0  # atno 10764 bound_to 10752
  154.1896  135.6502  153.5109 H   0  0  0  0  0  0  0  0  0  0  0  0  # atno 10765 bound_to 10752
  140.7420  133.8662  155.8976 H   0  0  0  0  0  0  0  0  0  0  0  0  # atno 11005 bound_to 11000
  144.8818  139.4893  143.6719 LP  0  0  0  0  0  0  0  0  0  0  0  0  # atno 17320 bound_to 7965
  146.3022  139.7463  142.9083 LP  0  0  0  0  0  0  0  0  0  0  0  0  # atno 17321 bound_to 7965
  140.5129  143.2285  151.8507 LP  0  0  0  0  0  0  0  0  0  0  0  0  # atno 17342 bound_to 10162
  139.4814  144.4928  151.9163 LP  0  0  0  0  0  0  0  0  0  0  0  0  # atno 17343 bound_to 10162
  156.7761  130.9204  151.3645 LP  0  0  0  0  0  0  0  0  0  0  0  0  # atno 17370 bound_to 10713
  157.6675  130.9020  149.9964 LP  0  0  0  0  0  0  0  0  0  0  0  0  # atno 17371 bound_to 10713
  140.9828  134.1383  157.4479 LP  0  0  0  0  0  0  0  0  0  0  0  0  # atno 17394 bound_to 11000
  139.8804  135.0016  156.6076 LP  0  0  0  0  0  0  0  0  0  0  0  0  # atno 17395 bound_to 11000

$$$$
